AV-unprocessed.smi:1351|AV-procd|sdf|5525|dock3
  -GOLD-   22720 5113D 1   1.00000     0.00000
 Structure written by MMmdl.
 34 35  0  0  0  0  0  0  0  0  1 V2000
  152.5071  144.1143  161.8996 C   0  0  0  0  0  0  0  0  0  0  0  0
  152.7655  142.8986  161.1378 N   0  0  0  0  0  0  0  0  0  0  0  0
  153.7107  141.9092  161.6453 C   0  0  0  0  0  0  0  0  0  0  0  0
  152.0776  142.6579  159.9264 C   0  0  0  0  0  0  0  0  0  0  0  0
  152.0725  141.3770  159.3198 C   0  0  0  0  0  0  0  0  0  0  0  0
  151.3713  141.1862  158.1136 C   0  0  0  0  0  0  0  0  0  0  0  0
  150.6814  142.2787  157.5403 C   0  0  0  0  0  0  0  0  0  0  0  0
  149.9555  142.2209  156.3199 N   0  0  0  0  0  0  0  0  0  0  0  0
  149.7756  141.1742  155.4918 C   0  0  0  0  0  0  0  0  0  0  0  0
  150.2439  140.0517  155.6804 O   0  0  0  0  0  0  0  0  0  0  0  0
  148.9280  141.4333  154.2363 C   0  0  1  0  0  0  0  0  0  0  0  0
  148.5957  140.1686  153.4202 C   0  0  0  0  0  0  0  0  0  0  0  0
  147.0794  140.1805  153.3144 C   0  0  0  0  0  0  0  0  0  0  0  0
  146.7305  141.6365  153.5890 C   0  0  0  0  0  0  0  0  0  0  0  0
  147.6629  141.9870  154.5964 O   0  0  0  0  0  0  0  0  0  0  0  0
  150.7548  143.5168  158.2074 C   0  0  0  0  0  0  0  0  0  0  0  0
  151.4244  143.7038  159.3634 N   0  0  0  0  0  0  0  0  0  0  0  0
  151.4561  144.1718  162.1849 H   0  0  0  0  0  0  0  0  0  0  0  0
  152.7589  144.9964  161.3104 H   0  0  0  0  0  0  0  0  0  0  0  0
  153.1008  144.1447  162.8133 H   0  0  0  0  0  0  0  0  0  0  0  0
  153.2055  140.9631  161.8425 H   0  0  0  0  0  0  0  0  0  0  0  0
  154.1739  142.2408  162.5747 H   0  0  0  0  0  0  0  0  0  0  0  0
  154.5071  141.7324  160.9216 H   0  0  0  0  0  0  0  0  0  0  0  0
  152.5947  140.5374  159.7526 H   0  0  0  0  0  0  0  0  0  0  0  0
  151.3907  140.2123  157.6501 H   0  0  0  0  0  0  0  0  0  0  0  0
  149.4516  143.0611  156.0742 H   0  0  0  0  0  0  0  0  0  0  0  0
  149.4498  142.1524  153.6032 H   0  0  0  0  0  0  0  0  0  0  0  0
  149.0488  140.2362  152.4304 H   0  0  0  0  0  0  0  0  0  0  0  0
  148.9442  139.2416  153.8776 H   0  0  0  0  0  0  0  0  0  0  0  0
  146.7148  139.8297  152.3484 H   0  0  0  0  0  0  0  0  0  0  0  0
  146.6490  139.5467  154.0909 H   0  0  0  0  0  0  0  0  0  0  0  0
  146.8906  142.2544  152.7040 H   0  0  0  0  0  0  0  0  0  0  0  0
  145.7024  141.7687  153.9263 H   0  0  0  0  0  0  0  0  0  0  0  0
  150.2562  144.3866  157.8052 H   0  0  0  0  0  0  0  0  0  0  0  0
  1  2  1  0  0  0  0
  1 18  1  0  0  0  0
  1 19  1  0  0  0  0
  1 20  1  0  0  0  0
  2  3  1  0  0  0  0
  2  4  1  0  0  0  0
  3 21  1  0  0  0  0
  3 22  1  0  0  0  0
  3 23  1  0  0  0  0
  4 17  1  0  0  0  0
  4  5  2  0  0  0  0
  5  6  1  0  0  0  0
  5 24  1  0  0  0  0
  6  7  2  0  0  0  0
  6 25  1  0  0  0  0
  7  8  1  0  0  0  0
  7 16  1  0  0  0  0
  8  9  1  0  0  0  0
  8 26  1  0  0  0  0
  9 10  2  0  0  0  0
  9 11  1  0  0  0  0
 11 15  1  0  0  0  0
 11 12  1  0  0  0  0
 11 27  1  0  0  0  0
 12 13  1  0  0  0  0
 12 28  1  0  0  0  0
 12 29  1  0  0  0  0
 13 14  1  0  0  0  0
 13 30  1  0  0  0  0
 13 31  1  0  0  0  0
 14 15  1  0  0  0  0
 14 32  1  0  0  0  0
 14 33  1  0  0  0  0
 16 17  2  0  0  0  0
 16 34  1  0  0  0  0
M  END
> <s_m_source_file>
AV-unprocessed.smi

> <i_m_source_file_index>
1351

> <i_lp_mmshare_version>
43012

> <i_f3d_flags>
0

> <s_epik_input>
W0NIM11OKFtDSDNdKWMxW2NIXVtjSF1jKFtjSF1uMSlbTkhdQyg9TylbQ0BASF0yW0NIMl1bQ0gyXVtDSDJdTzI=

> <s_epik_cmdline>
J2VwaWtfcHl0aG9uJywgJy1waCcsICc3LjAnLCAnLXRuJywgJzgnLCAnLW1hJywgJzIwMCcsICctbWV0YWxfYmluZGluZycsICctaW1hZScsICc8aW5maWxlLm1hZT4nLCAnLW9tYWUnLCAnPG91dGZpbGUubWFlPic=

> <r_lp_tautomer_probability>
1

> <r_epik_Ionization_Penalty>
0.225439

> <r_epik_Ionization_Penalty_Charging>
0

> <r_epik_Ionization_Penalty_Neutral>
0.225439

> <r_epik_State_Penalty>
0.21555

> <r_epik_Charging_Adjusted_Penalty>
0.21555

> <i_epik_Tot_Q>
0

> <i_epik_Tot_abs_Q>
0

> <r_epik_Metal_State_Penalty>
0.155168

> <b_epik_Metal_Only>
0

> <s_lp_Force_Field>
OPLS_2005

> <r_lp_Energy>
24.7621

> <b_lp_Chiralities_Consistent>
1

> <s_lp_Variant>
AV-unprocessed.smi:1351-2

> <Gold.Version>
5.8.1

> <Gold.Id.Protein>
6NUR|6NUR_protein|mol2

> <Gold.PLP.Fitness>
40.9816

> <Gold.PLP.PLP>
-35.1694

> <Gold.PLP.part.hbond>
-1.0000

> <Gold.PLP.part.metal>
0.0000

> <Gold.PLP.part.buried>
-0.4524

> <Gold.PLP.part.nonpolar>
-33.0719

> <Gold.PLP.part.repulsive>
0.2901

> <Gold.PLP.ligand.clash>
0.0000

> <Gold.PLP.ligand.torsion>
0.1785

> <Gold.PLP.Chemscore.Hbond>
1.0000

> <Gold.PLP.Chemscore.CHOScore>
1.0545

> <Gold.PLP.Chemscore.Metal>
0.0000

> <Gold.Chemscore.Hbonds>
donor molecule, donor type, donor heavy atom, donor atom, acceptor molecule, acceptor atom, score
      L1  H     8    26       P1  8028  1.00
      L1  C    16    34       P1  8028  0.99
      L1  C    16    34       P1  8029  0.05

> <Gold.PLP.Chemscore.Internal.Correction>
0.0058

> <Gold.Rescore>
     Score         DG    S(hbond)    S(metal)    S(lipo)     H(rot)  DE(clash)    DE(int)     intcor
     13.31     -16.27       1.00        0.00      85.53       1.00       1.58       1.37       ----

> <Gold.Chemscore.Fitness>
13.3114

> <Gold.Chemscore.DG>
-16.2654

> <Gold.Chemscore.ZeroCoef>
-5.4800

> <Gold.Chemscore.Hbond>
0.9997

> <Gold.Chemscore.Metal>
0.0000

> <Gold.Chemscore.Lipo>
85.5255

> <Gold.Chemscore.Internal_Hbond>
0.0000

> <Gold.Chemscore.DEClash>
1.5839

> <Gold.Chemscore.DEInternal>
1.3701

> <Gold.Chemscore.Rot>
1.0000

> <Gold.Chemscore.Internal.Correction>
   9.000000E+99

> <Gold.Chemscore.Hbonds>
donor molecule, donor type, donor heavy atom, donor atom, acceptor molecule, acceptor atom, score
      L1  H     8    26       P1  8028  1.00

> <Gold.Chemscore.Hbond.Weighted>
-3.3390

> <Gold.Chemscore.Metal.Weighted>
-0.0000

> <Gold.Chemscore.Lipo.Weighted>
-10.0065

> <Gold.Chemscore.Internal_Hbond.Weighted>
0.0000

> <Gold.Chemscore.DEClash.Weighted>
1.5839

> <Gold.Chemscore.DEInternal.Weighted>
1.3701

> <Gold.Chemscore.Rot.Weighted>
2.5600

> <Gold.Chemscore.Internal.Correction.Weighted>
   9.000000E+99

> <Gold.Protein.RotatedTorsions>
[ 6907 6896 6895 6894 ] final -130.29 input  -60.11 | X-H torsion
[ 7974 7965 7964 7962 ] final  -29.56 input  175.53 | X-H torsion
[ 8008 7997 7996 7995 ] final   86.02 input   59.86 | X-H torsion
[ 10167 10162 10161 10158 ] final -162.69 input  -65.29 | X-H torsion
[ 10718 10713 10712 10709 ] final  -17.41 input   66.30 | X-H torsion
[ 10763 10752 10751 10750 ] final   71.57 input  -60.55 | X-H torsion
[ 11005 11000 10999 10996 ] final -150.99 input  -57.11 | X-H torsion

> <Gold.Protein.ActiveResidues>
 VAL166  LYS551  ARG553  GLY616  TRP617  ASP618  TYR619  PRO620  LYS621  CYS622 
 ASP623  PHE694  ASN695  SER759  ASP760  ASP761  ALA762  ILE779  LEU786  VAL792 
 PHE793  MET794  SER795  GLU796  ALA797  LYS798  CYS799  TRP800  GLU811  SER814 

> <Gold.Protein.RotatedAtoms>
  150.9381  133.6689  159.2796 H   0  0  0  0  0  0  0  0  0  0  0  0  # atno 6907 bound_to 6896
  151.4087  135.0980  159.9588 H   0  0  0  0  0  0  0  0  0  0  0  0  # atno 6908 bound_to 6896
  152.5057  133.8858  159.7424 H   0  0  0  0  0  0  0  0  0  0  0  0  # atno 6909 bound_to 6896
  146.1208  140.5428  142.8736 H   0  0  0  0  0  0  0  0  0  0  0  0  # atno 7974 bound_to 7965
  155.9575  140.3396  155.6461 H   0  0  0  0  0  0  0  0  0  0  0  0  # atno 8008 bound_to 7997
  155.6841  140.0741  157.2491 H   0  0  0  0  0  0  0  0  0  0  0  0  # atno 8009 bound_to 7997
  154.4135  140.1669  156.2002 H   0  0  0  0  0  0  0  0  0  0  0  0  # atno 8010 bound_to 7997
  139.6374  144.0324  152.2065 H   0  0  0  0  0  0  0  0  0  0  0  0  # atno 10167 bound_to 10162
  156.5739  130.4756  149.6350 H   0  0  0  0  0  0  0  0  0  0  0  0  # atno 10718 bound_to 10713
  153.0406  135.5132  154.7612 H   0  0  0  0  0  0  0  0  0  0  0  0  # atno 10763 bound_to 10752
  154.6553  135.2931  154.9938 H   0  0  0  0  0  0  0  0  0  0  0  0  # atno 10764 bound_to 10752
  154.0808  135.6664  153.4890 H   0  0  0  0  0  0  0  0  0  0  0  0  # atno 10765 bound_to 10752
  140.7343  134.3586  157.5160 H   0  0  0  0  0  0  0  0  0  0  0  0  # atno 11005 bound_to 11000
  144.7595  140.5388  143.6745 LP  0  0  0  0  0  0  0  0  0  0  0  0  # atno 17320 bound_to 7965
  145.5471  139.1476  143.3415 LP  0  0  0  0  0  0  0  0  0  0  0  0  # atno 17321 bound_to 7965
  140.0005  144.6296  150.7734 LP  0  0  0  0  0  0  0  0  0  0  0  0  # atno 17342 bound_to 10162
  140.7472  143.2903  151.3348 LP  0  0  0  0  0  0  0  0  0  0  0  0  # atno 17343 bound_to 10162
  156.2690  130.7006  151.1798 LP  0  0  0  0  0  0  0  0  0  0  0  0  # atno 17370 bound_to 10713
  157.7342  131.0584  150.5537 LP  0  0  0  0  0  0  0  0  0  0  0  0  # atno 17371 bound_to 10713
  139.8819  134.9039  156.2865 LP  0  0  0  0  0  0  0  0  0  0  0  0  # atno 17394 bound_to 11000
  140.9893  133.7218  156.0790 LP  0  0  0  0  0  0  0  0  0  0  0  0  # atno 17395 bound_to 11000

$$$$
