AV-unprocessed.smi:1703|AV-procd|sdf|6856|dock7
  -GOLD-   22720 8 43D 1   1.00000     0.00000
 Structure written by MMmdl.
 48 50  0  0  0  0  0  0  0  0  1 V2000
  152.7696  131.4435  157.1864 C   0  0  0  0  0  0  0  0  0  0  0  0
  151.2754  131.5055  156.8535 C   0  0  2  0  0  0  0  0  0  0  0  0
  150.9777  132.4583  155.6795 C   0  0  0  0  0  0  0  0  0  0  0  0
  149.5441  132.5707  155.4185 N   0  0  0  0  0  0  0  0  0  0  0  0
  149.2353  133.4835  154.3160 C   0  0  0  0  0  0  0  0  0  0  0  0
  148.3829  132.8869  153.1783 C   0  0  1  0  0  0  0  0  0  0  0  0
  148.8473  131.5785  152.9102 O   0  0  0  0  0  0  0  0  0  0  0  0
  146.8915  132.8274  153.5613 C   0  0  0  0  0  0  0  0  0  0  0  0
  146.0543  132.2996  152.4911 N   0  0  0  0  0  0  0  0  0  0  0  0
  145.7820  131.0016  152.2023 C   0  0  0  0  0  0  0  0  0  0  0  0
  146.3541  129.8765  153.0178 C   0  0  0  0  0  0  0  0  0  0  0  0
  145.5605  128.7072  153.0110 O   0  0  0  0  0  0  0  0  0  0  0  0
  144.9689  130.8006  151.1625 N   0  0  0  0  0  0  0  0  0  0  0  0
  144.6951  132.0845  150.7342 C   0  0  0  0  0  0  0  0  0  0  0  0
  143.8922  132.5444  149.6659 C   0  0  0  0  0  0  0  0  0  0  0  0
  143.7573  133.9261  149.4181 C   0  0  0  0  0  0  0  0  0  0  0  0
  144.4207  134.8655  150.2337 C   0  0  0  0  0  0  0  0  0  0  0  0
  145.2257  134.4280  151.3031 C   0  0  0  0  0  0  0  0  0  0  0  0
  145.3588  133.0475  151.5453 C   0  0  0  0  0  0  0  0  0  0  0  0
  148.8752  132.9912  156.6447 C   0  0  0  0  0  0  0  0  0  0  0  0
  149.1667  132.0372  157.8187 C   0  0  2  0  0  0  0  0  0  0  0  0
  148.5306  132.5143  159.1284 C   0  0  0  0  0  0  0  0  0  0  0  0
  150.5762  131.9560  158.0101 O   0  0  0  0  0  0  0  0  0  0  0  0
  153.3462  131.0812  156.3351 H   0  0  0  0  0  0  0  0  0  0  0  0
  152.9545  130.7701  158.0237 H   0  0  0  0  0  0  0  0  0  0  0  0
  153.1548  132.4268  157.4583 H   0  0  0  0  0  0  0  0  0  0  0  0
  150.9315  130.5004  156.6029 H   0  0  0  0  0  0  0  0  0  0  0  0
  151.3914  133.4446  155.8966 H   0  0  0  0  0  0  0  0  0  0  0  0
  151.4979  132.0888  154.7971 H   0  0  0  0  0  0  0  0  0  0  0  0
  148.7079  134.3549  154.7078 H   0  0  0  0  0  0  0  0  0  0  0  0
  150.1687  133.8676  153.9012 H   0  0  0  0  0  0  0  0  0  0  0  0
  148.4838  133.4792  152.2706 H   0  0  0  0  0  0  0  0  0  0  0  0
  148.8221  131.4403  151.9754 H   0  0  0  0  0  0  0  0  0  0  0  0
  146.7553  132.2057  154.4471 H   0  0  0  0  0  0  0  0  0  0  0  0
  146.5313  133.8179  153.8374 H   0  0  0  0  0  0  0  0  0  0  0  0
  147.3397  129.6120  152.6358 H   0  0  0  0  0  0  0  0  0  0  0  0
  146.4779  130.2092  154.0483 H   0  0  0  0  0  0  0  0  0  0  0  0
  144.7715  128.8812  153.5013 H   0  0  0  0  0  0  0  0  0  0  0  0
  143.3787  131.8326  149.0365 H   0  0  0  0  0  0  0  0  0  0  0  0
  143.1406  134.2668  148.5993 H   0  0  0  0  0  0  0  0  0  0  0  0
  144.3105  135.9221  150.0389 H   0  0  0  0  0  0  0  0  0  0  0  0
  145.7312  135.1455  151.9324 H   0  0  0  0  0  0  0  0  0  0  0  0
  149.1920  134.0016  156.9095 H   0  0  0  0  0  0  0  0  0  0  0  0
  147.7982  133.0369  156.4786 H   0  0  0  0  0  0  0  0  0  0  0  0
  148.7832  131.0425  157.5849 H   0  0  0  0  0  0  0  0  0  0  0  0
  147.4470  132.5875  159.0350 H   0  0  0  0  0  0  0  0  0  0  0  0
  148.9095  133.4951  159.4169 H   0  0  0  0  0  0  0  0  0  0  0  0
  148.7478  131.8208  159.9410 H   0  0  0  0  0  0  0  0  0  0  0  0
  1  2  1  0  0  0  0
  1 24  1  0  0  0  0
  1 25  1  0  0  0  0
  1 26  1  0  0  0  0
  2 23  1  0  0  0  0
  2  3  1  0  0  0  0
  2 27  1  0  0  0  0
  3  4  1  0  0  0  0
  3 28  1  0  0  0  0
  3 29  1  0  0  0  0
  4  5  1  0  0  0  0
  4 20  1  0  0  0  0
  5  6  1  0  0  0  0
  5 30  1  0  0  0  0
  5 31  1  0  0  0  0
  6  7  1  0  0  0  0
  6  8  1  0  0  0  0
  6 32  1  0  0  0  0
  7 33  1  0  0  0  0
  8  9  1  0  0  0  0
  8 34  1  0  0  0  0
  8 35  1  0  0  0  0
  9 19  1  0  0  0  0
  9 10  1  0  0  0  0
 10 11  1  0  0  0  0
 10 13  2  0  0  0  0
 11 12  1  0  0  0  0
 11 36  1  0  0  0  0
 11 37  1  0  0  0  0
 12 38  1  0  0  0  0
 13 14  1  0  0  0  0
 14 19  2  0  0  0  0
 14 15  1  0  0  0  0
 15 16  2  0  0  0  0
 15 39  1  0  0  0  0
 16 17  1  0  0  0  0
 16 40  1  0  0  0  0
 17 18  2  0  0  0  0
 17 41  1  0  0  0  0
 18 19  1  0  0  0  0
 18 42  1  0  0  0  0
 20 21  1  0  0  0  0
 20 43  1  0  0  0  0
 20 44  1  0  0  0  0
 21 22  1  0  0  0  0
 21 23  1  0  0  0  0
 21 45  1  0  0  0  0
 22 46  1  0  0  0  0
 22 47  1  0  0  0  0
 22 48  1  0  0  0  0
M  END
> <s_m_source_file>
AV-unprocessed.smi

> <i_m_source_file_index>
1703

> <i_lp_mmshare_version>
43012

> <i_f3d_flags>
0

> <s_epik_input>
W0NIM11bQ0BASF0xW0NIMl1OKFtDSDJdW0NASF0oTzEpW0NIM10pW0NIMl1bQ0BIXShbT0hdKVtDSDJdbihjKG4yKVtDSDJdW09IXSljKGMyMylbY0hdW2NIXVtjSF1bY0hdMw==

> <s_epik_cmdline>
J2VwaWtfcHl0aG9uJywgJy1waCcsICc3LjAnLCAnLXRuJywgJzgnLCAnLW1hJywgJzIwMCcsICctbWV0YWxfYmluZGluZycsICctaW1hZScsICc8aW5maWxlLm1hZT4nLCAnLW9tYWUnLCAnPG91dGZpbGUubWFlPic=

> <r_epik_Ionization_Penalty>
0.307685

> <r_epik_Ionization_Penalty_Charging>
0

> <r_epik_Ionization_Penalty_Neutral>
0.307685

> <r_epik_State_Penalty>
0.277856

> <r_epik_Charging_Adjusted_Penalty>
0.277856

> <i_epik_Tot_Q>
0

> <i_epik_Tot_abs_Q>
0

> <r_epik_Metal_State_Penalty>
0.238959

> <b_epik_Metal_Only>
0

> <s_lp_Force_Field>
OPLS_2005

> <r_lp_Energy>
30.3815

> <b_lp_Chiralities_Consistent>
1

> <s_lp_Variant>
AV-unprocessed.smi:1703-4

> <Gold.Version>
5.8.1

> <Gold.Id.Protein>
6NUR|6NUR_protein|mol2

> <Gold.PLP.Fitness>
40.5530

> <Gold.PLP.PLP>
-34.7309

> <Gold.PLP.part.hbond>
-3.0000

> <Gold.PLP.part.metal>
0.0000

> <Gold.PLP.part.buried>
-0.0333

> <Gold.PLP.part.nonpolar>
-30.8872

> <Gold.PLP.part.repulsive>
0.1514

> <Gold.PLP.ligand.clash>
0.0000

> <Gold.PLP.ligand.torsion>
1.6087

> <Gold.PLP.Chemscore.Hbond>
2.9913

> <Gold.PLP.Chemscore.CHOScore>
0.0000

> <Gold.PLP.Chemscore.Metal>
0.0000

> <Gold.Chemscore.Hbonds>
donor molecule, donor type, donor heavy atom, donor atom, acceptor molecule, acceptor atom, score
      L1  H     7    33       P1 10747  1.00
      L1  H    12    38       P1 10956  0.91
      P1  H  6896  6907       L1    23  0.96

> <Gold.PLP.Chemscore.Internal.Correction>
0.0659

> <Gold.Rescore>
     Score         DG    S(hbond)    S(metal)    S(lipo)     H(rot)  DE(clash)    DE(int)     intcor
     15.92     -18.51       2.84        0.00      93.14       2.88       0.98       1.61       ----

> <Gold.Chemscore.Fitness>
15.9180

> <Gold.Chemscore.DG>
-18.5067

> <Gold.Chemscore.ZeroCoef>
-5.4800

> <Gold.Chemscore.Hbond>
2.8431

> <Gold.Chemscore.Metal>
0.0000

> <Gold.Chemscore.Lipo>
93.1439

> <Gold.Chemscore.Internal_Hbond>
0.0000

> <Gold.Chemscore.DEClash>
0.9824

> <Gold.Chemscore.DEInternal>
1.6064

> <Gold.Chemscore.Rot>
2.8778

> <Gold.Chemscore.Internal.Correction>
   9.000000E+99

> <Gold.Chemscore.Hbonds>
donor molecule, donor type, donor heavy atom, donor atom, acceptor molecule, acceptor atom, score
      L1  H     7    33       P1 10747  0.91
      L1  H    12    38       P1 10956  0.80
      P1  H  6896  6907       L1    23  0.83

> <Gold.Chemscore.Hbond.Weighted>
-9.4960

> <Gold.Chemscore.Metal.Weighted>
-0.0000

> <Gold.Chemscore.Lipo.Weighted>
-10.8978

> <Gold.Chemscore.Internal_Hbond.Weighted>
0.0000

> <Gold.Chemscore.DEClash.Weighted>
0.9824

> <Gold.Chemscore.DEInternal.Weighted>
1.6064

> <Gold.Chemscore.Rot.Weighted>
7.3671

> <Gold.Chemscore.Internal.Correction.Weighted>
   9.000000E+99

> <Gold.Protein.RotatedTorsions>
[ 6907 6896 6895 6894 ] final -171.81 input  -60.11 | X-H torsion
[ 7974 7965 7964 7962 ] final  168.96 input  175.53 | X-H torsion
[ 8008 7997 7996 7995 ] final  147.32 input   59.86 | X-H torsion
[ 10167 10162 10161 10158 ] final   84.87 input  -65.29 | X-H torsion
[ 10718 10713 10712 10709 ] final    3.75 input   66.30 | X-H torsion
[ 10763 10752 10751 10750 ] final  107.14 input  -60.55 | X-H torsion
[ 11005 11000 10999 10996 ] final  -11.82 input  -57.11 | X-H torsion

> <Gold.Protein.ActiveResidues>
 VAL166  LYS551  ARG553  GLY616  TRP617  ASP618  TYR619  PRO620  LYS621  CYS622 
 ASP623  PHE694  ASN695  SER759  ASP760  ASP761  ALA762  ILE779  LEU786  VAL792 
 PHE793  MET794  SER795  GLU796  ALA797  LYS798  CYS799  TRP800  GLU811  SER814 

> <Gold.Protein.RotatedAtoms>
  151.5299  133.3451  159.2916 H   0  0  0  0  0  0  0  0  0  0  0  0  # atno 6907 bound_to 6896
  150.8600  134.7952  159.7086 H   0  0  0  0  0  0  0  0  0  0  0  0  # atno 6908 bound_to 6896
  152.4622  134.5166  159.9821 H   0  0  0  0  0  0  0  0  0  0  0  0  # atno 6909 bound_to 6896
  144.7371  139.8984  143.6408 H   0  0  0  0  0  0  0  0  0  0  0  0  # atno 7974 bound_to 7965
  156.2828  140.2159  156.5518 H   0  0  0  0  0  0  0  0  0  0  0  0  # atno 8008 bound_to 7997
  154.7285  140.0497  157.0727 H   0  0  0  0  0  0  0  0  0  0  0  0  # atno 8009 bound_to 7997
  155.0385  140.3143  155.4736 H   0  0  0  0  0  0  0  0  0  0  0  0  # atno 8010 bound_to 7997
  139.9036  144.6315  150.8611 H   0  0  0  0  0  0  0  0  0  0  0  0  # atno 10167 bound_to 10162
  156.8824  130.5658  149.5652 H   0  0  0  0  0  0  0  0  0  0  0  0  # atno 10718 bound_to 10713
  153.4026  135.3854  155.1998 H   0  0  0  0  0  0  0  0  0  0  0  0  # atno 10763 bound_to 10752
  154.8731  135.3775  154.4599 H   0  0  0  0  0  0  0  0  0  0  0  0  # atno 10764 bound_to 10752
  153.5098  135.7087  153.5848 H   0  0  0  0  0  0  0  0  0  0  0  0  # atno 10765 bound_to 10752
  140.7593  133.8528  155.9110 H   0  0  0  0  0  0  0  0  0  0  0  0  # atno 11005 bound_to 11000
  146.1090  139.4093  143.0299 LP  0  0  0  0  0  0  0  0  0  0  0  0  # atno 17320 bound_to 7965
  145.7470  140.9987  143.1270 LP  0  0  0  0  0  0  0  0  0  0  0  0  # atno 17321 bound_to 7965
  140.7701  143.3418  151.2192 LP  0  0  0  0  0  0  0  0  0  0  0  0  # atno 17342 bound_to 10162
  139.7004  143.9543  152.2902 LP  0  0  0  0  0  0  0  0  0  0  0  0  # atno 17343 bound_to 10162
  156.0670  130.5711  150.9309 LP  0  0  0  0  0  0  0  0  0  0  0  0  # atno 17370 bound_to 10713
  157.6132  131.0935  150.8757 LP  0  0  0  0  0  0  0  0  0  0  0  0  # atno 17371 bound_to 10713
  140.9678  134.1570  157.4601 LP  0  0  0  0  0  0  0  0  0  0  0  0  # atno 17394 bound_to 11000
  139.8773  134.9968  156.5813 LP  0  0  0  0  0  0  0  0  0  0  0  0  # atno 17395 bound_to 11000

$$$$
