AV-unprocessed.smi:35|AV-procd|sdf|273|dock9
  -GOLD-   2262016 43D 1   1.00000     0.00000
 Structure written by MMmdl.
 28 29  0  0  0  0  0  0  0  0  2 V2000
  152.9620  140.2870  158.2235 O   0  0  0  0  0  0  0  0  0  0  0  0
  151.9108  140.4757  157.6139 C   0  0  0  0  0  0  0  0  0  0  0  0
  151.2348  139.4765  156.9758 N   0  5  0  0  0  0  0  0  0  0  0  0
  150.0696  139.6915  156.2965 C   0  0  0  0  0  0  0  0  0  0  0  0
  149.4364  138.7922  155.7436 O   0  0  0  0  0  0  0  0  0  0  0  0
  149.5469  141.0116  156.2320 N   0  0  0  0  0  0  0  0  0  0  0  0
  148.2572  141.2691  155.4833 C   0  0  2  0  0  0  0  0  0  0  0  0
  147.3179  140.3164  155.8691 O   0  0  0  0  0  0  0  0  0  0  0  0
  146.4159  140.1160  154.7930 C   0  0  2  0  0  0  0  0  0  0  0  0
  145.6787  138.7792  154.9677 C   0  0  0  0  0  0  0  0  0  0  0  0
  145.0219  138.4250  153.7691 O   0  0  0  0  0  0  0  0  0  0  0  0
  147.3401  140.1487  153.5706 C   0  0  1  0  0  0  0  0  0  0  0  0
  146.6204  140.5682  152.4278 O   0  0  0  0  0  0  0  0  0  0  0  0
  148.4047  141.1767  153.9476 C   0  0  2  0  0  0  0  0  0  0  0  0
  149.6820  140.7520  153.5064 O   0  0  0  0  0  0  0  0  0  0  0  0
  150.1985  142.0427  156.8867 C   0  0  0  0  0  0  0  0  0  0  0  0
  151.3436  141.8211  157.5632 C   0  0  0  0  0  0  0  0  0  0  0  0
  152.1672  143.3862  158.4569 Br  0  0  0  0  0  0  0  0  0  0  0  0
  147.8903  142.2420  155.8149 H   0  0  0  0  0  0  0  0  0  0  0  0
  145.7162  140.9541  154.7548 H   0  0  0  0  0  0  0  0  0  0  0  0
  146.3911  137.9857  155.1953 H   0  0  0  0  0  0  0  0  0  0  0  0
  144.9684  138.8232  155.7941 H   0  0  0  0  0  0  0  0  0  0  0  0
  144.4549  139.1371  153.5156 H   0  0  0  0  0  0  0  0  0  0  0  0
  147.7852  139.1654  153.4068 H   0  0  0  0  0  0  0  0  0  0  0  0
  145.7051  140.3766  152.5644 H   0  0  0  0  0  0  0  0  0  0  0  0
  148.1875  142.1630  153.5342 H   0  0  0  0  0  0  0  0  0  0  0  0
  149.6790  140.7364  152.5610 H   0  0  0  0  0  0  0  0  0  0  0  0
  149.7848  143.0400  156.8669 H   0  0  0  0  0  0  0  0  0  0  0  0
  1  2  2  0  0  0  0
  2 17  1  0  0  0  0
  2  3  1  0  0  0  0
  3  4  1  0  0  0  0
  4  5  2  0  0  0  0
  4  6  1  0  0  0  0
  6  7  1  0  0  0  0
  6 16  1  0  0  0  0
  7 14  1  0  0  0  0
  7  8  1  0  0  0  0
  7 19  1  0  0  0  0
  8  9  1  0  0  0  0
  9 10  1  0  0  0  0
  9 12  1  0  0  0  0
  9 20  1  0  0  0  0
 10 11  1  0  0  0  0
 10 21  1  0  0  0  0
 10 22  1  0  0  0  0
 11 23  1  0  0  0  0
 12 13  1  0  0  0  0
 12 14  1  0  0  0  0
 12 24  1  0  0  0  0
 13 25  1  0  0  0  0
 14 15  1  0  0  0  0
 14 26  1  0  0  0  0
 15 27  1  0  0  0  0
 16 17  2  0  0  0  0
 16 28  1  0  0  0  0
 17 18  1  0  0  0  0
M  CHG  1   3  -1
M  END
> <s_m_source_file>
AV-unprocessed.smi

> <i_m_source_file_index>
35

> <i_lp_mmshare_version>
43012

> <i_f3d_flags>
0

> <s_epik_input>
Tz1jMVtuSF1jKD1PKW4oW2NIXWMxQnIpW0NAQEhdMk9bQ0BASF0oW0NIMl1bT0hdKVtDQEBIXShbT0hdKVtDQEhdMltPSF0=

> <s_epik_cmdline>
J2VwaWtfcHl0aG9uJywgJy1waCcsICc3LjAnLCAnLXRuJywgJzgnLCAnLW1hJywgJzIwMCcsICctbWV0YWxfYmluZGluZycsICctaW1hZScsICc8aW5maWxlLm1hZT4nLCAnLW9tYWUnLCAnPG91dGZpbGUubWFlPic=

> <r_epik_Ionization_Penalty>
1.06112

> <r_epik_Ionization_Penalty_Charging>
2.1796e-09

> <r_epik_Ionization_Penalty_Neutral>
1.06112

> <r_epik_State_Penalty>
1.11484

> <r_epik_Charging_Adjusted_Penalty>
1.11484

> <i_epik_Tot_Q>
-1

> <i_epik_Tot_abs_Q>
1

> <r_epik_Metal_State_Penalty>
0.0032876

> <b_epik_Metal_Only>
0

> <s_epik_Chemistry_Notes>
This compound contains an acetal/aminal-like group ( X-CH(R)-Y where X, Y are N, S, or O) that may be acid/base labile, releasing an aldehyde.

> <s_lp_Force_Field>
OPLS_2005

> <r_lp_Energy>
42.5644

> <b_lp_Chiralities_Consistent>
1

> <s_lp_Variant>
AV-unprocessed.smi:35-27

> <Gold.Version>
5.8.1

> <Gold.Id.Protein>
6NUR|6NUR_protein|mol2

> <Gold.PLP.Fitness>
40.1015

> <Gold.PLP.PLP>
-25.0888

> <Gold.PLP.part.hbond>
-5.9913

> <Gold.PLP.part.metal>
0.0000

> <Gold.PLP.part.buried>
-1.6363

> <Gold.PLP.part.nonpolar>
-17.2668

> <Gold.PLP.part.repulsive>
0.0445

> <Gold.PLP.ligand.clash>
0.0000

> <Gold.PLP.ligand.torsion>
0.2993

> <Gold.PLP.Chemscore.Hbond>
4.1344

> <Gold.PLP.Chemscore.CHOScore>
1.0000

> <Gold.PLP.Chemscore.Metal>
0.0000

> <Gold.Chemscore.Hbonds>
donor molecule, donor type, donor heavy atom, donor atom, acceptor molecule, acceptor atom, score
      L1  H    11    23       P1 10175  1.00
      L1  H    13    25       P1 10175  1.00
      L1  H    15    27       P1  7957  1.00
      P1  H  7989  7998       L1    15  0.17
      P1  H  7997  8008       L1     1  0.93
      L1  C    16    28       P1  8028  1.00

> <Gold.PLP.Chemscore.Internal.Correction>
0.2081

> <Gold.Rescore>
     Score         DG    S(hbond)    S(metal)    S(lipo)     H(rot)  DE(clash)    DE(int)     intcor
     10.47     -13.50       3.61        0.00      44.76       3.63       0.13       2.90       ----

> <Gold.Chemscore.Fitness>
10.4712

> <Gold.Chemscore.DG>
-13.5041

> <Gold.Chemscore.ZeroCoef>
-5.4800

> <Gold.Chemscore.Hbond>
3.6138

> <Gold.Chemscore.Metal>
0.0000

> <Gold.Chemscore.Lipo>
44.7603

> <Gold.Chemscore.Internal_Hbond>
0.0000

> <Gold.Chemscore.DEClash>
0.1349

> <Gold.Chemscore.DEInternal>
2.8981

> <Gold.Chemscore.Rot>
3.6261

> <Gold.Chemscore.Internal.Correction>
   9.000000E+99

> <Gold.Chemscore.Hbonds>
donor molecule, donor type, donor heavy atom, donor atom, acceptor molecule, acceptor atom, score
      L1  H    11    23       P1 10175  1.00
      L1  H    13    25       P1 10175  0.66
      L1  H    15    27       P1  7957  0.95
      P1  H  7989  7998       L1    15  0.01
      P1  H  7997  8008       L1     1  0.70

> <Gold.Chemscore.Hbond.Weighted>
-12.0700

> <Gold.Chemscore.Metal.Weighted>
-0.0000

> <Gold.Chemscore.Lipo.Weighted>
-5.2370

> <Gold.Chemscore.Internal_Hbond.Weighted>
0.0000

> <Gold.Chemscore.DEClash.Weighted>
0.1349

> <Gold.Chemscore.DEInternal.Weighted>
2.8981

> <Gold.Chemscore.Rot.Weighted>
9.2828

> <Gold.Chemscore.Internal.Correction.Weighted>
   9.000000E+99

> <Gold.Protein.RotatedTorsions>
[ 6907 6896 6895 6894 ] final  -92.21 input  -60.11 | X-H torsion
[ 7974 7965 7964 7962 ] final  168.09 input  175.53 | X-H torsion
[ 8008 7997 7996 7995 ] final  -80.23 input   59.86 | X-H torsion
[ 10167 10162 10161 10158 ] final -119.94 input  -65.29 | X-H torsion
[ 10718 10713 10712 10709 ] final    1.44 input   66.30 | X-H torsion
[ 10763 10752 10751 10750 ] final -159.75 input  -60.55 | X-H torsion
[ 11005 11000 10999 10996 ] final   90.13 input  -57.11 | X-H torsion

> <Gold.Protein.ActiveResidues>
 VAL166  LYS551  ARG553  GLY616  TRP617  ASP618  TYR619  PRO620  LYS621  CYS622 
 ASP623  PHE694  ASN695  SER759  ASP760  ASP761  ALA762  ILE779  LEU786  VAL792 
 PHE793  MET794  SER795  GLU796  ALA797  LYS798  CYS799  TRP800  GLU811  SER814 

> <Gold.Protein.RotatedAtoms>
  150.6903  134.2157  159.4376 H   0  0  0  0  0  0  0  0  0  0  0  0  # atno 6907 bound_to 6896
  152.0116  134.9870  160.0577 H   0  0  0  0  0  0  0  0  0  0  0  0  # atno 6908 bound_to 6896
  152.1483  133.4471  159.4837 H   0  0  0  0  0  0  0  0  0  0  0  0  # atno 6909 bound_to 6896
  144.7401  139.8857  143.6399 H   0  0  0  0  0  0  0  0  0  0  0  0  # atno 7974 bound_to 7965
  154.5863  140.0666  156.9176 H   0  0  0  0  0  0  0  0  0  0  0  0  # atno 8008 bound_to 7997
  155.2374  140.3342  155.4278 H   0  0  0  0  0  0  0  0  0  0  0  0  # atno 8009 bound_to 7997
  156.2225  140.1805  156.7428 H   0  0  0  0  0  0  0  0  0  0  0  0  # atno 8010 bound_to 7997
  140.0412  143.5151  152.2129 H   0  0  0  0  0  0  0  0  0  0  0  0  # atno 10167 bound_to 10162
  156.8482  130.5544  149.5672 H   0  0  0  0  0  0  0  0  0  0  0  0  # atno 10718 bound_to 10713
  154.7449  135.3077  154.8663 H   0  0  0  0  0  0  0  0  0  0  0  0  # atno 10763 bound_to 10752
  153.9467  135.6768  153.4748 H   0  0  0  0  0  0  0  0  0  0  0  0  # atno 10764 bound_to 10752
  153.1046  135.4895  154.8854 H   0  0  0  0  0  0  0  0  0  0  0  0  # atno 10765 bound_to 10752
  139.8862  134.8595  156.3241 H   0  0  0  0  0  0  0  0  0  0  0  0  # atno 11005 bound_to 11000
  146.1179  139.4192  143.0247 LP  0  0  0  0  0  0  0  0  0  0  0  0  # atno 17320 bound_to 7965
  145.7348  141.0029  143.1332 LP  0  0  0  0  0  0  0  0  0  0  0  0  # atno 17321 bound_to 7965
  139.6013  144.7583  151.3166 LP  0  0  0  0  0  0  0  0  0  0  0  0  # atno 17342 bound_to 10162
  140.7259  143.7004  150.7849 LP  0  0  0  0  0  0  0  0  0  0  0  0  # atno 17343 bound_to 10162
  156.0843  130.5845  150.9619 LP  0  0  0  0  0  0  0  0  0  0  0  0  # atno 17370 bound_to 10713
  157.6318  131.0920  150.8426 LP  0  0  0  0  0  0  0  0  0  0  0  0  # atno 17371 bound_to 10713
  140.9767  133.7293  156.0612 LP  0  0  0  0  0  0  0  0  0  0  0  0  # atno 17394 bound_to 11000
  140.7802  134.3734  157.5489 LP  0  0  0  0  0  0  0  0  0  0  0  0  # atno 17395 bound_to 11000

$$$$
