AV-unprocessed.smi:1213|AV-procd|sdf|5085|dock4
  -GOLD-   22720 4133D 1   1.00000     0.00000
 Structure written by MMmdl.
 37 38  0  0  0  0  0  0  0  0  2 V2000
  144.7908  137.8888  152.3259 N   0  0  0  0  0  0  0  0  0  0  0  0
  146.0768  137.5840  152.1397 C   0  0  0  0  0  0  0  0  0  0  0  0
  146.5571  136.5140  152.5094 O   0  0  0  0  0  0  0  0  0  0  0  0
  146.9468  138.6433  151.4557 C   0  0  0  0  0  0  0  0  0  0  0  0
  147.5486  139.6051  152.4149 N   0  3  2  0  0  0  0  0  0  0  0  0
  148.2902  138.9284  153.5092 C   0  0  0  0  0  0  0  0  0  0  0  0
  149.0254  139.9492  154.3942 C   0  0  0  0  0  0  0  0  0  0  0  0
  148.0528  140.9931  154.9667 C   0  0  1  0  0  0  0  0  0  0  0  0
  148.7925  141.9950  155.7286 N   0  0  0  0  0  0  0  0  0  0  0  0
  149.6694  141.7263  156.7072 C   0  0  0  0  0  0  0  0  0  0  0  0
  149.9447  140.5838  157.0748 O   0  0  0  0  0  0  0  0  0  0  0  0
  150.1905  142.8555  157.2186 N   0  0  0  0  0  0  0  0  0  0  0  0
  151.1465  142.9875  158.2599 C   0  0  0  0  0  0  0  0  0  0  0  0
  151.6949  141.9582  158.9160 N   0  0  0  0  0  0  0  0  0  0  0  0
  152.6044  142.3812  159.8886 C   0  0  0  0  0  0  0  0  0  0  0  0
  152.7359  143.7457  159.9607 C   0  0  0  0  0  0  0  0  0  0  0  0
  151.7186  144.5586  158.8015 S   0  0  0  0  0  0  0  0  0  0  0  0
  147.2648  141.6482  153.8172 C   0  0  0  0  0  0  0  0  0  0  0  0
  146.5685  140.5891  152.9474 C   0  0  0  0  0  0  0  0  0  0  0  0
  144.1787  137.2221  152.7749 H   0  0  0  0  0  0  0  0  0  0  0  0
  144.4301  138.7818  152.0221 H   0  0  0  0  0  0  0  0  0  0  0  0
  147.7283  138.1719  150.8572 H   0  0  0  0  0  0  0  0  0  0  0  0
  146.2975  139.1763  150.7597 H   0  0  0  0  0  0  0  0  0  0  0  0
  147.5968  138.3372  154.1096 H   0  0  0  0  0  0  0  0  0  0  0  0
  149.0176  138.2337  153.0875 H   0  0  0  0  0  0  0  0  0  0  0  0
  149.5384  139.4309  155.2054 H   0  0  0  0  0  0  0  0  0  0  0  0
  149.7993  140.4451  153.8059 H   0  0  0  0  0  0  0  0  0  0  0  0
  147.3549  140.4816  155.6327 H   0  0  0  0  0  0  0  0  0  0  0  0
  148.6276  142.9625  155.4916 H   0  0  0  0  0  0  0  0  0  0  0  0
  149.8677  143.7228  156.8163 H   0  0  0  0  0  0  0  0  0  0  0  0
  153.1150  141.6412  160.4869 H   0  0  0  0  0  0  0  0  0  0  0  0
  153.3676  144.3195  160.6225 H   0  0  0  0  0  0  0  0  0  0  0  0
  146.5207  142.3397  154.2145 H   0  0  0  0  0  0  0  0  0  0  0  0
  147.9370  142.2421  153.1957 H   0  0  0  0  0  0  0  0  0  0  0  0
  146.0500  141.0866  152.1275 H   0  0  0  0  0  0  0  0  0  0  0  0
  145.8074  140.0682  153.5308 H   0  0  0  0  0  0  0  0  0  0  0  0
  148.2347  140.1285  151.8892 H   0  0  0  0  0  0  0  0  0  0  0  0
  1  2  1  0  0  0  0
  1 20  1  0  0  0  0
  1 21  1  0  0  0  0
  2  3  2  0  0  0  0
  2  4  1  0  0  0  0
  4  5  1  0  0  0  0
  4 22  1  0  0  0  0
  4 23  1  0  0  0  0
  5 19  1  0  0  0  0
  5  6  1  0  0  0  0
  5 37  1  0  0  0  0
  6  7  1  0  0  0  0
  6 24  1  0  0  0  0
  6 25  1  0  0  0  0
  7  8  1  0  0  0  0
  7 26  1  0  0  0  0
  7 27  1  0  0  0  0
  8  9  1  0  0  0  0
  8 18  1  0  0  0  0
  8 28  1  0  0  0  0
  9 10  1  0  0  0  0
  9 29  1  0  0  0  0
 10 11  2  0  0  0  0
 10 12  1  0  0  0  0
 12 13  1  0  0  0  0
 12 30  1  0  0  0  0
 13 17  1  0  0  0  0
 13 14  2  0  0  0  0
 14 15  1  0  0  0  0
 15 16  2  0  0  0  0
 15 31  1  0  0  0  0
 16 17  1  0  0  0  0
 16 32  1  0  0  0  0
 18 19  1  0  0  0  0
 18 33  1  0  0  0  0
 18 34  1  0  0  0  0
 19 35  1  0  0  0  0
 19 36  1  0  0  0  0
M  CHG  1   5   1
M  END
> <s_m_source_file>
AV-unprocessed.smi

> <i_m_source_file_index>
1213

> <i_lp_mmshare_version>
43012

> <i_f3d_flags>
0

> <s_epik_input>
W05IMl1DKD1PKVtDSDJdTjFbQ0gyXVtDSDJdW0NIXShbQ0gyXVtDSDJdMSlbTkhdQyg9TylbTkhdYzJuW2NIXVtjSF1zMg==

> <s_epik_cmdline>
J2VwaWtfcHl0aG9uJywgJy1waCcsICc3LjAnLCAnLXRuJywgJzgnLCAnLW1hJywgJzIwMCcsICctbWV0YWxfYmluZGluZycsICctaW1hZScsICc8aW5maWxlLm1hZT4nLCAnLW9tYWUnLCAnPG91dGZpbGUubWFlPic=

> <r_lp_tautomer_probability>
0.999

> <r_epik_Ionization_Penalty>
0.86253

> <r_epik_Ionization_Penalty_Charging>
0.862349

> <r_epik_Ionization_Penalty_Neutral>
0.000180085

> <r_epik_State_Penalty>
0.898939

> <r_epik_Charging_Adjusted_Penalty>
1.76129

> <i_epik_Tot_Q>
1

> <i_epik_Tot_abs_Q>
1

> <r_epik_Metal_State_Penalty>
0.948529

> <b_epik_Metal_Only>
0

> <s_lp_Force_Field>
OPLS_2005

> <r_lp_Energy>
9.96379

> <b_lp_Chiralities_Consistent>
1

> <s_lp_Variant>
AV-unprocessed.smi:1213-2

> <Gold.Version>
5.8.1

> <Gold.Id.Protein>
6NUR|6NUR_protein|mol2

> <Gold.PLP.Fitness>
47.1321

> <Gold.PLP.PLP>
-36.1065

> <Gold.PLP.part.hbond>
-4.7592

> <Gold.PLP.part.metal>
0.0000

> <Gold.PLP.part.buried>
-2.5715

> <Gold.PLP.part.nonpolar>
-31.1020

> <Gold.PLP.part.repulsive>
1.5928

> <Gold.PLP.ligand.clash>
0.0000

> <Gold.PLP.ligand.torsion>
0.4861

> <Gold.PLP.Chemscore.Hbond>
3.9920

> <Gold.PLP.Chemscore.CHOScore>
0.0000

> <Gold.PLP.Chemscore.Metal>
0.0000

> <Gold.Chemscore.Hbonds>
donor molecule, donor type, donor heavy atom, donor atom, acceptor molecule, acceptor atom, score
      L1  H     1    21       P1 10175  0.99
      L1  H     5    37       P1  7957  0.90
      L1  H     9    29       P1  8028  1.00
      L1  H    12    30       P1  8028  1.00

> <Gold.PLP.Chemscore.Internal.Correction>
0.0217

> <Gold.Rescore>
     Score         DG    S(hbond)    S(metal)    S(lipo)     H(rot)  DE(clash)    DE(int)     intcor
     18.58     -22.46       3.93        0.00      78.14       2.06       0.60       3.27       ----

> <Gold.Chemscore.Fitness>
18.5794

> <Gold.Chemscore.DG>
-22.4555

> <Gold.Chemscore.ZeroCoef>
-5.4800

> <Gold.Chemscore.Hbond>
3.9266

> <Gold.Chemscore.Metal>
0.0000

> <Gold.Chemscore.Lipo>
78.1401

> <Gold.Chemscore.Internal_Hbond>
0.0000

> <Gold.Chemscore.DEClash>
0.6035

> <Gold.Chemscore.DEInternal>
3.2726

> <Gold.Chemscore.Rot>
2.0631

> <Gold.Chemscore.Internal.Correction>
   9.000000E+99

> <Gold.Chemscore.Hbonds>
donor molecule, donor type, donor heavy atom, donor atom, acceptor molecule, acceptor atom, score
      L1  H     1    21       P1 10175  0.94
      L1  H     5    37       P1  7957  0.82
      L1  H     9    29       P1  8028  0.98
      L1  H    12    30       P1  8028  0.97

> <Gold.Chemscore.Hbond.Weighted>
-13.1147

> <Gold.Chemscore.Metal.Weighted>
-0.0000

> <Gold.Chemscore.Lipo.Weighted>
-9.1424

> <Gold.Chemscore.Internal_Hbond.Weighted>
0.0000

> <Gold.Chemscore.DEClash.Weighted>
0.6035

> <Gold.Chemscore.DEInternal.Weighted>
3.2726

> <Gold.Chemscore.Rot.Weighted>
5.2816

> <Gold.Chemscore.Internal.Correction.Weighted>
   9.000000E+99

> <Gold.Protein.RotatedTorsions>
[ 6907 6896 6895 6894 ] final   -6.74 input  -60.11 | X-H torsion
[ 7974 7965 7964 7962 ] final  -47.65 input  175.53 | X-H torsion
[ 8008 7997 7996 7995 ] final  123.76 input   59.86 | X-H torsion
[ 10167 10162 10161 10158 ] final   62.61 input  -65.29 | X-H torsion
[ 10718 10713 10712 10709 ] final -153.50 input   66.30 | X-H torsion
[ 10763 10752 10751 10750 ] final  126.03 input  -60.55 | X-H torsion
[ 11005 11000 10999 10996 ] final  178.68 input  -57.11 | X-H torsion

> <Gold.Protein.ActiveResidues>
 VAL166  LYS551  ARG553  GLY616  TRP617  ASP618  TYR619  PRO620  LYS621  CYS622 
 ASP623  PHE694  ASN695  SER759  ASP760  ASP761  ALA762  ILE779  LEU786  VAL792 
 PHE793  MET794  SER795  GLU796  ALA797  LYS798  CYS799  TRP800  GLU811  SER814 

> <Gold.Protein.RotatedAtoms>
  151.4607  135.1038  159.9723 H   0  0  0  0  0  0  0  0  0  0  0  0  # atno 6907 bound_to 6896
  152.4854  133.8355  159.7136 H   0  0  0  0  0  0  0  0  0  0  0  0  # atno 6908 bound_to 6896
  150.8959  133.7122  159.2919 H   0  0  0  0  0  0  0  0  0  0  0  0  # atno 6909 bound_to 6896
  145.9594  140.7494  142.9465 H   0  0  0  0  0  0  0  0  0  0  0  0  # atno 7974 bound_to 7965
  156.2777  140.2755  156.1679 H   0  0  0  0  0  0  0  0  0  0  0  0  # atno 8008 bound_to 7997
  155.0686  140.0387  157.2618 H   0  0  0  0  0  0  0  0  0  0  0  0  # atno 8009 bound_to 7997
  154.7059  140.2658  155.6681 H   0  0  0  0  0  0  0  0  0  0  0  0  # atno 8010 bound_to 7997
  140.1420  144.4544  150.6806 H   0  0  0  0  0  0  0  0  0  0  0  0  # atno 10167 bound_to 10162
  156.4867  130.8328  151.2553 H   0  0  0  0  0  0  0  0  0  0  0  0  # atno 10718 bound_to 10713
  153.6867  135.3305  155.3192 H   0  0  0  0  0  0  0  0  0  0  0  0  # atno 10763 bound_to 10752
  154.8451  135.4422  154.1550 H   0  0  0  0  0  0  0  0  0  0  0  0  # atno 10764 bound_to 10752
  153.2581  135.6988  153.7685 H   0  0  0  0  0  0  0  0  0  0  0  0  # atno 10765 bound_to 10752
  140.3978  134.6804  157.4545 H   0  0  0  0  0  0  0  0  0  0  0  0  # atno 11005 bound_to 11000
  144.6812  140.2565  143.7324 LP  0  0  0  0  0  0  0  0  0  0  0  0  # atno 17320 bound_to 7965
  145.8061  139.1984  143.2020 LP  0  0  0  0  0  0  0  0  0  0  0  0  # atno 17321 bound_to 7965
  140.6754  143.2303  151.5519 LP  0  0  0  0  0  0  0  0  0  0  0  0  # atno 17342 bound_to 10162
  139.5467  144.2502  152.1455 LP  0  0  0  0  0  0  0  0  0  0  0  0  # atno 17343 bound_to 10162
  157.7478  131.0027  150.3010 LP  0  0  0  0  0  0  0  0  0  0  0  0  # atno 17370 bound_to 10713
  156.3467  130.3824  149.7363 LP  0  0  0  0  0  0  0  0  0  0  0  0  # atno 17371 bound_to 10713
  140.0358  134.6339  155.9045 LP  0  0  0  0  0  0  0  0  0  0  0  0  # atno 17394 bound_to 11000
  141.1868  133.6558  156.5253 LP  0  0  0  0  0  0  0  0  0  0  0  0  # atno 17395 bound_to 11000

$$$$
