AV-unprocessed.smi:1174|AV-procd|sdf|4946|dock10
  -GOLD-   22720 3533D 1   1.00000     0.00000
 Structure written by MMmdl.
 41 42  0  0  0  0  0  0  0  0  1 V2000
  148.4055  131.7760  153.0205 C   0  0  0  0  0  0  0  0  0  0  0  0
  147.7738  133.1747  153.0663 C   0  0  2  0  0  0  0  0  0  0  0  0
  147.2365  133.6093  151.6884 C   0  0  0  0  0  0  0  0  0  0  0  0
  146.0297  132.8882  151.3185 N   0  0  0  0  0  0  0  0  0  0  0  0
  145.8844  131.5450  151.0426 C   0  0  0  0  0  0  0  0  0  0  0  0
  144.5639  131.3261  150.7716 C   0  0  0  0  0  0  0  0  0  0  0  0
  143.9723  132.6129  150.9104 C   0  0  0  0  0  0  0  0  0  0  0  0
  144.8525  133.5464  151.2335 N   0  0  0  0  0  0  0  0  0  0  0  0
  148.7517  134.1492  153.5423 N   0  0  0  0  0  0  0  0  0  0  0  0
  149.2226  134.2374  154.7944 C   0  0  0  0  0  0  0  0  0  0  0  0
  148.9730  133.4121  155.6735 O   0  0  0  0  0  0  0  0  0  0  0  0
  150.0802  135.4695  155.1049 C   0  0  2  0  0  0  0  0  0  0  0  0
  150.8463  135.3183  156.4388 C   0  0  0  0  0  0  0  0  0  0  0  0
  151.5986  136.6119  156.8069 C   0  0  0  0  0  0  0  0  0  0  0  0
  150.6639  137.8343  156.7415 C   0  0  0  0  0  0  0  0  0  0  0  0
  150.0622  137.9033  155.3984 N   0  0  0  0  0  0  0  0  0  0  0  0
  150.3848  138.7835  154.4175 C   0  0  0  0  0  0  0  0  0  0  0  0
  149.9494  138.4601  153.1958 N   0  0  0  0  0  0  0  0  0  0  0  0
  151.0600  139.7954  154.6006 O   0  0  0  0  0  0  0  0  0  0  0  0
  149.2041  136.7409  155.1405 C   0  0  0  0  0  0  0  0  0  0  0  0
  147.6841  131.0325  152.6805 H   0  0  0  0  0  0  0  0  0  0  0  0
  148.7523  131.4680  154.0076 H   0  0  0  0  0  0  0  0  0  0  0  0
  149.2594  131.7470  152.3427 H   0  0  0  0  0  0  0  0  0  0  0  0
  146.9289  133.1417  153.7568 H   0  0  0  0  0  0  0  0  0  0  0  0
  147.0306  134.6812  151.6756 H   0  0  0  0  0  0  0  0  0  0  0  0
  147.9872  133.4272  150.9185 H   0  0  0  0  0  0  0  0  0  0  0  0
  146.7224  130.8642  151.0674 H   0  0  0  0  0  0  0  0  0  0  0  0
  144.0913  130.3891  150.5169 H   0  0  0  0  0  0  0  0  0  0  0  0
  142.9370  132.8945  150.7863 H   0  0  0  0  0  0  0  0  0  0  0  0
  149.0157  134.8754  152.8919 H   0  0  0  0  0  0  0  0  0  0  0  0
  150.8144  135.5858  154.3048 H   0  0  0  0  0  0  0  0  0  0  0  0
  150.1497  135.0784  157.2435 H   0  0  0  0  0  0  0  0  0  0  0  0
  151.5487  134.4858  156.3803 H   0  0  0  0  0  0  0  0  0  0  0  0
  152.0299  136.5212  157.8041 H   0  0  0  0  0  0  0  0  0  0  0  0
  152.4337  136.7564  156.1201 H   0  0  0  0  0  0  0  0  0  0  0  0
  149.8701  137.7337  157.4830 H   0  0  0  0  0  0  0  0  0  0  0  0
  151.2123  138.7317  157.0265 H   0  0  0  0  0  0  0  0  0  0  0  0
  150.1476  139.0665  152.4137 H   0  0  0  0  0  0  0  0  0  0  0  0
  149.4214  137.6100  153.0629 H   0  0  0  0  0  0  0  0  0  0  0  0
  148.6396  136.8405  154.2113 H   0  0  0  0  0  0  0  0  0  0  0  0
  148.4547  136.6690  155.9306 H   0  0  0  0  0  0  0  0  0  0  0  0
  1  2  1  0  0  0  0
  1 21  1  0  0  0  0
  1 22  1  0  0  0  0
  1 23  1  0  0  0  0
  2  3  1  0  0  0  0
  2  9  1  0  0  0  0
  2 24  1  0  0  0  0
  3  4  1  0  0  0  0
  3 25  1  0  0  0  0
  3 26  1  0  0  0  0
  4  8  1  0  0  0  0
  4  5  1  0  0  0  0
  5  6  2  0  0  0  0
  5 27  1  0  0  0  0
  6  7  1  0  0  0  0
  6 28  1  0  0  0  0
  7  8  2  0  0  0  0
  7 29  1  0  0  0  0
  9 10  1  0  0  0  0
  9 30  1  0  0  0  0
 10 11  2  0  0  0  0
 10 12  1  0  0  0  0
 12 20  1  0  0  0  0
 12 13  1  0  0  0  0
 12 31  1  0  0  0  0
 13 14  1  0  0  0  0
 13 32  1  0  0  0  0
 13 33  1  0  0  0  0
 14 15  1  0  0  0  0
 14 34  1  0  0  0  0
 14 35  1  0  0  0  0
 15 16  1  0  0  0  0
 15 36  1  0  0  0  0
 15 37  1  0  0  0  0
 16 17  1  0  0  0  0
 16 20  1  0  0  0  0
 17 18  1  0  0  0  0
 17 19  2  0  0  0  0
 18 38  1  0  0  0  0
 18 39  1  0  0  0  0
 20 40  1  0  0  0  0
 20 41  1  0  0  0  0
M  END
> <s_m_source_file>
AV-unprocessed.smi

> <i_m_source_file_index>
1174

> <i_lp_mmshare_version>
43012

> <i_f3d_flags>
0

> <s_epik_input>
bjFbY0hdW2NIXVtjSF1uMVtDSDJdW0NAQEhdKFtDSDNdKVtOSF1DKD1PKVtDQEBIXTJbQ0gyXVtDSDJdW0NIMl1OKFtDSDJdMilDKD1PKVtOSDJd

> <s_epik_cmdline>
J2VwaWtfcHl0aG9uJywgJy1waCcsICc3LjAnLCAnLXRuJywgJzgnLCAnLW1hJywgJzIwMCcsICctbWV0YWxfYmluZGluZycsICctaW1hZScsICc8aW5maWxlLm1hZT4nLCAnLW9tYWUnLCAnPG91dGZpbGUubWFlPic=

> <r_lp_tautomer_probability>
1

> <r_epik_Ionization_Penalty>
0.000372452

> <r_epik_Ionization_Penalty_Charging>
0

> <r_epik_Ionization_Penalty_Neutral>
0.000372452

> <r_epik_State_Penalty>
-0

> <r_epik_Charging_Adjusted_Penalty>
0

> <i_epik_Tot_Q>
0

> <i_epik_Tot_abs_Q>
0

> <r_epik_Metal_State_Penalty>
-0

> <b_epik_Metal_Only>
0

> <s_lp_Force_Field>
OPLS_2005

> <r_lp_Energy>
26.8287

> <b_lp_Chiralities_Consistent>
1

> <s_lp_Variant>
AV-unprocessed.smi:1174-1

> <Gold.Version>
5.8.1

> <Gold.Id.Protein>
6NUR|6NUR_protein|mol2

> <Gold.PLP.Fitness>
45.3669

> <Gold.PLP.PLP>
-31.2189

> <Gold.PLP.part.hbond>
-4.0000

> <Gold.PLP.part.metal>
0.0000

> <Gold.PLP.part.buried>
-3.1799

> <Gold.PLP.part.nonpolar>
-23.0609

> <Gold.PLP.part.repulsive>
0.2948

> <Gold.PLP.ligand.clash>
1.7849

> <Gold.PLP.ligand.torsion>
0.6219

> <Gold.PLP.Chemscore.Hbond>
3.8320

> <Gold.PLP.Chemscore.CHOScore>
1.8687

> <Gold.PLP.Chemscore.Metal>
0.0000

> <Gold.Chemscore.Hbonds>
donor molecule, donor type, donor heavy atom, donor atom, acceptor molecule, acceptor atom, score
      L1  H     9    30       P1  7948  0.60
      L1  H    18    38       P1  7957  1.00
      L1  H    18    39       P1  7948  0.88
      P1  H  7989  7998       L1    19  1.00
      L1  C     5    27       P1 10747  1.00
      L1  C     7    29       P1 10186  0.45

> <Gold.PLP.Chemscore.Internal.Correction>
0.0745

> <Gold.Rescore>
     Score         DG    S(hbond)    S(metal)    S(lipo)     H(rot)  DE(clash)    DE(int)     intcor
     18.54     -19.05       3.44        0.00      57.64       1.82       0.07       0.45       ----

> <Gold.Chemscore.Fitness>
18.5360

> <Gold.Chemscore.DG>
-19.0529

> <Gold.Chemscore.ZeroCoef>
-5.4800

> <Gold.Chemscore.Hbond>
3.4400

> <Gold.Chemscore.Metal>
0.0000

> <Gold.Chemscore.Lipo>
57.6397

> <Gold.Chemscore.Internal_Hbond>
0.0000

> <Gold.Chemscore.DEClash>
0.0697

> <Gold.Chemscore.DEInternal>
0.4472

> <Gold.Chemscore.Rot>
1.8206

> <Gold.Chemscore.Internal.Correction>
   9.000000E+99

> <Gold.Chemscore.Hbonds>
donor molecule, donor type, donor heavy atom, donor atom, acceptor molecule, acceptor atom, score
      L1  H     9    30       P1  7948  0.04
      L1  H    18    38       P1  7957  0.38
      L1  H    18    39       P1  7948  0.80
      P1  H  7989  7998       L1    19  1.00

> <Gold.Chemscore.Hbond.Weighted>
-11.4897

> <Gold.Chemscore.Metal.Weighted>
-0.0000

> <Gold.Chemscore.Lipo.Weighted>
-6.7438

> <Gold.Chemscore.Internal_Hbond.Weighted>
0.0000

> <Gold.Chemscore.DEClash.Weighted>
0.0697

> <Gold.Chemscore.DEInternal.Weighted>
0.4472

> <Gold.Chemscore.Rot.Weighted>
4.6607

> <Gold.Chemscore.Internal.Correction.Weighted>
   9.000000E+99

> <Gold.Protein.RotatedTorsions>
[ 6907 6896 6895 6894 ] final  153.29 input  -60.11 | X-H torsion
[ 7974 7965 7964 7962 ] final -151.78 input  175.53 | X-H torsion
[ 8008 7997 7996 7995 ] final    0.58 input   59.86 | X-H torsion
[ 10167 10162 10161 10158 ] final  104.57 input  -65.29 | X-H torsion
[ 10718 10713 10712 10709 ] final -156.81 input   66.30 | X-H torsion
[ 10763 10752 10751 10750 ] final  119.62 input  -60.55 | X-H torsion
[ 11005 11000 10999 10996 ] final  -27.98 input  -57.11 | X-H torsion

> <Gold.Protein.ActiveResidues>
 VAL166  LYS551  ARG553  GLY616  TRP617  ASP618  TYR619  PRO620  LYS621  CYS622 
 ASP623  PHE694  ASN695  SER759  ASP760  ASP761  ALA762  ILE779  LEU786  VAL792 
 PHE793  MET794  SER795  GLU796  ALA797  LYS798  CYS799  TRP800  GLU811  SER814 

> <Gold.Protein.RotatedAtoms>
  152.0748  133.4124  159.4474 H   0  0  0  0  0  0  0  0  0  0  0  0  # atno 6907 bound_to 6896
  150.6863  134.3050  159.4731 H   0  0  0  0  0  0  0  0  0  0  0  0  # atno 6908 bound_to 6896
  152.0886  134.9422  160.0623 H   0  0  0  0  0  0  0  0  0  0  0  0  # atno 6909 bound_to 6896
  144.7830  140.4751  143.5826 H   0  0  0  0  0  0  0  0  0  0  0  0  # atno 7974 bound_to 7965
  154.6698  140.2609  155.7019 H   0  0  0  0  0  0  0  0  0  0  0  0  # atno 8008 bound_to 7997
  156.2654  140.2831  156.1124 H   0  0  0  0  0  0  0  0  0  0  0  0  # atno 8009 bound_to 7997
  155.1185  140.0376  157.2734 H   0  0  0  0  0  0  0  0  0  0  0  0  # atno 8010 bound_to 7997
  139.7165  144.7067  151.0941 H   0  0  0  0  0  0  0  0  0  0  0  0  # atno 10167 bound_to 10162
  156.5316  130.8523  151.2718 H   0  0  0  0  0  0  0  0  0  0  0  0  # atno 10718 bound_to 10713
  153.5858  135.3475  155.2892 H   0  0  0  0  0  0  0  0  0  0  0  0  # atno 10763 bound_to 10752
  154.8660  135.4193  154.2570 H   0  0  0  0  0  0  0  0  0  0  0  0  # atno 10764 bound_to 10752
  153.3366  135.7047  153.6973 H   0  0  0  0  0  0  0  0  0  0  0  0  # atno 10765 bound_to 10752
  140.9168  133.7425  156.0746 H   0  0  0  0  0  0  0  0  0  0  0  0  # atno 11005 bound_to 11000
  145.5997  139.1502  143.3136 LP  0  0  0  0  0  0  0  0  0  0  0  0  # atno 17320 bound_to 7965
  146.2048  140.6119  142.9086 LP  0  0  0  0  0  0  0  0  0  0  0  0  # atno 17321 bound_to 7965
  140.7745  143.5222  150.9523 LP  0  0  0  0  0  0  0  0  0  0  0  0  # atno 17342 bound_to 10162
  139.8908  143.6955  152.3145 LP  0  0  0  0  0  0  0  0  0  0  0  0  # atno 17343 bound_to 10162
  157.7421  130.9883  150.2490 LP  0  0  0  0  0  0  0  0  0  0  0  0  # atno 17370 bound_to 10713
  156.3054  130.3764  149.7711 LP  0  0  0  0  0  0  0  0  0  0  0  0  # atno 17371 bound_to 10713
  140.8039  134.3477  157.5431 LP  0  0  0  0  0  0  0  0  0  0  0  0  # atno 17394 bound_to 11000
  139.8767  134.9214  156.3275 LP  0  0  0  0  0  0  0  0  0  0  0  0  # atno 17395 bound_to 11000

$$$$
