AV-unprocessed.smi:3115|AV-procd|sdf|11858|dock9
  -GOLD-   2272017243D 1   1.00000     0.00000
 Structure written by MMmdl.
 33 34  0  0  0  0  0  0  0  0  2 V2000
  153.7694  142.0949  160.4783 C   0  0  0  0  0  0  0  0  0  0  0  0
  152.5637  142.3080  159.5572 C   0  0  2  0  0  0  0  0  0  0  0  0
  152.5217  141.2813  158.4086 C   0  0  0  0  0  0  0  0  0  0  0  0
  151.4112  141.5774  157.5117 N   0  0  0  0  0  0  0  0  0  0  0  0
  151.2334  140.6186  156.5042 C   0  0  0  0  0  0  0  0  0  0  0  0
  149.9295  140.3544  156.0338 C   0  0  0  0  0  0  0  0  0  0  0  0
  149.7566  139.3931  155.0169 C   0  0  0  0  0  0  0  0  0  0  0  0
  148.3762  139.0710  154.4836 C   0  0  0  0  0  0  0  0  0  0  0  0
  148.4457  138.6719  153.0689 N   0  3  0  0  0  0  0  0  0  0  0  0
  150.8936  138.7305  154.5122 C   0  0  0  0  0  0  0  0  0  0  0  0
  152.1541  139.0624  155.0462 C   0  0  0  0  0  0  0  0  0  0  0  0
  152.3264  139.9819  156.0192 N   0  0  0  0  0  0  0  0  0  0  0  0
  151.4537  142.9449  157.0088 C   0  0  0  0  0  0  0  0  0  0  0  0
  151.5263  143.9352  158.1834 C   0  0  0  0  0  0  0  0  0  0  0  0
  152.6472  143.6201  159.0052 O   0  0  0  0  0  0  0  0  0  0  0  0
  153.7441  141.1054  160.9353 H   0  0  0  0  0  0  0  0  0  0  0  0
  153.7807  142.8316  161.2819 H   0  0  0  0  0  0  0  0  0  0  0  0
  154.7068  142.1865  159.9290 H   0  0  0  0  0  0  0  0  0  0  0  0
  151.6529  142.2295  160.1538 H   0  0  0  0  0  0  0  0  0  0  0  0
  153.4605  141.3060  157.8530 H   0  0  0  0  0  0  0  0  0  0  0  0
  152.4096  140.2731  158.8093 H   0  0  0  0  0  0  0  0  0  0  0  0
  149.0810  140.8822  156.4452 H   0  0  0  0  0  0  0  0  0  0  0  0
  147.9284  138.2649  155.0657 H   0  0  0  0  0  0  0  0  0  0  0  0
  147.7262  139.9412  154.5824 H   0  0  0  0  0  0  0  0  0  0  0  0
  149.0661  139.2943  152.5711 H   0  0  0  0  0  0  0  0  0  0  0  0
  147.5223  138.7178  152.6622 H   0  0  0  0  0  0  0  0  0  0  0  0
  150.8076  137.9864  153.7340 H   0  0  0  0  0  0  0  0  0  0  0  0
  153.0472  138.5762  154.6824 H   0  0  0  0  0  0  0  0  0  0  0  0
  152.3231  143.0749  156.3626 H   0  0  0  0  0  0  0  0  0  0  0  0
  150.5682  143.1449  156.4042 H   0  0  0  0  0  0  0  0  0  0  0  0
  151.6343  144.9536  157.8102 H   0  0  0  0  0  0  0  0  0  0  0  0
  150.6093  143.9075  158.7744 H   0  0  0  0  0  0  0  0  0  0  0  0
  148.7934  137.7258  153.0050 H   0  0  0  0  0  0  0  0  0  0  0  0
  1  2  1  0  0  0  0
  1 16  1  0  0  0  0
  1 17  1  0  0  0  0
  1 18  1  0  0  0  0
  2 15  1  0  0  0  0
  2  3  1  0  0  0  0
  2 19  1  0  0  0  0
  3  4  1  0  0  0  0
  3 20  1  0  0  0  0
  3 21  1  0  0  0  0
  4  5  1  0  0  0  0
  4 13  1  0  0  0  0
  5 12  1  0  0  0  0
  5  6  2  0  0  0  0
  6  7  1  0  0  0  0
  6 22  1  0  0  0  0
  7  8  1  0  0  0  0
  7 10  2  0  0  0  0
  8  9  1  0  0  0  0
  8 23  1  0  0  0  0
  8 24  1  0  0  0  0
  9 25  1  0  0  0  0
  9 26  1  0  0  0  0
  9 33  1  0  0  0  0
 10 11  1  0  0  0  0
 10 27  1  0  0  0  0
 11 12  2  0  0  0  0
 11 28  1  0  0  0  0
 13 14  1  0  0  0  0
 13 29  1  0  0  0  0
 13 30  1  0  0  0  0
 14 15  1  0  0  0  0
 14 31  1  0  0  0  0
 14 32  1  0  0  0  0
M  CHG  1   9   1
M  END
> <s_m_source_file>
AV-unprocessed.smi

> <i_m_source_file_index>
3115

> <i_lp_mmshare_version>
43012

> <i_f3d_flags>
0

> <s_epik_input>
W0NIM11bQ0BASF0xW0NIMl1OKFtDSDJdW0NIMl1PMSljMltjSF1jKFtDSDJdW05IMl0pW2NIXVtjSF1uMg==

> <s_epik_cmdline>
J2VwaWtfcHl0aG9uJywgJy1waCcsICc3LjAnLCAnLXRuJywgJzgnLCAnLW1hJywgJzIwMCcsICctbWV0YWxfYmluZGluZycsICctaW1hZScsICc8aW5maWxlLm1hZT4nLCAnLW9tYWUnLCAnPG91dGZpbGUubWFlPic=

> <r_lp_tautomer_probability>
1

> <r_epik_Ionization_Penalty>
0.0768907

> <r_epik_Ionization_Penalty_Charging>
0.0768864

> <r_epik_Ionization_Penalty_Neutral>
4.339e-06

> <r_epik_State_Penalty>
0.0093217

> <r_epik_Charging_Adjusted_Penalty>
0.0862081

> <i_epik_Tot_Q>
1

> <i_epik_Tot_abs_Q>
1

> <r_epik_Metal_State_Penalty>
0.0096683

> <b_epik_Metal_Only>
0

> <s_lp_Force_Field>
OPLS_2005

> <r_lp_Energy>
14.5686

> <b_lp_Chiralities_Consistent>
1

> <s_lp_Variant>
AV-unprocessed.smi:3115-1

> <Gold.Version>
5.8.1

> <Gold.Id.Protein>
6NUR|6NUR_protein|mol2

> <Gold.PLP.Fitness>
41.2450

> <Gold.PLP.PLP>
-31.5420

> <Gold.PLP.part.hbond>
-2.6700

> <Gold.PLP.part.metal>
0.0000

> <Gold.PLP.part.buried>
-5.2718

> <Gold.PLP.part.nonpolar>
-23.9405

> <Gold.PLP.part.repulsive>
0.1117

> <Gold.PLP.ligand.clash>
0.0000

> <Gold.PLP.ligand.torsion>
1.0643

> <Gold.PLP.Chemscore.Hbond>
3.9110

> <Gold.PLP.Chemscore.CHOScore>
0.0000

> <Gold.PLP.Chemscore.Metal>
0.0000

> <Gold.Chemscore.Hbonds>
donor molecule, donor type, donor heavy atom, donor atom, acceptor molecule, acceptor atom, score
      L1  H     9    25       P1  7957  1.00
      L1  H     9    33       P1  7948  1.76
      P1  H  7997  8009       L1    12  1.00

> <Gold.PLP.Chemscore.Internal.Correction>
0.0986

> <Gold.Rescore>
     Score         DG    S(hbond)    S(metal)    S(lipo)     H(rot)  DE(clash)    DE(int)     intcor
     18.94     -20.27       2.49        0.00      83.75       1.30       0.26       1.08       ----

> <Gold.Chemscore.Fitness>
18.9370

> <Gold.Chemscore.DG>
-20.2719

> <Gold.Chemscore.ZeroCoef>
-5.4800

> <Gold.Chemscore.Hbond>
2.4949

> <Gold.Chemscore.Metal>
0.0000

> <Gold.Chemscore.Lipo>
83.7459

> <Gold.Chemscore.Internal_Hbond>
0.0000

> <Gold.Chemscore.DEClash>
0.2594

> <Gold.Chemscore.DEInternal>
1.0754

> <Gold.Chemscore.Rot>
1.3045

> <Gold.Chemscore.Internal.Correction>
   9.000000E+99

> <Gold.Chemscore.Hbonds>
donor molecule, donor type, donor heavy atom, donor atom, acceptor molecule, acceptor atom, score
      L1  H     9    25       P1  7957  0.95
      L1  H     9    33       P1  7948  0.86
      P1  H  7997  8009       L1    12  0.52

> <Gold.Chemscore.Hbond.Weighted>
-8.3331

> <Gold.Chemscore.Metal.Weighted>
-0.0000

> <Gold.Chemscore.Lipo.Weighted>
-9.7983

> <Gold.Chemscore.Internal_Hbond.Weighted>
0.0000

> <Gold.Chemscore.DEClash.Weighted>
0.2594

> <Gold.Chemscore.DEInternal.Weighted>
1.0754

> <Gold.Chemscore.Rot.Weighted>
3.3395

> <Gold.Chemscore.Internal.Correction.Weighted>
   9.000000E+99

> <Gold.Protein.RotatedTorsions>
[ 6907 6896 6895 6894 ] final   50.72 input  -60.11 | X-H torsion
[ 7974 7965 7964 7962 ] final  -86.24 input  175.53 | X-H torsion
[ 8008 7997 7996 7995 ] final -157.77 input   59.86 | X-H torsion
[ 10167 10162 10161 10158 ] final   77.63 input  -65.29 | X-H torsion
[ 10718 10713 10712 10709 ] final -154.04 input   66.30 | X-H torsion
[ 10763 10752 10751 10750 ] final -149.10 input  -60.55 | X-H torsion
[ 11005 11000 10999 10996 ] final  157.71 input  -57.11 | X-H torsion

> <Gold.Protein.ActiveResidues>
 VAL166  LYS551  ARG553  GLY616  TRP617  ASP618  TYR619  PRO620  LYS621  CYS622 
 ASP623  PHE694  ASN695  SER759  ASP760  ASP761  ALA762  ILE779  LEU786  VAL792 
 PHE793  MET794  SER795  GLU796  ALA797  LYS798  CYS799  TRP800  GLU811  SER814 

> <Gold.Protein.RotatedAtoms>
  152.3048  134.7568  160.0349 H   0  0  0  0  0  0  0  0  0  0  0  0  # atno 6907 bound_to 6896
  151.8068  133.3371  159.3551 H   0  0  0  0  0  0  0  0  0  0  0  0  # atno 6908 bound_to 6896
  150.7291  134.5631  159.5897 H   0  0  0  0  0  0  0  0  0  0  0  0  # atno 6909 bound_to 6896
  145.4825  140.9556  143.1856 H   0  0  0  0  0  0  0  0  0  0  0  0  # atno 7974 bound_to 7965
  155.7374  140.0810  157.2261 H   0  0  0  0  0  0  0  0  0  0  0  0  # atno 8008 bound_to 7997
  154.4026  140.1584  156.2633 H   0  0  0  0  0  0  0  0  0  0  0  0  # atno 8009 bound_to 7997
  155.9052  140.3407  155.6059 H   0  0  0  0  0  0  0  0  0  0  0  0  # atno 8010 bound_to 7997
  139.9795  144.5836  150.7913 H   0  0  0  0  0  0  0  0  0  0  0  0  # atno 10167 bound_to 10162
  156.4939  130.8360  151.2582 H   0  0  0  0  0  0  0  0  0  0  0  0  # atno 10718 bound_to 10713
  154.8196  135.3317  154.7077 H   0  0  0  0  0  0  0  0  0  0  0  0  # atno 10763 bound_to 10752
  153.7712  135.6925  153.4910 H   0  0  0  0  0  0  0  0  0  0  0  0  # atno 10764 bound_to 10752
  153.2043  135.4505  155.0253 H   0  0  0  0  0  0  0  0  0  0  0  0  # atno 10765 bound_to 10752
  140.1795  134.8486  157.2786 H   0  0  0  0  0  0  0  0  0  0  0  0  # atno 11005 bound_to 11000
  144.7880  139.6386  143.7125 LP  0  0  0  0  0  0  0  0  0  0  0  0  # atno 17320 bound_to 7965
  146.2332  139.5855  142.9541 LP  0  0  0  0  0  0  0  0  0  0  0  0  # atno 17321 bound_to 7965
  140.7494  143.2938  151.3260 LP  0  0  0  0  0  0  0  0  0  0  0  0  # atno 17342 bound_to 10162
  139.6420  144.0521  152.2562 LP  0  0  0  0  0  0  0  0  0  0  0  0  # atno 17343 bound_to 10162
  157.7470  131.0004  150.2925 LP  0  0  0  0  0  0  0  0  0  0  0  0  # atno 17370 bound_to 10713
  156.3399  130.3813  149.7418 LP  0  0  0  0  0  0  0  0  0  0  0  0  # atno 17371 bound_to 10713
  140.2283  134.3939  155.7533 LP  0  0  0  0  0  0  0  0  0  0  0  0  # atno 17394 bound_to 11000
  141.2222  133.7202  156.8601 LP  0  0  0  0  0  0  0  0  0  0  0  0  # atno 17395 bound_to 11000

$$$$
