AV-unprocessed.smi:149|AV-procd|sdf|1237|dock4
  -GOLD-   2262018453D 1   1.00000     0.00000
 Structure written by MMmdl.
 60 64  0  0  0  0  0  0  0  0  2 V2000
  147.6243  131.7019  161.4711 C   0  0  0  0  0  0  0  0  0  0  0  0
  147.6633  132.2527  160.0325 C   0  0  1  0  0  0  0  0  0  0  0  0
  147.5289  131.1010  159.0197 C   0  0  0  0  0  0  0  0  0  0  0  0
  146.6593  131.5737  157.9558 N   0  0  0  0  0  0  0  0  0  0  0  0
  146.7380  131.0426  156.7070 C   0  0  0  0  0  0  0  0  0  0  0  0
  147.1670  129.7597  156.5685 N   0  0  0  0  0  0  0  0  0  0  0  0
  147.2497  129.1978  155.3595 C   0  0  0  0  0  0  0  0  0  0  0  0
  146.9676  129.7329  154.1713 N   0  0  0  0  0  0  0  0  0  0  0  0
  146.5551  131.0267  154.2951 C   0  0  0  0  0  0  0  0  0  0  0  0
  146.4081  131.7510  155.5133 C   0  0  0  0  0  0  0  0  0  0  0  0
  145.9577  133.0368  155.2378 N   0  0  0  0  0  0  0  0  0  0  0  0
  145.8293  133.0642  153.9399 C   0  0  0  0  0  0  0  0  0  0  0  0
  146.1984  131.9083  153.2877 N   0  0  0  0  0  0  0  0  0  0  0  0
  146.1331  131.6420  151.8748 C   0  0  0  0  0  0  0  0  0  0  0  0
  146.1331  132.8025  150.8694 C   0  0  0  0  0  0  0  0  0  0  0  0
  144.6139  132.6224  150.6575 C   0  0  0  0  0  0  0  0  0  0  0  0
  143.7468  133.5410  151.5398 C   0  0  0  0  0  0  0  0  0  0  0  0
  143.5938  134.8227  150.9638 O   0  0  0  0  0  0  0  0  0  0  0  0
  144.0964  132.7609  149.2119 C   0  0  0  0  0  0  0  0  0  0  0  0
  142.8442  132.1336  149.0195 O   0  0  0  0  0  0  0  0  0  0  0  0
  144.8282  131.1921  151.2007 C   0  0  0  0  0  0  0  0  0  0  0  0
  146.3568  132.9785  158.1574 C   0  0  0  0  0  0  0  0  0  0  0  0
  146.5175  133.2254  159.6633 C   0  0  2  0  0  0  0  0  0  0  0  0
  146.7645  134.6741  159.9343 N   0  3  0  0  0  0  0  0  0  0  0  0
  146.7789  134.9789  161.3894 C   0  0  0  0  0  0  0  0  0  0  0  0
  146.9561  136.4858  161.6363 C   0  0  0  0  0  0  0  0  0  0  0  0
  148.1565  136.9274  161.0193 O   0  0  0  0  0  0  0  0  0  0  0  0
  148.1186  136.7415  159.6117 C   0  0  0  0  0  0  0  0  0  0  0  0
  147.9712  135.2455  159.2838 C   0  0  0  0  0  0  0  0  0  0  0  0
  146.6780  131.1993  161.6738 H   0  0  0  0  0  0  0  0  0  0  0  0
  147.7491  132.4741  162.2270 H   0  0  0  0  0  0  0  0  0  0  0  0
  148.4210  130.9735  161.6253 H   0  0  0  0  0  0  0  0  0  0  0  0
  148.6203  132.7443  159.8505 H   0  0  0  0  0  0  0  0  0  0  0  0
  148.5080  130.8049  158.6403 H   0  0  0  0  0  0  0  0  0  0  0  0
  147.0660  130.2255  159.4768 H   0  0  0  0  0  0  0  0  0  0  0  0
  147.5915  128.1735  155.3411 H   0  0  0  0  0  0  0  0  0  0  0  0
  145.4644  133.9422  153.4285 H   0  0  0  0  0  0  0  0  0  0  0  0
  146.9442  130.9420  151.6698 H   0  0  0  0  0  0  0  0  0  0  0  0
  146.4125  133.7727  151.2810 H   0  0  0  0  0  0  0  0  0  0  0  0
  146.7328  132.5761  149.9868 H   0  0  0  0  0  0  0  0  0  0  0  0
  142.7514  133.1236  151.6903 H   0  0  0  0  0  0  0  0  0  0  0  0
  144.1806  133.6529  152.5341 H   0  0  0  0  0  0  0  0  0  0  0  0
  142.8313  134.8121  150.4056 H   0  0  0  0  0  0  0  0  0  0  0  0
  143.9823  133.8091  148.9345 H   0  0  0  0  0  0  0  0  0  0  0  0
  144.8011  132.3233  148.5041 H   0  0  0  0  0  0  0  0  0  0  0  0
  142.1745  132.8000  148.9979 H   0  0  0  0  0  0  0  0  0  0  0  0
  145.0111  130.4543  150.4179 H   0  0  0  0  0  0  0  0  0  0  0  0
  144.0423  130.8421  151.8689 H   0  0  0  0  0  0  0  0  0  0  0  0
  147.0640  133.5840  157.5880 H   0  0  0  0  0  0  0  0  0  0  0  0
  145.3480  133.2116  157.8147 H   0  0  0  0  0  0  0  0  0  0  0  0
  145.6087  132.9058  160.1769 H   0  0  0  0  0  0  0  0  0  0  0  0
  145.8514  134.6521  161.8591 H   0  0  0  0  0  0  0  0  0  0  0  0
  147.5897  134.4283  161.8691 H   0  0  0  0  0  0  0  0  0  0  0  0
  146.1031  137.0487  161.2537 H   0  0  0  0  0  0  0  0  0  0  0  0
  147.0157  136.6863  162.7064 H   0  0  0  0  0  0  0  0  0  0  0  0
  147.2984  137.3170  159.1790 H   0  0  0  0  0  0  0  0  0  0  0  0
  149.0405  137.1309  159.1798 H   0  0  0  0  0  0  0  0  0  0  0  0
  148.8585  134.6999  159.6091 H   0  0  0  0  0  0  0  0  0  0  0  0
  147.8979  135.1503  158.2016 H   0  0  0  0  0  0  0  0  0  0  0  0
  145.9777  135.1716  159.5419 H   0  0  0  0  0  0  0  0  0  0  0  0
  1  2  1  0  0  0  0
  1 30  1  0  0  0  0
  1 31  1  0  0  0  0
  1 32  1  0  0  0  0
  2 23  1  0  0  0  0
  2  3  1  0  0  0  0
  2 33  1  0  0  0  0
  3  4  1  0  0  0  0
  3 34  1  0  0  0  0
  3 35  1  0  0  0  0
  4  5  1  0  0  0  0
  4 22  1  0  0  0  0
  5 10  1  0  0  0  0
  5  6  2  0  0  0  0
  6  7  1  0  0  0  0
  7  8  2  0  0  0  0
  7 36  1  0  0  0  0
  8  9  1  0  0  0  0
  9 13  1  0  0  0  0
  9 10  2  0  0  0  0
 10 11  1  0  0  0  0
 11 12  2  0  0  0  0
 12 13  1  0  0  0  0
 12 37  1  0  0  0  0
 13 14  1  0  0  0  0
 14 21  1  0  0  0  0
 14 15  1  0  0  0  0
 14 38  1  0  0  0  0
 15 16  1  0  0  0  0
 15 39  1  0  0  0  0
 15 40  1  0  0  0  0
 16 17  1  0  0  0  0
 16 19  1  0  0  0  0
 16 21  1  0  0  0  0
 17 18  1  0  0  0  0
 17 41  1  0  0  0  0
 17 42  1  0  0  0  0
 18 43  1  0  0  0  0
 19 20  1  0  0  0  0
 19 44  1  0  0  0  0
 19 45  1  0  0  0  0
 20 46  1  0  0  0  0
 21 47  1  0  0  0  0
 21 48  1  0  0  0  0
 22 23  1  0  0  0  0
 22 49  1  0  0  0  0
 22 50  1  0  0  0  0
 23 24  1  0  0  0  0
 23 51  1  0  0  0  0
 24 29  1  0  0  0  0
 24 25  1  0  0  0  0
 24 60  1  0  0  0  0
 25 26  1  0  0  0  0
 25 52  1  0  0  0  0
 25 53  1  0  0  0  0
 26 27  1  0  0  0  0
 26 54  1  0  0  0  0
 26 55  1  0  0  0  0
 27 28  1  0  0  0  0
 28 29  1  0  0  0  0
 28 56  1  0  0  0  0
 28 57  1  0  0  0  0
 29 58  1  0  0  0  0
 29 59  1  0  0  0  0
M  CHG  1  24   1
M  END
> <s_m_source_file>
AV-unprocessed.smi

> <i_m_source_file_index>
149

> <i_lp_mmshare_version>
43012

> <i_f3d_flags>
0

> <s_epik_input>
W0NIMl0xW0NIMl1PW0NIMl1bQ0gyXU4xW0NAQEhdMltDSDJdTihbQ0gyXVtDQEhdMltDSDNdKWMobltjSF1uMyljKGMzNCluW2NIXW40W0NIXShbQ0gyXTUpW0NIMl1DNShbQ0gyXVtPSF0pW0NIMl1bT0hd

> <s_epik_cmdline>
J2VwaWtfcHl0aG9uJywgJy1waCcsICc3LjAnLCAnLXRuJywgJzgnLCAnLW1hJywgJzIwMCcsICctbWV0YWxfYmluZGluZycsICctaW1hZScsICc8aW5maWxlLm1hZT4nLCAnLW9tYWUnLCAnPG91dGZpbGUubWFlPic=

> <r_lp_tautomer_probability>
1

> <r_epik_Ionization_Penalty>
0.404847

> <r_epik_Ionization_Penalty_Charging>
0.404623

> <r_epik_Ionization_Penalty_Neutral>
0.000224096

> <r_epik_State_Penalty>
0.238803

> <r_epik_Charging_Adjusted_Penalty>
0.643425

> <i_epik_Tot_Q>
1

> <i_epik_Tot_abs_Q>
1

> <r_epik_Metal_State_Penalty>
0.239083

> <b_epik_Metal_Only>
0

> <s_lp_Force_Field>
OPLS_2005

> <r_lp_Energy>
71.3702

> <b_lp_Chiralities_Consistent>
1

> <s_lp_Variant>
AV-unprocessed.smi:149-4

> <Gold.Version>
5.8.1

> <Gold.Id.Protein>
6NUR|6NUR_protein|mol2

> <Gold.PLP.Fitness>
49.9433

> <Gold.PLP.PLP>
-39.6359

> <Gold.PLP.part.hbond>
-5.3735

> <Gold.PLP.part.metal>
0.0000

> <Gold.PLP.part.buried>
-8.3144

> <Gold.PLP.part.nonpolar>
-27.0074

> <Gold.PLP.part.repulsive>
0.2414

> <Gold.PLP.ligand.clash>
0.0000

> <Gold.PLP.ligand.torsion>
1.1624

> <Gold.PLP.Chemscore.Hbond>
3.9500

> <Gold.PLP.Chemscore.CHOScore>
0.0000

> <Gold.PLP.Chemscore.Metal>
0.0000

> <Gold.Chemscore.Hbonds>
donor molecule, donor type, donor heavy atom, donor atom, acceptor molecule, acceptor atom, score
      L1  H    18    43       P1 10186  0.98
      L1  H    20    46       P1 10186  0.93
      P1  H  6931  6943       L1    27  1.00
      P1  H  6934  6947       L1    27  0.05
      P1  H 10785 10796       L1    20  0.98

> <Gold.PLP.Chemscore.Internal.Correction>
0.7822

> <Gold.Rescore>
     Score         DG    S(hbond)    S(metal)    S(lipo)     H(rot)  DE(clash)    DE(int)     intcor
     14.99     -17.82       2.91        0.00      90.03       3.09       0.00       2.82       ----

> <Gold.Chemscore.Fitness>
14.9932

> <Gold.Chemscore.DG>
-17.8180

> <Gold.Chemscore.ZeroCoef>
-5.4800

> <Gold.Chemscore.Hbond>
2.9097

> <Gold.Chemscore.Metal>
0.0000

> <Gold.Chemscore.Lipo>
90.0264

> <Gold.Chemscore.Internal_Hbond>
0.0000

> <Gold.Chemscore.DEClash>
0.0015

> <Gold.Chemscore.DEInternal>
2.8233

> <Gold.Chemscore.Rot>
3.0912

> <Gold.Chemscore.Internal.Correction>
   9.000000E+99

> <Gold.Chemscore.Hbonds>
donor molecule, donor type, donor heavy atom, donor atom, acceptor molecule, acceptor atom, score
      L1  H    18    43       P1 10186  0.24
      L1  H    20    46       P1 10186  0.88
      P1  H  6931  6943       L1    27  0.88
      P1  H 10785 10796       L1    20  0.60

> <Gold.Chemscore.Hbond.Weighted>
-9.7184

> <Gold.Chemscore.Metal.Weighted>
-0.0000

> <Gold.Chemscore.Lipo.Weighted>
-10.5331

> <Gold.Chemscore.Internal_Hbond.Weighted>
0.0000

> <Gold.Chemscore.DEClash.Weighted>
0.0015

> <Gold.Chemscore.DEInternal.Weighted>
2.8233

> <Gold.Chemscore.Rot.Weighted>
7.9135

> <Gold.Chemscore.Internal.Correction.Weighted>
   9.000000E+99

> <Gold.Protein.RotatedTorsions>
[ 6907 6896 6895 6894 ] final   67.23 input  -60.11 | X-H torsion
[ 7974 7965 7964 7962 ] final  173.00 input  175.53 | X-H torsion
[ 8008 7997 7996 7995 ] final  176.05 input   59.86 | X-H torsion
[ 10167 10162 10161 10158 ] final   51.06 input  -65.29 | X-H torsion
[ 10718 10713 10712 10709 ] final  102.28 input   66.30 | X-H torsion
[ 10763 10752 10751 10750 ] final  -81.67 input  -60.55 | X-H torsion
[ 11005 11000 10999 10996 ] final  -50.63 input  -57.11 | X-H torsion

> <Gold.Protein.ActiveResidues>
 VAL166  LYS551  ARG553  GLY616  TRP617  ASP618  TYR619  PRO620  LYS621  CYS622 
 ASP623  PHE694  ASN695  SER759  ASP760  ASP761  ALA762  ILE779  LEU786  VAL792 
 PHE793  MET794  SER795  GLU796  ALA797  LYS798  CYS799  TRP800  GLU811  SER814 

> <Gold.Protein.RotatedAtoms>
  152.4537  134.5337  159.9818 H   0  0  0  0  0  0  0  0  0  0  0  0  # atno 6907 bound_to 6896
  151.5403  133.3428  159.2942 H   0  0  0  0  0  0  0  0  0  0  0  0  # atno 6908 bound_to 6896
  150.8475  134.7819  159.7045 H   0  0  0  0  0  0  0  0  0  0  0  0  # atno 6909 bound_to 6896
  144.7254  139.9583  143.6434 H   0  0  0  0  0  0  0  0  0  0  0  0  # atno 7974 bound_to 7965
  156.0806  140.1393  156.9716 H   0  0  0  0  0  0  0  0  0  0  0  0  # atno 8008 bound_to 7997
  154.4583  140.0953  156.6870 H   0  0  0  0  0  0  0  0  0  0  0  0  # atno 8009 bound_to 7997
  155.5081  140.3453  155.4385 H   0  0  0  0  0  0  0  0  0  0  0  0  # atno 8010 bound_to 7997
  140.2659  144.3321  150.6304 H   0  0  0  0  0  0  0  0  0  0  0  0  # atno 10167 bound_to 10162
  157.6806  131.0749  150.5380 H   0  0  0  0  0  0  0  0  0  0  0  0  # atno 10718 bound_to 10713
  154.5664  135.5618  153.7054 H   0  0  0  0  0  0  0  0  0  0  0  0  # atno 10763 bound_to 10752
  153.0034  135.6286  154.2174 H   0  0  0  0  0  0  0  0  0  0  0  0  # atno 10764 bound_to 10752
  154.2113  135.2873  155.2937 H   0  0  0  0  0  0  0  0  0  0  0  0  # atno 10765 bound_to 10752
  141.0827  133.6649  156.3760 H   0  0  0  0  0  0  0  0  0  0  0  0  # atno 11005 bound_to 11000
  146.0657  139.3648  143.0553 LP  0  0  0  0  0  0  0  0  0  0  0  0  # atno 17320 bound_to 7965
  145.8034  140.9760  143.0987 LP  0  0  0  0  0  0  0  0  0  0  0  0  # atno 17321 bound_to 7965
  140.5929  143.2167  151.7219 LP  0  0  0  0  0  0  0  0  0  0  0  0  # atno 17342 bound_to 10162
  139.5003  144.3912  152.0278 LP  0  0  0  0  0  0  0  0  0  0  0  0  # atno 17343 bound_to 10162
  156.5687  130.4274  149.6029 LP  0  0  0  0  0  0  0  0  0  0  0  0  # atno 17370 bound_to 10713
  156.2759  130.7043  151.1854 LP  0  0  0  0  0  0  0  0  0  0  0  0  # atno 17371 bound_to 10713
  140.5433  134.6099  157.5386 LP  0  0  0  0  0  0  0  0  0  0  0  0  # atno 17394 bound_to 11000
  139.9642  134.7401  156.0173 LP  0  0  0  0  0  0  0  0  0  0  0  0  # atno 17395 bound_to 11000

$$$$
