AV-unprocessed.smi:629|AV-procd|sdf|3115|dock10
  -GOLD-   22720 0 43D 1   1.00000     0.00000
 Structure written by MMmdl.
 31 32  0  0  0  0  0  0  0  0  1 V2000
  146.7790  138.9773  152.4230 C   0  0  0  0  0  0  0  0  0  0  0  0
  148.0745  138.4964  152.8773 N   0  0  0  0  0  0  0  0  0  0  0  0
  148.7817  139.0555  153.8706 C   0  0  0  0  0  0  0  0  0  0  0  0
  148.3930  140.0335  154.5089 O   0  0  0  0  0  0  0  0  0  0  0  0
  150.1292  138.4107  154.2030 C   0  0  0  0  0  0  0  0  0  0  0  0
  150.8408  139.1841  155.2674 C   0  0  0  0  0  0  0  0  0  0  0  0
  152.0438  139.7053  155.0537 N   0  0  0  0  0  0  0  0  0  0  0  0
  152.3479  140.3303  156.2713 O   0  0  0  0  0  0  0  0  0  0  0  0
  151.2775  140.1168  157.0737 C   0  0  0  0  0  0  0  0  0  0  0  0
  151.3137  140.6258  158.4768 C   0  0  0  0  0  0  0  0  0  0  0  0
  152.4592  141.6249  158.7221 C   0  0  2  0  0  0  0  0  0  0  0  0
  152.8042  141.7724  160.1825 C   0  0  0  0  0  0  0  0  0  0  0  0
  152.8033  143.0400  160.5888 C   0  0  0  0  0  0  0  0  0  0  0  0
  152.4544  143.9965  159.4835 C   0  0  0  0  0  0  0  0  0  0  0  0
  152.1044  143.0734  158.2953 C   0  0  0  0  0  0  0  0  0  0  0  0
  150.3174  139.3896  156.5081 N   0  0  0  0  0  0  0  0  0  0  0  0
  146.4211  138.3592  151.5997 H   0  0  0  0  0  0  0  0  0  0  0  0
  146.8486  140.0073  152.0709 H   0  0  0  0  0  0  0  0  0  0  0  0
  146.0442  138.9327  153.2278 H   0  0  0  0  0  0  0  0  0  0  0  0
  148.4637  137.6958  152.4001 H   0  0  0  0  0  0  0  0  0  0  0  0
  149.9745  137.3849  154.5402 H   0  0  0  0  0  0  0  0  0  0  0  0
  150.7456  138.3582  153.3044 H   0  0  0  0  0  0  0  0  0  0  0  0
  150.3565  141.1126  158.6682 H   0  0  0  0  0  0  0  0  0  0  0  0
  151.3737  139.7847  159.1688 H   0  0  0  0  0  0  0  0  0  0  0  0
  153.3540  141.3090  158.1836 H   0  0  0  0  0  0  0  0  0  0  0  0
  153.0401  140.9219  160.8053 H   0  0  0  0  0  0  0  0  0  0  0  0
  153.0368  143.3745  161.5890 H   0  0  0  0  0  0  0  0  0  0  0  0
  151.6129  144.6288  159.7687 H   0  0  0  0  0  0  0  0  0  0  0  0
  153.3114  144.6330  159.2613 H   0  0  0  0  0  0  0  0  0  0  0  0
  152.6407  143.3653  157.3916 H   0  0  0  0  0  0  0  0  0  0  0  0
  151.0395  143.1613  158.0749 H   0  0  0  0  0  0  0  0  0  0  0  0
  1  2  1  0  0  0  0
  1 17  1  0  0  0  0
  1 18  1  0  0  0  0
  1 19  1  0  0  0  0
  2  3  1  0  0  0  0
  2 20  1  0  0  0  0
  3  4  2  0  0  0  0
  3  5  1  0  0  0  0
  5  6  1  0  0  0  0
  5 21  1  0  0  0  0
  5 22  1  0  0  0  0
  6 16  1  0  0  0  0
  6  7  2  0  0  0  0
  7  8  1  0  0  0  0
  8  9  1  0  0  0  0
  9 10  1  0  0  0  0
  9 16  2  0  0  0  0
 10 11  1  0  0  0  0
 10 23  1  0  0  0  0
 10 24  1  0  0  0  0
 11 15  1  0  0  0  0
 11 12  1  0  0  0  0
 11 25  1  0  0  0  0
 12 13  2  0  0  0  0
 12 26  1  0  0  0  0
 13 14  1  0  0  0  0
 13 27  1  0  0  0  0
 14 15  1  0  0  0  0
 14 28  1  0  0  0  0
 14 29  1  0  0  0  0
 15 30  1  0  0  0  0
 15 31  1  0  0  0  0
M  END
> <s_m_source_file>
AV-unprocessed.smi

> <i_m_source_file_index>
629

> <i_lp_mmshare_version>
43012

> <i_f3d_flags>
0

> <s_epik_input>
W0NIM11bTkhdQyg9TylbQ0gyXWMxbm9jKG4xKVtDSDJdW0NAQEhdMltDSF09W0NIXVtDSDJdW0NIMl0y

> <s_epik_cmdline>
J2VwaWtfcHl0aG9uJywgJy1waCcsICc3LjAnLCAnLXRuJywgJzgnLCAnLW1hJywgJzIwMCcsICctbWV0YWxfYmluZGluZycsICctaW1hZScsICc8aW5maWxlLm1hZT4nLCAnLW9tYWUnLCAnPG91dGZpbGUubWFlPic=

> <r_lp_tautomer_probability>
1

> <r_epik_Ionization_Penalty>
1.02915e-07

> <r_epik_Ionization_Penalty_Charging>
0

> <r_epik_Ionization_Penalty_Neutral>
1.02915e-07

> <r_epik_State_Penalty>
-0

> <r_epik_Charging_Adjusted_Penalty>
0

> <i_epik_Tot_Q>
0

> <i_epik_Tot_abs_Q>
0

> <r_epik_Metal_State_Penalty>
-0

> <b_epik_Metal_Only>
0

> <s_lp_Force_Field>
OPLS_2005

> <r_lp_Energy>
15.6926

> <b_lp_Chiralities_Consistent>
1

> <s_lp_Variant>
AV-unprocessed.smi:629-1

> <Gold.Version>
5.8.1

> <Gold.Id.Protein>
6NUR|6NUR_protein|mol2

> <Gold.PLP.Fitness>
41.2423

> <Gold.PLP.PLP>
-33.2898

> <Gold.PLP.part.hbond>
-4.0000

> <Gold.PLP.part.metal>
0.0000

> <Gold.PLP.part.buried>
-0.7494

> <Gold.PLP.part.nonpolar>
-28.4940

> <Gold.PLP.part.repulsive>
0.1858

> <Gold.PLP.ligand.clash>
0.0000

> <Gold.PLP.ligand.torsion>
0.3511

> <Gold.PLP.Chemscore.Hbond>
2.8800

> <Gold.PLP.Chemscore.CHOScore>
0.0000

> <Gold.PLP.Chemscore.Metal>
0.0000

> <Gold.Chemscore.Hbonds>
donor molecule, donor type, donor heavy atom, donor atom, acceptor molecule, acceptor atom, score
      L1  H     2    20       P1  7948  1.00
      P1  H  7989  7998       L1     7  0.88
      P1  H  7997  8009       L1     8  1.00

> <Gold.PLP.Chemscore.Internal.Correction>
0.0147

> <Gold.Rescore>
     Score         DG    S(hbond)    S(metal)    S(lipo)     H(rot)  DE(clash)    DE(int)     intcor
     14.96     -16.85       2.22        0.00      75.01       1.89       0.24       1.65       ----

> <Gold.Chemscore.Fitness>
14.9604

> <Gold.Chemscore.DG>
-16.8458

> <Gold.Chemscore.ZeroCoef>
-5.4800

> <Gold.Chemscore.Hbond>
2.2223

> <Gold.Chemscore.Metal>
0.0000

> <Gold.Chemscore.Lipo>
75.0075

> <Gold.Chemscore.Internal_Hbond>
0.0000

> <Gold.Chemscore.DEClash>
0.2355

> <Gold.Chemscore.DEInternal>
1.6500

> <Gold.Chemscore.Rot>
1.8877

> <Gold.Chemscore.Internal.Correction>
   9.000000E+99

> <Gold.Chemscore.Hbonds>
donor molecule, donor type, donor heavy atom, donor atom, acceptor molecule, acceptor atom, score
      L1  H     2    20       P1  7948  0.99
      P1  H  7989  7998       L1     7  0.24
      P1  H  7997  8009       L1     8  0.32

> <Gold.Chemscore.Hbond.Weighted>
-7.4225

> <Gold.Chemscore.Metal.Weighted>
-0.0000

> <Gold.Chemscore.Lipo.Weighted>
-8.7759

> <Gold.Chemscore.Internal_Hbond.Weighted>
0.0000

> <Gold.Chemscore.DEClash.Weighted>
0.2355

> <Gold.Chemscore.DEInternal.Weighted>
1.6500

> <Gold.Chemscore.Rot.Weighted>
4.8325

> <Gold.Chemscore.Internal.Correction.Weighted>
   9.000000E+99

> <Gold.Protein.RotatedTorsions>
[ 6907 6896 6895 6894 ] final  -56.08 input  -60.11 | X-H torsion
[ 7974 7965 7964 7962 ] final    3.91 input  175.53 | X-H torsion
[ 8008 7997 7996 7995 ] final -163.77 input   59.86 | X-H torsion
[ 10167 10162 10161 10158 ] final  144.00 input  -65.29 | X-H torsion
[ 10718 10713 10712 10709 ] final   46.25 input   66.30 | X-H torsion
[ 10763 10752 10751 10750 ] final -132.94 input  -60.55 | X-H torsion
[ 11005 11000 10999 10996 ] final   44.99 input  -57.11 | X-H torsion

> <Gold.Protein.ActiveResidues>
 VAL166  LYS551  ARG553  GLY616  TRP617  ASP618  TYR619  PRO620  LYS621  CYS622 
 ASP623  PHE694  ASN695  SER759  ASP760  ASP761  ALA762  ILE779  LEU786  VAL792 
 PHE793  MET794  SER795  GLU796  ALA797  LYS798  CYS799  TRP800  GLU811  SER814 

> <Gold.Protein.RotatedAtoms>
  150.8197  134.7398  159.6761 H   0  0  0  0  0  0  0  0  0  0  0  0  # atno 6907 bound_to 6896
  152.4313  134.5768  159.9946 H   0  0  0  0  0  0  0  0  0  0  0  0  # atno 6908 bound_to 6896
  151.5955  133.3324  159.3072 H   0  0  0  0  0  0  0  0  0  0  0  0  # atno 6909 bound_to 6896
  146.2445  140.0613  142.8368 H   0  0  0  0  0  0  0  0  0  0  0  0  # atno 7974 bound_to 7965
  155.8261  140.0927  157.1820 H   0  0  0  0  0  0  0  0  0  0  0  0  # atno 8008 bound_to 7997
  154.3979  140.1427  156.3618 H   0  0  0  0  0  0  0  0  0  0  0  0  # atno 8009 bound_to 7997
  155.8215  140.3446  155.5519 H   0  0  0  0  0  0  0  0  0  0  0  0  # atno 8010 bound_to 7997
  139.4957  144.6002  151.6497 H   0  0  0  0  0  0  0  0  0  0  0  0  # atno 10167 bound_to 10162
  157.4462  130.8110  149.7742 H   0  0  0  0  0  0  0  0  0  0  0  0  # atno 10718 bound_to 10713
  154.8738  135.3782  154.4492 H   0  0  0  0  0  0  0  0  0  0  0  0  # atno 10763 bound_to 10752
  153.5170  135.7029  153.5756 H   0  0  0  0  0  0  0  0  0  0  0  0  # atno 10764 bound_to 10752
  153.4020  135.3946  155.1960 H   0  0  0  0  0  0  0  0  0  0  0  0  # atno 10765 bound_to 10752
  140.1501  134.4473  155.8388 H   0  0  0  0  0  0  0  0  0  0  0  0  # atno 11005 bound_to 11000
  145.0897  140.9276  143.4776 LP  0  0  0  0  0  0  0  0  0  0  0  0  # atno 17320 bound_to 7965
  145.0783  139.2979  143.5796 LP  0  0  0  0  0  0  0  0  0  0  0  0  # atno 17321 bound_to 7965
  140.5650  144.0205  150.6188 LP  0  0  0  0  0  0  0  0  0  0  0  0  # atno 17342 bound_to 10162
  140.3303  143.3081  152.0694 LP  0  0  0  0  0  0  0  0  0  0  0  0  # atno 17343 bound_to 10162
  155.9968  130.3903  150.2764 LP  0  0  0  0  0  0  0  0  0  0  0  0  # atno 17370 bound_to 10713
  157.0933  131.0175  151.3113 LP  0  0  0  0  0  0  0  0  0  0  0  0  # atno 17371 bound_to 10713
  141.2198  133.6869  156.7406 LP  0  0  0  0  0  0  0  0  0  0  0  0  # atno 17394 bound_to 11000
  140.2615  134.8463  157.3763 LP  0  0  0  0  0  0  0  0  0  0  0  0  # atno 17395 bound_to 11000

$$$$
