AV-unprocessed.smi:3148|AV-procd|sdf|11993|dock3
  -GOLD-   2272017403D 1   1.00000     0.00000
 Structure written by MMmdl.
 34 36  0  0  0  0  0  0  0  0  1 V2000
  154.2938  141.3009  160.8407 C   0  0  0  0  0  0  0  0  0  0  0  0
  153.6118  141.0772  159.6116 O   0  0  0  0  0  0  0  0  0  0  0  0
  152.6966  142.0215  159.1953 C   0  0  0  0  0  0  0  0  0  0  0  0
  152.6880  143.2942  159.8014 C   0  0  0  0  0  0  0  0  0  0  0  0
  151.7242  144.2086  159.3274 C   0  0  0  0  0  0  0  0  0  0  0  0
  151.6076  145.6044  159.9014 C   0  0  0  0  0  0  0  0  0  0  0  0
  150.8552  143.8829  158.3452 N   0  0  0  0  0  0  0  0  0  0  0  0
  150.9465  142.6511  157.8397 C   0  0  0  0  0  0  0  0  0  0  0  0
  150.0378  142.3483  156.8427 N   0  0  0  0  0  0  0  0  0  0  0  0
  150.3911  141.7266  155.5716 C   0  0  2  0  0  0  0  0  0  0  0  0
  149.1798  141.4514  154.6781 C   0  0  0  0  0  0  0  0  0  0  0  0
  149.3481  139.9560  154.3727 C   0  0  2  0  0  0  0  0  0  0  0  0
  148.9739  139.0888  155.5817 C   0  0  0  0  0  0  0  0  0  0  0  0
  150.1533  139.3386  156.5196 C   0  0  0  0  0  0  0  0  0  0  0  0
  151.0091  140.3200  155.7005 C   0  0  1  0  0  0  0  0  0  0  0  0
  150.7605  139.8317  154.3931 O   0  0  0  0  0  0  0  0  0  0  0  0
  151.8186  141.7070  158.2107 N   0  0  0  0  0  0  0  0  0  0  0  0
  154.9821  140.4766  161.0263 H   0  0  0  0  0  0  0  0  0  0  0  0
  153.5989  141.3472  161.6804 H   0  0  0  0  0  0  0  0  0  0  0  0
  154.8792  142.2211  160.8102 H   0  0  0  0  0  0  0  0  0  0  0  0
  153.3831  143.5502  160.5874 H   0  0  0  0  0  0  0  0  0  0  0  0
  152.4372  145.8233  160.5744 H   0  0  0  0  0  0  0  0  0  0  0  0
  150.6776  145.7052  160.4613 H   0  0  0  0  0  0  0  0  0  0  0  0
  151.6115  146.3476  159.1036 H   0  0  0  0  0  0  0  0  0  0  0  0
  149.0597  142.3957  157.0882 H   0  0  0  0  0  0  0  0  0  0  0  0
  151.0817  142.3791  155.0353 H   0  0  0  0  0  0  0  0  0  0  0  0
  148.2220  141.6646  155.1549 H   0  0  0  0  0  0  0  0  0  0  0  0
  149.2422  142.0451  153.7656 H   0  0  0  0  0  0  0  0  0  0  0  0
  148.8810  139.6392  153.4400 H   0  0  0  0  0  0  0  0  0  0  0  0
  148.0164  139.3745  156.0186 H   0  0  0  0  0  0  0  0  0  0  0  0
  148.9227  138.0353  155.3044 H   0  0  0  0  0  0  0  0  0  0  0  0
  149.8509  139.7379  157.4880 H   0  0  0  0  0  0  0  0  0  0  0  0
  150.6990  138.4113  156.6958 H   0  0  0  0  0  0  0  0  0  0  0  0
  152.0631  140.3235  155.9795 H   0  0  0  0  0  0  0  0  0  0  0  0
  1  2  1  0  0  0  0
  1 18  1  0  0  0  0
  1 19  1  0  0  0  0
  1 20  1  0  0  0  0
  2  3  1  0  0  0  0
  3 17  1  0  0  0  0
  3  4  2  0  0  0  0
  4  5  1  0  0  0  0
  4 21  1  0  0  0  0
  5  6  1  0  0  0  0
  5  7  2  0  0  0  0
  6 22  1  0  0  0  0
  6 23  1  0  0  0  0
  6 24  1  0  0  0  0
  7  8  1  0  0  0  0
  8  9  1  0  0  0  0
  8 17  2  0  0  0  0
  9 10  1  0  0  0  0
  9 25  1  0  0  0  0
 10 15  1  0  0  0  0
 10 11  1  0  0  0  0
 10 26  1  0  0  0  0
 11 12  1  0  0  0  0
 11 27  1  0  0  0  0
 11 28  1  0  0  0  0
 12 16  1  0  0  0  0
 12 13  1  0  0  0  0
 12 29  1  0  0  0  0
 13 14  1  0  0  0  0
 13 30  1  0  0  0  0
 13 31  1  0  0  0  0
 14 15  1  0  0  0  0
 14 32  1  0  0  0  0
 14 33  1  0  0  0  0
 15 16  1  0  0  0  0
 15 34  1  0  0  0  0
M  END
> <s_m_source_file>
AV-unprocessed.smi

> <i_m_source_file_index>
3148

> <i_lp_mmshare_version>
43012

> <i_f3d_flags>
0

> <s_epik_input>
W0NIM11PYzFbY0hdYyhbQ0gzXSluYyhuMSlbTkhdW0NASF0oW0NIMl1bQ0BASF0yMylbQ0BASF0oTzMpW0NIMl1bQ0gyXTI=

> <s_epik_cmdline>
J2VwaWtfcHl0aG9uJywgJy1waCcsICc3LjAnLCAnLXRuJywgJzgnLCAnLW1hJywgJzIwMCcsICctbWV0YWxfYmluZGluZycsICctaW1hZScsICc8aW5maWxlLm1hZT4nLCAnLW9tYWUnLCAnPG91dGZpbGUubWFlPic=

> <r_lp_tautomer_probability>
1

> <r_epik_Ionization_Penalty>
0.101645

> <r_epik_Ionization_Penalty_Charging>
0

> <r_epik_Ionization_Penalty_Neutral>
0.101645

> <r_epik_State_Penalty>
0.0916212

> <r_epik_Charging_Adjusted_Penalty>
0.0916212

> <i_epik_Tot_Q>
0

> <i_epik_Tot_abs_Q>
0

> <r_epik_Metal_State_Penalty>
0.0781

> <b_epik_Metal_Only>
0

> <s_lp_Force_Field>
OPLS_2005

> <r_lp_Energy>
31.5885

> <b_lp_Chiralities_Consistent>
1

> <s_lp_Variant>
AV-unprocessed.smi:3148-3

> <Gold.Version>
5.8.1

> <Gold.Id.Protein>
6NUR|6NUR_protein|mol2

> <Gold.PLP.Fitness>
39.0530

> <Gold.PLP.PLP>
-37.2614

> <Gold.PLP.part.hbond>
-2.0000

> <Gold.PLP.part.metal>
0.0000

> <Gold.PLP.part.buried>
-4.7389

> <Gold.PLP.part.nonpolar>
-30.1986

> <Gold.PLP.part.repulsive>
0.2906

> <Gold.PLP.ligand.clash>
0.0000

> <Gold.PLP.ligand.torsion>
0.6092

> <Gold.PLP.Chemscore.Hbond>
1.0000

> <Gold.PLP.Chemscore.CHOScore>
0.0000

> <Gold.PLP.Chemscore.Metal>
0.0000

> <Gold.Chemscore.Hbonds>
donor molecule, donor type, donor heavy atom, donor atom, acceptor molecule, acceptor atom, score
      P1  H  7989  7998       L1    16  1.00

> <Gold.PLP.Chemscore.Internal.Correction>
0.0100

> <Gold.Rescore>
     Score         DG    S(hbond)    S(metal)    S(lipo)     H(rot)  DE(clash)    DE(int)     intcor
     12.84     -14.55       0.80        0.00      81.46       1.22       0.12       1.59       ----

> <Gold.Chemscore.Fitness>
12.8426

> <Gold.Chemscore.DG>
-14.5501

> <Gold.Chemscore.ZeroCoef>
-5.4800

> <Gold.Chemscore.Hbond>
0.7997

> <Gold.Chemscore.Metal>
0.0000

> <Gold.Chemscore.Lipo>
81.4586

> <Gold.Chemscore.Internal_Hbond>
0.0000

> <Gold.Chemscore.DEClash>
0.1205

> <Gold.Chemscore.DEInternal>
1.5870

> <Gold.Chemscore.Rot>
1.2232

> <Gold.Chemscore.Internal.Correction>
   9.000000E+99

> <Gold.Chemscore.Hbonds>
donor molecule, donor type, donor heavy atom, donor atom, acceptor molecule, acceptor atom, score
      P1  H  7989  7998       L1    16  0.33

> <Gold.Chemscore.Hbond.Weighted>
-2.6708

> <Gold.Chemscore.Metal.Weighted>
-0.0000

> <Gold.Chemscore.Lipo.Weighted>
-9.5307

> <Gold.Chemscore.Internal_Hbond.Weighted>
0.0000

> <Gold.Chemscore.DEClash.Weighted>
0.1205

> <Gold.Chemscore.DEInternal.Weighted>
1.5870

> <Gold.Chemscore.Rot.Weighted>
3.1314

> <Gold.Chemscore.Internal.Correction.Weighted>
   9.000000E+99

> <Gold.Protein.RotatedTorsions>
[ 6907 6896 6895 6894 ] final  106.39 input  -60.11 | X-H torsion
[ 7974 7965 7964 7962 ] final -177.86 input  175.53 | X-H torsion
[ 8008 7997 7996 7995 ] final  -48.67 input   59.86 | X-H torsion
[ 10167 10162 10161 10158 ] final    7.55 input  -65.29 | X-H torsion
[ 10718 10713 10712 10709 ] final -160.13 input   66.30 | X-H torsion
[ 10763 10752 10751 10750 ] final  124.99 input  -60.55 | X-H torsion
[ 11005 11000 10999 10996 ] final  145.31 input  -57.11 | X-H torsion

> <Gold.Protein.ActiveResidues>
 VAL166  LYS551  ARG553  GLY616  TRP617  ASP618  TYR619  PRO620  LYS621  CYS622 
 ASP623  PHE694  ASN695  SER759  ASP760  ASP761  ALA762  ILE779  LEU786  VAL792 
 PHE793  MET794  SER795  GLU796  ALA797  LYS798  CYS799  TRP800  GLU811  SER814 

> <Gold.Protein.RotatedAtoms>
  152.5195  133.9387  159.7615 H   0  0  0  0  0  0  0  0  0  0  0  0  # atno 6907 bound_to 6896
  150.9722  133.6324  159.2743 H   0  0  0  0  0  0  0  0  0  0  0  0  # atno 6908 bound_to 6896
  151.3531  135.0894  159.9462 H   0  0  0  0  0  0  0  0  0  0  0  0  # atno 6909 bound_to 6896
  144.7129  140.0955  143.6419 H   0  0  0  0  0  0  0  0  0  0  0  0  # atno 7974 bound_to 7965
  154.4032  140.1316  156.4377 H   0  0  0  0  0  0  0  0  0  0  0  0  # atno 8008 bound_to 7997
  155.7489  140.3488  155.5121 H   0  0  0  0  0  0  0  0  0  0  0  0  # atno 8009 bound_to 7997
  155.8968  140.1012  157.1369 H   0  0  0  0  0  0  0  0  0  0  0  0  # atno 8010 bound_to 7997
  140.6365  143.7873  150.7367 H   0  0  0  0  0  0  0  0  0  0  0  0  # atno 10167 bound_to 10162
  156.5779  130.8716  151.2856 H   0  0  0  0  0  0  0  0  0  0  0  0  # atno 10718 bound_to 10713
  153.6702  135.3331  155.3151 H   0  0  0  0  0  0  0  0  0  0  0  0  # atno 10763 bound_to 10752
  154.8493  135.4384  154.1713 H   0  0  0  0  0  0  0  0  0  0  0  0  # atno 10764 bound_to 10752
  153.2702  135.6999  153.7564 H   0  0  0  0  0  0  0  0  0  0  0  0  # atno 10765 bound_to 10752
  140.0702  134.9156  157.1332 H   0  0  0  0  0  0  0  0  0  0  0  0  # atno 11005 bound_to 11000
  145.9583  139.2782  143.1171 LP  0  0  0  0  0  0  0  0  0  0  0  0  # atno 17320 bound_to 7965
  145.9249  140.9090  143.0386 LP  0  0  0  0  0  0  0  0  0  0  0  0  # atno 17321 bound_to 7965
  140.1496  143.4369  152.2140 LP  0  0  0  0  0  0  0  0  0  0  0  0  # atno 17342 bound_to 10162
  139.5575  144.7383  151.4250 LP  0  0  0  0  0  0  0  0  0  0  0  0  # atno 17343 bound_to 10162
  157.7333  130.9729  150.1973 LP  0  0  0  0  0  0  0  0  0  0  0  0  # atno 17370 bound_to 10713
  156.2657  130.3716  149.8083 LP  0  0  0  0  0  0  0  0  0  0  0  0  # atno 17371 bound_to 10713
  140.3639  134.2464  155.7184 LP  0  0  0  0  0  0  0  0  0  0  0  0  # atno 17394 bound_to 11000
  141.2009  133.7977  157.0468 LP  0  0  0  0  0  0  0  0  0  0  0  0  # atno 17395 bound_to 11000

$$$$
