AV-unprocessed.smi:1586|AV-procd|sdf|6380|dock2
  -GOLD-   22720 7 13D 1   1.00000     0.00000
 Structure written by MMmdl.
 46 47  0  0  0  0  0  0  0  0  3 V2000
  147.6930  142.7347  158.6446 C   0  0  0  0  0  0  0  0  0  0  0  0
  147.2577  142.2988  157.2383 C   0  0  0  0  0  0  0  0  0  0  0  0
  148.4091  142.0047  156.3495 N   0  3  0  0  0  0  0  0  0  0  0  0
  148.0443  141.0948  155.2361 C   0  0  0  0  0  0  0  0  0  0  0  0
  149.2549  140.8597  154.3086 C   0  0  0  0  0  0  0  0  0  0  0  0
  150.3942  140.2810  155.0329 N   0  0  0  0  0  0  0  0  0  0  0  0
  150.2092  138.8867  155.4921 C   0  0  1  0  0  0  0  0  0  0  0  0
  150.5462  137.8795  154.3715 C   0  0  0  0  0  0  0  0  0  0  0  0
  151.0532  138.5670  156.7502 C   0  0  0  0  0  0  0  0  0  0  0  0
  150.5973  137.3523  157.4177 N   0  0  0  0  0  0  0  0  0  0  0  0
  149.6676  137.3012  158.3800 C   0  0  0  0  0  0  0  0  0  0  0  0
  149.1248  138.3400  158.7632 O   0  0  0  0  0  0  0  0  0  0  0  0
  149.4251  136.0510  158.8360 N   0  5  0  0  0  0  0  0  0  0  0  0
  148.4987  135.8448  159.7848 C   0  0  0  0  0  0  0  0  0  0  0  0
  147.8798  134.6024  160.0916 C   0  0  0  0  0  0  0  0  0  0  0  0
  147.0434  134.9165  161.1249 C   0  0  0  0  0  0  0  0  0  0  0  0
  146.0899  134.1078  161.9366 C   0  0  0  0  0  0  0  0  0  0  0  0
  147.1480  136.2375  161.4316 O   0  0  0  0  0  0  0  0  0  0  0  0
  148.0856  136.8233  160.5727 N   0  0  0  0  0  0  0  0  0  0  0  0
  150.7619  141.2434  156.0806 C   0  0  0  0  0  0  0  0  0  0  0  0
  149.6020  141.4893  157.0681 C   0  0  0  0  0  0  0  0  0  0  0  0
  146.8274  143.0320  159.2370 H   0  0  0  0  0  0  0  0  0  0  0  0
  148.3710  143.5877  158.6023 H   0  0  0  0  0  0  0  0  0  0  0  0
  148.1930  141.9320  159.1860 H   0  0  0  0  0  0  0  0  0  0  0  0
  146.5951  141.4337  157.2915 H   0  0  0  0  0  0  0  0  0  0  0  0
  146.6727  143.1104  156.8036 H   0  0  0  0  0  0  0  0  0  0  0  0
  147.6572  140.1534  155.6277 H   0  0  0  0  0  0  0  0  0  0  0  0
  147.2370  141.5443  154.6568 H   0  0  0  0  0  0  0  0  0  0  0  0
  148.9733  140.2426  153.4572 H   0  0  0  0  0  0  0  0  0  0  0  0
  149.5672  141.8119  153.8774 H   0  0  0  0  0  0  0  0  0  0  0  0
  149.1658  138.7311  155.7629 H   0  0  0  0  0  0  0  0  0  0  0  0
  150.5494  136.8587  154.7541 H   0  0  0  0  0  0  0  0  0  0  0  0
  151.5302  138.0700  153.9412 H   0  0  0  0  0  0  0  0  0  0  0  0
  149.8130  137.8996  153.5659 H   0  0  0  0  0  0  0  0  0  0  0  0
  152.1123  138.4820  156.5073 H   0  0  0  0  0  0  0  0  0  0  0  0
  150.9854  139.3980  157.4541 H   0  0  0  0  0  0  0  0  0  0  0  0
  151.0240  136.4833  157.1315 H   0  0  0  0  0  0  0  0  0  0  0  0
  148.0247  133.6394  159.6261 H   0  0  0  0  0  0  0  0  0  0  0  0
  146.6233  133.3623  162.5264 H   0  0  0  0  0  0  0  0  0  0  0  0
  145.3813  133.5870  161.2926 H   0  0  0  0  0  0  0  0  0  0  0  0
  145.5228  134.7382  162.6220 H   0  0  0  0  0  0  0  0  0  0  0  0
  151.6588  140.9279  156.6108 H   0  0  0  0  0  0  0  0  0  0  0  0
  151.0341  142.1863  155.6042 H   0  0  0  0  0  0  0  0  0  0  0  0
  149.9287  142.2167  157.8103 H   0  0  0  0  0  0  0  0  0  0  0  0
  149.3515  140.5799  157.6159 H   0  0  0  0  0  0  0  0  0  0  0  0
  148.6803  142.8781  155.9206 H   0  0  0  0  0  0  0  0  0  0  0  0
  1  2  1  0  0  0  0
  1 22  1  0  0  0  0
  1 23  1  0  0  0  0
  1 24  1  0  0  0  0
  2  3  1  0  0  0  0
  2 25  1  0  0  0  0
  2 26  1  0  0  0  0
  3 21  1  0  0  0  0
  3  4  1  0  0  0  0
  3 46  1  0  0  0  0
  4  5  1  0  0  0  0
  4 27  1  0  0  0  0
  4 28  1  0  0  0  0
  5  6  1  0  0  0  0
  5 29  1  0  0  0  0
  5 30  1  0  0  0  0
  6  7  1  0  0  0  0
  6 20  1  0  0  0  0
  7  8  1  0  0  0  0
  7  9  1  0  0  0  0
  7 31  1  0  0  0  0
  8 32  1  0  0  0  0
  8 33  1  0  0  0  0
  8 34  1  0  0  0  0
  9 10  1  0  0  0  0
  9 35  1  0  0  0  0
  9 36  1  0  0  0  0
 10 11  1  0  0  0  0
 10 37  1  0  0  0  0
 11 12  2  0  0  0  0
 11 13  1  0  0  0  0
 13 14  1  0  0  0  0
 14 19  2  0  0  0  0
 14 15  1  0  0  0  0
 15 16  2  0  0  0  0
 15 38  1  0  0  0  0
 16 17  1  0  0  0  0
 16 18  1  0  0  0  0
 17 39  1  0  0  0  0
 17 40  1  0  0  0  0
 17 41  1  0  0  0  0
 18 19  1  0  0  0  0
 20 21  1  0  0  0  0
 20 42  1  0  0  0  0
 20 43  1  0  0  0  0
 21 44  1  0  0  0  0
 21 45  1  0  0  0  0
M  CHG  1   3   1
M  CHG  1  13  -1
M  END
> <s_m_source_file>
AV-unprocessed.smi

> <i_m_source_file_index>
1586

> <i_lp_mmshare_version>
43012

> <i_f3d_flags>
0

> <s_epik_input>
W0NIM11bQ0gyXU4xW0NIMl1bQ0gyXU4oW0NIMl1bQ0gyXTEpW0NASF0oW0NIM10pW0NIMl1bTkhdQyg9TylbTkhdYzJbY0hdYyhbQ0gzXSlvbjI=

> <s_epik_cmdline>
J2VwaWtfcHl0aG9uJywgJy1waCcsICc3LjAnLCAnLXRuJywgJzgnLCAnLW1hJywgJzIwMCcsICctbWV0YWxfYmluZGluZycsICctaW1hZScsICc8aW5maWxlLm1hZT4nLCAnLW9tYWUnLCAnPG91dGZpbGUubWFlPic=

> <r_epik_Ionization_Penalty>
6.66134

> <r_epik_Ionization_Penalty_Charging>
6.66063

> <r_epik_Ionization_Penalty_Neutral>
0.000714131

> <r_epik_State_Penalty>
6.77843

> <r_epik_Charging_Adjusted_Penalty>
13.4391

> <i_epik_Tot_Q>
0

> <i_epik_Tot_abs_Q>
2

> <r_epik_Metal_State_Penalty>
2.70494

> <b_epik_Metal_Only>
1

> <s_lp_Force_Field>
OPLS_2005

> <r_lp_Energy>
15.0096

> <b_lp_Chiralities_Consistent>
1

> <s_lp_Variant>
AV-unprocessed.smi:1586-8

> <Gold.Version>
5.8.1

> <Gold.Id.Protein>
6NUR|6NUR_protein|mol2

> <Gold.PLP.Fitness>
46.7580

> <Gold.PLP.PLP>
-32.5753

> <Gold.PLP.part.hbond>
-6.6522

> <Gold.PLP.part.metal>
0.0000

> <Gold.PLP.part.buried>
-4.4943

> <Gold.PLP.part.nonpolar>
-23.0955

> <Gold.PLP.part.repulsive>
0.1310

> <Gold.PLP.ligand.clash>
0.0000

> <Gold.PLP.ligand.torsion>
1.3600

> <Gold.PLP.Chemscore.Hbond>
5.5897

> <Gold.PLP.Chemscore.CHOScore>
0.0000

> <Gold.PLP.Chemscore.Metal>
0.0000

> <Gold.Chemscore.Hbonds>
donor molecule, donor type, donor heavy atom, donor atom, acceptor molecule, acceptor atom, score
      L1  H     3    46       P1  8028  2.00
      P1  H  6896  6909       L1    13  1.43
      P1  H  6931  6943       L1    19  0.62
      P1  H  6934  6947       L1    19  0.04
      P1  H  7989  7998       L1     6  0.42

> <Gold.PLP.Chemscore.Internal.Correction>
0.1337

> <Gold.Rescore>
     Score         DG    S(hbond)    S(metal)    S(lipo)     H(rot)  DE(clash)    DE(int)     intcor
     14.57     -17.94       2.95        0.00      59.91       1.73       0.44       2.92       ----

> <Gold.Chemscore.Fitness>
14.5714

> <Gold.Chemscore.DG>
-17.9351

> <Gold.Chemscore.ZeroCoef>
-5.4800

> <Gold.Chemscore.Hbond>
2.9527

> <Gold.Chemscore.Metal>
0.0000

> <Gold.Chemscore.Lipo>
59.9067

> <Gold.Chemscore.Internal_Hbond>
0.0000

> <Gold.Chemscore.DEClash>
0.4439

> <Gold.Chemscore.DEInternal>
2.9198

> <Gold.Chemscore.Rot>
1.7250

> <Gold.Chemscore.Internal.Correction>
   9.000000E+99

> <Gold.Chemscore.Hbonds>
donor molecule, donor type, donor heavy atom, donor atom, acceptor molecule, acceptor atom, score
      L1  H     3    46       P1  8028  0.99
      P1  H  6896  6909       L1    13  0.10
      P1  H  6931  6943       L1    19  0.21
      P1  H  6934  6947       L1    19  0.01

> <Gold.Chemscore.Hbond.Weighted>
-9.8621

> <Gold.Chemscore.Metal.Weighted>
-0.0000

> <Gold.Chemscore.Lipo.Weighted>
-7.0091

> <Gold.Chemscore.Internal_Hbond.Weighted>
0.0000

> <Gold.Chemscore.DEClash.Weighted>
0.4439

> <Gold.Chemscore.DEInternal.Weighted>
2.9198

> <Gold.Chemscore.Rot.Weighted>
4.4161

> <Gold.Chemscore.Internal.Correction.Weighted>
   9.000000E+99

> <Gold.Protein.RotatedTorsions>
[ 6907 6896 6895 6894 ] final   78.65 input  -60.11 | X-H torsion
[ 7974 7965 7964 7962 ] final  -26.48 input  175.53 | X-H torsion
[ 8008 7997 7996 7995 ] final  -82.62 input   59.86 | X-H torsion
[ 10167 10162 10161 10158 ] final  114.28 input  -65.29 | X-H torsion
[ 10718 10713 10712 10709 ] final  162.50 input   66.30 | X-H torsion
[ 10763 10752 10751 10750 ] final  150.48 input  -60.55 | X-H torsion
[ 11005 11000 10999 10996 ] final -141.44 input  -57.11 | X-H torsion

> <Gold.Protein.ActiveResidues>
 VAL166  LYS551  ARG553  GLY616  TRP617  ASP618  TYR619  PRO620  LYS621  CYS622 
 ASP623  PHE694  ASN695  SER759  ASP760  ASP761  ALA762  ILE779  LEU786  VAL792 
 PHE793  MET794  SER795  GLU796  ALA797  LYS798  CYS799  TRP800  GLU811  SER814 

> <Gold.Protein.RotatedAtoms>
  152.5168  134.3632  159.9291 H   0  0  0  0  0  0  0  0  0  0  0  0  # atno 6907 bound_to 6896
  151.3585  133.3892  159.2695 H   0  0  0  0  0  0  0  0  0  0  0  0  # atno 6908 bound_to 6896
  150.9670  134.9069  159.7823 H   0  0  0  0  0  0  0  0  0  0  0  0  # atno 6909 bound_to 6896
  146.1422  140.5025  142.8647 H   0  0  0  0  0  0  0  0  0  0  0  0  # atno 7974 bound_to 7965
  154.6105  140.0630  156.9487 H   0  0  0  0  0  0  0  0  0  0  0  0  # atno 8008 bound_to 7997
  155.1982  140.3313  155.4329 H   0  0  0  0  0  0  0  0  0  0  0  0  # atno 8009 bound_to 7997
  156.2373  140.1869  156.7067 H   0  0  0  0  0  0  0  0  0  0  0  0  # atno 8010 bound_to 7997
  139.6400  144.7123  151.2257 H   0  0  0  0  0  0  0  0  0  0  0  0  # atno 10167 bound_to 10162
  157.1216  131.0494  151.2412 H   0  0  0  0  0  0  0  0  0  0  0  0  # atno 10718 bound_to 10713
  154.0882  135.2854  155.3277 H   0  0  0  0  0  0  0  0  0  0  0  0  # atno 10763 bound_to 10752
  154.6638  135.5325  153.8054 H   0  0  0  0  0  0  0  0  0  0  0  0  # atno 10764 bound_to 10752
  153.0423  135.6540  154.1053 H   0  0  0  0  0  0  0  0  0  0  0  0  # atno 10765 bound_to 10752
  140.8324  134.2501  157.4850 H   0  0  0  0  0  0  0  0  0  0  0  0  # atno 11005 bound_to 11000
  144.7806  140.5831  143.6608 LP  0  0  0  0  0  0  0  0  0  0  0  0  # atno 17320 bound_to 7965
  145.5020  139.1483  143.3652 LP  0  0  0  0  0  0  0  0  0  0  0  0  # atno 17321 bound_to 7965
  140.7485  143.6329  150.8406 LP  0  0  0  0  0  0  0  0  0  0  0  0  # atno 17342 bound_to 10162
  139.9965  143.5790  152.2891 LP  0  0  0  0  0  0  0  0  0  0  0  0  # atno 17343 bound_to 10162
  157.4471  130.7577  149.7119 LP  0  0  0  0  0  0  0  0  0  0  0  0  # atno 17370 bound_to 10713
  155.9827  130.4007  150.3402 LP  0  0  0  0  0  0  0  0  0  0  0  0  # atno 17371 bound_to 10713
  139.8704  134.9593  156.4328 LP  0  0  0  0  0  0  0  0  0  0  0  0  # atno 17394 bound_to 11000
  140.8984  133.7797  155.9651 LP  0  0  0  0  0  0  0  0  0  0  0  0  # atno 17395 bound_to 11000

$$$$
