AV-unprocessed.smi:2928|AV-procd|sdf|11238|dock1
  -GOLD-   2272016133D 1   1.00000     0.00000
 Structure written by MMmdl.
 56 59  0  0  0  0  0  0  0  0  3 V2000
  150.9377  142.2057  156.2914 C   0  0  0  0  0  0  0  0  0  0  0  0
  149.5120  141.9897  155.9481 N   0  3  2  0  0  0  0  0  0  0  0  0
  148.7250  141.2724  156.9791 C   0  0  1  0  0  0  0  0  0  0  0  0
  147.2188  141.4922  156.7083 C   0  0  0  0  0  0  0  0  0  0  0  0
  146.7836  141.1363  155.2740 C   0  0  0  0  0  0  0  0  0  0  0  0
  147.7987  141.6075  154.2145 C   0  0  0  0  0  0  0  0  0  0  0  0
  149.2757  141.3851  154.6157 C   0  0  2  0  0  0  0  0  0  0  0  0
  149.7580  139.9131  154.5664 C   0  0  0  0  0  0  0  0  0  0  0  0
  149.3356  139.0216  155.7604 C   0  0  2  0  0  0  0  0  0  0  0  0
  148.1841  138.1867  155.4245 N   0  0  0  0  0  0  0  0  0  0  0  0
  147.6168  137.2729  156.2255 C   0  0  0  0  0  0  0  0  0  0  0  0
  148.0174  137.0212  157.3616 O   0  0  0  0  0  0  0  0  0  0  0  0
  146.5551  136.7014  155.6337 N   0  0  0  0  0  0  0  0  0  0  0  0
  145.6489  135.7504  156.1828 C   0  0  0  0  0  0  0  0  0  0  0  0
  145.4072  135.6379  157.5759 C   0  0  0  0  0  0  0  0  0  0  0  0
  144.5100  134.6614  158.0522 C   0  0  0  0  0  0  0  0  0  0  0  0
  143.8770  133.8053  157.1324 C   0  0  0  0  0  0  0  0  0  0  0  0
  144.1408  133.9271  155.8145 N   0  3  0  0  0  0  0  0  0  0  0  0
  144.9939  134.8493  155.3051 C   0  0  0  0  0  0  0  0  0  0  0  0
  145.1983  134.8936  153.9152 N   0  0  0  0  0  0  0  0  0  0  0  0
  145.8447  133.7249  153.3425 C   0  0  0  0  0  0  0  0  0  0  0  0
  145.6071  133.8262  151.8335 C   0  0  0  0  0  0  0  0  0  0  0  0
  144.3944  134.7536  151.6857 C   0  0  0  0  0  0  0  0  0  0  0  0
  144.0047  135.1239  153.1190 C   0  0  0  0  0  0  0  0  0  0  0  0
  149.1615  139.7906  157.0985 C   0  0  0  0  0  0  0  0  0  0  0  0
  151.4881  141.2694  156.3809 H   0  0  0  0  0  0  0  0  0  0  0  0
  151.0232  142.7391  157.2383 H   0  0  0  0  0  0  0  0  0  0  0  0
  151.4250  142.8117  155.5271 H   0  0  0  0  0  0  0  0  0  0  0  0
  148.9319  141.7453  157.9404 H   0  0  0  0  0  0  0  0  0  0  0  0
  146.6167  140.9397  157.4302 H   0  0  0  0  0  0  0  0  0  0  0  0
  146.9937  142.5458  156.8790 H   0  0  0  0  0  0  0  0  0  0  0  0
  146.6116  140.0691  155.1865 H   0  0  0  0  0  0  0  0  0  0  0  0
  145.8107  141.5844  155.0685 H   0  0  0  0  0  0  0  0  0  0  0  0
  147.5876  141.1327  153.2558 H   0  0  0  0  0  0  0  0  0  0  0  0
  147.6489  142.6763  154.0556 H   0  0  0  0  0  0  0  0  0  0  0  0
  149.8726  141.9415  153.8912 H   0  0  0  0  0  0  0  0  0  0  0  0
  149.4705  139.4535  153.6196 H   0  0  0  0  0  0  0  0  0  0  0  0
  150.8482  139.9286  154.5412 H   0  0  0  0  0  0  0  0  0  0  0  0
  150.1537  138.3137  155.9082 H   0  0  0  0  0  0  0  0  0  0  0  0
  147.7833  138.3221  154.5079 H   0  0  0  0  0  0  0  0  0  0  0  0
  146.3022  137.0670  154.7273 H   0  0  0  0  0  0  0  0  0  0  0  0
  145.9050  136.2755  158.2904 H   0  0  0  0  0  0  0  0  0  0  0  0
  144.3152  134.5678  159.1107 H   0  0  0  0  0  0  0  0  0  0  0  0
  143.1781  133.0288  157.4081 H   0  0  0  0  0  0  0  0  0  0  0  0
  146.9085  133.7079  153.5814 H   0  0  0  0  0  0  0  0  0  0  0  0
  145.3970  132.8094  153.7314 H   0  0  0  0  0  0  0  0  0  0  0  0
  146.4741  134.2679  151.3410 H   0  0  0  0  0  0  0  0  0  0  0  0
  145.4363  132.8454  151.3885 H   0  0  0  0  0  0  0  0  0  0  0  0
  144.6761  135.6468  151.1265 H   0  0  0  0  0  0  0  0  0  0  0  0
  143.5690  134.2770  151.1559 H   0  0  0  0  0  0  0  0  0  0  0  0
  143.1871  134.4878  153.4612 H   0  0  0  0  0  0  0  0  0  0  0  0
  143.6771  136.1615  153.1913 H   0  0  0  0  0  0  0  0  0  0  0  0
  150.1260  139.7748  157.6073 H   0  0  0  0  0  0  0  0  0  0  0  0
  148.4910  139.2601  157.7753 H   0  0  0  0  0  0  0  0  0  0  0  0
  149.1164  142.9179  155.9002 H   0  0  0  0  0  0  0  0  0  0  0  0
  143.6731  133.2910  155.1685 H   0  0  0  0  0  0  0  0  0  0  0  0
  1  2  1  0  0  0  0
  1 26  1  0  0  0  0
  1 27  1  0  0  0  0
  1 28  1  0  0  0  0
  2  7  1  0  0  0  0
  2  3  1  0  0  0  0
  2 55  1  0  0  0  0
  3 25  1  0  0  0  0
  3  4  1  0  0  0  0
  3 29  1  0  0  0  0
  4  5  1  0  0  0  0
  4 30  1  0  0  0  0
  4 31  1  0  0  0  0
  5  6  1  0  0  0  0
  5 32  1  0  0  0  0
  5 33  1  0  0  0  0
  6  7  1  0  0  0  0
  6 34  1  0  0  0  0
  6 35  1  0  0  0  0
  7  8  1  0  0  0  0
  7 36  1  0  0  0  0
  8  9  1  0  0  0  0
  8 37  1  0  0  0  0
  8 38  1  0  0  0  0
  9 10  1  0  0  0  0
  9 25  1  0  0  0  0
  9 39  1  0  0  0  0
 10 11  1  0  0  0  0
 10 40  1  0  0  0  0
 11 12  2  0  0  0  0
 11 13  1  0  0  0  0
 13 14  1  0  0  0  0
 13 41  1  0  0  0  0
 14 19  1  0  0  0  0
 14 15  2  0  0  0  0
 15 16  1  0  0  0  0
 15 42  1  0  0  0  0
 16 17  2  0  0  0  0
 16 43  1  0  0  0  0
 17 18  1  0  0  0  0
 17 44  1  0  0  0  0
 18 19  2  0  0  0  0
 18 56  1  0  0  0  0
 19 20  1  0  0  0  0
 20 24  1  0  0  0  0
 20 21  1  0  0  0  0
 21 22  1  0  0  0  0
 21 45  1  0  0  0  0
 21 46  1  0  0  0  0
 22 23  1  0  0  0  0
 22 47  1  0  0  0  0
 22 48  1  0  0  0  0
 23 24  1  0  0  0  0
 23 49  1  0  0  0  0
 23 50  1  0  0  0  0
 24 51  1  0  0  0  0
 24 52  1  0  0  0  0
 25 53  1  0  0  0  0
 25 54  1  0  0  0  0
M  CHG  1   2   1
M  CHG  1  18   1
M  END
> <s_m_source_file>
AV-unprocessed.smi

> <i_m_source_file_index>
2928

> <i_lp_mmshare_version>
43012

> <i_f3d_flags>
0

> <s_epik_input>
W0NIMl0xW0NIMl1bQ0gyXVtDQEhdKE4oW0NIM10pW0NIXTEyKVtDSDJdW0NASF0oW0NIMl0yKVtOSF1DKD1PKVtOSF1jM1tjSF1bY0hdW2NIXW5jM040W0NIMl1bQ0gyXVtDSDJdW0NIMl00

> <s_epik_cmdline>
J2VwaWtfcHl0aG9uJywgJy1waCcsICc3LjAnLCAnLXRuJywgJzgnLCAnLW1hJywgJzIwMCcsICctbWV0YWxfYmluZGluZycsICctaW1hZScsICc8aW5maWxlLm1hZT4nLCAnLW9tYWUnLCAnPG91dGZpbGUubWFlPic=

> <r_lp_tautomer_probability>
0.999994

> <r_epik_Ionization_Penalty>
1.2404

> <r_epik_Ionization_Penalty_Charging>
1.24038

> <r_epik_Ionization_Penalty_Neutral>
1.86539e-05

> <r_epik_State_Penalty>
1.30821

> <r_epik_Charging_Adjusted_Penalty>
2.54859

> <i_epik_Tot_Q>
2

> <i_epik_Tot_abs_Q>
2

> <r_epik_Metal_State_Penalty>
1.3782

> <b_epik_Metal_Only>
0

> <s_lp_Force_Field>
OPLS_2005

> <r_lp_Energy>
76.0972

> <b_lp_Chiralities_Consistent>
1

> <s_lp_Variant>
AV-unprocessed.smi:2928-8

> <Gold.Version>
5.8.1

> <Gold.Id.Protein>
6NUR|6NUR_protein|mol2

> <Gold.PLP.Fitness>
36.7672

> <Gold.PLP.PLP>
-25.1036

> <Gold.PLP.part.hbond>
-2.0000

> <Gold.PLP.part.metal>
0.0000

> <Gold.PLP.part.buried>
-4.2472

> <Gold.PLP.part.nonpolar>
-18.1777

> <Gold.PLP.part.repulsive>
0.1839

> <Gold.PLP.ligand.clash>
0.0000

> <Gold.PLP.ligand.torsion>
0.2102

> <Gold.PLP.Chemscore.Hbond>
4.0000

> <Gold.PLP.Chemscore.CHOScore>
0.0000

> <Gold.PLP.Chemscore.Metal>
0.0000

> <Gold.Chemscore.Hbonds>
donor molecule, donor type, donor heavy atom, donor atom, acceptor molecule, acceptor atom, score
      L1  H     2    55       P1  8028  2.00
      L1  H    18    56       P1 10957  2.00

> <Gold.PLP.Chemscore.Internal.Correction>
0.0839

> <Gold.Rescore>
     Score         DG    S(hbond)    S(metal)    S(lipo)     H(rot)  DE(clash)    DE(int)     intcor
     15.37     -16.49       1.96        0.00      64.13       1.19       0.06       1.06       ----

> <Gold.Chemscore.Fitness>
15.3731

> <Gold.Chemscore.DG>
-16.4908

> <Gold.Chemscore.ZeroCoef>
-5.4800

> <Gold.Chemscore.Hbond>
1.9606

> <Gold.Chemscore.Metal>
0.0000

> <Gold.Chemscore.Lipo>
64.1325

> <Gold.Chemscore.Internal_Hbond>
0.0000

> <Gold.Chemscore.DEClash>
0.0618

> <Gold.Chemscore.DEInternal>
1.0559

> <Gold.Chemscore.Rot>
1.1879

> <Gold.Chemscore.Internal.Correction>
   9.000000E+99

> <Gold.Chemscore.Hbonds>
donor molecule, donor type, donor heavy atom, donor atom, acceptor molecule, acceptor atom, score
      L1  H     2    55       P1  8028  1.00
      L1  H    18    56       P1 10957  0.96

> <Gold.Chemscore.Hbond.Weighted>
-6.5483

> <Gold.Chemscore.Metal.Weighted>
-0.0000

> <Gold.Chemscore.Lipo.Weighted>
-7.5035

> <Gold.Chemscore.Internal_Hbond.Weighted>
0.0000

> <Gold.Chemscore.DEClash.Weighted>
0.0618

> <Gold.Chemscore.DEInternal.Weighted>
1.0559

> <Gold.Chemscore.Rot.Weighted>
3.0410

> <Gold.Chemscore.Internal.Correction.Weighted>
   9.000000E+99

> <Gold.Protein.RotatedTorsions>
[ 6907 6896 6895 6894 ] final  -25.49 input  -60.11 | X-H torsion
[ 7974 7965 7964 7962 ] final -171.90 input  175.53 | X-H torsion
[ 8008 7997 7996 7995 ] final  -97.49 input   59.86 | X-H torsion
[ 10167 10162 10161 10158 ] final  -75.36 input  -65.29 | X-H torsion
[ 10718 10713 10712 10709 ] final  157.41 input   66.30 | X-H torsion
[ 10763 10752 10751 10750 ] final -170.64 input  -60.55 | X-H torsion
[ 11005 11000 10999 10996 ] final  -19.40 input  -57.11 | X-H torsion

> <Gold.Protein.ActiveResidues>
 VAL166  LYS551  ARG553  GLY616  TRP617  ASP618  TYR619  PRO620  LYS621  CYS622 
 ASP623  PHE694  ASN695  SER759  ASP760  ASP761  ALA762  ILE779  LEU786  VAL792 
 PHE793  MET794  SER795  GLU796  ALA797  LYS798  CYS799  TRP800  GLU811  SER814 

> <Gold.Protein.RotatedAtoms>
  151.1745  135.0333  159.8765 H   0  0  0  0  0  0  0  0  0  0  0  0  # atno 6907 bound_to 6896
  152.5447  134.1133  159.8378 H   0  0  0  0  0  0  0  0  0  0  0  0  # atno 6908 bound_to 6896
  151.1243  133.5035  159.2633 H   0  0  0  0  0  0  0  0  0  0  0  0  # atno 6909 bound_to 6896
  144.7152  140.1852  143.6354 H   0  0  0  0  0  0  0  0  0  0  0  0  # atno 7974 bound_to 7965
  154.7885  140.0462  157.1182 H   0  0  0  0  0  0  0  0  0  0  0  0  # atno 8008 bound_to 7997
  154.9619  140.3078  155.5007 H   0  0  0  0  0  0  0  0  0  0  0  0  # atno 8009 bound_to 7997
  156.2946  140.2269  156.4706 H   0  0  0  0  0  0  0  0  0  0  0  0  # atno 8010 bound_to 7997
  140.4949  143.2372  151.7847 H   0  0  0  0  0  0  0  0  0  0  0  0  # atno 10167 bound_to 10162
  157.1919  131.0656  151.2074 H   0  0  0  0  0  0  0  0  0  0  0  0  # atno 10718 bound_to 10713
  154.6392  135.2896  155.0123 H   0  0  0  0  0  0  0  0  0  0  0  0  # atno 10763 bound_to 10752
  154.1256  135.6541  153.4915 H   0  0  0  0  0  0  0  0  0  0  0  0  # atno 10764 bound_to 10752
  153.0318  135.5298  154.7252 H   0  0  0  0  0  0  0  0  0  0  0  0  # atno 10765 bound_to 10752
  140.8363  133.7959  155.9812 H   0  0  0  0  0  0  0  0  0  0  0  0  # atno 11005 bound_to 11000
  145.8819  139.2327  143.1600 LP  0  0  0  0  0  0  0  0  0  0  0  0  # atno 17320 bound_to 7965
  145.9987  140.8540  143.0030 LP  0  0  0  0  0  0  0  0  0  0  0  0  # atno 17321 bound_to 7965
  139.4859  144.4600  151.9552 LP  0  0  0  0  0  0  0  0  0  0  0  0  # atno 17342 bound_to 10162
  140.3687  144.2882  150.5923 LP  0  0  0  0  0  0  0  0  0  0  0  0  # atno 17343 bound_to 10162
  157.3852  130.7253  149.6658 LP  0  0  0  0  0  0  0  0  0  0  0  0  # atno 17370 bound_to 10713
  155.9711  130.4161  150.4216 LP  0  0  0  0  0  0  0  0  0  0  0  0  # atno 17371 bound_to 10713
  140.8944  134.2456  157.5077 LP  0  0  0  0  0  0  0  0  0  0  0  0  # atno 17394 bound_to 11000
  139.8704  134.9677  156.4604 LP  0  0  0  0  0  0  0  0  0  0  0  0  # atno 17395 bound_to 11000

$$$$
