AV-unprocessed.smi:1830|AV-procd|sdf|7433|dock7
  -GOLD-   22720 9123D 1   1.00000     0.00000
 Structure written by MMmdl.
 53 56  0  0  0  0  0  0  0  0  2 V2000
  146.9831  138.0853  155.4938 O   0  0  0  0  0  0  0  0  0  0  0  0
  147.4074  137.4127  154.5543 C   0  0  0  0  0  0  0  0  0  0  0  0
  148.7080  137.2997  154.2533 N   0  0  0  0  0  0  0  0  0  0  0  0
  149.7921  137.9634  154.9681 C   0  0  0  0  0  0  0  0  0  0  0  0
  150.0493  139.3878  154.4263 C   0  0  1  0  0  0  0  0  0  0  0  0
  149.1686  140.4614  155.1108 C   0  0  0  0  0  0  0  0  0  0  0  0
  149.6950  140.7271  156.4627 N   0  3  2  0  0  0  0  0  0  0  0  0
  148.9994  141.7230  157.2962 C   0  0  0  0  0  0  0  0  0  0  0  0
  150.0613  142.2058  158.3043 C   0  0  0  0  0  0  0  0  0  0  0  0
  151.3855  141.5602  157.8576 C   0  0  0  0  0  0  0  0  0  0  0  0
  151.0988  141.1416  156.4189 C   0  0  1  0  0  0  0  0  0  0  0  0
  151.9381  140.0082  155.8185 C   0  0  0  0  0  0  0  0  0  0  0  0
  151.4399  139.7403  154.5052 O   0  0  0  0  0  0  0  0  0  0  0  0
  146.6482  136.7222  153.6884 N   0  0  0  0  0  0  0  0  0  0  0  0
  145.2283  136.6652  153.6239 C   0  0  0  0  0  0  0  0  0  0  0  0
  144.4180  137.4903  154.4414 C   0  0  0  0  0  0  0  0  0  0  0  0
  143.0208  137.3468  154.3949 C   0  0  0  0  0  0  0  0  0  0  0  0
  142.4814  136.3692  153.5424 C   0  0  0  0  0  0  0  0  0  0  0  0
  143.2393  135.5679  152.7676 N   0  0  0  0  0  0  0  0  0  0  0  0
  144.5881  135.7042  152.7899 C   0  0  0  0  0  0  0  0  0  0  0  0
  145.3318  134.8515  151.9421 N   0  0  0  0  0  0  0  0  0  0  0  0
  146.2947  133.9085  152.5017 C   0  0  0  0  0  0  0  0  0  0  0  0
  146.5898  132.9282  151.3703 C   0  0  0  0  0  0  0  0  0  0  0  0
  145.2371  132.8187  150.6735 C   0  0  0  0  0  0  0  0  0  0  0  0
  144.6333  134.2190  150.8267 C   0  0  0  0  0  0  0  0  0  0  0  0
  148.9643  136.7268  153.4623 H   0  0  0  0  0  0  0  0  0  0  0  0
  149.5567  138.0043  156.0329 H   0  0  0  0  0  0  0  0  0  0  0  0
  150.6847  137.3443  154.8838 H   0  0  0  0  0  0  0  0  0  0  0  0
  149.7928  139.3880  153.3664 H   0  0  0  0  0  0  0  0  0  0  0  0
  149.1829  141.3841  154.5287 H   0  0  0  0  0  0  0  0  0  0  0  0
  148.1298  140.1350  155.1689 H   0  0  0  0  0  0  0  0  0  0  0  0
  148.6628  142.5571  156.6786 H   0  0  0  0  0  0  0  0  0  0  0  0
  148.1269  141.2863  157.7828 H   0  0  0  0  0  0  0  0  0  0  0  0
  150.1326  143.2939  158.2822 H   0  0  0  0  0  0  0  0  0  0  0  0
  149.8108  141.9138  159.3248 H   0  0  0  0  0  0  0  0  0  0  0  0
  152.2361  142.2377  157.9383 H   0  0  0  0  0  0  0  0  0  0  0  0
  151.5945  140.6827  158.4713 H   0  0  0  0  0  0  0  0  0  0  0  0
  151.1827  142.0242  155.7807 H   0  0  0  0  0  0  0  0  0  0  0  0
  152.9840  140.3072  155.7462 H   0  0  0  0  0  0  0  0  0  0  0  0
  151.9050  139.1120  156.4386 H   0  0  0  0  0  0  0  0  0  0  0  0
  147.1325  136.2919  152.9142 H   0  0  0  0  0  0  0  0  0  0  0  0
  144.8468  138.2128  155.1194 H   0  0  0  0  0  0  0  0  0  0  0  0
  142.3795  137.9620  155.0086 H   0  0  0  0  0  0  0  0  0  0  0  0
  141.4131  136.2218  153.4846 H   0  0  0  0  0  0  0  0  0  0  0  0
  147.1968  134.4168  152.8436 H   0  0  0  0  0  0  0  0  0  0  0  0
  145.8637  133.3683  153.3456 H   0  0  0  0  0  0  0  0  0  0  0  0
  147.3276  133.3537  150.6887 H   0  0  0  0  0  0  0  0  0  0  0  0
  146.9672  131.9694  151.7266 H   0  0  0  0  0  0  0  0  0  0  0  0
  145.3176  132.5042  149.6326 H   0  0  0  0  0  0  0  0  0  0  0  0
  144.6146  132.0919  151.1974 H   0  0  0  0  0  0  0  0  0  0  0  0
  143.5557  134.1715  150.9907 H   0  0  0  0  0  0  0  0  0  0  0  0
  144.8131  134.8009  149.9225 H   0  0  0  0  0  0  0  0  0  0  0  0
  149.6685  139.8568  156.9747 H   0  0  0  0  0  0  0  0  0  0  0  0
  1  2  2  0  0  0  0
  2  3  1  0  0  0  0
  2 14  1  0  0  0  0
  3  4  1  0  0  0  0
  3 26  1  0  0  0  0
  4  5  1  0  0  0  0
  4 27  1  0  0  0  0
  4 28  1  0  0  0  0
  5 13  1  0  0  0  0
  5  6  1  0  0  0  0
  5 29  1  0  0  0  0
  6  7  1  0  0  0  0
  6 30  1  0  0  0  0
  6 31  1  0  0  0  0
  7 11  1  0  0  0  0
  7  8  1  0  0  0  0
  7 53  1  0  0  0  0
  8  9  1  0  0  0  0
  8 32  1  0  0  0  0
  8 33  1  0  0  0  0
  9 10  1  0  0  0  0
  9 34  1  0  0  0  0
  9 35  1  0  0  0  0
 10 11  1  0  0  0  0
 10 36  1  0  0  0  0
 10 37  1  0  0  0  0
 11 12  1  0  0  0  0
 11 38  1  0  0  0  0
 12 13  1  0  0  0  0
 12 39  1  0  0  0  0
 12 40  1  0  0  0  0
 14 15  1  0  0  0  0
 14 41  1  0  0  0  0
 15 20  1  0  0  0  0
 15 16  2  0  0  0  0
 16 17  1  0  0  0  0
 16 42  1  0  0  0  0
 17 18  2  0  0  0  0
 17 43  1  0  0  0  0
 18 19  1  0  0  0  0
 18 44  1  0  0  0  0
 19 20  2  0  0  0  0
 20 21  1  0  0  0  0
 21 25  1  0  0  0  0
 21 22  1  0  0  0  0
 22 23  1  0  0  0  0
 22 45  1  0  0  0  0
 22 46  1  0  0  0  0
 23 24  1  0  0  0  0
 23 47  1  0  0  0  0
 23 48  1  0  0  0  0
 24 25  1  0  0  0  0
 24 49  1  0  0  0  0
 24 50  1  0  0  0  0
 25 51  1  0  0  0  0
 25 52  1  0  0  0  0
M  CHG  1   7   1
M  END
> <s_m_source_file>
AV-unprocessed.smi

> <i_m_source_file_index>
1830

> <i_lp_mmshare_version>
43012

> <i_f3d_flags>
0

> <s_epik_input>
W0NIMl0xW0NIMl1bQ0gyXVtDQEhdKE4xMilbQ0gyXU9bQ0BASF0oW0NIMl0yKVtDSDJdW05IXUMoPU8pW05IXWMzW2NIXVtjSF1bY0hdbmMzTjRbQ0gyXVtDSDJdW0NIMl1bQ0gyXTQ=

> <s_epik_cmdline>
J2VwaWtfcHl0aG9uJywgJy1waCcsICc3LjAnLCAnLXRuJywgJzgnLCAnLW1hJywgJzIwMCcsICctbWV0YWxfYmluZGluZycsICctaW1hZScsICc8aW5maWxlLm1hZT4nLCAnLW9tYWUnLCAnPG91dGZpbGUubWFlPic=

> <r_lp_tautomer_probability>
1

> <r_epik_Ionization_Penalty>
0.193547

> <r_epik_Ionization_Penalty_Charging>
0.10673

> <r_epik_Ionization_Penalty_Neutral>
0.0868166

> <r_epik_State_Penalty>
0.173595

> <r_epik_Charging_Adjusted_Penalty>
0.280326

> <i_epik_Tot_Q>
1

> <i_epik_Tot_abs_Q>
1

> <r_epik_Metal_State_Penalty>
0.164683

> <b_epik_Metal_Only>
0

> <s_lp_Force_Field>
OPLS_2005

> <r_lp_Energy>
66.0686

> <b_lp_Chiralities_Consistent>
1

> <s_lp_Variant>
AV-unprocessed.smi:1830-2

> <Gold.Version>
5.8.1

> <Gold.Id.Protein>
6NUR|6NUR_protein|mol2

> <Gold.PLP.Fitness>
42.0676

> <Gold.PLP.PLP>
-34.7161

> <Gold.PLP.part.hbond>
-3.0000

> <Gold.PLP.part.metal>
0.0000

> <Gold.PLP.part.buried>
-5.4249

> <Gold.PLP.part.nonpolar>
-27.0219

> <Gold.PLP.part.repulsive>
0.4892

> <Gold.PLP.ligand.clash>
0.0000

> <Gold.PLP.ligand.torsion>
0.8548

> <Gold.PLP.Chemscore.Hbond>
2.9120

> <Gold.PLP.Chemscore.CHOScore>
0.0000

> <Gold.PLP.Chemscore.Metal>
0.0000

> <Gold.Chemscore.Hbonds>
donor molecule, donor type, donor heavy atom, donor atom, acceptor molecule, acceptor atom, score
      L1  H     3    26       P1  7948  1.00
      L1  H    14    41       P1  7948  0.74
      P1  H  7989  7998       L1    13  0.98

> <Gold.PLP.Chemscore.Internal.Correction>
0.3250

> <Gold.Rescore>
     Score         DG    S(hbond)    S(metal)    S(lipo)     H(rot)  DE(clash)    DE(int)     intcor
     18.00     -20.37       2.77        0.00      78.88       1.41       0.09       2.29       ----

> <Gold.Chemscore.Fitness>
17.9956

> <Gold.Chemscore.DG>
-20.3699

> <Gold.Chemscore.ZeroCoef>
-5.4800

> <Gold.Chemscore.Hbond>
2.7730

> <Gold.Chemscore.Metal>
0.0000

> <Gold.Chemscore.Lipo>
78.8830

> <Gold.Chemscore.Internal_Hbond>
0.0000

> <Gold.Chemscore.DEClash>
0.0859

> <Gold.Chemscore.DEInternal>
2.2884

> <Gold.Chemscore.Rot>
1.4067

> <Gold.Chemscore.Internal.Correction>
   9.000000E+99

> <Gold.Chemscore.Hbonds>
donor molecule, donor type, donor heavy atom, donor atom, acceptor molecule, acceptor atom, score
      L1  H     3    26       P1  7948  0.99
      L1  H    14    41       P1  7948  0.72
      P1  H  7989  7998       L1    13  0.46

> <Gold.Chemscore.Hbond.Weighted>
-9.2617

> <Gold.Chemscore.Metal.Weighted>
-0.0000

> <Gold.Chemscore.Lipo.Weighted>
-9.2293

> <Gold.Chemscore.Internal_Hbond.Weighted>
0.0000

> <Gold.Chemscore.DEClash.Weighted>
0.0859

> <Gold.Chemscore.DEInternal.Weighted>
2.2884

> <Gold.Chemscore.Rot.Weighted>
3.6011

> <Gold.Chemscore.Internal.Correction.Weighted>
   9.000000E+99

> <Gold.Protein.RotatedTorsions>
[ 6907 6896 6895 6894 ] final   43.74 input  -60.11 | X-H torsion
[ 7974 7965 7964 7962 ] final  -34.59 input  175.53 | X-H torsion
[ 8008 7997 7996 7995 ] final  104.40 input   59.86 | X-H torsion
[ 10167 10162 10161 10158 ] final -133.71 input  -65.29 | X-H torsion
[ 10718 10713 10712 10709 ] final  -42.43 input   66.30 | X-H torsion
[ 10763 10752 10751 10750 ] final    1.31 input  -60.55 | X-H torsion
[ 11005 11000 10999 10996 ] final   66.48 input  -57.11 | X-H torsion

> <Gold.Protein.ActiveResidues>
 VAL166  LYS551  ARG553  GLY616  TRP617  ASP618  TYR619  PRO620  LYS621  CYS622 
 ASP623  PHE694  ASN695  SER759  ASP760  ASP761  ALA762  ILE779  LEU786  VAL792 
 PHE793  MET794  SER795  GLU796  ALA797  LYS798  CYS799  TRP800  GLU811  SER814 

> <Gold.Protein.RotatedAtoms>
  152.2240  134.8386  160.0482 H   0  0  0  0  0  0  0  0  0  0  0  0  # atno 6907 bound_to 6896
  151.9159  133.3568  159.3888 H   0  0  0  0  0  0  0  0  0  0  0  0  # atno 6908 bound_to 6896
  150.7007  134.4609  159.5424 H   0  0  0  0  0  0  0  0  0  0  0  0  # atno 6909 bound_to 6896
  146.0817  140.6057  142.8905 H   0  0  0  0  0  0  0  0  0  0  0  0  # atno 7974 bound_to 7965
  156.1569  140.3148  155.8742 H   0  0  0  0  0  0  0  0  0  0  0  0  # atno 8008 bound_to 7997
  155.3860  140.0490  157.3059 H   0  0  0  0  0  0  0  0  0  0  0  0  # atno 8009 bound_to 7997
  154.5110  140.2164  155.9168 H   0  0  0  0  0  0  0  0  0  0  0  0  # atno 8010 bound_to 7997
  139.8955  143.6671  152.2604 H   0  0  0  0  0  0  0  0  0  0  0  0  # atno 10167 bound_to 10162
  156.2597  130.4196  149.8556 H   0  0  0  0  0  0  0  0  0  0  0  0  # atno 10718 bound_to 10713
  153.3097  135.6962  153.7127 H   0  0  0  0  0  0  0  0  0  0  0  0  # atno 10763 bound_to 10752
  153.6009  135.3462  155.2946 H   0  0  0  0  0  0  0  0  0  0  0  0  # atno 10764 bound_to 10752
  154.8572  135.4340  154.2231 H   0  0  0  0  0  0  0  0  0  0  0  0  # atno 10765 bound_to 10752
  139.9829  134.6715  156.0229 H   0  0  0  0  0  0  0  0  0  0  0  0  # atno 11005 bound_to 11000
  144.7298  140.4635  143.6946 LP  0  0  0  0  0  0  0  0  0  0  0  0  # atno 17320 bound_to 7965
  145.6206  139.1523  143.3025 LP  0  0  0  0  0  0  0  0  0  0  0  0  # atno 17321 bound_to 7965
  139.7072  144.7626  151.1173 LP  0  0  0  0  0  0  0  0  0  0  0  0  # atno 17342 bound_to 10162
  140.7718  143.5379  150.9347 LP  0  0  0  0  0  0  0  0  0  0  0  0  # atno 17343 bound_to 10162
  156.6076  130.8573  151.3447 LP  0  0  0  0  0  0  0  0  0  0  0  0  # atno 17370 bound_to 10713
  157.7246  130.9604  150.1579 LP  0  0  0  0  0  0  0  0  0  0  0  0  # atno 17371 bound_to 10713
  141.1498  133.6550  156.3979 LP  0  0  0  0  0  0  0  0  0  0  0  0  # atno 17394 bound_to 11000
  140.5060  134.6440  157.5267 LP  0  0  0  0  0  0  0  0  0  0  0  0  # atno 17395 bound_to 11000

$$$$
