AV-unprocessed.smi:1786|AV-procd|sdf|7203|dock2
  -GOLD-   22720 8443D 1   1.00000     0.00000
 Structure written by MMmdl.
 44 45  0  0  0  0  0  0  0  0  2 V2000
  146.8868  131.8723  152.5440 C   0  0  0  0  0  0  0  0  0  0  0  0
  147.5193  133.1214  151.8928 C   0  0  1  0  0  0  0  0  0  0  0  0
  146.6765  133.6619  150.7184 C   0  0  0  0  0  0  0  0  0  0  0  0
  145.3972  134.3620  151.1996 C   0  0  0  0  0  0  0  0  0  0  0  0
  145.7468  135.4535  152.2184 C   0  0  0  0  0  0  0  0  0  0  0  0
  146.5858  134.8869  153.3754 C   0  0  0  0  0  0  0  0  0  0  0  0
  147.8132  134.2146  152.8678 N   0  3  1  0  0  0  0  0  0  0  0  0
  148.7633  133.8199  153.9394 C   0  0  0  0  0  0  0  0  0  0  0  0
  148.9491  134.9308  154.9901 C   0  0  0  0  0  0  0  0  0  0  0  0
  149.7737  136.0196  154.4796 N   0  0  0  0  0  0  0  0  0  0  0  0
  150.6988  136.6811  155.1914 C   0  0  0  0  0  0  0  0  0  0  0  0
  150.9282  136.4445  156.3782 O   0  0  0  0  0  0  0  0  0  0  0  0
  151.4573  137.7900  154.4481 C   0  0  0  0  0  0  0  0  0  0  0  0
  151.0960  139.1446  154.8977 N   0  0  0  0  0  0  0  0  0  0  0  0
  150.0030  139.7638  154.2590 C   0  0  0  0  0  0  0  0  0  0  0  0
  149.5913  140.9970  154.5928 C   0  0  0  0  0  0  0  0  0  0  0  0
  150.3016  141.6940  155.6387 C   0  0  0  0  0  0  0  0  0  0  0  0
  151.3458  141.1097  156.2591 C   0  0  0  0  0  0  0  0  0  0  0  0
  151.7974  139.7606  155.8993 C   0  0  0  0  0  0  0  0  0  0  0  0
  152.7473  139.2165  156.4633 O   0  0  0  0  0  0  0  0  0  0  0  0
  146.7139  131.0970  151.7973 H   0  0  0  0  0  0  0  0  0  0  0  0
  145.9275  132.0879  153.0130 H   0  0  0  0  0  0  0  0  0  0  0  0
  147.5364  131.4392  153.3042 H   0  0  0  0  0  0  0  0  0  0  0  0
  148.4751  132.8080  151.4701 H   0  0  0  0  0  0  0  0  0  0  0  0
  147.2748  134.3722  150.1462 H   0  0  0  0  0  0  0  0  0  0  0  0
  146.4253  132.8555  150.0284 H   0  0  0  0  0  0  0  0  0  0  0  0
  144.8660  134.7967  150.3522 H   0  0  0  0  0  0  0  0  0  0  0  0
  144.7181  133.6375  151.6496 H   0  0  0  0  0  0  0  0  0  0  0  0
  146.3011  136.2517  151.7227 H   0  0  0  0  0  0  0  0  0  0  0  0
  144.8342  135.9067  152.6066 H   0  0  0  0  0  0  0  0  0  0  0  0
  146.8537  135.7058  154.0423 H   0  0  0  0  0  0  0  0  0  0  0  0
  145.9930  134.1901  153.9688 H   0  0  0  0  0  0  0  0  0  0  0  0
  148.4308  132.8940  154.4109 H   0  0  0  0  0  0  0  0  0  0  0  0
  149.7344  133.6066  153.4904 H   0  0  0  0  0  0  0  0  0  0  0  0
  147.9806  135.3181  155.3121 H   0  0  0  0  0  0  0  0  0  0  0  0
  149.4399  134.5438  155.8822 H   0  0  0  0  0  0  0  0  0  0  0  0
  149.6447  136.2785  153.5118 H   0  0  0  0  0  0  0  0  0  0  0  0
  152.5322  137.6350  154.5606 H   0  0  0  0  0  0  0  0  0  0  0  0
  151.2635  137.6759  153.3808 H   0  0  0  0  0  0  0  0  0  0  0  0
  149.5222  139.1739  153.4923 H   0  0  0  0  0  0  0  0  0  0  0  0
  148.7489  141.4543  154.0948 H   0  0  0  0  0  0  0  0  0  0  0  0
  149.9936  142.6885  155.9260 H   0  0  0  0  0  0  0  0  0  0  0  0
  151.8644  141.6459  157.0402 H   0  0  0  0  0  0  0  0  0  0  0  0
  148.3027  134.9131  152.3266 H   0  0  0  0  0  0  0  0  0  0  0  0
  1  2  1  0  0  0  0
  1 21  1  0  0  0  0
  1 22  1  0  0  0  0
  1 23  1  0  0  0  0
  2  7  1  0  0  0  0
  2  3  1  0  0  0  0
  2 24  1  0  0  0  0
  3  4  1  0  0  0  0
  3 25  1  0  0  0  0
  3 26  1  0  0  0  0
  4  5  1  0  0  0  0
  4 27  1  0  0  0  0
  4 28  1  0  0  0  0
  5  6  1  0  0  0  0
  5 29  1  0  0  0  0
  5 30  1  0  0  0  0
  6  7  1  0  0  0  0
  6 31  1  0  0  0  0
  6 32  1  0  0  0  0
  7  8  1  0  0  0  0
  7 44  1  0  0  0  0
  8  9  1  0  0  0  0
  8 33  1  0  0  0  0
  8 34  1  0  0  0  0
  9 10  1  0  0  0  0
  9 35  1  0  0  0  0
  9 36  1  0  0  0  0
 10 11  1  0  0  0  0
 10 37  1  0  0  0  0
 11 12  2  0  0  0  0
 11 13  1  0  0  0  0
 13 14  1  0  0  0  0
 13 38  1  0  0  0  0
 13 39  1  0  0  0  0
 14 19  1  0  0  0  0
 14 15  1  0  0  0  0
 15 16  2  0  0  0  0
 15 40  1  0  0  0  0
 16 17  1  0  0  0  0
 16 41  1  0  0  0  0
 17 18  2  0  0  0  0
 17 42  1  0  0  0  0
 18 19  1  0  0  0  0
 18 43  1  0  0  0  0
 19 20  2  0  0  0  0
M  CHG  1   7   1
M  END
> <s_m_source_file>
AV-unprocessed.smi

> <i_m_source_file_index>
1786

> <i_lp_mmshare_version>
43012

> <i_f3d_flags>
0

> <s_epik_input>
W0NIM11bQ0BASF0xW0NIMl1bQ0gyXVtDSDJdW0NIMl1OMVtDSDJdW0NIMl1bTkhdQyg9TylbQ0gyXW4yW2NIXVtjSF1bY0hdW2NIXWMyPU8=

> <s_epik_cmdline>
J2VwaWtfcHl0aG9uJywgJy1waCcsICc3LjAnLCAnLXRuJywgJzgnLCAnLW1hJywgJzIwMCcsICctbWV0YWxfYmluZGluZycsICctaW1hZScsICc8aW5maWxlLm1hZT4nLCAnLW9tYWUnLCAnPG91dGZpbGUubWFlPic=

> <r_lp_tautomer_probability>
1

> <r_epik_Ionization_Penalty>
0.00237247

> <r_epik_Ionization_Penalty_Charging>
0.00237238

> <r_epik_Ionization_Penalty_Neutral>
8.2065e-08

> <r_epik_State_Penalty>
0.00163922

> <r_epik_Charging_Adjusted_Penalty>
0.0040116

> <i_epik_Tot_Q>
1

> <i_epik_Tot_abs_Q>
1

> <r_epik_Metal_State_Penalty>
-0

> <b_epik_Metal_Only>
0

> <s_lp_Force_Field>
OPLS_2005

> <r_lp_Energy>
28.482

> <b_lp_Chiralities_Consistent>
1

> <s_lp_Variant>
AV-unprocessed.smi:1786-2

> <Gold.Version>
5.8.1

> <Gold.Id.Protein>
6NUR|6NUR_protein|mol2

> <Gold.PLP.Fitness>
51.4407

> <Gold.PLP.PLP>
-38.7749

> <Gold.PLP.part.hbond>
-3.1231

> <Gold.PLP.part.metal>
0.0000

> <Gold.PLP.part.buried>
0.2780

> <Gold.PLP.part.nonpolar>
-33.5755

> <Gold.PLP.part.repulsive>
0.0516

> <Gold.PLP.ligand.clash>
0.0000

> <Gold.PLP.ligand.torsion>
0.7378

> <Gold.PLP.Chemscore.Hbond>
4.0000

> <Gold.PLP.Chemscore.CHOScore>
0.6816

> <Gold.PLP.Chemscore.Metal>
0.0000

> <Gold.Chemscore.Hbonds>
donor molecule, donor type, donor heavy atom, donor atom, acceptor molecule, acceptor atom, score
      L1  H     7    44       P1  7948  1.82
      L1  H    10    37       P1  7948  1.00
      P1  H  7997  8009       L1    20  1.00
      L1  C    15    40       P1  7957  0.75

> <Gold.PLP.Chemscore.Internal.Correction>
0.0965

> <Gold.Rescore>
     Score         DG    S(hbond)    S(metal)    S(lipo)     H(rot)  DE(clash)    DE(int)     intcor
     18.58     -18.98       2.97        0.00      71.22       1.86       0.04       0.36       ----

> <Gold.Chemscore.Fitness>
18.5831

> <Gold.Chemscore.DG>
-18.9828

> <Gold.Chemscore.ZeroCoef>
-5.4800

> <Gold.Chemscore.Hbond>
2.9726

> <Gold.Chemscore.Metal>
0.0000

> <Gold.Chemscore.Lipo>
71.2177

> <Gold.Chemscore.Internal_Hbond>
0.0000

> <Gold.Chemscore.DEClash>
0.0412

> <Gold.Chemscore.DEInternal>
0.3585

> <Gold.Chemscore.Rot>
1.8586

> <Gold.Chemscore.Internal.Correction>
   9.000000E+99

> <Gold.Chemscore.Hbonds>
donor molecule, donor type, donor heavy atom, donor atom, acceptor molecule, acceptor atom, score
      L1  H     7    44       P1  7948  0.30
      L1  H    10    37       P1  7948  0.39
      P1  H  7997  8009       L1    20  0.93

> <Gold.Chemscore.Hbond.Weighted>
-9.9284

> <Gold.Chemscore.Metal.Weighted>
-0.0000

> <Gold.Chemscore.Lipo.Weighted>
-8.3325

> <Gold.Chemscore.Internal_Hbond.Weighted>
0.0000

> <Gold.Chemscore.DEClash.Weighted>
0.0412

> <Gold.Chemscore.DEInternal.Weighted>
0.3585

> <Gold.Chemscore.Rot.Weighted>
4.7581

> <Gold.Chemscore.Internal.Correction.Weighted>
   9.000000E+99

> <Gold.Protein.RotatedTorsions>
[ 6907 6896 6895 6894 ] final   50.64 input  -60.11 | X-H torsion
[ 7974 7965 7964 7962 ] final  156.40 input  175.53 | X-H torsion
[ 8008 7997 7996 7995 ] final -166.57 input   59.86 | X-H torsion
[ 10167 10162 10161 10158 ] final  -18.52 input  -65.29 | X-H torsion
[ 10718 10713 10712 10709 ] final  159.14 input   66.30 | X-H torsion
[ 10763 10752 10751 10750 ] final  -56.99 input  -60.55 | X-H torsion
[ 11005 11000 10999 10996 ] final -151.57 input  -57.11 | X-H torsion

> <Gold.Protein.ActiveResidues>
 VAL166  LYS551  ARG553  GLY616  TRP617  ASP618  TYR619  PRO620  LYS621  CYS622 
 ASP623  PHE694  ASN695  SER759  ASP760  ASP761  ALA762  ILE779  LEU786  VAL792 
 PHE793  MET794  SER795  GLU796  ALA797  LYS798  CYS799  TRP800  GLU811  SER814 

> <Gold.Protein.RotatedAtoms>
  152.3040  134.7577  160.0351 H   0  0  0  0  0  0  0  0  0  0  0  0  # atno 6907 bound_to 6896
  151.8080  133.3373  159.3555 H   0  0  0  0  0  0  0  0  0  0  0  0  # atno 6908 bound_to 6896
  150.7287  134.5620  159.5891 H   0  0  0  0  0  0  0  0  0  0  0  0  # atno 6909 bound_to 6896
  144.7966  139.7198  143.6199 H   0  0  0  0  0  0  0  0  0  0  0  0  # atno 7974 bound_to 7965
  155.8657  140.0985  157.1584 H   0  0  0  0  0  0  0  0  0  0  0  0  # atno 8008 bound_to 7997
  154.3993  140.1356  156.4078 H   0  0  0  0  0  0  0  0  0  0  0  0  # atno 8009 bound_to 7997
  155.7807  140.3458  155.5298 H   0  0  0  0  0  0  0  0  0  0  0  0  # atno 8010 bound_to 7997
  140.7259  143.4908  150.9994 H   0  0  0  0  0  0  0  0  0  0  0  0  # atno 10167 bound_to 10162
  157.1683  131.0604  151.2196 H   0  0  0  0  0  0  0  0  0  0  0  0  # atno 10718 bound_to 10713
  154.2154  135.6387  153.5128 H   0  0  0  0  0  0  0  0  0  0  0  0  # atno 10763 bound_to 10752
  152.9980  135.5484  154.6171 H   0  0  0  0  0  0  0  0  0  0  0  0  # atno 10764 bound_to 10752
  154.5618  135.2909  155.0886 H   0  0  0  0  0  0  0  0  0  0  0  0  # atno 10765 bound_to 10752
  140.7281  134.3652  157.5171 H   0  0  0  0  0  0  0  0  0  0  0  0  # atno 11005 bound_to 11000
  146.2235  139.5680  142.9602 LP  0  0  0  0  0  0  0  0  0  0  0  0  # atno 17320 bound_to 7965
  145.5659  141.0399  143.2201 LP  0  0  0  0  0  0  0  0  0  0  0  0  # atno 17321 bound_to 7965
  139.8612  143.7312  152.3173 LP  0  0  0  0  0  0  0  0  0  0  0  0  # atno 17342 bound_to 10162
  139.7528  144.7529  151.0481 LP  0  0  0  0  0  0  0  0  0  0  0  0  # atno 17343 bound_to 10162
  157.4067  130.7363  149.6808 LP  0  0  0  0  0  0  0  0  0  0  0  0  # atno 17370 bound_to 10713
  155.9742  130.4106  150.3939 LP  0  0  0  0  0  0  0  0  0  0  0  0  # atno 17371 bound_to 10713
  139.8832  134.9000  156.2779 LP  0  0  0  0  0  0  0  0  0  0  0  0  # atno 17394 bound_to 11000
  140.9945  133.7189  156.0864 LP  0  0  0  0  0  0  0  0  0  0  0  0  # atno 17395 bound_to 11000

$$$$
