AV-unprocessed.smi:910|AV-procd|sdf|4129|dock3
  -GOLD-   22720 2 33D 1   1.00000     0.00000
 Structure written by MMmdl.
 47 48  0  0  0  0  0  0  0  0  2 V2000
  150.2653  132.8797  152.7151 C   0  0  0  0  0  0  0  0  0  0  0  0
  150.7885  133.8230  153.7520 C   0  0  0  0  0  0  0  0  0  0  0  0
  150.5922  135.1791  153.8570 N   0  3  0  0  0  0  0  0  0  0  0  0
  151.2350  135.6457  154.9284 C   0  0  0  0  0  0  0  0  0  0  0  0
  151.2825  136.9883  155.3810 N   0  0  0  0  0  0  0  0  0  0  0  0
  151.8152  137.4374  156.5294 C   0  0  0  0  0  0  0  0  0  0  0  0
  152.3639  136.7306  157.3757 O   0  0  0  0  0  0  0  0  0  0  0  0
  151.6690  138.7641  156.6532 N   0  0  0  0  0  0  0  0  0  0  0  0
  152.0798  139.5495  157.8127 C   0  0  0  0  0  0  0  0  0  0  0  0
  151.9009  141.0549  157.5675 C   0  0  0  0  0  0  0  0  0  0  0  0
  151.9770  141.7260  158.8162 O   0  0  0  0  0  0  0  0  0  0  0  0
  152.9430  142.7693  158.8765 C   0  0  1  0  0  0  0  0  0  0  0  0
  152.3320  144.1013  158.3932 C   0  0  0  0  0  0  0  0  0  0  0  0
  151.2076  144.5820  159.3251 C   0  0  0  0  0  0  0  0  0  0  0  0
  151.6977  144.6939  160.7768 C   0  0  0  0  0  0  0  0  0  0  0  0
  152.3050  143.3696  161.2670 C   0  0  0  0  0  0  0  0  0  0  0  0
  153.4354  142.8863  160.3361 C   0  0  1  0  0  0  0  0  0  0  0  0
  154.0692  141.5780  160.8355 C   0  0  0  0  0  0  0  0  0  0  0  0
  151.8751  134.6341  155.5712 O   0  0  0  0  0  0  0  0  0  0  0  0
  151.5901  133.5067  154.8267 C   0  0  0  0  0  0  0  0  0  0  0  0
  152.1696  132.2152  155.2965 C   0  0  0  0  0  0  0  0  0  0  0  0
  151.0652  132.5335  152.0604 H   0  0  0  0  0  0  0  0  0  0  0  0
  149.5098  133.3565  152.0903 H   0  0  0  0  0  0  0  0  0  0  0  0
  149.8086  132.0023  153.1734 H   0  0  0  0  0  0  0  0  0  0  0  0
  150.0357  135.7118  153.1995 H   0  0  0  0  0  0  0  0  0  0  0  0
  151.2063  139.2681  155.9105 H   0  0  0  0  0  0  0  0  0  0  0  0
  151.5166  139.2388  158.6940 H   0  0  0  0  0  0  0  0  0  0  0  0
  153.1278  139.3314  158.0196 H   0  0  0  0  0  0  0  0  0  0  0  0
  152.6734  141.4204  156.8894 H   0  0  0  0  0  0  0  0  0  0  0  0
  150.9377  141.2392  157.0921 H   0  0  0  0  0  0  0  0  0  0  0  0
  153.7993  142.5163  158.2489 H   0  0  0  0  0  0  0  0  0  0  0  0
  153.1143  144.8606  158.3576 H   0  0  0  0  0  0  0  0  0  0  0  0
  151.9581  144.0104  157.3739 H   0  0  0  0  0  0  0  0  0  0  0  0
  150.8316  145.5474  158.9854 H   0  0  0  0  0  0  0  0  0  0  0  0
  150.3672  143.8888  159.2743 H   0  0  0  0  0  0  0  0  0  0  0  0
  152.4438  145.4864  160.8496 H   0  0  0  0  0  0  0  0  0  0  0  0
  150.8719  144.9869  161.4258 H   0  0  0  0  0  0  0  0  0  0  0  0
  152.6865  143.4983  162.2804 H   0  0  0  0  0  0  0  0  0  0  0  0
  151.5236  142.6109  161.3275 H   0  0  0  0  0  0  0  0  0  0  0  0
  154.2192  143.6449  160.3552 H   0  0  0  0  0  0  0  0  0  0  0  0
  153.3403  140.7676  160.8698 H   0  0  0  0  0  0  0  0  0  0  0  0
  154.4768  141.6994  161.8394 H   0  0  0  0  0  0  0  0  0  0  0  0
  154.8855  141.2640  160.1845 H   0  0  0  0  0  0  0  0  0  0  0  0
  151.4167  131.6202  155.8135 H   0  0  0  0  0  0  0  0  0  0  0  0
  152.9985  132.3839  155.9842 H   0  0  0  0  0  0  0  0  0  0  0  0
  152.5441  131.6302  154.4564 H   0  0  0  0  0  0  0  0  0  0  0  0
  150.8580  137.6741  154.7741 H   0  0  0  0  0  0  0  0  0  0  0  0
  1 22  1  0  0  0  0
  1 23  1  0  0  0  0
  1 24  1  0  0  0  0
  1  2  1  0  0  0  0
  2  3  1  0  0  0  0
  2 20  2  0  0  0  0
  3 25  1  0  0  0  0
  3  4  2  0  0  0  0
  4 19  1  0  0  0  0
  4  5  1  0  0  0  0
  5  6  1  0  0  0  0
  5 47  1  0  0  0  0
  6  8  1  0  0  0  0
  6  7  2  0  0  0  0
  8  9  1  0  0  0  0
  8 26  1  0  0  0  0
  9 10  1  0  0  0  0
  9 27  1  0  0  0  0
  9 28  1  0  0  0  0
 10 11  1  0  0  0  0
 10 29  1  0  0  0  0
 10 30  1  0  0  0  0
 11 12  1  0  0  0  0
 12 17  1  0  0  0  0
 12 13  1  0  0  0  0
 12 31  1  0  0  0  0
 13 14  1  0  0  0  0
 13 32  1  0  0  0  0
 13 33  1  0  0  0  0
 14 15  1  0  0  0  0
 14 34  1  0  0  0  0
 14 35  1  0  0  0  0
 15 16  1  0  0  0  0
 15 36  1  0  0  0  0
 15 37  1  0  0  0  0
 16 17  1  0  0  0  0
 16 38  1  0  0  0  0
 16 39  1  0  0  0  0
 17 18  1  0  0  0  0
 17 40  1  0  0  0  0
 18 41  1  0  0  0  0
 18 42  1  0  0  0  0
 18 43  1  0  0  0  0
 19 20  1  0  0  0  0
 20 21  1  0  0  0  0
 21 44  1  0  0  0  0
 21 45  1  0  0  0  0
 21 46  1  0  0  0  0
M  CHG  1   3   1
M  END
> <s_m_source_file>
AV-unprocessed.smi

> <i_m_source_file_index>
910

> <i_lp_mmshare_version>
43012

> <i_f3d_flags>
0

> <s_epik_input>
W0NIM11jMW5jKG9jMVtDSDNdKVtOSF1DKD1PKVtOSF1bQ0gyXVtDSDJdT1tDQEBIXTJbQ0gyXVtDSDJdW0NIMl1bQ0gyXVtDQEhdMltDSDNd

> <s_epik_cmdline>
J2VwaWtfcHl0aG9uJywgJy1waCcsICc3LjAnLCAnLXRuJywgJzgnLCAnLW1hJywgJzIwMCcsICctbWV0YWxfYmluZGluZycsICctaW1hZScsICc8aW5maWxlLm1hZT4nLCAnLW9tYWUnLCAnPG91dGZpbGUubWFlPic=

> <r_epik_Ionization_Penalty>
7.32931

> <r_epik_Ionization_Penalty_Charging>
7.12214

> <r_epik_Ionization_Penalty_Neutral>
0.207166

> <r_epik_State_Penalty>
2.61278

> <r_epik_Charging_Adjusted_Penalty>
9.73492

> <i_epik_Tot_Q>
1

> <i_epik_Tot_abs_Q>
1

> <r_epik_Metal_State_Penalty>
2.64585

> <b_epik_Metal_Only>
0

> <s_lp_Force_Field>
OPLS_2005

> <r_lp_Energy>
17.2334

> <b_lp_Chiralities_Consistent>
1

> <s_lp_Variant>
AV-unprocessed.smi:910-14

> <Gold.Version>
5.8.1

> <Gold.Id.Protein>
6NUR|6NUR_protein|mol2

> <Gold.PLP.Fitness>
49.7456

> <Gold.PLP.PLP>
-45.2414

> <Gold.PLP.part.hbond>
-1.3445

> <Gold.PLP.part.metal>
0.0000

> <Gold.PLP.part.buried>
-6.2359

> <Gold.PLP.part.nonpolar>
-37.5750

> <Gold.PLP.part.repulsive>
0.1000

> <Gold.PLP.ligand.clash>
0.0000

> <Gold.PLP.ligand.torsion>
0.7948

> <Gold.PLP.Chemscore.Hbond>
2.0000

> <Gold.PLP.Chemscore.CHOScore>
0.0000

> <Gold.PLP.Chemscore.Metal>
0.0000

> <Gold.Chemscore.Hbonds>
donor molecule, donor type, donor heavy atom, donor atom, acceptor molecule, acceptor atom, score
      L1  H     3    25       P1  7948  0.20
      P1  H 10752 10764       L1    19  0.13

> <Gold.PLP.Chemscore.Internal.Correction>
0.0939

> <Gold.Rescore>
     Score         DG    S(hbond)    S(metal)    S(lipo)     H(rot)  DE(clash)    DE(int)     intcor
     17.11     -19.32       1.72        0.00     106.20       1.69       0.00       2.20       ----

> <Gold.Chemscore.Fitness>
17.1127

> <Gold.Chemscore.DG>
-19.3157

> <Gold.Chemscore.ZeroCoef>
-5.4800

> <Gold.Chemscore.Hbond>
1.7212

> <Gold.Chemscore.Metal>
0.0000

> <Gold.Chemscore.Lipo>
106.2044

> <Gold.Chemscore.Internal_Hbond>
0.0000

> <Gold.Chemscore.DEClash>
0.0000

> <Gold.Chemscore.DEInternal>
2.2030

> <Gold.Chemscore.Rot>
1.6949

> <Gold.Chemscore.Internal.Correction>
   9.000000E+99

> <Gold.Chemscore.Hbonds>
donor molecule, donor type, donor heavy atom, donor atom, acceptor molecule, acceptor atom, score
      P1  H 10752 10764       L1    19  0.02

> <Gold.Chemscore.Hbond.Weighted>
-5.7488

> <Gold.Chemscore.Metal.Weighted>
-0.0000

> <Gold.Chemscore.Lipo.Weighted>
-12.4259

> <Gold.Chemscore.Internal_Hbond.Weighted>
0.0000

> <Gold.Chemscore.DEClash.Weighted>
0.0000

> <Gold.Chemscore.DEInternal.Weighted>
2.2030

> <Gold.Chemscore.Rot.Weighted>
4.3390

> <Gold.Chemscore.Internal.Correction.Weighted>
   9.000000E+99

> <Gold.Protein.RotatedTorsions>
[ 6907 6896 6895 6894 ] final  -58.76 input  -60.11 | X-H torsion
[ 7974 7965 7964 7962 ] final -134.60 input  175.53 | X-H torsion
[ 8008 7997 7996 7995 ] final  -73.97 input   59.86 | X-H torsion
[ 10167 10162 10161 10158 ] final  112.71 input  -65.29 | X-H torsion
[ 10718 10713 10712 10709 ] final  173.26 input   66.30 | X-H torsion
[ 10763 10752 10751 10750 ] final    2.17 input  -60.55 | X-H torsion
[ 11005 11000 10999 10996 ] final  -73.57 input  -57.11 | X-H torsion

> <Gold.Protein.ActiveResidues>
 VAL166  LYS551  ARG553  GLY616  TRP617  ASP618  TYR619  PRO620  LYS621  CYS622 
 ASP623  PHE694  ASN695  SER759  ASP760  ASP761  ALA762  ILE779  LEU786  VAL792 
 PHE793  MET794  SER795  GLU796  ALA797  LYS798  CYS799  TRP800  GLU811  SER814 

> <Gold.Protein.RotatedAtoms>
  150.7982  134.7057  159.6574 H   0  0  0  0  0  0  0  0  0  0  0  0  # atno 6907 bound_to 6896
  152.4096  134.6144  160.0044 H   0  0  0  0  0  0  0  0  0  0  0  0  # atno 6908 bound_to 6896
  151.6390  133.3290  159.3162 H   0  0  0  0  0  0  0  0  0  0  0  0  # atno 6909 bound_to 6896
  144.9089  140.6869  143.5038 H   0  0  0  0  0  0  0  0  0  0  0  0  # atno 7974 bound_to 7965
  154.5291  140.0770  156.8313 H   0  0  0  0  0  0  0  0  0  0  0  0  # atno 8008 bound_to 7997
  155.3412  140.3407  155.4221 H   0  0  0  0  0  0  0  0  0  0  0  0  # atno 8009 bound_to 7997
  156.1763  140.1636  156.8344 H   0  0  0  0  0  0  0  0  0  0  0  0  # atno 8010 bound_to 7997
  139.6515  144.7128  151.2038 H   0  0  0  0  0  0  0  0  0  0  0  0  # atno 10167 bound_to 10162
  156.9668  131.0078  151.2914 H   0  0  0  0  0  0  0  0  0  0  0  0  # atno 10718 bound_to 10713
  153.2989  135.6954  153.7222 H   0  0  0  0  0  0  0  0  0  0  0  0  # atno 10763 bound_to 10752
  153.6144  135.3438  155.2990 H   0  0  0  0  0  0  0  0  0  0  0  0  # atno 10764 bound_to 10752
  154.8545  135.4371  154.2094 H   0  0  0  0  0  0  0  0  0  0  0  0  # atno 10765 bound_to 10752
  141.1624  133.6882  156.7232 H   0  0  0  0  0  0  0  0  0  0  0  0  # atno 11005 bound_to 11000
  145.3489  139.1711  143.4445 LP  0  0  0  0  0  0  0  0  0  0  0  0  # atno 17320 bound_to 7965
  146.3148  140.3538  142.8658 LP  0  0  0  0  0  0  0  0  0  0  0  0  # atno 17321 bound_to 7965
  140.7540  143.6142  150.8576 LP  0  0  0  0  0  0  0  0  0  0  0  0  # atno 17342 bound_to 10162
  139.9790  143.5972  152.2949 LP  0  0  0  0  0  0  0  0  0  0  0  0  # atno 17343 bound_to 10162
  157.5620  130.8252  149.8278 LP  0  0  0  0  0  0  0  0  0  0  0  0  # atno 17370 bound_to 10713
  156.0299  130.3768  150.1717 LP  0  0  0  0  0  0  0  0  0  0  0  0  # atno 17371 bound_to 10713
  140.2800  134.8324  157.3925 LP  0  0  0  0  0  0  0  0  0  0  0  0  # atno 17394 bound_to 11000
  140.1442  134.4933  155.8009 LP  0  0  0  0  0  0  0  0  0  0  0  0  # atno 17395 bound_to 11000

$$$$
