AV-unprocessed.smi:1845|AV-procd|sdf|7512|dock1
  -GOLD-   22720 9213D 1   1.00000     0.00000
 Structure written by MMmdl.
 45 46  0  0  0  0  0  0  0  0  1 V2000
  160.9067  145.8913  162.2679 C   0  0  0  0  0  0  0  0  0  0  0  0
  159.8938  144.6009  161.4336 S   0  0  0  0  0  0  0  0  0  0  0  0
  158.9381  145.2738  160.5414 O   0  0  0  0  0  0  0  0  0  0  0  0
  160.7896  143.5573  160.9120 O   0  0  0  0  0  0  0  0  0  0  0  0
  158.9879  143.9158  162.7315 N   0  0  0  0  0  0  0  0  0  0  0  0
  159.6727  143.2275  163.8298 C   0  0  0  0  0  0  0  0  0  0  0  0
  159.8415  141.7201  163.5531 C   0  0  0  0  0  0  0  0  0  0  0  0
  158.5068  140.9717  163.4863 C   0  0  0  0  0  0  0  0  0  0  0  0
  158.0021  140.5157  164.5124 O   0  0  0  0  0  0  0  0  0  0  0  0
  157.9564  140.8414  162.2690 N   0  0  0  0  0  0  0  0  0  0  0  0
  156.7598  140.0662  161.9571 C   0  0  0  0  0  0  0  0  0  0  0  0
  155.6433  140.9280  161.3911 C   0  0  0  0  0  0  0  0  0  0  0  0
  155.7636  142.3305  161.3391 C   0  0  0  0  0  0  0  0  0  0  0  0
  154.7134  143.0856  160.7822 C   0  0  0  0  0  0  0  0  0  0  0  0
  153.5666  142.4171  160.2906 C   0  0  0  0  0  0  0  0  0  0  0  0
  152.5088  143.1505  159.7120 N   0  0  0  0  0  0  0  0  0  0  0  0
  152.0149  142.6481  158.4325 C   0  0  0  0  0  0  0  0  0  0  0  0
  150.6864  143.3326  158.0664 C   0  0  0  0  0  0  0  0  0  0  0  0
  150.8506  144.7469  158.0822 O   0  0  0  0  0  0  0  0  0  0  0  0
  151.2202  145.2218  159.3721 C   0  0  0  0  0  0  0  0  0  0  0  0
  152.5708  144.6096  159.7788 C   0  0  0  0  0  0  0  0  0  0  0  0
  153.4532  141.0675  160.3489 N   0  0  0  0  0  0  0  0  0  0  0  0
  154.4592  140.3501  160.8893 C   0  0  0  0  0  0  0  0  0  0  0  0
  161.5192  146.4035  161.5261 H   0  0  0  0  0  0  0  0  0  0  0  0
  161.5558  145.4358  163.0146 H   0  0  0  0  0  0  0  0  0  0  0  0
  160.2491  146.6146  162.7487 H   0  0  0  0  0  0  0  0  0  0  0  0
  158.1873  144.4815  163.0148 H   0  0  0  0  0  0  0  0  0  0  0  0
  160.6457  143.6946  163.9826 H   0  0  0  0  0  0  0  0  0  0  0  0
  159.1099  143.3691  164.7527 H   0  0  0  0  0  0  0  0  0  0  0  0
  160.3706  141.5737  162.6106 H   0  0  0  0  0  0  0  0  0  0  0  0
  160.4701  141.2760  164.3264 H   0  0  0  0  0  0  0  0  0  0  0  0
  158.4359  141.2658  161.4879 H   0  0  0  0  0  0  0  0  0  0  0  0
  156.9838  139.2630  161.2533 H   0  0  0  0  0  0  0  0  0  0  0  0
  156.4215  139.5824  162.8737 H   0  0  0  0  0  0  0  0  0  0  0  0
  156.6504  142.8243  161.7085 H   0  0  0  0  0  0  0  0  0  0  0  0
  154.8081  144.1594  160.7196 H   0  0  0  0  0  0  0  0  0  0  0  0
  152.7620  142.8501  157.6639 H   0  0  0  0  0  0  0  0  0  0  0  0
  151.8649  141.5698  158.4529 H   0  0  0  0  0  0  0  0  0  0  0  0
  150.3673  143.0238  157.0709 H   0  0  0  0  0  0  0  0  0  0  0  0
  149.8955  143.0399  158.7586 H   0  0  0  0  0  0  0  0  0  0  0  0
  151.2938  146.3088  159.3435 H   0  0  0  0  0  0  0  0  0  0  0  0
  150.4453  144.9742  160.0994 H   0  0  0  0  0  0  0  0  0  0  0  0
  152.8234  144.9314  160.7899 H   0  0  0  0  0  0  0  0  0  0  0  0
  153.3583  144.9688  159.1151 H   0  0  0  0  0  0  0  0  0  0  0  0
  154.3126  139.2810  160.9125 H   0  0  0  0  0  0  0  0  0  0  0  0
  1  2  1  0  0  0  0
  1 24  1  0  0  0  0
  1 25  1  0  0  0  0
  1 26  1  0  0  0  0
  2  3  2  0  0  0  0
  2  4  2  0  0  0  0
  2  5  1  0  0  0  0
  5  6  1  0  0  0  0
  5 27  1  0  0  0  0
  6  7  1  0  0  0  0
  6 28  1  0  0  0  0
  6 29  1  0  0  0  0
  7  8  1  0  0  0  0
  7 30  1  0  0  0  0
  7 31  1  0  0  0  0
  8  9  2  0  0  0  0
  8 10  1  0  0  0  0
 10 11  1  0  0  0  0
 10 32  1  0  0  0  0
 11 12  1  0  0  0  0
 11 33  1  0  0  0  0
 11 34  1  0  0  0  0
 12 23  1  0  0  0  0
 12 13  2  0  0  0  0
 13 14  1  0  0  0  0
 13 35  1  0  0  0  0
 14 15  2  0  0  0  0
 14 36  1  0  0  0  0
 15 16  1  0  0  0  0
 15 22  1  0  0  0  0
 16 21  1  0  0  0  0
 16 17  1  0  0  0  0
 17 18  1  0  0  0  0
 17 37  1  0  0  0  0
 17 38  1  0  0  0  0
 18 19  1  0  0  0  0
 18 39  1  0  0  0  0
 18 40  1  0  0  0  0
 19 20  1  0  0  0  0
 20 21  1  0  0  0  0
 20 41  1  0  0  0  0
 20 42  1  0  0  0  0
 21 43  1  0  0  0  0
 21 44  1  0  0  0  0
 22 23  2  0  0  0  0
 23 45  1  0  0  0  0
M  END
> <s_m_source_file>
AV-unprocessed.smi

> <i_m_source_file_index>
1845

> <i_lp_mmshare_version>
43012

> <i_f3d_flags>
0

> <s_epik_input>
W0NIM11TKD1PKSg9TylbTkhdW0NIMl1bQ0gyXUMoPU8pW05IXVtDSDJdYzFbY0hdW2NIXWMobltjSF0xKU4yW0NIMl1bQ0gyXU9bQ0gyXVtDSDJdMg==

> <s_epik_cmdline>
J2VwaWtfcHl0aG9uJywgJy1waCcsICc3LjAnLCAnLXRuJywgJzgnLCAnLW1hJywgJzIwMCcsICctbWV0YWxfYmluZGluZycsICctaW1hZScsICc8aW5maWxlLm1hZT4nLCAnLW9tYWUnLCAnPG91dGZpbGUubWFlPic=

> <r_lp_tautomer_probability>
1

> <r_epik_Ionization_Penalty>
0.00479915

> <r_epik_Ionization_Penalty_Charging>
0

> <r_epik_Ionization_Penalty_Neutral>
0.00479915

> <r_epik_State_Penalty>
0.00346804

> <r_epik_Charging_Adjusted_Penalty>
0.00346804

> <i_epik_Tot_Q>
0

> <i_epik_Tot_abs_Q>
0

> <r_epik_Metal_State_Penalty>
0.0135183

> <b_epik_Metal_Only>
0

> <s_lp_Force_Field>
OPLS_2005

> <r_lp_Energy>
4.60417

> <b_lp_Chiralities_Consistent>
1

> <s_lp_Variant>
AV-unprocessed.smi:1845-1

> <Gold.Version>
5.8.1

> <Gold.Id.Protein>
6NUR|6NUR_protein|mol2

> <Gold.PLP.Fitness>
46.8189

> <Gold.PLP.PLP>
-47.8216

> <Gold.PLP.part.hbond>
-1.8556

> <Gold.PLP.part.metal>
0.0000

> <Gold.PLP.part.buried>
-6.2861

> <Gold.PLP.part.nonpolar>
-39.6323

> <Gold.PLP.part.repulsive>
0.3522

> <Gold.PLP.ligand.clash>
0.0000

> <Gold.PLP.ligand.torsion>
0.8305

> <Gold.PLP.Chemscore.Hbond>
0.0000

> <Gold.PLP.Chemscore.CHOScore>
0.0000

> <Gold.PLP.Chemscore.Metal>
0.0000

> <Gold.PLP.Chemscore.Internal.Correction>
0.6582

> <Gold.Rescore>
     Score         DG    S(hbond)    S(metal)    S(lipo)     H(rot)  DE(clash)    DE(int)     intcor
      9.23     -10.20       0.00        0.00     103.82       2.90       0.18       0.79       ----

> <Gold.Chemscore.Fitness>
9.2258

> <Gold.Chemscore.DG>
-10.1990

> <Gold.Chemscore.ZeroCoef>
-5.4800

> <Gold.Chemscore.Hbond>
0.0000

> <Gold.Chemscore.Metal>
0.0000

> <Gold.Chemscore.Lipo>
103.8189

> <Gold.Chemscore.Internal_Hbond>
0.0000

> <Gold.Chemscore.DEClash>
0.1788

> <Gold.Chemscore.DEInternal>
0.7943

> <Gold.Chemscore.Rot>
2.9015

> <Gold.Chemscore.Internal.Correction>
   9.000000E+99

> <Gold.Chemscore.Hbond.Weighted>
-0.0000

> <Gold.Chemscore.Metal.Weighted>
-0.0000

> <Gold.Chemscore.Lipo.Weighted>
-12.1468

> <Gold.Chemscore.Internal_Hbond.Weighted>
0.0000

> <Gold.Chemscore.DEClash.Weighted>
0.1788

> <Gold.Chemscore.DEInternal.Weighted>
0.7943

> <Gold.Chemscore.Rot.Weighted>
7.4278

> <Gold.Chemscore.Internal.Correction.Weighted>
   9.000000E+99

> <Gold.Protein.RotatedTorsions>
[ 6907 6896 6895 6894 ] final  -55.56 input  -60.11 | X-H torsion
[ 7974 7965 7964 7962 ] final   25.94 input  175.53 | X-H torsion
[ 8008 7997 7996 7995 ] final  167.74 input   59.86 | X-H torsion
[ 10167 10162 10161 10158 ] final  152.27 input  -65.29 | X-H torsion
[ 10718 10713 10712 10709 ] final   13.60 input   66.30 | X-H torsion
[ 10763 10752 10751 10750 ] final  -29.29 input  -60.55 | X-H torsion
[ 11005 11000 10999 10996 ] final  143.37 input  -57.11 | X-H torsion

> <Gold.Protein.ActiveResidues>
 VAL166  LYS551  ARG553  GLY616  TRP617  ASP618  TYR619  PRO620  LYS621  CYS622 
 ASP623  PHE694  ASN695  SER759  ASP760  ASP761  ALA762  ILE779  LEU786  VAL792 
 PHE793  MET794  SER795  GLU796  ALA797  LYS798  CYS799  TRP800  GLU811  SER814 

> <Gold.Protein.RotatedAtoms>
  150.8242  134.7464  159.6797 H   0  0  0  0  0  0  0  0  0  0  0  0  # atno 6907 bound_to 6896
  152.4354  134.5693  159.9926 H   0  0  0  0  0  0  0  0  0  0  0  0  # atno 6908 bound_to 6896
  151.5869  133.3333  159.3056 H   0  0  0  0  0  0  0  0  0  0  0  0  # atno 6909 bound_to 6896
  146.1863  139.7396  142.8864 H   0  0  0  0  0  0  0  0  0  0  0  0  # atno 7974 bound_to 7965
  156.1608  140.1609  156.8616 H   0  0  0  0  0  0  0  0  0  0  0  0  # atno 8008 bound_to 7997
  154.5159  140.0790  156.8115 H   0  0  0  0  0  0  0  0  0  0  0  0  # atno 8009 bound_to 7997
  155.3711  140.3400  155.4245 H   0  0  0  0  0  0  0  0  0  0  0  0  # atno 8010 bound_to 7997
  139.4834  144.5372  151.7626 H   0  0  0  0  0  0  0  0  0  0  0  0  # atno 10167 bound_to 10162
  157.0270  130.6177  149.5729 H   0  0  0  0  0  0  0  0  0  0  0  0  # atno 10718 bound_to 10713
  153.7623  135.6918  153.4923 H   0  0  0  0  0  0  0  0  0  0  0  0  # atno 10763 bound_to 10752
  153.1930  135.4464  155.0172 H   0  0  0  0  0  0  0  0  0  0  0  0  # atno 10764 bound_to 10752
  154.8148  135.3394  154.7137 H   0  0  0  0  0  0  0  0  0  0  0  0  # atno 10765 bound_to 10752
  140.0549  134.9236  157.1082 H   0  0  0  0  0  0  0  0  0  0  0  0  # atno 11005 bound_to 11000
  145.3929  141.0375  143.3114 LP  0  0  0  0  0  0  0  0  0  0  0  0  # atno 17320 bound_to 7965
  144.8403  139.5483  143.6903 LP  0  0  0  0  0  0  0  0  0  0  0  0  # atno 17321 bound_to 7965
  140.4906  144.1316  150.5949 LP  0  0  0  0  0  0  0  0  0  0  0  0  # atno 17342 bound_to 10162
  140.4175  143.2627  151.9756 LP  0  0  0  0  0  0  0  0  0  0  0  0  # atno 17343 bound_to 10162
  156.0083  130.5172  150.7903 LP  0  0  0  0  0  0  0  0  0  0  0  0  # atno 17370 bound_to 10713
  157.5207  131.0931  151.0082 LP  0  0  0  0  0  0  0  0  0  0  0  0  # atno 17371 bound_to 10713
  140.3860  134.2236  155.7168 LP  0  0  0  0  0  0  0  0  0  0  0  0  # atno 17394 bound_to 11000
  141.1947  133.8122  157.0745 LP  0  0  0  0  0  0  0  0  0  0  0  0  # atno 17395 bound_to 11000

$$$$
