AV-unprocessed.smi:693|AV-procd|sdf|3374|dock1
  -GOLD-   22720 0353D 1   1.00000     0.00000
 Structure written by MMmdl.
 47 48  0  0  0  0  0  0  0  0  2 V2000
  143.6325  131.8419  150.6391 C   0  0  0  0  0  0  0  0  0  0  0  0
  144.2889  133.1549  151.0091 C   0  0  0  0  0  0  0  0  0  0  0  0
  145.5744  133.2177  151.5884 C   0  0  0  0  0  0  0  0  0  0  0  0
  146.1238  134.4761  151.9108 C   0  0  0  0  0  0  0  0  0  0  0  0
  145.3768  135.6456  151.6489 C   0  0  0  0  0  0  0  0  0  0  0  0
  145.9382  137.0137  151.9822 C   0  0  0  0  0  0  0  0  0  0  0  0
  146.3996  137.1102  153.4458 C   0  0  0  0  0  0  0  0  0  0  0  0
  147.6997  137.7606  153.5561 N   0  0  0  0  0  0  0  0  0  0  0  0
  147.9496  138.8887  154.2428 C   0  0  0  0  0  0  0  0  0  0  0  0
  147.0620  139.4962  154.8439 O   0  0  0  0  0  0  0  0  0  0  0  0
  149.2403  139.3068  154.1988 N   0  0  0  0  0  0  0  0  0  0  0  0
  150.4182  138.4639  153.9376 C   0  0  0  0  0  0  0  0  0  0  0  0
  151.1440  138.2213  155.2706 C   0  0  0  0  0  0  0  0  0  0  0  0
  151.5288  139.5549  155.9392 C   0  0  0  0  0  0  0  0  0  0  0  0
  150.3346  140.5399  156.0276 C   0  0  1  0  0  0  0  0  0  0  0  0
  150.7341  141.9423  156.5422 C   0  0  0  0  0  0  0  0  0  0  0  0
  151.4709  141.9261  157.8858 C   0  0  0  0  0  0  0  0  0  0  0  0
  151.8829  143.1018  158.3664 N   0  0  0  0  0  0  0  0  0  0  0  0
  151.6870  140.8681  158.4727 O   0  0  0  0  0  0  0  0  0  0  0  0
  149.6403  140.6457  154.6504 C   0  0  0  0  0  0  0  0  0  0  0  0
  144.0968  135.5215  151.0676 C   0  0  0  0  0  0  0  0  0  0  0  0
  143.6059  134.2977  150.7731 N   0  3  0  0  0  0  0  0  0  0  0  0
  144.3495  131.0212  150.6796 H   0  0  0  0  0  0  0  0  0  0  0  0
  143.2258  131.8867  149.6283 H   0  0  0  0  0  0  0  0  0  0  0  0
  142.8188  131.6189  151.3293 H   0  0  0  0  0  0  0  0  0  0  0  0
  146.1343  132.3147  151.7850 H   0  0  0  0  0  0  0  0  0  0  0  0
  147.1071  134.5399  152.3536 H   0  0  0  0  0  0  0  0  0  0  0  0
  146.7702  137.2208  151.3078 H   0  0  0  0  0  0  0  0  0  0  0  0
  145.1816  137.7725  151.7772 H   0  0  0  0  0  0  0  0  0  0  0  0
  145.6822  137.6926  154.0245 H   0  0  0  0  0  0  0  0  0  0  0  0
  146.4388  136.1204  153.9039 H   0  0  0  0  0  0  0  0  0  0  0  0
  148.4725  137.3212  153.0774 H   0  0  0  0  0  0  0  0  0  0  0  0
  150.1874  137.5112  153.4611 H   0  0  0  0  0  0  0  0  0  0  0  0
  151.0820  138.9790  153.2415 H   0  0  0  0  0  0  0  0  0  0  0  0
  150.4981  137.6496  155.9385 H   0  0  0  0  0  0  0  0  0  0  0  0
  152.0358  137.6156  155.1085 H   0  0  0  0  0  0  0  0  0  0  0  0
  151.9366  139.3485  156.9283 H   0  0  0  0  0  0  0  0  0  0  0  0
  152.3333  140.0173  155.3655 H   0  0  0  0  0  0  0  0  0  0  0  0
  149.6073  140.1217  156.7261 H   0  0  0  0  0  0  0  0  0  0  0  0
  151.3651  142.4424  155.8064 H   0  0  0  0  0  0  0  0  0  0  0  0
  149.8427  142.5633  156.6422 H   0  0  0  0  0  0  0  0  0  0  0  0
  152.3737  143.1425  159.2478 H   0  0  0  0  0  0  0  0  0  0  0  0
  151.7024  143.9472  157.8448 H   0  0  0  0  0  0  0  0  0  0  0  0
  150.3197  141.0856  153.9188 H   0  0  0  0  0  0  0  0  0  0  0  0
  148.7923  141.3301  154.7063 H   0  0  0  0  0  0  0  0  0  0  0  0
  143.4558  136.3582  150.8300 H   0  0  0  0  0  0  0  0  0  0  0  0
  142.6777  134.2332  150.3540 H   0  0  0  0  0  0  0  0  0  0  0  0
  1  2  1  0  0  0  0
  1 23  1  0  0  0  0
  1 24  1  0  0  0  0
  1 25  1  0  0  0  0
  2 22  1  0  0  0  0
  2  3  2  0  0  0  0
  3  4  1  0  0  0  0
  3 26  1  0  0  0  0
  4  5  2  0  0  0  0
  4 27  1  0  0  0  0
  5  6  1  0  0  0  0
  5 21  1  0  0  0  0
  6  7  1  0  0  0  0
  6 28  1  0  0  0  0
  6 29  1  0  0  0  0
  7  8  1  0  0  0  0
  7 30  1  0  0  0  0
  7 31  1  0  0  0  0
  8  9  1  0  0  0  0
  8 32  1  0  0  0  0
  9 10  2  0  0  0  0
  9 11  1  0  0  0  0
 11 20  1  0  0  0  0
 11 12  1  0  0  0  0
 12 13  1  0  0  0  0
 12 33  1  0  0  0  0
 12 34  1  0  0  0  0
 13 14  1  0  0  0  0
 13 35  1  0  0  0  0
 13 36  1  0  0  0  0
 14 15  1  0  0  0  0
 14 37  1  0  0  0  0
 14 38  1  0  0  0  0
 15 16  1  0  0  0  0
 15 20  1  0  0  0  0
 15 39  1  0  0  0  0
 16 17  1  0  0  0  0
 16 40  1  0  0  0  0
 16 41  1  0  0  0  0
 17 18  1  0  0  0  0
 17 19  2  0  0  0  0
 18 42  1  0  0  0  0
 18 43  1  0  0  0  0
 20 44  1  0  0  0  0
 20 45  1  0  0  0  0
 21 22  2  0  0  0  0
 21 46  1  0  0  0  0
 22 47  1  0  0  0  0
M  CHG  1  22   1
M  END
> <s_m_source_file>
AV-unprocessed.smi

> <i_m_source_file_index>
693

> <i_lp_mmshare_version>
43012

> <i_f3d_flags>
0

> <s_epik_input>
W0NIM11jMVtjSF1bY0hdYyhbY0hdbjEpW0NIMl1bQ0gyXVtOSF1DKD1PKU4yW0NIMl1bQ0gyXVtDSDJdW0NASF0oW0NIMl0yKVtDSDJdQyg9TylbTkgyXQ==

> <s_epik_cmdline>
J2VwaWtfcHl0aG9uJywgJy1waCcsICc3LjAnLCAnLXRuJywgJzgnLCAnLW1hJywgJzIwMCcsICctbWV0YWxfYmluZGluZycsICctaW1hZScsICc8aW5maWxlLm1hZT4nLCAnLW9tYWUnLCAnPG91dGZpbGUubWFlPic=

> <r_epik_Ionization_Penalty>
1.41666

> <r_epik_Ionization_Penalty_Charging>
1.4166

> <r_epik_Ionization_Penalty_Neutral>
5.77403e-05

> <r_epik_State_Penalty>
1.50002

> <r_epik_Charging_Adjusted_Penalty>
2.91662

> <i_epik_Tot_Q>
1

> <i_epik_Tot_abs_Q>
1

> <r_epik_Metal_State_Penalty>
1.55252

> <b_epik_Metal_Only>
0

> <s_lp_Force_Field>
OPLS_2005

> <r_lp_Energy>
32.8943

> <b_lp_Chiralities_Consistent>
1

> <s_lp_Variant>
AV-unprocessed.smi:693-3

> <Gold.Version>
5.8.1

> <Gold.Id.Protein>
6NUR|6NUR_protein|mol2

> <Gold.PLP.Fitness>
46.4902

> <Gold.PLP.PLP>
-38.6213

> <Gold.PLP.part.hbond>
-2.0000

> <Gold.PLP.part.metal>
0.0000

> <Gold.PLP.part.buried>
-1.5528

> <Gold.PLP.part.nonpolar>
-34.7434

> <Gold.PLP.part.repulsive>
0.1134

> <Gold.PLP.ligand.clash>
0.0000

> <Gold.PLP.ligand.torsion>
0.5301

> <Gold.PLP.Chemscore.Hbond>
2.9280

> <Gold.PLP.Chemscore.CHOScore>
0.0000

> <Gold.PLP.Chemscore.Metal>
0.0000

> <Gold.Chemscore.Hbonds>
donor molecule, donor type, donor heavy atom, donor atom, acceptor molecule, acceptor atom, score
      L1  H     8    32       P1  7948  0.94
      L1  H    22    47       P1 10186  2.00

> <Gold.PLP.Chemscore.Internal.Correction>
0.1451

> <Gold.Rescore>
     Score         DG    S(hbond)    S(metal)    S(lipo)     H(rot)  DE(clash)    DE(int)     intcor
     14.26     -16.32       1.89        0.00      89.83       2.34       0.09       1.97       ----

> <Gold.Chemscore.Fitness>
14.2627

> <Gold.Chemscore.DG>
-16.3214

> <Gold.Chemscore.ZeroCoef>
-5.4800

> <Gold.Chemscore.Hbond>
1.8892

> <Gold.Chemscore.Metal>
0.0000

> <Gold.Chemscore.Lipo>
89.8299

> <Gold.Chemscore.Internal_Hbond>
0.0000

> <Gold.Chemscore.DEClash>
0.0931

> <Gold.Chemscore.DEInternal>
1.9656

> <Gold.Chemscore.Rot>
2.3354

> <Gold.Chemscore.Internal.Correction>
   9.000000E+99

> <Gold.Chemscore.Hbonds>
donor molecule, donor type, donor heavy atom, donor atom, acceptor molecule, acceptor atom, score
      L1  H     8    32       P1  7948  0.91
      L1  H    22    47       P1 10186  0.82

> <Gold.Chemscore.Hbond.Weighted>
-6.3098

> <Gold.Chemscore.Metal.Weighted>
-0.0000

> <Gold.Chemscore.Lipo.Weighted>
-10.5101

> <Gold.Chemscore.Internal_Hbond.Weighted>
0.0000

> <Gold.Chemscore.DEClash.Weighted>
0.0931

> <Gold.Chemscore.DEInternal.Weighted>
1.9656

> <Gold.Chemscore.Rot.Weighted>
5.9785

> <Gold.Chemscore.Internal.Correction.Weighted>
   9.000000E+99

> <Gold.Protein.RotatedTorsions>
[ 6907 6896 6895 6894 ] final  113.40 input  -60.11 | X-H torsion
[ 7974 7965 7964 7962 ] final  141.83 input  175.53 | X-H torsion
[ 8008 7997 7996 7995 ] final   29.84 input   59.86 | X-H torsion
[ 10167 10162 10161 10158 ] final   98.67 input  -65.29 | X-H torsion
[ 10718 10713 10712 10709 ] final   45.83 input   66.30 | X-H torsion
[ 10763 10752 10751 10750 ] final -170.95 input  -60.55 | X-H torsion
[ 11005 11000 10999 10996 ] final   11.85 input  -57.11 | X-H torsion

> <Gold.Protein.ActiveResidues>
 VAL166  LYS551  ARG553  GLY616  TRP617  ASP618  TYR619  PRO620  LYS621  CYS622 
 ASP623  PHE694  ASN695  SER759  ASP760  ASP761  ALA762  ILE779  LEU786  VAL792 
 PHE793  MET794  SER795  GLU796  ALA797  LYS798  CYS799  TRP800  GLU811  SER814 

> <Gold.Protein.RotatedAtoms>
  152.4863  133.8381  159.7137 H   0  0  0  0  0  0  0  0  0  0  0  0  # atno 6907 bound_to 6896
  150.8952  133.7181  159.2900 H   0  0  0  0  0  0  0  0  0  0  0  0  # atno 6908 bound_to 6896
  151.4641  135.1044  159.9785 H   0  0  0  0  0  0  0  0  0  0  0  0  # atno 6909 bound_to 6896
  144.9061  139.5356  143.5730 H   0  0  0  0  0  0  0  0  0  0  0  0  # atno 7974 bound_to 7965
  155.0810  140.3210  155.4601 H   0  0  0  0  0  0  0  0  0  0  0  0  # atno 8008 bound_to 7997
  156.2767  140.2095  156.5883 H   0  0  0  0  0  0  0  0  0  0  0  0  # atno 8009 bound_to 7997
  154.6979  140.0510  157.0416 H   0  0  0  0  0  0  0  0  0  0  0  0  # atno 8010 bound_to 7997
  139.7687  144.6930  151.0187 H   0  0  0  0  0  0  0  0  0  0  0  0  # atno 10167 bound_to 10162
  157.4417  130.8085  149.7700 H   0  0  0  0  0  0  0  0  0  0  0  0  # atno 10718 bound_to 10713
  154.6359  135.2892  155.0162 H   0  0  0  0  0  0  0  0  0  0  0  0  # atno 10763 bound_to 10752
  154.1306  135.6534  153.4925 H   0  0  0  0  0  0  0  0  0  0  0  0  # atno 10764 bound_to 10752
  153.0302  135.5309  154.7205 H   0  0  0  0  0  0  0  0  0  0  0  0  # atno 10765 bound_to 10752
  140.4986  134.0769  155.7788 H   0  0  0  0  0  0  0  0  0  0  0  0  # atno 11005 bound_to 11000
  146.3134  139.7831  142.9002 LP  0  0  0  0  0  0  0  0  0  0  0  0  # atno 17320 bound_to 7965
  145.3533  141.0311  143.3326 LP  0  0  0  0  0  0  0  0  0  0  0  0  # atno 17321 bound_to 7965
  140.7812  143.4613  151.0273 LP  0  0  0  0  0  0  0  0  0  0  0  0  # atno 17342 bound_to 10162
  139.8298  143.7707  152.3179 LP  0  0  0  0  0  0  0  0  0  0  0  0  # atno 17343 bound_to 10162
  155.9951  130.3914  150.2832 LP  0  0  0  0  0  0  0  0  0  0  0  0  # atno 17370 bound_to 10713
  157.0997  131.0192  151.3090 LP  0  0  0  0  0  0  0  0  0  0  0  0  # atno 17371 bound_to 10713
  141.1447  133.9076  157.2243 LP  0  0  0  0  0  0  0  0  0  0  0  0  # atno 17394 bound_to 11000
  139.9727  135.0123  156.9552 LP  0  0  0  0  0  0  0  0  0  0  0  0  # atno 17395 bound_to 11000

$$$$
