AV-unprocessed.smi:34|AV-procd|sdf|244|dock7
  -GOLD-   2262016 03D 1   1.00000     0.00000
 Structure written by MMmdl.
 54 58  0  0  0  0  0  0  0  0  2 V2000
  149.8051  131.1055  157.6354 O   0  0  0  0  0  0  0  0  0  0  0  0
  150.7722  131.7987  157.3124 C   0  0  0  0  0  0  0  0  0  0  0  0
  150.9306  133.1359  157.4833 N   0  5  0  0  0  0  0  0  0  0  0  0
  150.3559  133.9947  156.6271 C   0  0  0  0  0  0  0  0  0  0  0  0
  149.9874  133.5785  155.3885 N   0  0  0  0  0  0  0  0  0  0  0  0
  149.4174  134.4315  154.5290 C   0  0  0  0  0  0  0  0  0  0  0  0
  149.1285  135.7260  154.6959 N   0  0  0  0  0  0  0  0  0  0  0  0
  149.5007  136.1567  155.9362 C   0  0  0  0  0  0  0  0  0  0  0  0
  150.1193  135.3616  156.9433 C   0  0  0  0  0  0  0  0  0  0  0  0
  150.3668  136.1181  158.0797 N   0  0  0  0  0  0  0  0  0  0  0  0
  149.8867  137.3080  157.7225 C   0  0  0  0  0  0  0  0  0  0  0  0
  149.3638  137.4195  156.4833 N   0  0  0  0  0  0  0  0  0  0  0  0
  148.7446  138.6017  155.8102 C   0  0  1  0  0  0  0  0  0  0  0  0
  149.0670  139.7487  156.5471 O   0  0  0  0  0  0  0  0  0  0  0  0
  149.8820  140.6344  155.7810 C   0  0  1  0  0  0  0  0  0  0  0  0
  151.3645  140.4387  156.1356 C   0  0  0  0  0  0  0  0  0  0  0  0
  151.7114  141.3326  157.1809 O   0  0  0  0  0  0  0  0  0  0  0  0
  152.4825  140.9141  158.2028 C   0  0  0  0  0  0  0  0  0  0  0  0
  153.1079  139.8520  158.1950 O   0  0  0  0  0  0  0  0  0  0  0  0
  152.4996  141.8725  159.3455 C   0  0  0  0  0  0  0  0  0  0  0  0
  151.7577  143.0735  159.2547 C   0  0  0  0  0  0  0  0  0  0  0  0
  151.7571  143.9985  160.3168 C   0  0  0  0  0  0  0  0  0  0  0  0
  152.4992  143.7345  161.4828 C   0  0  0  0  0  0  0  0  0  0  0  0
  153.2417  142.5439  161.5853 C   0  0  0  0  0  0  0  0  0  0  0  0
  153.2429  141.6171  160.5245 C   0  0  0  0  0  0  0  0  0  0  0  0
  149.5394  140.2818  154.3351 C   0  0  2  0  0  0  0  0  0  0  0  0
  148.3999  140.9079  154.0282 F   0  0  0  0  0  0  0  0  0  0  0  0
  149.3369  138.7764  154.4046 C   0  0  2  0  0  0  0  0  0  0  0  0
  148.4813  138.3368  153.3692 O   0  0  0  0  0  0  0  0  0  0  0  0
  151.9177  131.1493  156.5815 C   0  0  0  0  0  0  0  0  0  0  0  0
  153.2475  131.4513  156.9551 C   0  0  0  0  0  0  0  0  0  0  0  0
  154.3341  130.8778  156.2665 C   0  0  0  0  0  0  0  0  0  0  0  0
  154.1030  130.0002  155.1909 C   0  0  0  0  0  0  0  0  0  0  0  0
  152.7845  129.7006  154.8016 C   0  0  0  0  0  0  0  0  0  0  0  0
  151.6974  130.2758  155.4882 C   0  0  0  0  0  0  0  0  0  0  0  0
  149.1538  134.0156  153.5679 H   0  0  0  0  0  0  0  0  0  0  0  0
  149.9145  138.1413  158.4080 H   0  0  0  0  0  0  0  0  0  0  0  0
  147.6691  138.4196  155.8329 H   0  0  0  0  0  0  0  0  0  0  0  0
  149.5971  141.6614  156.0143 H   0  0  0  0  0  0  0  0  0  0  0  0
  151.5279  139.4165  156.4789 H   0  0  0  0  0  0  0  0  0  0  0  0
  152.0025  140.5985  155.2657 H   0  0  0  0  0  0  0  0  0  0  0  0
  151.1805  143.2980  158.3692 H   0  0  0  0  0  0  0  0  0  0  0  0
  151.1864  144.9120  160.2363 H   0  0  0  0  0  0  0  0  0  0  0  0
  152.4995  144.4442  162.2969 H   0  0  0  0  0  0  0  0  0  0  0  0
  153.8125  142.3400  162.4794 H   0  0  0  0  0  0  0  0  0  0  0  0
  153.8246  140.7139  160.6363 H   0  0  0  0  0  0  0  0  0  0  0  0
  150.2938  140.5911  153.6107 H   0  0  0  0  0  0  0  0  0  0  0  0
  150.2992  138.2657  154.3400 H   0  0  0  0  0  0  0  0  0  0  0  0
  148.9959  137.8482  152.7443 H   0  0  0  0  0  0  0  0  0  0  0  0
  153.4430  132.1246  157.7770 H   0  0  0  0  0  0  0  0  0  0  0  0
  155.3453  131.1135  156.5632 H   0  0  0  0  0  0  0  0  0  0  0  0
  154.9360  129.5609  154.6626 H   0  0  0  0  0  0  0  0  0  0  0  0
  152.6051  129.0320  153.9728 H   0  0  0  0  0  0  0  0  0  0  0  0
  150.6939  130.0416  155.1636 H   0  0  0  0  0  0  0  0  0  0  0  0
  1  2  2  0  0  0  0
  2  3  1  0  0  0  0
  2 30  1  0  0  0  0
  3  4  1  0  0  0  0
  4  9  1  0  0  0  0
  4  5  2  0  0  0  0
  5  6  1  0  0  0  0
  6  7  2  0  0  0  0
  6 36  1  0  0  0  0
  7  8  1  0  0  0  0
  8 12  1  0  0  0  0
  8  9  2  0  0  0  0
  9 10  1  0  0  0  0
 10 11  2  0  0  0  0
 11 12  1  0  0  0  0
 11 37  1  0  0  0  0
 12 13  1  0  0  0  0
 13 28  1  0  0  0  0
 13 14  1  0  0  0  0
 13 38  1  0  0  0  0
 14 15  1  0  0  0  0
 15 16  1  0  0  0  0
 15 26  1  0  0  0  0
 15 39  1  0  0  0  0
 16 17  1  0  0  0  0
 16 40  1  0  0  0  0
 16 41  1  0  0  0  0
 17 18  1  0  0  0  0
 18 19  2  0  0  0  0
 18 20  1  0  0  0  0
 20 25  1  0  0  0  0
 20 21  2  0  0  0  0
 21 22  1  0  0  0  0
 21 42  1  0  0  0  0
 22 23  2  0  0  0  0
 22 43  1  0  0  0  0
 23 24  1  0  0  0  0
 23 44  1  0  0  0  0
 24 25  2  0  0  0  0
 24 45  1  0  0  0  0
 25 46  1  0  0  0  0
 26 27  1  0  0  0  0
 26 28  1  0  0  0  0
 26 47  1  0  0  0  0
 28 29  1  0  0  0  0
 28 48  1  0  0  0  0
 29 49  1  0  0  0  0
 30 35  1  0  0  0  0
 30 31  2  0  0  0  0
 31 32  1  0  0  0  0
 31 50  1  0  0  0  0
 32 33  2  0  0  0  0
 32 51  1  0  0  0  0
 33 34  1  0  0  0  0
 33 52  1  0  0  0  0
 34 35  2  0  0  0  0
 34 53  1  0  0  0  0
 35 54  1  0  0  0  0
M  CHG  1   3  -1
M  END
> <s_m_source_file>
AV-unprocessed.smi

> <i_m_source_file_index>
34

> <i_lp_mmshare_version>
43012

> <i_f3d_flags>
0

> <s_epik_input>
W2NIXTFbY0hdW2NIXVtjSF1bY0hdYzFDKD1PKVtOSF1jKG5bY0hdbjIpYyhjMjMpbltjSF1uM1tDQEBIXTRPW0NASF0oW0NAQEhdKEYpW0NASF00W09IXSlbQ0gyXU9DKD1PKWM1W2NIXVtjSF1bY0hdW2NIXVtjSF01

> <s_epik_cmdline>
J2VwaWtfcHl0aG9uJywgJy1waCcsICc3LjAnLCAnLXRuJywgJzgnLCAnLW1hJywgJzIwMCcsICctbWV0YWxfYmluZGluZycsICctaW1hZScsICc8aW5maWxlLm1hZT4nLCAnLW9tYWUnLCAnPG91dGZpbGUubWFlPic=

> <r_lp_tautomer_probability>
1

> <r_epik_Ionization_Penalty>
4.33227

> <r_epik_Ionization_Penalty_Charging>
3.41027

> <r_epik_Ionization_Penalty_Neutral>
0.922001

> <r_epik_State_Penalty>
3.41358

> <r_epik_Charging_Adjusted_Penalty>
6.82385

> <i_epik_Tot_Q>
-1

> <i_epik_Tot_abs_Q>
1

> <r_epik_Metal_State_Penalty>
0.496292

> <b_epik_Metal_Only>
1

> <s_epik_Chemistry_Notes>
This compound has an ester and may undergo hydrolysis at high or low pH. This compound contains an acetal/aminal-like group ( X-CH(R)-Y where X, Y are N, S, or O) that may be acid/base labile, releasing an aldehyde.

> <s_lp_Force_Field>
OPLS_2005

> <r_lp_Energy>
49.0999

> <b_lp_Chiralities_Consistent>
1

> <s_lp_Variant>
AV-unprocessed.smi:34-30

> <Gold.Version>
5.8.1

> <Gold.Id.Protein>
6NUR|6NUR_protein|mol2

> <Gold.PLP.Fitness>
64.4238

> <Gold.PLP.PLP>
-56.5267

> <Gold.PLP.part.hbond>
-5.0000

> <Gold.PLP.part.metal>
0.0000

> <Gold.PLP.part.buried>
-5.8499

> <Gold.PLP.part.nonpolar>
-47.0915

> <Gold.PLP.part.repulsive>
2.0345

> <Gold.PLP.ligand.clash>
0.0000

> <Gold.PLP.ligand.torsion>
2.6987

> <Gold.PLP.Chemscore.Hbond>
4.2080

> <Gold.PLP.Chemscore.CHOScore>
0.0996

> <Gold.PLP.Chemscore.Metal>
0.0000

> <Gold.Chemscore.Hbonds>
donor molecule, donor type, donor heavy atom, donor atom, acceptor molecule, acceptor atom, score
      L1  H    29    49       P1  7948  0.82
      P1  H  6896  6907       L1     3  1.57
      P1  H  6896  6908       L1    10  0.69
      P1  H  7997  8009       L1    19  0.96
      L1  C     6    36       P1  7948  0.11

> <Gold.PLP.Chemscore.Internal.Correction>
0.3717

> <Gold.Rescore>
     Score         DG    S(hbond)    S(metal)    S(lipo)     H(rot)  DE(clash)    DE(int)     intcor
     21.10     -23.90       3.42        0.00     118.85       2.69       0.07       2.73       ----

> <Gold.Chemscore.Fitness>
21.1028

> <Gold.Chemscore.DG>
-23.9034

> <Gold.Chemscore.ZeroCoef>
-5.4800

> <Gold.Chemscore.Hbond>
3.4179

> <Gold.Chemscore.Metal>
0.0000

> <Gold.Chemscore.Lipo>
118.8464

> <Gold.Chemscore.Internal_Hbond>
0.0000

> <Gold.Chemscore.DEClash>
0.0742

> <Gold.Chemscore.DEInternal>
2.7263

> <Gold.Chemscore.Rot>
2.6944

> <Gold.Chemscore.Internal.Correction>
   9.000000E+99

> <Gold.Chemscore.Hbonds>
donor molecule, donor type, donor heavy atom, donor atom, acceptor molecule, acceptor atom, score
      L1  H    29    49       P1  7948  0.81
      P1  H  6896  6907       L1     3  0.43
      P1  H  6896  6908       L1    10  0.50
      P1  H  7997  8009       L1    19  0.41

> <Gold.Chemscore.Hbond.Weighted>
-11.4159

> <Gold.Chemscore.Metal.Weighted>
-0.0000

> <Gold.Chemscore.Lipo.Weighted>
-13.9050

> <Gold.Chemscore.Internal_Hbond.Weighted>
0.0000

> <Gold.Chemscore.DEClash.Weighted>
0.0742

> <Gold.Chemscore.DEInternal.Weighted>
2.7263

> <Gold.Chemscore.Rot.Weighted>
6.8975

> <Gold.Chemscore.Internal.Correction.Weighted>
   9.000000E+99

> <Gold.Protein.RotatedTorsions>
[ 6907 6896 6895 6894 ] final -167.83 input  -60.11 | X-H torsion
[ 7974 7965 7964 7962 ] final  -46.25 input  175.53 | X-H torsion
[ 8008 7997 7996 7995 ] final  173.09 input   59.86 | X-H torsion
[ 10167 10162 10161 10158 ] final  138.22 input  -65.29 | X-H torsion
[ 10718 10713 10712 10709 ] final  151.18 input   66.30 | X-H torsion
[ 10763 10752 10751 10750 ] final  136.45 input  -60.55 | X-H torsion
[ 11005 11000 10999 10996 ] final  -89.38 input  -57.11 | X-H torsion

> <Gold.Protein.ActiveResidues>
 VAL166  LYS551  ARG553  GLY616  TRP617  ASP618  TYR619  PRO620  LYS621  CYS622 
 ASP623  PHE694  ASN695  SER759  ASP760  ASP761  ALA762  ILE779  LEU786  VAL792 
 PHE793  MET794  SER795  GLU796  ALA797  LYS798  CYS799  TRP800  GLU811  SER814 

> <Gold.Protein.RotatedAtoms>
  151.4658  133.3581  159.2815 H   0  0  0  0  0  0  0  0  0  0  0  0  # atno 6907 bound_to 6896
  150.8995  134.8407  159.7360 H   0  0  0  0  0  0  0  0  0  0  0  0  # atno 6908 bound_to 6896
  152.4871  134.4576  159.9647 H   0  0  0  0  0  0  0  0  0  0  0  0  # atno 6909 bound_to 6896
  145.9738  140.7356  142.9397 H   0  0  0  0  0  0  0  0  0  0  0  0  # atno 7974 bound_to 7965
  156.1110  140.1469  156.9338 H   0  0  0  0  0  0  0  0  0  0  0  0  # atno 8008 bound_to 7997
  154.4767  140.0892  156.7322 H   0  0  0  0  0  0  0  0  0  0  0  0  # atno 8009 bound_to 7997
  155.4596  140.3438  155.4313 H   0  0  0  0  0  0  0  0  0  0  0  0  # atno 8010 bound_to 7997
  139.5118  144.6365  151.5681 H   0  0  0  0  0  0  0  0  0  0  0  0  # atno 10167 bound_to 10162
  157.2740  131.0822  151.1579 H   0  0  0  0  0  0  0  0  0  0  0  0  # atno 10718 bound_to 10713
  153.8568  135.3072  155.3435 H   0  0  0  0  0  0  0  0  0  0  0  0  # atno 10763 bound_to 10752
  154.7867  135.4806  153.9964 H   0  0  0  0  0  0  0  0  0  0  0  0  # atno 10764 bound_to 10752
  153.1485  135.6838  153.9011 H   0  0  0  0  0  0  0  0  0  0  0  0  # atno 10765 bound_to 10752
  141.1585  133.7627  156.9587 H   0  0  0  0  0  0  0  0  0  0  0  0  # atno 11005 bound_to 11000
  144.6843  140.2793  143.7294 LP  0  0  0  0  0  0  0  0  0  0  0  0  # atno 17320 bound_to 7965
  145.7868  139.1912  143.2126 LP  0  0  0  0  0  0  0  0  0  0  0  0  # atno 17321 bound_to 7965
  140.6117  143.9424  150.6458 LP  0  0  0  0  0  0  0  0  0  0  0  0  # atno 17342 bound_to 10162
  140.2669  143.3484  152.1273 LP  0  0  0  0  0  0  0  0  0  0  0  0  # atno 17343 bound_to 10162
  157.3040  130.6856  149.6179 LP  0  0  0  0  0  0  0  0  0  0  0  0  # atno 17370 bound_to 10713
  155.9663  130.4383  150.5213 LP  0  0  0  0  0  0  0  0  0  0  0  0  # atno 17371 bound_to 10713
  140.1208  134.9418  157.2200 LP  0  0  0  0  0  0  0  0  0  0  0  0  # atno 17394 bound_to 11000
  140.3075  134.3062  155.7275 LP  0  0  0  0  0  0  0  0  0  0  0  0  # atno 17395 bound_to 11000

$$$$
