AV-unprocessed.smi:1868|AV-procd|sdf|7585|dock4
  -GOLD-   22720 9293D 1   1.00000     0.00000
 Structure written by MMmdl.
 47 49  0  0  0  0  0  0  0  0  2 V2000
  147.0224  141.2395  154.7077 C   0  0  0  0  0  0  0  0  0  0  0  0
  148.1846  140.3210  154.9156 C   0  0  0  0  0  0  0  0  0  0  0  0
  149.3877  140.7671  155.2757 N   0  0  0  0  0  0  0  0  0  0  0  0
  150.1301  139.6048  155.3582 C   0  0  0  0  0  0  0  0  0  0  0  0
  151.4879  139.4037  155.6942 C   0  0  0  0  0  0  0  0  0  0  0  0
  152.0341  138.1036  155.7100 C   0  0  0  0  0  0  0  0  0  0  0  0
  151.2324  136.9882  155.3917 C   0  0  0  0  0  0  0  0  0  0  0  0
  149.8772  137.1662  155.0540 C   0  0  0  0  0  0  0  0  0  0  0  0
  149.3370  138.4662  155.0381 C   0  0  0  0  0  0  0  0  0  0  0  0
  148.0759  138.9797  154.7501 N   0  0  0  0  0  0  0  0  0  0  0  0
  146.8980  138.2189  154.3552 C   0  0  0  0  0  0  0  0  0  0  0  0
  146.4309  138.5513  152.9243 C   0  0  1  0  0  0  0  0  0  0  0  0
  147.5433  138.5363  152.0503 O   0  0  0  0  0  0  0  0  0  0  0  0
  145.3917  137.5348  152.4121 C   0  0  0  0  0  0  0  0  0  0  0  0
  145.9894  136.2050  152.1270 N   0  3  2  0  0  0  0  0  0  0  0  0
  145.3827  135.5248  150.9519 C   0  0  0  0  0  0  0  0  0  0  0  0
  146.1294  134.2222  150.6193 C   0  0  0  0  0  0  0  0  0  0  0  0
  146.1648  133.2727  151.8285 C   0  0  1  0  0  0  0  0  0  0  0  0
  146.9380  131.9837  151.5163 C   0  0  0  0  0  0  0  0  0  0  0  0
  146.7593  134.0145  153.0372 C   0  0  0  0  0  0  0  0  0  0  0  0
  145.9997  135.3213  153.3210 C   0  0  0  0  0  0  0  0  0  0  0  0
  147.3261  142.2776  154.8474 H   0  0  0  0  0  0  0  0  0  0  0  0
  146.2323  141.0156  155.4248 H   0  0  0  0  0  0  0  0  0  0  0  0
  146.6262  141.1317  153.6983 H   0  0  0  0  0  0  0  0  0  0  0  0
  152.1105  140.2513  155.9397 H   0  0  0  0  0  0  0  0  0  0  0  0
  153.0737  137.9615  155.9674 H   0  0  0  0  0  0  0  0  0  0  0  0
  151.6591  135.9958  155.4062 H   0  0  0  0  0  0  0  0  0  0  0  0
  149.2622  136.3134  154.8081 H   0  0  0  0  0  0  0  0  0  0  0  0
  147.1253  137.1556  154.4433 H   0  0  0  0  0  0  0  0  0  0  0  0
  146.0982  138.4143  155.0697 H   0  0  0  0  0  0  0  0  0  0  0  0
  146.0132  139.5570  152.9201 H   0  0  0  0  0  0  0  0  0  0  0  0
  148.1237  139.2438  152.2897 H   0  0  0  0  0  0  0  0  0  0  0  0
  144.6090  137.4356  153.1659 H   0  0  0  0  0  0  0  0  0  0  0  0
  144.8991  137.9076  151.5126 H   0  0  0  0  0  0  0  0  0  0  0  0
  144.3318  135.3120  151.1550 H   0  0  0  0  0  0  0  0  0  0  0  0
  145.4074  136.1760  150.0792 H   0  0  0  0  0  0  0  0  0  0  0  0
  145.6492  133.7309  149.7723 H   0  0  0  0  0  0  0  0  0  0  0  0
  147.1468  134.4575  150.3026 H   0  0  0  0  0  0  0  0  0  0  0  0
  145.1385  132.9931  152.0719 H   0  0  0  0  0  0  0  0  0  0  0  0
  147.9755  132.1955  151.2560 H   0  0  0  0  0  0  0  0  0  0  0  0
  146.4876  131.4483  150.6798 H   0  0  0  0  0  0  0  0  0  0  0  0
  146.9408  131.3104  152.3740 H   0  0  0  0  0  0  0  0  0  0  0  0
  146.7297  133.3748  153.9199 H   0  0  0  0  0  0  0  0  0  0  0  0
  147.8113  134.2381  152.8537 H   0  0  0  0  0  0  0  0  0  0  0  0
  146.4774  135.8351  154.1562 H   0  0  0  0  0  0  0  0  0  0  0  0
  144.9743  135.1050  153.6253 H   0  0  0  0  0  0  0  0  0  0  0  0
  146.9587  136.3794  151.9010 H   0  0  0  0  0  0  0  0  0  0  0  0
  1  2  1  0  0  0  0
  1 22  1  0  0  0  0
  1 23  1  0  0  0  0
  1 24  1  0  0  0  0
  2 10  1  0  0  0  0
  2  3  2  0  0  0  0
  3  4  1  0  0  0  0
  4  9  2  0  0  0  0
  4  5  1  0  0  0  0
  5  6  2  0  0  0  0
  5 25  1  0  0  0  0
  6  7  1  0  0  0  0
  6 26  1  0  0  0  0
  7  8  2  0  0  0  0
  7 27  1  0  0  0  0
  8  9  1  0  0  0  0
  8 28  1  0  0  0  0
  9 10  1  0  0  0  0
 10 11  1  0  0  0  0
 11 12  1  0  0  0  0
 11 29  1  0  0  0  0
 11 30  1  0  0  0  0
 12 13  1  0  0  0  0
 12 14  1  0  0  0  0
 12 31  1  0  0  0  0
 13 32  1  0  0  0  0
 14 15  1  0  0  0  0
 14 33  1  0  0  0  0
 14 34  1  0  0  0  0
 15 21  1  0  0  0  0
 15 16  1  0  0  0  0
 15 47  1  0  0  0  0
 16 17  1  0  0  0  0
 16 35  1  0  0  0  0
 16 36  1  0  0  0  0
 17 18  1  0  0  0  0
 17 37  1  0  0  0  0
 17 38  1  0  0  0  0
 18 19  1  0  0  0  0
 18 20  1  0  0  0  0
 18 39  1  0  0  0  0
 19 40  1  0  0  0  0
 19 41  1  0  0  0  0
 19 42  1  0  0  0  0
 20 21  1  0  0  0  0
 20 43  1  0  0  0  0
 20 44  1  0  0  0  0
 21 45  1  0  0  0  0
 21 46  1  0  0  0  0
M  CHG  1  15   1
M  END
> <s_m_source_file>
AV-unprocessed.smi

> <i_m_source_file_index>
1868

> <i_lp_mmshare_version>
43012

> <i_f3d_flags>
0

> <s_epik_input>
W2NIXTFbY0hdW2NIXVtjSF1jKGMxMiluKGMobjIpW0NIM10pW0NIMl1bQ0BIXShbT0hdKVtDSDJdTjNbQ0gyXVtDSDJdW0NIXShbQ0gzXSlbQ0gyXVtDSDJdMw==

> <s_epik_cmdline>
J2VwaWtfcHl0aG9uJywgJy1waCcsICc3LjAnLCAnLXRuJywgJzgnLCAnLW1hJywgJzIwMCcsICctbWV0YWxfYmluZGluZycsICctaW1hZScsICc8aW5maWxlLm1hZT4nLCAnLW9tYWUnLCAnPG91dGZpbGUubWFlPic=

> <r_epik_Ionization_Penalty>
0.101157

> <r_epik_Ionization_Penalty_Charging>
0.00181365

> <r_epik_Ionization_Penalty_Neutral>
0.0993436

> <r_epik_State_Penalty>
0.0871902

> <r_epik_Charging_Adjusted_Penalty>
0.0890039

> <i_epik_Tot_Q>
1

> <i_epik_Tot_abs_Q>
1

> <r_epik_Metal_State_Penalty>
9.24346e-05

> <b_epik_Metal_Only>
0

> <s_lp_Force_Field>
OPLS_2005

> <r_lp_Energy>
21.7142

> <b_lp_Chiralities_Consistent>
1

> <s_lp_Variant>
AV-unprocessed.smi:1868-2

> <Gold.Version>
5.8.1

> <Gold.Id.Protein>
6NUR|6NUR_protein|mol2

> <Gold.PLP.Fitness>
49.4466

> <Gold.PLP.PLP>
-38.7817

> <Gold.PLP.part.hbond>
-4.9742

> <Gold.PLP.part.metal>
0.0000

> <Gold.PLP.part.buried>
2.9225

> <Gold.PLP.part.nonpolar>
-36.7506

> <Gold.PLP.part.repulsive>
0.1820

> <Gold.PLP.ligand.clash>
0.0000

> <Gold.PLP.ligand.torsion>
0.5724

> <Gold.PLP.Chemscore.Hbond>
3.9200

> <Gold.PLP.Chemscore.CHOScore>
0.0000

> <Gold.PLP.Chemscore.Metal>
0.0000

> <Gold.Chemscore.Hbonds>
donor molecule, donor type, donor heavy atom, donor atom, acceptor molecule, acceptor atom, score
      L1  H    13    32       P1  7957  0.51
      L1  H    15    47       P1  7948  2.00
      P1  H  7954  7966       L1    13  0.24

> <Gold.PLP.Chemscore.Internal.Correction>
0.0496

> <Gold.Rescore>
     Score         DG    S(hbond)    S(metal)    S(lipo)     H(rot)  DE(clash)    DE(int)     intcor
     17.82     -18.75       2.54        0.00      83.01       1.92       0.23       0.70       ----

> <Gold.Chemscore.Fitness>
17.8194

> <Gold.Chemscore.DG>
-18.7522

> <Gold.Chemscore.ZeroCoef>
-5.4800

> <Gold.Chemscore.Hbond>
2.5375

> <Gold.Chemscore.Metal>
0.0000

> <Gold.Chemscore.Lipo>
83.0068

> <Gold.Chemscore.Internal_Hbond>
0.0000

> <Gold.Chemscore.DEClash>
0.2307

> <Gold.Chemscore.DEInternal>
0.7021

> <Gold.Chemscore.Rot>
1.9198

> <Gold.Chemscore.Internal.Correction>
   9.000000E+99

> <Gold.Chemscore.Hbonds>
donor molecule, donor type, donor heavy atom, donor atom, acceptor molecule, acceptor atom, score
      L1  H    13    32       P1  7957  0.50
      L1  H    15    47       P1  7948  0.98
      P1  H  7954  7966       L1    13  0.13

> <Gold.Chemscore.Hbond.Weighted>
-8.4751

> <Gold.Chemscore.Metal.Weighted>
-0.0000

> <Gold.Chemscore.Lipo.Weighted>
-9.7118

> <Gold.Chemscore.Internal_Hbond.Weighted>
0.0000

> <Gold.Chemscore.DEClash.Weighted>
0.2307

> <Gold.Chemscore.DEInternal.Weighted>
0.7021

> <Gold.Chemscore.Rot.Weighted>
4.9147

> <Gold.Chemscore.Internal.Correction.Weighted>
   9.000000E+99

> <Gold.Protein.RotatedTorsions>
[ 6907 6896 6895 6894 ] final   -3.56 input  -60.11 | X-H torsion
[ 7974 7965 7964 7962 ] final   83.64 input  175.53 | X-H torsion
[ 8008 7997 7996 7995 ] final  156.13 input   59.86 | X-H torsion
[ 10167 10162 10161 10158 ] final  167.31 input  -65.29 | X-H torsion
[ 10718 10713 10712 10709 ] final  -12.85 input   66.30 | X-H torsion
[ 10763 10752 10751 10750 ] final  115.62 input  -60.55 | X-H torsion
[ 11005 11000 10999 10996 ] final -108.79 input  -57.11 | X-H torsion

> <Gold.Protein.ActiveResidues>
 VAL166  LYS551  ARG553  GLY616  TRP617  ASP618  TYR619  PRO620  LYS621  CYS622 
 ASP623  PHE694  ASN695  SER759  ASP760  ASP761  ALA762  ILE779  LEU786  VAL792 
 PHE793  MET794  SER795  GLU796  ALA797  LYS798  CYS799  TRP800  GLU811  SER814 

> <Gold.Protein.RotatedAtoms>
  151.5117  135.1065  159.9855 H   0  0  0  0  0  0  0  0  0  0  0  0  # atno 6907 bound_to 6896
  152.4658  133.7917  159.6916 H   0  0  0  0  0  0  0  0  0  0  0  0  # atno 6908 bound_to 6896
  150.8642  133.7536  159.3008 H   0  0  0  0  0  0  0  0  0  0  0  0  # atno 6909 bound_to 6896
  145.6093  139.2365  143.2201 H   0  0  0  0  0  0  0  0  0  0  0  0  # atno 7974 bound_to 7965
  156.2439  140.1920  156.6909 H   0  0  0  0  0  0  0  0  0  0  0  0  # atno 8008 bound_to 7997
  154.6252  140.0603  156.9691 H   0  0  0  0  0  0  0  0  0  0  0  0  # atno 8009 bound_to 7997
  155.1797  140.3275  155.4380 H   0  0  0  0  0  0  0  0  0  0  0  0  # atno 8010 bound_to 7997
  139.4943  144.3935  151.9491 H   0  0  0  0  0  0  0  0  0  0  0  0  # atno 10167 bound_to 10162
  156.6387  130.4922  149.6103 H   0  0  0  0  0  0  0  0  0  0  0  0  # atno 10718 bound_to 10713
  153.5250  135.3590  155.2649 H   0  0  0  0  0  0  0  0  0  0  0  0  # atno 10763 bound_to 10752
  154.8732  135.4054  154.3217 H   0  0  0  0  0  0  0  0  0  0  0  0  # atno 10764 bound_to 10752
  153.3894  135.7071  153.6573 H   0  0  0  0  0  0  0  0  0  0  0  0  # atno 10765 bound_to 10752
  141.0883  133.9101  157.2136 H   0  0  0  0  0  0  0  0  0  0  0  0  # atno 11005 bound_to 11000
  146.1517  140.6916  142.9319 LP  0  0  0  0  0  0  0  0  0  0  0  0  # atno 17320 bound_to 7965
  144.7277  140.4575  143.6961 LP  0  0  0  0  0  0  0  0  0  0  0  0  # atno 17321 bound_to 7965
  140.3373  144.3246  150.5974 LP  0  0  0  0  0  0  0  0  0  0  0  0  # atno 17342 bound_to 10162
  140.5595  143.2194  151.7789 LP  0  0  0  0  0  0  0  0  0  0  0  0  # atno 17343 bound_to 10162
  156.2176  130.6717  151.1335 LP  0  0  0  0  0  0  0  0  0  0  0  0  # atno 17370 bound_to 10713
  157.7178  131.0700  150.6259 LP  0  0  0  0  0  0  0  0  0  0  0  0  # atno 17371 bound_to 10713
  139.9704  135.0130  156.9497 LP  0  0  0  0  0  0  0  0  0  0  0  0  # atno 17394 bound_to 11000
  140.5313  134.0811  155.7316 LP  0  0  0  0  0  0  0  0  0  0  0  0  # atno 17395 bound_to 11000

$$$$
