AV-unprocessed.smi:107|AV-procd|sdf|1027|dock5
  -GOLD-   2262018 33D 1   1.00000     0.00000
 Structure written by MMmdl.
 30 31  0  0  0  0  0  0  0  0  2 V2000
  150.5942  142.8497  158.7980 C   0  0  0  0  0  0  0  0  0  0  0  0
  150.8751  141.8494  157.6904 C   0  0  0  0  0  0  0  0  0  0  0  0
  150.0767  141.7306  156.6060 C   0  0  0  0  0  0  0  0  0  0  0  0
  150.3394  140.8190  155.5989 N   0  0  0  0  0  0  0  0  0  0  0  0
  149.4412  140.7282  154.3888 C   0  0  2  0  0  0  0  0  0  0  0  0
  148.2847  141.7147  154.4901 C   0  0  0  0  0  0  0  0  0  0  0  0
  147.1885  141.0036  153.7056 C   0  0  2  0  0  0  0  0  0  0  0  0
  145.9591  141.0933  154.4020 O   0  0  0  0  0  0  0  0  0  0  0  0
  147.7098  139.5590  153.5042 C   0  0  2  0  0  0  0  0  0  0  0  0
  146.7262  138.4249  153.8499 C   0  0  0  0  0  0  0  0  0  0  0  0
  145.6626  138.4037  152.9214 O   0  0  0  0  0  0  0  0  0  0  0  0
  148.8539  139.4709  154.3453 O   0  0  0  0  0  0  0  0  0  0  0  0
  151.4952  140.0000  155.6753 C   0  0  0  0  0  0  0  0  0  0  0  0
  151.7244  139.2313  154.7410 O   0  0  0  0  0  0  0  0  0  0  0  0
  152.3014  140.1055  156.7703 N   0  5  0  0  0  0  0  0  0  0  0  0
  152.0553  140.9813  157.7871 C   0  0  0  0  0  0  0  0  0  0  0  0
  152.7904  141.0643  158.7707 O   0  0  0  0  0  0  0  0  0  0  0  0
  149.6916  143.4258  158.5926 H   0  0  0  0  0  0  0  0  0  0  0  0
  151.4255  143.5480  158.8994 H   0  0  0  0  0  0  0  0  0  0  0  0
  150.4573  142.3357  159.7499 H   0  0  0  0  0  0  0  0  0  0  0  0
  149.2132  142.3742  156.5240 H   0  0  0  0  0  0  0  0  0  0  0  0
  150.0633  140.8612  153.5016 H   0  0  0  0  0  0  0  0  0  0  0  0
  148.0077  141.8344  155.5393 H   0  0  0  0  0  0  0  0  0  0  0  0
  148.5631  142.6868  154.0823 H   0  0  0  0  0  0  0  0  0  0  0  0
  147.0585  141.4782  152.7322 H   0  0  0  0  0  0  0  0  0  0  0  0
  145.2607  140.8644  153.8084 H   0  0  0  0  0  0  0  0  0  0  0  0
  148.0412  139.4628  152.4686 H   0  0  0  0  0  0  0  0  0  0  0  0
  147.2295  137.4577  153.8738 H   0  0  0  0  0  0  0  0  0  0  0  0
  146.2820  138.5888  154.8319 H   0  0  0  0  0  0  0  0  0  0  0  0
  145.2104  139.2323  152.9640 H   0  0  0  0  0  0  0  0  0  0  0  0
  1  2  1  0  0  0  0
  1 18  1  0  0  0  0
  1 19  1  0  0  0  0
  1 20  1  0  0  0  0
  2 16  1  0  0  0  0
  2  3  2  0  0  0  0
  3  4  1  0  0  0  0
  3 21  1  0  0  0  0
  4  5  1  0  0  0  0
  4 13  1  0  0  0  0
  5 12  1  0  0  0  0
  5  6  1  0  0  0  0
  5 22  1  0  0  0  0
  6  7  1  0  0  0  0
  6 23  1  0  0  0  0
  6 24  1  0  0  0  0
  7  8  1  0  0  0  0
  7  9  1  0  0  0  0
  7 25  1  0  0  0  0
  8 26  1  0  0  0  0
  9 10  1  0  0  0  0
  9 12  1  0  0  0  0
  9 27  1  0  0  0  0
 10 11  1  0  0  0  0
 10 28  1  0  0  0  0
 10 29  1  0  0  0  0
 11 30  1  0  0  0  0
 13 14  2  0  0  0  0
 13 15  1  0  0  0  0
 15 16  1  0  0  0  0
 16 17  2  0  0  0  0
M  CHG  1  15  -1
M  END
> <s_m_source_file>
AV-unprocessed.smi

> <i_m_source_file_index>
107

> <i_lp_mmshare_version>
43012

> <i_f3d_flags>
0

> <s_epik_input>
Tz1jMVtuSF1jKD1PKW4oW2NIXWMxW0NIM10pW0NAQEhdMltDSDJdW0NAQEhdKFtPSF0pW0NASF0oTzIpW0NIMl1bT0hd

> <s_epik_cmdline>
J2VwaWtfcHl0aG9uJywgJy1waCcsICc3LjAnLCAnLXRuJywgJzgnLCAnLW1hJywgJzIwMCcsICctbWV0YWxfYmluZGluZycsICctaW1hZScsICc8aW5maWxlLm1hZT4nLCAnLW9tYWUnLCAnPG91dGZpbGUubWFlPic=

> <r_lp_tautomer_probability>
0.999537

> <r_epik_Ionization_Penalty>
3.66603

> <r_epik_Ionization_Penalty_Charging>
1.09773e-07

> <r_epik_Ionization_Penalty_Neutral>
3.66603

> <r_epik_State_Penalty>
3.66562

> <r_epik_Charging_Adjusted_Penalty>
3.66562

> <i_epik_Tot_Q>
-1

> <i_epik_Tot_abs_Q>
1

> <r_epik_Metal_State_Penalty>
0.234536

> <b_epik_Metal_Only>
1

> <s_epik_Chemistry_Notes>
This compound contains an acetal/aminal-like group ( X-CH(R)-Y where X, Y are N, S, or O) that may be acid/base labile, releasing an aldehyde.

> <s_lp_Force_Field>
OPLS_2005

> <r_lp_Energy>
40.7454

> <b_lp_Chiralities_Consistent>
1

> <s_lp_Variant>
AV-unprocessed.smi:107-15

> <Gold.Version>
5.8.1

> <Gold.Id.Protein>
6NUR|6NUR_protein|mol2

> <Gold.PLP.Fitness>
43.9158

> <Gold.PLP.PLP>
-28.2650

> <Gold.PLP.part.hbond>
-3.9970

> <Gold.PLP.part.metal>
0.0000

> <Gold.PLP.part.buried>
-0.6947

> <Gold.PLP.part.nonpolar>
-22.8988

> <Gold.PLP.part.repulsive>
0.2073

> <Gold.PLP.ligand.clash>
0.0000

> <Gold.PLP.ligand.torsion>
0.0523

> <Gold.PLP.Chemscore.Hbond>
4.2438

> <Gold.PLP.Chemscore.CHOScore>
1.0000

> <Gold.PLP.Chemscore.Metal>
0.0000

> <Gold.Chemscore.Hbonds>
donor molecule, donor type, donor heavy atom, donor atom, acceptor molecule, acceptor atom, score
      L1  H     8    26       P1 10175  0.84
      L1  H    11    30       P1 10175  1.00
      P1  H  7989  7998       L1    14  0.38
      P1  H  7997  8009       L1    15  1.85
      L1  C     3    21       P1  8028  1.00

> <Gold.PLP.Chemscore.Internal.Correction>
0.0242

> <Gold.Rescore>
     Score         DG    S(hbond)    S(metal)    S(lipo)     H(rot)  DE(clash)    DE(int)     intcor
     11.36     -12.38       2.66        0.00      41.74       2.69       0.62       0.40       ----

> <Gold.Chemscore.Fitness>
11.3570

> <Gold.Chemscore.DG>
-12.3823

> <Gold.Chemscore.ZeroCoef>
-5.4800

> <Gold.Chemscore.Hbond>
2.6639

> <Gold.Chemscore.Metal>
0.0000

> <Gold.Chemscore.Lipo>
41.7423

> <Gold.Chemscore.Internal_Hbond>
0.0000

> <Gold.Chemscore.DEClash>
0.6212

> <Gold.Chemscore.DEInternal>
0.4041

> <Gold.Chemscore.Rot>
2.6871

> <Gold.Chemscore.Internal.Correction>
   9.000000E+99

> <Gold.Chemscore.Hbonds>
donor molecule, donor type, donor heavy atom, donor atom, acceptor molecule, acceptor atom, score
      L1  H     8    26       P1 10175  0.75
      L1  H    11    30       P1 10175  0.90
      P1  H  7989  7998       L1    14  0.01
      P1  H  7997  8009       L1    15  0.50

> <Gold.Chemscore.Hbond.Weighted>
-8.8975

> <Gold.Chemscore.Metal.Weighted>
-0.0000

> <Gold.Chemscore.Lipo.Weighted>
-4.8838

> <Gold.Chemscore.Internal_Hbond.Weighted>
0.0000

> <Gold.Chemscore.DEClash.Weighted>
0.6212

> <Gold.Chemscore.DEInternal.Weighted>
0.4041

> <Gold.Chemscore.Rot.Weighted>
6.8791

> <Gold.Chemscore.Internal.Correction.Weighted>
   9.000000E+99

> <Gold.Protein.RotatedTorsions>
[ 6907 6896 6895 6894 ] final   59.06 input  -60.11 | X-H torsion
[ 7974 7965 7964 7962 ] final  -32.86 input  175.53 | X-H torsion
[ 8008 7997 7996 7995 ] final -168.24 input   59.86 | X-H torsion
[ 10167 10162 10161 10158 ] final  -83.94 input  -65.29 | X-H torsion
[ 10718 10713 10712 10709 ] final   -2.68 input   66.30 | X-H torsion
[ 10763 10752 10751 10750 ] final  -81.23 input  -60.55 | X-H torsion
[ 11005 11000 10999 10996 ] final   41.39 input  -57.11 | X-H torsion

> <Gold.Protein.ActiveResidues>
 VAL166  LYS551  ARG553  GLY616  TRP617  ASP618  TYR619  PRO620  LYS621  CYS622 
 ASP623  PHE694  ASN695  SER759  ASP760  ASP761  ALA762  ILE779  LEU786  VAL792 
 PHE793  MET794  SER795  GLU796  ALA797  LYS798  CYS799  TRP800  GLU811  SER814 

> <Gold.Protein.RotatedAtoms>
  152.3881  134.6485  160.0117 H   0  0  0  0  0  0  0  0  0  0  0  0  # atno 6907 bound_to 6896
  151.6728  133.3308  159.3208 H   0  0  0  0  0  0  0  0  0  0  0  0  # atno 6908 bound_to 6896
  150.7803  134.6785  159.6475 H   0  0  0  0  0  0  0  0  0  0  0  0  # atno 6909 bound_to 6896
  146.0956  140.5845  142.8844 H   0  0  0  0  0  0  0  0  0  0  0  0  # atno 7974 bound_to 7965
  155.8888  140.1021  157.1434 H   0  0  0  0  0  0  0  0  0  0  0  0  # atno 8008 bound_to 7997
  154.4012  140.1315  156.4353 H   0  0  0  0  0  0  0  0  0  0  0  0  # atno 8009 bound_to 7997
  155.7558  140.3464  155.5175 H   0  0  0  0  0  0  0  0  0  0  0  0  # atno 8010 bound_to 7997
  140.4179  143.2596  151.8929 H   0  0  0  0  0  0  0  0  0  0  0  0  # atno 10167 bound_to 10162
  156.7872  130.5350  149.5741 H   0  0  0  0  0  0  0  0  0  0  0  0  # atno 10718 bound_to 10713
  154.5610  135.5633  153.7007 H   0  0  0  0  0  0  0  0  0  0  0  0  # atno 10763 bound_to 10752
  153.0018  135.6274  154.2245 H   0  0  0  0  0  0  0  0  0  0  0  0  # atno 10764 bound_to 10752
  154.2183  135.2871  155.2914 H   0  0  0  0  0  0  0  0  0  0  0  0  # atno 10765 bound_to 10752
  140.1839  134.4069  155.8184 H   0  0  0  0  0  0  0  0  0  0  0  0  # atno 11005 bound_to 11000
  144.7393  140.4897  143.6881 LP  0  0  0  0  0  0  0  0  0  0  0  0  # atno 17320 bound_to 7965
  145.5954  139.1499  143.3159 LP  0  0  0  0  0  0  0  0  0  0  0  0  # atno 17321 bound_to 7965
  139.4782  144.5468  151.8446 LP  0  0  0  0  0  0  0  0  0  0  0  0  # atno 17342 bound_to 10162
  140.4566  144.1781  150.5902 LP  0  0  0  0  0  0  0  0  0  0  0  0  # atno 17343 bound_to 10162
  156.1181  130.6090  151.0152 LP  0  0  0  0  0  0  0  0  0  0  0  0  # atno 17370 bound_to 10713
  157.6618  131.0879  150.7820 LP  0  0  0  0  0  0  0  0  0  0  0  0  # atno 17371 bound_to 10713
  141.2224  133.7014  156.7979 LP  0  0  0  0  0  0  0  0  0  0  0  0  # atno 17394 bound_to 11000
  140.2236  134.8739  157.3403 LP  0  0  0  0  0  0  0  0  0  0  0  0  # atno 17395 bound_to 11000

$$$$
