AV-unprocessed.smi:2955|AV-procd|sdf|11301|dock2
  -GOLD-   2272016193D 1   1.00000     0.00000
 Structure written by MMmdl.
 45 47  0  0  0  0  0  0  0  0  1 V2000
  151.2765  140.8352  157.1774 C   0  0  0  0  0  0  0  0  0  0  0  0
  151.8088  141.4115  158.4731 C   0  0  0  0  0  0  0  0  0  0  0  0
  151.3278  142.6443  158.9564 C   0  0  0  0  0  0  0  0  0  0  0  0
  151.8306  143.1701  160.1607 C   0  0  0  0  0  0  0  0  0  0  0  0
  152.8118  142.4671  160.8862 C   0  0  0  0  0  0  0  0  0  0  0  0
  153.3004  141.2233  160.4129 C   0  0  0  0  0  0  0  0  0  0  0  0
  154.2522  140.4665  161.0620 O   0  0  0  0  0  0  0  0  0  0  0  0
  154.4331  140.6653  162.4576 C   0  0  0  0  0  0  0  0  0  0  0  0
  155.6782  139.9054  162.9358 C   0  0  0  0  0  0  0  0  0  0  0  0
  155.6732  139.6924  164.3773 N   0  0  0  0  0  0  0  0  0  0  0  0
  155.8545  138.5424  165.0811 C   0  0  0  0  0  0  0  0  0  0  0  0
  156.1063  137.2057  164.4283 C   0  0  2  0  0  0  0  0  0  0  0  0
  154.8653  136.6742  163.6969 C   0  0  0  0  0  0  0  0  0  0  0  0
  156.5312  136.2613  165.4562 N   0  0  0  0  0  0  0  0  0  0  0  0
  157.7276  135.6612  165.4791 C   0  0  0  0  0  0  0  0  0  0  0  0
  158.5906  135.8491  164.6256 O   0  0  0  0  0  0  0  0  0  0  0  0
  155.8238  138.6732  166.4103 N   0  0  0  0  0  0  0  0  0  0  0  0
  155.5697  140.0180  166.5840 C   0  0  0  0  0  0  0  0  0  0  0  0
  155.4071  140.7769  167.7650 C   0  0  0  0  0  0  0  0  0  0  0  0
  155.1475  142.1612  167.6935 C   0  0  0  0  0  0  0  0  0  0  0  0
  155.0484  142.8047  166.4431 C   0  0  0  0  0  0  0  0  0  0  0  0
  155.2095  142.0665  165.2547 C   0  0  0  0  0  0  0  0  0  0  0  0
  155.4674  140.6845  165.3316 C   0  0  0  0  0  0  0  0  0  0  0  0
  152.7894  140.7096  159.2029 C   0  0  0  0  0  0  0  0  0  0  0  0
  150.6467  141.5536  156.6519 H   0  0  0  0  0  0  0  0  0  0  0  0
  150.6834  139.9428  157.3778 H   0  0  0  0  0  0  0  0  0  0  0  0
  152.1000  140.5604  156.5182 H   0  0  0  0  0  0  0  0  0  0  0  0
  150.5741  143.1901  158.4077 H   0  0  0  0  0  0  0  0  0  0  0  0
  151.4620  144.1153  160.5304 H   0  0  0  0  0  0  0  0  0  0  0  0
  153.1710  142.9037  161.8054 H   0  0  0  0  0  0  0  0  0  0  0  0
  154.5546  141.7289  162.6677 H   0  0  0  0  0  0  0  0  0  0  0  0
  153.5613  140.3107  163.0099 H   0  0  0  0  0  0  0  0  0  0  0  0
  155.7860  138.9549  162.4153 H   0  0  0  0  0  0  0  0  0  0  0  0
  156.5703  140.4778  162.6801 H   0  0  0  0  0  0  0  0  0  0  0  0
  156.8984  137.2854  163.6860 H   0  0  0  0  0  0  0  0  0  0  0  0
  154.5242  137.3831  162.9429 H   0  0  0  0  0  0  0  0  0  0  0  0
  154.0370  136.5023  164.3850 H   0  0  0  0  0  0  0  0  0  0  0  0
  155.0795  135.7313  163.1931 H   0  0  0  0  0  0  0  0  0  0  0  0
  155.8767  136.0585  166.1977 H   0  0  0  0  0  0  0  0  0  0  0  0
  157.8337  134.9886  166.3448 H   0  0  0  0  0  0  0  0  0  0  0  0
  155.4806  140.2926  168.7275 H   0  0  0  0  0  0  0  0  0  0  0  0
  155.0233  142.7318  168.6021 H   0  0  0  0  0  0  0  0  0  0  0  0
  154.8491  143.8654  166.3965 H   0  0  0  0  0  0  0  0  0  0  0  0
  155.1335  142.5573  164.2960 H   0  0  0  0  0  0  0  0  0  0  0  0
  153.1564  139.7652  158.8290 H   0  0  0  0  0  0  0  0  0  0  0  0
  1  2  1  0  0  0  0
  1 25  1  0  0  0  0
  1 26  1  0  0  0  0
  1 27  1  0  0  0  0
  2 24  1  0  0  0  0
  2  3  2  0  0  0  0
  3  4  1  0  0  0  0
  3 28  1  0  0  0  0
  4  5  2  0  0  0  0
  4 29  1  0  0  0  0
  5  6  1  0  0  0  0
  5 30  1  0  0  0  0
  6  7  1  0  0  0  0
  6 24  2  0  0  0  0
  7  8  1  0  0  0  0
  8  9  1  0  0  0  0
  8 31  1  0  0  0  0
  8 32  1  0  0  0  0
  9 10  1  0  0  0  0
  9 33  1  0  0  0  0
  9 34  1  0  0  0  0
 10 23  1  0  0  0  0
 10 11  1  0  0  0  0
 11 12  1  0  0  0  0
 11 17  2  0  0  0  0
 12 13  1  0  0  0  0
 12 14  1  0  0  0  0
 12 35  1  0  0  0  0
 13 36  1  0  0  0  0
 13 37  1  0  0  0  0
 13 38  1  0  0  0  0
 14 15  1  0  0  0  0
 14 39  1  0  0  0  0
 15 16  2  0  0  0  0
 15 40  1  0  0  0  0
 17 18  1  0  0  0  0
 18 23  2  0  0  0  0
 18 19  1  0  0  0  0
 19 20  2  0  0  0  0
 19 41  1  0  0  0  0
 20 21  1  0  0  0  0
 20 42  1  0  0  0  0
 21 22  2  0  0  0  0
 21 43  1  0  0  0  0
 22 23  1  0  0  0  0
 22 44  1  0  0  0  0
 24 45  1  0  0  0  0
M  END
> <s_m_source_file>
AV-unprocessed.smi

> <i_m_source_file_index>
2955

> <i_lp_mmshare_version>
43012

> <i_f3d_flags>
0

> <s_epik_input>
W0NIM11jMVtjSF1bY0hdW2NIXWMoW2NIXTEpT1tDSDJdW0NIMl1uKGMobjIpW0NASF0oW0NIM10pW05IXVtDSF09TyljKGMyMylbY0hdW2NIXVtjSF1bY0hdMw==

> <s_epik_cmdline>
J2VwaWtfcHl0aG9uJywgJy1waCcsICc3LjAnLCAnLXRuJywgJzgnLCAnLW1hJywgJzIwMCcsICctbWV0YWxfYmluZGluZycsICctaW1hZScsICc8aW5maWxlLm1hZT4nLCAnLW9tYWUnLCAnPG91dGZpbGUubWFlPic=

> <r_lp_tautomer_probability>
1

> <r_epik_Ionization_Penalty>
0.0917757

> <r_epik_Ionization_Penalty_Charging>
0

> <r_epik_Ionization_Penalty_Neutral>
0.0917757

> <r_epik_State_Penalty>
0.0820948

> <r_epik_Charging_Adjusted_Penalty>
0.0820948

> <i_epik_Tot_Q>
0

> <i_epik_Tot_abs_Q>
0

> <r_epik_Metal_State_Penalty>
0.0709956

> <b_epik_Metal_Only>
0

> <s_lp_Force_Field>
OPLS_2005

> <r_lp_Energy>
12.8811

> <b_lp_Chiralities_Consistent>
1

> <s_lp_Variant>
AV-unprocessed.smi:2955-1

> <Gold.Version>
5.8.1

> <Gold.Id.Protein>
6NUR|6NUR_protein|mol2

> <Gold.PLP.Fitness>
47.0930

> <Gold.PLP.PLP>
-48.3360

> <Gold.PLP.part.hbond>
-1.8352

> <Gold.PLP.part.metal>
0.0000

> <Gold.PLP.part.buried>
-6.3322

> <Gold.PLP.part.nonpolar>
-40.2695

> <Gold.PLP.part.repulsive>
0.1857

> <Gold.PLP.ligand.clash>
0.0000

> <Gold.PLP.ligand.torsion>
0.7049

> <Gold.PLP.Chemscore.Hbond>
0.0000

> <Gold.PLP.Chemscore.CHOScore>
0.0000

> <Gold.PLP.Chemscore.Metal>
0.0000

> <Gold.PLP.Chemscore.Internal.Correction>
0.1668

> <Gold.Rescore>
     Score         DG    S(hbond)    S(metal)    S(lipo)     H(rot)  DE(clash)    DE(int)     intcor
     16.06     -16.59       0.00        0.00     144.43       2.26       0.02       0.51       ----

> <Gold.Chemscore.Fitness>
16.0578

> <Gold.Chemscore.DG>
-16.5877

> <Gold.Chemscore.ZeroCoef>
-5.4800

> <Gold.Chemscore.Hbond>
0.0000

> <Gold.Chemscore.Metal>
0.0000

> <Gold.Chemscore.Lipo>
144.4295

> <Gold.Chemscore.Internal_Hbond>
0.0000

> <Gold.Chemscore.DEClash>
0.0161

> <Gold.Chemscore.DEInternal>
0.5139

> <Gold.Chemscore.Rot>
2.2619

> <Gold.Chemscore.Internal.Correction>
   9.000000E+99

> <Gold.Chemscore.Hbond.Weighted>
-0.0000

> <Gold.Chemscore.Metal.Weighted>
-0.0000

> <Gold.Chemscore.Lipo.Weighted>
-16.8983

> <Gold.Chemscore.Internal_Hbond.Weighted>
0.0000

> <Gold.Chemscore.DEClash.Weighted>
0.0161

> <Gold.Chemscore.DEInternal.Weighted>
0.5139

> <Gold.Chemscore.Rot.Weighted>
5.7906

> <Gold.Chemscore.Internal.Correction.Weighted>
   9.000000E+99

> <Gold.Protein.RotatedTorsions>
[ 6907 6896 6895 6894 ] final  174.68 input  -60.11 | X-H torsion
[ 7974 7965 7964 7962 ] final  -67.44 input  175.53 | X-H torsion
[ 8008 7997 7996 7995 ] final   -6.62 input   59.86 | X-H torsion
[ 10167 10162 10161 10158 ] final -122.95 input  -65.29 | X-H torsion
[ 10718 10713 10712 10709 ] final  130.71 input   66.30 | X-H torsion
[ 10763 10752 10751 10750 ] final -146.57 input  -60.55 | X-H torsion
[ 11005 11000 10999 10996 ] final   89.50 input  -57.11 | X-H torsion

> <Gold.Protein.ActiveResidues>
 VAL166  LYS551  ARG553  GLY616  TRP617  ASP618  TYR619  PRO620  LYS621  CYS622 
 ASP623  PHE694  ASN695  SER759  ASP760  ASP761  ALA762  ILE779  LEU786  VAL792 
 PHE793  MET794  SER795  GLU796  ALA797  LYS798  CYS799  TRP800  GLU811  SER814 

> <Gold.Protein.RotatedAtoms>
  151.7485  133.3326  159.3384 H   0  0  0  0  0  0  0  0  0  0  0  0  # atno 6907 bound_to 6896
  150.7545  134.6214  159.6147 H   0  0  0  0  0  0  0  0  0  0  0  0  # atno 6908 bound_to 6896
  152.3484  134.7041  160.0295 H   0  0  0  0  0  0  0  0  0  0  0  0  # atno 6909 bound_to 6896
  145.7291  140.9005  143.0589 H   0  0  0  0  0  0  0  0  0  0  0  0  # atno 7974 bound_to 7965
  154.5919  140.2428  155.7909 H   0  0  0  0  0  0  0  0  0  0  0  0  # atno 8008 bound_to 7997
  156.2253  140.2984  156.0006 H   0  0  0  0  0  0  0  0  0  0  0  0  # atno 8009 bound_to 7997
  155.2359  140.0405  157.2959 H   0  0  0  0  0  0  0  0  0  0  0  0  # atno 8010 bound_to 7997
  140.0088  143.5464  152.2272 H   0  0  0  0  0  0  0  0  0  0  0  0  # atno 10167 bound_to 10162
  157.5037  131.1095  150.9392 H   0  0  0  0  0  0  0  0  0  0  0  0  # atno 10718 bound_to 10713
  154.8329  135.3383  154.6682 H   0  0  0  0  0  0  0  0  0  0  0  0  # atno 10763 bound_to 10752
  153.7299  135.6952  153.4996 H   0  0  0  0  0  0  0  0  0  0  0  0  # atno 10764 bound_to 10752
  153.2319  135.4413  155.0557 H   0  0  0  0  0  0  0  0  0  0  0  0  # atno 10765 bound_to 10752
  139.8874  134.8555  156.3150 H   0  0  0  0  0  0  0  0  0  0  0  0  # atno 11005 bound_to 11000
  144.6897  139.9307  143.7471 LP  0  0  0  0  0  0  0  0  0  0  0  0  # atno 17320 bound_to 7965
  146.0554  139.3551  143.0614 LP  0  0  0  0  0  0  0  0  0  0  0  0  # atno 17321 bound_to 7965
  139.6220  144.7630  151.2720 LP  0  0  0  0  0  0  0  0  0  0  0  0  # atno 17342 bound_to 10162
  140.7390  143.6632  150.8146 LP  0  0  0  0  0  0  0  0  0  0  0  0  # atno 17343 bound_to 10162
  157.0054  130.5616  149.5315 LP  0  0  0  0  0  0  0  0  0  0  0  0  # atno 17370 bound_to 10713
  156.0245  130.5339  150.8367 LP  0  0  0  0  0  0  0  0  0  0  0  0  # atno 17371 bound_to 10713
  140.9825  133.7259  156.0692 LP  0  0  0  0  0  0  0  0  0  0  0  0  # atno 17394 bound_to 11000
  140.7731  134.3810  157.5503 LP  0  0  0  0  0  0  0  0  0  0  0  0  # atno 17395 bound_to 11000

$$$$
