AV-unprocessed.smi:2973|AV-procd|sdf|11339|dock1
  -GOLD-   2272016253D 1   1.00000     0.00000
 Structure written by MMmdl.
 49 51  0  0  0  0  0  0  0  0  1 V2000
  147.1176  137.7086  155.8787 C   0  0  0  0  0  0  0  0  0  0  0  0
  146.5764  138.2263  154.5283 C   0  0  2  0  0  0  0  0  0  0  0  0
  146.2129  137.0389  153.6102 C   0  0  0  0  0  0  0  0  0  0  0  0
  145.6026  137.5053  152.2790 C   0  0  0  0  0  0  0  0  0  0  0  0
  146.5356  138.4799  151.5469 C   0  0  0  0  0  0  0  0  0  0  0  0
  146.8933  139.6757  152.4439 C   0  0  0  0  0  0  0  0  0  0  0  0
  147.5182  139.2252  153.7861 C   0  0  2  0  0  0  0  0  0  0  0  0
  148.8489  138.6773  153.5815 N   0  0  0  0  0  0  0  0  0  0  0  0
  149.8081  139.4005  154.1722 C   0  0  0  0  0  0  0  0  0  0  0  0
  151.0087  139.1355  154.1525 O   0  0  0  0  0  0  0  0  0  0  0  0
  149.2292  140.4437  154.7946 N   0  0  0  0  0  0  0  0  0  0  0  0
  149.9606  141.4436  155.5877 C   0  0  0  0  0  0  0  0  0  0  0  0
  150.1928  141.0624  157.0606 C   0  0  0  0  0  0  0  0  0  0  0  0
  149.2197  140.9189  157.7997 O   0  0  0  0  0  0  0  0  0  0  0  0
  151.4575  140.9072  157.4881 N   0  0  0  0  0  0  0  0  0  0  0  0
  151.8534  140.5734  158.8500 C   0  0  0  0  0  0  0  0  0  0  0  0
  153.0075  141.4672  159.3320 C   0  0  0  0  0  0  0  0  0  0  0  0
  152.5643  142.8980  159.5704 C   0  0  0  0  0  0  0  0  0  0  0  0
  152.2766  143.7525  158.4848 C   0  0  0  0  0  0  0  0  0  0  0  0
  151.8620  145.0699  158.7597 C   0  0  0  0  0  0  0  0  0  0  0  0
  151.7505  145.4798  160.1023 C   0  0  0  0  0  0  0  0  0  0  0  0
  152.0600  144.5496  161.1147 C   0  0  0  0  0  0  0  0  0  0  0  0
  152.4578  143.2838  160.8621 N   0  0  0  0  0  0  0  0  0  0  0  0
  147.8984  140.4331  154.6335 C   0  0  0  0  0  0  0  0  0  0  0  0
  147.0875  141.2381  155.0917 O   0  0  0  0  0  0  0  0  0  0  0  0
  148.0587  137.1710  155.7588 H   0  0  0  0  0  0  0  0  0  0  0  0
  146.4081  137.0238  156.3436 H   0  0  0  0  0  0  0  0  0  0  0  0
  147.2836  138.5198  156.5872 H   0  0  0  0  0  0  0  0  0  0  0  0
  145.6464  138.7544  154.7462 H   0  0  0  0  0  0  0  0  0  0  0  0
  147.1007  136.4372  153.4121 H   0  0  0  0  0  0  0  0  0  0  0  0
  145.5059  136.3809  154.1168 H   0  0  0  0  0  0  0  0  0  0  0  0
  145.3943  136.6438  151.6440 H   0  0  0  0  0  0  0  0  0  0  0  0
  144.6435  137.9897  152.4670 H   0  0  0  0  0  0  0  0  0  0  0  0
  147.4439  137.9600  151.2400 H   0  0  0  0  0  0  0  0  0  0  0  0
  146.0593  138.8327  150.6316 H   0  0  0  0  0  0  0  0  0  0  0  0
  147.5703  140.3434  151.9086 H   0  0  0  0  0  0  0  0  0  0  0  0
  145.9882  140.2542  152.6360 H   0  0  0  0  0  0  0  0  0  0  0  0
  149.0166  137.8345  153.0513 H   0  0  0  0  0  0  0  0  0  0  0  0
  150.9310  141.6374  155.1277 H   0  0  0  0  0  0  0  0  0  0  0  0
  149.4316  142.3977  155.5623 H   0  0  0  0  0  0  0  0  0  0  0  0
  152.2014  141.0398  156.8188 H   0  0  0  0  0  0  0  0  0  0  0  0
  150.9977  140.6555  159.5225 H   0  0  0  0  0  0  0  0  0  0  0  0
  152.1605  139.5272  158.8635 H   0  0  0  0  0  0  0  0  0  0  0  0
  153.4278  141.0683  160.2565 H   0  0  0  0  0  0  0  0  0  0  0  0
  153.8176  141.4633  158.6016 H   0  0  0  0  0  0  0  0  0  0  0  0
  152.3691  143.4077  157.4653 H   0  0  0  0  0  0  0  0  0  0  0  0
  151.6324  145.7531  157.9553 H   0  0  0  0  0  0  0  0  0  0  0  0
  151.4350  146.4824  160.3503 H   0  0  0  0  0  0  0  0  0  0  0  0
  151.9854  144.8294  162.1549 H   0  0  0  0  0  0  0  0  0  0  0  0
  1  2  1  0  0  0  0
  1 26  1  0  0  0  0
  1 27  1  0  0  0  0
  1 28  1  0  0  0  0
  2  7  1  0  0  0  0
  2  3  1  0  0  0  0
  2 29  1  0  0  0  0
  3  4  1  0  0  0  0
  3 30  1  0  0  0  0
  3 31  1  0  0  0  0
  4  5  1  0  0  0  0
  4 32  1  0  0  0  0
  4 33  1  0  0  0  0
  5  6  1  0  0  0  0
  5 34  1  0  0  0  0
  5 35  1  0  0  0  0
  6  7  1  0  0  0  0
  6 36  1  0  0  0  0
  6 37  1  0  0  0  0
  7 24  1  0  0  0  0
  7  8  1  0  0  0  0
  8  9  1  0  0  0  0
  8 38  1  0  0  0  0
  9 10  2  0  0  0  0
  9 11  1  0  0  0  0
 11 12  1  0  0  0  0
 11 24  1  0  0  0  0
 12 13  1  0  0  0  0
 12 39  1  0  0  0  0
 12 40  1  0  0  0  0
 13 14  2  0  0  0  0
 13 15  1  0  0  0  0
 15 16  1  0  0  0  0
 15 41  1  0  0  0  0
 16 17  1  0  0  0  0
 16 42  1  0  0  0  0
 16 43  1  0  0  0  0
 17 18  1  0  0  0  0
 17 44  1  0  0  0  0
 17 45  1  0  0  0  0
 18 23  1  0  0  0  0
 18 19  2  0  0  0  0
 19 20  1  0  0  0  0
 19 46  1  0  0  0  0
 20 21  2  0  0  0  0
 20 47  1  0  0  0  0
 21 22  1  0  0  0  0
 21 48  1  0  0  0  0
 22 23  2  0  0  0  0
 22 49  1  0  0  0  0
 24 25  2  0  0  0  0
M  END
> <s_m_source_file>
AV-unprocessed.smi

> <i_m_source_file_index>
2973

> <i_lp_mmshare_version>
43012

> <i_f3d_flags>
0

> <s_epik_input>
W0NIMl0xW0NIMl1bQ0gyXVtDSDJdW0NAQEhdKFtDSDNdKVtDQF0xMltOSF1DKD1PKU4oQzI9TylbQ0gyXUMoPU8pW05IXVtDSDJdW0NIMl1jM1tjSF1bY0hdW2NIXVtjSF1uMw==

> <s_epik_cmdline>
J2VwaWtfcHl0aG9uJywgJy1waCcsICc3LjAnLCAnLXRuJywgJzgnLCAnLW1hJywgJzIwMCcsICctbWV0YWxfYmluZGluZycsICctaW1hZScsICc8aW5maWxlLm1hZT4nLCAnLW9tYWUnLCAnPG91dGZpbGUubWFlPic=

> <r_lp_tautomer_probability>
1

> <r_epik_Ionization_Penalty>
0.0245152

> <r_epik_Ionization_Penalty_Charging>
0

> <r_epik_Ionization_Penalty_Neutral>
0.0245152

> <r_epik_State_Penalty>
0.0198648

> <r_epik_Charging_Adjusted_Penalty>
0.0198648

> <i_epik_Tot_Q>
0

> <i_epik_Tot_abs_Q>
0

> <r_epik_Metal_State_Penalty>
0.0400162

> <b_epik_Metal_Only>
0

> <s_lp_Force_Field>
OPLS_2005

> <r_lp_Energy>
21.7018

> <b_lp_Chiralities_Consistent>
1

> <s_lp_Variant>
AV-unprocessed.smi:2973-3

> <Gold.Version>
5.8.1

> <Gold.Id.Protein>
6NUR|6NUR_protein|mol2

> <Gold.PLP.Fitness>
52.4327

> <Gold.PLP.PLP>
-47.9722

> <Gold.PLP.part.hbond>
-3.0000

> <Gold.PLP.part.metal>
0.0000

> <Gold.PLP.part.buried>
-2.5828

> <Gold.PLP.part.nonpolar>
-44.0154

> <Gold.PLP.part.repulsive>
0.4897

> <Gold.PLP.ligand.clash>
0.0000

> <Gold.PLP.ligand.torsion>
0.6402

> <Gold.PLP.Chemscore.Hbond>
1.9000

> <Gold.PLP.Chemscore.CHOScore>
0.0000

> <Gold.PLP.Chemscore.Metal>
0.0000

> <Gold.Chemscore.Hbonds>
donor molecule, donor type, donor heavy atom, donor atom, acceptor molecule, acceptor atom, score
      L1  H     8    38       P1  7948  1.00
      P1  H  7989  7998       L1    10  0.90

> <Gold.PLP.Chemscore.Internal.Correction>
0.0408

> <Gold.Rescore>
     Score         DG    S(hbond)    S(metal)    S(lipo)     H(rot)  DE(clash)    DE(int)     intcor
     17.87     -18.68       1.26        0.00     117.42       1.86       0.20       0.60       ----

> <Gold.Chemscore.Fitness>
17.8713

> <Gold.Chemscore.DG>
-18.6811

> <Gold.Chemscore.ZeroCoef>
-5.4800

> <Gold.Chemscore.Hbond>
1.2612

> <Gold.Chemscore.Metal>
0.0000

> <Gold.Chemscore.Lipo>
117.4212

> <Gold.Chemscore.Internal_Hbond>
0.0000

> <Gold.Chemscore.DEClash>
0.2049

> <Gold.Chemscore.DEInternal>
0.6049

> <Gold.Chemscore.Rot>
1.8553

> <Gold.Chemscore.Internal.Correction>
   9.000000E+99

> <Gold.Chemscore.Hbonds>
donor molecule, donor type, donor heavy atom, donor atom, acceptor molecule, acceptor atom, score
      L1  H     8    38       P1  7948  0.98
      P1  H  7989  7998       L1    10  0.18

> <Gold.Chemscore.Hbond.Weighted>
-4.2125

> <Gold.Chemscore.Metal.Weighted>
-0.0000

> <Gold.Chemscore.Lipo.Weighted>
-13.7383

> <Gold.Chemscore.Internal_Hbond.Weighted>
0.0000

> <Gold.Chemscore.DEClash.Weighted>
0.2049

> <Gold.Chemscore.DEInternal.Weighted>
0.6049

> <Gold.Chemscore.Rot.Weighted>
4.7497

> <Gold.Chemscore.Internal.Correction.Weighted>
   9.000000E+99

> <Gold.Protein.RotatedTorsions>
[ 6907 6896 6895 6894 ] final   50.29 input  -60.11 | X-H torsion
[ 7974 7965 7964 7962 ] final -144.65 input  175.53 | X-H torsion
[ 8008 7997 7996 7995 ] final  -14.24 input   59.86 | X-H torsion
[ 10167 10162 10161 10158 ] final  -58.79 input  -65.29 | X-H torsion
[ 10718 10713 10712 10709 ] final -141.00 input   66.30 | X-H torsion
[ 10763 10752 10751 10750 ] final  -70.54 input  -60.55 | X-H torsion
[ 11005 11000 10999 10996 ] final   73.15 input  -57.11 | X-H torsion

> <Gold.Protein.ActiveResidues>
 VAL166  LYS551  ARG553  GLY616  TRP617  ASP618  TYR619  PRO620  LYS621  CYS622 
 ASP623  PHE694  ASN695  SER759  ASP760  ASP761  ALA762  ILE779  LEU786  VAL792 
 PHE793  MET794  SER795  GLU796  ALA797  LYS798  CYS799  TRP800  GLU811  SER814 

> <Gold.Protein.RotatedAtoms>
  152.3001  134.7620  160.0359 H   0  0  0  0  0  0  0  0  0  0  0  0  # atno 6907 bound_to 6896
  151.8137  133.3380  159.3571 H   0  0  0  0  0  0  0  0  0  0  0  0  # atno 6908 bound_to 6896
  150.7270  134.5570  159.5867 H   0  0  0  0  0  0  0  0  0  0  0  0  # atno 6909 bound_to 6896
  144.8282  140.5683  143.5533 H   0  0  0  0  0  0  0  0  0  0  0  0  # atno 7974 bound_to 7965
  154.5226  140.2228  155.8948 H   0  0  0  0  0  0  0  0  0  0  0  0  # atno 8008 bound_to 7997
  156.1678  140.3128  155.8885 H   0  0  0  0  0  0  0  0  0  0  0  0  # atno 8009 bound_to 7997
  155.3620  140.0461  157.3037 H   0  0  0  0  0  0  0  0  0  0  0  0  # atno 8010 bound_to 7997
  140.6175  143.2407  151.5561 H   0  0  0  0  0  0  0  0  0  0  0  0  # atno 10167 bound_to 10162
  156.3289  130.7575  151.1689 H   0  0  0  0  0  0  0  0  0  0  0  0  # atno 10718 bound_to 10713
  154.4191  135.5991  153.5999 H   0  0  0  0  0  0  0  0  0  0  0  0  # atno 10763 bound_to 10752
  152.9793  135.5948  154.3976 H   0  0  0  0  0  0  0  0  0  0  0  0  # atno 10764 bound_to 10752
  154.3799  135.2841  155.2195 H   0  0  0  0  0  0  0  0  0  0  0  0  # atno 10765 bound_to 10752
  139.9455  134.7321  156.0991 H   0  0  0  0  0  0  0  0  0  0  0  0  # atno 11005 bound_to 11000
  145.4953  139.1486  143.3687 LP  0  0  0  0  0  0  0  0  0  0  0  0  # atno 17320 bound_to 7965
  146.2587  140.5092  142.8863 LP  0  0  0  0  0  0  0  0  0  0  0  0  # atno 17321 bound_to 7965
  139.5411  144.2646  152.1352 LP  0  0  0  0  0  0  0  0  0  0  0  0  # atno 17342 bound_to 10162
  140.1859  144.4799  150.6504 LP  0  0  0  0  0  0  0  0  0  0  0  0  # atno 17343 bound_to 10162
  157.7426  131.0487  150.5007 LP  0  0  0  0  0  0  0  0  0  0  0  0  # atno 17370 bound_to 10713
  156.5170  130.4153  149.6270 LP  0  0  0  0  0  0  0  0  0  0  0  0  # atno 17371 bound_to 10713
  141.1103  133.6645  156.2963 LP  0  0  0  0  0  0  0  0  0  0  0  0  # atno 17394 bound_to 11000
  140.5846  134.5711  157.5487 LP  0  0  0  0  0  0  0  0  0  0  0  0  # atno 17395 bound_to 11000

$$$$
