AV-unprocessed.smi:703|AV-procd|sdf|3433|dock2
  -GOLD-   22720 0423D 1   1.00000     0.00000
 Structure written by MMmdl.
 38 39  0  0  0  0  0  0  0  0  2 V2000
  146.4609  132.9998  151.7248 C   0  0  0  0  0  0  0  0  0  0  0  0
  146.3951  133.8893  152.9737 C   0  0  0  0  0  0  0  0  0  0  0  0
  147.7372  134.3375  153.4151 N   0  3  2  0  0  0  0  0  0  0  0  0
  148.6741  133.2478  153.7667 C   0  0  0  0  0  0  0  0  0  0  0  0
  149.6404  133.8593  154.7798 C   0  0  2  0  0  0  0  0  0  0  0  0
  150.4636  132.8425  155.5881 C   0  0  0  0  0  0  0  0  0  0  0  0
  148.7422  134.8093  155.5818 C   0  0  2  0  0  0  0  0  0  0  0  0
  148.0651  134.1089  156.6804 N   0  0  0  0  0  0  0  0  0  0  0  0
  148.4828  134.3581  158.3365 S   0  0  0  0  0  0  0  0  0  0  0  0
  148.3638  133.0660  159.0299 O   0  0  0  0  0  0  0  0  0  0  0  0
  149.7576  135.0911  158.3423 O   0  0  0  0  0  0  0  0  0  0  0  0
  147.1613  135.5118  158.9226 C   0  0  0  0  0  0  0  0  0  0  0  0
  147.3381  135.8525  160.3763 C   0  0  0  0  0  0  0  0  0  0  0  0
  147.3786  134.9671  161.4891 C   0  0  0  0  0  0  0  0  0  0  0  0
  147.5467  135.8019  162.5562 C   0  0  0  0  0  0  0  0  0  0  0  0
  147.5976  137.0935  162.1450 O   0  0  0  0  0  0  0  0  0  0  0  0
  147.4553  137.1162  160.7530 N   0  0  0  0  0  0  0  0  0  0  0  0
  147.7148  135.2981  154.5454 C   0  0  0  0  0  0  0  0  0  0  0  0
  145.4583  132.7371  151.3867 H   0  0  0  0  0  0  0  0  0  0  0  0
  146.9938  132.0690  151.9204 H   0  0  0  0  0  0  0  0  0  0  0  0
  146.9635  133.5100  150.9029 H   0  0  0  0  0  0  0  0  0  0  0  0
  145.7926  134.7689  152.7429 H   0  0  0  0  0  0  0  0  0  0  0  0
  145.8902  133.3674  153.7880 H   0  0  0  0  0  0  0  0  0  0  0  0
  148.1281  132.4228  154.2277 H   0  0  0  0  0  0  0  0  0  0  0  0
  149.1863  132.8607  152.8853 H   0  0  0  0  0  0  0  0  0  0  0  0
  150.3450  134.4799  154.2232 H   0  0  0  0  0  0  0  0  0  0  0  0
  149.8287  132.1416  156.1305 H   0  0  0  0  0  0  0  0  0  0  0  0
  151.1032  133.3452  156.3130 H   0  0  0  0  0  0  0  0  0  0  0  0
  151.1073  132.2575  154.9309 H   0  0  0  0  0  0  0  0  0  0  0  0
  149.3146  135.6409  155.9927 H   0  0  0  0  0  0  0  0  0  0  0  0
  147.1486  133.7009  156.4969 H   0  0  0  0  0  0  0  0  0  0  0  0
  147.2168  136.4149  158.3140 H   0  0  0  0  0  0  0  0  0  0  0  0
  146.1911  135.0532  158.7331 H   0  0  0  0  0  0  0  0  0  0  0  0
  147.2972  133.8908  161.5033 H   0  0  0  0  0  0  0  0  0  0  0  0
  147.6395  135.6387  163.6197 H   0  0  0  0  0  0  0  0  0  0  0  0
  148.0024  136.2768  154.1605 H   0  0  0  0  0  0  0  0  0  0  0  0
  146.7174  135.4067  154.9753 H   0  0  0  0  0  0  0  0  0  0  0  0
  148.1536  134.8365  152.6420 H   0  0  0  0  0  0  0  0  0  0  0  0
  1  2  1  0  0  0  0
  1 19  1  0  0  0  0
  1 20  1  0  0  0  0
  1 21  1  0  0  0  0
  2  3  1  0  0  0  0
  2 22  1  0  0  0  0
  2 23  1  0  0  0  0
  3 18  1  0  0  0  0
  3  4  1  0  0  0  0
  3 38  1  0  0  0  0
  4  5  1  0  0  0  0
  4 24  1  0  0  0  0
  4 25  1  0  0  0  0
  5  6  1  0  0  0  0
  5  7  1  0  0  0  0
  5 26  1  0  0  0  0
  6 27  1  0  0  0  0
  6 28  1  0  0  0  0
  6 29  1  0  0  0  0
  7  8  1  0  0  0  0
  7 18  1  0  0  0  0
  7 30  1  0  0  0  0
  8  9  1  0  0  0  0
  8 31  1  0  0  0  0
  9 10  2  0  0  0  0
  9 11  2  0  0  0  0
  9 12  1  0  0  0  0
 12 13  1  0  0  0  0
 12 32  1  0  0  0  0
 12 33  1  0  0  0  0
 13 17  2  0  0  0  0
 13 14  1  0  0  0  0
 14 15  2  0  0  0  0
 14 34  1  0  0  0  0
 15 16  1  0  0  0  0
 15 35  1  0  0  0  0
 16 17  1  0  0  0  0
 18 36  1  0  0  0  0
 18 37  1  0  0  0  0
M  CHG  1   3   1
M  END
> <s_m_source_file>
AV-unprocessed.smi

> <i_m_source_file_index>
703

> <i_lp_mmshare_version>
43012

> <i_f3d_flags>
0

> <s_epik_input>
W0NIM11bQ0gyXU4xW0NIMl1bQ0BASF0oW0NIM10pW0NASF0oW0NIMl0xKVtOSF1TKD1PKSg9TylbQ0gyXWMyW2NIXVtjSF1vbjI=

> <s_epik_cmdline>
J2VwaWtfcHl0aG9uJywgJy1waCcsICc3LjAnLCAnLXRuJywgJzgnLCAnLW1hJywgJzIwMCcsICctbWV0YWxfYmluZGluZycsICctaW1hZScsICc8aW5maWxlLm1hZT4nLCAnLW9tYWUnLCAnPG91dGZpbGUubWFlPic=

> <r_epik_Ionization_Penalty>
0.00324529

> <r_epik_Ionization_Penalty_Charging>
0.0019384

> <r_epik_Ionization_Penalty_Neutral>
0.00130689

> <r_epik_State_Penalty>
0.00218682

> <r_epik_Charging_Adjusted_Penalty>
0.00412522

> <i_epik_Tot_Q>
1

> <i_epik_Tot_abs_Q>
1

> <r_epik_Metal_State_Penalty>
0.310831

> <b_epik_Metal_Only>
0

> <s_lp_Force_Field>
OPLS_2005

> <r_lp_Energy>
18.8873

> <b_lp_Chiralities_Consistent>
1

> <s_lp_Variant>
AV-unprocessed.smi:703-8

> <Gold.Version>
5.8.1

> <Gold.Id.Protein>
6NUR|6NUR_protein|mol2

> <Gold.PLP.Fitness>
39.7168

> <Gold.PLP.PLP>
-28.8034

> <Gold.PLP.part.hbond>
-6.2613

> <Gold.PLP.part.metal>
0.0000

> <Gold.PLP.part.buried>
-2.4871

> <Gold.PLP.part.nonpolar>
-19.8173

> <Gold.PLP.part.repulsive>
0.0160

> <Gold.PLP.ligand.clash>
0.0000

> <Gold.PLP.ligand.torsion>
0.7393

> <Gold.PLP.Chemscore.Hbond>
3.7440

> <Gold.PLP.Chemscore.CHOScore>
0.0000

> <Gold.PLP.Chemscore.Metal>
0.0000

> <Gold.Chemscore.Hbonds>
donor molecule, donor type, donor heavy atom, donor atom, acceptor molecule, acceptor atom, score
      L1  H     3    38       P1  7948  2.00
      P1  H  6896  6909       L1    11  1.00
      P1  H  6931  6943       L1    16  0.34
      P1  H  6934  6947       L1    17  0.35

> <Gold.PLP.Chemscore.Internal.Correction>
1.1601

> <Gold.Rescore>
     Score         DG    S(hbond)    S(metal)    S(lipo)     H(rot)  DE(clash)    DE(int)     intcor
     15.90     -16.75       2.89        0.00      50.61       1.68       0.05       0.79       ----

> <Gold.Chemscore.Fitness>
15.9045

> <Gold.Chemscore.DG>
-16.7460

> <Gold.Chemscore.ZeroCoef>
-5.4800

> <Gold.Chemscore.Hbond>
2.8857

> <Gold.Chemscore.Metal>
0.0000

> <Gold.Chemscore.Lipo>
50.6064

> <Gold.Chemscore.Internal_Hbond>
0.0000

> <Gold.Chemscore.DEClash>
0.0494

> <Gold.Chemscore.DEInternal>
0.7921

> <Gold.Chemscore.Rot>
1.6770

> <Gold.Chemscore.Internal.Correction>
   9.000000E+99

> <Gold.Chemscore.Hbonds>
donor molecule, donor type, donor heavy atom, donor atom, acceptor molecule, acceptor atom, score
      L1  H     3    38       P1  7948  0.69
      P1  H  6896  6909       L1    11  0.53
      P1  H  6931  6943       L1    16  0.01
      P1  H  6934  6947       L1    17  0.01

> <Gold.Chemscore.Hbond.Weighted>
-9.6383

> <Gold.Chemscore.Metal.Weighted>
-0.0000

> <Gold.Chemscore.Lipo.Weighted>
-5.9209

> <Gold.Chemscore.Internal_Hbond.Weighted>
0.0000

> <Gold.Chemscore.DEClash.Weighted>
0.0494

> <Gold.Chemscore.DEInternal.Weighted>
0.7921

> <Gold.Chemscore.Rot.Weighted>
4.2932

> <Gold.Chemscore.Internal.Correction.Weighted>
   9.000000E+99

> <Gold.Protein.RotatedTorsions>
[ 6907 6896 6895 6894 ] final   38.83 input  -60.11 | X-H torsion
[ 7974 7965 7964 7962 ] final   81.46 input  175.53 | X-H torsion
[ 8008 7997 7996 7995 ] final  148.61 input   59.86 | X-H torsion
[ 10167 10162 10161 10158 ] final  -99.05 input  -65.29 | X-H torsion
[ 10718 10713 10712 10709 ] final  -54.49 input   66.30 | X-H torsion
[ 10763 10752 10751 10750 ] final  -74.41 input  -60.55 | X-H torsion
[ 11005 11000 10999 10996 ] final  -18.14 input  -57.11 | X-H torsion

> <Gold.Protein.ActiveResidues>
 VAL166  LYS551  ARG553  GLY616  TRP617  ASP618  TYR619  PRO620  LYS621  CYS622 
 ASP623  PHE694  ASN695  SER759  ASP760  ASP761  ALA762  ILE779  LEU786  VAL792 
 PHE793  MET794  SER795  GLU796  ALA797  LYS798  CYS799  TRP800  GLU811  SER814 

> <Gold.Protein.RotatedAtoms>
  152.1616  134.8907  160.0540 H   0  0  0  0  0  0  0  0  0  0  0  0  # atno 6907 bound_to 6896
  151.9901  133.3783  159.4149 H   0  0  0  0  0  0  0  0  0  0  0  0  # atno 6908 bound_to 6896
  150.6888  134.3868  159.5102 H   0  0  0  0  0  0  0  0  0  0  0  0  # atno 6909 bound_to 6896
  145.6378  139.2419  143.2048 H   0  0  0  0  0  0  0  0  0  0  0  0  # atno 7974 bound_to 7965
  156.2785  140.2124  156.5726 H   0  0  0  0  0  0  0  0  0  0  0  0  # atno 8008 bound_to 7997
  154.7123  140.0511  157.0585 H   0  0  0  0  0  0  0  0  0  0  0  0  # atno 8009 bound_to 7997
  155.0589  140.3164  155.4670 H   0  0  0  0  0  0  0  0  0  0  0  0  # atno 8010 bound_to 7997
  140.2666  143.3372  152.0575 H   0  0  0  0  0  0  0  0  0  0  0  0  # atno 10167 bound_to 10162
  156.1446  130.4153  150.0045 H   0  0  0  0  0  0  0  0  0  0  0  0  # atno 10718 bound_to 10713
  154.4727  135.5865  153.6333 H   0  0  0  0  0  0  0  0  0  0  0  0  # atno 10763 bound_to 10752
  152.9837  135.6071  154.3346 H   0  0  0  0  0  0  0  0  0  0  0  0  # atno 10764 bound_to 10752
  154.3229  135.2843  155.2489 H   0  0  0  0  0  0  0  0  0  0  0  0  # atno 10765 bound_to 10752
  140.8238  133.8048  155.9687 H   0  0  0  0  0  0  0  0  0  0  0  0  # atno 11005 bound_to 11000
  146.1305  140.7191  142.9414 LP  0  0  0  0  0  0  0  0  0  0  0  0  # atno 17320 bound_to 7965
  144.7169  140.4240  143.7038 LP  0  0  0  0  0  0  0  0  0  0  0  0  # atno 17321 bound_to 7965
  139.5001  144.6684  151.6301 LP  0  0  0  0  0  0  0  0  0  0  0  0  # atno 17342 bound_to 10162
  140.5924  143.9757  150.6333 LP  0  0  0  0  0  0  0  0  0  0  0  0  # atno 17343 bound_to 10162
  156.7921  130.9260  151.3646 LP  0  0  0  0  0  0  0  0  0  0  0  0  # atno 17370 bound_to 10713
  157.6605  130.8962  149.9821 LP  0  0  0  0  0  0  0  0  0  0  0  0  # atno 17371 bound_to 10713
  140.9071  134.2307  157.5008 LP  0  0  0  0  0  0  0  0  0  0  0  0  # atno 17394 bound_to 11000
  139.8707  134.9733  156.4804 LP  0  0  0  0  0  0  0  0  0  0  0  0  # atno 17395 bound_to 11000

$$$$
