AV-unprocessed.smi:1679|AV-procd|sdf|6736|dock6
  -GOLD-   22720 7483D 1   1.00000     0.00000
 Structure written by MMmdl.
 44 45  0  0  0  0  0  0  0  0  2 V2000
  145.6541  135.7271  151.0162 C   0  0  0  0  0  0  0  0  0  0  0  0
  145.1227  134.2987  151.2214 C   0  0  1  0  0  0  0  0  0  0  0  0
  144.0993  133.9365  150.1259 C   0  0  0  0  0  0  0  0  0  0  0  0
  143.5557  132.5108  150.3026 C   0  0  0  0  0  0  0  0  0  0  0  0
  144.6979  131.4859  150.3338 C   0  0  0  0  0  0  0  0  0  0  0  0
  145.7170  131.8297  151.4300 C   0  0  0  0  0  0  0  0  0  0  0  0
  146.2683  133.2618  151.2636 C   0  0  2  0  0  0  0  0  0  0  0  0
  147.1047  133.5885  152.3666 O   0  0  0  0  0  0  0  0  0  0  0  0
  148.2224  132.7294  152.5410 C   0  0  0  0  0  0  0  0  0  0  0  0
  148.7845  132.9316  153.9519 C   0  0  0  0  0  0  0  0  0  0  0  0
  148.7944  134.3460  154.2987 N   0  0  0  0  0  0  0  0  0  0  0  0
  148.3981  134.8433  155.4778 C   0  0  0  0  0  0  0  0  0  0  0  0
  148.0049  134.1377  156.4079 O   0  0  0  0  0  0  0  0  0  0  0  0
  148.4899  136.3682  155.6296 C   0  0  0  0  0  0  0  0  0  0  0  0
  149.8733  136.8697  155.5980 N   0  0  0  0  0  0  0  0  0  0  0  0
  150.1597  137.9446  154.7380 C   0  0  0  0  0  0  0  0  0  0  0  0
  151.3972  138.4665  154.6407 C   0  0  0  0  0  0  0  0  0  0  0  0
  152.4568  137.8878  155.4579 C   0  0  0  0  0  0  0  0  0  0  0  0
  153.5917  138.3553  155.3859 O   0  0  0  0  0  0  0  0  0  0  0  0
  152.1303  136.8425  156.2731 N   0  5  0  0  0  0  0  0  0  0  0  0
  150.8672  136.3202  156.3595 C   0  0  0  0  0  0  0  0  0  0  0  0
  150.5947  135.3744  157.0999 O   0  0  0  0  0  0  0  0  0  0  0  0
  146.1969  135.8169  150.0747 H   0  0  0  0  0  0  0  0  0  0  0  0
  146.3313  136.0195  151.8193 H   0  0  0  0  0  0  0  0  0  0  0  0
  144.8384  136.4504  151.0004 H   0  0  0  0  0  0  0  0  0  0  0  0
  144.6066  134.2727  152.1827 H   0  0  0  0  0  0  0  0  0  0  0  0
  143.2709  134.6457  150.1406 H   0  0  0  0  0  0  0  0  0  0  0  0
  144.5641  134.0271  149.1431 H   0  0  0  0  0  0  0  0  0  0  0  0
  142.9817  132.4491  151.2282 H   0  0  0  0  0  0  0  0  0  0  0  0
  142.8647  132.2731  149.4932 H   0  0  0  0  0  0  0  0  0  0  0  0
  144.2960  130.4860  150.4996 H   0  0  0  0  0  0  0  0  0  0  0  0
  145.1967  131.4630  149.3640 H   0  0  0  0  0  0  0  0  0  0  0  0
  145.2438  131.7320  152.4080 H   0  0  0  0  0  0  0  0  0  0  0  0
  146.5266  131.1006  151.4057 H   0  0  0  0  0  0  0  0  0  0  0  0
  146.8306  133.3320  150.3303 H   0  0  0  0  0  0  0  0  0  0  0  0
  147.9249  131.6889  152.4120 H   0  0  0  0  0  0  0  0  0  0  0  0
  148.9932  132.9446  151.7992 H   0  0  0  0  0  0  0  0  0  0  0  0
  148.1895  132.3783  154.6800 H   0  0  0  0  0  0  0  0  0  0  0  0
  149.8015  132.5396  154.0005 H   0  0  0  0  0  0  0  0  0  0  0  0
  149.1016  134.9916  153.5858 H   0  0  0  0  0  0  0  0  0  0  0  0
  147.9020  136.8236  154.8316 H   0  0  0  0  0  0  0  0  0  0  0  0
  148.0014  136.6760  156.5564 H   0  0  0  0  0  0  0  0  0  0  0  0
  149.3209  138.3105  154.1640 H   0  0  0  0  0  0  0  0  0  0  0  0
  151.6012  139.2905  153.9729 H   0  0  0  0  0  0  0  0  0  0  0  0
  1  2  1  0  0  0  0
  1 23  1  0  0  0  0
  1 24  1  0  0  0  0
  1 25  1  0  0  0  0
  2  7  1  0  0  0  0
  2  3  1  0  0  0  0
  2 26  1  0  0  0  0
  3  4  1  0  0  0  0
  3 27  1  0  0  0  0
  3 28  1  0  0  0  0
  4  5  1  0  0  0  0
  4 29  1  0  0  0  0
  4 30  1  0  0  0  0
  5  6  1  0  0  0  0
  5 31  1  0  0  0  0
  5 32  1  0  0  0  0
  6  7  1  0  0  0  0
  6 33  1  0  0  0  0
  6 34  1  0  0  0  0
  7  8  1  0  0  0  0
  7 35  1  0  0  0  0
  8  9  1  0  0  0  0
  9 10  1  0  0  0  0
  9 36  1  0  0  0  0
  9 37  1  0  0  0  0
 10 11  1  0  0  0  0
 10 38  1  0  0  0  0
 10 39  1  0  0  0  0
 11 12  1  0  0  0  0
 11 40  1  0  0  0  0
 12 13  2  0  0  0  0
 12 14  1  0  0  0  0
 14 15  1  0  0  0  0
 14 41  1  0  0  0  0
 14 42  1  0  0  0  0
 15 21  1  0  0  0  0
 15 16  1  0  0  0  0
 16 17  2  0  0  0  0
 16 43  1  0  0  0  0
 17 18  1  0  0  0  0
 17 44  1  0  0  0  0
 18 19  2  0  0  0  0
 18 20  1  0  0  0  0
 20 21  1  0  0  0  0
 21 22  2  0  0  0  0
M  CHG  1  20  -1
M  END
> <s_m_source_file>
AV-unprocessed.smi

> <i_m_source_file_index>
1679

> <i_lp_mmshare_version>
43012

> <i_f3d_flags>
0

> <s_epik_input>
W0NIM11bQ0BASF0xW0NIMl1bQ0gyXVtDSDJdW0NIMl1bQ0BIXTFPW0NIMl1bQ0gyXVtOSF1DKD1PKVtDSDJdbjJbY0hdW2NIXWMoPU8pW25IXWMyPU8=

> <s_epik_cmdline>
J2VwaWtfcHl0aG9uJywgJy1waCcsICc3LjAnLCAnLXRuJywgJzgnLCAnLW1hJywgJzIwMCcsICctbWV0YWxfYmluZGluZycsICctaW1hZScsICc8aW5maWxlLm1hZT4nLCAnLW9tYWUnLCAnPG91dGZpbGUubWFlPic=

> <r_lp_tautomer_probability>
0.999537

> <r_epik_Ionization_Penalty>
3.07454

> <r_epik_Ionization_Penalty_Charging>
2.80088e-08

> <r_epik_Ionization_Penalty_Neutral>
3.07454

> <r_epik_State_Penalty>
3.07357

> <r_epik_Charging_Adjusted_Penalty>
3.07357

> <i_epik_Tot_Q>
-1

> <i_epik_Tot_abs_Q>
1

> <r_epik_Metal_State_Penalty>
0.45948

> <b_epik_Metal_Only>
1

> <s_lp_Force_Field>
OPLS_2005

> <r_lp_Energy>
20.702

> <b_lp_Chiralities_Consistent>
1

> <s_lp_Variant>
AV-unprocessed.smi:1679-8

> <Gold.Version>
5.8.1

> <Gold.Id.Protein>
6NUR|6NUR_protein|mol2

> <Gold.PLP.Fitness>
47.5239

> <Gold.PLP.PLP>
-37.2015

> <Gold.PLP.part.hbond>
-3.0000

> <Gold.PLP.part.metal>
0.0000

> <Gold.PLP.part.buried>
-5.0181

> <Gold.PLP.part.nonpolar>
-31.1908

> <Gold.PLP.part.repulsive>
0.1741

> <Gold.PLP.ligand.clash>
0.0000

> <Gold.PLP.ligand.torsion>
0.3934

> <Gold.PLP.Chemscore.Hbond>
3.6720

> <Gold.PLP.Chemscore.CHOScore>
0.0000

> <Gold.PLP.Chemscore.Metal>
0.0000

> <Gold.Chemscore.Hbonds>
donor molecule, donor type, donor heavy atom, donor atom, acceptor molecule, acceptor atom, score
      L1  H    11    40       P1  7948  0.84
      P1  H  7997  8010       L1    19  0.67
      P1  H 10752 10765       L1    20  1.10

> <Gold.PLP.Chemscore.Internal.Correction>
0.0932

> <Gold.Rescore>
     Score         DG    S(hbond)    S(metal)    S(lipo)     H(rot)  DE(clash)    DE(int)     intcor
     12.04     -14.55       1.68        0.00      83.24       2.45       0.09       2.42       ----

> <Gold.Chemscore.Fitness>
12.0359

> <Gold.Chemscore.DG>
-14.5457

> <Gold.Chemscore.ZeroCoef>
-5.4800

> <Gold.Chemscore.Hbond>
1.6754

> <Gold.Chemscore.Metal>
0.0000

> <Gold.Chemscore.Lipo>
83.2421

> <Gold.Chemscore.Internal_Hbond>
0.0000

> <Gold.Chemscore.DEClash>
0.0854

> <Gold.Chemscore.DEInternal>
2.4244

> <Gold.Chemscore.Rot>
2.4490

> <Gold.Chemscore.Internal.Correction>
   9.000000E+99

> <Gold.Chemscore.Hbonds>
donor molecule, donor type, donor heavy atom, donor atom, acceptor molecule, acceptor atom, score
      L1  H    11    40       P1  7948  0.24
      P1  H  7997  8010       L1    19  0.66
      P1  H 10752 10765       L1    20  0.02

> <Gold.Chemscore.Hbond.Weighted>
-5.5958

> <Gold.Chemscore.Metal.Weighted>
-0.0000

> <Gold.Chemscore.Lipo.Weighted>
-9.7393

> <Gold.Chemscore.Internal_Hbond.Weighted>
0.0000

> <Gold.Chemscore.DEClash.Weighted>
0.0854

> <Gold.Chemscore.DEInternal.Weighted>
2.4244

> <Gold.Chemscore.Rot.Weighted>
6.2694

> <Gold.Chemscore.Internal.Correction.Weighted>
   9.000000E+99

> <Gold.Protein.RotatedTorsions>
[ 6907 6896 6895 6894 ] final   88.63 input  -60.11 | X-H torsion
[ 7974 7965 7964 7962 ] final   25.79 input  175.53 | X-H torsion
[ 8008 7997 7996 7995 ] final  103.43 input   59.86 | X-H torsion
[ 10167 10162 10161 10158 ] final  -49.34 input  -65.29 | X-H torsion
[ 10718 10713 10712 10709 ] final -140.97 input   66.30 | X-H torsion
[ 10763 10752 10751 10750 ] final -143.14 input  -60.55 | X-H torsion
[ 11005 11000 10999 10996 ] final   95.24 input  -57.11 | X-H torsion

> <Gold.Protein.ActiveResidues>
 VAL166  LYS551  ARG553  GLY616  TRP617  ASP618  TYR619  PRO620  LYS621  CYS622 
 ASP623  PHE694  ASN695  SER759  ASP760  ASP761  ALA762  ILE779  LEU786  VAL792 
 PHE793  MET794  SER795  GLU796  ALA797  LYS798  CYS799  TRP800  GLU811  SER814 

> <Gold.Protein.RotatedAtoms>
  152.5427  134.2091  159.8742 H   0  0  0  0  0  0  0  0  0  0  0  0  # atno 6907 bound_to 6896
  151.2075  133.4568  159.2605 H   0  0  0  0  0  0  0  0  0  0  0  0  # atno 6908 bound_to 6896
  151.0929  134.9939  159.8467 H   0  0  0  0  0  0  0  0  0  0  0  0  # atno 6909 bound_to 6896
  146.1871  139.7417  142.8859 H   0  0  0  0  0  0  0  0  0  0  0  0  # atno 7974 bound_to 7965
  156.1483  140.3165  155.8606 H   0  0  0  0  0  0  0  0  0  0  0  0  # atno 8008 bound_to 7997
  155.4021  140.0500  157.3053 H   0  0  0  0  0  0  0  0  0  0  0  0  # atno 8009 bound_to 7997
  154.5036  140.2138  155.9309 H   0  0  0  0  0  0  0  0  0  0  0  0  # atno 8010 bound_to 7997
  140.6689  143.2702  151.4202 H   0  0  0  0  0  0  0  0  0  0  0  0  # atno 10167 bound_to 10162
  156.3285  130.7573  151.1686 H   0  0  0  0  0  0  0  0  0  0  0  0  # atno 10718 bound_to 10713
  154.8481  135.3476  154.6141 H   0  0  0  0  0  0  0  0  0  0  0  0  # atno 10763 bound_to 10752
  153.6749  135.6983  153.5140 H   0  0  0  0  0  0  0  0  0  0  0  0  # atno 10764 bound_to 10752
  153.2713  135.4292  155.0947 H   0  0  0  0  0  0  0  0  0  0  0  0  # atno 10765 bound_to 10752
  139.8791  134.8888  156.3981 H   0  0  0  0  0  0  0  0  0  0  0  0  # atno 11005 bound_to 11000
  145.3907  141.0372  143.3126 LP  0  0  0  0  0  0  0  0  0  0  0  0  # atno 17320 bound_to 7965
  144.8417  139.5462  143.6897 LP  0  0  0  0  0  0  0  0  0  0  0  0  # atno 17321 bound_to 7965
  139.5949  144.1419  152.2132 LP  0  0  0  0  0  0  0  0  0  0  0  0  # atno 17342 bound_to 10162
  140.0785  144.5720  150.7140 LP  0  0  0  0  0  0  0  0  0  0  0  0  # atno 17343 bound_to 10162
  157.7426  131.0488  150.5013 LP  0  0  0  0  0  0  0  0  0  0  0  0  # atno 17370 bound_to 10713
  156.5175  130.4154  149.6268 LP  0  0  0  0  0  0  0  0  0  0  0  0  # atno 17371 bound_to 10713
  140.9286  133.7595  155.9996 LP  0  0  0  0  0  0  0  0  0  0  0  0  # atno 17394 bound_to 11000
  140.8357  134.3126  157.5332 LP  0  0  0  0  0  0  0  0  0  0  0  0  # atno 17395 bound_to 11000

$$$$
