AV-unprocessed.smi:1954|AV-procd|sdf|7897|dock6
  -GOLD-   2272010 53D 1   1.00000     0.00000
 Structure written by MMmdl.
 45 47  0  0  0  0  0  0  0  0  2 V2000
  149.7028  134.9334  158.4155 O   0  0  0  0  0  0  0  0  0  0  0  0
  149.4816  136.1418  158.4912 C   0  0  0  0  0  0  0  0  0  0  0  0
  150.0328  137.0447  157.6675 N   0  0  0  0  0  0  0  0  0  0  0  0
  150.9650  136.7568  156.5773 C   0  0  0  0  0  0  0  0  0  0  0  0
  150.3935  137.1039  155.1660 C   0  0  2  0  0  0  0  0  0  0  0  0
  149.6679  135.8907  154.6364 N   0  3  0  0  0  0  0  0  0  0  0  0
  150.4418  134.6196  154.7115 C   0  0  0  0  0  0  0  0  0  0  0  0
  149.7233  133.5003  153.9432 C   0  0  0  0  0  0  0  0  0  0  0  0
  148.4268  133.3183  154.4937 O   0  0  0  0  0  0  0  0  0  0  0  0
  147.6308  134.4860  154.3521 C   0  0  0  0  0  0  0  0  0  0  0  0
  148.2734  135.6654  155.1043 C   0  0  0  0  0  0  0  0  0  0  0  0
  151.5427  137.6020  154.2435 C   0  0  0  0  0  0  0  0  0  0  0  0
  151.9869  138.9852  154.7273 C   0  0  0  0  0  0  0  0  0  0  0  0
  150.5069  139.8336  155.3278 S   0  0  0  0  0  0  0  0  0  0  0  0
  149.4730  138.3438  155.2600 C   0  0  0  0  0  0  0  0  0  0  0  0
  148.6730  136.7319  159.3884 N   0  0  0  0  0  0  0  0  0  0  0  0
  147.9200  136.1334  160.4340 C   0  0  0  0  0  0  0  0  0  0  0  0
  147.8724  134.7227  160.5827 C   0  0  0  0  0  0  0  0  0  0  0  0
  147.1394  134.1656  161.6485 C   0  0  0  0  0  0  0  0  0  0  0  0
  146.4840  135.0266  162.5458 C   0  0  0  0  0  0  0  0  0  0  0  0
  146.5975  136.4126  162.3362 C   0  0  0  0  0  0  0  0  0  0  0  0
  147.2994  136.9503  161.3158 N   0  0  0  0  0  0  0  0  0  0  0  0
  149.7829  138.0142  157.7994 H   0  0  0  0  0  0  0  0  0  0  0  0
  151.9121  137.2661  156.7566 H   0  0  0  0  0  0  0  0  0  0  0  0
  151.2130  135.6984  156.6485 H   0  0  0  0  0  0  0  0  0  0  0  0
  151.4408  134.7473  154.2975 H   0  0  0  0  0  0  0  0  0  0  0  0
  150.5635  134.3108  155.7503 H   0  0  0  0  0  0  0  0  0  0  0  0
  149.6574  133.7301  152.8784 H   0  0  0  0  0  0  0  0  0  0  0  0
  150.2789  132.5668  154.0341 H   0  0  0  0  0  0  0  0  0  0  0  0
  147.5057  134.7255  153.2945 H   0  0  0  0  0  0  0  0  0  0  0  0
  146.6361  134.2852  154.7505 H   0  0  0  0  0  0  0  0  0  0  0  0
  148.2675  135.4804  156.1794 H   0  0  0  0  0  0  0  0  0  0  0  0
  147.6509  136.5382  154.9114 H   0  0  0  0  0  0  0  0  0  0  0  0
  152.3795  136.9056  154.1853 H   0  0  0  0  0  0  0  0  0  0  0  0
  151.1858  137.7530  153.2251 H   0  0  0  0  0  0  0  0  0  0  0  0
  152.7011  138.8992  155.5462 H   0  0  0  0  0  0  0  0  0  0  0  0
  152.4669  139.5588  153.9341 H   0  0  0  0  0  0  0  0  0  0  0  0
  148.8577  138.4292  154.3635 H   0  0  0  0  0  0  0  0  0  0  0  0
  148.8007  138.3099  156.1178 H   0  0  0  0  0  0  0  0  0  0  0  0
  148.5102  137.7195  159.2567 H   0  0  0  0  0  0  0  0  0  0  0  0
  148.3935  134.0593  159.9097 H   0  0  0  0  0  0  0  0  0  0  0  0
  147.0873  133.0950  161.7784 H   0  0  0  0  0  0  0  0  0  0  0  0
  145.9142  134.6355  163.3758 H   0  0  0  0  0  0  0  0  0  0  0  0
  146.1157  137.1089  163.0066 H   0  0  0  0  0  0  0  0  0  0  0  0
  149.5676  136.0788  153.6488 H   0  0  0  0  0  0  0  0  0  0  0  0
  1  2  2  0  0  0  0
  2  3  1  0  0  0  0
  2 16  1  0  0  0  0
  3  4  1  0  0  0  0
  3 23  1  0  0  0  0
  4  5  1  0  0  0  0
  4 24  1  0  0  0  0
  4 25  1  0  0  0  0
  5 15  1  0  0  0  0
  5  6  1  0  0  0  0
  5 12  1  0  0  0  0
  6 11  1  0  0  0  0
  6  7  1  0  0  0  0
  6 45  1  0  0  0  0
  7  8  1  0  0  0  0
  7 26  1  0  0  0  0
  7 27  1  0  0  0  0
  8  9  1  0  0  0  0
  8 28  1  0  0  0  0
  8 29  1  0  0  0  0
  9 10  1  0  0  0  0
 10 11  1  0  0  0  0
 10 30  1  0  0  0  0
 10 31  1  0  0  0  0
 11 32  1  0  0  0  0
 11 33  1  0  0  0  0
 12 13  1  0  0  0  0
 12 34  1  0  0  0  0
 12 35  1  0  0  0  0
 13 14  1  0  0  0  0
 13 36  1  0  0  0  0
 13 37  1  0  0  0  0
 14 15  1  0  0  0  0
 15 38  1  0  0  0  0
 15 39  1  0  0  0  0
 16 17  1  0  0  0  0
 16 40  1  0  0  0  0
 17 22  1  0  0  0  0
 17 18  2  0  0  0  0
 18 19  1  0  0  0  0
 18 41  1  0  0  0  0
 19 20  2  0  0  0  0
 19 42  1  0  0  0  0
 20 21  1  0  0  0  0
 20 43  1  0  0  0  0
 21 22  2  0  0  0  0
 21 44  1  0  0  0  0
M  CHG  1   6   1
M  END
> <s_m_source_file>
AV-unprocessed.smi

> <i_m_source_file_index>
1954

> <i_lp_mmshare_version>
43012

> <i_f3d_flags>
0

> <s_epik_input>
bjFbY0hdW2NIXVtjSF1bY0hdYzFbTkhdQyg9TylbTkhdW0NIMl1bQ0BdMihbQ0gyXVtDSDJdU1tDSDJdMilOM1tDSDJdW0NIMl1PW0NIMl1bQ0gyXTM=

> <s_epik_cmdline>
J2VwaWtfcHl0aG9uJywgJy1waCcsICc3LjAnLCAnLXRuJywgJzgnLCAnLW1hJywgJzIwMCcsICctbWV0YWxfYmluZGluZycsICctaW1hZScsICc8aW5maWxlLm1hZT4nLCAnLW9tYWUnLCAnPG91dGZpbGUubWFlPic=

> <r_epik_Ionization_Penalty>
2.03222

> <r_epik_Ionization_Penalty_Charging>
2.03219

> <r_epik_Ionization_Penalty_Neutral>
3.25833e-05

> <r_epik_State_Penalty>
2.16328

> <r_epik_Charging_Adjusted_Penalty>
4.19546

> <i_epik_Tot_Q>
1

> <i_epik_Tot_abs_Q>
1

> <r_epik_Metal_State_Penalty>
2.16328

> <b_epik_Metal_Only>
0

> <s_lp_Force_Field>
OPLS_2005

> <r_lp_Energy>
46.5202

> <b_lp_Chiralities_Consistent>
1

> <s_lp_Variant>
AV-unprocessed.smi:1954-4

> <Gold.Version>
5.8.1

> <Gold.Id.Protein>
6NUR|6NUR_protein|mol2

> <Gold.PLP.Fitness>
49.3086

> <Gold.PLP.PLP>
-36.6878

> <Gold.PLP.part.hbond>
-4.0000

> <Gold.PLP.part.metal>
0.0000

> <Gold.PLP.part.buried>
-3.1310

> <Gold.PLP.part.nonpolar>
-30.3010

> <Gold.PLP.part.repulsive>
0.3533

> <Gold.PLP.ligand.clash>
0.0000

> <Gold.PLP.ligand.torsion>
0.9920

> <Gold.PLP.Chemscore.Hbond>
4.8240

> <Gold.PLP.Chemscore.CHOScore>
0.0000

> <Gold.PLP.Chemscore.Metal>
0.0000

> <Gold.Chemscore.Hbonds>
donor molecule, donor type, donor heavy atom, donor atom, acceptor molecule, acceptor atom, score
      L1  H     6    45       P1  7948  2.00
      P1  H  6896  6909       L1     1  1.00
      P1  H  6931  6943       L1    22  0.46
      P1  H  6934  6947       L1    22  0.81

> <Gold.PLP.Chemscore.Internal.Correction>
0.1328

> <Gold.Rescore>
     Score         DG    S(hbond)    S(metal)    S(lipo)     H(rot)  DE(clash)    DE(int)     intcor
     18.76     -21.47       3.00        0.00      84.72       1.54       0.04       2.67       ----

> <Gold.Chemscore.Fitness>
18.7618

> <Gold.Chemscore.DG>
-21.4702

> <Gold.Chemscore.ZeroCoef>
-5.4800

> <Gold.Chemscore.Hbond>
2.9967

> <Gold.Chemscore.Metal>
0.0000

> <Gold.Chemscore.Lipo>
84.7204

> <Gold.Chemscore.Internal_Hbond>
0.0000

> <Gold.Chemscore.DEClash>
0.0383

> <Gold.Chemscore.DEInternal>
2.6701

> <Gold.Chemscore.Rot>
1.5355

> <Gold.Chemscore.Internal.Correction>
   9.000000E+99

> <Gold.Chemscore.Hbonds>
donor molecule, donor type, donor heavy atom, donor atom, acceptor molecule, acceptor atom, score
      L1  H     6    45       P1  7948  0.45
      P1  H  6896  6909       L1     1  0.90
      P1  H  6931  6943       L1    22  0.10
      P1  H  6934  6947       L1    22  0.72

> <Gold.Chemscore.Hbond.Weighted>
-10.0088

> <Gold.Chemscore.Metal.Weighted>
-0.0000

> <Gold.Chemscore.Lipo.Weighted>
-9.9123

> <Gold.Chemscore.Internal_Hbond.Weighted>
0.0000

> <Gold.Chemscore.DEClash.Weighted>
0.0383

> <Gold.Chemscore.DEInternal.Weighted>
2.6701

> <Gold.Chemscore.Rot.Weighted>
3.9309

> <Gold.Chemscore.Internal.Correction.Weighted>
   9.000000E+99

> <Gold.Protein.RotatedTorsions>
[ 6907 6896 6895 6894 ] final   25.88 input  -60.11 | X-H torsion
[ 7974 7965 7964 7962 ] final   14.36 input  175.53 | X-H torsion
[ 8008 7997 7996 7995 ] final -139.10 input   59.86 | X-H torsion
[ 10167 10162 10161 10158 ] final -150.67 input  -65.29 | X-H torsion
[ 10718 10713 10712 10709 ] final  167.91 input   66.30 | X-H torsion
[ 10763 10752 10751 10750 ] final  154.98 input  -60.55 | X-H torsion
[ 11005 11000 10999 10996 ] final -119.28 input  -57.11 | X-H torsion

> <Gold.Protein.ActiveResidues>
 VAL166  LYS551  ARG553  GLY616  TRP617  ASP618  TYR619  PRO620  LYS621  CYS622 
 ASP623  PHE694  ASN695  SER759  ASP760  ASP761  ALA762  ILE779  LEU786  VAL792 
 PHE793  MET794  SER795  GLU796  ALA797  LYS798  CYS799  TRP800  GLU811  SER814 

> <Gold.Protein.RotatedAtoms>
  151.9791  135.0038  160.0556 H   0  0  0  0  0  0  0  0  0  0  0  0  # atno 6907 bound_to 6896
  152.1713  133.4641  159.4919 H   0  0  0  0  0  0  0  0  0  0  0  0  # atno 6908 bound_to 6896
  150.6902  134.1867  159.4312 H   0  0  0  0  0  0  0  0  0  0  0  0  # atno 6909 bound_to 6896
  146.2307  139.9052  142.8533 H   0  0  0  0  0  0  0  0  0  0  0  0  # atno 7974 bound_to 7965
  155.4393  140.0530  157.3012 H   0  0  0  0  0  0  0  0  0  0  0  0  # atno 8008 bound_to 7997
  154.4825  140.2087  155.9687 H   0  0  0  0  0  0  0  0  0  0  0  0  # atno 8009 bound_to 7997
  156.1227  140.3185  155.8236 H   0  0  0  0  0  0  0  0  0  0  0  0  # atno 8010 bound_to 7997
  139.7334  143.8773  152.2541 H   0  0  0  0  0  0  0  0  0  0  0  0  # atno 10167 bound_to 10162
  157.0447  131.0296  151.2701 H   0  0  0  0  0  0  0  0  0  0  0  0  # atno 10718 bound_to 10713
  154.1611  135.2809  155.3108 H   0  0  0  0  0  0  0  0  0  0  0  0  # atno 10763 bound_to 10752
  154.6146  135.5487  153.7513 H   0  0  0  0  0  0  0  0  0  0  0  0  # atno 10764 bound_to 10752
  153.0192  135.6424  154.1753 H   0  0  0  0  0  0  0  0  0  0  0  0  # atno 10765 bound_to 10752
  141.0226  134.0101  157.3260 H   0  0  0  0  0  0  0  0  0  0  0  0  # atno 11005 bound_to 11000
  145.2283  140.9963  143.4005 LP  0  0  0  0  0  0  0  0  0  0  0  0  # atno 17320 bound_to 7965
  144.9551  139.4040  143.6383 LP  0  0  0  0  0  0  0  0  0  0  0  0  # atno 17321 bound_to 7965
  139.8703  144.7072  150.8996 LP  0  0  0  0  0  0  0  0  0  0  0  0  # atno 17342 bound_to 10162
  140.7775  143.3744  151.1590 LP  0  0  0  0  0  0  0  0  0  0  0  0  # atno 17343 bound_to 10162
  157.5077  130.7919  149.7671 LP  0  0  0  0  0  0  0  0  0  0  0  0  # atno 17370 bound_to 10713
  156.0026  130.3872  150.2547 LP  0  0  0  0  0  0  0  0  0  0  0  0  # atno 17371 bound_to 10713
  139.9156  135.0196  156.7867 LP  0  0  0  0  0  0  0  0  0  0  0  0  # atno 17394 bound_to 11000
  140.6546  133.9700  155.7773 LP  0  0  0  0  0  0  0  0  0  0  0  0  # atno 17395 bound_to 11000

$$$$
