AV-unprocessed.smi:1795|AV-procd|sdf|7245|dock9
  -GOLD-   22720 8493D 1   1.00000     0.00000
 Structure written by MMmdl.
 48 49  0  0  0  0  0  0  0  0  2 V2000
  153.6967  142.1744  160.6175 C   0  0  0  0  0  0  0  0  0  0  0  0
  152.3858  142.2085  159.8239 C   0  0  2  0  0  0  0  0  0  0  0  0
  152.1705  140.9209  159.0103 C   0  0  0  0  0  0  0  0  0  0  0  0
  150.9272  141.0051  158.1993 N   0  3  2  0  0  0  0  0  0  0  0  0
  150.5908  139.7069  157.5275 C   0  0  1  0  0  0  0  0  0  0  0  0
  151.4882  139.5173  156.2831 C   0  0  0  0  0  0  0  0  0  0  0  0
  150.6788  138.4713  158.4664 C   0  0  0  0  0  0  0  0  0  0  0  0
  149.3663  137.9206  158.7952 N   0  0  0  0  0  0  0  0  0  0  0  0
  149.0243  136.6247  158.7239 C   0  0  0  0  0  0  0  0  0  0  0  0
  149.8115  135.7339  158.4023 O   0  0  0  0  0  0  0  0  0  0  0  0
  147.5670  136.2925  159.0728 C   0  0  0  0  0  0  0  0  0  0  0  0
  147.4409  135.4059  160.2418 N   0  0  0  0  0  0  0  0  0  0  0  0
  147.3781  134.0198  159.9953 C   0  0  0  0  0  0  0  0  0  0  0  0
  147.2688  133.1260  160.9909 C   0  0  0  0  0  0  0  0  0  0  0  0
  147.2145  133.6175  162.3474 C   0  0  0  0  0  0  0  0  0  0  0  0
  147.2711  134.9412  162.5946 C   0  0  0  0  0  0  0  0  0  0  0  0
  147.3909  135.9220  161.5096 C   0  0  0  0  0  0  0  0  0  0  0  0
  147.4430  137.1336  161.7259 O   0  0  0  0  0  0  0  0  0  0  0  0
  150.9976  142.2018  157.3164 C   0  0  0  0  0  0  0  0  0  0  0  0
  151.2842  143.4858  158.1212 C   0  0  1  0  0  0  0  0  0  0  0  0
  150.0722  143.9874  158.9271 C   0  0  0  0  0  0  0  0  0  0  0  0
  152.4424  143.3191  158.9355 O   0  0  0  0  0  0  0  0  0  0  0  0
  153.7048  141.3475  161.3281 H   0  0  0  0  0  0  0  0  0  0  0  0
  153.8345  143.0972  161.1817 H   0  0  0  0  0  0  0  0  0  0  0  0
  154.5567  142.0570  159.9576 H   0  0  0  0  0  0  0  0  0  0  0  0
  151.5672  142.3382  160.5320 H   0  0  0  0  0  0  0  0  0  0  0  0
  153.0225  140.7486  158.3503 H   0  0  0  0  0  0  0  0  0  0  0  0
  152.1338  140.0775  159.6976 H   0  0  0  0  0  0  0  0  0  0  0  0
  149.5541  139.7706  157.1920 H   0  0  0  0  0  0  0  0  0  0  0  0
  151.2015  138.6377  155.7076 H   0  0  0  0  0  0  0  0  0  0  0  0
  152.5337  139.3973  156.5690 H   0  0  0  0  0  0  0  0  0  0  0  0
  151.4324  140.3544  155.5900 H   0  0  0  0  0  0  0  0  0  0  0  0
  151.3243  137.7071  158.0303 H   0  0  0  0  0  0  0  0  0  0  0  0
  151.1246  138.7479  159.4218 H   0  0  0  0  0  0  0  0  0  0  0  0
  148.6549  138.5795  159.0775 H   0  0  0  0  0  0  0  0  0  0  0  0
  147.0370  137.2318  159.2363 H   0  0  0  0  0  0  0  0  0  0  0  0
  147.0776  135.8324  158.2119 H   0  0  0  0  0  0  0  0  0  0  0  0
  147.4194  133.7331  158.9545 H   0  0  0  0  0  0  0  0  0  0  0  0
  147.2203  132.0671  160.7829 H   0  0  0  0  0  0  0  0  0  0  0  0
  147.1271  132.9204  163.1678 H   0  0  0  0  0  0  0  0  0  0  0  0
  147.2285  135.2907  163.6157 H   0  0  0  0  0  0  0  0  0  0  0  0
  151.7818  142.0497  156.5728 H   0  0  0  0  0  0  0  0  0  0  0  0
  150.0643  142.3531  156.7749 H   0  0  0  0  0  0  0  0  0  0  0  0
  151.5313  144.2730  157.4083 H   0  0  0  0  0  0  0  0  0  0  0  0
  149.2433  144.2361  158.2637 H   0  0  0  0  0  0  0  0  0  0  0  0
  150.3242  144.8877  159.4880 H   0  0  0  0  0  0  0  0  0  0  0  0
  149.7066  143.2434  159.6341 H   0  0  0  0  0  0  0  0  0  0  0  0
  150.1693  141.1871  158.8418 H   0  0  0  0  0  0  0  0  0  0  0  0
  1  2  1  0  0  0  0
  1 23  1  0  0  0  0
  1 24  1  0  0  0  0
  1 25  1  0  0  0  0
  2 22  1  0  0  0  0
  2  3  1  0  0  0  0
  2 26  1  0  0  0  0
  3  4  1  0  0  0  0
  3 27  1  0  0  0  0
  3 28  1  0  0  0  0
  4  5  1  0  0  0  0
  4 19  1  0  0  0  0
  4 48  1  0  0  0  0
  5  6  1  0  0  0  0
  5  7  1  0  0  0  0
  5 29  1  0  0  0  0
  6 30  1  0  0  0  0
  6 31  1  0  0  0  0
  6 32  1  0  0  0  0
  7  8  1  0  0  0  0
  7 33  1  0  0  0  0
  7 34  1  0  0  0  0
  8  9  1  0  0  0  0
  8 35  1  0  0  0  0
  9 10  2  0  0  0  0
  9 11  1  0  0  0  0
 11 12  1  0  0  0  0
 11 36  1  0  0  0  0
 11 37  1  0  0  0  0
 12 17  1  0  0  0  0
 12 13  1  0  0  0  0
 13 14  2  0  0  0  0
 13 38  1  0  0  0  0
 14 15  1  0  0  0  0
 14 39  1  0  0  0  0
 15 16  2  0  0  0  0
 15 40  1  0  0  0  0
 16 17  1  0  0  0  0
 16 41  1  0  0  0  0
 17 18  2  0  0  0  0
 19 20  1  0  0  0  0
 19 42  1  0  0  0  0
 19 43  1  0  0  0  0
 20 21  1  0  0  0  0
 20 22  1  0  0  0  0
 20 44  1  0  0  0  0
 21 45  1  0  0  0  0
 21 46  1  0  0  0  0
 21 47  1  0  0  0  0
M  CHG  1   4   1
M  END
> <s_m_source_file>
AV-unprocessed.smi

> <i_m_source_file_index>
1795

> <i_lp_mmshare_version>
43012

> <i_f3d_flags>
0

> <s_epik_input>
W0NIM11bQ0BASF0xW0NIMl1OKFtDSDJdW0NASF0oTzEpW0NIM10pW0NASF0oW0NIM10pW0NIMl1bTkhdQyg9TylbQ0gyXW4yW2NIXVtjSF1bY0hdW2NIXWMyPU8=

> <s_epik_cmdline>
J2VwaWtfcHl0aG9uJywgJy1waCcsICc3LjAnLCAnLXRuJywgJzgnLCAnLW1hJywgJzIwMCcsICctbWV0YWxfYmluZGluZycsICctaW1hZScsICc8aW5maWxlLm1hZT4nLCAnLW9tYWUnLCAnPG91dGZpbGUubWFlPic=

> <r_lp_tautomer_probability>
1

> <r_epik_Ionization_Penalty>
0.656654

> <r_epik_Ionization_Penalty_Charging>
0.656654

> <r_epik_Ionization_Penalty_Neutral>
8.90321e-08

> <r_epik_State_Penalty>
0.675641

> <r_epik_Charging_Adjusted_Penalty>
1.33229

> <i_epik_Tot_Q>
1

> <i_epik_Tot_abs_Q>
1

> <r_epik_Metal_State_Penalty>
0.675691

> <b_epik_Metal_Only>
0

> <s_lp_Force_Field>
OPLS_2005

> <r_lp_Energy>
30.7176

> <b_lp_Chiralities_Consistent>
1

> <s_lp_Variant>
AV-unprocessed.smi:1795-9

> <Gold.Version>
5.8.1

> <Gold.Id.Protein>
6NUR|6NUR_protein|mol2

> <Gold.PLP.Fitness>
49.1331

> <Gold.PLP.PLP>
-43.5604

> <Gold.PLP.part.hbond>
-3.0000

> <Gold.PLP.part.metal>
0.0000

> <Gold.PLP.part.buried>
-6.9215

> <Gold.PLP.part.nonpolar>
-34.4619

> <Gold.PLP.part.repulsive>
0.3339

> <Gold.PLP.ligand.clash>
0.0000

> <Gold.PLP.ligand.torsion>
1.2921

> <Gold.PLP.Chemscore.Hbond>
2.6960

> <Gold.PLP.Chemscore.CHOScore>
0.0000

> <Gold.PLP.Chemscore.Metal>
0.0000

> <Gold.Chemscore.Hbonds>
donor molecule, donor type, donor heavy atom, donor atom, acceptor molecule, acceptor atom, score
      P1  H  6896  6907       L1    10  1.00
      P1  H  6931  6943       L1    18  0.96
      P1  H  6934  6947       L1    18  0.76

> <Gold.PLP.Chemscore.Internal.Correction>
0.0687

> <Gold.Rescore>
     Score         DG    S(hbond)    S(metal)    S(lipo)     H(rot)  DE(clash)    DE(int)     intcor
     20.00     -21.16       2.69        0.00      98.48       1.89       0.00       1.16       ----

> <Gold.Chemscore.Fitness>
19.9972

> <Gold.Chemscore.DG>
-21.1611

> <Gold.Chemscore.ZeroCoef>
-5.4800

> <Gold.Chemscore.Hbond>
2.6913

> <Gold.Chemscore.Metal>
0.0000

> <Gold.Chemscore.Lipo>
98.4849

> <Gold.Chemscore.Internal_Hbond>
0.0000

> <Gold.Chemscore.DEClash>
0.0038

> <Gold.Chemscore.DEInternal>
1.1601

> <Gold.Chemscore.Rot>
1.8870

> <Gold.Chemscore.Internal.Correction>
   9.000000E+99

> <Gold.Chemscore.Hbonds>
donor molecule, donor type, donor heavy atom, donor atom, acceptor molecule, acceptor atom, score
      P1  H  6896  6907       L1    10  0.96
      P1  H  6931  6943       L1    18  0.91
      P1  H  6934  6947       L1    18  0.72

> <Gold.Chemscore.Hbond.Weighted>
-8.9891

> <Gold.Chemscore.Metal.Weighted>
-0.0000

> <Gold.Chemscore.Lipo.Weighted>
-11.5227

> <Gold.Chemscore.Internal_Hbond.Weighted>
0.0000

> <Gold.Chemscore.DEClash.Weighted>
0.0038

> <Gold.Chemscore.DEInternal.Weighted>
1.1601

> <Gold.Chemscore.Rot.Weighted>
4.8308

> <Gold.Chemscore.Internal.Correction.Weighted>
   9.000000E+99

> <Gold.Protein.RotatedTorsions>
[ 6907 6896 6895 6894 ] final  -54.58 input  -60.11 | X-H torsion
[ 7974 7965 7964 7962 ] final  113.91 input  175.53 | X-H torsion
[ 8008 7997 7996 7995 ] final   30.72 input   59.86 | X-H torsion
[ 10167 10162 10161 10158 ] final  176.39 input  -65.29 | X-H torsion
[ 10718 10713 10712 10709 ] final   -5.66 input   66.30 | X-H torsion
[ 10763 10752 10751 10750 ] final -133.85 input  -60.55 | X-H torsion
[ 11005 11000 10999 10996 ] final  168.68 input  -57.11 | X-H torsion

> <Gold.Protein.ActiveResidues>
 VAL166  LYS551  ARG553  GLY616  TRP617  ASP618  TYR619  PRO620  LYS621  CYS622 
 ASP623  PHE694  ASN695  SER759  ASP760  ASP761  ALA762  ILE779  LEU786  VAL792 
 PHE793  MET794  SER795  GLU796  ALA797  LYS798  CYS799  TRP800  GLU811  SER814 

> <Gold.Protein.RotatedAtoms>
  150.8326  134.7585  159.6865 H   0  0  0  0  0  0  0  0  0  0  0  0  # atno 6907 bound_to 6896
  152.4428  134.5553  159.9888 H   0  0  0  0  0  0  0  0  0  0  0  0  # atno 6908 bound_to 6896
  151.5711  133.3352  159.3025 H   0  0  0  0  0  0  0  0  0  0  0  0  # atno 6909 bound_to 6896
  145.2110  139.2906  143.4268 H   0  0  0  0  0  0  0  0  0  0  0  0  # atno 7974 bound_to 7965
  155.0950  140.3224  155.4563 H   0  0  0  0  0  0  0  0  0  0  0  0  # atno 8008 bound_to 7997
  156.2732  140.2071  156.6023 H   0  0  0  0  0  0  0  0  0  0  0  0  # atno 8009 bound_to 7997
  154.6874  140.0520  157.0315 H   0  0  0  0  0  0  0  0  0  0  0  0  # atno 8010 bound_to 7997
  139.5212  144.2921  152.0455 H   0  0  0  0  0  0  0  0  0  0  0  0  # atno 10167 bound_to 10162
  156.7434  130.5216  149.5819 H   0  0  0  0  0  0  0  0  0  0  0  0  # atno 10718 bound_to 10713
  154.8727  135.3753  154.4639 H   0  0  0  0  0  0  0  0  0  0  0  0  # atno 10763 bound_to 10752
  153.5305  135.7028  153.5691 H   0  0  0  0  0  0  0  0  0  0  0  0  # atno 10764 bound_to 10752
  153.3897  135.3975  155.1880 H   0  0  0  0  0  0  0  0  0  0  0  0  # atno 10765 bound_to 10752
  140.2898  134.7683  157.3828 H   0  0  0  0  0  0  0  0  0  0  0  0  # atno 11005 bound_to 11000
  146.3397  140.2386  142.8595 LP  0  0  0  0  0  0  0  0  0  0  0  0  # atno 17320 bound_to 7965
  144.9855  140.8499  143.5371 LP  0  0  0  0  0  0  0  0  0  0  0  0  # atno 17321 bound_to 7965
  140.2371  144.4308  150.6275 LP  0  0  0  0  0  0  0  0  0  0  0  0  # atno 17342 bound_to 10162
  140.6316  143.2188  151.6484 LP  0  0  0  0  0  0  0  0  0  0  0  0  # atno 17343 bound_to 10162
  156.1449  130.6270  151.0518 LP  0  0  0  0  0  0  0  0  0  0  0  0  # atno 17370 bound_to 10713
  157.6809  131.0838  150.7373 LP  0  0  0  0  0  0  0  0  0  0  0  0  # atno 17371 bound_to 10713
  140.1206  134.5224  155.8187 LP  0  0  0  0  0  0  0  0  0  0  0  0  # atno 17394 bound_to 11000
  141.2148  133.6755  156.6859 LP  0  0  0  0  0  0  0  0  0  0  0  0  # atno 17395 bound_to 11000

$$$$
