AV-unprocessed.smi:2881|AV-procd|sdf|11066|dock4
  -GOLD-   2272015543D 1   1.00000     0.00000
 Structure written by MMmdl.
 40 42  0  0  0  0  0  0  0  0  1 V2000
  144.0438  143.8898  162.7738 C   0  0  0  0  0  0  0  0  0  0  0  0
  144.9729  143.9449  161.5967 C   0  0  0  0  0  0  0  0  0  0  0  0
  144.9409  143.1452  160.4171 C   0  0  0  0  0  0  0  0  0  0  0  0
  145.9909  143.6016  159.6700 C   0  0  0  0  0  0  0  0  0  0  0  0
  146.4845  143.2047  158.3145 C   0  0  0  0  0  0  0  0  0  0  0  0
  147.9382  142.7359  158.3871 C   0  0  0  0  0  0  0  0  0  0  0  0
  148.5343  142.7386  159.4635 O   0  0  0  0  0  0  0  0  0  0  0  0
  148.5014  142.3648  157.2265 N   0  0  0  0  0  0  0  0  0  0  0  0
  149.9070  142.0110  157.0348 C   0  0  1  0  0  0  0  0  0  0  0  0
  150.3234  140.9193  158.0439 C   0  0  2  0  0  0  0  0  0  0  0  0
  151.8599  140.8295  158.0822 C   0  0  0  0  0  0  0  0  0  0  0  0
  152.1900  140.1771  156.7261 C   0  0  0  0  0  0  0  0  0  0  0  0
  150.7983  139.9770  156.0929 C   0  0  1  0  0  0  0  0  0  0  0  0
  149.9566  139.6321  157.3149 C   0  0  0  0  0  0  0  0  0  0  0  0
  150.2285  141.3502  155.6587 C   0  0  1  0  0  0  0  0  0  0  0  0
  149.0492  141.2359  154.6634 C   0  0  0  0  0  0  0  0  0  0  0  0
  149.5059  140.7993  153.4010 O   0  0  0  0  0  0  0  0  0  0  0  0
  146.5819  144.6004  160.4106 N   0  0  0  0  0  0  0  0  0  0  0  0
  145.9667  144.8210  161.5867 N   0  0  0  0  0  0  0  0  0  0  0  0
  147.3879  145.1383  160.1246 H   0  0  0  0  0  0  0  0  0  0  0  0
  143.0165  143.7185  162.4519 H   0  0  0  0  0  0  0  0  0  0  0  0
  144.0594  144.8196  163.3437 H   0  0  0  0  0  0  0  0  0  0  0  0
  144.3195  143.0801  163.4494 H   0  0  0  0  0  0  0  0  0  0  0  0
  144.2449  142.3622  160.1555 H   0  0  0  0  0  0  0  0  0  0  0  0
  146.4135  144.0467  157.6250 H   0  0  0  0  0  0  0  0  0  0  0  0
  145.8602  142.4091  157.9053 H   0  0  0  0  0  0  0  0  0  0  0  0
  147.9266  142.3917  156.3967 H   0  0  0  0  0  0  0  0  0  0  0  0
  150.5222  142.9004  157.1837 H   0  0  0  0  0  0  0  0  0  0  0  0
  149.8765  141.0334  159.0323 H   0  0  0  0  0  0  0  0  0  0  0  0
  152.3331  141.8047  158.2035 H   0  0  0  0  0  0  0  0  0  0  0  0
  152.1912  140.1933  158.9038 H   0  0  0  0  0  0  0  0  0  0  0  0
  152.8421  140.7985  156.1114 H   0  0  0  0  0  0  0  0  0  0  0  0
  152.6888  139.2188  156.8756 H   0  0  0  0  0  0  0  0  0  0  0  0
  150.7932  139.2221  155.3063 H   0  0  0  0  0  0  0  0  0  0  0  0
  150.2931  138.7316  157.8317 H   0  0  0  0  0  0  0  0  0  0  0  0
  148.8907  139.5406  157.1011 H   0  0  0  0  0  0  0  0  0  0  0  0
  151.0110  141.9296  155.1658 H   0  0  0  0  0  0  0  0  0  0  0  0
  148.2831  140.5480  155.0221 H   0  0  0  0  0  0  0  0  0  0  0  0
  148.5734  142.2060  154.5210 H   0  0  0  0  0  0  0  0  0  0  0  0
  149.1444  139.9424  153.2315 H   0  0  0  0  0  0  0  0  0  0  0  0
  1 21  1  0  0  0  0
  1 22  1  0  0  0  0
  1 23  1  0  0  0  0
  1  2  1  0  0  0  0
  2 19  2  0  0  0  0
  2  3  1  0  0  0  0
  3  4  2  0  0  0  0
  3 24  1  0  0  0  0
  4 18  1  0  0  0  0
  4  5  1  0  0  0  0
  5  6  1  0  0  0  0
  5 25  1  0  0  0  0
  5 26  1  0  0  0  0
  6  7  2  0  0  0  0
  6  8  1  0  0  0  0
  8  9  1  0  0  0  0
  8 27  1  0  0  0  0
  9 15  1  0  0  0  0
  9 10  1  0  0  0  0
  9 28  1  0  0  0  0
 10 14  1  0  0  0  0
 10 11  1  0  0  0  0
 10 29  1  0  0  0  0
 11 12  1  0  0  0  0
 11 30  1  0  0  0  0
 11 31  1  0  0  0  0
 12 13  1  0  0  0  0
 12 32  1  0  0  0  0
 12 33  1  0  0  0  0
 13 14  1  0  0  0  0
 13 15  1  0  0  0  0
 13 34  1  0  0  0  0
 14 35  1  0  0  0  0
 14 36  1  0  0  0  0
 15 16  1  0  0  0  0
 15 37  1  0  0  0  0
 16 17  1  0  0  0  0
 16 38  1  0  0  0  0
 16 39  1  0  0  0  0
 17 40  1  0  0  0  0
 18 19  1  0  0  0  0
 18 20  1  0  0  0  0
M  END
> <s_m_source_file>
AV-unprocessed.smi

> <i_m_source_file_index>
2881

> <i_lp_mmshare_version>
43012

> <i_f3d_flags>
0

> <s_epik_input>
W0NIM11jMVtjSF1jKG5bbkhdMSlbQ0gyXUMoPU8pW05IXVtDQEhdKFtDQEBIXTIzKVtDQEhdKFtDSDJdW09IXSlbQ0BASF0oW0NIMl0zKVtDSDJdW0NIMl0y

> <s_epik_cmdline>
J2VwaWtfcHl0aG9uJywgJy1waCcsICc3LjAnLCAnLXRuJywgJzgnLCAnLW1hJywgJzIwMCcsICctbWV0YWxfYmluZGluZycsICctaW1hZScsICc8aW5maWxlLm1hZT4nLCAnLW9tYWUnLCAnPG91dGZpbGUubWFlPic=

> <r_lp_tautomer_probability>
0.5

> <r_epik_Ionization_Penalty>
0.00013396

> <r_epik_Ionization_Penalty_Charging>
0

> <r_epik_Ionization_Penalty_Neutral>
0.00013396

> <r_epik_State_Penalty>
0.41068

> <r_epik_Charging_Adjusted_Penalty>
0.41068

> <i_epik_Tot_Q>
0

> <i_epik_Tot_abs_Q>
0

> <r_epik_Metal_State_Penalty>
0.41066

> <b_epik_Metal_Only>
0

> <s_lp_Force_Field>
OPLS_2005

> <r_lp_Energy>
46.6503

> <b_lp_Chiralities_Consistent>
1

> <s_lp_Variant>
AV-unprocessed.smi:2881-12

> <Gold.Version>
5.8.1

> <Gold.Id.Protein>
6NUR|6NUR_protein|mol2

> <Gold.PLP.Fitness>
37.4085

> <Gold.PLP.PLP>
-32.8012

> <Gold.PLP.part.hbond>
-5.3333

> <Gold.PLP.part.metal>
0.0000

> <Gold.PLP.part.buried>
-3.3637

> <Gold.PLP.part.nonpolar>
-23.6813

> <Gold.PLP.part.repulsive>
0.3376

> <Gold.PLP.ligand.clash>
0.0000

> <Gold.PLP.ligand.torsion>
0.1326

> <Gold.PLP.Chemscore.Hbond>
1.6138

> <Gold.PLP.Chemscore.CHOScore>
0.0000

> <Gold.PLP.Chemscore.Metal>
0.0000

> <Gold.Chemscore.Hbonds>
donor molecule, donor type, donor heavy atom, donor atom, acceptor molecule, acceptor atom, score
      P1  H  6933  6944       L1     7  0.35
      P1  H  7989  7998       L1    17  0.26
      P1  H  8011  8017       L1    17  1.00

> <Gold.PLP.Chemscore.Internal.Correction>
0.0310

> <Gold.Rescore>
     Score         DG    S(hbond)    S(metal)    S(lipo)     H(rot)  DE(clash)    DE(int)     intcor
     11.94     -13.27       1.56        0.00      71.95       2.28       0.10       1.23       ----

> <Gold.Chemscore.Fitness>
11.9406

> <Gold.Chemscore.DG>
-13.2743

> <Gold.Chemscore.ZeroCoef>
-5.4800

> <Gold.Chemscore.Hbond>
1.5572

> <Gold.Chemscore.Metal>
0.0000

> <Gold.Chemscore.Lipo>
71.9532

> <Gold.Chemscore.Internal_Hbond>
0.0000

> <Gold.Chemscore.DEClash>
0.1028

> <Gold.Chemscore.DEInternal>
1.2308

> <Gold.Chemscore.Rot>
2.2755

> <Gold.Chemscore.Internal.Correction>
   9.000000E+99

> <Gold.Chemscore.Hbonds>
donor molecule, donor type, donor heavy atom, donor atom, acceptor molecule, acceptor atom, score
      L1  H    17    40       P1  7957  0.01
      P1  H  6933  6944       L1     7  0.35
      P1  H  7989  7998       L1    17  0.14
      P1  H  8011  8017       L1    17  0.59

> <Gold.Chemscore.Hbond.Weighted>
-5.2010

> <Gold.Chemscore.Metal.Weighted>
-0.0000

> <Gold.Chemscore.Lipo.Weighted>
-8.4185

> <Gold.Chemscore.Internal_Hbond.Weighted>
0.0000

> <Gold.Chemscore.DEClash.Weighted>
0.1028

> <Gold.Chemscore.DEInternal.Weighted>
1.2308

> <Gold.Chemscore.Rot.Weighted>
5.8252

> <Gold.Chemscore.Internal.Correction.Weighted>
   9.000000E+99

> <Gold.Protein.RotatedTorsions>
[ 6907 6896 6895 6894 ] final  154.91 input  -60.11 | X-H torsion
[ 7974 7965 7964 7962 ] final  -45.55 input  175.53 | X-H torsion
[ 8008 7997 7996 7995 ] final  157.47 input   59.86 | X-H torsion
[ 10167 10162 10161 10158 ] final  -22.17 input  -65.29 | X-H torsion
[ 10718 10713 10712 10709 ] final   23.91 input   66.30 | X-H torsion
[ 10763 10752 10751 10750 ] final -121.18 input  -60.55 | X-H torsion
[ 11005 11000 10999 10996 ] final  -73.29 input  -57.11 | X-H torsion

> <Gold.Protein.ActiveResidues>
 VAL166  LYS551  ARG553  GLY616  TRP617  ASP618  TYR619  PRO620  LYS621  CYS622 
 ASP623  PHE694  ASN695  SER759  ASP760  ASP761  ALA762  ILE779  LEU786  VAL792 
 PHE793  MET794  SER795  GLU796  ALA797  LYS798  CYS799  TRP800  GLU811  SER814 

> <Gold.Protein.RotatedAtoms>
  152.0517  133.4022  159.4379 H   0  0  0  0  0  0  0  0  0  0  0  0  # atno 6907 bound_to 6896
  150.6870  134.3300  159.4832 H   0  0  0  0  0  0  0  0  0  0  0  0  # atno 6908 bound_to 6896
  152.1111  134.9273  160.0617 H   0  0  0  0  0  0  0  0  0  0  0  0  # atno 6909 bound_to 6896
  145.9809  140.7284  142.9364 H   0  0  0  0  0  0  0  0  0  0  0  0  # atno 7974 bound_to 7965
  156.2362  140.1884  156.7113 H   0  0  0  0  0  0  0  0  0  0  0  0  # atno 8008 bound_to 7997
  154.6111  140.0622  156.9521 H   0  0  0  0  0  0  0  0  0  0  0  0  # atno 8009 bound_to 7997
  155.2015  140.3292  155.4345 H   0  0  0  0  0  0  0  0  0  0  0  0  # atno 8010 bound_to 7997
  140.7285  143.4560  151.0448 H   0  0  0  0  0  0  0  0  0  0  0  0  # atno 10167 bound_to 10162
  157.1726  130.6766  149.6083 H   0  0  0  0  0  0  0  0  0  0  0  0  # atno 10718 bound_to 10713
  154.8662  135.4177  154.2578 H   0  0  0  0  0  0  0  0  0  0  0  0  # atno 10763 bound_to 10752
  153.3512  135.6999  153.6793 H   0  0  0  0  0  0  0  0  0  0  0  0  # atno 10764 bound_to 10752
  153.5732  135.3587  155.2818 H   0  0  0  0  0  0  0  0  0  0  0  0  # atno 10765 bound_to 10752
  141.1620  133.6873  156.7189 H   0  0  0  0  0  0  0  0  0  0  0  0  # atno 11005 bound_to 11000
  144.6861  140.2907  143.7278 LP  0  0  0  0  0  0  0  0  0  0  0  0  # atno 17320 bound_to 7965
  145.7771  139.1878  143.2179 LP  0  0  0  0  0  0  0  0  0  0  0  0  # atno 17321 bound_to 7965
  139.8240  143.7781  152.3178 LP  0  0  0  0  0  0  0  0  0  0  0  0  # atno 17342 bound_to 10162
  139.7873  144.7423  151.0003 LP  0  0  0  0  0  0  0  0  0  0  0  0  # atno 17343 bound_to 10162
  155.9736  130.4674  150.6323 LP  0  0  0  0  0  0  0  0  0  0  0  0  # atno 17370 bound_to 10713
  157.4029  131.0812  151.1292 LP  0  0  0  0  0  0  0  0  0  0  0  0  # atno 17371 bound_to 10713
  140.2831  134.8301  157.3951 LP  0  0  0  0  0  0  0  0  0  0  0  0  # atno 17394 bound_to 11000
  140.1415  134.4966  155.8028 LP  0  0  0  0  0  0  0  0  0  0  0  0  # atno 17395 bound_to 11000

$$$$
