AV-unprocessed.smi:2999|AV-procd|sdf|11425|dock7
  -GOLD-   2272016353D 1   1.00000     0.00000
 Structure written by MMmdl.
 37 39  0  0  0  0  0  0  0  0  3 V2000
  150.1346  136.1030  159.1226 O   0  0  0  0  0  0  0  0  0  0  0  0
  149.0876  136.5771  158.6763 C   0  0  0  0  0  0  0  0  0  0  0  0
  148.9024  136.6583  157.3533 N   0  0  0  0  0  0  0  0  0  0  0  0
  149.8473  136.2082  156.3393 C   0  0  0  0  0  0  0  0  0  0  0  0
  149.1139  135.7464  155.0715 C   0  0  2  0  0  0  0  0  0  0  0  0
  147.7837  136.4957  154.8412 C   0  0  0  0  0  0  0  0  0  0  0  0
  147.0884  135.9588  153.6500 N   0  3  2  0  0  0  0  0  0  0  0  0
  145.8268  136.6745  153.3627 C   0  0  0  0  0  0  0  0  0  0  0  0
  145.3678  136.5447  151.9291 C   0  0  0  0  0  0  0  0  0  0  0  0
  145.9918  137.8359  152.4107 C   0  0  0  0  0  0  0  0  0  0  0  0
  146.8944  134.4969  153.7748 C   0  0  0  0  0  0  0  0  0  0  0  0
  148.2407  133.8035  154.0386 C   0  0  0  0  0  0  0  0  0  0  0  0
  148.8399  134.3548  155.2052 O   0  0  0  0  0  0  0  0  0  0  0  0
  148.0458  137.0500  159.3964 N   0  5  0  0  0  0  0  0  0  0  0  0
  147.7439  136.4994  160.5837 C   0  0  0  0  0  0  0  0  0  0  0  0
  147.5630  137.2202  161.6963 N   0  0  0  0  0  0  0  0  0  0  0  0
  147.2667  136.4440  162.8184 C   0  0  0  0  0  0  0  0  0  0  0  0
  147.2298  135.1002  162.5557 C   0  0  0  0  0  0  0  0  0  0  0  0
  147.5661  134.7675  160.8809 S   0  0  0  0  0  0  0  0  0  0  0  0
  148.0339  137.0592  157.0311 H   0  0  0  0  0  0  0  0  0  0  0  0
  150.5232  137.0307  156.1019 H   0  0  0  0  0  0  0  0  0  0  0  0
  150.4589  135.3938  156.7315 H   0  0  0  0  0  0  0  0  0  0  0  0
  149.7727  135.8950  154.2133 H   0  0  0  0  0  0  0  0  0  0  0  0
  147.1386  136.3971  155.7160 H   0  0  0  0  0  0  0  0  0  0  0  0
  147.9679  137.5612  154.6990 H   0  0  0  0  0  0  0  0  0  0  0  0
  145.1024  136.7248  154.1739 H   0  0  0  0  0  0  0  0  0  0  0  0
  145.9549  135.9255  151.2529 H   0  0  0  0  0  0  0  0  0  0  0  0
  144.2958  136.5486  151.7430 H   0  0  0  0  0  0  0  0  0  0  0  0
  145.3312  138.6903  152.5430 H   0  0  0  0  0  0  0  0  0  0  0  0
  146.9933  138.0737  152.0564 H   0  0  0  0  0  0  0  0  0  0  0  0
  146.2001  134.2875  154.5901 H   0  0  0  0  0  0  0  0  0  0  0  0
  146.4460  134.1036  152.8620 H   0  0  0  0  0  0  0  0  0  0  0  0
  148.0899  132.7347  154.1905 H   0  0  0  0  0  0  0  0  0  0  0  0
  148.9102  133.9124  153.1839 H   0  0  0  0  0  0  0  0  0  0  0  0
  147.0989  136.9326  163.7665 H   0  0  0  0  0  0  0  0  0  0  0  0
  147.0283  134.2902  163.2405 H   0  0  0  0  0  0  0  0  0  0  0  0
  147.6999  136.1099  152.8604 H   0  0  0  0  0  0  0  0  0  0  0  0
  1  2  2  0  0  0  0
  2  3  1  0  0  0  0
  2 14  1  0  0  0  0
  3  4  1  0  0  0  0
  3 20  1  0  0  0  0
  4  5  1  0  0  0  0
  4 21  1  0  0  0  0
  4 22  1  0  0  0  0
  5 13  1  0  0  0  0
  5  6  1  0  0  0  0
  5 23  1  0  0  0  0
  6  7  1  0  0  0  0
  6 24  1  0  0  0  0
  6 25  1  0  0  0  0
  7  8  1  0  0  0  0
  7 11  1  0  0  0  0
  7 37  1  0  0  0  0
  8 10  1  0  0  0  0
  8  9  1  0  0  0  0
  8 26  1  0  0  0  0
  9 10  1  0  0  0  0
  9 27  1  0  0  0  0
  9 28  1  0  0  0  0
 10 29  1  0  0  0  0
 10 30  1  0  0  0  0
 11 12  1  0  0  0  0
 11 31  1  0  0  0  0
 11 32  1  0  0  0  0
 12 13  1  0  0  0  0
 12 33  1  0  0  0  0
 12 34  1  0  0  0  0
 14 15  1  0  0  0  0
 15 19  1  0  0  0  0
 15 16  2  0  0  0  0
 16 17  1  0  0  0  0
 17 18  2  0  0  0  0
 17 35  1  0  0  0  0
 18 19  1  0  0  0  0
 18 36  1  0  0  0  0
M  CHG  1   7   1
M  CHG  1  14  -1
M  END
> <s_m_source_file>
AV-unprocessed.smi

> <i_m_source_file_index>
2999

> <i_lp_mmshare_version>
43012

> <i_f3d_flags>
0

> <s_epik_input>
czFbY0hdW2NIXW5jMVtOSF1DKD1PKVtOSF1bQ0gyXVtDQEBIXTJbQ0gyXU4oW0NIMl1bQ0gyXU8yKVtDSF0zW0NIMl1bQ0gyXTM=

> <s_epik_cmdline>
J2VwaWtfcHl0aG9uJywgJy1waCcsICc3LjAnLCAnLXRuJywgJzgnLCAnLW1hJywgJzIwMCcsICctbWV0YWxfYmluZGluZycsICctaW1hZScsICc8aW5maWxlLm1hZT4nLCAnLW9tYWUnLCAnPG91dGZpbGUubWFlPic=

> <r_lp_tautomer_probability>
0.999

> <r_epik_Ionization_Penalty>
7.79196

> <r_epik_Ionization_Penalty_Charging>
6.93299

> <r_epik_Ionization_Penalty_Neutral>
0.858963

> <r_epik_State_Penalty>
7.05108

> <r_epik_Charging_Adjusted_Penalty>
13.9841

> <i_epik_Tot_Q>
0

> <i_epik_Tot_abs_Q>
2

> <r_epik_Metal_State_Penalty>
3.05936

> <b_epik_Metal_Only>
1

> <s_lp_Force_Field>
OPLS_2005

> <r_lp_Energy>
14.1159

> <b_lp_Chiralities_Consistent>
1

> <s_lp_Variant>
AV-unprocessed.smi:2999-9

> <Gold.Version>
5.8.1

> <Gold.Id.Protein>
6NUR|6NUR_protein|mol2

> <Gold.PLP.Fitness>
40.4649

> <Gold.PLP.PLP>
-28.7239

> <Gold.PLP.part.hbond>
-4.0000

> <Gold.PLP.part.metal>
0.0000

> <Gold.PLP.part.buried>
-2.3695

> <Gold.PLP.part.nonpolar>
-21.8824

> <Gold.PLP.part.repulsive>
0.1123

> <Gold.PLP.ligand.clash>
0.0000

> <Gold.PLP.ligand.torsion>
1.8559

> <Gold.PLP.Chemscore.Hbond>
4.7280

> <Gold.PLP.Chemscore.CHOScore>
0.0000

> <Gold.PLP.Chemscore.Metal>
0.0000

> <Gold.Chemscore.Hbonds>
donor molecule, donor type, donor heavy atom, donor atom, acceptor molecule, acceptor atom, score
      L1  H     7    37       P1  7948  2.00
      P1  H  6896  6908       L1     1  0.99
      P1  H  6931  6943       L1    16  0.96
      P1  H  6934  6947       L1    16  0.75

> <Gold.PLP.Chemscore.Internal.Correction>
1.2687

> <Gold.Rescore>
     Score         DG    S(hbond)    S(metal)    S(lipo)     H(rot)  DE(clash)    DE(int)     intcor
     15.97     -17.97       2.89        0.00      58.17       1.55       0.14       1.86       ----

> <Gold.Chemscore.Fitness>
15.9730

> <Gold.Chemscore.DG>
-17.9699

> <Gold.Chemscore.ZeroCoef>
-5.4800

> <Gold.Chemscore.Hbond>
2.8902

> <Gold.Chemscore.Metal>
0.0000

> <Gold.Chemscore.Lipo>
58.1678

> <Gold.Chemscore.Internal_Hbond>
0.0000

> <Gold.Chemscore.DEClash>
0.1391

> <Gold.Chemscore.DEInternal>
1.8578

> <Gold.Chemscore.Rot>
1.5504

> <Gold.Chemscore.Internal.Correction>
   9.000000E+99

> <Gold.Chemscore.Hbonds>
donor molecule, donor type, donor heavy atom, donor atom, acceptor molecule, acceptor atom, score
      L1  H     7    37       P1  7948  0.99
      P1  H  6896  6908       L1     1  0.92
      P1  H  6931  6943       L1    16  0.51
      P1  H  6934  6947       L1    16  0.26

> <Gold.Chemscore.Hbond.Weighted>
-9.6533

> <Gold.Chemscore.Metal.Weighted>
-0.0000

> <Gold.Chemscore.Lipo.Weighted>
-6.8056

> <Gold.Chemscore.Internal_Hbond.Weighted>
0.0000

> <Gold.Chemscore.DEClash.Weighted>
0.1391

> <Gold.Chemscore.DEInternal.Weighted>
1.8578

> <Gold.Chemscore.Rot.Weighted>
3.9690

> <Gold.Chemscore.Internal.Correction.Weighted>
   9.000000E+99

> <Gold.Protein.RotatedTorsions>
[ 6907 6896 6895 6894 ] final -164.60 input  -60.11 | X-H torsion
[ 7974 7965 7964 7962 ] final  -95.86 input  175.53 | X-H torsion
[ 8008 7997 7996 7995 ] final  133.17 input   59.86 | X-H torsion
[ 10167 10162 10161 10158 ] final   54.29 input  -65.29 | X-H torsion
[ 10718 10713 10712 10709 ] final   91.27 input   66.30 | X-H torsion
[ 10763 10752 10751 10750 ] final   72.77 input  -60.55 | X-H torsion
[ 11005 11000 10999 10996 ] final  -20.84 input  -57.11 | X-H torsion

> <Gold.Protein.ActiveResidues>
 VAL166  LYS551  ARG553  GLY616  TRP617  ASP618  TYR619  PRO620  LYS621  CYS622 
 ASP623  PHE694  ASN695  SER759  ASP760  ASP761  ALA762  ILE779  LEU786  VAL792 
 PHE793  MET794  SER795  GLU796  ALA797  LYS798  CYS799  TRP800  GLU811  SER814 

> <Gold.Protein.RotatedAtoms>
  151.4144  133.3717  159.2747 H   0  0  0  0  0  0  0  0  0  0  0  0  # atno 6907 bound_to 6896
  150.9339  134.8754  159.7580 H   0  0  0  0  0  0  0  0  0  0  0  0  # atno 6908 bound_to 6896
  152.5041  134.4090  159.9494 H   0  0  0  0  0  0  0  0  0  0  0  0  # atno 6909 bound_to 6896
  145.3545  140.9482  143.2535 H   0  0  0  0  0  0  0  0  0  0  0  0  # atno 7974 bound_to 7965
  156.2990  140.2528  156.3210 H   0  0  0  0  0  0  0  0  0  0  0  0  # atno 8008 bound_to 7997
  154.9235  140.0400  157.2029 H   0  0  0  0  0  0  0  0  0  0  0  0  # atno 8009 bound_to 7997
  154.8287  140.2872  155.5741 H   0  0  0  0  0  0  0  0  0  0  0  0  # atno 8010 bound_to 7997
  140.2317  144.3680  150.6412 H   0  0  0  0  0  0  0  0  0  0  0  0  # atno 10167 bound_to 10162
  157.6960  131.0401  150.3703 H   0  0  0  0  0  0  0  0  0  0  0  0  # atno 10718 bound_to 10713
  153.0480  135.5087  154.7794 H   0  0  0  0  0  0  0  0  0  0  0  0  # atno 10763 bound_to 10752
  154.6679  135.2948  154.9783 H   0  0  0  0  0  0  0  0  0  0  0  0  # atno 10764 bound_to 10752
  154.0611  135.6690  153.4864 H   0  0  0  0  0  0  0  0  0  0  0  0  # atno 10765 bound_to 10752
  140.8503  133.7861  155.9959 H   0  0  0  0  0  0  0  0  0  0  0  0  # atno 11005 bound_to 11000
  144.8692  139.5063  143.6775 LP  0  0  0  0  0  0  0  0  0  0  0  0  # atno 17320 bound_to 7965
  146.2954  139.7261  142.9131 LP  0  0  0  0  0  0  0  0  0  0  0  0  # atno 17321 bound_to 7965
  140.6180  143.2174  151.6752 LP  0  0  0  0  0  0  0  0  0  0  0  0  # atno 17342 bound_to 10162
  139.5108  144.3531  152.0633 LP  0  0  0  0  0  0  0  0  0  0  0  0  # atno 17343 bound_to 10162
  156.4129  130.3937  149.6879 LP  0  0  0  0  0  0  0  0  0  0  0  0  # atno 17370 bound_to 10713
  156.4156  130.7744  151.2759 LP  0  0  0  0  0  0  0  0  0  0  0  0  # atno 17371 bound_to 10713
  140.8797  134.2626  157.5150 LP  0  0  0  0  0  0  0  0  0  0  0  0  # atno 17394 bound_to 11000
  139.8704  134.9609  156.4379 LP  0  0  0  0  0  0  0  0  0  0  0  0  # atno 17395 bound_to 11000

$$$$
