AV-unprocessed.smi:546|AV-procd|sdf|2886|dock8
  -GOLD-   2262023383D 1   1.00000     0.00000
 Structure written by MMmdl.
 51 53  0  0  0  0  0  0  0  0  2 V2000
  147.4421  142.1108  155.1434 C   0  0  0  0  0  0  0  0  0  0  0  0
  147.2800  141.6502  156.5939 C   0  0  0  0  0  0  0  0  0  0  0  0
  147.3263  140.2342  156.6406 O   0  0  0  0  0  0  0  0  0  0  0  0
  147.4202  139.7355  157.9661 C   0  0  0  0  0  0  0  0  0  0  0  0
  147.6116  138.2129  157.9358 C   0  0  0  0  0  0  0  0  0  0  0  0
  148.8561  137.8068  158.5876 N   0  0  0  0  0  0  0  0  0  0  0  0
  149.0357  136.9651  159.6442 C   0  0  0  0  0  0  0  0  0  0  0  0
  147.9818  136.2870  160.2615 N   0  0  0  0  0  0  0  0  0  0  0  0
  147.8488  134.8313  160.2460 C   0  0  0  0  0  0  0  0  0  0  0  0
  147.5556  134.2717  161.6511 C   0  0  2  0  0  0  0  0  0  0  0  0
  147.4731  132.7399  161.6420 C   0  0  0  0  0  0  0  0  0  0  0  0
  146.2741  134.9076  162.2147 C   0  0  0  0  0  0  0  0  0  0  0  0
  146.3650  136.4413  162.1495 C   0  0  2  0  0  0  0  0  0  0  0  0
  145.0686  137.1050  162.6318 C   0  0  0  0  0  0  0  0  0  0  0  0
  146.7234  136.8799  160.7151 C   0  0  0  0  0  0  0  0  0  0  0  0
  150.2983  136.8674  160.0658 N   0  0  0  0  0  0  0  0  0  0  0  0
  150.9877  137.6883  159.1882 C   0  0  0  0  0  0  0  0  0  0  0  0
  150.1448  138.2664  158.2919 C   0  0  0  0  0  0  0  0  0  0  0  0
  150.5852  139.2170  157.2459 C   0  0  0  0  0  0  0  0  0  0  0  0
  149.7811  139.7186  156.4627 O   0  0  0  0  0  0  0  0  0  0  0  0
  151.9370  139.4398  157.2850 N   0  5  0  0  0  0  0  0  0  0  0  0
  152.8260  138.8752  158.1741 C   0  0  0  0  0  0  0  0  0  0  0  0
  154.0294  139.1364  158.1444 O   0  0  0  0  0  0  0  0  0  0  0  0
  152.3735  137.9983  159.1247 N   0  0  0  0  0  0  0  0  0  0  0  0
  153.2944  137.3825  160.0844 C   0  0  0  0  0  0  0  0  0  0  0  0
  147.3789  143.1966  155.0703 H   0  0  0  0  0  0  0  0  0  0  0  0
  146.6642  141.6859  154.5084 H   0  0  0  0  0  0  0  0  0  0  0  0
  148.4089  141.8064  154.7422 H   0  0  0  0  0  0  0  0  0  0  0  0
  148.0749  142.0750  157.2088 H   0  0  0  0  0  0  0  0  0  0  0  0
  146.3282  142.0057  156.9917 H   0  0  0  0  0  0  0  0  0  0  0  0
  148.2621  140.2036  158.4779 H   0  0  0  0  0  0  0  0  0  0  0  0
  146.5188  139.9881  158.5265 H   0  0  0  0  0  0  0  0  0  0  0  0
  146.7579  137.7367  158.4043 H   0  0  0  0  0  0  0  0  0  0  0  0
  147.6091  137.8450  156.9109 H   0  0  0  0  0  0  0  0  0  0  0  0
  147.0598  134.5480  159.5481 H   0  0  0  0  0  0  0  0  0  0  0  0
  148.7715  134.3903  159.8663 H   0  0  0  0  0  0  0  0  0  0  0  0
  148.3835  134.5529  162.3014 H   0  0  0  0  0  0  0  0  0  0  0  0
  146.6701  132.3896  160.9926 H   0  0  0  0  0  0  0  0  0  0  0  0
  147.2873  132.3511  162.6436 H   0  0  0  0  0  0  0  0  0  0  0  0
  148.4056  132.3006  161.2863 H   0  0  0  0  0  0  0  0  0  0  0  0
  145.4110  134.5648  161.6420 H   0  0  0  0  0  0  0  0  0  0  0  0
  146.1155  134.5844  163.2441 H   0  0  0  0  0  0  0  0  0  0  0  0
  147.1662  136.7582  162.8187 H   0  0  0  0  0  0  0  0  0  0  0  0
  144.2223  136.8254  162.0037 H   0  0  0  0  0  0  0  0  0  0  0  0
  145.1547  138.1918  162.6111 H   0  0  0  0  0  0  0  0  0  0  0  0
  144.8356  136.8121  163.6559 H   0  0  0  0  0  0  0  0  0  0  0  0
  146.7722  137.9659  160.6413 H   0  0  0  0  0  0  0  0  0  0  0  0
  145.9309  136.5786  160.0286 H   0  0  0  0  0  0  0  0  0  0  0  0
  153.7226  138.1424  160.7390 H   0  0  0  0  0  0  0  0  0  0  0  0
  154.1112  136.8777  159.5669 H   0  0  0  0  0  0  0  0  0  0  0  0
  152.8081  136.6404  160.7168 H   0  0  0  0  0  0  0  0  0  0  0  0
  1  2  1  0  0  0  0
  1 26  1  0  0  0  0
  1 27  1  0  0  0  0
  1 28  1  0  0  0  0
  2  3  1  0  0  0  0
  2 29  1  0  0  0  0
  2 30  1  0  0  0  0
  3  4  1  0  0  0  0
  4  5  1  0  0  0  0
  4 31  1  0  0  0  0
  4 32  1  0  0  0  0
  5  6  1  0  0  0  0
  5 33  1  0  0  0  0
  5 34  1  0  0  0  0
  6 18  1  0  0  0  0
  6  7  1  0  0  0  0
  7  8  1  0  0  0  0
  7 16  2  0  0  0  0
  8 15  1  0  0  0  0
  8  9  1  0  0  0  0
  9 10  1  0  0  0  0
  9 35  1  0  0  0  0
  9 36  1  0  0  0  0
 10 11  1  0  0  0  0
 10 12  1  0  0  0  0
 10 37  1  0  0  0  0
 11 38  1  0  0  0  0
 11 39  1  0  0  0  0
 11 40  1  0  0  0  0
 12 13  1  0  0  0  0
 12 41  1  0  0  0  0
 12 42  1  0  0  0  0
 13 14  1  0  0  0  0
 13 15  1  0  0  0  0
 13 43  1  0  0  0  0
 14 44  1  0  0  0  0
 14 45  1  0  0  0  0
 14 46  1  0  0  0  0
 15 47  1  0  0  0  0
 15 48  1  0  0  0  0
 16 17  1  0  0  0  0
 17 24  1  0  0  0  0
 17 18  2  0  0  0  0
 18 19  1  0  0  0  0
 19 20  2  0  0  0  0
 19 21  1  0  0  0  0
 21 22  1  0  0  0  0
 22 23  2  0  0  0  0
 22 24  1  0  0  0  0
 24 25  1  0  0  0  0
 25 49  1  0  0  0  0
 25 50  1  0  0  0  0
 25 51  1  0  0  0  0
M  CHG  1  21  -1
M  END
> <s_m_source_file>
AV-unprocessed.smi

> <i_m_source_file_index>
546

> <i_lp_mmshare_version>
43012

> <i_f3d_flags>
0

> <s_epik_input>
W0NIM11uMWMoPU8pW25IXWMoPU8pYyhjMTIpbihbQ0gyXVtDSDJdT1tDSDJdW0NIM10pYyhuMilOM1tDSDJdW0NAQEhdKFtDSDNdKVtDSDJdW0NAQEhdKFtDSDNdKVtDSDJdMw==

> <s_epik_cmdline>
J2VwaWtfcHl0aG9uJywgJy1waCcsICc3LjAnLCAnLXRuJywgJzgnLCAnLW1hJywgJzIwMCcsICctbWV0YWxfYmluZGluZycsICctaW1hZScsICc8aW5maWxlLm1hZT4nLCAnLW9tYWUnLCAnPG91dGZpbGUubWFlPic=

> <r_lp_tautomer_probability>
1

> <r_epik_Ionization_Penalty>
5.12825

> <r_epik_Ionization_Penalty_Charging>
0.0743105

> <r_epik_Ionization_Penalty_Neutral>
5.05394

> <r_epik_State_Penalty>
5.04406

> <r_epik_Charging_Adjusted_Penalty>
5.11837

> <i_epik_Tot_Q>
-1

> <i_epik_Tot_abs_Q>
1

> <r_epik_Metal_State_Penalty>
1.15122

> <b_epik_Metal_Only>
1

> <s_lp_Force_Field>
OPLS_2005

> <r_lp_Energy>
39.602

> <b_lp_Chiralities_Consistent>
1

> <s_lp_Variant>
AV-unprocessed.smi:546-4

> <Gold.Version>
5.8.1

> <Gold.Id.Protein>
6NUR|6NUR_protein|mol2

> <Gold.PLP.Fitness>
37.6850

> <Gold.PLP.PLP>
-34.3537

> <Gold.PLP.part.hbond>
-2.8909

> <Gold.PLP.part.metal>
0.0000

> <Gold.PLP.part.buried>
-4.6864

> <Gold.PLP.part.nonpolar>
-27.7995

> <Gold.PLP.part.repulsive>
0.0000

> <Gold.PLP.ligand.clash>
0.0000

> <Gold.PLP.ligand.torsion>
1.4933

> <Gold.PLP.Chemscore.Hbond>
1.9913

> <Gold.PLP.Chemscore.CHOScore>
0.0000

> <Gold.PLP.Chemscore.Metal>
0.0000

> <Gold.Chemscore.Hbonds>
donor molecule, donor type, donor heavy atom, donor atom, acceptor molecule, acceptor atom, score
      P1  H  6896  6907       L1    16  1.00
      P1  H  7997  8008       L1    23  0.93

> <Gold.PLP.Chemscore.Internal.Correction>
0.3441

> <Gold.Rescore>
     Score         DG    S(hbond)    S(metal)    S(lipo)     H(rot)  DE(clash)    DE(int)     intcor
      9.38     -13.96       1.48        0.00      63.45       1.52       0.09       4.48       ----

> <Gold.Chemscore.Fitness>
9.3781

> <Gold.Chemscore.DG>
-13.9575

> <Gold.Chemscore.ZeroCoef>
-5.4800

> <Gold.Chemscore.Hbond>
1.4811

> <Gold.Chemscore.Metal>
0.0000

> <Gold.Chemscore.Lipo>
63.4462

> <Gold.Chemscore.Internal_Hbond>
0.0000

> <Gold.Chemscore.DEClash>
0.0949

> <Gold.Chemscore.DEInternal>
4.4846

> <Gold.Chemscore.Rot>
1.5206

> <Gold.Chemscore.Internal.Correction>
   9.000000E+99

> <Gold.Chemscore.Hbonds>
donor molecule, donor type, donor heavy atom, donor atom, acceptor molecule, acceptor atom, score
      P1  H  6896  6907       L1    16  0.48
      P1  H  7997  8008       L1    23  0.88

> <Gold.Chemscore.Hbond.Weighted>
-4.9470

> <Gold.Chemscore.Metal.Weighted>
-0.0000

> <Gold.Chemscore.Lipo.Weighted>
-7.4232

> <Gold.Chemscore.Internal_Hbond.Weighted>
0.0000

> <Gold.Chemscore.DEClash.Weighted>
0.0949

> <Gold.Chemscore.DEInternal.Weighted>
4.4846

> <Gold.Chemscore.Rot.Weighted>
3.8926

> <Gold.Chemscore.Internal.Correction.Weighted>
   9.000000E+99

> <Gold.Protein.RotatedTorsions>
[ 6907 6896 6895 6894 ] final  -34.74 input  -60.11 | X-H torsion
[ 7974 7965 7964 7962 ] final -137.05 input  175.53 | X-H torsion
[ 8008 7997 7996 7995 ] final  -95.07 input   59.86 | X-H torsion
[ 10167 10162 10161 10158 ] final  167.63 input  -65.29 | X-H torsion
[ 10718 10713 10712 10709 ] final  120.39 input   66.30 | X-H torsion
[ 10763 10752 10751 10750 ] final   57.53 input  -60.55 | X-H torsion
[ 11005 11000 10999 10996 ] final  102.08 input  -57.11 | X-H torsion

> <Gold.Protein.ActiveResidues>
 VAL166  LYS551  ARG553  GLY616  TRP617  ASP618  TYR619  PRO620  LYS621  CYS622 
 ASP623  PHE694  ASN695  SER759  ASP760  ASP761  ALA762  ILE779  LEU786  VAL792 
 PHE793  MET794  SER795  GLU796  ALA797  LYS798  CYS799  TRP800  GLU811  SER814 

> <Gold.Protein.RotatedAtoms>
  151.0487  134.9658  159.8199 H   0  0  0  0  0  0  0  0  0  0  0  0  # atno 6907 bound_to 6896
  152.5377  134.2565  159.8929 H   0  0  0  0  0  0  0  0  0  0  0  0  # atno 6908 bound_to 6896
  151.2580  133.4273  159.2648 H   0  0  0  0  0  0  0  0  0  0  0  0  # atno 6909 bound_to 6896
  144.8875  140.6595  143.5167 H   0  0  0  0  0  0  0  0  0  0  0  0  # atno 7974 bound_to 7965
  154.7565  140.0483  157.0938 H   0  0  0  0  0  0  0  0  0  0  0  0  # atno 8008 bound_to 7997
  154.9991  140.3122  155.4855 H   0  0  0  0  0  0  0  0  0  0  0  0  # atno 8009 bound_to 7997
  156.2896  140.2205  156.5100 H   0  0  0  0  0  0  0  0  0  0  0  0  # atno 8010 bound_to 7997
  139.4949  144.3901  151.9527 H   0  0  0  0  0  0  0  0  0  0  0  0  # atno 10167 bound_to 10162
  157.5894  131.1066  150.8029 H   0  0  0  0  0  0  0  0  0  0  0  0  # atno 10718 bound_to 10713
  152.9852  135.5638  154.5406 H   0  0  0  0  0  0  0  0  0  0  0  0  # atno 10763 bound_to 10752
  154.4861  135.2790  155.1535 H   0  0  0  0  0  0  0  0  0  0  0  0  # atno 10764 bound_to 10752
  154.3023  135.6305  153.5483 H   0  0  0  0  0  0  0  0  0  0  0  0  # atno 10765 bound_to 10752
  139.8776  134.9209  156.5004 H   0  0  0  0  0  0  0  0  0  0  0  0  # atno 11005 bound_to 11000
  145.3843  139.1630  143.4263 LP  0  0  0  0  0  0  0  0  0  0  0  0  # atno 17320 bound_to 7965
  146.3033  140.3927  142.8696 LP  0  0  0  0  0  0  0  0  0  0  0  0  # atno 17321 bound_to 7965
  140.3338  144.3284  150.5981 LP  0  0  0  0  0  0  0  0  0  0  0  0  # atno 17342 bound_to 10162
  140.5623  143.2190  151.7744 LP  0  0  0  0  0  0  0  0  0  0  0  0  # atno 17343 bound_to 10162
  156.8455  130.5062  149.5317 LP  0  0  0  0  0  0  0  0  0  0  0  0  # atno 17370 bound_to 10713
  156.0946  130.5922  150.9792 LP  0  0  0  0  0  0  0  0  0  0  0  0  # atno 17371 bound_to 10713
  140.8594  133.8071  155.9249 LP  0  0  0  0  0  0  0  0  0  0  0  0  # atno 17394 bound_to 11000
  140.9065  134.2314  157.5011 LP  0  0  0  0  0  0  0  0  0  0  0  0  # atno 17395 bound_to 11000

$$$$
