AV-unprocessed.smi:3336|AV-procd|sdf|12859|dock10
  -GOLD-   2272019253D 1   1.00000     0.00000
 Structure written by MMmdl.
 41 42  0  0  0  0  0  0  0  0  1 V2000
  154.4589  140.8646  160.9593 C   0  0  0  0  0  0  0  0  0  0  0  0
  153.4737  141.5043  159.9675 C   0  0  2  0  0  0  0  0  0  0  0  0
  152.9722  142.8687  160.4804 C   0  0  0  0  0  0  0  0  0  0  0  0
  152.2359  143.6015  159.4654 N   0  0  0  0  0  0  0  0  0  0  0  0
  152.6567  143.9857  158.2093 C   0  0  0  0  0  0  0  0  0  0  0  0
  151.6253  144.6639  157.6255 C   0  0  0  0  0  0  0  0  0  0  0  0
  150.6033  144.6423  158.6156 C   0  0  0  0  0  0  0  0  0  0  0  0
  150.9703  144.0031  159.7147 N   0  0  0  0  0  0  0  0  0  0  0  0
  152.3241  140.6147  159.7945 N   0  0  0  0  0  0  0  0  0  0  0  0
  152.5971  139.3882  159.0197 C   0  0  1  0  0  0  0  0  0  0  0  0
  151.7979  138.2230  159.6258 C   0  0  0  0  0  0  0  0  0  0  0  0
  152.2640  139.5302  157.5147 C   0  0  0  0  0  0  0  0  0  0  0  0
  151.8236  140.6109  157.1177 O   0  0  0  0  0  0  0  0  0  0  0  0
  152.4546  138.4864  156.6685 N   0  0  0  0  0  0  0  0  0  0  0  0
  152.1978  138.5794  155.2268 C   0  0  0  0  0  0  0  0  0  0  0  0
  151.0504  137.6200  154.8669 C   0  0  0  0  0  0  0  0  0  0  0  0
  151.4064  136.2930  155.2435 O   0  0  0  0  0  0  0  0  0  0  0  0
  151.6839  136.1681  156.6351 C   0  0  0  0  0  0  0  0  0  0  0  0
  152.8333  137.1145  157.0291 C   0  0  0  0  0  0  0  0  0  0  0  0
  155.3163  141.5166  161.1289 H   0  0  0  0  0  0  0  0  0  0  0  0
  154.8457  139.9151  160.5900 H   0  0  0  0  0  0  0  0  0  0  0  0
  153.9884  140.6806  161.9258 H   0  0  0  0  0  0  0  0  0  0  0  0
  153.9925  141.6685  159.0224 H   0  0  0  0  0  0  0  0  0  0  0  0
  152.3359  142.7465  161.3583 H   0  0  0  0  0  0  0  0  0  0  0  0
  153.8162  143.4849  160.7941 H   0  0  0  0  0  0  0  0  0  0  0  0
  153.6457  143.7525  157.8432 H   0  0  0  0  0  0  0  0  0  0  0  0
  151.6054  145.1108  156.6427 H   0  0  0  0  0  0  0  0  0  0  0  0
  149.6124  145.0691  158.5685 H   0  0  0  0  0  0  0  0  0  0  0  0
  151.9114  140.4130  160.6936 H   0  0  0  0  0  0  0  0  0  0  0  0
  153.6572  139.1767  159.1421 H   0  0  0  0  0  0  0  0  0  0  0  0
  152.0009  137.2832  159.1118 H   0  0  0  0  0  0  0  0  0  0  0  0
  150.7236  138.4044  159.5693 H   0  0  0  0  0  0  0  0  0  0  0  0
  152.0535  138.0785  160.6760 H   0  0  0  0  0  0  0  0  0  0  0  0
  151.9481  139.5892  154.8986 H   0  0  0  0  0  0  0  0  0  0  0  0
  153.1020  138.3037  154.6820 H   0  0  0  0  0  0  0  0  0  0  0  0
  150.1243  137.9150  155.3631 H   0  0  0  0  0  0  0  0  0  0  0  0
  150.8608  137.6438  153.7937 H   0  0  0  0  0  0  0  0  0  0  0  0
  150.7855  136.3867  157.2146 H   0  0  0  0  0  0  0  0  0  0  0  0
  151.9567  135.1343  156.8477 H   0  0  0  0  0  0  0  0  0  0  0  0
  153.7447  136.8419  156.4952 H   0  0  0  0  0  0  0  0  0  0  0  0
  153.0496  136.9692  158.0843 H   0  0  0  0  0  0  0  0  0  0  0  0
  1  2  1  0  0  0  0
  1 20  1  0  0  0  0
  1 21  1  0  0  0  0
  1 22  1  0  0  0  0
  2  3  1  0  0  0  0
  2  9  1  0  0  0  0
  2 23  1  0  0  0  0
  3  4  1  0  0  0  0
  3 24  1  0  0  0  0
  3 25  1  0  0  0  0
  4  8  1  0  0  0  0
  4  5  1  0  0  0  0
  5  6  2  0  0  0  0
  5 26  1  0  0  0  0
  6  7  1  0  0  0  0
  6 27  1  0  0  0  0
  7  8  2  0  0  0  0
  7 28  1  0  0  0  0
  9 10  1  0  0  0  0
  9 29  1  0  0  0  0
 10 11  1  0  0  0  0
 10 12  1  0  0  0  0
 10 30  1  0  0  0  0
 11 31  1  0  0  0  0
 11 32  1  0  0  0  0
 11 33  1  0  0  0  0
 12 13  2  0  0  0  0
 12 14  1  0  0  0  0
 14 19  1  0  0  0  0
 14 15  1  0  0  0  0
 15 16  1  0  0  0  0
 15 34  1  0  0  0  0
 15 35  1  0  0  0  0
 16 17  1  0  0  0  0
 16 36  1  0  0  0  0
 16 37  1  0  0  0  0
 17 18  1  0  0  0  0
 18 19  1  0  0  0  0
 18 38  1  0  0  0  0
 18 39  1  0  0  0  0
 19 40  1  0  0  0  0
 19 41  1  0  0  0  0
M  END
> <s_m_source_file>
AV-unprocessed.smi

> <i_m_source_file_index>
3336

> <i_lp_mmshare_version>
43012

> <i_f3d_flags>
0

> <s_epik_input>
bjFbY0hdW2NIXVtjSF1uMVtDSDJdW0NAQEhdKFtDSDNdKVtOSF1bQ0BIXShbQ0gzXSlDKD1PKU4yW0NIMl1bQ0gyXU9bQ0gyXVtDSDJdMg==

> <s_epik_cmdline>
J2VwaWtfcHl0aG9uJywgJy1waCcsICc3LjAnLCAnLXRuJywgJzgnLCAnLW1hJywgJzIwMCcsICctbWV0YWxfYmluZGluZycsICctaW1hZScsICc8aW5maWxlLm1hZT4nLCAnLW9tYWUnLCAnPG91dGZpbGUubWFlPic=

> <r_lp_tautomer_probability>
1

> <r_epik_Ionization_Penalty>
0.739958

> <r_epik_Ionization_Penalty_Charging>
0

> <r_epik_Ionization_Penalty_Neutral>
0.739958

> <r_epik_State_Penalty>
0.765967

> <r_epik_Charging_Adjusted_Penalty>
0.765967

> <i_epik_Tot_Q>
0

> <i_epik_Tot_abs_Q>
0

> <r_epik_Metal_State_Penalty>
0.765947

> <b_epik_Metal_Only>
0

> <s_lp_Force_Field>
OPLS_2005

> <r_lp_Energy>
28.023

> <b_lp_Chiralities_Consistent>
1

> <s_lp_Variant>
AV-unprocessed.smi:3336-7

> <Gold.Version>
5.8.1

> <Gold.Id.Protein>
6NUR|6NUR_protein|mol2

> <Gold.PLP.Fitness>
44.0175

> <Gold.PLP.PLP>
-39.4784

> <Gold.PLP.part.hbond>
-1.0000

> <Gold.PLP.part.metal>
0.0000

> <Gold.PLP.part.buried>
-4.3465

> <Gold.PLP.part.nonpolar>
-34.8696

> <Gold.PLP.part.repulsive>
0.2229

> <Gold.PLP.ligand.clash>
0.0000

> <Gold.PLP.ligand.torsion>
0.6447

> <Gold.PLP.Chemscore.Hbond>
0.9272

> <Gold.PLP.Chemscore.CHOScore>
1.0000

> <Gold.PLP.Chemscore.Metal>
0.0000

> <Gold.Chemscore.Hbonds>
donor molecule, donor type, donor heavy atom, donor atom, acceptor molecule, acceptor atom, score
      P1  H 10752 10763       L1    17  0.78
      L1  C     7    28       P1  8029  1.00

> <Gold.PLP.Chemscore.Internal.Correction>
0.0469

> <Gold.Rescore>
     Score         DG    S(hbond)    S(metal)    S(lipo)     H(rot)  DE(clash)    DE(int)     intcor
     13.75     -15.44       0.64        0.00     106.04       1.79       0.40       1.28       ----

> <Gold.Chemscore.Fitness>
13.7527

> <Gold.Chemscore.DG>
-15.4365

> <Gold.Chemscore.ZeroCoef>
-5.4800

> <Gold.Chemscore.Hbond>
0.6409

> <Gold.Chemscore.Metal>
0.0000

> <Gold.Chemscore.Lipo>
106.0444

> <Gold.Chemscore.Internal_Hbond>
0.0000

> <Gold.Chemscore.DEClash>
0.4032

> <Gold.Chemscore.DEInternal>
1.2807

> <Gold.Chemscore.Rot>
1.7935

> <Gold.Chemscore.Internal.Correction>
   9.000000E+99

> <Gold.Chemscore.Hbonds>
donor molecule, donor type, donor heavy atom, donor atom, acceptor molecule, acceptor atom, score
      P1  H 10752 10763       L1    17  0.42

> <Gold.Chemscore.Hbond.Weighted>
-2.1406

> <Gold.Chemscore.Metal.Weighted>
-0.0000

> <Gold.Chemscore.Lipo.Weighted>
-12.4072

> <Gold.Chemscore.Internal_Hbond.Weighted>
0.0000

> <Gold.Chemscore.DEClash.Weighted>
0.4032

> <Gold.Chemscore.DEInternal.Weighted>
1.2807

> <Gold.Chemscore.Rot.Weighted>
4.5912

> <Gold.Chemscore.Internal.Correction.Weighted>
   9.000000E+99

> <Gold.Protein.RotatedTorsions>
[ 6907 6896 6895 6894 ] final -169.67 input  -60.11 | X-H torsion
[ 7974 7965 7964 7962 ] final   86.26 input  175.53 | X-H torsion
[ 8008 7997 7996 7995 ] final   93.85 input   59.86 | X-H torsion
[ 10167 10162 10161 10158 ] final -174.53 input  -65.29 | X-H torsion
[ 10718 10713 10712 10709 ] final -145.71 input   66.30 | X-H torsion
[ 10763 10752 10751 10750 ] final   35.58 input  -60.55 | X-H torsion
[ 11005 11000 10999 10996 ] final  156.27 input  -57.11 | X-H torsion

> <Gold.Protein.ActiveResidues>
 VAL166  LYS551  ARG553  GLY616  TRP617  ASP618  TYR619  PRO620  LYS621  CYS622 
 ASP623  PHE694  ASN695  SER759  ASP760  ASP761  ALA762  ILE779  LEU786  VAL792 
 PHE793  MET794  SER795  GLU796  ALA797  LYS798  CYS799  TRP800  GLU811  SER814 

> <Gold.Protein.RotatedAtoms>
  151.4954  133.3516  159.2859 H   0  0  0  0  0  0  0  0  0  0  0  0  # atno 6907 bound_to 6896
  150.8807  134.8200  159.7234 H   0  0  0  0  0  0  0  0  0  0  0  0  # atno 6908 bound_to 6896
  152.4761  134.4851  159.9729 H   0  0  0  0  0  0  0  0  0  0  0  0  # atno 6909 bound_to 6896
  145.5746  139.2318  143.2387 H   0  0  0  0  0  0  0  0  0  0  0  0  # atno 7974 bound_to 7965
  156.0514  140.3307  155.7355 H   0  0  0  0  0  0  0  0  0  0  0  0  # atno 8008 bound_to 7997
  155.5595  140.0617  157.2849 H   0  0  0  0  0  0  0  0  0  0  0  0  # atno 8009 bound_to 7997
  154.4437  140.1880  156.0757 H   0  0  0  0  0  0  0  0  0  0  0  0  # atno 8010 bound_to 7997
  139.5629  144.1826  152.1267 H   0  0  0  0  0  0  0  0  0  0  0  0  # atno 10167 bound_to 10162
  156.3859  130.7861  151.2058 H   0  0  0  0  0  0  0  0  0  0  0  0  # atno 10718 bound_to 10713
  153.0113  135.6329  154.1848 H   0  0  0  0  0  0  0  0  0  0  0  0  # atno 10763 bound_to 10752
  154.1590  135.2824  155.3115 H   0  0  0  0  0  0  0  0  0  0  0  0  # atno 10764 bound_to 10752
  154.5996  135.5592  153.7421 H   0  0  0  0  0  0  0  0  0  0  0  0  # atno 10765 bound_to 10752
  140.1659  134.8577  157.2632 H   0  0  0  0  0  0  0  0  0  0  0  0  # atno 11005 bound_to 11000
  146.1759  140.6573  142.9211 LP  0  0  0  0  0  0  0  0  0  0  0  0  # atno 17320 bound_to 7965
  144.7422  140.4972  143.6861 LP  0  0  0  0  0  0  0  0  0  0  0  0  # atno 17321 bound_to 7965
  140.1343  144.5260  150.6783 LP  0  0  0  0  0  0  0  0  0  0  0  0  # atno 17342 bound_to 10162
  140.6910  143.2376  151.5130 LP  0  0  0  0  0  0  0  0  0  0  0  0  # atno 17343 bound_to 10162
  157.7496  131.0330  150.4253 LP  0  0  0  0  0  0  0  0  0  0  0  0  # atno 17370 bound_to 10713
  156.4505  130.4010  149.6639 LP  0  0  0  0  0  0  0  0  0  0  0  0  # atno 17371 bound_to 10713
  140.2434  134.3768  155.7471 LP  0  0  0  0  0  0  0  0  0  0  0  0  # atno 17394 bound_to 11000
  141.2213  133.7277  156.8824 LP  0  0  0  0  0  0  0  0  0  0  0  0  # atno 17395 bound_to 11000

$$$$
