AV-unprocessed.smi:890|AV-procd|sdf|4060|dock8
  -GOLD-   22720 1553D 1   1.00000     0.00000
 Structure written by MMmdl.
 53 56  0  0  0  0  0  0  0  0  3 V2000
  150.6162  134.9846  155.4921 O   0  0  0  0  0  0  0  0  0  0  0  0
  149.7088  135.2145  154.6946 C   0  0  0  0  0  0  0  0  0  0  0  0
  149.0147  134.2922  154.0053 N   0  0  0  0  0  0  0  0  0  0  0  0
  149.1077  132.8676  154.0232 C   0  0  0  0  0  0  0  0  0  0  0  0
  150.0344  132.1443  154.8202 C   0  0  0  0  0  0  0  0  0  0  0  0
  150.0483  130.7360  154.7757 C   0  0  0  0  0  0  0  0  0  0  0  0
  149.1371  130.0666  153.9396 C   0  0  0  0  0  0  0  0  0  0  0  0
  148.2659  130.7794  153.1968 N   0  3  0  0  0  0  0  0  0  0  0  0
  148.2106  132.1340  153.2028 C   0  0  0  0  0  0  0  0  0  0  0  0
  147.2620  132.7757  152.3872 N   0  0  0  0  0  0  0  0  0  0  0  0
  145.8722  132.4580  152.6696 C   0  0  0  0  0  0  0  0  0  0  0  0
  145.0895  132.9640  151.4566 C   0  0  0  0  0  0  0  0  0  0  0  0
  146.1118  132.9872  150.3138 C   0  0  0  0  0  0  0  0  0  0  0  0
  147.4389  132.5742  150.9584 C   0  0  0  0  0  0  0  0  0  0  0  0
  149.2870  136.4529  154.4005 N   0  0  0  0  0  0  0  0  0  0  0  0
  149.8042  137.6808  154.9986 C   0  0  2  0  0  0  0  0  0  0  0  0
  151.3086  137.8101  154.7078 C   0  0  0  0  0  0  0  0  0  0  0  0
  151.8992  139.0554  155.3906 C   0  0  0  0  0  0  0  0  0  0  0  0
  151.6528  139.0280  156.8538 N   0  3  1  0  0  0  0  0  0  0  0  0
  152.3080  140.1570  157.5495 C   0  0  0  0  0  0  0  0  0  0  0  0
  151.7109  140.4636  158.9033 C   0  0  0  0  0  0  0  0  0  0  0  0
  151.4164  141.3643  157.7246 C   0  0  0  0  0  0  0  0  0  0  0  0
  150.2041  138.9426  157.1655 C   0  0  0  0  0  0  0  0  0  0  0  0
  149.5707  137.6977  156.5213 C   0  0  0  0  0  0  0  0  0  0  0  0
  148.3161  134.6600  153.3761 H   0  0  0  0  0  0  0  0  0  0  0  0
  150.7400  132.6287  155.4747 H   0  0  0  0  0  0  0  0  0  0  0  0
  150.7499  130.1776  155.3782 H   0  0  0  0  0  0  0  0  0  0  0  0
  149.0773  128.9921  153.8443 H   0  0  0  0  0  0  0  0  0  0  0  0
  145.7373  131.3811  152.7789 H   0  0  0  0  0  0  0  0  0  0  0  0
  145.5372  132.9359  153.5908 H   0  0  0  0  0  0  0  0  0  0  0  0
  144.2295  132.3309  151.2365 H   0  0  0  0  0  0  0  0  0  0  0  0
  144.7198  133.9734  151.6417 H   0  0  0  0  0  0  0  0  0  0  0  0
  145.8382  132.3104  149.5037 H   0  0  0  0  0  0  0  0  0  0  0  0
  146.1831  133.9923  149.8963 H   0  0  0  0  0  0  0  0  0  0  0  0
  148.2698  133.1698  150.5795 H   0  0  0  0  0  0  0  0  0  0  0  0
  147.6506  131.5259  150.7424 H   0  0  0  0  0  0  0  0  0  0  0  0
  148.5398  136.5541  153.7288 H   0  0  0  0  0  0  0  0  0  0  0  0
  149.2953  138.5368  154.5505 H   0  0  0  0  0  0  0  0  0  0  0  0
  151.8340  136.9211  155.0604 H   0  0  0  0  0  0  0  0  0  0  0  0
  151.4795  137.8642  153.6318 H   0  0  0  0  0  0  0  0  0  0  0  0
  152.9722  139.1001  155.2003 H   0  0  0  0  0  0  0  0  0  0  0  0
  151.4638  139.9607  154.9642 H   0  0  0  0  0  0  0  0  0  0  0  0
  153.3759  140.2783  157.3773 H   0  0  0  0  0  0  0  0  0  0  0  0
  150.9013  139.8328  159.2664 H   0  0  0  0  0  0  0  0  0  0  0  0
  152.3791  140.8494  159.6707 H   0  0  0  0  0  0  0  0  0  0  0  0
  151.8898  142.3440  157.7162 H   0  0  0  0  0  0  0  0  0  0  0  0
  150.4124  141.3300  157.3057 H   0  0  0  0  0  0  0  0  0  0  0  0
  150.0645  138.9035  158.2464 H   0  0  0  0  0  0  0  0  0  0  0  0
  149.7004  139.8447  156.8138 H   0  0  0  0  0  0  0  0  0  0  0  0
  148.5026  137.6770  156.7414 H   0  0  0  0  0  0  0  0  0  0  0  0
  149.9963  136.8003  156.9731 H   0  0  0  0  0  0  0  0  0  0  0  0
  152.0792  138.1836  157.2076 H   0  0  0  0  0  0  0  0  0  0  0  0
  147.6140  130.2709  152.5990 H   0  0  0  0  0  0  0  0  0  0  0  0
  1  2  2  0  0  0  0
  2  3  1  0  0  0  0
  2 15  1  0  0  0  0
  3  4  1  0  0  0  0
  3 25  1  0  0  0  0
  4  9  1  0  0  0  0
  4  5  2  0  0  0  0
  5  6  1  0  0  0  0
  5 26  1  0  0  0  0
  6  7  2  0  0  0  0
  6 27  1  0  0  0  0
  7  8  1  0  0  0  0
  7 28  1  0  0  0  0
  8  9  2  0  0  0  0
  8 53  1  0  0  0  0
  9 10  1  0  0  0  0
 10 14  1  0  0  0  0
 10 11  1  0  0  0  0
 11 12  1  0  0  0  0
 11 29  1  0  0  0  0
 11 30  1  0  0  0  0
 12 13  1  0  0  0  0
 12 31  1  0  0  0  0
 12 32  1  0  0  0  0
 13 14  1  0  0  0  0
 13 33  1  0  0  0  0
 13 34  1  0  0  0  0
 14 35  1  0  0  0  0
 14 36  1  0  0  0  0
 15 16  1  0  0  0  0
 15 37  1  0  0  0  0
 16 24  1  0  0  0  0
 16 17  1  0  0  0  0
 16 38  1  0  0  0  0
 17 18  1  0  0  0  0
 17 39  1  0  0  0  0
 17 40  1  0  0  0  0
 18 19  1  0  0  0  0
 18 41  1  0  0  0  0
 18 42  1  0  0  0  0
 19 20  1  0  0  0  0
 19 23  1  0  0  0  0
 19 52  1  0  0  0  0
 20 22  1  0  0  0  0
 20 21  1  0  0  0  0
 20 43  1  0  0  0  0
 21 22  1  0  0  0  0
 21 44  1  0  0  0  0
 21 45  1  0  0  0  0
 22 46  1  0  0  0  0
 22 47  1  0  0  0  0
 23 24  1  0  0  0  0
 23 48  1  0  0  0  0
 23 49  1  0  0  0  0
 24 50  1  0  0  0  0
 24 51  1  0  0  0  0
M  CHG  1   8   1
M  CHG  1  19   1
M  END
> <s_m_source_file>
AV-unprocessed.smi

> <i_m_source_file_index>
890

> <i_lp_mmshare_version>
43012

> <i_f3d_flags>
0

> <s_epik_input>
W0NIMl0xW0NIMl1bQ0hdMU4oW0NIMl1bQ0gyXTIpW0NIMl1bQ0gyXVtDSF0yW05IXUMoPU8pW05IXWMzW2NIXVtjSF1bY0hdbmMzTjRbQ0gyXVtDSDJdW0NIMl1bQ0gyXTQ=

> <s_epik_cmdline>
J2VwaWtfcHl0aG9uJywgJy1waCcsICc3LjAnLCAnLXRuJywgJzgnLCAnLW1hJywgJzIwMCcsICctbWV0YWxfYmluZGluZycsICctaW1hZScsICc8aW5maWxlLm1hZT4nLCAnLW9tYWUnLCAnPG91dGZpbGUubWFlPic=

> <r_lp_tautomer_probability>
0.999994

> <r_epik_Ionization_Penalty>
1.36901

> <r_epik_Ionization_Penalty_Charging>
1.36899

> <r_epik_Ionization_Penalty_Neutral>
1.88098e-05

> <r_epik_State_Penalty>
1.38441

> <r_epik_Charging_Adjusted_Penalty>
2.7534

> <i_epik_Tot_Q>
2

> <i_epik_Tot_abs_Q>
2

> <r_epik_Metal_State_Penalty>
1.45718

> <b_epik_Metal_Only>
0

> <s_lp_Force_Field>
OPLS_2005

> <r_lp_Energy>
65.7128

> <b_lp_Chiralities_Consistent>
1

> <s_lp_Variant>
AV-unprocessed.smi:890-4

> <Gold.Version>
5.8.1

> <Gold.Id.Protein>
6NUR|6NUR_protein|mol2

> <Gold.PLP.Fitness>
36.3097

> <Gold.PLP.PLP>
-35.2037

> <Gold.PLP.part.hbond>
-3.0000

> <Gold.PLP.part.metal>
0.0000

> <Gold.PLP.part.buried>
-0.0790

> <Gold.PLP.part.nonpolar>
-31.9503

> <Gold.PLP.part.repulsive>
0.3133

> <Gold.PLP.ligand.clash>
0.0000

> <Gold.PLP.ligand.torsion>
0.6470

> <Gold.PLP.Chemscore.Hbond>
0.3730

> <Gold.PLP.Chemscore.CHOScore>
0.0000

> <Gold.PLP.Chemscore.Metal>
0.0000

> <Gold.Chemscore.Hbonds>
donor molecule, donor type, donor heavy atom, donor atom, acceptor molecule, acceptor atom, score
      L1  H     3    25       P1  7948  0.17
      L1  H    15    37       P1  7948  0.34

> <Gold.PLP.Chemscore.Internal.Correction>
1.2811

> <Gold.Rescore>
     Score         DG    S(hbond)    S(metal)    S(lipo)     H(rot)  DE(clash)    DE(int)     intcor
      9.75     -15.29       0.65        0.00      94.71       1.35       2.13       3.40       ----

> <Gold.Chemscore.Fitness>
9.7507

> <Gold.Chemscore.DG>
-15.2883

> <Gold.Chemscore.ZeroCoef>
-5.4800

> <Gold.Chemscore.Hbond>
0.6529

> <Gold.Chemscore.Metal>
0.0000

> <Gold.Chemscore.Lipo>
94.7081

> <Gold.Chemscore.Internal_Hbond>
0.0000

> <Gold.Chemscore.DEClash>
2.1330

> <Gold.Chemscore.DEInternal>
3.4046

> <Gold.Chemscore.Rot>
1.3489

> <Gold.Chemscore.Internal.Correction>
   9.000000E+99

> <Gold.Chemscore.Hbonds>
donor molecule, donor type, donor heavy atom, donor atom, acceptor molecule, acceptor atom, score
      L1  H     3    25       P1  7948  0.13
      L1  H    15    37       P1  7948  0.34

> <Gold.Chemscore.Hbond.Weighted>
-2.1806

> <Gold.Chemscore.Metal.Weighted>
-0.0000

> <Gold.Chemscore.Lipo.Weighted>
-11.0808

> <Gold.Chemscore.Internal_Hbond.Weighted>
0.0000

> <Gold.Chemscore.DEClash.Weighted>
2.1330

> <Gold.Chemscore.DEInternal.Weighted>
3.4046

> <Gold.Chemscore.Rot.Weighted>
3.4532

> <Gold.Chemscore.Internal.Correction.Weighted>
   9.000000E+99

> <Gold.Protein.RotatedTorsions>
[ 6907 6896 6895 6894 ] final -154.20 input  -60.11 | X-H torsion
[ 7974 7965 7964 7962 ] final -103.22 input  175.53 | X-H torsion
[ 8008 7997 7996 7995 ] final  -27.60 input   59.86 | X-H torsion
[ 10167 10162 10161 10158 ] final -107.52 input  -65.29 | X-H torsion
[ 10718 10713 10712 10709 ] final    4.74 input   66.30 | X-H torsion
[ 10763 10752 10751 10750 ] final  -17.47 input  -60.55 | X-H torsion
[ 11005 11000 10999 10996 ] final  -79.34 input  -57.11 | X-H torsion

> <Gold.Protein.ActiveResidues>
 VAL166  LYS551  ARG553  GLY616  TRP617  ASP618  TYR619  PRO620  LYS621  CYS622 
 ASP623  PHE694  ASN695  SER759  ASP760  ASP761  ALA762  ILE779  LEU786  VAL792 
 PHE793  MET794  SER795  GLU796  ALA797  LYS798  CYS799  TRP800  GLU811  SER814 

> <Gold.Protein.RotatedAtoms>
  151.2540  133.4336  159.2612 H   0  0  0  0  0  0  0  0  0  0  0  0  # atno 6907 bound_to 6896
  151.0592  134.9725  159.8261 H   0  0  0  0  0  0  0  0  0  0  0  0  # atno 6908 bound_to 6896
  152.5395  134.2490  159.8944 H   0  0  0  0  0  0  0  0  0  0  0  0  # atno 6909 bound_to 6896
  145.2587  140.9262  143.3053 H   0  0  0  0  0  0  0  0  0  0  0  0  # atno 7974 bound_to 7965
  154.4370  140.1868  156.0957 H   0  0  0  0  0  0  0  0  0  0  0  0  # atno 8008 bound_to 7997
  156.0331  140.3328  155.7135 H   0  0  0  0  0  0  0  0  0  0  0  0  # atno 8009 bound_to 7997
  155.5810  140.0621  157.2774 H   0  0  0  0  0  0  0  0  0  0  0  0  # atno 8010 bound_to 7997
  140.1761  143.4004  152.1317 H   0  0  0  0  0  0  0  0  0  0  0  0  # atno 10167 bound_to 10162
  156.8971  130.5708  149.5648 H   0  0  0  0  0  0  0  0  0  0  0  0  # atno 10718 bound_to 10713
  153.5744  135.7006  153.5490 H   0  0  0  0  0  0  0  0  0  0  0  0  # atno 10763 bound_to 10752
  153.3316  135.4045  155.1500 H   0  0  0  0  0  0  0  0  0  0  0  0  # atno 10764 bound_to 10752
  154.8628  135.3720  154.5268 H   0  0  0  0  0  0  0  0  0  0  0  0  # atno 10765 bound_to 10752
  141.1667  133.7101  156.8107 H   0  0  0  0  0  0  0  0  0  0  0  0  # atno 11005 bound_to 11000
  144.9438  139.4159  143.6436 LP  0  0  0  0  0  0  0  0  0  0  0  0  # atno 17320 bound_to 7965
  146.3281  139.8411  142.8890 LP  0  0  0  0  0  0  0  0  0  0  0  0  # atno 17321 bound_to 7965
  139.5316  144.7166  151.5035 LP  0  0  0  0  0  0  0  0  0  0  0  0  # atno 17342 bound_to 10162
  140.6550  143.8617  150.6826 LP  0  0  0  0  0  0  0  0  0  0  0  0  # atno 17343 bound_to 10162
  156.0600  130.5654  150.9172 LP  0  0  0  0  0  0  0  0  0  0  0  0  # atno 17370 bound_to 10713
  157.6048  131.0939  150.8897 LP  0  0  0  0  0  0  0  0  0  0  0  0  # atno 17371 bound_to 10713
  140.2189  134.8772  157.3356 LP  0  0  0  0  0  0  0  0  0  0  0  0  # atno 17394 bound_to 11000
  140.2008  134.4257  155.7664 LP  0  0  0  0  0  0  0  0  0  0  0  0  # atno 17395 bound_to 11000

$$$$
