AV-unprocessed.smi:148|AV-procd|sdf|1204|dock9
  -GOLD-   2262018373D 1   1.00000     0.00000
 Structure written by MMmdl.
 63 67  0  0  0  0  0  0  0  0  1 V2000
  156.2602  137.3562  153.6921 O   0  0  0  0  0  0  0  0  0  0  0  0
  156.7097  137.3823  155.0312 C   0  0  0  0  0  0  0  0  0  0  0  0
  156.0659  136.2488  155.8675 C   0  0  2  0  0  0  0  0  0  0  0  0
  155.9388  136.6119  157.3683 C   0  0  0  0  0  0  0  0  0  0  0  0
  155.1511  137.8102  157.5975 N   0  0  0  0  0  0  0  0  0  0  0  0
  155.5677  139.1107  157.4223 C   0  0  0  0  0  0  0  0  0  0  0  0
  154.6819  140.0237  157.7140 N   0  0  0  0  0  0  0  0  0  0  0  0
  153.5702  139.2948  158.1159 C   0  0  0  0  0  0  0  0  0  0  0  0
  152.2798  139.6462  158.5914 C   0  0  0  0  0  0  0  0  0  0  0  0
  151.9024  140.9343  158.7544 N   0  0  0  0  0  0  0  0  0  0  0  0
  152.9396  141.7030  159.4468 C   0  0  0  0  0  0  0  0  0  0  0  0
  152.3990  143.0491  159.9387 C   0  0  0  0  0  0  0  0  0  0  0  0
  151.8059  143.8304  158.7650 C   0  0  0  0  0  0  0  0  0  0  0  0
  150.7327  142.9868  158.0647 C   0  0  0  0  0  0  0  0  0  0  0  0
  151.2643  141.6042  157.5999 C   0  0  2  0  0  0  0  0  0  0  0  0
  150.1412  140.7495  156.9112 C   0  0  2  0  0  0  0  0  0  0  0  0
  150.6731  139.7060  155.8943 C   0  0  0  0  0  0  0  0  0  0  0  0
  149.7419  139.7054  154.6761 C   0  0  0  0  0  0  0  0  0  0  0  0
  148.5269  140.5176  155.0996 C   0  0  0  0  0  0  0  0  0  0  0  0
  149.1004  141.5352  156.0819 C   0  0  1  0  0  0  0  0  0  0  0  0
  148.0548  142.0677  156.8709 O   0  0  0  0  0  0  0  0  0  0  0  0
  151.4180  138.6412  158.9007 N   0  0  0  0  0  0  0  0  0  0  0  0
  151.8034  137.3686  158.7653 C   0  0  0  0  0  0  0  0  0  0  0  0
  152.9796  136.8917  158.3515 N   0  0  0  0  0  0  0  0  0  0  0  0
  153.8416  137.9008  158.0354 C   0  0  0  0  0  0  0  0  0  0  0  0
  156.7802  134.8878  155.6697 C   0  0  2  0  0  0  0  0  0  0  0  0
  157.0381  134.5033  154.2234 C   0  0  0  0  0  0  0  0  0  0  0  0
  157.2875  133.0040  154.3322 C   0  0  0  0  0  0  0  0  0  0  0  0
  156.4425  132.5562  155.3852 O   0  0  0  0  0  0  0  0  0  0  0  0
  155.9789  133.6695  156.1441 C   0  0  0  0  0  0  0  0  0  0  0  0
  156.8240  137.9103  153.1742 H   0  0  0  0  0  0  0  0  0  0  0  0
  157.7970  137.3058  155.0361 H   0  0  0  0  0  0  0  0  0  0  0  0
  156.4790  138.3583  155.4572 H   0  0  0  0  0  0  0  0  0  0  0  0
  155.0501  136.1328  155.4866 H   0  0  0  0  0  0  0  0  0  0  0  0
  155.4682  135.7992  157.9218 H   0  0  0  0  0  0  0  0  0  0  0  0
  156.9266  136.7520  157.8089 H   0  0  0  0  0  0  0  0  0  0  0  0
  156.5611  139.3614  157.0792 H   0  0  0  0  0  0  0  0  0  0  0  0
  153.3218  141.1343  160.2963 H   0  0  0  0  0  0  0  0  0  0  0  0
  153.7802  141.8722  158.7720 H   0  0  0  0  0  0  0  0  0  0  0  0
  151.6347  142.8844  160.6993 H   0  0  0  0  0  0  0  0  0  0  0  0
  153.1946  143.6245  160.4123 H   0  0  0  0  0  0  0  0  0  0  0  0
  151.3773  144.7696  159.1158 H   0  0  0  0  0  0  0  0  0  0  0  0
  152.5930  144.0899  158.0556 H   0  0  0  0  0  0  0  0  0  0  0  0
  149.8911  142.8450  158.7441 H   0  0  0  0  0  0  0  0  0  0  0  0
  150.3600  143.5640  157.2195 H   0  0  0  0  0  0  0  0  0  0  0  0
  152.0449  141.7949  156.8619 H   0  0  0  0  0  0  0  0  0  0  0  0
  149.5880  140.2122  157.6837 H   0  0  0  0  0  0  0  0  0  0  0  0
  151.6883  139.9364  155.5704 H   0  0  0  0  0  0  0  0  0  0  0  0
  150.6958  138.7127  156.3416 H   0  0  0  0  0  0  0  0  0  0  0  0
  150.2361  140.1976  153.8374 H   0  0  0  0  0  0  0  0  0  0  0  0
  149.4745  138.6980  154.3558 H   0  0  0  0  0  0  0  0  0  0  0  0
  148.0169  140.9840  154.2560 H   0  0  0  0  0  0  0  0  0  0  0  0
  147.8126  139.8647  155.6042 H   0  0  0  0  0  0  0  0  0  0  0  0
  149.5866  142.3353  155.5221 H   0  0  0  0  0  0  0  0  0  0  0  0
  148.1702  143.0038  156.9293 H   0  0  0  0  0  0  0  0  0  0  0  0
  151.0658  136.6262  159.0322 H   0  0  0  0  0  0  0  0  0  0  0  0
  157.7352  134.8961  156.1977 H   0  0  0  0  0  0  0  0  0  0  0  0
  156.1539  134.6928  153.6131 H   0  0  0  0  0  0  0  0  0  0  0  0
  157.8814  135.0332  153.7799 H   0  0  0  0  0  0  0  0  0  0  0  0
  157.0825  132.4760  153.4007 H   0  0  0  0  0  0  0  0  0  0  0  0
  158.3240  132.8108  154.6115 H   0  0  0  0  0  0  0  0  0  0  0  0
  156.0948  133.4871  157.2126 H   0  0  0  0  0  0  0  0  0  0  0  0
  154.9152  133.7991  155.9387 H   0  0  0  0  0  0  0  0  0  0  0  0
  1  2  1  0  0  0  0
  1 31  1  0  0  0  0
  2  3  1  0  0  0  0
  2 32  1  0  0  0  0
  2 33  1  0  0  0  0
  3  4  1  0  0  0  0
  3 26  1  0  0  0  0
  3 34  1  0  0  0  0
  4  5  1  0  0  0  0
  4 35  1  0  0  0  0
  4 36  1  0  0  0  0
  5 25  1  0  0  0  0
  5  6  1  0  0  0  0
  6  7  2  0  0  0  0
  6 37  1  0  0  0  0
  7  8  1  0  0  0  0
  8 25  2  0  0  0  0
  8  9  1  0  0  0  0
  9 10  1  0  0  0  0
  9 22  2  0  0  0  0
 10 15  1  0  0  0  0
 10 11  1  0  0  0  0
 11 12  1  0  0  0  0
 11 38  1  0  0  0  0
 11 39  1  0  0  0  0
 12 13  1  0  0  0  0
 12 40  1  0  0  0  0
 12 41  1  0  0  0  0
 13 14  1  0  0  0  0
 13 42  1  0  0  0  0
 13 43  1  0  0  0  0
 14 15  1  0  0  0  0
 14 44  1  0  0  0  0
 14 45  1  0  0  0  0
 15 16  1  0  0  0  0
 15 46  1  0  0  0  0
 16 20  1  0  0  0  0
 16 17  1  0  0  0  0
 16 47  1  0  0  0  0
 17 18  1  0  0  0  0
 17 48  1  0  0  0  0
 17 49  1  0  0  0  0
 18 19  1  0  0  0  0
 18 50  1  0  0  0  0
 18 51  1  0  0  0  0
 19 20  1  0  0  0  0
 19 52  1  0  0  0  0
 19 53  1  0  0  0  0
 20 21  1  0  0  0  0
 20 54  1  0  0  0  0
 21 55  1  0  0  0  0
 22 23  1  0  0  0  0
 23 24  2  0  0  0  0
 23 56  1  0  0  0  0
 24 25  1  0  0  0  0
 26 30  1  0  0  0  0
 26 27  1  0  0  0  0
 26 57  1  0  0  0  0
 27 28  1  0  0  0  0
 27 58  1  0  0  0  0
 27 59  1  0  0  0  0
 28 29  1  0  0  0  0
 28 60  1  0  0  0  0
 28 61  1  0  0  0  0
 29 30  1  0  0  0  0
 30 62  1  0  0  0  0
 30 63  1  0  0  0  0
M  END
> <s_m_source_file>
AV-unprocessed.smi

> <i_m_source_file_index>
148

> <i_lp_mmshare_version>
43012

> <i_f3d_flags>
0

> <s_epik_input>
W0NIMl0xT1tDSDJdW0NIMl1bQ0BIXTFbQ0BIXShbQ0gyXVtPSF0pW0NIMl1uKFtjSF1uMiljKGMyMyluW2NIXW5jM040W0NIMl1bQ0gyXVtDSDJdW0NIMl1bQ0BIXTRbQ0BASF01W0NIMl1bQ0gyXVtDSDJdW0NASF01W09IXQ==

> <s_epik_cmdline>
J2VwaWtfcHl0aG9uJywgJy1waCcsICc3LjAnLCAnLXRuJywgJzgnLCAnLW1hJywgJzIwMCcsICctbWV0YWxfYmluZGluZycsICctaW1hZScsICc8aW5maWxlLm1hZT4nLCAnLW9tYWUnLCAnPG91dGZpbGUubWFlPic=

> <r_lp_tautomer_probability>
1

> <r_epik_Ionization_Penalty>
0.00556303

> <r_epik_Ionization_Penalty_Charging>
0

> <r_epik_Ionization_Penalty_Neutral>
0.00556303

> <r_epik_State_Penalty>
0.00401767

> <r_epik_Charging_Adjusted_Penalty>
0.00401767

> <i_epik_Tot_Q>
0

> <i_epik_Tot_abs_Q>
0

> <r_epik_Metal_State_Penalty>
-0

> <b_epik_Metal_Only>
0

> <s_lp_Force_Field>
OPLS_2005

> <r_lp_Energy>
68.5956

> <b_lp_Chiralities_Consistent>
1

> <s_lp_Variant>
AV-unprocessed.smi:148-3

> <Gold.Version>
5.8.1

> <Gold.Id.Protein>
6NUR|6NUR_protein|mol2

> <Gold.PLP.Fitness>
53.3387

> <Gold.PLP.PLP>
-44.2133

> <Gold.PLP.part.hbond>
-4.2698

> <Gold.PLP.part.metal>
0.0000

> <Gold.PLP.part.buried>
-5.2433

> <Gold.PLP.part.nonpolar>
-34.6280

> <Gold.PLP.part.repulsive>
0.0000

> <Gold.PLP.ligand.clash>
0.0000

> <Gold.PLP.ligand.torsion>
1.6922

> <Gold.PLP.Chemscore.Hbond>
4.0000

> <Gold.PLP.Chemscore.CHOScore>
0.0000

> <Gold.PLP.Chemscore.Metal>
0.0000

> <Gold.Chemscore.Hbonds>
donor molecule, donor type, donor heavy atom, donor atom, acceptor molecule, acceptor atom, score
      L1  H    21    55       P1  8028  0.39

> <Gold.PLP.Chemscore.Internal.Correction>
0.5097

> <Gold.Rescore>
     Score         DG    S(hbond)    S(metal)    S(lipo)     H(rot)  DE(clash)    DE(int)     intcor
     16.83     -21.43       3.64        0.00     105.08       3.32       0.13       4.48       ----

> <Gold.Chemscore.Fitness>
16.8256

> <Gold.Chemscore.DG>
-21.4334

> <Gold.Chemscore.ZeroCoef>
-5.4800

> <Gold.Chemscore.Hbond>
3.6405

> <Gold.Chemscore.Metal>
0.0000

> <Gold.Chemscore.Lipo>
105.0775

> <Gold.Chemscore.Internal_Hbond>
0.0000

> <Gold.Chemscore.DEClash>
0.1251

> <Gold.Chemscore.DEInternal>
4.4826

> <Gold.Chemscore.Rot>
3.3203

> <Gold.Chemscore.Internal.Correction>
   9.000000E+99

> <Gold.Chemscore.Hbonds>
donor molecule, donor type, donor heavy atom, donor atom, acceptor molecule, acceptor atom, score
      L1  H    21    55       P1  8028  0.10

> <Gold.Chemscore.Hbond.Weighted>
-12.1593

> <Gold.Chemscore.Metal.Weighted>
-0.0000

> <Gold.Chemscore.Lipo.Weighted>
-12.2941

> <Gold.Chemscore.Internal_Hbond.Weighted>
0.0000

> <Gold.Chemscore.DEClash.Weighted>
0.1251

> <Gold.Chemscore.DEInternal.Weighted>
4.4826

> <Gold.Chemscore.Rot.Weighted>
8.5000

> <Gold.Chemscore.Internal.Correction.Weighted>
   9.000000E+99

> <Gold.Protein.RotatedTorsions>
[ 6907 6896 6895 6894 ] final  128.41 input  -60.11 | X-H torsion
[ 7974 7965 7964 7962 ] final  -35.86 input  175.53 | X-H torsion
[ 8008 7997 7996 7995 ] final -101.14 input   59.86 | X-H torsion
[ 10167 10162 10161 10158 ] final  -96.85 input  -65.29 | X-H torsion
[ 10718 10713 10712 10709 ] final  -96.92 input   66.30 | X-H torsion
[ 10763 10752 10751 10750 ] final -164.67 input  -60.55 | X-H torsion
[ 11005 11000 10999 10996 ] final -129.33 input  -57.11 | X-H torsion

> <Gold.Protein.ActiveResidues>
 VAL166  LYS551  ARG553  GLY616  TRP617  ASP618  TYR619  PRO620  LYS621  CYS622 
 ASP623  PHE694  ASN695  SER759  ASP760  ASP761  ALA762  ILE779  LEU786  VAL792 
 PHE793  MET794  SER795  GLU796  ALA797  LYS798  CYS799  TRP800  GLU811  SER814 

> <Gold.Protein.RotatedAtoms>
  152.3722  133.6434  159.6095 H   0  0  0  0  0  0  0  0  0  0  0  0  # atno 6907 bound_to 6896
  150.7677  133.9251  159.3419 H   0  0  0  0  0  0  0  0  0  0  0  0  # atno 6908 bound_to 6896
  151.7072  135.0920  160.0312 H   0  0  0  0  0  0  0  0  0  0  0  0  # atno 6909 bound_to 6896
  146.0710  140.6210  142.8952 H   0  0  0  0  0  0  0  0  0  0  0  0  # atno 7974 bound_to 7965
  154.8384  140.0436  157.1525 H   0  0  0  0  0  0  0  0  0  0  0  0  # atno 8008 bound_to 7997
  154.9074  140.3009  155.5264 H   0  0  0  0  0  0  0  0  0  0  0  0  # atno 8009 bound_to 7997
  156.2991  140.2364  156.4109 H   0  0  0  0  0  0  0  0  0  0  0  0  # atno 8010 bound_to 7997
  140.2895  143.3230  152.0360 H   0  0  0  0  0  0  0  0  0  0  0  0  # atno 10167 bound_to 10162
  156.0072  130.5172  150.6297 H   0  0  0  0  0  0  0  0  0  0  0  0  # atno 10718 bound_to 10713
  154.7006  135.2987  154.9347 H   0  0  0  0  0  0  0  0  0  0  0  0  # atno 10763 bound_to 10752
  154.0280  135.6674  153.4782 H   0  0  0  0  0  0  0  0  0  0  0  0  # atno 10764 bound_to 10752
  153.0678  135.5078  154.8148 H   0  0  0  0  0  0  0  0  0  0  0  0  # atno 10765 bound_to 10752
  140.9441  134.1154  157.4124 H   0  0  0  0  0  0  0  0  0  0  0  0  # atno 11005 bound_to 11000
  144.7232  140.4440  143.6993 LP  0  0  0  0  0  0  0  0  0  0  0  0  # atno 17320 bound_to 7965
  145.6391  139.1547  143.2926 LP  0  0  0  0  0  0  0  0  0  0  0  0  # atno 17321 bound_to 7965
  139.4941  144.6535  151.6625 LP  0  0  0  0  0  0  0  0  0  0  0  0  # atno 17342 bound_to 10162
  140.5744  144.0054  150.6233 LP  0  0  0  0  0  0  0  0  0  0  0  0  # atno 17343 bound_to 10162
  157.4098  131.0822  151.1232 LP  0  0  0  0  0  0  0  0  0  0  0  0  # atno 17370 bound_to 10713
  157.1867  130.6333  149.5690 LP  0  0  0  0  0  0  0  0  0  0  0  0  # atno 17371 bound_to 10713
  139.8828  135.0046  156.6257 LP  0  0  0  0  0  0  0  0  0  0  0  0  # atno 17394 bound_to 11000
  140.7694  133.8751  155.8480 LP  0  0  0  0  0  0  0  0  0  0  0  0  # atno 17395 bound_to 11000

$$$$
