AV-unprocessed.smi:2678|AV-procd|sdf|10367|dock1
  -GOLD-   2272014393D 1   1.00000     0.00000
 Structure written by MMmdl.
 46 47  0  0  0  0  0  0  0  0  1 V2000
  149.4783  133.7962  154.4354 C   0  0  0  0  0  0  0  0  0  0  0  0
  148.3242  134.6889  154.9189 C   0  0  0  0  0  0  0  0  0  0  0  0
  146.9608  134.1362  154.4833 C   0  0  0  0  0  0  0  0  0  0  0  0
  148.4805  136.0481  154.4093 N   0  0  0  0  0  0  0  0  0  0  0  0
  148.6101  137.1533  155.1604 C   0  0  0  0  0  0  0  0  0  0  0  0
  148.6137  137.1376  156.3919 O   0  0  0  0  0  0  0  0  0  0  0  0
  148.7621  138.4790  154.4028 C   0  0  1  0  0  0  0  0  0  0  0  0
  147.4953  138.7995  153.5819 C   0  0  0  0  0  0  0  0  0  0  0  0
  147.6381  140.1350  152.8344 C   0  0  0  0  0  0  0  0  0  0  0  0
  147.9729  141.2826  153.8002 C   0  0  0  0  0  0  0  0  0  0  0  0
  149.2382  140.9737  154.6214 C   0  0  1  0  0  0  0  0  0  0  0  0
  149.4952  142.0726  155.5549 N   0  0  0  0  0  0  0  0  0  0  0  0
  150.1945  142.0491  156.7046 C   0  0  0  0  0  0  0  0  0  0  0  0
  150.7063  141.0098  157.1145 O   0  0  0  0  0  0  0  0  0  0  0  0
  150.2493  143.2349  157.3427 N   0  0  0  0  0  0  0  0  0  0  0  0
  150.9370  143.5731  158.5390 C   0  0  0  0  0  0  0  0  0  0  0  0
  151.8873  142.7392  159.1766 C   0  0  0  0  0  0  0  0  0  0  0  0
  152.5168  143.1996  160.3491 C   0  0  0  0  0  0  0  0  0  0  0  0
  152.1795  144.4770  160.8371 C   0  0  0  0  0  0  0  0  0  0  0  0
  151.2859  145.2877  160.2324 N   0  0  0  0  0  0  0  0  0  0  0  0
  150.6872  144.8400  159.1080 C   0  0  0  0  0  0  0  0  0  0  0  0
  149.0773  139.6357  155.3743 C   0  0  0  0  0  0  0  0  0  0  0  0
  149.3703  132.7792  154.8136 H   0  0  0  0  0  0  0  0  0  0  0  0
  150.4422  134.1719  154.7800 H   0  0  0  0  0  0  0  0  0  0  0  0
  149.5109  133.7441  153.3464 H   0  0  0  0  0  0  0  0  0  0  0  0
  148.3379  134.7152  156.0101 H   0  0  0  0  0  0  0  0  0  0  0  0
  146.8009  133.1328  154.8791 H   0  0  0  0  0  0  0  0  0  0  0  0
  146.8814  134.0816  153.3971 H   0  0  0  0  0  0  0  0  0  0  0  0
  146.1475  134.7657  154.8460 H   0  0  0  0  0  0  0  0  0  0  0  0
  148.4897  136.1572  153.4055 H   0  0  0  0  0  0  0  0  0  0  0  0
  149.5997  138.3822  153.7094 H   0  0  0  0  0  0  0  0  0  0  0  0
  147.2997  138.0004  152.8654 H   0  0  0  0  0  0  0  0  0  0  0  0
  146.6231  138.8472  154.2360 H   0  0  0  0  0  0  0  0  0  0  0  0
  148.4225  140.0504  152.0813 H   0  0  0  0  0  0  0  0  0  0  0  0
  146.7166  140.3597  152.2968 H   0  0  0  0  0  0  0  0  0  0  0  0
  148.1074  142.2069  153.2373 H   0  0  0  0  0  0  0  0  0  0  0  0
  147.1275  141.4486  154.4698 H   0  0  0  0  0  0  0  0  0  0  0  0
  150.0724  140.8936  153.9221 H   0  0  0  0  0  0  0  0  0  0  0  0
  149.0852  142.9605  155.3028 H   0  0  0  0  0  0  0  0  0  0  0  0
  149.7031  143.9791  156.9341 H   0  0  0  0  0  0  0  0  0  0  0  0
  152.1565  141.7701  158.7865 H   0  0  0  0  0  0  0  0  0  0  0  0
  153.2456  142.5879  160.8602 H   0  0  0  0  0  0  0  0  0  0  0  0
  152.6446  144.8606  161.7331 H   0  0  0  0  0  0  0  0  0  0  0  0
  149.9812  145.5168  158.6489 H   0  0  0  0  0  0  0  0  0  0  0  0
  148.2802  139.7299  156.1141 H   0  0  0  0  0  0  0  0  0  0  0  0
  149.9861  139.4067  155.9323 H   0  0  0  0  0  0  0  0  0  0  0  0
  1  2  1  0  0  0  0
  1 23  1  0  0  0  0
  1 24  1  0  0  0  0
  1 25  1  0  0  0  0
  2  3  1  0  0  0  0
  2  4  1  0  0  0  0
  2 26  1  0  0  0  0
  3 27  1  0  0  0  0
  3 28  1  0  0  0  0
  3 29  1  0  0  0  0
  4  5  1  0  0  0  0
  4 30  1  0  0  0  0
  5  6  2  0  0  0  0
  5  7  1  0  0  0  0
  7 22  1  0  0  0  0
  7  8  1  0  0  0  0
  7 31  1  0  0  0  0
  8  9  1  0  0  0  0
  8 32  1  0  0  0  0
  8 33  1  0  0  0  0
  9 10  1  0  0  0  0
  9 34  1  0  0  0  0
  9 35  1  0  0  0  0
 10 11  1  0  0  0  0
 10 36  1  0  0  0  0
 10 37  1  0  0  0  0
 11 12  1  0  0  0  0
 11 22  1  0  0  0  0
 11 38  1  0  0  0  0
 12 13  1  0  0  0  0
 12 39  1  0  0  0  0
 13 14  2  0  0  0  0
 13 15  1  0  0  0  0
 15 16  1  0  0  0  0
 15 40  1  0  0  0  0
 16 21  1  0  0  0  0
 16 17  2  0  0  0  0
 17 18  1  0  0  0  0
 17 41  1  0  0  0  0
 18 19  2  0  0  0  0
 18 42  1  0  0  0  0
 19 20  1  0  0  0  0
 19 43  1  0  0  0  0
 20 21  2  0  0  0  0
 21 44  1  0  0  0  0
 22 45  1  0  0  0  0
 22 46  1  0  0  0  0
M  END
> <s_m_source_file>
AV-unprocessed.smi

> <i_m_source_file_index>
2678

> <i_lp_mmshare_version>
43012

> <i_f3d_flags>
0

> <s_epik_input>
W0NIM11bQ0hdKFtDSDNdKVtOSF1DKD1PKVtDQEBIXTFbQ0gyXVtDSDJdW0NIMl1bQ0BIXShbQ0gyXTEpW05IXUMoPU8pW05IXWMyW2NIXVtjSF1bY0hdbltjSF0y

> <s_epik_cmdline>
J2VwaWtfcHl0aG9uJywgJy1waCcsICc3LjAnLCAnLXRuJywgJzgnLCAnLW1hJywgJzIwMCcsICctbWV0YWxfYmluZGluZycsICctaW1hZScsICc8aW5maWxlLm1hZT4nLCAnLW9tYWUnLCAnPG91dGZpbGUubWFlPic=

> <r_epik_Ionization_Penalty>
0.00482944

> <r_epik_Ionization_Penalty_Charging>
0

> <r_epik_Ionization_Penalty_Neutral>
0.00482944

> <r_epik_State_Penalty>
0.00347168

> <r_epik_Charging_Adjusted_Penalty>
0.00347168

> <i_epik_Tot_Q>
0

> <i_epik_Tot_abs_Q>
0

> <r_epik_Metal_State_Penalty>
-0

> <b_epik_Metal_Only>
0

> <s_lp_Force_Field>
OPLS_2005

> <r_lp_Energy>
23.8457

> <b_lp_Chiralities_Consistent>
1

> <s_lp_Variant>
AV-unprocessed.smi:2678-2

> <Gold.Version>
5.8.1

> <Gold.Id.Protein>
6NUR|6NUR_protein|mol2

> <Gold.PLP.Fitness>
46.9976

> <Gold.PLP.PLP>
-35.8327

> <Gold.PLP.part.hbond>
-3.0000

> <Gold.PLP.part.metal>
0.0000

> <Gold.PLP.part.buried>
-3.0651

> <Gold.PLP.part.nonpolar>
-31.4910

> <Gold.PLP.part.repulsive>
0.4008

> <Gold.PLP.ligand.clash>
0.0000

> <Gold.PLP.ligand.torsion>
0.4317

> <Gold.PLP.Chemscore.Hbond>
2.9920

> <Gold.PLP.Chemscore.CHOScore>
1.0000

> <Gold.PLP.Chemscore.Metal>
0.0000

> <Gold.Chemscore.Hbonds>
donor molecule, donor type, donor heavy atom, donor atom, acceptor molecule, acceptor atom, score
      L1  H     4    30       P1  7948  1.00
      L1  H    12    39       P1  8028  0.99
      L1  H    15    40       P1  8028  1.00
      L1  C    21    44       P1  8029  1.00

> <Gold.PLP.Chemscore.Internal.Correction>
0.0523

> <Gold.Rescore>
     Score         DG    S(hbond)    S(metal)    S(lipo)     H(rot)  DE(clash)    DE(int)     intcor
     19.23     -23.93       2.92        0.00     106.39       1.46       1.62       3.08       ----

> <Gold.Chemscore.Fitness>
19.2267

> <Gold.Chemscore.DG>
-23.9285

> <Gold.Chemscore.ZeroCoef>
-5.4800

> <Gold.Chemscore.Hbond>
2.9159

> <Gold.Chemscore.Metal>
0.0000

> <Gold.Chemscore.Lipo>
106.3912

> <Gold.Chemscore.Internal_Hbond>
0.0000

> <Gold.Chemscore.DEClash>
1.6175

> <Gold.Chemscore.DEInternal>
3.0843

> <Gold.Chemscore.Rot>
1.4603

> <Gold.Chemscore.Internal.Correction>
   9.000000E+99

> <Gold.Chemscore.Hbonds>
donor molecule, donor type, donor heavy atom, donor atom, acceptor molecule, acceptor atom, score
      L1  H     4    30       P1  7948  0.99
      L1  H    12    39       P1  8028  0.93
      L1  H    15    40       P1  8028  0.86

> <Gold.Chemscore.Hbond.Weighted>
-9.7391

> <Gold.Chemscore.Metal.Weighted>
-0.0000

> <Gold.Chemscore.Lipo.Weighted>
-12.4478

> <Gold.Chemscore.Internal_Hbond.Weighted>
0.0000

> <Gold.Chemscore.DEClash.Weighted>
1.6175

> <Gold.Chemscore.DEInternal.Weighted>
3.0843

> <Gold.Chemscore.Rot.Weighted>
3.7383

> <Gold.Chemscore.Internal.Correction.Weighted>
   9.000000E+99

> <Gold.Protein.RotatedTorsions>
[ 6907 6896 6895 6894 ] final   22.22 input  -60.11 | X-H torsion
[ 7974 7965 7964 7962 ] final   93.59 input  175.53 | X-H torsion
[ 8008 7997 7996 7995 ] final -133.74 input   59.86 | X-H torsion
[ 10167 10162 10161 10158 ] final  145.23 input  -65.29 | X-H torsion
[ 10718 10713 10712 10709 ] final -123.01 input   66.30 | X-H torsion
[ 10763 10752 10751 10750 ] final  177.44 input  -60.55 | X-H torsion
[ 11005 11000 10999 10996 ] final  -63.68 input  -57.11 | X-H torsion

> <Gold.Protein.ActiveResidues>
 VAL166  LYS551  ARG553  GLY616  TRP617  ASP618  TYR619  PRO620  LYS621  CYS622 
 ASP623  PHE694  ASN695  SER759  ASP760  ASP761  ALA762  ILE779  LEU786  VAL792 
 PHE793  MET794  SER795  GLU796  ALA797  LYS798  CYS799  TRP800  GLU811  SER814 

> <Gold.Protein.RotatedAtoms>
  151.9239  135.0286  160.0523 H   0  0  0  0  0  0  0  0  0  0  0  0  # atno 6907 bound_to 6896
  152.2176  133.4954  159.5153 H   0  0  0  0  0  0  0  0  0  0  0  0  # atno 6908 bound_to 6896
  150.6991  134.1301  159.4109 H   0  0  0  0  0  0  0  0  0  0  0  0  # atno 6909 bound_to 6896
  145.4769  139.2280  143.2904 H   0  0  0  0  0  0  0  0  0  0  0  0  # atno 7974 bound_to 7965
  155.3505  140.0477  157.3046 H   0  0  0  0  0  0  0  0  0  0  0  0  # atno 8008 bound_to 7997
  154.5230  140.2231  155.8906 H   0  0  0  0  0  0  0  0  0  0  0  0  # atno 8009 bound_to 7997
  156.1709  140.3096  155.8978 H   0  0  0  0  0  0  0  0  0  0  0  0  # atno 8010 bound_to 7997
  139.4930  144.5916  151.6668 H   0  0  0  0  0  0  0  0  0  0  0  0  # atno 10167 bound_to 10162
  156.1466  130.6504  150.9851 H   0  0  0  0  0  0  0  0  0  0  0  0  # atno 10718 bound_to 10713
  154.4945  135.2780  155.1470 H   0  0  0  0  0  0  0  0  0  0  0  0  # atno 10763 bound_to 10752
  154.3128  135.6225  153.5477 H   0  0  0  0  0  0  0  0  0  0  0  0  # atno 10764 bound_to 10752
  152.9893  135.5724  154.5374 H   0  0  0  0  0  0  0  0  0  0  0  0  # atno 10765 bound_to 10752
  141.1401  133.6655  156.5717 H   0  0  0  0  0  0  0  0  0  0  0  0  # atno 11005 bound_to 11000
  146.2364  140.5552  142.8953 LP  0  0  0  0  0  0  0  0  0  0  0  0  # atno 17320 bound_to 7965
  144.7912  140.6035  143.6540 LP  0  0  0  0  0  0  0  0  0  0  0  0  # atno 17321 bound_to 7965
  140.5544  144.0371  150.6141 LP  0  0  0  0  0  0  0  0  0  0  0  0  # atno 17342 bound_to 10162
  140.3437  143.3004  152.0561 LP  0  0  0  0  0  0  0  0  0  0  0  0  # atno 17343 bound_to 10162
  157.6621  131.0879  150.7813 LP  0  0  0  0  0  0  0  0  0  0  0  0  # atno 17370 bound_to 10713
  156.7884  130.4882  149.5389 LP  0  0  0  0  0  0  0  0  0  0  0  0  # atno 17371 bound_to 10713
  140.3908  134.7442  157.4720 LP  0  0  0  0  0  0  0  0  0  0  0  0  # atno 17394 bound_to 11000
  140.0568  134.6052  155.8796 LP  0  0  0  0  0  0  0  0  0  0  0  0  # atno 17395 bound_to 11000

$$$$
