AV-unprocessed.smi:1070|AV-procd|sdf|4676|dock1
  -GOLD-   22720 3193D 1   1.00000     0.00000
 Structure written by MMmdl.
 48 49  0  0  0  0  0  0  0  0  1 V2000
  152.5496  129.6178  154.9638 C   0  0  0  0  0  0  0  0  0  0  0  0
  151.1692  130.2648  154.8297 C   0  0  0  0  0  0  0  0  0  0  0  0
  150.9065  131.0281  155.9939 O   0  0  0  0  0  0  0  0  0  0  0  0
  149.6379  131.6671  155.9595 C   0  0  0  0  0  0  0  0  0  0  0  0
  149.3648  132.3137  157.3174 C   0  0  0  0  0  0  0  0  0  0  0  0
  149.4720  131.6417  158.3425 O   0  0  0  0  0  0  0  0  0  0  0  0
  149.0187  133.6128  157.2882 N   0  0  0  0  0  0  0  0  0  0  0  0
  148.6062  134.4384  158.3705 C   0  0  0  0  0  0  0  0  0  0  0  0
  148.1579  133.9053  159.6018 C   0  0  0  0  0  0  0  0  0  0  0  0
  147.8102  134.7840  160.6434 C   0  0  0  0  0  0  0  0  0  0  0  0
  147.9311  136.1693  160.4291 C   0  0  0  0  0  0  0  0  0  0  0  0
  147.5898  137.0305  161.4517 O   0  0  0  0  0  0  0  0  0  0  0  0
  147.3641  136.4841  162.7465 C   0  0  0  0  0  0  0  0  0  0  0  0
  148.3731  136.6870  159.2578 N   0  0  0  0  0  0  0  0  0  0  0  0
  148.7066  135.8495  158.2473 C   0  0  0  0  0  0  0  0  0  0  0  0
  149.1431  136.4338  157.0417 N   0  0  0  0  0  0  0  0  0  0  0  0
  150.5064  136.1287  156.6042 C   0  0  0  0  0  0  0  0  0  0  0  0
  150.7339  136.6221  155.1625 C   0  0  0  0  0  0  0  0  0  0  0  0
  150.3960  138.0497  155.0843 N   0  0  0  0  0  0  0  0  0  0  0  0
  151.3181  139.0118  154.8440 C   0  0  0  0  0  0  0  0  0  0  0  0
  152.7707  138.6075  154.5828 C   0  0  0  0  0  0  0  0  0  0  0  0
  151.0395  140.2109  154.8259 O   0  0  0  0  0  0  0  0  0  0  0  0
  148.9838  138.2841  155.4174 C   0  0  0  0  0  0  0  0  0  0  0  0
  148.7291  137.8260  156.8651 C   0  0  0  0  0  0  0  0  0  0  0  0
  152.7952  129.0362  154.0751 H   0  0  0  0  0  0  0  0  0  0  0  0
  152.5843  128.9465  155.8219 H   0  0  0  0  0  0  0  0  0  0  0  0
  153.3254  130.3725  155.0956 H   0  0  0  0  0  0  0  0  0  0  0  0
  151.1407  130.9060  153.9476 H   0  0  0  0  0  0  0  0  0  0  0  0
  150.4080  129.4935  154.7035 H   0  0  0  0  0  0  0  0  0  0  0  0
  149.6182  132.4301  155.1794 H   0  0  0  0  0  0  0  0  0  0  0  0
  148.8505  130.9436  155.7431 H   0  0  0  0  0  0  0  0  0  0  0  0
  148.8964  134.0116  156.3683 H   0  0  0  0  0  0  0  0  0  0  0  0
  148.0928  132.8408  159.7686 H   0  0  0  0  0  0  0  0  0  0  0  0
  147.4643  134.4014  161.5923 H   0  0  0  0  0  0  0  0  0  0  0  0
  147.1123  137.2875  163.4386 H   0  0  0  0  0  0  0  0  0  0  0  0
  148.2554  135.9850  163.1300 H   0  0  0  0  0  0  0  0  0  0  0  0
  146.5325  135.7779  162.7424 H   0  0  0  0  0  0  0  0  0  0  0  0
  151.2218  136.6072  157.2748 H   0  0  0  0  0  0  0  0  0  0  0  0
  150.6787  135.0531  156.6604 H   0  0  0  0  0  0  0  0  0  0  0  0
  151.7599  136.4099  154.8594 H   0  0  0  0  0  0  0  0  0  0  0  0
  150.0977  136.0667  154.4717 H   0  0  0  0  0  0  0  0  0  0  0  0
  152.8414  137.9643  153.7050 H   0  0  0  0  0  0  0  0  0  0  0  0
  153.1860  138.0823  155.4433 H   0  0  0  0  0  0  0  0  0  0  0  0
  153.3882  139.4877  154.4008 H   0  0  0  0  0  0  0  0  0  0  0  0
  148.6681  139.3195  155.3001 H   0  0  0  0  0  0  0  0  0  0  0  0
  148.3592  137.7086  154.7332 H   0  0  0  0  0  0  0  0  0  0  0  0
  147.6748  137.9547  157.1092 H   0  0  0  0  0  0  0  0  0  0  0  0
  149.2903  138.4525  157.5597 H   0  0  0  0  0  0  0  0  0  0  0  0
  1  2  1  0  0  0  0
  1 25  1  0  0  0  0
  1 26  1  0  0  0  0
  1 27  1  0  0  0  0
  2  3  1  0  0  0  0
  2 28  1  0  0  0  0
  2 29  1  0  0  0  0
  3  4  1  0  0  0  0
  4  5  1  0  0  0  0
  4 30  1  0  0  0  0
  4 31  1  0  0  0  0
  5  6  2  0  0  0  0
  5  7  1  0  0  0  0
  7  8  1  0  0  0  0
  7 32  1  0  0  0  0
  8 15  1  0  0  0  0
  8  9  2  0  0  0  0
  9 10  1  0  0  0  0
  9 33  1  0  0  0  0
 10 11  2  0  0  0  0
 10 34  1  0  0  0  0
 11 12  1  0  0  0  0
 11 14  1  0  0  0  0
 12 13  1  0  0  0  0
 13 35  1  0  0  0  0
 13 36  1  0  0  0  0
 13 37  1  0  0  0  0
 14 15  2  0  0  0  0
 15 16  1  0  0  0  0
 16 24  1  0  0  0  0
 16 17  1  0  0  0  0
 17 18  1  0  0  0  0
 17 38  1  0  0  0  0
 17 39  1  0  0  0  0
 18 19  1  0  0  0  0
 18 40  1  0  0  0  0
 18 41  1  0  0  0  0
 19 20  1  0  0  0  0
 19 23  1  0  0  0  0
 20 21  1  0  0  0  0
 20 22  2  0  0  0  0
 21 42  1  0  0  0  0
 21 43  1  0  0  0  0
 21 44  1  0  0  0  0
 23 24  1  0  0  0  0
 23 45  1  0  0  0  0
 23 46  1  0  0  0  0
 24 47  1  0  0  0  0
 24 48  1  0  0  0  0
M  END
> <s_m_source_file>
AV-unprocessed.smi

> <i_m_source_file_index>
1070

> <i_lp_mmshare_version>
43012

> <i_f3d_flags>
0

> <s_epik_input>
W0NIM11bQ0gyXU9bQ0gyXUMoPU8pW05IXWMxW2NIXVtjSF1jKE9bQ0gzXSluYzFOMltDSDJdW0NIMl1OKEMoPU8pW0NIM10pW0NIMl1bQ0gyXTI=

> <s_epik_cmdline>
J2VwaWtfcHl0aG9uJywgJy1waCcsICc3LjAnLCAnLXRuJywgJzgnLCAnLW1hJywgJzIwMCcsICctbWV0YWxfYmluZGluZycsICctaW1hZScsICc8aW5maWxlLm1hZT4nLCAnLW9tYWUnLCAnPG91dGZpbGUubWFlPic=

> <r_lp_tautomer_probability>
1

> <r_epik_Ionization_Penalty>
0.000131804

> <r_epik_Ionization_Penalty_Charging>
0

> <r_epik_Ionization_Penalty_Neutral>
0.000131804

> <r_epik_State_Penalty>
-0

> <r_epik_Charging_Adjusted_Penalty>
0

> <i_epik_Tot_Q>
0

> <i_epik_Tot_abs_Q>
0

> <r_epik_Metal_State_Penalty>
-0

> <b_epik_Metal_Only>
0

> <s_lp_Force_Field>
OPLS_2005

> <r_lp_Energy>
37.3921

> <b_lp_Chiralities_Consistent>
1

> <s_lp_Variant>
AV-unprocessed.smi:1070-1

> <Gold.Version>
5.8.1

> <Gold.Id.Protein>
6NUR|6NUR_protein|mol2

> <Gold.PLP.Fitness>
40.6241

> <Gold.PLP.PLP>
-33.1599

> <Gold.PLP.part.hbond>
-3.0000

> <Gold.PLP.part.metal>
0.0000

> <Gold.PLP.part.buried>
-5.6717

> <Gold.PLP.part.nonpolar>
-25.0906

> <Gold.PLP.part.repulsive>
0.1251

> <Gold.PLP.ligand.clash>
0.3330

> <Gold.PLP.ligand.torsion>
0.5892

> <Gold.PLP.Chemscore.Hbond>
2.8160

> <Gold.PLP.Chemscore.CHOScore>
0.0000

> <Gold.PLP.Chemscore.Metal>
0.0000

> <Gold.Chemscore.Hbonds>
donor molecule, donor type, donor heavy atom, donor atom, acceptor molecule, acceptor atom, score
      P1  H  6931  6943       L1    12  0.90
      P1  H  6934  6947       L1    12  0.73
      P1  H  7989  7998       L1    22  1.00

> <Gold.PLP.Chemscore.Internal.Correction>
0.5276

> <Gold.Rescore>
     Score         DG    S(hbond)    S(metal)    S(lipo)     H(rot)  DE(clash)    DE(int)     intcor
     12.21     -15.06       2.26        0.00      58.14       1.86       0.09       2.76       ----

> <Gold.Chemscore.Fitness>
12.2103

> <Gold.Chemscore.DG>
-15.0588

> <Gold.Chemscore.ZeroCoef>
-5.4800

> <Gold.Chemscore.Hbond>
2.2594

> <Gold.Chemscore.Metal>
0.0000

> <Gold.Chemscore.Lipo>
58.1366

> <Gold.Chemscore.Internal_Hbond>
0.0000

> <Gold.Chemscore.DEClash>
0.0859

> <Gold.Chemscore.DEInternal>
2.7626

> <Gold.Chemscore.Rot>
1.8631

> <Gold.Chemscore.Internal.Correction>
   9.000000E+99

> <Gold.Chemscore.Hbonds>
donor molecule, donor type, donor heavy atom, donor atom, acceptor molecule, acceptor atom, score
      P1  H  6931  6943       L1    12  0.15
      P1  H  6934  6947       L1    12  0.67
      P1  H  7989  7998       L1    22  0.69

> <Gold.Chemscore.Hbond.Weighted>
-7.5464

> <Gold.Chemscore.Metal.Weighted>
-0.0000

> <Gold.Chemscore.Lipo.Weighted>
-6.8020

> <Gold.Chemscore.Internal_Hbond.Weighted>
0.0000

> <Gold.Chemscore.DEClash.Weighted>
0.0859

> <Gold.Chemscore.DEInternal.Weighted>
2.7626

> <Gold.Chemscore.Rot.Weighted>
4.7696

> <Gold.Chemscore.Internal.Correction.Weighted>
   9.000000E+99

> <Gold.Protein.RotatedTorsions>
[ 6907 6896 6895 6894 ] final  102.40 input  -60.11 | X-H torsion
[ 7974 7965 7964 7962 ] final  116.72 input  175.53 | X-H torsion
[ 8008 7997 7996 7995 ] final  -92.12 input   59.86 | X-H torsion
[ 10167 10162 10161 10158 ] final   38.17 input  -65.29 | X-H torsion
[ 10718 10713 10712 10709 ] final  -16.67 input   66.30 | X-H torsion
[ 10763 10752 10751 10750 ] final   34.77 input  -60.55 | X-H torsion
[ 11005 11000 10999 10996 ] final   84.18 input  -57.11 | X-H torsion

> <Gold.Protein.ActiveResidues>
 VAL166  LYS551  ARG553  GLY616  TRP617  ASP618  TYR619  PRO620  LYS621  CYS622 
 ASP623  PHE694  ASN695  SER759  ASP760  ASP761  ALA762  ILE779  LEU786  VAL792 
 PHE793  MET794  SER795  GLU796  ALA797  LYS798  CYS799  TRP800  GLU811  SER814 

> <Gold.Protein.RotatedAtoms>
  152.5325  133.9982  159.7882 H   0  0  0  0  0  0  0  0  0  0  0  0  # atno 6907 bound_to 6896
  151.0205  133.5873  159.2679 H   0  0  0  0  0  0  0  0  0  0  0  0  # atno 6908 bound_to 6896
  151.2914  135.0750  159.9259 H   0  0  0  0  0  0  0  0  0  0  0  0  # atno 6909 bound_to 6896
  145.1762  139.3075  143.4442 H   0  0  0  0  0  0  0  0  0  0  0  0  # atno 7974 bound_to 7965
  154.7192  140.0512  157.0623 H   0  0  0  0  0  0  0  0  0  0  0  0  # atno 8008 bound_to 7997
  155.0450  140.3173  155.4692 H   0  0  0  0  0  0  0  0  0  0  0  0  # atno 8009 bound_to 7997
  156.2811  140.2126  156.5575 H   0  0  0  0  0  0  0  0  0  0  0  0  # atno 8010 bound_to 7997
  140.3962  144.1785  150.6132 H   0  0  0  0  0  0  0  0  0  0  0  0  # atno 10167 bound_to 10162
  156.5844  130.4782  149.6306 H   0  0  0  0  0  0  0  0  0  0  0  0  # atno 10718 bound_to 10713
  153.0149  135.6351  154.1721 H   0  0  0  0  0  0  0  0  0  0  0  0  # atno 10763 bound_to 10752
  154.1461  135.2831  155.3149 H   0  0  0  0  0  0  0  0  0  0  0  0  # atno 10764 bound_to 10752
  154.6088  135.5563  153.7512 H   0  0  0  0  0  0  0  0  0  0  0  0  # atno 10765 bound_to 10752
  139.9008  134.8198  156.2410 H   0  0  0  0  0  0  0  0  0  0  0  0  # atno 11005 bound_to 11000
  146.3461  140.1925  142.8589 LP  0  0  0  0  0  0  0  0  0  0  0  0  # atno 17320 bound_to 7965
  145.0183  140.8772  143.5182 LP  0  0  0  0  0  0  0  0  0  0  0  0  # atno 17321 bound_to 7965
  140.4787  143.2386  151.8986 LP  0  0  0  0  0  0  0  0  0  0  0  0  # atno 17342 bound_to 10162
  139.4786  144.5292  151.8691 LP  0  0  0  0  0  0  0  0  0  0  0  0  # atno 17343 bound_to 10162
  156.2604  130.6959  151.1725 LP  0  0  0  0  0  0  0  0  0  0  0  0  # atno 17370 bound_to 10713
  157.7319  131.0604  150.5656 LP  0  0  0  0  0  0  0  0  0  0  0  0  # atno 17371 bound_to 10713
  141.0285  133.7002  156.1388 LP  0  0  0  0  0  0  0  0  0  0  0  0  # atno 17394 bound_to 11000
  140.7131  134.4439  157.5580 LP  0  0  0  0  0  0  0  0  0  0  0  0  # atno 17395 bound_to 11000

$$$$
