AV-unprocessed.smi:160|AV-procd|sdf|1368|dock5
  -GOLD-   2262019 83D 1   1.00000     0.00000
 Structure written by MMmdl.
 28 29  0  0  0  0  0  0  0  0  2 V2000
  152.2316  137.4838  153.8214 N   0  5  0  0  0  0  0  0  0  0  0  0
  152.7673  138.3489  154.7102 C   0  0  0  0  0  0  0  0  0  0  0  0
  153.9137  138.3165  155.1566 O   0  0  0  0  0  0  0  0  0  0  0  0
  151.8277  139.4400  155.1666 C   0  0  0  0  0  0  0  0  0  0  0  0
  151.9664  140.0074  156.4031 N   0  0  0  0  0  0  0  0  0  0  0  0
  150.9589  140.8688  156.3560 C   0  0  0  0  0  0  0  0  0  0  0  0
  150.2774  140.8536  155.2048 N   0  0  0  0  0  0  0  0  0  0  0  0
  149.0651  141.6140  154.7596 C   0  0  1  0  0  0  0  0  0  0  0  0
  148.6870  141.1539  153.4999 O   0  0  0  0  0  0  0  0  0  0  0  0
  147.7977  140.0557  153.6521 C   0  0  2  0  0  0  0  0  0  0  0  0
  146.9976  139.8480  152.3569 C   0  0  0  0  0  0  0  0  0  0  0  0
  147.5166  138.7530  151.6326 O   0  0  0  0  0  0  0  0  0  0  0  0
  146.9333  140.4969  154.8395 C   0  0  1  0  0  0  0  0  0  0  0  0
  146.4816  139.3664  155.5576 O   0  0  0  0  0  0  0  0  0  0  0  0
  147.8768  141.3392  155.7004 C   0  0  2  0  0  0  0  0  0  0  0  0
  147.2467  142.5396  156.0991 O   0  0  0  0  0  0  0  0  0  0  0  0
  150.8241  139.8996  154.4125 N   0  0  0  0  0  0  0  0  0  0  0  0
  149.3976  142.6525  154.7296 H   0  0  0  0  0  0  0  0  0  0  0  0
  148.3618  139.1576  153.9127 H   0  0  0  0  0  0  0  0  0  0  0  0
  146.0846  141.0897  154.4934 H   0  0  0  0  0  0  0  0  0  0  0  0
  148.2105  140.8014  156.5894 H   0  0  0  0  0  0  0  0  0  0  0  0
  152.2480  137.7342  152.8258 H   0  0  0  0  0  0  0  0  0  0  0  0
  150.7133  141.5218  157.1805 H   0  0  0  0  0  0  0  0  0  0  0  0
  145.9577  139.6192  152.5926 H   0  0  0  0  0  0  0  0  0  0  0  0
  147.0000  140.7475  151.7407 H   0  0  0  0  0  0  0  0  0  0  0  0
  147.8207  138.1033  152.2478 H   0  0  0  0  0  0  0  0  0  0  0  0
  147.1430  139.1321  156.1908 H   0  0  0  0  0  0  0  0  0  0  0  0
  147.8042  143.2629  155.8548 H   0  0  0  0  0  0  0  0  0  0  0  0
  1  2  1  0  0  0  0
  1 22  1  0  0  0  0
  2  3  2  0  0  0  0
  2  4  1  0  0  0  0
  4 17  2  0  0  0  0
  4  5  1  0  0  0  0
  5  6  2  0  0  0  0
  6  7  1  0  0  0  0
  6 23  1  0  0  0  0
  7  8  1  0  0  0  0
  7 17  1  0  0  0  0
  8 18  1  0  0  0  0
  8 15  1  0  0  0  0
  8  9  1  0  0  0  0
  9 10  1  0  0  0  0
 10 19  1  0  0  0  0
 10 11  1  0  0  0  0
 10 13  1  0  0  0  0
 11 12  1  0  0  0  0
 11 24  1  0  0  0  0
 11 25  1  0  0  0  0
 12 26  1  0  0  0  0
 13 20  1  0  0  0  0
 13 14  1  0  0  0  0
 13 15  1  0  0  0  0
 14 27  1  0  0  0  0
 15 21  1  0  0  0  0
 15 16  1  0  0  0  0
 16 28  1  0  0  0  0
M  CHG  1   1  -1
M  END
> <s_m_source_file>
AV-unprocessed.smi

> <i_m_source_file_index>
160

> <i_lp_mmshare_version>
43012

> <i_f3d_flags>
0

> <s_epik_input>
W05IMl1DKD1PKWMxbltjSF1uKG4xKVtDQEBIXTJPW0NASF0oW0NIMl1bT0hdKVtDQEBIXShbT0hdKVtDQEhdMltPSF0=

> <s_epik_cmdline>
J2VwaWtfcHl0aG9uJywgJy1waCcsICc3LjAnLCAnLXRuJywgJzgnLCAnLW1hJywgJzIwMCcsICctbWV0YWxfYmluZGluZycsICctaW1hZScsICc8aW5maWxlLm1hZT4nLCAnLW9tYWUnLCAnPG91dGZpbGUubWFlPic=

> <r_lp_tautomer_probability>
1

> <r_epik_Ionization_Penalty>
6.6993

> <r_epik_Ionization_Penalty_Charging>
6.6993

> <r_epik_Ionization_Penalty_Neutral>
6.01698e-06

> <r_epik_State_Penalty>
6.69929

> <r_epik_Charging_Adjusted_Penalty>
13.3986

> <i_epik_Tot_Q>
-1

> <i_epik_Tot_abs_Q>
1

> <r_epik_Metal_State_Penalty>
2.62798

> <b_epik_Metal_Only>
1

> <s_epik_Chemistry_Notes>
This compound contains an acetal/aminal-like group ( X-CH(R)-Y where X, Y are N, S, or O) that may be acid/base labile, releasing an aldehyde.

> <s_lp_Force_Field>
OPLS_2005

> <r_lp_Energy>
37.5232

> <b_lp_Chiralities_Consistent>
1

> <s_lp_Variant>
AV-unprocessed.smi:160-26

> <Gold.Version>
5.8.1

> <Gold.Id.Protein>
6NUR|6NUR_protein|mol2

> <Gold.PLP.Fitness>
45.7217

> <Gold.PLP.PLP>
-28.2148

> <Gold.PLP.part.hbond>
-8.9938

> <Gold.PLP.part.metal>
0.0000

> <Gold.PLP.part.buried>
2.7940

> <Gold.PLP.part.nonpolar>
-22.4813

> <Gold.PLP.part.repulsive>
2.7034

> <Gold.PLP.ligand.clash>
0.0000

> <Gold.PLP.ligand.torsion>
0.9026

> <Gold.PLP.Chemscore.Hbond>
6.4235

> <Gold.PLP.Chemscore.CHOScore>
0.0000

> <Gold.PLP.Chemscore.Metal>
0.0000

> <Gold.Chemscore.Hbonds>
donor molecule, donor type, donor heavy atom, donor atom, acceptor molecule, acceptor atom, score
      L1  H    12    26       P1  7948  0.33
      L1  H    16    28       P1  8028  1.00
      P1  H  7954  7966       L1    12  0.85
      P1  H  7989  7998       L1    17  0.81
      P1  H  7997  8010       L1     3  0.61
      P1  H  8011  8017       L1     9  0.90
      P1  H 10752 10763       L1     1  1.76

> <Gold.PLP.Chemscore.Internal.Correction>
0.0415

> <Gold.Rescore>
     Score         DG    S(hbond)    S(metal)    S(lipo)     H(rot)  DE(clash)    DE(int)     intcor
      2.29      -5.34       2.25        0.00      23.04       4.04       2.10       0.95       ----

> <Gold.Chemscore.Fitness>
2.2929

> <Gold.Chemscore.DG>
-5.3434

> <Gold.Chemscore.ZeroCoef>
-5.4800

> <Gold.Chemscore.Hbond>
2.2486

> <Gold.Chemscore.Metal>
0.0000

> <Gold.Chemscore.Lipo>
23.0443

> <Gold.Chemscore.Internal_Hbond>
0.0000

> <Gold.Chemscore.DEClash>
2.0996

> <Gold.Chemscore.DEInternal>
0.9509

> <Gold.Chemscore.Rot>
4.0403

> <Gold.Chemscore.Internal.Correction>
   9.000000E+99

> <Gold.Chemscore.Hbonds>
donor molecule, donor type, donor heavy atom, donor atom, acceptor molecule, acceptor atom, score
      L1  H     1    22       P1  7949  0.01
      L1  H    12    26       P1  7948  0.33
      L1  H    16    28       P1  8028  0.26
      P1  H  7954  7966       L1    12  0.18
      P1  H  7989  7998       L1    17  0.03
      P1  H  7997  8010       L1     3  0.48
      P1  H  8011  8017       L1     9  0.21
      P1  H 10752 10763       L1     1  0.47

> <Gold.Chemscore.Hbond.Weighted>
-7.5103

> <Gold.Chemscore.Metal.Weighted>
-0.0000

> <Gold.Chemscore.Lipo.Weighted>
-2.6962

> <Gold.Chemscore.Internal_Hbond.Weighted>
0.0000

> <Gold.Chemscore.DEClash.Weighted>
2.0996

> <Gold.Chemscore.DEInternal.Weighted>
0.9509

> <Gold.Chemscore.Rot.Weighted>
10.3431

> <Gold.Chemscore.Internal.Correction.Weighted>
   9.000000E+99

> <Gold.Protein.RotatedTorsions>
[ 6907 6896 6895 6894 ] final  -42.86 input  -60.11 | X-H torsion
[ 7974 7965 7964 7962 ] final   83.75 input  175.53 | X-H torsion
[ 8008 7997 7996 7995 ] final  104.74 input   59.86 | X-H torsion
[ 10167 10162 10161 10158 ] final   -2.89 input  -65.29 | X-H torsion
[ 10718 10713 10712 10709 ] final   72.54 input   66.30 | X-H torsion
[ 10763 10752 10751 10750 ] final   28.70 input  -60.55 | X-H torsion
[ 11005 11000 10999 10996 ] final    9.75 input  -57.11 | X-H torsion

> <Gold.Protein.ActiveResidues>
 VAL166  LYS551  ARG553  GLY616  TRP617  ASP618  TYR619  PRO620  LYS621  CYS622 
 ASP623  PHE694  ASN695  SER759  ASP760  ASP761  ALA762  ILE779  LEU786  VAL792 
 PHE793  MET794  SER795  GLU796  ALA797  LYS798  CYS799  TRP800  GLU811  SER814 

> <Gold.Protein.RotatedAtoms>
  150.9504  134.8905  159.7668 H   0  0  0  0  0  0  0  0  0  0  0  0  # atno 6907 bound_to 6896
  152.5117  134.3814  159.9362 H   0  0  0  0  0  0  0  0  0  0  0  0  # atno 6908 bound_to 6896
  151.3830  133.3774  159.2747 H   0  0  0  0  0  0  0  0  0  0  0  0  # atno 6909 bound_to 6896
  145.6078  139.2363  143.2209 H   0  0  0  0  0  0  0  0  0  0  0  0  # atno 7974 bound_to 7965
  156.1599  140.3142  155.8790 H   0  0  0  0  0  0  0  0  0  0  0  0  # atno 8008 bound_to 7997
  155.3802  140.0487  157.3061 H   0  0  0  0  0  0  0  0  0  0  0  0  # atno 8009 bound_to 7997
  154.5137  140.2173  155.9118 H   0  0  0  0  0  0  0  0  0  0  0  0  # atno 8010 bound_to 7997
  140.6869  143.6604  150.8272 H   0  0  0  0  0  0  0  0  0  0  0  0  # atno 10167 bound_to 10162
  157.6506  130.9584  150.0944 H   0  0  0  0  0  0  0  0  0  0  0  0  # atno 10718 bound_to 10713
  153.0475  135.6507  154.0779 H   0  0  0  0  0  0  0  0  0  0  0  0  # atno 10763 bound_to 10752
  154.0473  135.2898  155.3347 H   0  0  0  0  0  0  0  0  0  0  0  0  # atno 10764 bound_to 10752
  154.6742  135.5344  153.8244 H   0  0  0  0  0  0  0  0  0  0  0  0  # atno 10765 bound_to 10752
  140.5222  134.0548  155.7848 H   0  0  0  0  0  0  0  0  0  0  0  0  # atno 11005 bound_to 11000
  146.1527  140.6902  142.9314 LP  0  0  0  0  0  0  0  0  0  0  0  0  # atno 17320 bound_to 7965
  144.7282  140.4592  143.6957 LP  0  0  0  0  0  0  0  0  0  0  0  0  # atno 17321 bound_to 7965
  140.0312  143.5442  152.2759 LP  0  0  0  0  0  0  0  0  0  0  0  0  # atno 17342 bound_to 10162
  139.6235  144.7633  151.2689 LP  0  0  0  0  0  0  0  0  0  0  0  0  # atno 17343 bound_to 10162
  156.1884  130.3653  149.8942 LP  0  0  0  0  0  0  0  0  0  0  0  0  # atno 17370 bound_to 10713
  156.6877  130.8883  151.3584 LP  0  0  0  0  0  0  0  0  0  0  0  0  # atno 17371 bound_to 10713
  141.1328  133.9273  157.2499 LP  0  0  0  0  0  0  0  0  0  0  0  0  # atno 17394 bound_to 11000
  139.9600  135.0156  156.9234 LP  0  0  0  0  0  0  0  0  0  0  0  0  # atno 17395 bound_to 11000

$$$$
