AV-unprocessed.smi:69|AV-procd|sdf|655|dock5
  -GOLD-   2262016553D 1   1.00000     0.00000
 Structure written by MMmdl.
 32 34  0  0  0  0  0  0  0  0  1 V2000
  154.2064  137.5708  156.4948 N   0  0  0  0  0  0  0  0  0  0  0  0
  153.0130  138.0026  156.9247 C   0  0  0  0  0  0  0  0  0  0  0  0
  152.7677  137.9960  158.2562 N   0  0  0  0  0  0  0  0  0  0  0  0
  151.5839  138.4215  158.7104 C   0  0  0  0  0  0  0  0  0  0  0  0
  150.5383  138.8812  158.0173 N   0  0  0  0  0  0  0  0  0  0  0  0
  150.7903  138.8865  156.6755 C   0  0  0  0  0  0  0  0  0  0  0  0
  151.9967  138.4657  156.0518 C   0  0  0  0  0  0  0  0  0  0  0  0
  151.8929  138.6133  154.6754 N   0  0  0  0  0  0  0  0  0  0  0  0
  150.6910  139.0946  154.5007 C   0  0  0  0  0  0  0  0  0  0  0  0
  149.9609  139.2961  155.6539 N   0  0  0  0  0  0  0  0  0  0  0  0
  148.5684  139.8289  155.8110 C   0  0  2  0  0  0  0  0  0  0  0  0
  147.7739  139.2123  154.8412 O   0  0  0  0  0  0  0  0  0  0  0  0
  147.1766  140.1779  153.9760 C   0  0  2  0  0  0  0  0  0  0  0  0
  147.0074  139.6172  152.5529 C   0  0  0  0  0  0  0  0  0  0  0  0
  145.9966  138.6323  152.5371 O   0  0  0  0  0  0  0  0  0  0  0  0
  148.0677  141.4222  154.0983 C   0  0  2  0  0  0  0  0  0  0  0  0
  149.1626  141.3711  153.1982 O   0  0  0  0  0  0  0  0  0  0  0  0
  148.5014  141.3465  155.5554 C   0  0  2  0  0  0  0  0  0  0  0  0
  149.6912  142.0684  155.8224 O   0  0  0  0  0  0  0  0  0  0  0  0
  148.2668  139.5360  156.8175 H   0  0  0  0  0  0  0  0  0  0  0  0
  146.2002  140.4328  154.3927 H   0  0  0  0  0  0  0  0  0  0  0  0
  147.5089  142.3359  153.8934 H   0  0  0  0  0  0  0  0  0  0  0  0
  147.7024  141.7453  156.1816 H   0  0  0  0  0  0  0  0  0  0  0  0
  154.4128  137.5665  155.5062 H   0  0  0  0  0  0  0  0  0  0  0  0
  154.8957  137.2493  157.1589 H   0  0  0  0  0  0  0  0  0  0  0  0
  151.4565  138.3890  159.7824 H   0  0  0  0  0  0  0  0  0  0  0  0
  150.3050  139.3176  153.5170 H   0  0  0  0  0  0  0  0  0  0  0  0
  146.6986  140.4101  151.8711 H   0  0  0  0  0  0  0  0  0  0  0  0
  147.9424  139.2051  152.1723 H   0  0  0  0  0  0  0  0  0  0  0  0
  145.1825  139.0417  152.2869 H   0  0  0  0  0  0  0  0  0  0  0  0
  148.9977  140.6867  152.5677 H   0  0  0  0  0  0  0  0  0  0  0  0
  149.4909  142.9915  155.7860 H   0  0  0  0  0  0  0  0  0  0  0  0
  1  2  1  0  0  0  0
  1 24  1  0  0  0  0
  1 25  1  0  0  0  0
  2  7  1  0  0  0  0
  2  3  2  0  0  0  0
  3  4  1  0  0  0  0
  4  5  2  0  0  0  0
  4 26  1  0  0  0  0
  5  6  1  0  0  0  0
  6 10  1  0  0  0  0
  6  7  2  0  0  0  0
  7  8  1  0  0  0  0
  8  9  2  0  0  0  0
  9 10  1  0  0  0  0
  9 27  1  0  0  0  0
 10 11  1  0  0  0  0
 11 20  1  0  0  0  0
 11 18  1  0  0  0  0
 11 12  1  0  0  0  0
 12 13  1  0  0  0  0
 13 21  1  0  0  0  0
 13 14  1  0  0  0  0
 13 16  1  0  0  0  0
 14 15  1  0  0  0  0
 14 28  1  0  0  0  0
 14 29  1  0  0  0  0
 15 30  1  0  0  0  0
 16 22  1  0  0  0  0
 16 17  1  0  0  0  0
 16 18  1  0  0  0  0
 17 31  1  0  0  0  0
 18 23  1  0  0  0  0
 18 19  1  0  0  0  0
 19 32  1  0  0  0  0
M  END
> <s_m_source_file>
AV-unprocessed.smi

> <i_m_source_file_index>
69

> <i_lp_mmshare_version>
43012

> <i_f3d_flags>
0

> <s_epik_input>
bjFbY0hdbmMoW05IMl0pYyhjMTIpbltjSF1uMltDQEBIXTNPW0NASF0oW0NIMl1bT0hdKVtDQEBIXShbT0hdKVtDQEhdM1tPSF0=

> <s_epik_cmdline>
J2VwaWtfcHl0aG9uJywgJy1waCcsICc3LjAnLCAnLXRuJywgJzgnLCAnLW1hJywgJzIwMCcsICctbWV0YWxfYmluZGluZycsICctaW1hZScsICc8aW5maWxlLm1hZT4nLCAnLW9tYWUnLCAnPG91dGZpbGUubWFlPic=

> <r_lp_tautomer_probability>
1

> <r_epik_Ionization_Penalty>
0.000428445

> <r_epik_Ionization_Penalty_Charging>
0

> <r_epik_Ionization_Penalty_Neutral>
0.000428445

> <r_epik_State_Penalty>
-0

> <r_epik_Charging_Adjusted_Penalty>
0

> <i_epik_Tot_Q>
0

> <i_epik_Tot_abs_Q>
0

> <r_epik_Metal_State_Penalty>
-0

> <b_epik_Metal_Only>
0

> <s_epik_Chemistry_Notes>
This compound contains an acetal/aminal-like group ( X-CH(R)-Y where X, Y are N, S, or O) that may be acid/base labile, releasing an aldehyde.

> <s_lp_Force_Field>
OPLS_2005

> <r_lp_Energy>
42.2813

> <b_lp_Chiralities_Consistent>
1

> <s_lp_Variant>
AV-unprocessed.smi:69-13

> <Gold.Version>
5.8.1

> <Gold.Id.Protein>
6NUR|6NUR_protein|mol2

> <Gold.PLP.Fitness>
36.1542

> <Gold.PLP.PLP>
-22.5762

> <Gold.PLP.part.hbond>
-4.4200

> <Gold.PLP.part.metal>
0.0000

> <Gold.PLP.part.buried>
-2.1832

> <Gold.PLP.part.nonpolar>
-15.8216

> <Gold.PLP.part.repulsive>
0.4340

> <Gold.PLP.ligand.clash>
0.0000

> <Gold.PLP.ligand.torsion>
0.3996

> <Gold.PLP.Chemscore.Hbond>
3.7095

> <Gold.PLP.Chemscore.CHOScore>
0.9487

> <Gold.PLP.Chemscore.Metal>
0.0000

> <Gold.Chemscore.Hbonds>
donor molecule, donor type, donor heavy atom, donor atom, acceptor molecule, acceptor atom, score
      L1  H    15    30       P1 10175  0.89
      L1  H    17    31       P1  7957  0.82
      L1  H    19    32       P1  8028  1.00
      P1  H  8011  8017       L1    17  0.91
      L1  C     9    27       P1  7957  0.95

> <Gold.PLP.Chemscore.Internal.Correction>
0.4027

> <Gold.Rescore>
     Score         DG    S(hbond)    S(metal)    S(lipo)     H(rot)  DE(clash)    DE(int)     intcor
      9.70     -10.48       3.41        0.00      33.48       4.03       0.12       0.67       ----

> <Gold.Chemscore.Fitness>
9.6961

> <Gold.Chemscore.DG>
-10.4796

> <Gold.Chemscore.ZeroCoef>
-5.4800

> <Gold.Chemscore.Hbond>
3.4112

> <Gold.Chemscore.Metal>
0.0000

> <Gold.Chemscore.Lipo>
33.4802

> <Gold.Chemscore.Internal_Hbond>
0.0000

> <Gold.Chemscore.DEClash>
0.1175

> <Gold.Chemscore.DEInternal>
0.6661

> <Gold.Chemscore.Rot>
4.0277

> <Gold.Chemscore.Internal.Correction>
   9.000000E+99

> <Gold.Chemscore.Hbonds>
donor molecule, donor type, donor heavy atom, donor atom, acceptor molecule, acceptor atom, score
      L1  H    15    30       P1 10175  0.85
      L1  H    17    31       P1  7957  0.81
      L1  H    19    32       P1  8028  1.00
      P1  H  8011  8017       L1    17  0.25

> <Gold.Chemscore.Hbond.Weighted>
-11.3934

> <Gold.Chemscore.Metal.Weighted>
-0.0000

> <Gold.Chemscore.Lipo.Weighted>
-3.9172

> <Gold.Chemscore.Internal_Hbond.Weighted>
0.0000

> <Gold.Chemscore.DEClash.Weighted>
0.1175

> <Gold.Chemscore.DEInternal.Weighted>
0.6661

> <Gold.Chemscore.Rot.Weighted>
10.3110

> <Gold.Chemscore.Internal.Correction.Weighted>
   9.000000E+99

> <Gold.Protein.RotatedTorsions>
[ 6907 6896 6895 6894 ] final  -37.04 input  -60.11 | X-H torsion
[ 7974 7965 7964 7962 ] final  -96.05 input  175.53 | X-H torsion
[ 8008 7997 7996 7995 ] final   71.52 input   59.86 | X-H torsion
[ 10167 10162 10161 10158 ] final  -82.14 input  -65.29 | X-H torsion
[ 10718 10713 10712 10709 ] final  136.38 input   66.30 | X-H torsion
[ 10763 10752 10751 10750 ] final -157.48 input  -60.55 | X-H torsion
[ 11005 11000 10999 10996 ] final  -46.74 input  -57.11 | X-H torsion

> <Gold.Protein.ActiveResidues>
 VAL166  LYS551  ARG553  GLY616  TRP617  ASP618  TYR619  PRO620  LYS621  CYS622 
 ASP623  PHE694  ASN695  SER759  ASP760  ASP761  ALA762  ILE779  LEU786  VAL792 
 PHE793  MET794  SER795  GLU796  ALA797  LYS798  CYS799  TRP800  GLU811  SER814 

> <Gold.Protein.RotatedAtoms>
  151.0196  134.9459  159.8051 H   0  0  0  0  0  0  0  0  0  0  0  0  # atno 6907 bound_to 6896
  152.5322  134.2921  159.9057 H   0  0  0  0  0  0  0  0  0  0  0  0  # atno 6908 bound_to 6896
  151.2928  133.4115  159.2668 H   0  0  0  0  0  0  0  0  0  0  0  0  # atno 6909 bound_to 6896
  145.3520  140.9478  143.2549 H   0  0  0  0  0  0  0  0  0  0  0  0  # atno 7974 bound_to 7965
  155.7552  140.3488  155.5170 H   0  0  0  0  0  0  0  0  0  0  0  0  # atno 8008 bound_to 7997
  155.8967  140.1027  157.1401 H   0  0  0  0  0  0  0  0  0  0  0  0  # atno 8009 bound_to 7997
  154.4039  140.1294  156.4371 H   0  0  0  0  0  0  0  0  0  0  0  0  # atno 8010 bound_to 7997
  140.4348  143.2535  151.8709 H   0  0  0  0  0  0  0  0  0  0  0  0  # atno 10167 bound_to 10162
  157.4473  131.1063  151.0074 H   0  0  0  0  0  0  0  0  0  0  0  0  # atno 10718 bound_to 10713
  154.7632  135.3124  154.8337 H   0  0  0  0  0  0  0  0  0  0  0  0  # atno 10763 bound_to 10752
  153.9092  135.6807  153.4756 H   0  0  0  0  0  0  0  0  0  0  0  0  # atno 10764 bound_to 10752
  153.1235  135.4812  154.9167 H   0  0  0  0  0  0  0  0  0  0  0  0  # atno 10765 bound_to 10752
  141.0598  133.6713  156.3198 H   0  0  0  0  0  0  0  0  0  0  0  0  # atno 11005 bound_to 11000
  144.8710  139.5038  143.6767 LP  0  0  0  0  0  0  0  0  0  0  0  0  # atno 17320 bound_to 7965
  146.2964  139.7290  142.9124 LP  0  0  0  0  0  0  0  0  0  0  0  0  # atno 17321 bound_to 7965
  139.4786  144.5295  151.8687 LP  0  0  0  0  0  0  0  0  0  0  0  0  # atno 17342 bound_to 10162
  140.4387  144.2017  150.5890 LP  0  0  0  0  0  0  0  0  0  0  0  0  # atno 17343 bound_to 10162
  157.0917  130.5945  149.5441 LP  0  0  0  0  0  0  0  0  0  0  0  0  # atno 17370 bound_to 10713
  155.9972  130.5044  150.7527 LP  0  0  0  0  0  0  0  0  0  0  0  0  # atno 17371 bound_to 10713
  140.5892  134.5668  157.5496 LP  0  0  0  0  0  0  0  0  0  0  0  0  # atno 17394 bound_to 11000
  139.9422  134.7766  156.0650 LP  0  0  0  0  0  0  0  0  0  0  0  0  # atno 17395 bound_to 11000

$$$$
