AV-unprocessed.smi:2538|AV-procd|sdf|9982|dock8
  -GOLD-   2272014 33D 1   1.00000     0.00000
 Structure written by MMmdl.
 48 49  0  0  0  0  0  0  0  0  1 V2000
  151.3310  143.4215  159.6669 C   0  0  0  0  0  0  0  0  0  0  0  0
  151.3237  142.4076  158.5363 C   0  0  0  0  0  0  0  0  0  0  0  0
  150.4296  142.5887  157.4571 C   0  0  0  0  0  0  0  0  0  0  0  0
  150.3918  141.6701  156.3856 C   0  0  0  0  0  0  0  0  0  0  0  0
  149.6108  141.6550  155.2425 N   0  0  0  0  0  0  0  0  0  0  0  0
  150.0399  140.5502  154.6398 C   0  0  0  0  0  0  0  0  0  0  0  0
  151.0093  139.8481  155.2573 N   0  0  0  0  0  0  0  0  0  0  0  0
  151.6241  138.6209  154.7866 C   0  0  0  0  0  0  0  0  0  0  0  0
  150.5836  137.5131  154.5241 C   0  0  1  0  0  0  0  0  0  0  0  0
  151.2863  136.3091  154.2830 O   0  0  0  0  0  0  0  0  0  0  0  0
  149.6227  137.3049  155.7177 C   0  0  0  0  0  0  0  0  0  0  0  0
  150.2595  136.5197  156.7894 N   0  0  0  0  0  0  0  0  0  0  0  0
  150.5388  137.2570  158.0260 C   0  0  0  0  0  0  0  0  0  0  0  0
  150.0050  134.8063  156.8952 S   0  0  0  0  0  0  0  0  0  0  0  0
  151.3238  134.1638  156.7820 O   0  0  0  0  0  0  0  0  0  0  0  0
  149.1608  134.5402  158.0699 O   0  0  0  0  0  0  0  0  0  0  0  0
  149.0098  134.4688  155.3633 C   0  0  0  0  0  0  0  0  0  0  0  0
  147.6066  133.9607  155.7247 C   0  0  0  0  0  0  0  0  0  0  0  0
  149.7504  133.4905  154.4408 C   0  0  0  0  0  0  0  0  0  0  0  0
  151.2787  140.5545  156.4243 C   0  0  0  0  0  0  0  0  0  0  0  0
  152.1740  140.3640  157.4917 C   0  0  0  0  0  0  0  0  0  0  0  0
  152.2003  141.2929  158.5531 C   0  0  0  0  0  0  0  0  0  0  0  0
  153.1745  141.0816  159.6986 C   0  0  0  0  0  0  0  0  0  0  0  0
  150.5700  144.1882  159.5188 H   0  0  0  0  0  0  0  0  0  0  0  0
  152.2997  143.9180  159.7266 H   0  0  0  0  0  0  0  0  0  0  0  0
  151.1312  142.9339  160.6214 H   0  0  0  0  0  0  0  0  0  0  0  0
  149.7635  143.4386  157.4424 H   0  0  0  0  0  0  0  0  0  0  0  0
  149.6289  140.2322  153.6923 H   0  0  0  0  0  0  0  0  0  0  0  0
  152.1990  138.8331  153.8841 H   0  0  0  0  0  0  0  0  0  0  0  0
  152.3471  138.3045  155.5376 H   0  0  0  0  0  0  0  0  0  0  0  0
  150.0206  137.7531  153.6207 H   0  0  0  0  0  0  0  0  0  0  0  0
  151.1072  136.0304  153.3978 H   0  0  0  0  0  0  0  0  0  0  0  0
  149.2815  138.2652  156.1087 H   0  0  0  0  0  0  0  0  0  0  0  0
  148.7177  136.7828  155.4048 H   0  0  0  0  0  0  0  0  0  0  0  0
  151.0674  138.1855  157.8090 H   0  0  0  0  0  0  0  0  0  0  0  0
  151.1621  136.6608  158.6923 H   0  0  0  0  0  0  0  0  0  0  0  0
  149.6075  137.4914  158.5425 H   0  0  0  0  0  0  0  0  0  0  0  0
  148.9000  135.4167  154.8365 H   0  0  0  0  0  0  0  0  0  0  0  0
  147.0073  133.7965  154.8288 H   0  0  0  0  0  0  0  0  0  0  0  0
  147.0754  134.6823  156.3461 H   0  0  0  0  0  0  0  0  0  0  0  0
  147.6548  133.0179  156.2705 H   0  0  0  0  0  0  0  0  0  0  0  0
  149.1822  133.3031  153.5295 H   0  0  0  0  0  0  0  0  0  0  0  0
  149.9164  132.5316  154.9330 H   0  0  0  0  0  0  0  0  0  0  0  0
  150.7216  133.8878  154.1447 H   0  0  0  0  0  0  0  0  0  0  0  0
  152.8367  139.5110  157.4917 H   0  0  0  0  0  0  0  0  0  0  0  0
  153.7805  140.1882  159.5452 H   0  0  0  0  0  0  0  0  0  0  0  0
  152.6381  140.9648  160.6406 H   0  0  0  0  0  0  0  0  0  0  0  0
  153.8505  141.9325  159.7873 H   0  0  0  0  0  0  0  0  0  0  0  0
  1  2  1  0  0  0  0
  1 24  1  0  0  0  0
  1 25  1  0  0  0  0
  1 26  1  0  0  0  0
  2 22  1  0  0  0  0
  2  3  2  0  0  0  0
  3  4  1  0  0  0  0
  3 27  1  0  0  0  0
  4 20  2  0  0  0  0
  4  5  1  0  0  0  0
  5  6  2  0  0  0  0
  6  7  1  0  0  0  0
  6 28  1  0  0  0  0
  7  8  1  0  0  0  0
  7 20  1  0  0  0  0
  8  9  1  0  0  0  0
  8 29  1  0  0  0  0
  8 30  1  0  0  0  0
  9 10  1  0  0  0  0
  9 11  1  0  0  0  0
  9 31  1  0  0  0  0
 10 32  1  0  0  0  0
 11 12  1  0  0  0  0
 11 33  1  0  0  0  0
 11 34  1  0  0  0  0
 12 13  1  0  0  0  0
 12 14  1  0  0  0  0
 13 35  1  0  0  0  0
 13 36  1  0  0  0  0
 13 37  1  0  0  0  0
 14 15  2  0  0  0  0
 14 16  2  0  0  0  0
 14 17  1  0  0  0  0
 17 18  1  0  0  0  0
 17 19  1  0  0  0  0
 17 38  1  0  0  0  0
 18 39  1  0  0  0  0
 18 40  1  0  0  0  0
 18 41  1  0  0  0  0
 19 42  1  0  0  0  0
 19 43  1  0  0  0  0
 19 44  1  0  0  0  0
 20 21  1  0  0  0  0
 21 22  2  0  0  0  0
 21 45  1  0  0  0  0
 22 23  1  0  0  0  0
 23 46  1  0  0  0  0
 23 47  1  0  0  0  0
 23 48  1  0  0  0  0
M  END
> <s_m_source_file>
AV-unprocessed.smi

> <i_m_source_file_index>
2538

> <i_lp_mmshare_version>
43012

> <i_f3d_flags>
0

> <s_epik_input>
W0NIM11jKFtjSF0xKWMoW0NIM10pW2NIXWMoYzEyKW4oW2NIXW4yKVtDSDJdW0NASF0oW09IXSlbQ0gyXU4oW0NIM10pUyg9TykoPU8pW0NIXShbQ0gzXSlbQ0gzXQ==

> <s_epik_cmdline>
J2VwaWtfcHl0aG9uJywgJy1waCcsICc3LjAnLCAnLXRuJywgJzgnLCAnLW1hJywgJzIwMCcsICctbWV0YWxfYmluZGluZycsICctaW1hZScsICc8aW5maWxlLm1hZT4nLCAnLW9tYWUnLCAnPG91dGZpbGUubWFlPic=

> <r_epik_Ionization_Penalty>
0.105018

> <r_epik_Ionization_Penalty_Charging>
0

> <r_epik_Ionization_Penalty_Neutral>
0.105018

> <r_epik_State_Penalty>
0.094904

> <r_epik_Charging_Adjusted_Penalty>
0.094904

> <i_epik_Tot_Q>
0

> <i_epik_Tot_abs_Q>
0

> <r_epik_Metal_State_Penalty>
0.000102919

> <b_epik_Metal_Only>
0

> <s_lp_Force_Field>
OPLS_2005

> <r_lp_Energy>
6.99225

> <b_lp_Chiralities_Consistent>
1

> <s_lp_Variant>
AV-unprocessed.smi:2538-2

> <Gold.Version>
5.8.1

> <Gold.Id.Protein>
6NUR|6NUR_protein|mol2

> <Gold.PLP.Fitness>
49.1440

> <Gold.PLP.PLP>
-38.0000

> <Gold.PLP.part.hbond>
-3.8217

> <Gold.PLP.part.metal>
0.0000

> <Gold.PLP.part.buried>
-1.1530

> <Gold.PLP.part.nonpolar>
-32.7012

> <Gold.PLP.part.repulsive>
0.1317

> <Gold.PLP.ligand.clash>
0.0000

> <Gold.PLP.ligand.torsion>
1.7510

> <Gold.PLP.Chemscore.Hbond>
3.0000

> <Gold.PLP.Chemscore.CHOScore>
1.0000

> <Gold.PLP.Chemscore.Metal>
0.0000

> <Gold.Chemscore.Hbonds>
donor molecule, donor type, donor heavy atom, donor atom, acceptor molecule, acceptor atom, score
      L1  H    10    32       P1  7949  1.00
      P1  H  6896  6909       L1    16  0.85
      P1  H 10752 10765       L1    10  1.00
      L1  C     6    28       P1  7957  0.98

> <Gold.PLP.Chemscore.Internal.Correction>
2.6460

> <Gold.Rescore>
     Score         DG    S(hbond)    S(metal)    S(lipo)     H(rot)  DE(clash)    DE(int)     intcor
     15.78     -17.94       2.20        0.00      93.86       2.29       0.42       1.74       ----

> <Gold.Chemscore.Fitness>
15.7850

> <Gold.Chemscore.DG>
-17.9362

> <Gold.Chemscore.ZeroCoef>
-5.4800

> <Gold.Chemscore.Hbond>
2.1980

> <Gold.Chemscore.Metal>
0.0000

> <Gold.Chemscore.Lipo>
93.8617

> <Gold.Chemscore.Internal_Hbond>
0.0000

> <Gold.Chemscore.DEClash>
0.4157

> <Gold.Chemscore.DEInternal>
1.7356

> <Gold.Chemscore.Rot>
2.2917

> <Gold.Chemscore.Internal.Correction>
   9.000000E+99

> <Gold.Chemscore.Hbonds>
donor molecule, donor type, donor heavy atom, donor atom, acceptor molecule, acceptor atom, score
      L1  H    10    32       P1  7949  0.30
      P1  H  6896  6909       L1    16  0.14
      P1  H 10752 10765       L1    10  0.34

> <Gold.Chemscore.Hbond.Weighted>
-7.3412

> <Gold.Chemscore.Metal.Weighted>
-0.0000

> <Gold.Chemscore.Lipo.Weighted>
-10.9818

> <Gold.Chemscore.Internal_Hbond.Weighted>
0.0000

> <Gold.Chemscore.DEClash.Weighted>
0.4157

> <Gold.Chemscore.DEInternal.Weighted>
1.7356

> <Gold.Chemscore.Rot.Weighted>
5.8669

> <Gold.Chemscore.Internal.Correction.Weighted>
   9.000000E+99

> <Gold.Protein.RotatedTorsions>
[ 6907 6896 6895 6894 ] final   18.87 input  -60.11 | X-H torsion
[ 7974 7965 7964 7962 ] final  -89.26 input  175.53 | X-H torsion
[ 8008 7997 7996 7995 ] final  -41.04 input   59.86 | X-H torsion
[ 10167 10162 10161 10158 ] final -152.27 input  -65.29 | X-H torsion
[ 10718 10713 10712 10709 ] final   32.36 input   66.30 | X-H torsion
[ 10763 10752 10751 10750 ] final  179.91 input  -60.55 | X-H torsion
[ 11005 11000 10999 10996 ] final   17.18 input  -57.11 | X-H torsion

> <Gold.Protein.ActiveResidues>
 VAL166  LYS551  ARG553  GLY616  TRP617  ASP618  TYR619  PRO620  LYS621  CYS622 
 ASP623  PHE694  ASN695  SER759  ASP760  ASP761  ALA762  ILE779  LEU786  VAL792 
 PHE793  MET794  SER795  GLU796  ALA797  LYS798  CYS799  TRP800  GLU811  SER814 

> <Gold.Protein.RotatedAtoms>
  151.8720  135.0486  160.0479 H   0  0  0  0  0  0  0  0  0  0  0  0  # atno 6907 bound_to 6896
  152.2581  133.5268  159.5373 H   0  0  0  0  0  0  0  0  0  0  0  0  # atno 6908 bound_to 6896
  150.7107  134.0784  159.3931 H   0  0  0  0  0  0  0  0  0  0  0  0  # atno 6909 bound_to 6896
  145.4422  140.9559  143.2069 H   0  0  0  0  0  0  0  0  0  0  0  0  # atno 7974 bound_to 7965
  154.4007  140.1510  156.3125 H   0  0  0  0  0  0  0  0  0  0  0  0  # atno 8008 bound_to 7997
  155.8602  140.3454  155.5730 H   0  0  0  0  0  0  0  0  0  0  0  0  # atno 8009 bound_to 7997
  155.7888  140.0854  157.2010 H   0  0  0  0  0  0  0  0  0  0  0  0  # atno 8010 bound_to 7997
  139.7196  143.8978  152.2498 H   0  0  0  0  0  0  0  0  0  0  0  0  # atno 10167 bound_to 10162
  157.2843  130.7270  149.6574 H   0  0  0  0  0  0  0  0  0  0  0  0  # atno 10718 bound_to 10713
  154.5267  135.2797  155.1216 H   0  0  0  0  0  0  0  0  0  0  0  0  # atno 10763 bound_to 10752
  154.2752  135.6296  153.5329 H   0  0  0  0  0  0  0  0  0  0  0  0  # atno 10764 bound_to 10752
  152.9948  135.5638  154.5770 H   0  0  0  0  0  0  0  0  0  0  0  0  # atno 10765 bound_to 10752
  140.4388  134.1343  155.7688 H   0  0  0  0  0  0  0  0  0  0  0  0  # atno 11005 bound_to 11000
  144.8114  139.5954  143.7027 LP  0  0  0  0  0  0  0  0  0  0  0  0  # atno 17320 bound_to 7965
  146.2550  139.6283  142.9401 LP  0  0  0  0  0  0  0  0  0  0  0  0  # atno 17321 bound_to 7965
  139.8870  144.6986  150.8813 LP  0  0  0  0  0  0  0  0  0  0  0  0  # atno 17342 bound_to 10162
  140.7751  143.3616  151.1818 LP  0  0  0  0  0  0  0  0  0  0  0  0  # atno 17343 bound_to 10162
  155.9665  130.4328  150.4981 LP  0  0  0  0  0  0  0  0  0  0  0  0  # atno 17370 bound_to 10713
  157.2931  131.0630  151.2120 LP  0  0  0  0  0  0  0  0  0  0  0  0  # atno 17371 bound_to 10713
  141.1714  133.8600  157.1557 LP  0  0  0  0  0  0  0  0  0  0  0  0  # atno 17394 bound_to 11000
  140.0084  134.9998  157.0342 LP  0  0  0  0  0  0  0  0  0  0  0  0  # atno 17395 bound_to 11000

$$$$
