AV-unprocessed.smi:592|AV-procd|sdf|3010|dock7
  -GOLD-   2262023513D 1   1.00000     0.00000
 Structure written by MMmdl.
 27 28  0  0  0  0  0  0  0  0  1 V2000
  151.4140  141.3236  157.1334 O   0  0  0  0  0  0  0  0  0  0  0  0
  150.9743  142.4173  156.7791 C   0  0  0  0  0  0  0  0  0  0  0  0
  151.6063  143.7057  157.3516 C   0  0  0  0  0  0  0  0  0  0  0  0
  151.9043  143.6288  158.7923 N   0  0  0  0  0  0  0  0  0  0  0  0
  152.7112  142.5561  159.2217 C   0  0  0  0  0  0  0  0  0  0  0  0
  153.0451  142.3901  160.5111 C   0  0  0  0  0  0  0  0  0  0  0  0
  152.5525  143.3478  161.4724 C   0  0  0  0  0  0  0  0  0  0  0  0
  151.7846  144.3807  161.0721 C   0  0  0  0  0  0  0  0  0  0  0  0
  151.4221  144.5695  159.6625 C   0  0  0  0  0  0  0  0  0  0  0  0
  150.7283  145.5154  159.2878 O   0  0  0  0  0  0  0  0  0  0  0  0
  149.9557  142.4599  155.8925 N   0  0  0  0  0  0  0  0  0  0  0  0
  149.2651  141.4150  155.2732 C   0  0  0  0  0  0  0  0  0  0  0  0
  149.5294  140.1574  155.3475 N   0  0  0  0  0  0  0  0  0  0  0  0
  148.5479  139.3899  154.5927 C   0  0  0  0  0  0  0  0  0  0  0  0
  147.7126  140.3100  153.6656 C   0  0  0  0  0  0  0  0  0  0  0  0
  147.9229  141.9932  154.2561 S   0  0  0  0  0  0  0  0  0  0  0  0
  152.5210  143.9365  156.8031 H   0  0  0  0  0  0  0  0  0  0  0  0
  150.9296  144.5405  157.1642 H   0  0  0  0  0  0  0  0  0  0  0  0
  153.0438  141.8890  158.4396 H   0  0  0  0  0  0  0  0  0  0  0  0
  153.6689  141.5644  160.8206 H   0  0  0  0  0  0  0  0  0  0  0  0
  152.8014  143.2359  162.5174 H   0  0  0  0  0  0  0  0  0  0  0  0
  151.4252  145.0876  161.8054 H   0  0  0  0  0  0  0  0  0  0  0  0
  149.6510  143.3927  155.6549 H   0  0  0  0  0  0  0  0  0  0  0  0
  149.0442  138.6154  154.0071 H   0  0  0  0  0  0  0  0  0  0  0  0
  147.8878  138.8741  155.2913 H   0  0  0  0  0  0  0  0  0  0  0  0
  148.0890  140.2578  152.6436 H   0  0  0  0  0  0  0  0  0  0  0  0
  146.6593  140.0292  153.6493 H   0  0  0  0  0  0  0  0  0  0  0  0
  1  2  2  0  0  0  0
  2  3  1  0  0  0  0
  2 11  1  0  0  0  0
  3  4  1  0  0  0  0
  3 17  1  0  0  0  0
  3 18  1  0  0  0  0
  4  9  1  0  0  0  0
  4  5  1  0  0  0  0
  5  6  2  0  0  0  0
  5 19  1  0  0  0  0
  6  7  1  0  0  0  0
  6 20  1  0  0  0  0
  7  8  2  0  0  0  0
  7 21  1  0  0  0  0
  8  9  1  0  0  0  0
  8 22  1  0  0  0  0
  9 10  2  0  0  0  0
 11 12  1  0  0  0  0
 11 23  1  0  0  0  0
 12 16  1  0  0  0  0
 12 13  2  0  0  0  0
 13 14  1  0  0  0  0
 14 15  1  0  0  0  0
 14 24  1  0  0  0  0
 14 25  1  0  0  0  0
 15 16  1  0  0  0  0
 15 26  1  0  0  0  0
 15 27  1  0  0  0  0
M  END
> <s_m_source_file>
AV-unprocessed.smi

> <i_m_source_file_index>
592

> <i_lp_mmshare_version>
43012

> <i_f3d_flags>
0

> <s_epik_input>
UzFbQ0gyXVtDSDJdTj1DMVtOSF1DKD1PKVtDSDJdbjJbY0hdW2NIXVtjSF1bY0hdYzI9Tw==

> <s_epik_cmdline>
J2VwaWtfcHl0aG9uJywgJy1waCcsICc3LjAnLCAnLXRuJywgJzgnLCAnLW1hJywgJzIwMCcsICctbWV0YWxfYmluZGluZycsICctaW1hZScsICc8aW5maWxlLm1hZT4nLCAnLW9tYWUnLCAnPG91dGZpbGUubWFlPic=

> <r_lp_tautomer_probability>
1

> <r_epik_Ionization_Penalty>
0.0449927

> <r_epik_Ionization_Penalty_Charging>
2.12211e-07

> <r_epik_Ionization_Penalty_Neutral>
0.0449925

> <r_epik_State_Penalty>
0.0415249

> <r_epik_Charging_Adjusted_Penalty>
0.0415251

> <i_epik_Tot_Q>
0

> <i_epik_Tot_abs_Q>
0

> <r_epik_Metal_State_Penalty>
0.0415666

> <b_epik_Metal_Only>
0

> <s_epik_Chemistry_Notes>
This compound has an imine and may undergo hydrolysis.

> <s_lp_Force_Field>
OPLS_2005

> <r_lp_Energy>
28.1841

> <b_lp_Chiralities_Consistent>
1

> <s_lp_Variant>
AV-unprocessed.smi:592-1

> <Gold.Version>
5.8.1

> <Gold.Id.Protein>
6NUR|6NUR_protein|mol2

> <Gold.PLP.Fitness>
41.3625

> <Gold.PLP.PLP>
-38.9343

> <Gold.PLP.part.hbond>
-1.9130

> <Gold.PLP.part.metal>
0.0000

> <Gold.PLP.part.buried>
-3.9329

> <Gold.PLP.part.nonpolar>
-34.5306

> <Gold.PLP.part.repulsive>
0.4165

> <Gold.PLP.ligand.clash>
0.0000

> <Gold.PLP.ligand.torsion>
0.2872

> <Gold.PLP.Chemscore.Hbond>
1.0000

> <Gold.PLP.Chemscore.CHOScore>
0.0000

> <Gold.PLP.Chemscore.Metal>
0.0000

> <Gold.Chemscore.Hbonds>
donor molecule, donor type, donor heavy atom, donor atom, acceptor molecule, acceptor atom, score
      L1  H    11    23       P1  8028  0.99

> <Gold.PLP.Chemscore.Internal.Correction>
0.0026

> <Gold.Rescore>
     Score         DG    S(hbond)    S(metal)    S(lipo)     H(rot)  DE(clash)    DE(int)     intcor
     12.50     -14.47       1.00        0.00      77.46       1.33       0.32       1.65       ----

> <Gold.Chemscore.Fitness>
12.4987

> <Gold.Chemscore.DG>
-14.4746

> <Gold.Chemscore.ZeroCoef>
-5.4800

> <Gold.Chemscore.Hbond>
0.9997

> <Gold.Chemscore.Metal>
0.0000

> <Gold.Chemscore.Lipo>
77.4583

> <Gold.Chemscore.Internal_Hbond>
0.0000

> <Gold.Chemscore.DEClash>
0.3250

> <Gold.Chemscore.DEInternal>
1.6510

> <Gold.Chemscore.Rot>
1.3309

> <Gold.Chemscore.Internal.Correction>
   9.000000E+99

> <Gold.Chemscore.Hbonds>
donor molecule, donor type, donor heavy atom, donor atom, acceptor molecule, acceptor atom, score
      L1  H    11    23       P1  8028  0.92

> <Gold.Chemscore.Hbond.Weighted>
-3.3391

> <Gold.Chemscore.Metal.Weighted>
-0.0000

> <Gold.Chemscore.Lipo.Weighted>
-9.0626

> <Gold.Chemscore.Internal_Hbond.Weighted>
0.0000

> <Gold.Chemscore.DEClash.Weighted>
0.3250

> <Gold.Chemscore.DEInternal.Weighted>
1.6510

> <Gold.Chemscore.Rot.Weighted>
3.4071

> <Gold.Chemscore.Internal.Correction.Weighted>
   9.000000E+99

> <Gold.Protein.RotatedTorsions>
[ 6907 6896 6895 6894 ] final  174.16 input  -60.11 | X-H torsion
[ 7974 7965 7964 7962 ] final  170.07 input  175.53 | X-H torsion
[ 8008 7997 7996 7995 ] final  -63.07 input   59.86 | X-H torsion
[ 10167 10162 10161 10158 ] final   99.65 input  -65.29 | X-H torsion
[ 10718 10713 10712 10709 ] final   26.02 input   66.30 | X-H torsion
[ 10763 10752 10751 10750 ] final -130.16 input  -60.55 | X-H torsion
[ 11005 11000 10999 10996 ] final   57.59 input  -57.11 | X-H torsion

> <Gold.Protein.ActiveResidues>
 VAL166  LYS551  ARG553  GLY616  TRP617  ASP618  TYR619  PRO620  LYS621  CYS622 
 ASP623  PHE694  ASN695  SER759  ASP760  ASP761  ALA762  ILE779  LEU786  VAL792 
 PHE793  MET794  SER795  GLU796  ALA797  LYS798  CYS799  TRP800  GLU811  SER814 

> <Gold.Protein.RotatedAtoms>
  151.7567  133.3331  159.3406 H   0  0  0  0  0  0  0  0  0  0  0  0  # atno 6907 bound_to 6896
  150.7514  134.6143  159.6112 H   0  0  0  0  0  0  0  0  0  0  0  0  # atno 6908 bound_to 6896
  152.3432  134.7108  160.0309 H   0  0  0  0  0  0  0  0  0  0  0  0  # atno 6909 bound_to 6896
  144.7335  139.9148  143.6417 H   0  0  0  0  0  0  0  0  0  0  0  0  # atno 7974 bound_to 7965
  154.4534  140.0982  156.6686 H   0  0  0  0  0  0  0  0  0  0  0  0  # atno 8008 bound_to 7997
  155.5213  140.3479  155.4389 H   0  0  0  0  0  0  0  0  0  0  0  0  # atno 8009 bound_to 7997
  156.0728  140.1353  156.9796 H   0  0  0  0  0  0  0  0  0  0  0  0  # atno 8010 bound_to 7997
  139.7598  144.6958  151.0310 H   0  0  0  0  0  0  0  0  0  0  0  0  # atno 10167 bound_to 10162
  157.2013  130.6891  149.6189 H   0  0  0  0  0  0  0  0  0  0  0  0  # atno 10718 bound_to 10713
  154.8756  135.3872  154.4037 H   0  0  0  0  0  0  0  0  0  0  0  0  # atno 10763 bound_to 10752
  153.4759  135.7030  153.5971 H   0  0  0  0  0  0  0  0  0  0  0  0  # atno 10764 bound_to 10752
  153.4408  135.3856  155.2194 H   0  0  0  0  0  0  0  0  0  0  0  0  # atno 10765 bound_to 10752
  140.0441  134.5831  155.9344 H   0  0  0  0  0  0  0  0  0  0  0  0  # atno 11005 bound_to 11000
  146.0974  139.3967  143.0368 LP  0  0  0  0  0  0  0  0  0  0  0  0  # atno 17320 bound_to 7965
  145.7627  140.9929  143.1191 LP  0  0  0  0  0  0  0  0  0  0  0  0  # atno 17321 bound_to 7965
  140.7806  143.4711  151.0145 LP  0  0  0  0  0  0  0  0  0  0  0  0  # atno 17342 bound_to 10162
  139.8397  143.7580  152.3180 LP  0  0  0  0  0  0  0  0  0  0  0  0  # atno 17343 bound_to 10162
  155.9700  130.4582  150.5990 LP  0  0  0  0  0  0  0  0  0  0  0  0  # atno 17370 bound_to 10713
  157.3764  131.0774  151.1514 LP  0  0  0  0  0  0  0  0  0  0  0  0  # atno 17371 bound_to 10713
  141.1898  133.6566  156.5384 LP  0  0  0  0  0  0  0  0  0  0  0  0  # atno 17394 bound_to 11000
  140.4021  134.7347  157.4786 LP  0  0  0  0  0  0  0  0  0  0  0  0  # atno 17395 bound_to 11000

$$$$
