AV-unprocessed.smi:159|AV-procd|sdf|1339|dock6
  -GOLD-   2262019 33D 1   1.00000     0.00000
 Structure written by MMmdl.
 28 29  0  0  0  0  0  0  0  0  1 V2000
  149.3079  138.6233  153.2056 N   0  0  0  0  0  0  0  0  0  0  0  0
  149.5180  139.2128  154.3909 C   0  0  0  0  0  0  0  0  0  0  0  0
  149.5438  140.6544  154.4955 C   0  0  0  0  0  0  0  0  0  0  0  0
  149.7565  141.1729  155.7250 C   0  0  0  0  0  0  0  0  0  0  0  0
  149.9332  140.3727  156.8452 N   0  0  0  0  0  0  0  0  0  0  0  0
  150.1744  140.9813  158.2087 C   0  0  1  0  0  0  0  0  0  0  0  0
  151.5617  140.5913  158.7315 C   0  0  0  0  0  0  0  0  0  0  0  0
  152.3512  141.8645  158.5127 C   0  0  0  0  0  0  0  0  0  0  0  0
  151.2849  142.9380  158.7199 C   0  0  1  0  0  0  0  0  0  0  0  0
  151.6409  144.2849  158.0741 C   0  0  0  0  0  0  0  0  0  0  0  0
  151.4768  144.2091  156.6743 O   0  0  0  0  0  0  0  0  0  0  0  0
  150.1370  142.3741  158.0940 O   0  0  0  0  0  0  0  0  0  0  0  0
  149.9247  138.9634  156.7071 C   0  0  0  0  0  0  0  0  0  0  0  0
  150.1163  138.2138  157.6640 O   0  0  0  0  0  0  0  0  0  0  0  0
  149.7041  138.4558  155.4547 N   0  0  0  0  0  0  0  0  0  0  0  0
  149.3578  140.6610  158.8578 H   0  0  0  0  0  0  0  0  0  0  0  0
  151.0968  143.0513  159.7895 H   0  0  0  0  0  0  0  0  0  0  0  0
  149.2935  137.6162  153.1350 H   0  0  0  0  0  0  0  0  0  0  0  0
  149.1688  139.1910  152.3819 H   0  0  0  0  0  0  0  0  0  0  0  0
  149.4032  141.3148  153.6518 H   0  0  0  0  0  0  0  0  0  0  0  0
  149.7867  142.2485  155.8186 H   0  0  0  0  0  0  0  0  0  0  0  0
  151.4824  140.3658  159.7958 H   0  0  0  0  0  0  0  0  0  0  0  0
  151.9720  139.7223  158.2153 H   0  0  0  0  0  0  0  0  0  0  0  0
  153.1939  141.9652  159.1971 H   0  0  0  0  0  0  0  0  0  0  0  0
  152.7350  141.8958  157.4921 H   0  0  0  0  0  0  0  0  0  0  0  0
  150.9708  145.0638  158.4392 H   0  0  0  0  0  0  0  0  0  0  0  0
  152.6579  144.5891  158.3230 H   0  0  0  0  0  0  0  0  0  0  0  0
  150.6153  144.5293  156.4545 H   0  0  0  0  0  0  0  0  0  0  0  0
  1  2  1  0  0  0  0
  1 18  1  0  0  0  0
  1 19  1  0  0  0  0
  2 15  2  0  0  0  0
  2  3  1  0  0  0  0
  3  4  2  0  0  0  0
  3 20  1  0  0  0  0
  4  5  1  0  0  0  0
  4 21  1  0  0  0  0
  5  6  1  0  0  0  0
  5 13  1  0  0  0  0
  6 16  1  0  0  0  0
  6 12  1  0  0  0  0
  6  7  1  0  0  0  0
  7  8  1  0  0  0  0
  7 22  1  0  0  0  0
  7 23  1  0  0  0  0
  8  9  1  0  0  0  0
  8 24  1  0  0  0  0
  8 25  1  0  0  0  0
  9 17  1  0  0  0  0
  9 10  1  0  0  0  0
  9 12  1  0  0  0  0
 10 11  1  0  0  0  0
 10 26  1  0  0  0  0
 10 27  1  0  0  0  0
 11 28  1  0  0  0  0
 13 14  2  0  0  0  0
 13 15  1  0  0  0  0
M  END
> <s_m_source_file>
AV-unprocessed.smi

> <i_m_source_file_index>
159

> <i_lp_mmshare_version>
43012

> <i_f3d_flags>
0

> <s_epik_input>
W05IMl1jMVtjSF1bY0hdbihjKD1PKW4xKVtDQEhdMltDSDJdW0NIMl1bQ0BIXShPMilbQ0gyXVtPSF0=

> <s_epik_cmdline>
J2VwaWtfcHl0aG9uJywgJy1waCcsICc3LjAnLCAnLXRuJywgJzgnLCAnLW1hJywgJzIwMCcsICctbWV0YWxfYmluZGluZycsICctaW1hZScsICc8aW5maWxlLm1hZT4nLCAnLW9tYWUnLCAnPG91dGZpbGUubWFlPic=

> <r_lp_tautomer_probability>
0.99996

> <r_epik_Ionization_Penalty>
0.00126102

> <r_epik_Ionization_Penalty_Charging>
4.46248e-08

> <r_epik_Ionization_Penalty_Neutral>
0.00126097

> <r_epik_State_Penalty>
1.15523e-05

> <r_epik_Charging_Adjusted_Penalty>
1.1597e-05

> <i_epik_Tot_Q>
0

> <i_epik_Tot_abs_Q>
0

> <r_epik_Metal_State_Penalty>
-0

> <b_epik_Metal_Only>
0

> <s_epik_Chemistry_Notes>
This compound contains an acetal/aminal-like group ( X-CH(R)-Y where X, Y are N, S, or O) that may be acid/base labile, releasing an aldehyde.

> <s_lp_Force_Field>
OPLS_2005

> <r_lp_Energy>
25.8801

> <b_lp_Chiralities_Consistent>
1

> <s_lp_Variant>
AV-unprocessed.smi:159-1

> <Gold.Version>
5.8.1

> <Gold.Id.Protein>
6NUR|6NUR_protein|mol2

> <Gold.PLP.Fitness>
34.9655

> <Gold.PLP.PLP>
-23.7350

> <Gold.PLP.part.hbond>
-2.8187

> <Gold.PLP.part.metal>
0.0000

> <Gold.PLP.part.buried>
-3.0092

> <Gold.PLP.part.nonpolar>
-18.1297

> <Gold.PLP.part.repulsive>
0.2657

> <Gold.PLP.ligand.clash>
0.0000

> <Gold.PLP.ligand.torsion>
0.1523

> <Gold.PLP.Chemscore.Hbond>
2.8406

> <Gold.PLP.Chemscore.CHOScore>
1.0000

> <Gold.PLP.Chemscore.Metal>
0.0000

> <Gold.Chemscore.Hbonds>
donor molecule, donor type, donor heavy atom, donor atom, acceptor molecule, acceptor atom, score
      L1  H     1    18       P1  7948  0.80
      L1  H     1    19       P1  7957  1.00
      L1  H    11    28       P1  8028  1.00
      L1  C     4    21       P1  8028  0.74

> <Gold.PLP.Chemscore.Internal.Correction>
0.0134

> <Gold.Rescore>
     Score         DG    S(hbond)    S(metal)    S(lipo)     H(rot)  DE(clash)    DE(int)     intcor
     14.83     -15.11       2.67        0.00      51.98       2.09       0.06       0.22       ----

> <Gold.Chemscore.Fitness>
14.8287

> <Gold.Chemscore.DG>
-15.1090

> <Gold.Chemscore.ZeroCoef>
-5.4800

> <Gold.Chemscore.Hbond>
2.6668

> <Gold.Chemscore.Metal>
0.0000

> <Gold.Chemscore.Lipo>
51.9768

> <Gold.Chemscore.Internal_Hbond>
0.0000

> <Gold.Chemscore.DEClash>
0.0584

> <Gold.Chemscore.DEInternal>
0.2218

> <Gold.Chemscore.Rot>
2.0935

> <Gold.Chemscore.Internal.Correction>
   9.000000E+99

> <Gold.Chemscore.Hbonds>
donor molecule, donor type, donor heavy atom, donor atom, acceptor molecule, acceptor atom, score
      L1  H     1    18       P1  7948  0.78
      L1  H     1    19       P1  7957  0.93
      L1  H    11    28       P1  8028  0.99

> <Gold.Chemscore.Hbond.Weighted>
-8.9070

> <Gold.Chemscore.Metal.Weighted>
-0.0000

> <Gold.Chemscore.Lipo.Weighted>
-6.0813

> <Gold.Chemscore.Internal_Hbond.Weighted>
0.0000

> <Gold.Chemscore.DEClash.Weighted>
0.0584

> <Gold.Chemscore.DEInternal.Weighted>
0.2218

> <Gold.Chemscore.Rot.Weighted>
5.3594

> <Gold.Chemscore.Internal.Correction.Weighted>
   9.000000E+99

> <Gold.Protein.RotatedTorsions>
[ 6907 6896 6895 6894 ] final   32.76 input  -60.11 | X-H torsion
[ 7974 7965 7964 7962 ] final  147.09 input  175.53 | X-H torsion
[ 8008 7997 7996 7995 ] final -161.41 input   59.86 | X-H torsion
[ 10167 10162 10161 10158 ] final  -97.44 input  -65.29 | X-H torsion
[ 10718 10713 10712 10709 ] final  173.46 input   66.30 | X-H torsion
[ 10763 10752 10751 10750 ] final   77.19 input  -60.55 | X-H torsion
[ 11005 11000 10999 10996 ] final -165.81 input  -57.11 | X-H torsion

> <Gold.Protein.ActiveResidues>
 VAL166  LYS551  ARG553  GLY616  TRP617  ASP618  TYR619  PRO620  LYS621  CYS622 
 ASP623  PHE694  ASN695  SER759  ASP760  ASP761  ALA762  ILE779  LEU786  VAL792 
 PHE793  MET794  SER795  GLU796  ALA797  LYS798  CYS799  TRP800  GLU811  SER814 

> <Gold.Protein.RotatedAtoms>
  152.0789  134.9484  160.0573 H   0  0  0  0  0  0  0  0  0  0  0  0  # atno 6907 bound_to 6896
  152.0780  133.4134  159.4497 H   0  0  0  0  0  0  0  0  0  0  0  0  # atno 6908 bound_to 6896
  150.6836  134.2935  159.4720 H   0  0  0  0  0  0  0  0  0  0  0  0  # atno 6909 bound_to 6896
  144.8619  139.5985  143.5926 H   0  0  0  0  0  0  0  0  0  0  0  0  # atno 7974 bound_to 7965
  155.7918  140.0879  157.2005 H   0  0  0  0  0  0  0  0  0  0  0  0  # atno 8008 bound_to 7997
  154.3985  140.1488  156.3230 H   0  0  0  0  0  0  0  0  0  0  0  0  # atno 8009 bound_to 7997
  155.8551  140.3433  155.5722 H   0  0  0  0  0  0  0  0  0  0  0  0  # atno 8010 bound_to 7997
  140.2834  143.3267  152.0418 H   0  0  0  0  0  0  0  0  0  0  0  0  # atno 10167 bound_to 10162
  156.9640  131.0069  151.2921 H   0  0  0  0  0  0  0  0  0  0  0  0  # atno 10718 bound_to 10713
  153.0780  135.4923  154.8445 H   0  0  0  0  0  0  0  0  0  0  0  0  # atno 10763 bound_to 10752
  154.7114  135.3020  154.9194 H   0  0  0  0  0  0  0  0  0  0  0  0  # atno 10764 bound_to 10752
  153.9886  135.6781  153.4806 H   0  0  0  0  0  0  0  0  0  0  0  0  # atno 10765 bound_to 10752
  140.5715  134.5233  157.5162 H   0  0  0  0  0  0  0  0  0  0  0  0  # atno 11005 bound_to 11000
  146.2867  139.7023  142.9190 LP  0  0  0  0  0  0  0  0  0  0  0  0  # atno 17320 bound_to 7965
  145.4296  141.0414  143.2918 LP  0  0  0  0  0  0  0  0  0  0  0  0  # atno 17321 bound_to 7965
  139.4956  144.6575  151.6538 LP  0  0  0  0  0  0  0  0  0  0  0  0  # atno 17342 bound_to 10162
  140.5792  143.9975  150.6259 LP  0  0  0  0  0  0  0  0  0  0  0  0  # atno 17343 bound_to 10162
  157.5638  130.8264  149.8301 LP  0  0  0  0  0  0  0  0  0  0  0  0  # atno 17370 bound_to 10713
  156.0310  130.3764  150.1687 LP  0  0  0  0  0  0  0  0  0  0  0  0  # atno 17371 bound_to 10713
  139.9360  134.7875  156.0803 LP  0  0  0  0  0  0  0  0  0  0  0  0  # atno 17394 bound_to 11000
  141.1053  133.6662  156.2850 LP  0  0  0  0  0  0  0  0  0  0  0  0  # atno 17395 bound_to 11000

$$$$
