AV-unprocessed.smi:1096|AV-procd|sdf|4749|dock6
  -GOLD-   22720 3283D 1   1.00000     0.00000
 Structure written by MMmdl.
 48 50  0  0  0  0  0  0  0  0  1 V2000
  150.5634  136.4311  156.1425 O   0  0  0  0  0  0  0  0  0  0  0  0
  150.1636  136.4475  154.9779 C   0  0  0  0  0  0  0  0  0  0  0  0
  150.0126  135.3673  154.1913 N   0  0  0  0  0  0  0  0  0  0  0  0
  150.2952  134.0100  154.4993 C   0  0  0  0  0  0  0  0  0  0  0  0
  149.6897  133.0632  153.6420 C   0  0  0  0  0  0  0  0  0  0  0  0
  149.9105  131.6896  153.8606 C   0  0  0  0  0  0  0  0  0  0  0  0
  150.7330  131.2973  154.9318 C   0  0  0  0  0  0  0  0  0  0  0  0
  151.2975  132.3034  155.7372 C   0  0  0  0  0  0  0  0  0  0  0  0
  151.0869  133.6204  155.5299 N   0  0  0  0  0  0  0  0  0  0  0  0
  149.8171  137.5700  154.3307 N   0  0  0  0  0  0  0  0  0  0  0  0
  149.8479  138.9151  154.8972 C   0  0  2  0  0  0  0  0  0  0  0  0
  151.2964  139.2822  155.2690 C   0  0  0  0  0  0  0  0  0  0  0  0
  151.3734  140.6665  155.9327 C   0  0  0  0  0  0  0  0  0  0  0  0
  150.4686  140.7386  157.1835 C   0  0  1  0  0  0  0  0  0  0  0  0
  150.5420  142.1194  157.8708 C   0  0  0  0  0  0  0  0  0  0  0  0
  149.5134  142.7949  157.9346 O   0  0  0  0  0  0  0  0  0  0  0  0
  151.7268  142.5744  158.3518 N   0  0  0  0  0  0  0  0  0  0  0  0
  152.9107  141.7134  158.4606 C   0  0  0  0  0  0  0  0  0  0  0  0
  153.0619  141.2589  159.9228 C   0  0  0  0  0  0  0  0  0  0  0  0
  153.3220  142.6804  161.0318 S   0  0  0  0  0  0  0  0  0  0  0  0
  151.9637  143.7596  160.4791 C   0  0  0  0  0  0  0  0  0  0  0  0
  151.9634  143.8949  158.9480 C   0  0  0  0  0  0  0  0  0  0  0  0
  149.0159  140.3969  156.7932 C   0  0  0  0  0  0  0  0  0  0  0  0
  148.9262  139.0127  156.1306 C   0  0  0  0  0  0  0  0  0  0  0  0
  149.6587  135.5363  153.2613 H   0  0  0  0  0  0  0  0  0  0  0  0
  149.0607  133.3819  152.8233 H   0  0  0  0  0  0  0  0  0  0  0  0
  149.4563  130.9508  153.2169 H   0  0  0  0  0  0  0  0  0  0  0  0
  150.9261  130.2536  155.1308 H   0  0  0  0  0  0  0  0  0  0  0  0
  151.9357  132.0448  156.5692 H   0  0  0  0  0  0  0  0  0  0  0  0
  149.5005  137.4887  153.3755 H   0  0  0  0  0  0  0  0  0  0  0  0
  149.5023  139.6239  154.1421 H   0  0  0  0  0  0  0  0  0  0  0  0
  151.7066  138.5333  155.9484 H   0  0  0  0  0  0  0  0  0  0  0  0
  151.9254  139.2684  154.3781 H   0  0  0  0  0  0  0  0  0  0  0  0
  152.4075  140.8832  156.2039 H   0  0  0  0  0  0  0  0  0  0  0  0
  151.0789  141.4230  155.2034 H   0  0  0  0  0  0  0  0  0  0  0  0
  150.8463  139.9759  157.8634 H   0  0  0  0  0  0  0  0  0  0  0  0
  152.8513  140.8412  157.8082 H   0  0  0  0  0  0  0  0  0  0  0  0
  153.8024  142.2531  158.1389 H   0  0  0  0  0  0  0  0  0  0  0  0
  152.1724  140.7160  160.2450 H   0  0  0  0  0  0  0  0  0  0  0  0
  153.9063  140.5768  160.0240 H   0  0  0  0  0  0  0  0  0  0  0  0
  151.0156  143.3478  160.8267 H   0  0  0  0  0  0  0  0  0  0  0  0
  152.0797  144.7368  160.9480 H   0  0  0  0  0  0  0  0  0  0  0  0
  152.9248  144.2864  158.6126 H   0  0  0  0  0  0  0  0  0  0  0  0
  151.2394  144.6416  158.6256 H   0  0  0  0  0  0  0  0  0  0  0  0
  148.3695  140.4187  157.6713 H   0  0  0  0  0  0  0  0  0  0  0  0
  148.6264  141.1518  156.1082 H   0  0  0  0  0  0  0  0  0  0  0  0
  147.8924  138.8128  155.8469 H   0  0  0  0  0  0  0  0  0  0  0  0
  149.1992  138.2468  156.8580 H   0  0  0  0  0  0  0  0  0  0  0  0
  1  2  2  0  0  0  0
  2  3  1  0  0  0  0
  2 10  1  0  0  0  0
  3  4  1  0  0  0  0
  3 25  1  0  0  0  0
  4  9  1  0  0  0  0
  4  5  2  0  0  0  0
  5  6  1  0  0  0  0
  5 26  1  0  0  0  0
  6  7  2  0  0  0  0
  6 27  1  0  0  0  0
  7  8  1  0  0  0  0
  7 28  1  0  0  0  0
  8  9  2  0  0  0  0
  8 29  1  0  0  0  0
 10 11  1  0  0  0  0
 10 30  1  0  0  0  0
 11 24  1  0  0  0  0
 11 12  1  0  0  0  0
 11 31  1  0  0  0  0
 12 13  1  0  0  0  0
 12 32  1  0  0  0  0
 12 33  1  0  0  0  0
 13 14  1  0  0  0  0
 13 34  1  0  0  0  0
 13 35  1  0  0  0  0
 14 15  1  0  0  0  0
 14 23  1  0  0  0  0
 14 36  1  0  0  0  0
 15 16  2  0  0  0  0
 15 17  1  0  0  0  0
 17 22  1  0  0  0  0
 17 18  1  0  0  0  0
 18 19  1  0  0  0  0
 18 37  1  0  0  0  0
 18 38  1  0  0  0  0
 19 20  1  0  0  0  0
 19 39  1  0  0  0  0
 19 40  1  0  0  0  0
 20 21  1  0  0  0  0
 21 22  1  0  0  0  0
 21 41  1  0  0  0  0
 21 42  1  0  0  0  0
 22 43  1  0  0  0  0
 22 44  1  0  0  0  0
 23 24  1  0  0  0  0
 23 45  1  0  0  0  0
 23 46  1  0  0  0  0
 24 47  1  0  0  0  0
 24 48  1  0  0  0  0
M  END
> <s_m_source_file>
AV-unprocessed.smi

> <i_m_source_file_index>
1096

> <i_lp_mmshare_version>
43012

> <i_f3d_flags>
0

> <s_epik_input>
bjFbY0hdW2NIXVtjSF1bY0hdYzFbTkhdQyg9TylbTkhdW0NAQEhdMltDSDJdW0NIMl1bQ0BIXShbQ0gyXVtDSDJdMilDKD1PKU4zW0NIMl1bQ0gyXVNbQ0gyXVtDSDJdMw==

> <s_epik_cmdline>
J2VwaWtfcHl0aG9uJywgJy1waCcsICc3LjAnLCAnLXRuJywgJzgnLCAnLW1hJywgJzIwMCcsICctbWV0YWxfYmluZGluZycsICctaW1hZScsICc8aW5maWxlLm1hZT4nLCAnLW9tYWUnLCAnPG91dGZpbGUubWFlPic=

> <r_lp_tautomer_probability>
1

> <r_epik_Ionization_Penalty>
5.08504e-05

> <r_epik_Ionization_Penalty_Charging>
0

> <r_epik_Ionization_Penalty_Neutral>
5.08504e-05

> <r_epik_State_Penalty>
-0

> <r_epik_Charging_Adjusted_Penalty>
0

> <i_epik_Tot_Q>
0

> <i_epik_Tot_abs_Q>
0

> <r_epik_Metal_State_Penalty>
-0

> <b_epik_Metal_Only>
0

> <s_lp_Force_Field>
OPLS_2005

> <r_lp_Energy>
29.3602

> <b_lp_Chiralities_Consistent>
1

> <s_lp_Variant>
AV-unprocessed.smi:1096-1

> <Gold.Version>
5.8.1

> <Gold.Id.Protein>
6NUR|6NUR_protein|mol2

> <Gold.PLP.Fitness>
48.6085

> <Gold.PLP.PLP>
-43.2197

> <Gold.PLP.part.hbond>
-2.2922

> <Gold.PLP.part.metal>
0.0000

> <Gold.PLP.part.buried>
-5.9874

> <Gold.PLP.part.nonpolar>
-35.7258

> <Gold.PLP.part.repulsive>
1.0024

> <Gold.PLP.ligand.clash>
0.0000

> <Gold.PLP.ligand.torsion>
0.1214

> <Gold.PLP.Chemscore.Hbond>
1.8551

> <Gold.PLP.Chemscore.CHOScore>
0.0000

> <Gold.PLP.Chemscore.Metal>
0.0000

> <Gold.Chemscore.Hbonds>
donor molecule, donor type, donor heavy atom, donor atom, acceptor molecule, acceptor atom, score
      L1  H     3    25       P1  7948  0.50
      L1  H    10    30       P1  7948  0.94

> <Gold.PLP.Chemscore.Internal.Correction>
0.0664

> <Gold.Rescore>
     Score         DG    S(hbond)    S(metal)    S(lipo)     H(rot)  DE(clash)    DE(int)     intcor
     16.65     -19.25       1.63        0.00      98.84       1.26       0.05       2.55       ----

> <Gold.Chemscore.Fitness>
16.6521

> <Gold.Chemscore.DG>
-19.2533

> <Gold.Chemscore.ZeroCoef>
-5.4800

> <Gold.Chemscore.Hbond>
1.6256

> <Gold.Chemscore.Metal>
0.0000

> <Gold.Chemscore.Lipo>
98.8357

> <Gold.Chemscore.Internal_Hbond>
0.0000

> <Gold.Chemscore.DEClash>
0.0477

> <Gold.Chemscore.DEInternal>
2.5534

> <Gold.Chemscore.Rot>
1.2578

> <Gold.Chemscore.Internal.Correction>
   9.000000E+99

> <Gold.Chemscore.Hbonds>
donor molecule, donor type, donor heavy atom, donor atom, acceptor molecule, acceptor atom, score
      L1  H     3    25       P1  7948  0.02
      L1  H    10    30       P1  7948  0.79

> <Gold.Chemscore.Hbond.Weighted>
-5.4295

> <Gold.Chemscore.Metal.Weighted>
-0.0000

> <Gold.Chemscore.Lipo.Weighted>
-11.5638

> <Gold.Chemscore.Internal_Hbond.Weighted>
0.0000

> <Gold.Chemscore.DEClash.Weighted>
0.0477

> <Gold.Chemscore.DEInternal.Weighted>
2.5534

> <Gold.Chemscore.Rot.Weighted>
3.2200

> <Gold.Chemscore.Internal.Correction.Weighted>
   9.000000E+99

> <Gold.Protein.RotatedTorsions>
[ 6907 6896 6895 6894 ] final -166.71 input  -60.11 | X-H torsion
[ 7974 7965 7964 7962 ] final   34.87 input  175.53 | X-H torsion
[ 8008 7997 7996 7995 ] final  171.33 input   59.86 | X-H torsion
[ 10167 10162 10161 10158 ] final  127.45 input  -65.29 | X-H torsion
[ 10718 10713 10712 10709 ] final -152.33 input   66.30 | X-H torsion
[ 10763 10752 10751 10750 ] final   82.38 input  -60.55 | X-H torsion
[ 11005 11000 10999 10996 ] final   94.06 input  -57.11 | X-H torsion

> <Gold.Protein.ActiveResidues>
 VAL166  LYS551  ARG553  GLY616  TRP617  ASP618  TYR619  PRO620  LYS621  CYS622 
 ASP623  PHE694  ASN695  SER759  ASP760  ASP761  ALA762  ILE779  LEU786  VAL792 
 PHE793  MET794  SER795  GLU796  ALA797  LYS798  CYS799  TRP800  GLU811  SER814 

> <Gold.Protein.RotatedAtoms>
  151.4479  133.3625  159.2790 H   0  0  0  0  0  0  0  0  0  0  0  0  # atno 6907 bound_to 6896
  150.9112  134.8530  159.7437 H   0  0  0  0  0  0  0  0  0  0  0  0  # atno 6908 bound_to 6896
  152.4933  134.4408  159.9595 H   0  0  0  0  0  0  0  0  0  0  0  0  # atno 6909 bound_to 6896
  146.1323  139.6214  142.9218 H   0  0  0  0  0  0  0  0  0  0  0  0  # atno 7974 bound_to 7965
  156.1281  140.1514  156.9106 H   0  0  0  0  0  0  0  0  0  0  0  0  # atno 8008 bound_to 7997
  154.4887  140.0857  156.7586 H   0  0  0  0  0  0  0  0  0  0  0  0  # atno 8009 bound_to 7997
  155.4307  140.3427  155.4282 H   0  0  0  0  0  0  0  0  0  0  0  0  # atno 8010 bound_to 7997
  139.5577  144.6860  151.4133 H   0  0  0  0  0  0  0  0  0  0  0  0  # atno 10167 bound_to 10162
  156.4710  130.8258  151.2488 H   0  0  0  0  0  0  0  0  0  0  0  0  # atno 10718 bound_to 10713
  153.1198  135.4730  154.9176 H   0  0  0  0  0  0  0  0  0  0  0  0  # atno 10763 bound_to 10752
  154.7564  135.3119  154.8464 H   0  0  0  0  0  0  0  0  0  0  0  0  # atno 10764 bound_to 10752
  153.9031  135.6873  153.4808 H   0  0  0  0  0  0  0  0  0  0  0  0  # atno 10765 bound_to 10752
  139.8803  134.8824  156.3809 H   0  0  0  0  0  0  0  0  0  0  0  0  # atno 11005 bound_to 11000
  145.5234  141.0431  143.2423 LP  0  0  0  0  0  0  0  0  0  0  0  0  # atno 17320 bound_to 7965
  144.7703  139.6750  143.7197 LP  0  0  0  0  0  0  0  0  0  0  0  0  # atno 17321 bound_to 7965
  140.6853  143.7988  150.7177 LP  0  0  0  0  0  0  0  0  0  0  0  0  # atno 17342 bound_to 10162
  140.1454  143.4404  152.2166 LP  0  0  0  0  0  0  0  0  0  0  0  0  # atno 17343 bound_to 10162
  157.7491  131.0076  150.3196 LP  0  0  0  0  0  0  0  0  0  0  0  0  # atno 17370 bound_to 10713
  156.3618  130.3848  149.7245 LP  0  0  0  0  0  0  0  0  0  0  0  0  # atno 17371 bound_to 10713
  140.9399  133.7521  156.0133 LP  0  0  0  0  0  0  0  0  0  0  0  0  # atno 17394 bound_to 11000
  140.8231  134.3266  157.5375 LP  0  0  0  0  0  0  0  0  0  0  0  0  # atno 17395 bound_to 11000

$$$$
