AV-unprocessed.smi:196|AV-procd|sdf|1534|dock9
  -GOLD-   2262019383D 1   1.00000     0.00000
 Structure written by MMmdl.
 47 50  0  0  0  0  0  0  0  0  1 V2000
  146.3327  130.1556  151.6109 C   0  0  0  0  0  0  0  0  0  0  0  0
  145.5336  131.4607  151.7671 C   0  0  2  0  0  0  0  0  0  0  0  0
  145.0806  131.8278  150.4628 O   0  0  0  0  0  0  0  0  0  0  0  0
  145.3537  133.1983  150.2135 C   0  0  0  0  0  0  0  0  0  0  0  0
  146.6071  133.4623  151.0316 C   0  0  0  0  0  0  0  0  0  0  0  0
  146.3271  132.6783  152.3093 C   0  0  2  0  0  0  0  0  0  0  0  0
  147.5638  132.3156  152.8998 O   0  0  0  0  0  0  0  0  0  0  0  0
  145.4954  133.4599  153.3614 C   0  0  0  0  0  0  0  0  0  0  0  0
  146.1953  134.5878  153.9566 N   0  0  0  0  0  0  0  0  0  0  0  0
  147.1917  134.5360  154.9053 C   0  0  0  0  0  0  0  0  0  0  0  0
  147.6626  135.6937  155.2814 N   0  0  0  0  0  0  0  0  0  0  0  0
  146.9285  136.6139  154.5441 C   0  0  0  0  0  0  0  0  0  0  0  0
  146.9189  138.0320  154.4593 C   0  0  0  0  0  0  0  0  0  0  0  0
  147.7769  138.8046  155.1706 N   0  0  0  0  0  0  0  0  0  0  0  0
  147.2050  139.5869  156.2644 C   0  0  0  0  0  0  0  0  0  0  0  0
  147.2380  141.0325  155.7863 C   0  0  1  0  0  0  0  0  0  0  0  0
  147.2214  141.9078  156.7911 F   0  0  0  0  0  0  0  0  0  0  0  0
  148.5379  141.0728  154.9952 C   0  0  0  0  0  0  0  0  0  0  0  0
  148.6146  139.6811  154.3343 C   0  0  1  0  0  0  0  0  0  0  0  0
  150.0727  139.2079  154.1947 C   0  0  0  0  0  0  0  0  0  0  0  0
  150.3179  138.0503  153.5727 N   0  0  0  0  0  0  0  0  0  0  0  0
  150.9817  139.8984  154.6497 O   0  0  0  0  0  0  0  0  0  0  0  0
  146.0353  138.6074  153.6002 N   0  0  0  0  0  0  0  0  0  0  0  0
  145.2072  137.8455  152.8793 C   0  0  0  0  0  0  0  0  0  0  0  0
  145.1039  136.5150  152.8574 N   0  0  0  0  0  0  0  0  0  0  0  0
  145.9942  135.9352  153.7127 C   0  0  0  0  0  0  0  0  0  0  0  0
  146.3865  141.2458  155.1383 H   0  0  0  0  0  0  0  0  0  0  0  0
  148.1918  139.7546  153.3294 H   0  0  0  0  0  0  0  0  0  0  0  0
  146.6800  129.7851  152.5757 H   0  0  0  0  0  0  0  0  0  0  0  0
  147.2030  130.2966  150.9691 H   0  0  0  0  0  0  0  0  0  0  0  0
  145.7161  129.3757  151.1640 H   0  0  0  0  0  0  0  0  0  0  0  0
  144.6629  131.2618  152.3936 H   0  0  0  0  0  0  0  0  0  0  0  0
  145.4951  133.3920  149.1500 H   0  0  0  0  0  0  0  0  0  0  0  0
  144.5206  133.8081  150.5652 H   0  0  0  0  0  0  0  0  0  0  0  0
  147.4646  133.0383  150.5060 H   0  0  0  0  0  0  0  0  0  0  0  0
  146.8093  134.5222  151.1794 H   0  0  0  0  0  0  0  0  0  0  0  0
  147.7127  132.8731  153.6479 H   0  0  0  0  0  0  0  0  0  0  0  0
  144.5727  133.8328  152.9152 H   0  0  0  0  0  0  0  0  0  0  0  0
  145.1868  132.7905  154.1656 H   0  0  0  0  0  0  0  0  0  0  0  0
  147.5634  133.6056  155.3100 H   0  0  0  0  0  0  0  0  0  0  0  0
  146.2026  139.2755  156.5630 H   0  0  0  0  0  0  0  0  0  0  0  0
  147.8495  139.4607  157.1353 H   0  0  0  0  0  0  0  0  0  0  0  0
  148.5545  141.8845  154.2672 H   0  0  0  0  0  0  0  0  0  0  0  0
  149.3737  141.2268  155.6810 H   0  0  0  0  0  0  0  0  0  0  0  0
  151.2682  137.7217  153.4789 H   0  0  0  0  0  0  0  0  0  0  0  0
  149.5514  137.5056  153.2055 H   0  0  0  0  0  0  0  0  0  0  0  0
  144.5335  138.3781  152.2243 H   0  0  0  0  0  0  0  0  0  0  0  0
  1  2  1  0  0  0  0
  1 29  1  0  0  0  0
  1 30  1  0  0  0  0
  1 31  1  0  0  0  0
  2  6  1  0  0  0  0
  2  3  1  0  0  0  0
  2 32  1  0  0  0  0
  3  4  1  0  0  0  0
  4  5  1  0  0  0  0
  4 33  1  0  0  0  0
  4 34  1  0  0  0  0
  5  6  1  0  0  0  0
  5 35  1  0  0  0  0
  5 36  1  0  0  0  0
  6  7  1  0  0  0  0
  6  8  1  0  0  0  0
  7 37  1  0  0  0  0
  8  9  1  0  0  0  0
  8 38  1  0  0  0  0
  8 39  1  0  0  0  0
  9 26  1  0  0  0  0
  9 10  1  0  0  0  0
 10 11  2  0  0  0  0
 10 40  1  0  0  0  0
 11 12  1  0  0  0  0
 12 26  2  0  0  0  0
 12 13  1  0  0  0  0
 13 14  1  0  0  0  0
 13 23  2  0  0  0  0
 14 19  1  0  0  0  0
 14 15  1  0  0  0  0
 15 16  1  0  0  0  0
 15 41  1  0  0  0  0
 15 42  1  0  0  0  0
 16 27  1  0  0  0  0
 16 17  1  0  0  0  0
 16 18  1  0  0  0  0
 18 19  1  0  0  0  0
 18 43  1  0  0  0  0
 18 44  1  0  0  0  0
 19 28  1  0  0  0  0
 19 20  1  0  0  0  0
 20 21  1  0  0  0  0
 20 22  2  0  0  0  0
 21 45  1  0  0  0  0
 21 46  1  0  0  0  0
 23 24  1  0  0  0  0
 24 25  2  0  0  0  0
 24 47  1  0  0  0  0
 25 26  1  0  0  0  0
M  END
> <s_m_source_file>
AV-unprocessed.smi

> <i_m_source_file_index>
196

> <i_lp_mmshare_version>
43012

> <i_f3d_flags>
0

> <s_epik_input>
W0NIMl0xW0NIMl1PW0NAQEhdKFtDSDNdKVtDQEBdMShbT0hdKVtDSDJdbihbY0hdbjIpYyhjMjMpbltjSF1uYzNONFtDSDJdW0NASF0oRilbQ0gyXVtDQEhdNEMoPU8pW05IMl0=

> <s_epik_cmdline>
J2VwaWtfcHl0aG9uJywgJy1waCcsICc3LjAnLCAnLXRuJywgJzgnLCAnLW1hJywgJzIwMCcsICctbWV0YWxfYmluZGluZycsICctaW1hZScsICc8aW5maWxlLm1hZT4nLCAnLW9tYWUnLCAnPG91dGZpbGUubWFlPic=

> <r_lp_tautomer_probability>
1

> <r_epik_Ionization_Penalty>
0.000857933

> <r_epik_Ionization_Penalty_Charging>
0

> <r_epik_Ionization_Penalty_Neutral>
0.000857933

> <r_epik_State_Penalty>
0.000462053

> <r_epik_Charging_Adjusted_Penalty>
0.000462053

> <i_epik_Tot_Q>
0

> <i_epik_Tot_abs_Q>
0

> <r_epik_Metal_State_Penalty>
-0

> <b_epik_Metal_Only>
0

> <s_lp_Force_Field>
OPLS_2005

> <r_lp_Energy>
47.3735

> <b_lp_Chiralities_Consistent>
1

> <s_lp_Variant>
AV-unprocessed.smi:196-7

> <Gold.Version>
5.8.1

> <Gold.Id.Protein>
6NUR|6NUR_protein|mol2

> <Gold.PLP.Fitness>
39.5939

> <Gold.PLP.PLP>
-28.7792

> <Gold.PLP.part.hbond>
-3.0000

> <Gold.PLP.part.metal>
0.0000

> <Gold.PLP.part.buried>
-4.7843

> <Gold.PLP.part.nonpolar>
-22.3440

> <Gold.PLP.part.repulsive>
0.7559

> <Gold.PLP.ligand.clash>
0.0000

> <Gold.PLP.ligand.torsion>
0.3692

> <Gold.PLP.Chemscore.Hbond>
1.9920

> <Gold.PLP.Chemscore.CHOScore>
1.8229

> <Gold.PLP.Chemscore.Metal>
0.0000

> <Gold.Chemscore.Hbonds>
donor molecule, donor type, donor heavy atom, donor atom, acceptor molecule, acceptor atom, score
      L1  H    21    46       P1  7948  0.90
      P1  H  7989  7998       L1    22  1.00
      L1  C    24    47       P1 10171  1.00
      L1  C    24    47       P1 10175  0.99

> <Gold.PLP.Chemscore.Internal.Correction>
0.1085

> <Gold.Rescore>
     Score         DG    S(hbond)    S(metal)    S(lipo)     H(rot)  DE(clash)    DE(int)     intcor
      9.22     -10.12       1.78        0.00      55.25       3.04       0.07       0.83       ----

> <Gold.Chemscore.Fitness>
9.2229

> <Gold.Chemscore.DG>
-10.1165

> <Gold.Chemscore.ZeroCoef>
-5.4800

> <Gold.Chemscore.Hbond>
1.7837

> <Gold.Chemscore.Metal>
0.0000

> <Gold.Chemscore.Lipo>
55.2518

> <Gold.Chemscore.Internal_Hbond>
0.0000

> <Gold.Chemscore.DEClash>
0.0676

> <Gold.Chemscore.DEInternal>
0.8259

> <Gold.Chemscore.Rot>
3.0413

> <Gold.Chemscore.Internal.Correction>
   9.000000E+99

> <Gold.Chemscore.Hbonds>
donor molecule, donor type, donor heavy atom, donor atom, acceptor molecule, acceptor atom, score
      L1  H    21    46       P1  7948  0.75
      P1  H  7989  7998       L1    22  0.78

> <Gold.Chemscore.Hbond.Weighted>
-5.9577

> <Gold.Chemscore.Metal.Weighted>
-0.0000

> <Gold.Chemscore.Lipo.Weighted>
-6.4645

> <Gold.Chemscore.Internal_Hbond.Weighted>
0.0000

> <Gold.Chemscore.DEClash.Weighted>
0.0676

> <Gold.Chemscore.DEInternal.Weighted>
0.8259

> <Gold.Chemscore.Rot.Weighted>
7.7856

> <Gold.Chemscore.Internal.Correction.Weighted>
   9.000000E+99

> <Gold.Protein.RotatedTorsions>
[ 6907 6896 6895 6894 ] final -177.31 input  -60.11 | X-H torsion
[ 7974 7965 7964 7962 ] final -173.71 input  175.53 | X-H torsion
[ 8008 7997 7996 7995 ] final -115.91 input   59.86 | X-H torsion
[ 10167 10162 10161 10158 ] final  164.35 input  -65.29 | X-H torsion
[ 10718 10713 10712 10709 ] final  172.92 input   66.30 | X-H torsion
[ 10763 10752 10751 10750 ] final   30.65 input  -60.55 | X-H torsion
[ 11005 11000 10999 10996 ] final   -2.95 input  -57.11 | X-H torsion

> <Gold.Protein.ActiveResidues>
 VAL166  LYS551  ARG553  GLY616  TRP617  ASP618  TYR619  PRO620  LYS621  CYS622 
 ASP623  PHE694  ASN695  SER759  ASP760  ASP761  ALA762  ILE779  LEU786  VAL792 
 PHE793  MET794  SER795  GLU796  ALA797  LYS798  CYS799  TRP800  GLU811  SER814 

> <Gold.Protein.RotatedAtoms>
  151.6190  133.3340  159.3083 H   0  0  0  0  0  0  0  0  0  0  0  0  # atno 6907 bound_to 6896
  150.8116  134.7278  159.6704 H   0  0  0  0  0  0  0  0  0  0  0  0  # atno 6908 bound_to 6896
  152.4213  134.5956  160.0037 H   0  0  0  0  0  0  0  0  0  0  0  0  # atno 6909 bound_to 6896
  144.7136  140.1581  143.6378 H   0  0  0  0  0  0  0  0  0  0  0  0  # atno 7974 bound_to 7965
  155.0595  140.0393  157.2571 H   0  0  0  0  0  0  0  0  0  0  0  0  # atno 8008 bound_to 7997
  154.7071  140.2685  155.6639 H   0  0  0  0  0  0  0  0  0  0  0  0  # atno 8009 bound_to 7997
  156.2778  140.2729  156.1701 H   0  0  0  0  0  0  0  0  0  0  0  0  # atno 8010 bound_to 7997
  139.4887  144.4244  151.9147 H   0  0  0  0  0  0  0  0  0  0  0  0  # atno 10167 bound_to 10162
  156.9718  131.0092  151.2903 H   0  0  0  0  0  0  0  0  0  0  0  0  # atno 10718 bound_to 10713
  153.0360  135.6459  154.1077 H   0  0  0  0  0  0  0  0  0  0  0  0  # atno 10763 bound_to 10752
  154.0792  135.2874  155.3295 H   0  0  0  0  0  0  0  0  0  0  0  0  # atno 10764 bound_to 10752
  154.6542  135.5415  153.8002 H   0  0  0  0  0  0  0  0  0  0  0  0  # atno 10765 bound_to 10752
  140.6640  133.9295  155.8453 H   0  0  0  0  0  0  0  0  0  0  0  0  # atno 11005 bound_to 11000
  145.9056  139.2456  143.1468 LP  0  0  0  0  0  0  0  0  0  0  0  0  # atno 17320 bound_to 7965
  145.9768  140.8716  143.0135 LP  0  0  0  0  0  0  0  0  0  0  0  0  # atno 17321 bound_to 7965
  140.3689  144.2880  150.5922 LP  0  0  0  0  0  0  0  0  0  0  0  0  # atno 17342 bound_to 10162
  140.5336  143.2238  151.8198 LP  0  0  0  0  0  0  0  0  0  0  0  0  # atno 17343 bound_to 10162
  157.5587  130.8231  149.8238 LP  0  0  0  0  0  0  0  0  0  0  0  0  # atno 17370 bound_to 10713
  156.0280  130.3773  150.1769 LP  0  0  0  0  0  0  0  0  0  0  0  0  # atno 17371 bound_to 10713
  141.0443  134.0576  157.3863 LP  0  0  0  0  0  0  0  0  0  0  0  0  # atno 17394 bound_to 11000
  139.9003  135.0162  156.7237 LP  0  0  0  0  0  0  0  0  0  0  0  0  # atno 17395 bound_to 11000

$$$$
