AV-unprocessed.smi:1484|AV-procd|sdf|5999|dock2
  -GOLD-   22720 6 93D 1   1.00000     0.00000
 Structure written by MMmdl.
 38 39  0  0  0  0  0  0  0  0  1 V2000
  152.7704  142.7624  162.0362 C   0  0  0  0  0  0  0  0  0  0  0  0
  152.7335  143.3096  160.6022 C   0  0  2  0  0  0  0  0  0  0  0  0
  152.1613  144.7394  160.5592 C   0  0  0  0  0  0  0  0  0  0  0  0
  152.1237  145.2872  159.1241 C   0  0  0  0  0  0  0  0  0  0  0  0
  151.3324  144.3571  158.1918 C   0  0  0  0  0  0  0  0  0  0  0  0
  151.8950  142.9218  158.2228 C   0  0  2  0  0  0  0  0  0  0  0  0
  151.0885  142.0339  157.3909 N   0  0  0  0  0  0  0  0  0  0  0  0
  151.4405  140.7974  157.0071 C   0  0  0  0  0  0  0  0  0  0  0  0
  152.5147  140.2764  157.3113 O   0  0  0  0  0  0  0  0  0  0  0  0
  150.4247  140.0533  156.1277 C   0  0  0  0  0  0  0  0  0  0  0  0
  149.1783  140.8024  155.9121 N   0  0  0  0  0  0  0  0  0  0  0  0
  148.4204  140.9843  157.0589 N   0  0  0  0  0  0  0  0  0  0  0  0
  147.3106  141.6394  157.0014 C   0  0  0  0  0  0  0  0  0  0  0  0
  146.5928  141.7989  158.1613 O   0  0  0  0  0  0  0  0  0  0  0  0
  146.8311  142.1911  155.7532 C   0  0  0  0  0  0  0  0  0  0  0  0
  147.5735  142.0040  154.6402 C   0  0  0  0  0  0  0  0  0  0  0  0
  148.8373  141.2657  154.6703 C   0  0  0  0  0  0  0  0  0  0  0  0
  149.5320  141.0783  153.6716 O   0  0  0  0  0  0  0  0  0  0  0  0
  151.9355  142.3818  159.6651 C   0  0  0  0  0  0  0  0  0  0  0  0
  147.0323  141.2652  158.8051 H   0  0  0  0  0  0  0  0  0  0  0  0
  151.7684  142.6953  162.4614 H   0  0  0  0  0  0  0  0  0  0  0  0
  153.3658  143.4043  162.6860 H   0  0  0  0  0  0  0  0  0  0  0  0
  153.2117  141.7658  162.0647 H   0  0  0  0  0  0  0  0  0  0  0  0
  153.7619  143.3482  160.2400 H   0  0  0  0  0  0  0  0  0  0  0  0
  151.1536  144.7472  160.9774 H   0  0  0  0  0  0  0  0  0  0  0  0
  152.7604  145.4008  161.1861 H   0  0  0  0  0  0  0  0  0  0  0  0
  151.6806  146.2835  159.1178 H   0  0  0  0  0  0  0  0  0  0  0  0
  153.1417  145.3997  158.7490 H   0  0  0  0  0  0  0  0  0  0  0  0
  150.2837  144.3505  158.4923 H   0  0  0  0  0  0  0  0  0  0  0  0
  151.3599  144.7520  157.1754 H   0  0  0  0  0  0  0  0  0  0  0  0
  152.9171  142.9348  157.8389 H   0  0  0  0  0  0  0  0  0  0  0  0
  150.1909  142.3846  157.0894 H   0  0  0  0  0  0  0  0  0  0  0  0
  150.8828  139.8106  155.1668 H   0  0  0  0  0  0  0  0  0  0  0  0
  150.2103  139.0927  156.5998 H   0  0  0  0  0  0  0  0  0  0  0  0
  145.9001  142.7381  155.7205 H   0  0  0  0  0  0  0  0  0  0  0  0
  147.2275  142.4107  153.7014 H   0  0  0  0  0  0  0  0  0  0  0  0
  152.3779  141.3846  159.6709 H   0  0  0  0  0  0  0  0  0  0  0  0
  150.9183  142.2695  160.0443 H   0  0  0  0  0  0  0  0  0  0  0  0
  1  2  1  0  0  0  0
  1 21  1  0  0  0  0
  1 22  1  0  0  0  0
  1 23  1  0  0  0  0
  2 19  1  0  0  0  0
  2  3  1  0  0  0  0
  2 24  1  0  0  0  0
  3  4  1  0  0  0  0
  3 25  1  0  0  0  0
  3 26  1  0  0  0  0
  4  5  1  0  0  0  0
  4 27  1  0  0  0  0
  4 28  1  0  0  0  0
  5  6  1  0  0  0  0
  5 29  1  0  0  0  0
  5 30  1  0  0  0  0
  6  7  1  0  0  0  0
  6 19  1  0  0  0  0
  6 31  1  0  0  0  0
  7  8  1  0  0  0  0
  7 32  1  0  0  0  0
  8  9  2  0  0  0  0
  8 10  1  0  0  0  0
 10 33  1  0  0  0  0
 10 34  1  0  0  0  0
 10 11  1  0  0  0  0
 11 12  1  0  0  0  0
 11 17  1  0  0  0  0
 12 13  2  0  0  0  0
 13 14  1  0  0  0  0
 13 15  1  0  0  0  0
 14 20  1  0  0  0  0
 15 35  1  0  0  0  0
 15 16  2  0  0  0  0
 16 36  1  0  0  0  0
 16 17  1  0  0  0  0
 17 18  2  0  0  0  0
 19 37  1  0  0  0  0
 19 38  1  0  0  0  0
M  END
> <s_m_source_file>
AV-unprocessed.smi

> <i_m_source_file_index>
1484

> <i_lp_mmshare_version>
43012

> <i_f3d_flags>
0

> <s_epik_input>
W0NIM11bQ0BASF0xW0NIMl1bQ0gyXVtDSDJdW0NASF0oW0NIMl0xKVtOSF1DKD1PKVtDSDJdbjJbbkhdYyg9TylbY0hdW2NIXWMyPU8=

> <s_epik_cmdline>
J2VwaWtfcHl0aG9uJywgJy1waCcsICc3LjAnLCAnLXRuJywgJzgnLCAnLW1hJywgJzIwMCcsICctbWV0YWxfYmluZGluZycsICctaW1hZScsICc8aW5maWxlLm1hZT4nLCAnLW9tYWUnLCAnPG91dGZpbGUubWFlPic=

> <r_lp_tautomer_probability>
0.9996

> <r_epik_Ionization_Penalty>
2.10343

> <r_epik_Ionization_Penalty_Charging>
3.97871e-08

> <r_epik_Ionization_Penalty_Neutral>
2.10343

> <r_epik_State_Penalty>
1.67966

> <r_epik_Charging_Adjusted_Penalty>
1.67966

> <i_epik_Tot_Q>
0

> <i_epik_Tot_abs_Q>
0

> <r_epik_Metal_State_Penalty>
1.67966

> <b_epik_Metal_Only>
0

> <s_lp_Force_Field>
OPLS_2005

> <r_lp_Energy>
18.4171

> <b_lp_Chiralities_Consistent>
1

> <s_lp_Variant>
AV-unprocessed.smi:1484-7

> <Gold.Version>
5.8.1

> <Gold.Id.Protein>
6NUR|6NUR_protein|mol2

> <Gold.PLP.Fitness>
45.9333

> <Gold.PLP.PLP>
-39.6877

> <Gold.PLP.part.hbond>
-3.0000

> <Gold.PLP.part.metal>
0.0000

> <Gold.PLP.part.buried>
-4.2071

> <Gold.PLP.part.nonpolar>
-33.6028

> <Gold.PLP.part.repulsive>
2.7113

> <Gold.PLP.ligand.clash>
0.0000

> <Gold.PLP.ligand.torsion>
0.1728

> <Gold.PLP.Chemscore.Hbond>
2.1952

> <Gold.PLP.Chemscore.CHOScore>
0.0000

> <Gold.PLP.Chemscore.Metal>
0.0000

> <Gold.Chemscore.Hbonds>
donor molecule, donor type, donor heavy atom, donor atom, acceptor molecule, acceptor atom, score
      P1  H  7989  7998       L1    18  0.25
      P1  H  7997  8009       L1     9  0.99
      P1  H  8011  8017       L1    18  0.98

> <Gold.PLP.Chemscore.Internal.Correction>
0.0056

> <Gold.Rescore>
     Score         DG    S(hbond)    S(metal)    S(lipo)     H(rot)  DE(clash)    DE(int)     intcor
     15.25     -18.20       2.09        0.00      98.16       2.24       1.57       1.39       ----

> <Gold.Chemscore.Fitness>
15.2453

> <Gold.Chemscore.DG>
-18.2028

> <Gold.Chemscore.ZeroCoef>
-5.4800

> <Gold.Chemscore.Hbond>
2.0891

> <Gold.Chemscore.Metal>
0.0000

> <Gold.Chemscore.Lipo>
98.1613

> <Gold.Chemscore.Internal_Hbond>
0.0000

> <Gold.Chemscore.DEClash>
1.5690

> <Gold.Chemscore.DEInternal>
1.3885

> <Gold.Chemscore.Rot>
2.2421

> <Gold.Chemscore.Internal.Correction>
   9.000000E+99

> <Gold.Chemscore.Hbonds>
donor molecule, donor type, donor heavy atom, donor atom, acceptor molecule, acceptor atom, score
      P1  H  7989  7998       L1    18  0.26
      P1  H  7997  8009       L1     9  0.92
      P1  H  8011  8017       L1    18  0.92

> <Gold.Chemscore.Hbond.Weighted>
-6.9777

> <Gold.Chemscore.Metal.Weighted>
-0.0000

> <Gold.Chemscore.Lipo.Weighted>
-11.4849

> <Gold.Chemscore.Internal_Hbond.Weighted>
0.0000

> <Gold.Chemscore.DEClash.Weighted>
1.5690

> <Gold.Chemscore.DEInternal.Weighted>
1.3885

> <Gold.Chemscore.Rot.Weighted>
5.7398

> <Gold.Chemscore.Internal.Correction.Weighted>
   9.000000E+99

> <Gold.Protein.RotatedTorsions>
[ 6907 6896 6895 6894 ] final  143.64 input  -60.11 | X-H torsion
[ 7974 7965 7964 7962 ] final  -87.77 input  175.53 | X-H torsion
[ 8008 7997 7996 7995 ] final -179.19 input   59.86 | X-H torsion
[ 10167 10162 10161 10158 ] final  158.98 input  -65.29 | X-H torsion
[ 10718 10713 10712 10709 ] final  -24.72 input   66.30 | X-H torsion
[ 10763 10752 10751 10750 ] final  132.75 input  -60.55 | X-H torsion
[ 11005 11000 10999 10996 ] final -175.96 input  -57.11 | X-H torsion

> <Gold.Protein.ActiveResidues>
 VAL166  LYS551  ARG553  GLY616  TRP617  ASP618  TYR619  PRO620  LYS621  CYS622 
 ASP623  PHE694  ASN695  SER759  ASP760  ASP761  ALA762  ILE779  LEU786  VAL792 
 PHE793  MET794  SER795  GLU796  ALA797  LYS798  CYS799  TRP800  GLU811  SER814 

> <Gold.Protein.RotatedAtoms>
  152.2038  133.4860  159.5072 H   0  0  0  0  0  0  0  0  0  0  0  0  # atno 6907 bound_to 6896
  150.6975  134.1556  159.4166 H   0  0  0  0  0  0  0  0  0  0  0  0  # atno 6908 bound_to 6896
  151.9474  135.0185  160.0590 H   0  0  0  0  0  0  0  0  0  0  0  0  # atno 6909 bound_to 6896
  145.4621  140.9561  143.1964 H   0  0  0  0  0  0  0  0  0  0  0  0  # atno 7974 bound_to 7965
  156.0277  140.1275  157.0291 H   0  0  0  0  0  0  0  0  0  0  0  0  # atno 8008 bound_to 7997
  154.4337  140.1056  156.6124 H   0  0  0  0  0  0  0  0  0  0  0  0  # atno 8009 bound_to 7997
  155.5853  140.3468  155.4553 H   0  0  0  0  0  0  0  0  0  0  0  0  # atno 8010 bound_to 7997
  139.4829  144.4773  151.8493 H   0  0  0  0  0  0  0  0  0  0  0  0  # atno 10167 bound_to 10162
  156.4739  130.4530  149.6852 H   0  0  0  0  0  0  0  0  0  0  0  0  # atno 10718 bound_to 10713
  153.7958  135.3148  155.3384 H   0  0  0  0  0  0  0  0  0  0  0  0  # atno 10763 bound_to 10752
  154.8108  135.4668  154.0514 H   0  0  0  0  0  0  0  0  0  0  0  0  # atno 10764 bound_to 10752
  153.1847  135.6899  153.8519 H   0  0  0  0  0  0  0  0  0  0  0  0  # atno 10765 bound_to 10752
  140.4574  134.6286  157.4828 H   0  0  0  0  0  0  0  0  0  0  0  0  # atno 11005 bound_to 11000
  144.7996  139.6166  143.7077 LP  0  0  0  0  0  0  0  0  0  0  0  0  # atno 17320 bound_to 7965
  146.2445  139.6069  142.9469 LP  0  0  0  0  0  0  0  0  0  0  0  0  # atno 17321 bound_to 7965
  140.4246  144.2197  150.5887 LP  0  0  0  0  0  0  0  0  0  0  0  0  # atno 17342 bound_to 10162
  140.4840  143.2369  151.8915 LP  0  0  0  0  0  0  0  0  0  0  0  0  # atno 17343 bound_to 10162
  156.3590  130.7471  151.2441 LP  0  0  0  0  0  0  0  0  0  0  0  0  # atno 17370 bound_to 10713
  157.7489  131.0355  150.4368 LP  0  0  0  0  0  0  0  0  0  0  0  0  # atno 17371 bound_to 10713
  139.9967  134.6900  155.9598 LP  0  0  0  0  0  0  0  0  0  0  0  0  # atno 17394 bound_to 11000
  141.1636  133.6537  156.4404 LP  0  0  0  0  0  0  0  0  0  0  0  0  # atno 17395 bound_to 11000

$$$$
