AV-unprocessed.smi:209|AV-procd|sdf|1609|dock8
  -GOLD-   2262019533D 1   1.00000     0.00000
 Structure written by MMmdl.
 48 52  0  0  0  0  0  0  0  0  1 V2000
  151.8657  146.1302  159.9073 O   0  0  0  0  0  0  0  0  0  0  0  0
  151.8757  145.1372  159.1831 C   0  0  0  0  0  0  0  0  0  0  0  0
  151.3089  145.0200  157.9763 N   0  0  0  0  0  0  0  0  0  0  0  0
  151.4323  143.6725  157.4290 C   0  0  0  0  0  0  0  0  0  0  0  0
  151.7612  142.8533  158.6864 C   0  0  2  0  0  0  0  0  0  0  0  0
  152.5750  143.8326  159.5185 C   0  0  2  0  0  0  0  0  0  0  0  0
  152.6561  143.3264  160.9598 C   0  0  0  0  0  0  0  0  0  0  0  0
  153.3509  141.9445  160.9021 C   0  0  0  0  0  0  0  0  0  0  0  0
  152.6973  140.9804  159.8738 C   0  0  0  0  0  0  0  0  0  0  0  0
  152.5031  141.6043  158.5564 N   0  0  0  0  0  0  0  0  0  0  0  0
  151.9961  140.7580  157.6338 C   0  0  0  0  0  0  0  0  0  0  0  0
  152.7967  139.8371  157.0350 N   0  0  0  0  0  0  0  0  0  0  0  0
  152.2830  138.9965  156.1319 C   0  0  0  0  0  0  0  0  0  0  0  0
  151.0236  138.9048  155.6981 N   0  0  0  0  0  0  0  0  0  0  0  0
  150.2186  139.8235  156.3061 C   0  0  0  0  0  0  0  0  0  0  0  0
  150.6247  140.7845  157.2728 C   0  0  0  0  0  0  0  0  0  0  0  0
  149.5422  141.5621  157.6601 N   0  0  0  0  0  0  0  0  0  0  0  0
  148.5500  141.0915  156.9550 C   0  0  0  0  0  0  0  0  0  0  0  0
  148.8607  140.0314  156.1311 N   0  0  0  0  0  0  0  0  0  0  0  0
  147.9532  139.3191  155.2426 C   0  0  0  0  0  0  0  0  0  0  0  0
  147.2654  140.2065  154.1835 C   0  0  0  0  0  0  0  0  0  0  0  0
  146.8074  139.3107  153.0151 C   0  0  0  0  0  0  0  0  0  0  0  0
  147.8884  138.7063  152.3332 O   0  0  0  0  0  0  0  0  0  0  0  0
  146.2259  141.1771  154.7648 C   0  0  0  0  0  0  0  0  0  0  0  0
  147.0452  142.3327  154.4828 O   0  0  0  0  0  0  0  0  0  0  0  0
  148.0044  141.4970  153.7987 C   0  0  0  0  0  0  0  0  0  0  0  0
  150.8231  142.6398  159.2047 H   0  0  0  0  0  0  0  0  0  0  0  0
  153.5859  143.9183  159.1139 H   0  0  0  0  0  0  0  0  0  0  0  0
  150.7837  145.7518  157.5195 H   0  0  0  0  0  0  0  0  0  0  0  0
  150.5135  143.3410  156.9442 H   0  0  0  0  0  0  0  0  0  0  0  0
  152.2461  143.6475  156.7026 H   0  0  0  0  0  0  0  0  0  0  0  0
  153.2254  144.0158  161.5839 H   0  0  0  0  0  0  0  0  0  0  0  0
  151.6607  143.2386  161.3972 H   0  0  0  0  0  0  0  0  0  0  0  0
  154.3975  142.0873  160.6300 H   0  0  0  0  0  0  0  0  0  0  0  0
  153.3548  141.4862  161.8912 H   0  0  0  0  0  0  0  0  0  0  0  0
  153.3134  140.0867  159.7654 H   0  0  0  0  0  0  0  0  0  0  0  0
  151.7328  140.6501  160.2626 H   0  0  0  0  0  0  0  0  0  0  0  0
  152.9799  138.2962  155.6957 H   0  0  0  0  0  0  0  0  0  0  0  0
  147.5537  141.5034  157.0241 H   0  0  0  0  0  0  0  0  0  0  0  0
  148.5128  138.5149  154.7635 H   0  0  0  0  0  0  0  0  0  0  0  0
  147.2061  138.8224  155.8631 H   0  0  0  0  0  0  0  0  0  0  0  0
  146.1677  138.5034  153.3692 H   0  0  0  0  0  0  0  0  0  0  0  0
  146.2285  139.8822  152.2890 H   0  0  0  0  0  0  0  0  0  0  0  0
  148.3583  139.3756  151.8594 H   0  0  0  0  0  0  0  0  0  0  0  0
  145.2774  141.2100  154.2282 H   0  0  0  0  0  0  0  0  0  0  0  0
  146.0509  141.0502  155.8339 H   0  0  0  0  0  0  0  0  0  0  0  0
  149.0023  141.5918  154.2233 H   0  0  0  0  0  0  0  0  0  0  0  0
  148.0269  141.6992  152.7271 H   0  0  0  0  0  0  0  0  0  0  0  0
  1  2  2  0  0  0  0
  2  6  1  0  0  0  0
  2  3  1  0  0  0  0
  3  4  1  0  0  0  0
  3 29  1  0  0  0  0
  4  5  1  0  0  0  0
  4 30  1  0  0  0  0
  4 31  1  0  0  0  0
  5 27  1  0  0  0  0
  5 10  1  0  0  0  0
  5  6  1  0  0  0  0
  6 28  1  0  0  0  0
  6  7  1  0  0  0  0
  7  8  1  0  0  0  0
  7 32  1  0  0  0  0
  7 33  1  0  0  0  0
  8  9  1  0  0  0  0
  8 34  1  0  0  0  0
  8 35  1  0  0  0  0
  9 10  1  0  0  0  0
  9 36  1  0  0  0  0
  9 37  1  0  0  0  0
 10 11  1  0  0  0  0
 11 16  1  0  0  0  0
 11 12  2  0  0  0  0
 12 13  1  0  0  0  0
 13 14  2  0  0  0  0
 13 38  1  0  0  0  0
 14 15  1  0  0  0  0
 15 19  1  0  0  0  0
 15 16  2  0  0  0  0
 16 17  1  0  0  0  0
 17 18  2  0  0  0  0
 18 19  1  0  0  0  0
 18 39  1  0  0  0  0
 19 20  1  0  0  0  0
 20 21  1  0  0  0  0
 20 40  1  0  0  0  0
 20 41  1  0  0  0  0
 21 26  1  0  0  0  0
 21 22  1  0  0  0  0
 21 24  1  0  0  0  0
 22 23  1  0  0  0  0
 22 42  1  0  0  0  0
 22 43  1  0  0  0  0
 23 44  1  0  0  0  0
 24 25  1  0  0  0  0
 24 45  1  0  0  0  0
 24 46  1  0  0  0  0
 25 26  1  0  0  0  0
 26 47  1  0  0  0  0
 26 48  1  0  0  0  0
M  END
> <s_m_source_file>
AV-unprocessed.smi

> <i_m_source_file_index>
209

> <i_lp_mmshare_version>
43012

> <i_f3d_flags>
0

> <s_epik_input>
W0NIMl0xW05IXUMoPU8pW0NAQEhdKFtDQEBIXTEyKVtDSDJdW0NIMl1bQ0gyXU4yYyhuW2NIXW4zKWMoYzM0KW5bY0hdbjRbQ0gyXUM1KFtDSDJdW09IXSlbQ0gyXU9bQ0gyXTU=

> <s_epik_cmdline>
J2VwaWtfcHl0aG9uJywgJy1waCcsICc3LjAnLCAnLXRuJywgJzgnLCAnLW1hJywgJzIwMCcsICctbWV0YWxfYmluZGluZycsICctaW1hZScsICc8aW5maWxlLm1hZT4nLCAnLW9tYWUnLCAnPG91dGZpbGUubWFlPic=

> <r_lp_tautomer_probability>
1

> <r_epik_Ionization_Penalty>
0.00113306

> <r_epik_Ionization_Penalty_Charging>
0

> <r_epik_Ionization_Penalty_Neutral>
0.00113306

> <r_epik_State_Penalty>
0.000624042

> <r_epik_Charging_Adjusted_Penalty>
0.000624042

> <i_epik_Tot_Q>
0

> <i_epik_Tot_abs_Q>
0

> <r_epik_Metal_State_Penalty>
-0

> <b_epik_Metal_Only>
0

> <s_lp_Force_Field>
OPLS_2005

> <r_lp_Energy>
56.7924

> <b_lp_Chiralities_Consistent>
1

> <s_lp_Variant>
AV-unprocessed.smi:209-3

> <Gold.Version>
5.8.1

> <Gold.Id.Protein>
6NUR|6NUR_protein|mol2

> <Gold.PLP.Fitness>
50.0115

> <Gold.PLP.PLP>
-45.7557

> <Gold.PLP.part.hbond>
-4.0714

> <Gold.PLP.part.metal>
0.0000

> <Gold.PLP.part.buried>
-5.5777

> <Gold.PLP.part.nonpolar>
-36.1453

> <Gold.PLP.part.repulsive>
0.5859

> <Gold.PLP.ligand.clash>
0.0000

> <Gold.PLP.ligand.torsion>
1.0536

> <Gold.PLP.Chemscore.Hbond>
2.0000

> <Gold.PLP.Chemscore.CHOScore>
0.0000

> <Gold.PLP.Chemscore.Metal>
0.0000

> <Gold.Chemscore.Hbonds>
donor molecule, donor type, donor heavy atom, donor atom, acceptor molecule, acceptor atom, score
      L1  H    23    44       P1  7957  1.00
      P1  H  7997  8009       L1    12  1.00

> <Gold.PLP.Chemscore.Internal.Correction>
0.3630

> <Gold.Rescore>
     Score         DG    S(hbond)    S(metal)    S(lipo)     H(rot)  DE(clash)    DE(int)     intcor
     10.98     -16.25       1.88        0.00      96.66       2.66       0.21       5.06       ----

> <Gold.Chemscore.Fitness>
10.9826

> <Gold.Chemscore.DG>
-16.2544

> <Gold.Chemscore.ZeroCoef>
-5.4800

> <Gold.Chemscore.Hbond>
1.8802

> <Gold.Chemscore.Metal>
0.0000

> <Gold.Chemscore.Lipo>
96.6601

> <Gold.Chemscore.Internal_Hbond>
0.0000

> <Gold.Chemscore.DEClash>
0.2092

> <Gold.Chemscore.DEInternal>
5.0627

> <Gold.Chemscore.Rot>
2.6620

> <Gold.Chemscore.Internal.Correction>
   9.000000E+99

> <Gold.Chemscore.Hbonds>
donor molecule, donor type, donor heavy atom, donor atom, acceptor molecule, acceptor atom, score
      L1  H    23    44       P1  7957  0.94
      P1  H  7997  8009       L1    12  0.69

> <Gold.Chemscore.Hbond.Weighted>
-6.2800

> <Gold.Chemscore.Metal.Weighted>
-0.0000

> <Gold.Chemscore.Lipo.Weighted>
-11.3092

> <Gold.Chemscore.Internal_Hbond.Weighted>
0.0000

> <Gold.Chemscore.DEClash.Weighted>
0.2092

> <Gold.Chemscore.DEInternal.Weighted>
5.0627

> <Gold.Chemscore.Rot.Weighted>
6.8148

> <Gold.Chemscore.Internal.Correction.Weighted>
   9.000000E+99

> <Gold.Protein.RotatedTorsions>
[ 6907 6896 6895 6894 ] final  112.95 input  -60.11 | X-H torsion
[ 7974 7965 7964 7962 ] final  131.10 input  175.53 | X-H torsion
[ 8008 7997 7996 7995 ] final  176.79 input   59.86 | X-H torsion
[ 10167 10162 10161 10158 ] final -109.19 input  -65.29 | X-H torsion
[ 10718 10713 10712 10709 ] final  120.50 input   66.30 | X-H torsion
[ 10763 10752 10751 10750 ] final  -63.88 input  -60.55 | X-H torsion
[ 11005 11000 10999 10996 ] final -168.74 input  -57.11 | X-H torsion

> <Gold.Protein.ActiveResidues>
 VAL166  LYS551  ARG553  GLY616  TRP617  ASP618  TYR619  PRO620  LYS621  CYS622 
 ASP623  PHE694  ASN695  SER759  ASP760  ASP761  ALA762  ILE779  LEU786  VAL792 
 PHE793  MET794  SER795  GLU796  ALA797  LYS798  CYS799  TRP800  GLU811  SER814 

> <Gold.Protein.RotatedAtoms>
  152.4888  133.8444  159.7168 H   0  0  0  0  0  0  0  0  0  0  0  0  # atno 6907 bound_to 6896
  150.8998  133.7123  159.2888 H   0  0  0  0  0  0  0  0  0  0  0  0  # atno 6908 bound_to 6896
  151.4568  135.1039  159.9766 H   0  0  0  0  0  0  0  0  0  0  0  0  # atno 6909 bound_to 6896
  145.0108  139.4222  143.5246 H   0  0  0  0  0  0  0  0  0  0  0  0  # atno 7974 bound_to 7965
  156.0726  140.1374  156.9810 H   0  0  0  0  0  0  0  0  0  0  0  0  # atno 8008 bound_to 7997
  154.4540  140.0968  156.6754 H   0  0  0  0  0  0  0  0  0  0  0  0  # atno 8009 bound_to 7997
  155.5203  140.3456  155.4408 H   0  0  0  0  0  0  0  0  0  0  0  0  # atno 8010 bound_to 7997
  140.1580  143.4144  152.1446 H   0  0  0  0  0  0  0  0  0  0  0  0  # atno 10167 bound_to 10162
  157.5886  131.1067  150.8044 H   0  0  0  0  0  0  0  0  0  0  0  0  # atno 10718 bound_to 10713
  154.3217  135.6195  153.5511 H   0  0  0  0  0  0  0  0  0  0  0  0  # atno 10763 bound_to 10752
  152.9819  135.5725  154.5062 H   0  0  0  0  0  0  0  0  0  0  0  0  # atno 10764 bound_to 10752
  154.4732  135.2860  155.1604 H   0  0  0  0  0  0  0  0  0  0  0  0  # atno 10765 bound_to 10752
  140.5385  134.5545  157.5093 H   0  0  0  0  0  0  0  0  0  0  0  0  # atno 11005 bound_to 11000
  146.3469  139.9551  142.8724 LP  0  0  0  0  0  0  0  0  0  0  0  0  # atno 17320 bound_to 7965
  145.2025  140.9861  143.4147 LP  0  0  0  0  0  0  0  0  0  0  0  0  # atno 17321 bound_to 7965
  139.5394  144.7242  151.4783 LP  0  0  0  0  0  0  0  0  0  0  0  0  # atno 17342 bound_to 10162
  140.6661  143.8395  150.6943 LP  0  0  0  0  0  0  0  0  0  0  0  0  # atno 17343 bound_to 10162
  156.8472  130.5068  149.5315 LP  0  0  0  0  0  0  0  0  0  0  0  0  # atno 17370 bound_to 10713
  156.0938  130.5916  150.9778 LP  0  0  0  0  0  0  0  0  0  0  0  0  # atno 17371 bound_to 10713
  139.9516  134.7607  156.0435 LP  0  0  0  0  0  0  0  0  0  0  0  0  # atno 17394 bound_to 11000
  141.1240  133.6604  156.3289 LP  0  0  0  0  0  0  0  0  0  0  0  0  # atno 17395 bound_to 11000

$$$$
