AV-unprocessed.smi:148|AV-procd|sdf|1212|dock2
  -GOLD-   2262018393D 1   1.00000     0.00000
 Structure written by MMmdl.
 63 67  0  0  0  0  0  0  0  0  1 V2000
  149.1009  142.6814  154.5207 O   0  0  0  0  0  0  0  0  0  0  0  0
  149.9977  141.6631  154.9148 C   0  0  0  0  0  0  0  0  0  0  0  0
  149.4805  140.2613  154.4991 C   0  0  2  0  0  0  0  0  0  0  0  0
  148.1024  139.9548  155.1451 C   0  0  0  0  0  0  0  0  0  0  0  0
  147.4248  138.8254  154.5324 N   0  0  0  0  0  0  0  0  0  0  0  0
  147.2180  138.6280  153.1862 C   0  0  0  0  0  0  0  0  0  0  0  0
  146.5698  137.5384  152.8768 N   0  0  0  0  0  0  0  0  0  0  0  0
  146.3176  136.9361  154.1037 C   0  0  0  0  0  0  0  0  0  0  0  0
  145.6597  135.7404  154.5091 C   0  0  0  0  0  0  0  0  0  0  0  0
  145.0690  134.8644  153.6674 N   0  0  0  0  0  0  0  0  0  0  0  0
  143.8225  135.4569  153.1761 C   0  0  0  0  0  0  0  0  0  0  0  0
  142.9673  134.4336  152.4244 C   0  0  0  0  0  0  0  0  0  0  0  0
  143.7822  133.8162  151.2885 C   0  0  0  0  0  0  0  0  0  0  0  0
  145.0676  133.1986  151.8516 C   0  0  0  0  0  0  0  0  0  0  0  0
  145.9270  134.2167  152.6517 C   0  0  2  0  0  0  0  0  0  0  0  0
  147.1887  133.5011  153.2496 C   0  0  2  0  0  0  0  0  0  0  0  0
  148.3783  134.3944  153.6651 C   0  0  0  0  0  0  0  0  0  0  0  0
  149.6365  133.5146  153.6325 C   0  0  0  0  0  0  0  0  0  0  0  0
  149.2104  132.1820  153.0110 C   0  0  0  0  0  0  0  0  0  0  0  0
  147.8706  132.4651  152.3305 C   0  0  2  0  0  0  0  0  0  0  0  0
  148.1237  133.0022  151.0438 O   0  0  0  0  0  0  0  0  0  0  0  0
  145.5874  135.4697  155.8357 N   0  0  0  0  0  0  0  0  0  0  0  0
  146.1438  136.3059  156.7174 C   0  0  0  0  0  0  0  0  0  0  0  0
  146.7959  137.4482  156.4891 N   0  0  0  0  0  0  0  0  0  0  0  0
  146.8559  137.7286  155.1556 C   0  0  0  0  0  0  0  0  0  0  0  0
  150.5069  139.1180  154.7674 C   0  0  2  0  0  0  0  0  0  0  0  0
  150.9847  138.9901  156.2103 C   0  0  0  0  0  0  0  0  0  0  0  0
  152.0952  140.0335  156.3109 C   0  0  0  0  0  0  0  0  0  0  0  0
  152.5908  140.1973  154.9863 O   0  0  0  0  0  0  0  0  0  0  0  0
  151.8705  139.3490  154.1000 C   0  0  0  0  0  0  0  0  0  0  0  0
  149.1952  143.4117  155.1130 H   0  0  0  0  0  0  0  0  0  0  0  0
  150.9721  141.8709  154.4740 H   0  0  0  0  0  0  0  0  0  0  0  0
  150.1583  141.7275  155.9896 H   0  0  0  0  0  0  0  0  0  0  0  0
  149.3207  140.3055  153.4208 H   0  0  0  0  0  0  0  0  0  0  0  0
  148.1991  139.7275  156.2047 H   0  0  0  0  0  0  0  0  0  0  0  0
  147.4528  140.8286  155.0826 H   0  0  0  0  0  0  0  0  0  0  0  0
  147.5601  139.3269  152.4368 H   0  0  0  0  0  0  0  0  0  0  0  0
  143.2460  135.8620  154.0097 H   0  0  0  0  0  0  0  0  0  0  0  0
  144.0513  136.2931  152.5139 H   0  0  0  0  0  0  0  0  0  0  0  0
  142.6318  133.6542  153.1100 H   0  0  0  0  0  0  0  0  0  0  0  0
  142.0712  134.9123  152.0289 H   0  0  0  0  0  0  0  0  0  0  0  0
  143.1938  133.0579  150.7713 H   0  0  0  0  0  0  0  0  0  0  0  0
  144.0303  134.5802  150.5507 H   0  0  0  0  0  0  0  0  0  0  0  0
  144.8075  132.3566  152.4947 H   0  0  0  0  0  0  0  0  0  0  0  0
  145.6276  132.7835  151.0151 H   0  0  0  0  0  0  0  0  0  0  0  0
  146.2618  134.9864  151.9556 H   0  0  0  0  0  0  0  0  0  0  0  0
  146.8656  132.9587  154.1401 H   0  0  0  0  0  0  0  0  0  0  0  0
  148.4973  135.2142  152.9559 H   0  0  0  0  0  0  0  0  0  0  0  0
  148.2487  134.8306  154.6546 H   0  0  0  0  0  0  0  0  0  0  0  0
  150.4105  133.9918  153.0305 H   0  0  0  0  0  0  0  0  0  0  0  0
  150.0467  133.3623  154.6313 H   0  0  0  0  0  0  0  0  0  0  0  0
  149.9594  131.7724  152.3322 H   0  0  0  0  0  0  0  0  0  0  0  0
  149.0599  131.4501  153.8058 H   0  0  0  0  0  0  0  0  0  0  0  0
  147.2850  131.5510  152.2285 H   0  0  0  0  0  0  0  0  0  0  0  0
  148.6371  132.3783  150.5538 H   0  0  0  0  0  0  0  0  0  0  0  0
  146.0520  136.0202  157.7550 H   0  0  0  0  0  0  0  0  0  0  0  0
  150.0752  138.1740  154.4320 H   0  0  0  0  0  0  0  0  0  0  0  0
  150.2182  139.1032  156.9740 H   0  0  0  0  0  0  0  0  0  0  0  0
  151.4170  137.9983  156.3522 H   0  0  0  0  0  0  0  0  0  0  0  0
  151.6996  140.9887  156.6578 H   0  0  0  0  0  0  0  0  0  0  0  0
  152.8857  139.7247  156.9951 H   0  0  0  0  0  0  0  0  0  0  0  0
  152.4094  138.4035  154.0211 H   0  0  0  0  0  0  0  0  0  0  0  0
  151.8273  139.7756  153.1000 H   0  0  0  0  0  0  0  0  0  0  0  0
  1  2  1  0  0  0  0
  1 31  1  0  0  0  0
  2  3  1  0  0  0  0
  2 32  1  0  0  0  0
  2 33  1  0  0  0  0
  3  4  1  0  0  0  0
  3 26  1  0  0  0  0
  3 34  1  0  0  0  0
  4  5  1  0  0  0  0
  4 35  1  0  0  0  0
  4 36  1  0  0  0  0
  5 25  1  0  0  0  0
  5  6  1  0  0  0  0
  6  7  2  0  0  0  0
  6 37  1  0  0  0  0
  7  8  1  0  0  0  0
  8 25  2  0  0  0  0
  8  9  1  0  0  0  0
  9 10  1  0  0  0  0
  9 22  2  0  0  0  0
 10 15  1  0  0  0  0
 10 11  1  0  0  0  0
 11 12  1  0  0  0  0
 11 38  1  0  0  0  0
 11 39  1  0  0  0  0
 12 13  1  0  0  0  0
 12 40  1  0  0  0  0
 12 41  1  0  0  0  0
 13 14  1  0  0  0  0
 13 42  1  0  0  0  0
 13 43  1  0  0  0  0
 14 15  1  0  0  0  0
 14 44  1  0  0  0  0
 14 45  1  0  0  0  0
 15 16  1  0  0  0  0
 15 46  1  0  0  0  0
 16 20  1  0  0  0  0
 16 17  1  0  0  0  0
 16 47  1  0  0  0  0
 17 18  1  0  0  0  0
 17 48  1  0  0  0  0
 17 49  1  0  0  0  0
 18 19  1  0  0  0  0
 18 50  1  0  0  0  0
 18 51  1  0  0  0  0
 19 20  1  0  0  0  0
 19 52  1  0  0  0  0
 19 53  1  0  0  0  0
 20 21  1  0  0  0  0
 20 54  1  0  0  0  0
 21 55  1  0  0  0  0
 22 23  1  0  0  0  0
 23 24  2  0  0  0  0
 23 56  1  0  0  0  0
 24 25  1  0  0  0  0
 26 30  1  0  0  0  0
 26 27  1  0  0  0  0
 26 57  1  0  0  0  0
 27 28  1  0  0  0  0
 27 58  1  0  0  0  0
 27 59  1  0  0  0  0
 28 29  1  0  0  0  0
 28 60  1  0  0  0  0
 28 61  1  0  0  0  0
 29 30  1  0  0  0  0
 30 62  1  0  0  0  0
 30 63  1  0  0  0  0
M  END
> <s_m_source_file>
AV-unprocessed.smi

> <i_m_source_file_index>
148

> <i_lp_mmshare_version>
43012

> <i_f3d_flags>
0

> <s_epik_input>
W0NIMl0xT1tDSDJdW0NIMl1bQ0BIXTFbQ0BIXShbQ0gyXVtPSF0pW0NIMl1uKFtjSF1uMiljKGMyMyluW2NIXW5jM040W0NIMl1bQ0gyXVtDSDJdW0NIMl1bQ0BIXTRbQ0BASF01W0NIMl1bQ0gyXVtDSDJdW0NASF01W09IXQ==

> <s_epik_cmdline>
J2VwaWtfcHl0aG9uJywgJy1waCcsICc3LjAnLCAnLXRuJywgJzgnLCAnLW1hJywgJzIwMCcsICctbWV0YWxfYmluZGluZycsICctaW1hZScsICc8aW5maWxlLm1hZT4nLCAnLW9tYWUnLCAnPG91dGZpbGUubWFlPic=

> <r_lp_tautomer_probability>
1

> <r_epik_Ionization_Penalty>
0.00556303

> <r_epik_Ionization_Penalty_Charging>
0

> <r_epik_Ionization_Penalty_Neutral>
0.00556303

> <r_epik_State_Penalty>
0.00401767

> <r_epik_Charging_Adjusted_Penalty>
0.00401767

> <i_epik_Tot_Q>
0

> <i_epik_Tot_abs_Q>
0

> <r_epik_Metal_State_Penalty>
-0

> <b_epik_Metal_Only>
0

> <s_lp_Force_Field>
OPLS_2005

> <r_lp_Energy>
72.8369

> <b_lp_Chiralities_Consistent>
1

> <s_lp_Variant>
AV-unprocessed.smi:148-11

> <Gold.Version>
5.8.1

> <Gold.Id.Protein>
6NUR|6NUR_protein|mol2

> <Gold.PLP.Fitness>
45.6628

> <Gold.PLP.PLP>
-34.5565

> <Gold.PLP.part.hbond>
-3.4689

> <Gold.PLP.part.metal>
0.0000

> <Gold.PLP.part.buried>
-1.9457

> <Gold.PLP.part.nonpolar>
-28.0188

> <Gold.PLP.part.repulsive>
1.6975

> <Gold.PLP.ligand.clash>
0.0000

> <Gold.PLP.ligand.torsion>
0.7169

> <Gold.PLP.Chemscore.Hbond>
3.0016

> <Gold.PLP.Chemscore.CHOScore>
0.9569

> <Gold.PLP.Chemscore.Metal>
0.0000

> <Gold.Chemscore.Hbonds>
donor molecule, donor type, donor heavy atom, donor atom, acceptor molecule, acceptor atom, score
      L1  H     1    31       P1  8028  0.76
      L1  H    21    55       P1 10747  0.99
      P1  H  7997  8010       L1    29  0.09
      P1  H  8011  8017       L1     1  0.01
      L1  C     6    37       P1  7957  1.00

> <Gold.PLP.Chemscore.Internal.Correction>
0.6648

> <Gold.Rescore>
     Score         DG    S(hbond)    S(metal)    S(lipo)     H(rot)  DE(clash)    DE(int)     intcor
     12.97     -16.53       2.88        0.00      84.98       3.32       0.70       2.86       ----

> <Gold.Chemscore.Fitness>
12.9676

> <Gold.Chemscore.DG>
-16.5285

> <Gold.Chemscore.ZeroCoef>
-5.4800

> <Gold.Chemscore.Hbond>
2.8759

> <Gold.Chemscore.Metal>
0.0000

> <Gold.Chemscore.Lipo>
84.9833

> <Gold.Chemscore.Internal_Hbond>
0.0000

> <Gold.Chemscore.DEClash>
0.7014

> <Gold.Chemscore.DEInternal>
2.8595

> <Gold.Chemscore.Rot>
3.3203

> <Gold.Chemscore.Internal.Correction>
   9.000000E+99

> <Gold.Chemscore.Hbonds>
donor molecule, donor type, donor heavy atom, donor atom, acceptor molecule, acceptor atom, score
      L1  H     1    31       P1  8028  0.75
      L1  H    21    55       P1 10747  0.90

> <Gold.Chemscore.Hbond.Weighted>
-9.6055

> <Gold.Chemscore.Metal.Weighted>
-0.0000

> <Gold.Chemscore.Lipo.Weighted>
-9.9430

> <Gold.Chemscore.Internal_Hbond.Weighted>
0.0000

> <Gold.Chemscore.DEClash.Weighted>
0.7014

> <Gold.Chemscore.DEInternal.Weighted>
2.8595

> <Gold.Chemscore.Rot.Weighted>
8.5000

> <Gold.Chemscore.Internal.Correction.Weighted>
   9.000000E+99

> <Gold.Protein.RotatedTorsions>
[ 6907 6896 6895 6894 ] final   65.75 input  -60.11 | X-H torsion
[ 7974 7965 7964 7962 ] final   99.50 input  175.53 | X-H torsion
[ 8008 7997 7996 7995 ] final   98.01 input   59.86 | X-H torsion
[ 10167 10162 10161 10158 ] final -170.20 input  -65.29 | X-H torsion
[ 10718 10713 10712 10709 ] final -179.97 input   66.30 | X-H torsion
[ 10763 10752 10751 10750 ] final   -8.75 input  -60.55 | X-H torsion
[ 11005 11000 10999 10996 ] final -148.87 input  -57.11 | X-H torsion

> <Gold.Protein.ActiveResidues>
 VAL166  LYS551  ARG553  GLY616  TRP617  ASP618  TYR619  PRO620  LYS621  CYS622 
 ASP623  PHE694  ASN695  SER759  ASP760  ASP761  ALA762  ILE779  LEU786  VAL792 
 PHE793  MET794  SER795  GLU796  ALA797  LYS798  CYS799  TRP800  GLU811  SER814 

> <Gold.Protein.RotatedAtoms>
  152.4431  134.5551  159.9877 H   0  0  0  0  0  0  0  0  0  0  0  0  # atno 6907 bound_to 6896
  151.5643  133.3393  159.2985 H   0  0  0  0  0  0  0  0  0  0  0  0  # atno 6908 bound_to 6896
  150.8341  134.7639  159.6942 H   0  0  0  0  0  0  0  0  0  0  0  0  # atno 6909 bound_to 6896
  145.3981  139.2352  143.3315 H   0  0  0  0  0  0  0  0  0  0  0  0  # atno 7974 bound_to 7965
  156.0961  140.3250  155.7879 H   0  0  0  0  0  0  0  0  0  0  0  0  # atno 8008 bound_to 7997
  155.4916  140.0562  157.2970 H   0  0  0  0  0  0  0  0  0  0  0  0  # atno 8009 bound_to 7997
  154.4667  140.1992  156.0115 H   0  0  0  0  0  0  0  0  0  0  0  0  # atno 8010 bound_to 7997
  139.5876  144.1284  152.1594 H   0  0  0  0  0  0  0  0  0  0  0  0  # atno 10167 bound_to 10162
  156.8670  130.9771  151.3077 H   0  0  0  0  0  0  0  0  0  0  0  0  # atno 10718 bound_to 10713
  153.4450  135.7014  153.6145 H   0  0  0  0  0  0  0  0  0  0  0  0  # atno 10763 bound_to 10752
  153.4504  135.3759  155.2280 H   0  0  0  0  0  0  0  0  0  0  0  0  # atno 10764 bound_to 10752
  154.8728  135.3995  154.3854 H   0  0  0  0  0  0  0  0  0  0  0  0  # atno 10765 bound_to 10752
  140.7568  134.3344  157.5112 H   0  0  0  0  0  0  0  0  0  0  0  0  # atno 11005 bound_to 11000
  146.2765  140.4674  142.8793 LP  0  0  0  0  0  0  0  0  0  0  0  0  # atno 17320 bound_to 7965
  144.8393  140.6832  143.6240 LP  0  0  0  0  0  0  0  0  0  0  0  0  # atno 17321 bound_to 7965
  140.0851  144.5667  150.7094 LP  0  0  0  0  0  0  0  0  0  0  0  0  # atno 17342 bound_to 10162
  140.7145  143.2532  151.4478 LP  0  0  0  0  0  0  0  0  0  0  0  0  # atno 17343 bound_to 10162
  157.6217  130.8660  149.9120 LP  0  0  0  0  0  0  0  0  0  0  0  0  # atno 17370 bound_to 10713
  156.0746  130.3680  150.0704 LP  0  0  0  0  0  0  0  0  0  0  0  0  # atno 17371 bound_to 10713
  139.8778  134.9176  156.3184 LP  0  0  0  0  0  0  0  0  0  0  0  0  # atno 17394 bound_to 11000
  140.9700  133.7333  156.0522 LP  0  0  0  0  0  0  0  0  0  0  0  0  # atno 17395 bound_to 11000

$$$$
