AV-unprocessed.smi:256|AV-procd|sdf|1958|dock5
  -GOLD-   2262021103D 1   1.00000     0.00000
 Structure written by MMmdl.
 62 65  0  0  0  0  0  0  0  0  2 V2000
  152.6071  141.8054  159.0589 C   0  0  0  0  0  0  0  0  0  0  0  0
  151.6007  140.9290  158.2989 C   0  0  0  0  0  0  0  0  0  0  0  0
  150.9183  141.6336  157.0948 C   0  0  1  0  0  0  0  0  0  0  0  0
  150.2471  140.6580  156.0964 C   0  0  0  0  0  0  0  0  0  0  0  0
  148.9971  140.1107  156.6205 N   0  0  0  0  0  0  0  0  0  0  0  0
  149.0785  138.9462  157.3195 C   0  0  0  0  0  0  0  0  0  0  0  0
  150.2452  138.2468  157.3284 N   0  0  0  0  0  0  0  0  0  0  0  0
  150.3326  137.0800  157.9722 C   0  0  0  0  0  0  0  0  0  0  0  0
  149.3903  136.4376  158.6629 N   0  0  0  0  0  0  0  0  0  0  0  0
  148.2222  137.1399  158.6777 C   0  0  0  0  0  0  0  0  0  0  0  0
  147.9846  138.3943  158.0471 C   0  0  0  0  0  0  0  0  0  0  0  0
  146.6820  138.8076  158.3019 N   0  0  0  0  0  0  0  0  0  0  0  0
  146.1749  137.8461  159.0235 C   0  0  0  0  0  0  0  0  0  0  0  0
  147.0262  136.7967  159.2836 N   0  0  0  0  0  0  0  0  0  0  0  0
  146.7218  135.5957  160.0473 C   0  0  0  0  0  0  0  0  0  0  0  0
  146.9430  135.7483  161.5774 C   0  0  0  0  0  0  0  0  0  0  0  0
  148.1436  136.4752  161.7640 O   0  0  0  0  0  0  0  0  0  0  0  0
  145.8182  136.5174  162.3045 C   0  0  0  0  0  0  0  0  0  0  0  0
  144.5470  135.6606  162.4340 C   0  0  0  0  0  0  0  0  0  0  0  0
  144.8494  134.4465  163.1126 O   0  0  0  0  0  0  0  0  0  0  0  0
  145.7863  133.6353  162.4120 C   0  0  0  0  0  0  0  0  0  0  0  0
  147.1251  134.3817  162.2673 C   0  0  0  0  0  0  0  0  0  0  0  0
  148.0339  141.1298  157.0311 C   0  0  0  0  0  0  0  0  0  0  0  0
  148.6598  142.1213  158.0286 C   0  0  0  0  0  0  0  0  0  0  0  0
  149.9321  142.6848  157.5042 N   0  3  1  0  0  0  0  0  0  0  0  0
  150.4522  143.7859  158.3602 C   0  0  0  0  0  0  0  0  0  0  0  0
  151.7254  144.4517  157.8016 C   0  0  0  0  0  0  0  0  0  0  0  0
  152.5618  144.9583  158.8337 O   0  0  0  0  0  0  0  0  0  0  0  0
  151.8633  145.5789  159.9018 C   0  0  0  0  0  0  0  0  0  0  0  0
  152.9697  141.2887  159.9477 H   0  0  0  0  0  0  0  0  0  0  0  0
  152.1513  142.7410  159.3836 H   0  0  0  0  0  0  0  0  0  0  0  0
  153.4792  142.0461  158.4524 H   0  0  0  0  0  0  0  0  0  0  0  0
  152.0966  140.0123  157.9834 H   0  0  0  0  0  0  0  0  0  0  0  0
  150.8448  140.6225  159.0204 H   0  0  0  0  0  0  0  0  0  0  0  0
  151.7072  142.1299  156.5306 H   0  0  0  0  0  0  0  0  0  0  0  0
  150.0012  141.2021  155.1836 H   0  0  0  0  0  0  0  0  0  0  0  0
  150.9452  139.8851  155.7839 H   0  0  0  0  0  0  0  0  0  0  0  0
  151.2932  136.5881  157.9227 H   0  0  0  0  0  0  0  0  0  0  0  0
  145.1560  137.8718  159.3820 H   0  0  0  0  0  0  0  0  0  0  0  0
  145.6912  135.3145  159.8326 H   0  0  0  0  0  0  0  0  0  0  0  0
  147.3374  134.7839  159.6574 H   0  0  0  0  0  0  0  0  0  0  0  0
  148.7518  135.9325  162.2422 H   0  0  0  0  0  0  0  0  0  0  0  0
  146.1498  136.7826  163.3097 H   0  0  0  0  0  0  0  0  0  0  0  0
  145.5922  137.4615  161.8087 H   0  0  0  0  0  0  0  0  0  0  0  0
  143.7906  136.2009  163.0034 H   0  0  0  0  0  0  0  0  0  0  0  0
  144.1107  135.4432  161.4589 H   0  0  0  0  0  0  0  0  0  0  0  0
  145.9350  132.7124  162.9725 H   0  0  0  0  0  0  0  0  0  0  0  0
  145.3817  133.3479  161.4410 H   0  0  0  0  0  0  0  0  0  0  0  0
  147.8436  133.7677  161.7231 H   0  0  0  0  0  0  0  0  0  0  0  0
  147.5415  134.5268  163.2656 H   0  0  0  0  0  0  0  0  0  0  0  0
  147.7146  141.6674  156.1374 H   0  0  0  0  0  0  0  0  0  0  0  0
  147.1319  140.6787  157.4464 H   0  0  0  0  0  0  0  0  0  0  0  0
  147.9500  142.9273  158.2181 H   0  0  0  0  0  0  0  0  0  0  0  0
  148.8407  141.6368  158.9885 H   0  0  0  0  0  0  0  0  0  0  0  0
  149.6752  144.5438  158.4608 H   0  0  0  0  0  0  0  0  0  0  0  0
  150.6307  143.4255  159.3731 H   0  0  0  0  0  0  0  0  0  0  0  0
  152.2793  143.7482  157.1780 H   0  0  0  0  0  0  0  0  0  0  0  0
  151.4588  145.2776  157.1427 H   0  0  0  0  0  0  0  0  0  0  0  0
  152.5741  145.8791  160.6715 H   0  0  0  0  0  0  0  0  0  0  0  0
  151.1471  144.8945  160.3579 H   0  0  0  0  0  0  0  0  0  0  0  0
  151.3348  146.4745  159.5754 H   0  0  0  0  0  0  0  0  0  0  0  0
  149.6717  143.1359  156.6387 H   0  0  0  0  0  0  0  0  0  0  0  0
  1  2  1  0  0  0  0
  1 30  1  0  0  0  0
  1 31  1  0  0  0  0
  1 32  1  0  0  0  0
  2  3  1  0  0  0  0
  2 33  1  0  0  0  0
  2 34  1  0  0  0  0
  3 25  1  0  0  0  0
  3  4  1  0  0  0  0
  3 35  1  0  0  0  0
  4  5  1  0  0  0  0
  4 36  1  0  0  0  0
  4 37  1  0  0  0  0
  5  6  1  0  0  0  0
  5 23  1  0  0  0  0
  6 11  1  0  0  0  0
  6  7  2  0  0  0  0
  7  8  1  0  0  0  0
  8  9  2  0  0  0  0
  8 38  1  0  0  0  0
  9 10  1  0  0  0  0
 10 14  1  0  0  0  0
 10 11  2  0  0  0  0
 11 12  1  0  0  0  0
 12 13  2  0  0  0  0
 13 14  1  0  0  0  0
 13 39  1  0  0  0  0
 14 15  1  0  0  0  0
 15 16  1  0  0  0  0
 15 40  1  0  0  0  0
 15 41  1  0  0  0  0
 16 22  1  0  0  0  0
 16 17  1  0  0  0  0
 16 18  1  0  0  0  0
 17 42  1  0  0  0  0
 18 19  1  0  0  0  0
 18 43  1  0  0  0  0
 18 44  1  0  0  0  0
 19 20  1  0  0  0  0
 19 45  1  0  0  0  0
 19 46  1  0  0  0  0
 20 21  1  0  0  0  0
 21 22  1  0  0  0  0
 21 47  1  0  0  0  0
 21 48  1  0  0  0  0
 22 49  1  0  0  0  0
 22 50  1  0  0  0  0
 23 24  1  0  0  0  0
 23 51  1  0  0  0  0
 23 52  1  0  0  0  0
 24 25  1  0  0  0  0
 24 53  1  0  0  0  0
 24 54  1  0  0  0  0
 25 26  1  0  0  0  0
 25 62  1  0  0  0  0
 26 27  1  0  0  0  0
 26 55  1  0  0  0  0
 26 56  1  0  0  0  0
 27 28  1  0  0  0  0
 27 57  1  0  0  0  0
 27 58  1  0  0  0  0
 28 29  1  0  0  0  0
 29 59  1  0  0  0  0
 29 60  1  0  0  0  0
 29 61  1  0  0  0  0
M  CHG  1  25   1
M  END
> <s_m_source_file>
AV-unprocessed.smi

> <i_m_source_file_index>
256

> <i_lp_mmshare_version>
43012

> <i_f3d_flags>
0

> <s_epik_input>
W0NIM11PW0NIMl1bQ0gyXU4xW0NIMl1bQ0gyXU4oW0NIMl1bQ0BIXTFbQ0gyXVtDSDNdKWMobltjSF1uMiljKGMyMyluW2NIXW4zW0NIMl1DNChbT0hdKVtDSDJdW0NIMl1PW0NIMl1bQ0gyXTQ=

> <s_epik_cmdline>
J2VwaWtfcHl0aG9uJywgJy1waCcsICc3LjAnLCAnLXRuJywgJzgnLCAnLW1hJywgJzIwMCcsICctbWV0YWxfYmluZGluZycsICctaW1hZScsICc8aW5maWxlLm1hZT4nLCAnLW9tYWUnLCAnPG91dGZpbGUubWFlPic=

> <r_lp_tautomer_probability>
1

> <r_epik_Ionization_Penalty>
0.233023

> <r_epik_Ionization_Penalty_Charging>
0.23295

> <r_epik_Ionization_Penalty_Neutral>
7.2493e-05

> <r_epik_State_Penalty>
0.223667

> <r_epik_Charging_Adjusted_Penalty>
0.456618

> <i_epik_Tot_Q>
1

> <i_epik_Tot_abs_Q>
1

> <r_epik_Metal_State_Penalty>
0.226879

> <b_epik_Metal_Only>
0

> <s_lp_Force_Field>
OPLS_2005

> <r_lp_Energy>
45.4801

> <b_lp_Chiralities_Consistent>
1

> <s_lp_Variant>
AV-unprocessed.smi:256-2

> <Gold.Version>
5.8.1

> <Gold.Id.Protein>
6NUR|6NUR_protein|mol2

> <Gold.PLP.Fitness>
53.3048

> <Gold.PLP.PLP>
-45.6063

> <Gold.PLP.part.hbond>
-3.1023

> <Gold.PLP.part.metal>
0.0000

> <Gold.PLP.part.buried>
-7.9849

> <Gold.PLP.part.nonpolar>
-35.4717

> <Gold.PLP.part.repulsive>
0.1062

> <Gold.PLP.ligand.clash>
0.0000

> <Gold.PLP.ligand.torsion>
1.2039

> <Gold.PLP.Chemscore.Hbond>
3.1982

> <Gold.PLP.Chemscore.CHOScore>
0.0000

> <Gold.PLP.Chemscore.Metal>
0.0000

> <Gold.Chemscore.Hbonds>
donor molecule, donor type, donor heavy atom, donor atom, acceptor molecule, acceptor atom, score
      L1  H    25    62       P1  8028  1.98
      P1  H  6896  6907       L1     9  0.13
      P1  H  6931  6943       L1    17  1.00

> <Gold.PLP.Chemscore.Internal.Correction>
0.5119

> <Gold.Rescore>
     Score         DG    S(hbond)    S(metal)    S(lipo)     H(rot)  DE(clash)    DE(int)     intcor
     14.54     -17.17       1.76        0.00     107.55       2.65       0.06       2.57       ----

> <Gold.Chemscore.Fitness>
14.5382

> <Gold.Chemscore.DG>
-17.1677

> <Gold.Chemscore.ZeroCoef>
-5.4800

> <Gold.Chemscore.Hbond>
1.7600

> <Gold.Chemscore.Metal>
0.0000

> <Gold.Chemscore.Lipo>
107.5521

> <Gold.Chemscore.Internal_Hbond>
0.0000

> <Gold.Chemscore.DEClash>
0.0595

> <Gold.Chemscore.DEInternal>
2.5700

> <Gold.Chemscore.Rot>
2.6462

> <Gold.Chemscore.Internal.Correction>
   9.000000E+99

> <Gold.Chemscore.Hbonds>
donor molecule, donor type, donor heavy atom, donor atom, acceptor molecule, acceptor atom, score
      L1  H    25    62       P1  8028  0.88
      P1  H  6896  6907       L1     9  0.03
      P1  H  6931  6943       L1    17  0.25

> <Gold.Chemscore.Hbond.Weighted>
-5.8783

> <Gold.Chemscore.Metal.Weighted>
-0.0000

> <Gold.Chemscore.Lipo.Weighted>
-12.5836

> <Gold.Chemscore.Internal_Hbond.Weighted>
0.0000

> <Gold.Chemscore.DEClash.Weighted>
0.0595

> <Gold.Chemscore.DEInternal.Weighted>
2.5700

> <Gold.Chemscore.Rot.Weighted>
6.7742

> <Gold.Chemscore.Internal.Correction.Weighted>
   9.000000E+99

> <Gold.Protein.RotatedTorsions>
[ 6907 6896 6895 6894 ] final  -56.11 input  -60.11 | X-H torsion
[ 7974 7965 7964 7962 ] final    4.41 input  175.53 | X-H torsion
[ 8008 7997 7996 7995 ] final  -92.51 input   59.86 | X-H torsion
[ 10167 10162 10161 10158 ] final   35.67 input  -65.29 | X-H torsion
[ 10718 10713 10712 10709 ] final  177.53 input   66.30 | X-H torsion
[ 10763 10752 10751 10750 ] final   54.28 input  -60.55 | X-H torsion
[ 11005 11000 10999 10996 ] final  165.87 input  -57.11 | X-H torsion

> <Gold.Protein.ActiveResidues>
 VAL166  LYS551  ARG553  GLY616  TRP617  ASP618  TYR619  PRO620  LYS621  CYS622 
 ASP623  PHE694  ASN695  SER759  ASP760  ASP761  ALA762  ILE779  LEU786  VAL792 
 PHE793  MET794  SER795  GLU796  ALA797  LYS798  CYS799  TRP800  GLU811  SER814 

> <Gold.Protein.RotatedAtoms>
  150.8195  134.7395  159.6759 H   0  0  0  0  0  0  0  0  0  0  0  0  # atno 6907 bound_to 6896
  152.4311  134.5772  159.9947 H   0  0  0  0  0  0  0  0  0  0  0  0  # atno 6908 bound_to 6896
  151.5960  133.3324  159.3073 H   0  0  0  0  0  0  0  0  0  0  0  0  # atno 6909 bound_to 6896
  146.2444  140.0539  142.8373 H   0  0  0  0  0  0  0  0  0  0  0  0  # atno 7974 bound_to 7965
  154.7240  140.0508  157.0666 H   0  0  0  0  0  0  0  0  0  0  0  0  # atno 8008 bound_to 7997
  155.0389  140.3166  155.4712 H   0  0  0  0  0  0  0  0  0  0  0  0  # atno 8009 bound_to 7997
  156.2824  140.2136  156.5512 H   0  0  0  0  0  0  0  0  0  0  0  0  # atno 8010 bound_to 7997
  140.4200  144.1473  150.6147 H   0  0  0  0  0  0  0  0  0  0  0  0  # atno 10167 bound_to 10162
  156.9040  130.9888  151.3031 H   0  0  0  0  0  0  0  0  0  0  0  0  # atno 10718 bound_to 10713
  152.9803  135.5750  154.4878 H   0  0  0  0  0  0  0  0  0  0  0  0  # atno 10763 bound_to 10752
  154.4417  135.2776  155.1845 H   0  0  0  0  0  0  0  0  0  0  0  0  # atno 10764 bound_to 10752
  154.3510  135.6209  153.5696 H   0  0  0  0  0  0  0  0  0  0  0  0  # atno 10765 bound_to 10752
  140.2606  134.7905  157.3586 H   0  0  0  0  0  0  0  0  0  0  0  0  # atno 11005 bound_to 11000
  145.0960  140.9315  143.4741 LP  0  0  0  0  0  0  0  0  0  0  0  0  # atno 17320 bound_to 7965
  145.0722  139.3023  143.5826 LP  0  0  0  0  0  0  0  0  0  0  0  0  # atno 17321 bound_to 7965
  140.4544  143.2474  151.9304 LP  0  0  0  0  0  0  0  0  0  0  0  0  # atno 17342 bound_to 10162
  139.4782  144.5530  151.8356 LP  0  0  0  0  0  0  0  0  0  0  0  0  # atno 17343 bound_to 10162
  157.6008  130.8511  149.8800 LP  0  0  0  0  0  0  0  0  0  0  0  0  # atno 17370 bound_to 10713
  156.0568  130.3707  150.1073 LP  0  0  0  0  0  0  0  0  0  0  0  0  # atno 17371 bound_to 10713
  140.1468  134.4900  155.7990 LP  0  0  0  0  0  0  0  0  0  0  0  0  # atno 17394 bound_to 11000
  141.2191  133.6847  156.7308 LP  0  0  0  0  0  0  0  0  0  0  0  0  # atno 17395 bound_to 11000

$$$$
