AV-unprocessed.smi:1542|AV-procd|sdf|6204|dock1
  -GOLD-   22720 6373D 1   1.00000     0.00000
 Structure written by MMmdl.
 46 48  0  0  0  0  0  0  0  0  2 V2000
  148.6442  139.5966  153.5041 O   0  0  0  0  0  0  0  0  0  0  0  0
  147.8932  140.7346  153.8705 C   0  0  0  0  0  0  0  0  0  0  0  0
  148.6800  141.5974  154.8675 C   0  0  0  0  0  0  0  0  0  0  0  0
  149.3696  140.7693  155.9664 C   0  0  0  0  0  0  0  0  0  0  0  0
  150.1384  141.6080  156.9412 C   0  0  0  0  0  0  0  0  0  0  0  0
  150.1858  142.9711  156.9800 N   0  3  0  0  0  0  0  0  0  0  0  0
  151.0482  143.3888  157.9937 C   0  0  0  0  0  0  0  0  0  0  0  0
  151.4113  144.6649  158.4128 C   0  0  0  0  0  0  0  0  0  0  0  0
  152.3336  144.7429  159.4769 C   0  0  0  0  0  0  0  0  0  0  0  0
  152.8592  143.5816  160.0793 C   0  0  0  0  0  0  0  0  0  0  0  0
  152.4820  142.2933  159.6464 C   0  0  0  0  0  0  0  0  0  0  0  0
  151.5653  142.2250  158.5973 C   0  0  0  0  0  0  0  0  0  0  0  0
  150.9773  141.1519  157.9167 N   0  0  0  0  0  0  0  0  0  0  0  0
  151.3211  139.7739  158.3085 C   0  0  0  0  0  0  0  0  0  0  0  0
  151.6917  138.8201  157.1307 C   0  0  0  0  0  0  0  0  0  0  0  0
  152.7719  138.0305  157.5948 O   0  0  0  0  0  0  0  0  0  0  0  0
  150.5088  137.8709  156.8182 C   0  0  0  0  0  0  0  0  0  0  0  0
  150.7859  136.9144  155.6440 C   0  0  0  0  0  0  0  0  0  0  0  0
  151.2162  137.6794  154.3855 C   0  0  0  0  0  0  0  0  0  0  0  0
  152.4390  138.5602  154.6735 C   0  0  0  0  0  0  0  0  0  0  0  0
  152.1621  139.5338  155.8327 C   0  0  0  0  0  0  0  0  0  0  0  0
  149.0043  139.7380  152.6415 H   0  0  0  0  0  0  0  0  0  0  0  0
  147.6732  141.3084  152.9699 H   0  0  0  0  0  0  0  0  0  0  0  0
  146.9390  140.4208  154.2950 H   0  0  0  0  0  0  0  0  0  0  0  0
  149.4134  142.1979  154.3274 H   0  0  0  0  0  0  0  0  0  0  0  0
  147.9908  142.3011  155.3359 H   0  0  0  0  0  0  0  0  0  0  0  0
  148.6199  140.1931  156.5085 H   0  0  0  0  0  0  0  0  0  0  0  0
  150.0561  140.0495  155.5201 H   0  0  0  0  0  0  0  0  0  0  0  0
  151.0136  145.5557  157.9494 H   0  0  0  0  0  0  0  0  0  0  0  0
  152.6468  145.7129  159.8355 H   0  0  0  0  0  0  0  0  0  0  0  0
  153.5676  143.6802  160.8892 H   0  0  0  0  0  0  0  0  0  0  0  0
  152.8967  141.4108  160.1109 H   0  0  0  0  0  0  0  0  0  0  0  0
  152.1208  139.8278  159.0485 H   0  0  0  0  0  0  0  0  0  0  0  0
  150.4738  139.3796  158.8699 H   0  0  0  0  0  0  0  0  0  0  0  0
  152.6588  137.1500  157.2703 H   0  0  0  0  0  0  0  0  0  0  0  0
  150.2467  137.2898  157.7036 H   0  0  0  0  0  0  0  0  0  0  0  0
  149.6278  138.4670  156.5779 H   0  0  0  0  0  0  0  0  0  0  0  0
  151.5627  136.2013  155.9220 H   0  0  0  0  0  0  0  0  0  0  0  0
  149.8938  136.3250  155.4309 H   0  0  0  0  0  0  0  0  0  0  0  0
  151.4432  136.9775  153.5825 H   0  0  0  0  0  0  0  0  0  0  0  0
  150.3911  138.2996  154.0325 H   0  0  0  0  0  0  0  0  0  0  0  0
  153.2984  137.9319  154.9093 H   0  0  0  0  0  0  0  0  0  0  0  0
  152.7086  139.1213  153.7783 H   0  0  0  0  0  0  0  0  0  0  0  0
  151.3952  140.2324  155.4968 H   0  0  0  0  0  0  0  0  0  0  0  0
  153.0561  140.1277  156.0260 H   0  0  0  0  0  0  0  0  0  0  0  0
  149.6655  143.5703  156.3521 H   0  0  0  0  0  0  0  0  0  0  0  0
  1  2  1  0  0  0  0
  1 22  1  0  0  0  0
  2  3  1  0  0  0  0
  2 23  1  0  0  0  0
  2 24  1  0  0  0  0
  3  4  1  0  0  0  0
  3 25  1  0  0  0  0
  3 26  1  0  0  0  0
  4  5  1  0  0  0  0
  4 27  1  0  0  0  0
  4 28  1  0  0  0  0
  5 13  1  0  0  0  0
  5  6  2  0  0  0  0
  6  7  1  0  0  0  0
  6 46  1  0  0  0  0
  7 12  2  0  0  0  0
  7  8  1  0  0  0  0
  8  9  2  0  0  0  0
  8 29  1  0  0  0  0
  9 10  1  0  0  0  0
  9 30  1  0  0  0  0
 10 11  2  0  0  0  0
 10 31  1  0  0  0  0
 11 12  1  0  0  0  0
 11 32  1  0  0  0  0
 12 13  1  0  0  0  0
 13 14  1  0  0  0  0
 14 15  1  0  0  0  0
 14 33  1  0  0  0  0
 14 34  1  0  0  0  0
 15 21  1  0  0  0  0
 15 16  1  0  0  0  0
 15 17  1  0  0  0  0
 16 35  1  0  0  0  0
 17 18  1  0  0  0  0
 17 36  1  0  0  0  0
 17 37  1  0  0  0  0
 18 19  1  0  0  0  0
 18 38  1  0  0  0  0
 18 39  1  0  0  0  0
 19 20  1  0  0  0  0
 19 40  1  0  0  0  0
 19 41  1  0  0  0  0
 20 21  1  0  0  0  0
 20 42  1  0  0  0  0
 20 43  1  0  0  0  0
 21 44  1  0  0  0  0
 21 45  1  0  0  0  0
M  CHG  1   6   1
M  END
> <s_m_source_file>
AV-unprocessed.smi

> <i_m_source_file_index>
1542

> <i_lp_mmshare_version>
43012

> <i_f3d_flags>
0

> <s_epik_input>
W09IXVtDSDJdW0NIMl1bQ0gyXWMobjEpbihjKGMxMilbY0hdW2NIXVtjSF1bY0hdMilbQ0gyXUMzKFtPSF0pW0NIMl1bQ0gyXVtDSDJdW0NIMl1bQ0gyXTM=

> <s_epik_cmdline>
J2VwaWtfcHl0aG9uJywgJy1waCcsICc3LjAnLCAnLXRuJywgJzgnLCAnLW1hJywgJzIwMCcsICctbWV0YWxfYmluZGluZycsICctaW1hZScsICc8aW5maWxlLm1hZT4nLCAnLW9tYWUnLCAnPG91dGZpbGUubWFlPic=

> <r_epik_Ionization_Penalty>
0.555973

> <r_epik_Ionization_Penalty_Charging>
0.555973

> <r_epik_Ionization_Penalty_Neutral>
2.09159e-07

> <r_epik_State_Penalty>
0.566728

> <r_epik_Charging_Adjusted_Penalty>
1.1227

> <i_epik_Tot_Q>
1

> <i_epik_Tot_abs_Q>
1

> <r_epik_Metal_State_Penalty>
4.37256

> <b_epik_Metal_Only>
0

> <s_lp_Force_Field>
OPLS_2005

> <r_lp_Energy>
23.0728

> <b_lp_Chiralities_Consistent>
1

> <s_lp_Variant>
AV-unprocessed.smi:1542-2

> <Gold.Version>
5.8.1

> <Gold.Id.Protein>
6NUR|6NUR_protein|mol2

> <Gold.PLP.Fitness>
53.2654

> <Gold.PLP.PLP>
-46.1442

> <Gold.PLP.part.hbond>
-1.8142

> <Gold.PLP.part.metal>
0.0000

> <Gold.PLP.part.buried>
-5.9060

> <Gold.PLP.part.nonpolar>
-40.1865

> <Gold.PLP.part.repulsive>
0.0185

> <Gold.PLP.ligand.clash>
0.0000

> <Gold.PLP.ligand.torsion>
1.0949

> <Gold.PLP.Chemscore.Hbond>
3.0000

> <Gold.PLP.Chemscore.CHOScore>
0.0000

> <Gold.PLP.Chemscore.Metal>
0.0000

> <Gold.Chemscore.Hbonds>
donor molecule, donor type, donor heavy atom, donor atom, acceptor molecule, acceptor atom, score
      L1  H     1    22       P1  7957  1.00
      L1  H     6    46       P1  8028  2.00

> <Gold.PLP.Chemscore.Internal.Correction>
0.3111

> <Gold.Rescore>
     Score         DG    S(hbond)    S(metal)    S(lipo)     H(rot)  DE(clash)    DE(int)     intcor
     18.91     -19.86       1.96        0.00     128.69       2.82       0.00       0.95       ----

> <Gold.Chemscore.Fitness>
18.9089

> <Gold.Chemscore.DG>
-19.8631

> <Gold.Chemscore.ZeroCoef>
-5.4800

> <Gold.Chemscore.Hbond>
1.9578

> <Gold.Chemscore.Metal>
0.0000

> <Gold.Chemscore.Lipo>
128.6899

> <Gold.Chemscore.Internal_Hbond>
0.0000

> <Gold.Chemscore.DEClash>
0.0044

> <Gold.Chemscore.DEInternal>
0.9498

> <Gold.Chemscore.Rot>
2.8175

> <Gold.Chemscore.Internal.Correction>
   9.000000E+99

> <Gold.Chemscore.Hbonds>
donor molecule, donor type, donor heavy atom, donor atom, acceptor molecule, acceptor atom, score
      L1  H     1    22       P1  7957  0.99
      L1  H     6    46       P1  8028  0.95

> <Gold.Chemscore.Hbond.Weighted>
-6.5392

> <Gold.Chemscore.Metal.Weighted>
-0.0000

> <Gold.Chemscore.Lipo.Weighted>
-15.0567

> <Gold.Chemscore.Internal_Hbond.Weighted>
0.0000

> <Gold.Chemscore.DEClash.Weighted>
0.0044

> <Gold.Chemscore.DEInternal.Weighted>
0.9498

> <Gold.Chemscore.Rot.Weighted>
7.2128

> <Gold.Chemscore.Internal.Correction.Weighted>
   9.000000E+99

> <Gold.Protein.RotatedTorsions>
[ 6907 6896 6895 6894 ] final  -52.77 input  -60.11 | X-H torsion
[ 7974 7965 7964 7962 ] final  -94.12 input  175.53 | X-H torsion
[ 8008 7997 7996 7995 ] final   33.17 input   59.86 | X-H torsion
[ 10167 10162 10161 10158 ] final   60.22 input  -65.29 | X-H torsion
[ 10718 10713 10712 10709 ] final  121.67 input   66.30 | X-H torsion
[ 10763 10752 10751 10750 ] final   38.28 input  -60.55 | X-H torsion
[ 11005 11000 10999 10996 ] final -134.38 input  -57.11 | X-H torsion

> <Gold.Protein.ActiveResidues>
 VAL166  LYS551  ARG553  GLY616  TRP617  ASP618  TYR619  PRO620  LYS621  CYS622 
 ASP623  PHE694  ASN695  SER759  ASP760  ASP761  ALA762  ILE779  LEU786  VAL792 
 PHE793  MET794  SER795  GLU796  ALA797  LYS798  CYS799  TRP800  GLU811  SER814 

> <Gold.Protein.RotatedAtoms>
  150.8487  134.7805  159.6991 H   0  0  0  0  0  0  0  0  0  0  0  0  # atno 6907 bound_to 6896
  152.4558  134.5292  159.9815 H   0  0  0  0  0  0  0  0  0  0  0  0  # atno 6908 bound_to 6896
  151.5417  133.3393  159.2972 H   0  0  0  0  0  0  0  0  0  0  0  0  # atno 6909 bound_to 6896
  145.3775  140.9513  143.2412 H   0  0  0  0  0  0  0  0  0  0  0  0  # atno 7974 bound_to 7965
  155.1342  140.3260  155.4467 H   0  0  0  0  0  0  0  0  0  0  0  0  # atno 8008 bound_to 7997
  156.2625  140.2005  156.6409 H   0  0  0  0  0  0  0  0  0  0  0  0  # atno 8009 bound_to 7997
  154.6590  140.0549  157.0027 H   0  0  0  0  0  0  0  0  0  0  0  0  # atno 8010 bound_to 7997
  140.1680  144.4305  150.6675 H   0  0  0  0  0  0  0  0  0  0  0  0  # atno 10167 bound_to 10162
  157.5800  131.1076  150.8205 H   0  0  0  0  0  0  0  0  0  0  0  0  # atno 10718 bound_to 10713
  153.0007  135.6254  154.2279 H   0  0  0  0  0  0  0  0  0  0  0  0  # atno 10763 bound_to 10752
  154.2021  135.2803  155.2989 H   0  0  0  0  0  0  0  0  0  0  0  0  # atno 10764 bound_to 10752
  154.5675  135.5686  153.7123 H   0  0  0  0  0  0  0  0  0  0  0  0  # atno 10765 bound_to 10752
  140.8995  134.1709  157.4471 H   0  0  0  0  0  0  0  0  0  0  0  0  # atno 11005 bound_to 11000
  144.8531  139.5291  143.6847 LP  0  0  0  0  0  0  0  0  0  0  0  0  # atno 17320 bound_to 7965
  146.2857  139.6998  142.9197 LP  0  0  0  0  0  0  0  0  0  0  0  0  # atno 17321 bound_to 7965
  140.6600  143.2249  151.5877 LP  0  0  0  0  0  0  0  0  0  0  0  0  # atno 17342 bound_to 10162
  139.5351  144.2805  152.1233 LP  0  0  0  0  0  0  0  0  0  0  0  0  # atno 17343 bound_to 10162
  156.8654  130.5127  149.5300 LP  0  0  0  0  0  0  0  0  0  0  0  0  # atno 17370 bound_to 10713
  156.0845  130.5847  150.9624 LP  0  0  0  0  0  0  0  0  0  0  0  0  # atno 17371 bound_to 10713
  139.8740  134.9892  156.5446 LP  0  0  0  0  0  0  0  0  0  0  0  0  # atno 17394 bound_to 11000
  140.8248  133.8325  155.8929 LP  0  0  0  0  0  0  0  0  0  0  0  0  # atno 17395 bound_to 11000

$$$$
