AV-unprocessed.smi:438|AV-procd|sdf|2573|dock6
  -GOLD-   2262022553D 1   1.00000     0.00000
 Structure written by MMmdl.
 47 48  0  0  0  0  0  0  0  0  2 V2000
  146.2387  130.1978  152.6682 C   0  0  0  0  0  0  0  0  0  0  0  0
  146.2832  131.7121  152.7684 C   0  0  0  0  0  0  0  0  0  0  0  0
  146.9672  132.2317  153.8799 N   0  0  0  0  0  0  0  0  0  0  0  0
  147.0446  133.4980  154.0377 C   0  0  0  0  0  0  0  0  0  0  0  0
  147.9153  134.1662  155.4660 S   0  0  0  0  0  0  0  0  0  0  0  0
  147.2338  133.2276  156.8669 C   0  0  0  0  0  0  0  0  0  0  0  0
  148.0651  133.3807  158.1374 C   0  0  0  0  0  0  0  0  0  0  0  0
  149.2743  133.1518  158.1184 O   0  0  0  0  0  0  0  0  0  0  0  0
  147.3973  133.7535  159.2399 N   0  0  0  0  0  0  0  0  0  0  0  0
  147.9778  133.9630  160.5658 C   0  0  2  0  0  0  0  0  0  0  0  0
  147.3950  132.9594  161.5843 C   0  0  0  0  0  0  0  0  0  0  0  0
  145.9184  133.2492  161.9047 C   0  0  0  0  0  0  0  0  0  0  0  0
  145.7259  134.6968  162.3808 C   0  0  0  0  0  0  0  0  0  0  0  0
  146.2834  135.7010  161.3594 C   0  0  0  0  0  0  0  0  0  0  0  0
  147.7670  135.4227  161.0394 C   0  0  2  0  0  0  0  0  0  0  0  0
  148.3350  136.4576  160.0524 C   0  0  0  0  0  0  0  0  0  0  0  0
  146.4924  134.4139  153.1724 N   0  5  0  0  0  0  0  0  0  0  0  0
  145.8110  133.9892  152.0700 C   0  0  0  0  0  0  0  0  0  0  0  0
  145.2981  134.7749  151.2742 O   0  0  0  0  0  0  0  0  0  0  0  0
  145.6970  132.5359  151.8535 C   0  0  0  0  0  0  0  0  0  0  0  0
  144.9529  132.0302  150.6199 C   0  0  0  0  0  0  0  0  0  0  0  0
  143.4688  132.4243  150.6372 C   0  0  0  0  0  0  0  0  0  0  0  0
  142.8941  132.1843  149.3707 O   0  0  0  0  0  0  0  0  0  0  0  0
  145.2125  129.8503  152.5455 H   0  0  0  0  0  0  0  0  0  0  0  0
  146.6445  129.7305  153.5664 H   0  0  0  0  0  0  0  0  0  0  0  0
  146.8273  129.8562  151.8168 H   0  0  0  0  0  0  0  0  0  0  0  0
  147.1667  132.1739  156.5932 H   0  0  0  0  0  0  0  0  0  0  0  0
  146.2207  133.5731  157.0756 H   0  0  0  0  0  0  0  0  0  0  0  0
  146.4047  133.9168  159.1514 H   0  0  0  0  0  0  0  0  0  0  0  0
  149.0535  133.7901  160.4972 H   0  0  0  0  0  0  0  0  0  0  0  0
  147.5036  131.9378  161.2184 H   0  0  0  0  0  0  0  0  0  0  0  0
  147.9749  133.0108  162.5066 H   0  0  0  0  0  0  0  0  0  0  0  0
  145.3066  133.0701  161.0195 H   0  0  0  0  0  0  0  0  0  0  0  0
  145.5625  132.5575  162.6687 H   0  0  0  0  0  0  0  0  0  0  0  0
  144.6675  134.8927  162.5544 H   0  0  0  0  0  0  0  0  0  0  0  0
  146.2270  134.8355  163.3396 H   0  0  0  0  0  0  0  0  0  0  0  0
  145.6900  135.6579  160.4452 H   0  0  0  0  0  0  0  0  0  0  0  0
  146.1709  136.7134  161.7487 H   0  0  0  0  0  0  0  0  0  0  0  0
  148.3236  135.5399  161.9705 H   0  0  0  0  0  0  0  0  0  0  0  0
  147.7968  136.4512  159.1040 H   0  0  0  0  0  0  0  0  0  0  0  0
  149.3861  136.2606  159.8399 H   0  0  0  0  0  0  0  0  0  0  0  0
  148.2658  137.4659  160.4613 H   0  0  0  0  0  0  0  0  0  0  0  0
  145.0414  130.9465  150.5500 H   0  0  0  0  0  0  0  0  0  0  0  0
  145.4350  132.4134  149.7193 H   0  0  0  0  0  0  0  0  0  0  0  0
  142.9265  131.8485  151.3878 H   0  0  0  0  0  0  0  0  0  0  0  0
  143.3497  133.4791  150.8860 H   0  0  0  0  0  0  0  0  0  0  0  0
  142.2733  132.8730  149.1888 H   0  0  0  0  0  0  0  0  0  0  0  0
  1 24  1  0  0  0  0
  1 25  1  0  0  0  0
  1 26  1  0  0  0  0
  1  2  1  0  0  0  0
  2 20  2  0  0  0  0
  2  3  1  0  0  0  0
  3  4  2  0  0  0  0
  4  5  1  0  0  0  0
  4 17  1  0  0  0  0
  5  6  1  0  0  0  0
  6  7  1  0  0  0  0
  6 27  1  0  0  0  0
  6 28  1  0  0  0  0
  7  8  2  0  0  0  0
  7  9  1  0  0  0  0
  9 10  1  0  0  0  0
  9 29  1  0  0  0  0
 10 15  1  0  0  0  0
 10 11  1  0  0  0  0
 10 30  1  0  0  0  0
 11 12  1  0  0  0  0
 11 31  1  0  0  0  0
 11 32  1  0  0  0  0
 12 13  1  0  0  0  0
 12 33  1  0  0  0  0
 12 34  1  0  0  0  0
 13 14  1  0  0  0  0
 13 35  1  0  0  0  0
 13 36  1  0  0  0  0
 14 15  1  0  0  0  0
 14 37  1  0  0  0  0
 14 38  1  0  0  0  0
 15 16  1  0  0  0  0
 15 39  1  0  0  0  0
 16 40  1  0  0  0  0
 16 41  1  0  0  0  0
 16 42  1  0  0  0  0
 17 18  1  0  0  0  0
 18 19  2  0  0  0  0
 18 20  1  0  0  0  0
 20 21  1  0  0  0  0
 21 22  1  0  0  0  0
 21 43  1  0  0  0  0
 21 44  1  0  0  0  0
 22 23  1  0  0  0  0
 22 45  1  0  0  0  0
 22 46  1  0  0  0  0
 23 47  1  0  0  0  0
M  CHG  1  17  -1
M  END
> <s_m_source_file>
AV-unprocessed.smi

> <i_m_source_file_index>
438

> <i_lp_mmshare_version>
43012

> <i_f3d_flags>
0

> <s_epik_input>
W09IXVtDSDJdW0NIMl1jMWMoW09IXSluYyhuYzFbQ0gzXSlTW0NIMl1DKD1PKVtOSF1bQ0BASF0yW0NIMl1bQ0gyXVtDSDJdW0NIMl1bQ0BIXTJbQ0gzXQ==

> <s_epik_cmdline>
J2VwaWtfcHl0aG9uJywgJy1waCcsICc3LjAnLCAnLXRuJywgJzgnLCAnLW1hJywgJzIwMCcsICctbWV0YWxfYmluZGluZycsICctaW1hZScsICc8aW5maWxlLm1hZT4nLCAnLW9tYWUnLCAnPG91dGZpbGUubWFlPic=

> <r_lp_tautomer_probability>
1

> <r_epik_Ionization_Penalty>
3.69231

> <r_epik_Ionization_Penalty_Charging>
0.00434774

> <r_epik_Ionization_Penalty_Neutral>
3.68796

> <r_epik_State_Penalty>
2.13826

> <r_epik_Charging_Adjusted_Penalty>
2.14261

> <i_epik_Tot_Q>
-1

> <i_epik_Tot_abs_Q>
1

> <r_epik_Metal_State_Penalty>
0.260979

> <b_epik_Metal_Only>
0

> <s_lp_Force_Field>
OPLS_2005

> <r_lp_Energy>
17.6813

> <b_lp_Chiralities_Consistent>
1

> <s_lp_Variant>
AV-unprocessed.smi:438-11

> <Gold.Version>
5.8.1

> <Gold.Id.Protein>
6NUR|6NUR_protein|mol2

> <Gold.PLP.Fitness>
42.7448

> <Gold.PLP.PLP>
-35.1133

> <Gold.PLP.part.hbond>
-3.8893

> <Gold.PLP.part.metal>
0.0000

> <Gold.PLP.part.buried>
-7.1220

> <Gold.PLP.part.nonpolar>
-24.7685

> <Gold.PLP.part.repulsive>
0.3880

> <Gold.PLP.ligand.clash>
0.0000

> <Gold.PLP.ligand.torsion>
0.2675

> <Gold.PLP.Chemscore.Hbond>
2.7063

> <Gold.PLP.Chemscore.CHOScore>
0.0000

> <Gold.PLP.Chemscore.Metal>
0.0000

> <Gold.Chemscore.Hbonds>
donor molecule, donor type, donor heavy atom, donor atom, acceptor molecule, acceptor atom, score
      L1  H    23    47       P1 10186  1.00
      P1  H  6896  6909       L1     8  0.94
      P1  H 10785 10796       L1    23  0.68

> <Gold.PLP.Chemscore.Internal.Correction>
0.0476

> <Gold.Rescore>
     Score         DG    S(hbond)    S(metal)    S(lipo)     H(rot)  DE(clash)    DE(int)     intcor
     16.97     -17.26       2.69        0.00      85.05       2.79       0.00       0.29       ----

> <Gold.Chemscore.Fitness>
16.9667

> <Gold.Chemscore.DG>
-17.2562

> <Gold.Chemscore.ZeroCoef>
-5.4800

> <Gold.Chemscore.Hbond>
2.6871

> <Gold.Chemscore.Metal>
0.0000

> <Gold.Chemscore.Lipo>
85.0466

> <Gold.Chemscore.Internal_Hbond>
0.0000

> <Gold.Chemscore.DEClash>
0.0000

> <Gold.Chemscore.DEInternal>
0.2895

> <Gold.Chemscore.Rot>
2.7927

> <Gold.Chemscore.Internal.Correction>
   9.000000E+99

> <Gold.Chemscore.Hbonds>
donor molecule, donor type, donor heavy atom, donor atom, acceptor molecule, acceptor atom, score
      L1  H    23    47       P1 10186  0.94
      P1  H  6896  6909       L1     8  0.89
      P1  H 10785 10796       L1    23  0.56

> <Gold.Chemscore.Hbond.Weighted>
-8.9750

> <Gold.Chemscore.Metal.Weighted>
-0.0000

> <Gold.Chemscore.Lipo.Weighted>
-9.9505

> <Gold.Chemscore.Internal_Hbond.Weighted>
0.0000

> <Gold.Chemscore.DEClash.Weighted>
0.0000

> <Gold.Chemscore.DEInternal.Weighted>
0.2895

> <Gold.Chemscore.Rot.Weighted>
7.1492

> <Gold.Chemscore.Internal.Correction.Weighted>
   9.000000E+99

> <Gold.Protein.RotatedTorsions>
[ 6907 6896 6895 6894 ] final  -15.69 input  -60.11 | X-H torsion
[ 7974 7965 7964 7962 ] final  -44.41 input  175.53 | X-H torsion
[ 8008 7997 7996 7995 ] final   91.09 input   59.86 | X-H torsion
[ 10167 10162 10161 10158 ] final  169.60 input  -65.29 | X-H torsion
[ 10718 10713 10712 10709 ] final  179.16 input   66.30 | X-H torsion
[ 10763 10752 10751 10750 ] final -122.61 input  -60.55 | X-H torsion
[ 11005 11000 10999 10996 ] final  118.43 input  -57.11 | X-H torsion

> <Gold.Protein.ActiveResidues>
 VAL166  LYS551  ARG553  GLY616  TRP617  ASP618  TYR619  PRO620  LYS621  CYS622 
 ASP623  PHE694  ASN695  SER759  ASP760  ASP761  ALA762  ILE779  LEU786  VAL792 
 PHE793  MET794  SER795  GLU796  ALA797  LYS798  CYS799  TRP800  GLU811  SER814 

> <Gold.Protein.RotatedAtoms>
  151.3201  135.0816  159.9302 H   0  0  0  0  0  0  0  0  0  0  0  0  # atno 6907 bound_to 6896
  152.5258  133.9648  159.7744 H   0  0  0  0  0  0  0  0  0  0  0  0  # atno 6908 bound_to 6896
  150.9967  133.6044  159.2730 H   0  0  0  0  0  0  0  0  0  0  0  0  # atno 6909 bound_to 6896
  145.9923  140.7167  142.9311 H   0  0  0  0  0  0  0  0  0  0  0  0  # atno 7974 bound_to 7965
  156.0197  140.3341  155.7026 H   0  0  0  0  0  0  0  0  0  0  0  0  # atno 8008 bound_to 7997
  155.6040  140.0658  157.2743 H   0  0  0  0  0  0  0  0  0  0  0  0  # atno 8009 bound_to 7997
  154.4311  140.1805  156.1190 H   0  0  0  0  0  0  0  0  0  0  0  0  # atno 8010 bound_to 7997
  139.4996  144.3688  151.9746 H   0  0  0  0  0  0  0  0  0  0  0  0  # atno 10167 bound_to 10162
  156.8799  130.9812  151.3063 H   0  0  0  0  0  0  0  0  0  0  0  0  # atno 10718 bound_to 10713
  154.8693  135.4127  154.2810 H   0  0  0  0  0  0  0  0  0  0  0  0  # atno 10763 bound_to 10752
  153.3702  135.7007  153.6649 H   0  0  0  0  0  0  0  0  0  0  0  0  # atno 10764 bound_to 10752
  153.5514  135.3628  155.2733 H   0  0  0  0  0  0  0  0  0  0  0  0  # atno 10765 bound_to 10752
  139.9109  134.9620  156.7502 H   0  0  0  0  0  0  0  0  0  0  0  0  # atno 11005 bound_to 11000
  144.6893  140.3091  143.7251 LP  0  0  0  0  0  0  0  0  0  0  0  0  # atno 17320 bound_to 7965
  145.7611  139.1825  143.2266 LP  0  0  0  0  0  0  0  0  0  0  0  0  # atno 17321 bound_to 7965
  140.3124  144.3522  150.6030 LP  0  0  0  0  0  0  0  0  0  0  0  0  # atno 17342 bound_to 10162
  140.5788  143.2174  151.7467 LP  0  0  0  0  0  0  0  0  0  0  0  0  # atno 17343 bound_to 10162
  157.6146  130.8609  149.9007 LP  0  0  0  0  0  0  0  0  0  0  0  0  # atno 17370 bound_to 10713
  156.0682  130.3689  150.0832 LP  0  0  0  0  0  0  0  0  0  0  0  0  # atno 17371 bound_to 10713
  140.6779  133.9501  155.7893 LP  0  0  0  0  0  0  0  0  0  0  0  0  # atno 17394 bound_to 11000
  141.0531  134.0456  157.3758 LP  0  0  0  0  0  0  0  0  0  0  0  0  # atno 17395 bound_to 11000

$$$$
