AV-unprocessed.smi:72|AV-procd|sdf|710|dock3
  -GOLD-   2262017 33D 1   1.00000     0.00000
 Structure written by MMmdl.
 30 31  0  0  0  0  0  0  0  0  2 V2000
  145.2181  138.4462  153.1122 N   0  0  0  0  0  0  0  0  0  0  0  0
  145.1931  137.1039  152.7956 C   0  0  0  0  0  0  0  0  0  0  0  0
  144.3130  136.6924  151.8105 N   0  3  0  0  0  0  0  0  0  0  0  0
  144.1590  135.4276  151.3947 C   0  0  0  0  0  0  0  0  0  0  0  0
  144.8787  134.4782  151.9558 N   0  0  0  0  0  0  0  0  0  0  0  0
  144.7321  133.0462  151.5224 C   0  0  1  0  0  0  0  0  0  0  0  0
  143.7440  133.0020  150.5383 O   0  0  0  0  0  0  0  0  0  0  0  0
  144.1891  132.2207  149.4345 C   0  0  1  0  0  0  0  0  0  0  0  0
  143.4631  132.6611  148.1541 C   0  0  0  0  0  0  0  0  0  0  0  0
  143.4252  134.0699  148.0813 O   0  0  0  0  0  0  0  0  0  0  0  0
  145.6911  132.5064  149.4178 C   0  0  2  0  0  0  0  0  0  0  0  0
  146.4297  131.5437  148.6902 O   0  0  0  0  0  0  0  0  0  0  0  0
  146.0434  132.5417  150.9013 C   0  0  2  0  0  0  0  0  0  0  0  0
  146.3857  131.2661  151.4102 O   0  0  0  0  0  0  0  0  0  0  0  0
  145.8324  134.8061  152.9529 C   0  0  0  0  0  0  0  0  0  0  0  0
  146.5413  133.9328  153.4512 O   0  0  0  0  0  0  0  0  0  0  0  0
  145.9191  136.1566  153.3224 N   0  0  0  0  0  0  0  0  0  0  0  0
  144.3995  132.4823  152.3959 H   0  0  0  0  0  0  0  0  0  0  0  0
  144.0169  131.1633  149.6459 H   0  0  0  0  0  0  0  0  0  0  0  0
  145.8709  133.4917  148.9851 H   0  0  0  0  0  0  0  0  0  0  0  0
  146.8683  133.2260  151.1052 H   0  0  0  0  0  0  0  0  0  0  0  0
  145.8301  138.8379  153.8146 H   0  0  0  0  0  0  0  0  0  0  0  0
  144.6276  139.1402  152.6766 H   0  0  0  0  0  0  0  0  0  0  0  0
  143.4532  135.2053  150.6040 H   0  0  0  0  0  0  0  0  0  0  0  0
  143.9373  132.2469  147.2641 H   0  0  0  0  0  0  0  0  0  0  0  0
  142.4318  132.3071  148.1669 H   0  0  0  0  0  0  0  0  0  0  0  0
  144.1721  134.3669  147.5839 H   0  0  0  0  0  0  0  0  0  0  0  0
  147.2231  131.3477  149.1654 H   0  0  0  0  0  0  0  0  0  0  0  0
  147.2000  130.9921  151.0157 H   0  0  0  0  0  0  0  0  0  0  0  0
  143.7429  137.4033  151.3746 H   0  0  0  0  0  0  0  0  0  0  0  0
  1  2  1  0  0  0  0
  1 22  1  0  0  0  0
  1 23  1  0  0  0  0
  2 17  2  0  0  0  0
  2  3  1  0  0  0  0
  3  4  2  0  0  0  0
  3 30  1  0  0  0  0
  4  5  1  0  0  0  0
  4 24  1  0  0  0  0
  5  6  1  0  0  0  0
  5 15  1  0  0  0  0
  6 18  1  0  0  0  0
  6 13  1  0  0  0  0
  6  7  1  0  0  0  0
  7  8  1  0  0  0  0
  8 19  1  0  0  0  0
  8  9  1  0  0  0  0
  8 11  1  0  0  0  0
  9 10  1  0  0  0  0
  9 25  1  0  0  0  0
  9 26  1  0  0  0  0
 10 27  1  0  0  0  0
 11 20  1  0  0  0  0
 11 12  1  0  0  0  0
 11 13  1  0  0  0  0
 12 28  1  0  0  0  0
 13 21  1  0  0  0  0
 13 14  1  0  0  0  0
 14 29  1  0  0  0  0
 15 16  2  0  0  0  0
 15 17  1  0  0  0  0
M  CHG  1   3   1
M  END
> <s_m_source_file>
AV-unprocessed.smi

> <i_m_source_file_index>
72

> <i_lp_mmshare_version>
43012

> <i_f3d_flags>
0

> <s_epik_input>
W05IMl1jMW5bY0hdbihjKD1PKW4xKVtDQEBIXTJPW0NASF0oW0NIMl1bT0hdKVtDQEBIXShbT0hdKVtDQEhdMltPSF0=

> <s_epik_cmdline>
J2VwaWtfcHl0aG9uJywgJy1waCcsICc3LjAnLCAnLXRuJywgJzgnLCAnLW1hJywgJzIwMCcsICctbWV0YWxfYmluZGluZycsICctaW1hZScsICc8aW5maWxlLm1hZT4nLCAnLW9tYWUnLCAnPG91dGZpbGUubWFlPic=

> <r_lp_tautomer_probability>
4.77166e-05

> <r_epik_Ionization_Penalty>
0.104979

> <r_epik_Ionization_Penalty_Charging>
0.0999619

> <r_epik_Ionization_Penalty_Neutral>
0.00501745

> <r_epik_State_Penalty>
2.51541

> <r_epik_Charging_Adjusted_Penalty>
2.61537

> <i_epik_Tot_Q>
1

> <i_epik_Tot_abs_Q>
1

> <r_epik_Metal_State_Penalty>
3.53763

> <b_epik_Metal_Only>
0

> <s_epik_Chemistry_Notes>
This compound contains an acetal/aminal-like group ( X-CH(R)-Y where X, Y are N, S, or O) that may be acid/base labile, releasing an aldehyde.

> <s_lp_Force_Field>
OPLS_2005

> <r_lp_Energy>
34.5988

> <b_lp_Chiralities_Consistent>
1

> <s_lp_Variant>
AV-unprocessed.smi:72-48

> <Gold.Version>
5.8.1

> <Gold.Id.Protein>
6NUR|6NUR_protein|mol2

> <Gold.PLP.Fitness>
46.8682

> <Gold.PLP.PLP>
-28.9101

> <Gold.PLP.part.hbond>
-8.2169

> <Gold.PLP.part.metal>
0.0000

> <Gold.PLP.part.buried>
-2.9138

> <Gold.PLP.part.nonpolar>
-18.3898

> <Gold.PLP.part.repulsive>
0.4241

> <Gold.PLP.ligand.clash>
0.0000

> <Gold.PLP.ligand.torsion>
0.0954

> <Gold.PLP.Chemscore.Hbond>
5.7103

> <Gold.PLP.Chemscore.CHOScore>
0.3330

> <Gold.PLP.Chemscore.Metal>
0.0000

> <Gold.Chemscore.Hbonds>
donor molecule, donor type, donor heavy atom, donor atom, acceptor molecule, acceptor atom, score
      L1  H     1    23       P1 10175  1.00
      L1  H     3    30       P1 10171  0.75
      L1  H    10    27       P1  7921  0.94
      L1  H    12    28       P1 10747  0.83
      L1  H    14    29       P1 10747  1.00
      P1  H 10192 10197       L1    10  0.90
      L1  C     4    24       P1 10186  0.35

> <Gold.PLP.Chemscore.Internal.Correction>
0.0189

> <Gold.Rescore>
     Score         DG    S(hbond)    S(metal)    S(lipo)     H(rot)  DE(clash)    DE(int)     intcor
     16.82     -17.86       5.30        0.00      43.65       4.08       0.54       0.50       ----

> <Gold.Chemscore.Fitness>
16.8173

> <Gold.Chemscore.DG>
-17.8554

> <Gold.Chemscore.ZeroCoef>
-5.4800

> <Gold.Chemscore.Hbond>
5.3021

> <Gold.Chemscore.Metal>
0.0000

> <Gold.Chemscore.Lipo>
43.6477

> <Gold.Chemscore.Internal_Hbond>
0.0000

> <Gold.Chemscore.DEClash>
0.5369

> <Gold.Chemscore.DEInternal>
0.5012

> <Gold.Chemscore.Rot>
4.0783

> <Gold.Chemscore.Internal.Correction>
   9.000000E+99

> <Gold.Chemscore.Hbonds>
donor molecule, donor type, donor heavy atom, donor atom, acceptor molecule, acceptor atom, score
      L1  H     1    23       P1 10175  0.99
      L1  H     3    30       P1 10171  0.75
      L1  H    10    27       P1  7921  0.89
      L1  H    12    28       P1 10747  0.82
      L1  H    14    29       P1 10747  1.00
      P1  H 10192 10197       L1    10  0.17

> <Gold.Chemscore.Hbond.Weighted>
-17.7091

> <Gold.Chemscore.Metal.Weighted>
-0.0000

> <Gold.Chemscore.Lipo.Weighted>
-5.1068

> <Gold.Chemscore.Internal_Hbond.Weighted>
0.0000

> <Gold.Chemscore.DEClash.Weighted>
0.5369

> <Gold.Chemscore.DEInternal.Weighted>
0.5012

> <Gold.Chemscore.Rot.Weighted>
10.4404

> <Gold.Chemscore.Internal.Correction.Weighted>
   9.000000E+99

> <Gold.Protein.RotatedTorsions>
[ 6907 6896 6895 6894 ] final   66.29 input  -60.11 | X-H torsion
[ 7974 7965 7964 7962 ] final  161.27 input  175.53 | X-H torsion
[ 8008 7997 7996 7995 ] final   73.29 input   59.86 | X-H torsion
[ 10167 10162 10161 10158 ] final  162.92 input  -65.29 | X-H torsion
[ 10718 10713 10712 10709 ] final    1.27 input   66.30 | X-H torsion
[ 10763 10752 10751 10750 ] final  -52.20 input  -60.55 | X-H torsion
[ 11005 11000 10999 10996 ] final   36.04 input  -57.11 | X-H torsion

> <Gold.Protein.ActiveResidues>
 VAL166  LYS551  ARG553  GLY616  TRP617  ASP618  TYR619  PRO620  LYS621  CYS622 
 ASP623  PHE694  ASN695  SER759  ASP760  ASP761  ALA762  ILE779  LEU786  VAL792 
 PHE793  MET794  SER795  GLU796  ALA797  LYS798  CYS799  TRP800  GLU811  SER814 

> <Gold.Protein.RotatedAtoms>
  152.4470  134.5474  159.9856 H   0  0  0  0  0  0  0  0  0  0  0  0  # atno 6907 bound_to 6896
  151.5557  133.3405  159.2969 H   0  0  0  0  0  0  0  0  0  0  0  0  # atno 6908 bound_to 6896
  150.8388  134.7705  159.6979 H   0  0  0  0  0  0  0  0  0  0  0  0  # atno 6909 bound_to 6896
  144.7694  139.7874  143.6302 H   0  0  0  0  0  0  0  0  0  0  0  0  # atno 7974 bound_to 7965
  155.7814  140.3482  155.5299 H   0  0  0  0  0  0  0  0  0  0  0  0  # atno 8008 bound_to 7997
  155.8725  140.0989  157.1561 H   0  0  0  0  0  0  0  0  0  0  0  0  # atno 8009 bound_to 7997
  154.4018  140.1338  156.4083 H   0  0  0  0  0  0  0  0  0  0  0  0  # atno 8010 bound_to 7997
  139.4867  144.4389  151.8976 H   0  0  0  0  0  0  0  0  0  0  0  0  # atno 10167 bound_to 10162
  156.8457  130.5536  149.5674 H   0  0  0  0  0  0  0  0  0  0  0  0  # atno 10718 bound_to 10713
  154.1389  135.6508  153.4938 H   0  0  0  0  0  0  0  0  0  0  0  0  # atno 10763 bound_to 10752
  153.0172  135.5311  154.6925 H   0  0  0  0  0  0  0  0  0  0  0  0  # atno 10764 bound_to 10752
  154.6181  135.2961  155.0328 H   0  0  0  0  0  0  0  0  0  0  0  0  # atno 10765 bound_to 10752
  140.2366  134.3464  155.7942 H   0  0  0  0  0  0  0  0  0  0  0  0  # atno 11005 bound_to 11000
  146.1829  139.5030  142.9855 LP  0  0  0  0  0  0  0  0  0  0  0  0  # atno 17320 bound_to 7965
  145.6369  141.0292  143.1833 LP  0  0  0  0  0  0  0  0  0  0  0  0  # atno 17321 bound_to 7965
  140.3840  144.2700  150.5906 LP  0  0  0  0  0  0  0  0  0  0  0  0  # atno 17342 bound_to 10162
  140.5207  143.2266  151.8393 LP  0  0  0  0  0  0  0  0  0  0  0  0  # atno 17343 bound_to 10162
  156.0856  130.5855  150.9642 LP  0  0  0  0  0  0  0  0  0  0  0  0  # atno 17370 bound_to 10713
  157.6331  131.0919  150.8402 LP  0  0  0  0  0  0  0  0  0  0  0  0  # atno 17371 bound_to 10713
  141.2214  133.7275  156.8817 LP  0  0  0  0  0  0  0  0  0  0  0  0  # atno 17394 bound_to 11000
  140.1696  134.9109  157.2817 LP  0  0  0  0  0  0  0  0  0  0  0  0  # atno 17395 bound_to 11000

$$$$
