AV-unprocessed.smi:2881|AV-procd|sdf|11066|dock6
  -GOLD-   2272015543D 1   1.00000     0.00000
 Structure written by MMmdl.
 40 42  0  0  0  0  0  0  0  0  1 V2000
  144.0108  133.0294  150.2891 C   0  0  0  0  0  0  0  0  0  0  0  0
  144.8507  134.1226  150.8819 C   0  0  0  0  0  0  0  0  0  0  0  0
  144.4375  135.4283  151.2773 C   0  0  0  0  0  0  0  0  0  0  0  0
  145.5764  136.0134  151.7561 C   0  0  0  0  0  0  0  0  0  0  0  0
  145.8173  137.3653  152.3504 C   0  0  0  0  0  0  0  0  0  0  0  0
  146.3044  137.2394  153.7944 C   0  0  0  0  0  0  0  0  0  0  0  0
  145.5473  137.5076  154.7266 O   0  0  0  0  0  0  0  0  0  0  0  0
  147.5809  136.8583  153.9596 N   0  0  0  0  0  0  0  0  0  0  0  0
  148.2959  136.8000  155.2335 C   0  0  1  0  0  0  0  0  0  0  0  0
  148.9210  135.4020  155.4295 C   0  0  2  0  0  0  0  0  0  0  0  0
  149.3374  135.2393  156.9027 C   0  0  0  0  0  0  0  0  0  0  0  0
  150.5593  136.1715  157.0091 C   0  0  0  0  0  0  0  0  0  0  0  0
  150.6821  136.7418  155.5817 C   0  0  1  0  0  0  0  0  0  0  0  0
  150.2729  135.5401  154.7395 C   0  0  0  0  0  0  0  0  0  0  0  0
  149.5317  137.7473  155.3287 C   0  0  1  0  0  0  0  0  0  0  0  0
  149.7816  138.6688  154.1110 C   0  0  0  0  0  0  0  0  0  0  0  0
  150.8544  139.5499  154.3673 O   0  0  0  0  0  0  0  0  0  0  0  0
  146.5750  135.0756  151.6196 N   0  0  0  0  0  0  0  0  0  0  0  0
  146.1427  133.9164  151.0905 N   0  0  0  0  0  0  0  0  0  0  0  0
  147.5397  135.2084  151.8889 H   0  0  0  0  0  0  0  0  0  0  0  0
  143.0264  132.9973  150.7563 H   0  0  0  0  0  0  0  0  0  0  0  0
  144.4708  132.0496  150.4234 H   0  0  0  0  0  0  0  0  0  0  0  0
  143.8662  133.1861  149.2202 H   0  0  0  0  0  0  0  0  0  0  0  0
  143.4510  135.8645  151.2264 H   0  0  0  0  0  0  0  0  0  0  0  0
  144.9001  137.9550  152.3318 H   0  0  0  0  0  0  0  0  0  0  0  0
  146.5541  137.9101  151.7585 H   0  0  0  0  0  0  0  0  0  0  0  0
  148.1203  136.6543  153.1307 H   0  0  0  0  0  0  0  0  0  0  0  0
  147.5954  137.0043  156.0455 H   0  0  0  0  0  0  0  0  0  0  0  0
  148.2995  134.5821  155.0673 H   0  0  0  0  0  0  0  0  0  0  0  0
  148.5407  135.5131  157.5955 H   0  0  0  0  0  0  0  0  0  0  0  0
  149.6232  134.2081  157.1138 H   0  0  0  0  0  0  0  0  0  0  0  0
  150.4255  136.9516  157.7594 H   0  0  0  0  0  0  0  0  0  0  0  0
  151.4506  135.6027  157.2769 H   0  0  0  0  0  0  0  0  0  0  0  0
  151.6755  137.1353  155.3645 H   0  0  0  0  0  0  0  0  0  0  0  0
  150.9205  134.6728  154.8800 H   0  0  0  0  0  0  0  0  0  0  0  0
  150.1981  135.7574  153.6731 H   0  0  0  0  0  0  0  0  0  0  0  0
  149.4131  138.3918  156.2014 H   0  0  0  0  0  0  0  0  0  0  0  0
  149.9991  138.0963  153.2090 H   0  0  0  0  0  0  0  0  0  0  0  0
  148.9013  139.2774  153.9047 H   0  0  0  0  0  0  0  0  0  0  0  0
  150.9330  139.6622  155.3027 H   0  0  0  0  0  0  0  0  0  0  0  0
  1 21  1  0  0  0  0
  1 22  1  0  0  0  0
  1 23  1  0  0  0  0
  1  2  1  0  0  0  0
  2 19  2  0  0  0  0
  2  3  1  0  0  0  0
  3  4  2  0  0  0  0
  3 24  1  0  0  0  0
  4 18  1  0  0  0  0
  4  5  1  0  0  0  0
  5  6  1  0  0  0  0
  5 25  1  0  0  0  0
  5 26  1  0  0  0  0
  6  7  2  0  0  0  0
  6  8  1  0  0  0  0
  8  9  1  0  0  0  0
  8 27  1  0  0  0  0
  9 15  1  0  0  0  0
  9 10  1  0  0  0  0
  9 28  1  0  0  0  0
 10 14  1  0  0  0  0
 10 11  1  0  0  0  0
 10 29  1  0  0  0  0
 11 12  1  0  0  0  0
 11 30  1  0  0  0  0
 11 31  1  0  0  0  0
 12 13  1  0  0  0  0
 12 32  1  0  0  0  0
 12 33  1  0  0  0  0
 13 14  1  0  0  0  0
 13 15  1  0  0  0  0
 13 34  1  0  0  0  0
 14 35  1  0  0  0  0
 14 36  1  0  0  0  0
 15 16  1  0  0  0  0
 15 37  1  0  0  0  0
 16 17  1  0  0  0  0
 16 38  1  0  0  0  0
 16 39  1  0  0  0  0
 17 40  1  0  0  0  0
 18 19  1  0  0  0  0
 18 20  1  0  0  0  0
M  END
> <s_m_source_file>
AV-unprocessed.smi

> <i_m_source_file_index>
2881

> <i_lp_mmshare_version>
43012

> <i_f3d_flags>
0

> <s_epik_input>
W0NIM11jMVtjSF1jKG5bbkhdMSlbQ0gyXUMoPU8pW05IXVtDQEhdKFtDQEBIXTIzKVtDQEhdKFtDSDJdW09IXSlbQ0BASF0oW0NIMl0zKVtDSDJdW0NIMl0y

> <s_epik_cmdline>
J2VwaWtfcHl0aG9uJywgJy1waCcsICc3LjAnLCAnLXRuJywgJzgnLCAnLW1hJywgJzIwMCcsICctbWV0YWxfYmluZGluZycsICctaW1hZScsICc8aW5maWxlLm1hZT4nLCAnLW9tYWUnLCAnPG91dGZpbGUubWFlPic=

> <r_lp_tautomer_probability>
0.5

> <r_epik_Ionization_Penalty>
0.00013396

> <r_epik_Ionization_Penalty_Charging>
0

> <r_epik_Ionization_Penalty_Neutral>
0.00013396

> <r_epik_State_Penalty>
0.41068

> <r_epik_Charging_Adjusted_Penalty>
0.41068

> <i_epik_Tot_Q>
0

> <i_epik_Tot_abs_Q>
0

> <r_epik_Metal_State_Penalty>
0.41066

> <b_epik_Metal_Only>
0

> <s_lp_Force_Field>
OPLS_2005

> <r_lp_Energy>
46.6503

> <b_lp_Chiralities_Consistent>
1

> <s_lp_Variant>
AV-unprocessed.smi:2881-12

> <Gold.Version>
5.8.1

> <Gold.Id.Protein>
6NUR|6NUR_protein|mol2

> <Gold.PLP.Fitness>
33.8340

> <Gold.PLP.PLP>
-25.2982

> <Gold.PLP.part.hbond>
-3.0000

> <Gold.PLP.part.metal>
0.0000

> <Gold.PLP.part.buried>
-3.9869

> <Gold.PLP.part.nonpolar>
-18.4482

> <Gold.PLP.part.repulsive>
0.3308

> <Gold.PLP.ligand.clash>
0.0000

> <Gold.PLP.ligand.torsion>
0.2331

> <Gold.PLP.Chemscore.Hbond>
2.9920

> <Gold.PLP.Chemscore.CHOScore>
0.0000

> <Gold.PLP.Chemscore.Metal>
0.0000

> <Gold.Chemscore.Hbonds>
donor molecule, donor type, donor heavy atom, donor atom, acceptor molecule, acceptor atom, score
      L1  H     8    27       P1  7948  1.00
      L1  H    18    20       P1  7948  0.96
      P1  H  7989  7998       L1    17  1.00

> <Gold.PLP.Chemscore.Internal.Correction>
0.0260

> <Gold.Rescore>
     Score         DG    S(hbond)    S(metal)    S(lipo)     H(rot)  DE(clash)    DE(int)     intcor
     16.49     -16.76       2.92        0.00      62.83       2.28       0.00       0.27       ----

> <Gold.Chemscore.Fitness>
16.4911

> <Gold.Chemscore.DG>
-16.7611

> <Gold.Chemscore.ZeroCoef>
-5.4800

> <Gold.Chemscore.Hbond>
2.9206

> <Gold.Chemscore.Metal>
0.0000

> <Gold.Chemscore.Lipo>
62.8333

> <Gold.Chemscore.Internal_Hbond>
0.0000

> <Gold.Chemscore.DEClash>
0.0000

> <Gold.Chemscore.DEInternal>
0.2701

> <Gold.Chemscore.Rot>
2.2755

> <Gold.Chemscore.Internal.Correction>
   9.000000E+99

> <Gold.Chemscore.Hbonds>
donor molecule, donor type, donor heavy atom, donor atom, acceptor molecule, acceptor atom, score
      L1  H     8    27       P1  7948  0.97
      L1  H    18    20       P1  7948  0.87
      P1  H  7989  7998       L1    17  0.82

> <Gold.Chemscore.Hbond.Weighted>
-9.7548

> <Gold.Chemscore.Metal.Weighted>
-0.0000

> <Gold.Chemscore.Lipo.Weighted>
-7.3515

> <Gold.Chemscore.Internal_Hbond.Weighted>
0.0000

> <Gold.Chemscore.DEClash.Weighted>
0.0000

> <Gold.Chemscore.DEInternal.Weighted>
0.2701

> <Gold.Chemscore.Rot.Weighted>
5.8252

> <Gold.Chemscore.Internal.Correction.Weighted>
   9.000000E+99

> <Gold.Protein.RotatedTorsions>
[ 6907 6896 6895 6894 ] final  -25.42 input  -60.11 | X-H torsion
[ 7974 7965 7964 7962 ] final   16.72 input  175.53 | X-H torsion
[ 8008 7997 7996 7995 ] final   -2.81 input   59.86 | X-H torsion
[ 10167 10162 10161 10158 ] final -150.70 input  -65.29 | X-H torsion
[ 10718 10713 10712 10709 ] final -131.19 input   66.30 | X-H torsion
[ 10763 10752 10751 10750 ] final  164.79 input  -60.55 | X-H torsion
[ 11005 11000 10999 10996 ] final -131.39 input  -57.11 | X-H torsion

> <Gold.Protein.ActiveResidues>
 VAL166  LYS551  ARG553  GLY616  TRP617  ASP618  TYR619  PRO620  LYS621  CYS622 
 ASP623  PHE694  ASN695  SER759  ASP760  ASP761  ALA762  ILE779  LEU786  VAL792 
 PHE793  MET794  SER795  GLU796  ALA797  LYS798  CYS799  TRP800  GLU811  SER814 

> <Gold.Protein.RotatedAtoms>
  151.1754  135.0337  159.8769 H   0  0  0  0  0  0  0  0  0  0  0  0  # atno 6907 bound_to 6896
  152.5447  134.1123  159.8374 H   0  0  0  0  0  0  0  0  0  0  0  0  # atno 6908 bound_to 6896
  151.1234  133.5041  159.2633 H   0  0  0  0  0  0  0  0  0  0  0  0  # atno 6909 bound_to 6896
  146.2241  139.8706  142.8588 H   0  0  0  0  0  0  0  0  0  0  0  0  # atno 7974 bound_to 7965
  154.6317  140.2525  155.7426 H   0  0  0  0  0  0  0  0  0  0  0  0  # atno 8008 bound_to 7997
  156.2483  140.2905  156.0592 H   0  0  0  0  0  0  0  0  0  0  0  0  # atno 8009 bound_to 7997
  155.1734  140.0387  157.2858 H   0  0  0  0  0  0  0  0  0  0  0  0  # atno 8010 bound_to 7997
  139.7331  143.8777  152.2541 H   0  0  0  0  0  0  0  0  0  0  0  0  # atno 10167 bound_to 10162
  156.2219  130.6984  151.0765 H   0  0  0  0  0  0  0  0  0  0  0  0  # atno 10718 bound_to 10713
  154.3142  135.2757  155.2551 H   0  0  0  0  0  0  0  0  0  0  0  0  # atno 10763 bound_to 10752
  154.4933  135.5827  153.6479 H   0  0  0  0  0  0  0  0  0  0  0  0  # atno 10764 bound_to 10752
  152.9884  135.6140  154.3321 H   0  0  0  0  0  0  0  0  0  0  0  0  # atno 10765 bound_to 10752
  140.9263  134.1379  157.4273 H   0  0  0  0  0  0  0  0  0  0  0  0  # atno 11005 bound_to 11000
  145.2611  141.0077  143.3826 LP  0  0  0  0  0  0  0  0  0  0  0  0  # atno 17320 bound_to 7965
  144.9297  139.4313  143.6501 LP  0  0  0  0  0  0  0  0  0  0  0  0  # atno 17321 bound_to 7965
  139.8706  144.7070  150.8992 LP  0  0  0  0  0  0  0  0  0  0  0  0  # atno 17342 bound_to 10162
  140.7774  143.3741  151.1595 LP  0  0  0  0  0  0  0  0  0  0  0  0  # atno 17343 bound_to 10162
  157.7092  131.0742  150.6562 LP  0  0  0  0  0  0  0  0  0  0  0  0  # atno 17370 bound_to 10713
  156.6625  130.4516  149.5683 LP  0  0  0  0  0  0  0  0  0  0  0  0  # atno 17371 bound_to 10713
  139.8786  134.9989  156.5926 LP  0  0  0  0  0  0  0  0  0  0  0  0  # atno 17394 bound_to 11000
  140.7922  133.8573  155.8656 LP  0  0  0  0  0  0  0  0  0  0  0  0  # atno 17395 bound_to 11000

$$$$
