AV-unprocessed.smi:2999|AV-procd|sdf|11420|dock6
  -GOLD-   2272016343D 1   1.00000     0.00000
 Structure written by MMmdl.
 38 40  0  0  0  0  0  0  0  0  2 V2000
  149.7113  133.2813  155.3518 O   0  0  0  0  0  0  0  0  0  0  0  0
  149.4151  134.0740  154.4577 C   0  0  0  0  0  0  0  0  0  0  0  0
  148.6426  133.7515  153.4107 N   0  0  0  0  0  0  0  0  0  0  0  0
  148.0501  132.4375  153.1745 C   0  0  0  0  0  0  0  0  0  0  0  0
  146.7743  132.4908  152.3088 C   0  0  1  0  0  0  0  0  0  0  0  0
  146.8845  133.4476  151.0988 C   0  0  0  0  0  0  0  0  0  0  0  0
  145.6534  133.4228  150.2741 N   0  3  2  0  0  0  0  0  0  0  0  0
  144.5308  134.1876  150.8654 C   0  0  0  0  0  0  0  0  0  0  0  0
  144.3953  135.5854  150.3089 C   0  0  0  0  0  0  0  0  0  0  0  0
  144.9739  135.3734  151.6903 C   0  0  0  0  0  0  0  0  0  0  0  0
  145.2900  132.0339  149.9059 C   0  0  0  0  0  0  0  0  0  0  0  0
  145.2274  131.1237  151.1462 C   0  0  0  0  0  0  0  0  0  0  0  0
  146.4640  131.1803  151.8458 O   0  0  0  0  0  0  0  0  0  0  0  0
  149.8136  135.3562  154.3911 N   0  0  0  0  0  0  0  0  0  0  0  0
  150.6431  136.0652  155.2992 C   0  0  0  0  0  0  0  0  0  0  0  0
  151.6061  136.9190  154.9327 N   0  0  0  0  0  0  0  0  0  0  0  0
  152.2625  137.4728  156.0347 C   0  0  0  0  0  0  0  0  0  0  0  0
  151.7815  137.0277  157.2408 C   0  0  0  0  0  0  0  0  0  0  0  0
  150.4780  135.8876  157.0399 S   0  0  0  0  0  0  0  0  0  0  0  0
  148.4460  134.4684  152.7276 H   0  0  0  0  0  0  0  0  0  0  0  0
  148.7834  131.7625  152.7302 H   0  0  0  0  0  0  0  0  0  0  0  0
  147.8036  132.0152  154.1489 H   0  0  0  0  0  0  0  0  0  0  0  0
  145.9622  132.8204  152.9584 H   0  0  0  0  0  0  0  0  0  0  0  0
  147.0975  134.4653  151.4278 H   0  0  0  0  0  0  0  0  0  0  0  0
  147.7147  133.1490  150.4577 H   0  0  0  0  0  0  0  0  0  0  0  0
  143.6448  133.6234  151.1497 H   0  0  0  0  0  0  0  0  0  0  0  0
  145.0789  135.8942  149.5198 H   0  0  0  0  0  0  0  0  0  0  0  0
  143.3938  136.0064  150.2474 H   0  0  0  0  0  0  0  0  0  0  0  0
  144.3532  135.6542  152.5388 H   0  0  0  0  0  0  0  0  0  0  0  0
  146.0413  135.5437  151.8189 H   0  0  0  0  0  0  0  0  0  0  0  0
  144.3417  132.0205  149.3676 H   0  0  0  0  0  0  0  0  0  0  0  0
  146.0441  131.6528  149.2161 H   0  0  0  0  0  0  0  0  0  0  0  0
  144.4074  131.4075  151.8071 H   0  0  0  0  0  0  0  0  0  0  0  0
  145.0435  130.0927  150.8433 H   0  0  0  0  0  0  0  0  0  0  0  0
  149.4861  135.8886  153.5989 H   0  0  0  0  0  0  0  0  0  0  0  0
  153.0629  138.1785  155.8689 H   0  0  0  0  0  0  0  0  0  0  0  0
  152.1140  137.3008  158.2312 H   0  0  0  0  0  0  0  0  0  0  0  0
  145.8761  133.8987  149.4115 H   0  0  0  0  0  0  0  0  0  0  0  0
  1  2  2  0  0  0  0
  2  3  1  0  0  0  0
  2 14  1  0  0  0  0
  3  4  1  0  0  0  0
  3 20  1  0  0  0  0
  4  5  1  0  0  0  0
  4 21  1  0  0  0  0
  4 22  1  0  0  0  0
  5 13  1  0  0  0  0
  5  6  1  0  0  0  0
  5 23  1  0  0  0  0
  6  7  1  0  0  0  0
  6 24  1  0  0  0  0
  6 25  1  0  0  0  0
  7  8  1  0  0  0  0
  7 11  1  0  0  0  0
  7 38  1  0  0  0  0
  8 10  1  0  0  0  0
  8  9  1  0  0  0  0
  8 26  1  0  0  0  0
  9 10  1  0  0  0  0
  9 27  1  0  0  0  0
  9 28  1  0  0  0  0
 10 29  1  0  0  0  0
 10 30  1  0  0  0  0
 11 12  1  0  0  0  0
 11 31  1  0  0  0  0
 11 32  1  0  0  0  0
 12 13  1  0  0  0  0
 12 33  1  0  0  0  0
 12 34  1  0  0  0  0
 14 15  1  0  0  0  0
 14 35  1  0  0  0  0
 15 19  1  0  0  0  0
 15 16  2  0  0  0  0
 16 17  1  0  0  0  0
 17 18  2  0  0  0  0
 17 36  1  0  0  0  0
 18 19  1  0  0  0  0
 18 37  1  0  0  0  0
M  CHG  1   7   1
M  END
> <s_m_source_file>
AV-unprocessed.smi

> <i_m_source_file_index>
2999

> <i_lp_mmshare_version>
43012

> <i_f3d_flags>
0

> <s_epik_input>
czFbY0hdW2NIXW5jMVtOSF1DKD1PKVtOSF1bQ0gyXVtDQEBIXTJbQ0gyXU4oW0NIMl1bQ0gyXU8yKVtDSF0zW0NIMl1bQ0gyXTM=

> <s_epik_cmdline>
J2VwaWtfcHl0aG9uJywgJy1waCcsICc3LjAnLCAnLXRuJywgJzgnLCAnLW1hJywgJzIwMCcsICctbWV0YWxfYmluZGluZycsICctaW1hZScsICc8aW5maWxlLm1hZT4nLCAnLW9tYWUnLCAnPG91dGZpbGUubWFlPic=

> <r_lp_tautomer_probability>
0.999

> <r_epik_Ionization_Penalty>
1.55235

> <r_epik_Ionization_Penalty_Charging>
1.55221

> <r_epik_Ionization_Penalty_Neutral>
0.000139685

> <r_epik_State_Penalty>
1.64652

> <r_epik_Charging_Adjusted_Penalty>
3.19873

> <i_epik_Tot_Q>
1

> <i_epik_Tot_abs_Q>
1

> <r_epik_Metal_State_Penalty>
1.68612

> <b_epik_Metal_Only>
0

> <s_lp_Force_Field>
OPLS_2005

> <r_lp_Energy>
24.3861

> <b_lp_Chiralities_Consistent>
1

> <s_lp_Variant>
AV-unprocessed.smi:2999-4

> <Gold.Version>
5.8.1

> <Gold.Id.Protein>
6NUR|6NUR_protein|mol2

> <Gold.PLP.Fitness>
40.9293

> <Gold.PLP.PLP>
-30.8470

> <Gold.PLP.part.hbond>
-4.1308

> <Gold.PLP.part.metal>
0.0000

> <Gold.PLP.part.buried>
-4.2166

> <Gold.PLP.part.nonpolar>
-23.3305

> <Gold.PLP.part.repulsive>
1.1063

> <Gold.PLP.ligand.clash>
0.0000

> <Gold.PLP.ligand.torsion>
1.4880

> <Gold.PLP.Chemscore.Hbond>
3.9272

> <Gold.PLP.Chemscore.CHOScore>
0.0000

> <Gold.PLP.Chemscore.Metal>
0.0000

> <Gold.Chemscore.Hbonds>
donor molecule, donor type, donor heavy atom, donor atom, acceptor molecule, acceptor atom, score
      L1  H     3    20       P1  7948  0.83
      L1  H     7    38       P1  7921  1.00
      L1  H    14    35       P1  7948  1.00
      P1  H 10752 10765       L1    16  0.95

> <Gold.PLP.Chemscore.Internal.Correction>
1.2768

> <Gold.Rescore>
     Score         DG    S(hbond)    S(metal)    S(lipo)     H(rot)  DE(clash)    DE(int)     intcor
     14.12     -15.61       1.81        0.00      69.55       1.58       0.05       1.44       ----

> <Gold.Chemscore.Fitness>
14.1204

> <Gold.Chemscore.DG>
-15.6149

> <Gold.Chemscore.ZeroCoef>
-5.4800

> <Gold.Chemscore.Hbond>
1.8086

> <Gold.Chemscore.Metal>
0.0000

> <Gold.Chemscore.Lipo>
69.5522

> <Gold.Chemscore.Internal_Hbond>
0.0000

> <Gold.Chemscore.DEClash>
0.0542

> <Gold.Chemscore.DEInternal>
1.4402

> <Gold.Chemscore.Rot>
1.5795

> <Gold.Chemscore.Internal.Correction>
   9.000000E+99

> <Gold.Chemscore.Hbonds>
donor molecule, donor type, donor heavy atom, donor atom, acceptor molecule, acceptor atom, score
      L1  H     3    20       P1  7948  0.13
      L1  H     7    38       P1  7921  0.24
      L1  H    14    35       P1  7948  0.39
      P1  H 10752 10765       L1    16  0.05

> <Gold.Chemscore.Hbond.Weighted>
-6.0407

> <Gold.Chemscore.Metal.Weighted>
-0.0000

> <Gold.Chemscore.Lipo.Weighted>
-8.1376

> <Gold.Chemscore.Internal_Hbond.Weighted>
0.0000

> <Gold.Chemscore.DEClash.Weighted>
0.0542

> <Gold.Chemscore.DEInternal.Weighted>
1.4402

> <Gold.Chemscore.Rot.Weighted>
4.0434

> <Gold.Chemscore.Internal.Correction.Weighted>
   9.000000E+99

> <Gold.Protein.RotatedTorsions>
[ 6907 6896 6895 6894 ] final  162.91 input  -60.11 | X-H torsion
[ 7974 7965 7964 7962 ] final -116.20 input  175.53 | X-H torsion
[ 8008 7997 7996 7995 ] final   87.34 input   59.86 | X-H torsion
[ 10167 10162 10161 10158 ] final -162.89 input  -65.29 | X-H torsion
[ 10718 10713 10712 10709 ] final  -36.88 input   66.30 | X-H torsion
[ 10763 10752 10751 10750 ] final  165.38 input  -60.55 | X-H torsion
[ 11005 11000 10999 10996 ] final  163.78 input  -57.11 | X-H torsion

> <Gold.Protein.ActiveResidues>
 VAL166  LYS551  ARG553  GLY616  TRP617  ASP618  TYR619  PRO620  LYS621  CYS622 
 ASP623  PHE694  ASN695  SER759  ASP760  ASP761  ALA762  ILE779  LEU786  VAL792 
 PHE793  MET794  SER795  GLU796  ALA797  LYS798  CYS799  TRP800  GLU811  SER814 

> <Gold.Protein.RotatedAtoms>
  151.9332  133.3617  159.3938 H   0  0  0  0  0  0  0  0  0  0  0  0  # atno 6907 bound_to 6896
  150.7013  134.4516  159.5348 H   0  0  0  0  0  0  0  0  0  0  0  0  # atno 6908 bound_to 6896
  152.2160  134.8457  160.0542 H   0  0  0  0  0  0  0  0  0  0  0  0  # atno 6909 bound_to 6896
  145.0995  140.8543  143.3934 H   0  0  0  0  0  0  0  0  0  0  0  0  # atno 7974 bound_to 7965
  155.9741  140.3383  155.6603 H   0  0  0  0  0  0  0  0  0  0  0  0  # atno 8008 bound_to 7997
  155.6635  140.0719  157.2564 H   0  0  0  0  0  0  0  0  0  0  0  0  # atno 8009 bound_to 7997
  154.4174  140.1704  156.1789 H   0  0  0  0  0  0  0  0  0  0  0  0  # atno 8010 bound_to 7997
  139.6360  144.0349  152.2054 H   0  0  0  0  0  0  0  0  0  0  0  0  # atno 10167 bound_to 10162
  156.3217  130.4266  149.7954 H   0  0  0  0  0  0  0  0  0  0  0  0  # atno 10718 bound_to 10713
  154.3232  135.2755  155.2509 H   0  0  0  0  0  0  0  0  0  0  0  0  # atno 10763 bound_to 10752
  154.4853  135.5847  153.6423 H   0  0  0  0  0  0  0  0  0  0  0  0  # atno 10764 bound_to 10752
  152.9874  135.6121  154.3418 H   0  0  0  0  0  0  0  0  0  0  0  0  # atno 10765 bound_to 10752
  140.2392  134.8064  157.3394 H   0  0  0  0  0  0  0  0  0  0  0  0  # atno 11005 bound_to 11000
  145.0972  139.2848  143.5705 LP  0  0  0  0  0  0  0  0  0  0  0  0  # atno 17320 bound_to 7965
  146.3530  140.0527  142.8635 LP  0  0  0  0  0  0  0  0  0  0  0  0  # atno 17321 bound_to 7965
  140.0027  144.6282  150.7716 LP  0  0  0  0  0  0  0  0  0  0  0  0  # atno 17342 bound_to 10162
  140.7465  143.2892  151.3377 LP  0  0  0  0  0  0  0  0  0  0  0  0  # atno 17343 bound_to 10162
  156.5259  130.8236  151.3220 LP  0  0  0  0  0  0  0  0  0  0  0  0  # atno 17370 bound_to 10713
  157.7413  130.9867  150.2437 LP  0  0  0  0  0  0  0  0  0  0  0  0  # atno 17371 bound_to 10713
  140.1671  134.4656  155.7856 LP  0  0  0  0  0  0  0  0  0  0  0  0  # atno 17394 bound_to 11000
  141.2212  133.6925  156.7643 LP  0  0  0  0  0  0  0  0  0  0  0  0  # atno 17395 bound_to 11000

$$$$
