AV-unprocessed.smi:2784|AV-procd|sdf|10736|dock6
  -GOLD-   2272015173D 1   1.00000     0.00000
 Structure written by MMmdl.
 31 32  0  0  0  0  0  0  0  0  1 V2000
  151.0120  141.2051  155.9278 C   0  0  0  0  0  0  0  0  0  0  0  0
  150.5412  139.9051  156.2436 O   0  0  0  0  0  0  0  0  0  0  0  0
  151.5298  138.8872  156.1092 C   0  0  2  0  0  0  0  0  0  0  0  0
  151.6113  138.5488  154.6197 C   0  0  0  0  0  0  0  0  0  0  0  0
  150.4589  137.5747  154.3916 C   0  0  0  0  0  0  0  0  0  0  0  0
  150.4071  136.7298  155.6672 C   0  0  0  0  0  0  0  0  0  0  0  0
  151.0716  137.5692  156.7766 C   0  0  2  0  0  0  0  0  0  0  0  0
  150.1532  137.7819  157.8940 N   0  0  0  0  0  0  0  0  0  0  0  0
  149.5176  136.8180  158.5762 C   0  0  0  0  0  0  0  0  0  0  0  0
  149.6618  135.6244  158.2927 O   0  0  0  0  0  0  0  0  0  0  0  0
  148.7445  137.3803  159.5821 N   0  0  0  0  0  0  0  0  0  0  0  0
  148.1098  136.6186  160.4197 C   0  0  0  0  0  0  0  0  0  0  0  0
  148.0072  135.2366  160.5569 N   0  0  0  0  0  0  0  0  0  0  0  0
  147.1954  134.9732  161.6246 C   0  0  0  0  0  0  0  0  0  0  0  0
  146.8034  136.1344  162.1401 C   0  0  0  0  0  0  0  0  0  0  0  0
  147.3464  137.1586  161.4239 O   0  0  0  0  0  0  0  0  0  0  0  0
  150.2177  141.9321  156.0951 H   0  0  0  0  0  0  0  0  0  0  0  0
  151.3109  141.2669  154.8808 H   0  0  0  0  0  0  0  0  0  0  0  0
  151.8618  141.4853  156.5509 H   0  0  0  0  0  0  0  0  0  0  0  0
  152.5020  139.2132  156.4848 H   0  0  0  0  0  0  0  0  0  0  0  0
  151.5544  139.4298  153.9793 H   0  0  0  0  0  0  0  0  0  0  0  0
  152.5573  138.0478  154.4093 H   0  0  0  0  0  0  0  0  0  0  0  0
  149.5274  138.1321  154.2820 H   0  0  0  0  0  0  0  0  0  0  0  0
  150.5916  136.9707  153.4937 H   0  0  0  0  0  0  0  0  0  0  0  0
  149.3819  136.4420  155.9049 H   0  0  0  0  0  0  0  0  0  0  0  0
  150.9704  135.8069  155.5224 H   0  0  0  0  0  0  0  0  0  0  0  0
  151.9519  137.0218  157.1192 H   0  0  0  0  0  0  0  0  0  0  0  0
  150.0029  138.7383  158.1811 H   0  0  0  0  0  0  0  0  0  0  0  0
  148.4363  134.5194  159.9900 H   0  0  0  0  0  0  0  0  0  0  0  0
  146.9796  133.9539  161.9092 H   0  0  0  0  0  0  0  0  0  0  0  0
  146.1684  136.3890  162.9760 H   0  0  0  0  0  0  0  0  0  0  0  0
  1  2  1  0  0  0  0
  1 17  1  0  0  0  0
  1 18  1  0  0  0  0
  1 19  1  0  0  0  0
  2  3  1  0  0  0  0
  3  7  1  0  0  0  0
  3  4  1  0  0  0  0
  3 20  1  0  0  0  0
  4  5  1  0  0  0  0
  4 21  1  0  0  0  0
  4 22  1  0  0  0  0
  5  6  1  0  0  0  0
  5 23  1  0  0  0  0
  5 24  1  0  0  0  0
  6  7  1  0  0  0  0
  6 25  1  0  0  0  0
  6 26  1  0  0  0  0
  7  8  1  0  0  0  0
  7 27  1  0  0  0  0
  8 28  1  0  0  0  0
  8  9  1  0  0  0  0
  9 11  1  0  0  0  0
  9 10  2  0  0  0  0
 11 12  2  0  0  0  0
 12 16  1  0  0  0  0
 12 13  1  0  0  0  0
 13 29  1  0  0  0  0
 13 14  1  0  0  0  0
 14 30  1  0  0  0  0
 14 15  2  0  0  0  0
 15 31  1  0  0  0  0
 15 16  1  0  0  0  0
M  END
> <s_m_source_file>
AV-unprocessed.smi

> <i_m_source_file_index>
2784

> <i_lp_mmshare_version>
43012

> <i_f3d_flags>
0

> <s_epik_input>
W0NIM11PW0NAQEhdMVtDSDJdW0NIMl1bQ0gyXVtDQEhdMVtOSF1DKD1PKVtOSF1jMm5bY0hdW2NIXW8y

> <s_epik_cmdline>
J2VwaWtfcHl0aG9uJywgJy1waCcsICc3LjAnLCAnLXRuJywgJzgnLCAnLW1hJywgJzIwMCcsICctbWV0YWxfYmluZGluZycsICctaW1hZScsICc8aW5maWxlLm1hZT4nLCAnLW9tYWUnLCAnPG91dGZpbGUubWFlPic=

> <r_lp_tautomer_probability>
0.107061

> <r_epik_Ionization_Penalty>
1.29244

> <r_epik_Ionization_Penalty_Charging>
1.29208

> <r_epik_Ionization_Penalty_Neutral>
0.000359742

> <r_epik_State_Penalty>
2.59896

> <r_epik_Charging_Adjusted_Penalty>
3.89105

> <i_epik_Tot_Q>
0

> <i_epik_Tot_abs_Q>
0

> <r_epik_Metal_State_Penalty>
3.62496

> <b_epik_Metal_Only>
0

> <s_lp_Force_Field>
OPLS_2005

> <r_lp_Energy>
46.1047

> <b_lp_Chiralities_Consistent>
1

> <s_lp_Variant>
AV-unprocessed.smi:2784-11

> <Gold.Version>
5.8.1

> <Gold.Id.Protein>
6NUR|6NUR_protein|mol2

> <Gold.PLP.Fitness>
32.4385

> <Gold.PLP.PLP>
-26.0675

> <Gold.PLP.part.hbond>
-4.3383

> <Gold.PLP.part.metal>
0.0000

> <Gold.PLP.part.buried>
-3.0737

> <Gold.PLP.part.nonpolar>
-18.5370

> <Gold.PLP.part.repulsive>
0.1897

> <Gold.PLP.ligand.clash>
0.0000

> <Gold.PLP.ligand.torsion>
0.1761

> <Gold.PLP.Chemscore.Hbond>
2.2368

> <Gold.PLP.Chemscore.CHOScore>
0.0000

> <Gold.PLP.Chemscore.Metal>
0.0000

> <Gold.Chemscore.Hbonds>
donor molecule, donor type, donor heavy atom, donor atom, acceptor molecule, acceptor atom, score
      P1  H  6896  6909       L1    10  1.00
      P1  H  6931  6943       L1    16  0.25
      P1  H  6934  6947       L1    16  0.96

> <Gold.PLP.Chemscore.Internal.Correction>
0.0127

> <Gold.Rescore>
     Score         DG    S(hbond)    S(metal)    S(lipo)     H(rot)  DE(clash)    DE(int)     intcor
     13.49     -13.67       1.55        0.00      54.75       1.32       0.00       0.19       ----

> <Gold.Chemscore.Fitness>
13.4852

> <Gold.Chemscore.DG>
-13.6741

> <Gold.Chemscore.ZeroCoef>
-5.4800

> <Gold.Chemscore.Hbond>
1.5499

> <Gold.Chemscore.Metal>
0.0000

> <Gold.Chemscore.Lipo>
54.7494

> <Gold.Chemscore.Internal_Hbond>
0.0000

> <Gold.Chemscore.DEClash>
0.0000

> <Gold.Chemscore.DEInternal>
0.1889

> <Gold.Chemscore.Rot>
1.3235

> <Gold.Chemscore.Internal.Correction>
   9.000000E+99

> <Gold.Chemscore.Hbonds>
donor molecule, donor type, donor heavy atom, donor atom, acceptor molecule, acceptor atom, score
      P1  H  6896  6909       L1    10  0.93
      P1  H  6934  6947       L1    16  0.41

> <Gold.Chemscore.Hbond.Weighted>
-5.1766

> <Gold.Chemscore.Metal.Weighted>
-0.0000

> <Gold.Chemscore.Lipo.Weighted>
-6.4057

> <Gold.Chemscore.Internal_Hbond.Weighted>
0.0000

> <Gold.Chemscore.DEClash.Weighted>
0.0000

> <Gold.Chemscore.DEInternal.Weighted>
0.1889

> <Gold.Chemscore.Rot.Weighted>
3.3882

> <Gold.Chemscore.Internal.Correction.Weighted>
   9.000000E+99

> <Gold.Protein.RotatedTorsions>
[ 6907 6896 6895 6894 ] final   38.43 input  -60.11 | X-H torsion
[ 7974 7965 7964 7962 ] final   29.20 input  175.53 | X-H torsion
[ 8008 7997 7996 7995 ] final  139.53 input   59.86 | X-H torsion
[ 10167 10162 10161 10158 ] final   53.46 input  -65.29 | X-H torsion
[ 10718 10713 10712 10709 ] final   95.73 input   66.30 | X-H torsion
[ 10763 10752 10751 10750 ] final -112.34 input  -60.55 | X-H torsion
[ 11005 11000 10999 10996 ] final -132.17 input  -57.11 | X-H torsion

> <Gold.Protein.ActiveResidues>
 VAL166  LYS551  ARG553  GLY616  TRP617  ASP618  TYR619  PRO620  LYS621  CYS622 
 ASP623  PHE694  ASN695  SER759  ASP760  ASP761  ALA762  ILE779  LEU786  VAL792 
 PHE793  MET794  SER795  GLU796  ALA797  LYS798  CYS799  TRP800  GLU811  SER814 

> <Gold.Protein.RotatedAtoms>
  152.1564  134.8947  160.0544 H   0  0  0  0  0  0  0  0  0  0  0  0  # atno 6907 bound_to 6896
  151.9960  133.3803  159.4171 H   0  0  0  0  0  0  0  0  0  0  0  0  # atno 6908 bound_to 6896
  150.6882  134.3808  159.5077 H   0  0  0  0  0  0  0  0  0  0  0  0  # atno 6909 bound_to 6896
  146.1685  139.6954  142.8984 H   0  0  0  0  0  0  0  0  0  0  0  0  # atno 7974 bound_to 7965
  156.2989  140.2365  156.4252 H   0  0  0  0  0  0  0  0  0  0  0  0  # atno 8008 bound_to 7997
  154.8320  140.0432  157.1503 H   0  0  0  0  0  0  0  0  0  0  0  0  # atno 8009 bound_to 7997
  154.9198  140.3002  155.5226 H   0  0  0  0  0  0  0  0  0  0  0  0  # atno 8010 bound_to 7997
  140.2405  144.3588  150.6382 H   0  0  0  0  0  0  0  0  0  0  0  0  # atno 10167 bound_to 10162
  157.6935  131.0555  150.4384 H   0  0  0  0  0  0  0  0  0  0  0  0  # atno 10718 bound_to 10713
  154.8345  135.4494  154.1179 H   0  0  0  0  0  0  0  0  0  0  0  0  # atno 10763 bound_to 10752
  153.2423  135.6917  153.7776 H   0  0  0  0  0  0  0  0  0  0  0  0  # atno 10764 bound_to 10752
  153.7119  135.3355  155.3224 H   0  0  0  0  0  0  0  0  0  0  0  0  # atno 10765 bound_to 10752
  140.9194  134.1464  157.4326 H   0  0  0  0  0  0  0  0  0  0  0  0  # atno 11005 bound_to 11000
  145.4403  141.0422  143.2861 LP  0  0  0  0  0  0  0  0  0  0  0  0  # atno 17320 bound_to 7965
  144.8128  139.5931  143.7022 LP  0  0  0  0  0  0  0  0  0  0  0  0  # atno 17321 bound_to 7965
  140.6117  143.2170  151.6873 LP  0  0  0  0  0  0  0  0  0  0  0  0  # atno 17342 bound_to 10162
  139.5079  144.3631  152.0543 LP  0  0  0  0  0  0  0  0  0  0  0  0  # atno 17343 bound_to 10162
  156.4744  130.4060  149.6498 LP  0  0  0  0  0  0  0  0  0  0  0  0  # atno 17370 bound_to 10713
  156.3567  130.7460  151.2427 LP  0  0  0  0  0  0  0  0  0  0  0  0  # atno 17371 bound_to 10713
  139.8772  134.9966  156.5801 LP  0  0  0  0  0  0  0  0  0  0  0  0  # atno 17394 bound_to 11000
  140.8007  133.8507  155.8724 LP  0  0  0  0  0  0  0  0  0  0  0  0  # atno 17395 bound_to 11000

$$$$
