AV-unprocessed.smi:334|AV-procd|sdf|2365|dock2
  -GOLD-   2262022283D 1   1.00000     0.00000
 Structure written by MMmdl.
 44 46  0  0  0  0  0  0  0  0  3 V2000
  146.4158  132.1570  153.7625 C   0  0  0  0  0  0  0  0  0  0  0  0
  146.6204  133.6461  153.4365 C   0  0  1  0  0  0  0  0  0  0  0  0
  148.0327  133.9937  153.5420 N   0  0  0  0  0  0  0  0  0  0  0  0
  148.8140  133.8232  154.6218 C   0  0  0  0  0  0  0  0  0  0  0  0
  148.4372  133.2329  155.6333 O   0  0  0  0  0  0  0  0  0  0  0  0
  150.2245  134.4374  154.5917 C   0  0  0  0  0  0  0  0  0  0  0  0
  150.4089  135.5719  155.5155 N   0  0  0  0  0  0  0  0  0  0  0  0
  150.7926  136.7978  154.9360 C   0  0  0  0  0  0  0  0  0  0  0  0
  151.0442  137.8936  155.6776 C   0  0  0  0  0  0  0  0  0  0  0  0
  151.4829  139.1287  155.0673 N   0  3  0  0  0  0  0  0  0  0  0  0
  152.5872  139.5721  155.3652 O   0  0  0  0  0  0  0  0  0  0  0  0
  150.7425  139.6925  154.2670 O   0  5  0  0  0  0  0  0  0  0  0  0
  150.8873  137.7847  157.1148 C   0  0  0  0  0  0  0  0  0  0  0  0
  150.5250  136.6141  157.6758 C   0  0  0  0  0  0  0  0  0  0  0  0
  150.2772  135.4152  156.8681 C   0  0  0  0  0  0  0  0  0  0  0  0
  149.9799  134.3356  157.3785 O   0  0  0  0  0  0  0  0  0  0  0  0
  146.1123  134.0051  152.0196 C   0  0  1  0  0  0  0  0  0  0  0  0
  144.8761  133.2032  151.5553 C   0  0  0  0  0  0  0  0  0  0  0  0
  143.9133  134.3032  151.0690 C   0  0  1  0  0  0  0  0  0  0  0  0
  143.3401  135.0491  152.2888 C   0  0  0  0  0  0  0  0  0  0  0  0
  144.5421  135.8799  152.7734 C   0  0  0  0  0  0  0  0  0  0  0  0
  145.6567  135.4699  151.7903 C   0  0  2  0  0  0  0  0  0  0  0  0
  144.8713  135.3378  150.4900 C   0  0  0  0  0  0  0  0  0  0  0  0
  145.3635  131.8795  153.6987 H   0  0  0  0  0  0  0  0  0  0  0  0
  146.7524  131.9235  154.7729 H   0  0  0  0  0  0  0  0  0  0  0  0
  146.9695  131.5193  153.0724 H   0  0  0  0  0  0  0  0  0  0  0  0
  146.0617  134.2336  154.1669 H   0  0  0  0  0  0  0  0  0  0  0  0
  148.4317  134.4787  152.7517 H   0  0  0  0  0  0  0  0  0  0  0  0
  150.9417  133.6539  154.8408 H   0  0  0  0  0  0  0  0  0  0  0  0
  150.4582  134.7150  153.5629 H   0  0  0  0  0  0  0  0  0  0  0  0
  150.8936  136.7691  153.8602 H   0  0  0  0  0  0  0  0  0  0  0  0
  151.0587  138.6405  157.7510 H   0  0  0  0  0  0  0  0  0  0  0  0
  150.4146  136.5550  158.7487 H   0  0  0  0  0  0  0  0  0  0  0  0
  146.9257  133.8120  151.3173 H   0  0  0  0  0  0  0  0  0  0  0  0
  145.1432  132.5283  150.7410 H   0  0  0  0  0  0  0  0  0  0  0  0
  144.4322  132.6017  152.3496 H   0  0  0  0  0  0  0  0  0  0  0  0
  143.1499  133.9423  150.3792 H   0  0  0  0  0  0  0  0  0  0  0  0
  142.5165  135.7019  151.9965 H   0  0  0  0  0  0  0  0  0  0  0  0
  142.9708  134.3663  153.0550 H   0  0  0  0  0  0  0  0  0  0  0  0
  144.3278  136.9454  152.6805 H   0  0  0  0  0  0  0  0  0  0  0  0
  144.7936  135.6915  153.8166 H   0  0  0  0  0  0  0  0  0  0  0  0
  146.4803  136.1828  151.7444 H   0  0  0  0  0  0  0  0  0  0  0  0
  145.4672  134.9593  149.6574 H   0  0  0  0  0  0  0  0  0  0  0  0
  144.3776  136.2624  150.1852 H   0  0  0  0  0  0  0  0  0  0  0  0
  1  2  1  0  0  0  0
  1 24  1  0  0  0  0
  1 25  1  0  0  0  0
  1 26  1  0  0  0  0
  2  3  1  0  0  0  0
  2 17  1  0  0  0  0
  2 27  1  0  0  0  0
  3  4  1  0  0  0  0
  3 28  1  0  0  0  0
  4  5  2  0  0  0  0
  4  6  1  0  0  0  0
  6  7  1  0  0  0  0
  6 29  1  0  0  0  0
  6 30  1  0  0  0  0
  7 15  1  0  0  0  0
  7  8  1  0  0  0  0
  8  9  2  0  0  0  0
  8 31  1  0  0  0  0
  9 10  1  0  0  0  0
  9 13  1  0  0  0  0
 10 11  2  0  0  0  0
 10 12  1  0  0  0  0
 13 14  2  0  0  0  0
 13 32  1  0  0  0  0
 14 15  1  0  0  0  0
 14 33  1  0  0  0  0
 15 16  2  0  0  0  0
 17 22  1  0  0  0  0
 17 18  1  0  0  0  0
 17 34  1  0  0  0  0
 18 19  1  0  0  0  0
 18 35  1  0  0  0  0
 18 36  1  0  0  0  0
 19 23  1  0  0  0  0
 19 20  1  0  0  0  0
 19 37  1  0  0  0  0
 20 21  1  0  0  0  0
 20 38  1  0  0  0  0
 20 39  1  0  0  0  0
 21 22  1  0  0  0  0
 21 40  1  0  0  0  0
 21 41  1  0  0  0  0
 22 23  1  0  0  0  0
 22 42  1  0  0  0  0
 23 43  1  0  0  0  0
 23 44  1  0  0  0  0
M  CHG  1  10   1
M  CHG  1  12  -1
M  END
> <s_m_source_file>
AV-unprocessed.smi

> <i_m_source_file_index>
334

> <i_lp_mmshare_version>
43012

> <i_f3d_flags>
0

> <s_epik_input>
W0NIMl0xW0NIMl1bQ0BIXShbQ0gyXTIpW0NAQEhdKFtDSDJdW0NAQEhdMTIpW0NASF0oW0NIM10pW05IXUMoPU8pW0NIMl1uM1tjSF1jKFtOK10oPU8pW08tXSlbY0hdW2NIXWMzPU8=

> <s_epik_cmdline>
J2VwaWtfcHl0aG9uJywgJy1waCcsICc3LjAnLCAnLXRuJywgJzgnLCAnLW1hJywgJzIwMCcsICctbWV0YWxfYmluZGluZycsICctaW1hZScsICc8aW5maWxlLm1hZT4nLCAnLW9tYWUnLCAnPG91dGZpbGUubWFlPic=

> <r_lp_tautomer_probability>
1

> <r_epik_Ionization_Penalty>
2.17081e-08

> <r_epik_Ionization_Penalty_Charging>
8.1195e-11

> <r_epik_Ionization_Penalty_Neutral>
2.16269e-08

> <r_epik_State_Penalty>
-0

> <r_epik_Charging_Adjusted_Penalty>
8.1195e-11

> <i_epik_Tot_Q>
0

> <i_epik_Tot_abs_Q>
2

> <r_epik_Metal_State_Penalty>
-0

> <b_epik_Metal_Only>
0

> <s_lp_Force_Field>
OPLS_2005

> <r_lp_Energy>
61.6475

> <b_lp_Chiralities_Consistent>
1

> <s_lp_Variant>
AV-unprocessed.smi:334-4

> <Gold.Version>
5.8.1

> <Gold.Id.Protein>
6NUR|6NUR_protein|mol2

> <Gold.PLP.Fitness>
43.7421

> <Gold.PLP.PLP>
-32.9922

> <Gold.PLP.part.hbond>
-4.3673

> <Gold.PLP.part.metal>
0.0000

> <Gold.PLP.part.buried>
-6.6579

> <Gold.PLP.part.nonpolar>
-23.8920

> <Gold.PLP.part.repulsive>
0.1459

> <Gold.PLP.ligand.clash>
0.0000

> <Gold.PLP.ligand.torsion>
1.8127

> <Gold.PLP.Chemscore.Hbond>
3.7362

> <Gold.PLP.Chemscore.CHOScore>
1.0350

> <Gold.PLP.Chemscore.Metal>
0.0000

> <Gold.Chemscore.Hbonds>
donor molecule, donor type, donor heavy atom, donor atom, acceptor molecule, acceptor atom, score
      L1  H     3    28       P1  7948  0.90
      P1  H  6896  6908       L1    16  0.79
      P1  H  7989  7998       L1    12  1.00
      P1  H  7997  8009       L1    11  1.00
      L1  C     8    31       P1  7948  0.11
      L1  C     8    31       P1  7949  0.93

> <Gold.PLP.Chemscore.Internal.Correction>
0.0617

> <Gold.Rescore>
     Score         DG    S(hbond)    S(metal)    S(lipo)     H(rot)  DE(clash)    DE(int)     intcor
     14.69     -19.05       3.27        0.00      60.81       1.75       0.04       4.33       ----

> <Gold.Chemscore.Fitness>
14.6856

> <Gold.Chemscore.DG>
-19.0520

> <Gold.Chemscore.ZeroCoef>
-5.4800

> <Gold.Chemscore.Hbond>
3.2728

> <Gold.Chemscore.Metal>
0.0000

> <Gold.Chemscore.Lipo>
60.8060

> <Gold.Chemscore.Internal_Hbond>
0.0000

> <Gold.Chemscore.DEClash>
0.0354

> <Gold.Chemscore.DEInternal>
4.3310

> <Gold.Chemscore.Rot>
1.7474

> <Gold.Chemscore.Internal.Correction>
   9.000000E+99

> <Gold.Chemscore.Hbonds>
donor molecule, donor type, donor heavy atom, donor atom, acceptor molecule, acceptor atom, score
      L1  H     3    28       P1  7948  0.17
      P1  H  6896  6908       L1    16  0.69
      P1  H  7989  7998       L1    12  0.65
      P1  H  7997  8009       L1    11  0.93

> <Gold.Chemscore.Hbond.Weighted>
-10.9310

> <Gold.Chemscore.Metal.Weighted>
-0.0000

> <Gold.Chemscore.Lipo.Weighted>
-7.1143

> <Gold.Chemscore.Internal_Hbond.Weighted>
0.0000

> <Gold.Chemscore.DEClash.Weighted>
0.0354

> <Gold.Chemscore.DEInternal.Weighted>
4.3310

> <Gold.Chemscore.Rot.Weighted>
4.4733

> <Gold.Chemscore.Internal.Correction.Weighted>
   9.000000E+99

> <Gold.Protein.RotatedTorsions>
[ 6907 6896 6895 6894 ] final  132.60 input  -60.11 | X-H torsion
[ 7974 7965 7964 7962 ] final  -48.88 input  175.53 | X-H torsion
[ 8008 7997 7996 7995 ] final -154.87 input   59.86 | X-H torsion
[ 10167 10162 10161 10158 ] final -150.47 input  -65.29 | X-H torsion
[ 10718 10713 10712 10709 ] final   -2.87 input   66.30 | X-H torsion
[ 10763 10752 10751 10750 ] final   69.75 input  -60.55 | X-H torsion
[ 11005 11000 10999 10996 ] final   36.28 input  -57.11 | X-H torsion

> <Gold.Protein.ActiveResidues>
 VAL166  LYS551  ARG553  GLY616  TRP617  ASP618  TYR619  PRO620  LYS621  CYS622 
 ASP623  PHE694  ASN695  SER759  ASP760  ASP761  ALA762  ILE779  LEU786  VAL792 
 PHE793  MET794  SER795  GLU796  ALA797  LYS798  CYS799  TRP800  GLU811  SER814 

> <Gold.Protein.RotatedAtoms>
  152.3307  133.5955  159.5807 H   0  0  0  0  0  0  0  0  0  0  0  0  # atno 6907 bound_to 6896
  150.7422  133.9871  159.3604 H   0  0  0  0  0  0  0  0  0  0  0  0  # atno 6908 bound_to 6896
  151.7746  135.0778  160.0416 H   0  0  0  0  0  0  0  0  0  0  0  0  # atno 6909 bound_to 6896
  145.9465  140.7613  142.9526 H   0  0  0  0  0  0  0  0  0  0  0  0  # atno 7974 bound_to 7965
  155.6930  140.0757  157.2440 H   0  0  0  0  0  0  0  0  0  0  0  0  # atno 8008 bound_to 7997
  154.4085  140.1661  156.2160 H   0  0  0  0  0  0  0  0  0  0  0  0  # atno 8009 bound_to 7997
  155.9435  140.3382  155.6350 H   0  0  0  0  0  0  0  0  0  0  0  0  # atno 8010 bound_to 7997
  139.7352  143.8747  152.2546 H   0  0  0  0  0  0  0  0  0  0  0  0  # atno 10167 bound_to 10162
  156.7845  130.5341  149.5745 H   0  0  0  0  0  0  0  0  0  0  0  0  # atno 10718 bound_to 10713
  153.0304  135.5199  154.7336 H   0  0  0  0  0  0  0  0  0  0  0  0  # atno 10763 bound_to 10752
  154.6356  135.2906  155.0167 H   0  0  0  0  0  0  0  0  0  0  0  0  # atno 10764 bound_to 10752
  154.1103  135.6623  153.4936 H   0  0  0  0  0  0  0  0  0  0  0  0  # atno 10765 bound_to 10752
  140.2342  134.3492  155.7951 H   0  0  0  0  0  0  0  0  0  0  0  0  # atno 11005 bound_to 11000
  144.6788  140.2365  143.7349 LP  0  0  0  0  0  0  0  0  0  0  0  0  # atno 17320 bound_to 7965
  145.8229  139.2052  143.1927 LP  0  0  0  0  0  0  0  0  0  0  0  0  # atno 17321 bound_to 7965
  139.8682  144.7082  150.9019 LP  0  0  0  0  0  0  0  0  0  0  0  0  # atno 17342 bound_to 10162
  140.7777  143.3760  151.1562 LP  0  0  0  0  0  0  0  0  0  0  0  0  # atno 17343 bound_to 10162
  156.1197  130.6101  151.0175 LP  0  0  0  0  0  0  0  0  0  0  0  0  # atno 17370 bound_to 10713
  157.6630  131.0877  150.7793 LP  0  0  0  0  0  0  0  0  0  0  0  0  # atno 17371 bound_to 10713
  141.2215  133.7262  156.8780 LP  0  0  0  0  0  0  0  0  0  0  0  0  # atno 17394 bound_to 11000
  140.1720  134.9093  157.2844 LP  0  0  0  0  0  0  0  0  0  0  0  0  # atno 17395 bound_to 11000

$$$$
