AV-unprocessed.smi:2893|AV-procd|sdf|11125|dock5
  -GOLD-   2272015593D 1   1.00000     0.00000
 Structure written by MMmdl.
 37 39  0  0  0  0  0  0  0  0  1 V2000
  140.5760  141.5184  155.6513 C   0  0  0  0  0  0  0  0  0  0  0  0
  140.5568  141.1681  154.1576 C   0  0  0  0  0  0  0  0  0  0  0  0
  141.0948  139.8354  153.9119 N   0  0  0  0  0  0  0  0  0  0  0  0
  140.5436  138.6853  154.3367 C   0  0  0  0  0  0  0  0  0  0  0  0
  139.4967  138.6379  154.9841 O   0  0  0  0  0  0  0  0  0  0  0  0
  141.2631  137.4245  153.9375 C   0  0  0  0  0  0  0  0  0  0  0  0
  142.4477  137.4962  153.1728 C   0  0  0  0  0  0  0  0  0  0  0  0
  143.0731  136.2893  152.8158 C   0  0  0  0  0  0  0  0  0  0  0  0
  142.4721  135.0898  153.2414 C   0  0  0  0  0  0  0  0  0  0  0  0
  143.0738  133.8710  152.8980 N   0  0  0  0  0  0  0  0  0  0  0  0
  144.0402  133.7881  151.8082 C   0  0  1  0  0  0  0  0  0  0  0  0
  145.4495  133.4071  152.2803 C   0  0  0  0  0  0  0  0  0  0  0  0
  145.7421  132.1628  151.4335 C   0  0  2  0  0  0  0  0  0  0  0  0
  145.9195  132.4991  149.9465 C   0  0  0  0  0  0  0  0  0  0  0  0
  144.4825  132.7979  149.5202 C   0  0  0  0  0  0  0  0  0  0  0  0
  143.7203  132.6349  150.8421 C   0  0  1  0  0  0  0  0  0  0  0  0
  144.4567  131.5680  151.4181 O   0  0  0  0  0  0  0  0  0  0  0  0
  141.3314  135.0833  153.9738 N   0  0  0  0  0  0  0  0  0  0  0  0
  140.7356  136.2313  154.3127 N   0  0  0  0  0  0  0  0  0  0  0  0
  140.1992  142.5278  155.8165 H   0  0  0  0  0  0  0  0  0  0  0  0
  141.5882  141.4716  156.0542 H   0  0  0  0  0  0  0  0  0  0  0  0
  139.9526  140.8346  156.2282 H   0  0  0  0  0  0  0  0  0  0  0  0
  139.5432  141.2468  153.7612 H   0  0  0  0  0  0  0  0  0  0  0  0
  141.1626  141.8859  153.6043 H   0  0  0  0  0  0  0  0  0  0  0  0
  141.9506  139.7768  153.3785 H   0  0  0  0  0  0  0  0  0  0  0  0
  142.8703  138.4422  152.8667 H   0  0  0  0  0  0  0  0  0  0  0  0
  143.9823  136.2880  152.2327 H   0  0  0  0  0  0  0  0  0  0  0  0
  142.9878  133.0829  153.5233 H   0  0  0  0  0  0  0  0  0  0  0  0
  144.0439  134.7329  151.2626 H   0  0  0  0  0  0  0  0  0  0  0  0
  146.1760  134.2036  152.1174 H   0  0  0  0  0  0  0  0  0  0  0  0
  145.4634  133.1501  153.3408 H   0  0  0  0  0  0  0  0  0  0  0  0
  146.5270  131.5253  151.8409 H   0  0  0  0  0  0  0  0  0  0  0  0
  146.5924  133.3432  149.7910 H   0  0  0  0  0  0  0  0  0  0  0  0
  146.3110  131.6426  149.3967 H   0  0  0  0  0  0  0  0  0  0  0  0
  144.3650  133.7927  149.0889 H   0  0  0  0  0  0  0  0  0  0  0  0
  144.1431  132.0659  148.7865 H   0  0  0  0  0  0  0  0  0  0  0  0
  142.6563  132.4348  150.7094 H   0  0  0  0  0  0  0  0  0  0  0  0
  1  2  1  0  0  0  0
  1 20  1  0  0  0  0
  1 21  1  0  0  0  0
  1 22  1  0  0  0  0
  2  3  1  0  0  0  0
  2 23  1  0  0  0  0
  2 24  1  0  0  0  0
  3  4  1  0  0  0  0
  3 25  1  0  0  0  0
  4  5  2  0  0  0  0
  4  6  1  0  0  0  0
  6 19  1  0  0  0  0
  6  7  2  0  0  0  0
  7  8  1  0  0  0  0
  7 26  1  0  0  0  0
  8  9  2  0  0  0  0
  8 27  1  0  0  0  0
  9 10  1  0  0  0  0
  9 18  1  0  0  0  0
 10 11  1  0  0  0  0
 10 28  1  0  0  0  0
 11 16  1  0  0  0  0
 11 12  1  0  0  0  0
 11 29  1  0  0  0  0
 12 13  1  0  0  0  0
 12 30  1  0  0  0  0
 12 31  1  0  0  0  0
 13 17  1  0  0  0  0
 13 14  1  0  0  0  0
 13 32  1  0  0  0  0
 14 15  1  0  0  0  0
 14 33  1  0  0  0  0
 14 34  1  0  0  0  0
 15 16  1  0  0  0  0
 15 35  1  0  0  0  0
 15 36  1  0  0  0  0
 16 17  1  0  0  0  0
 16 37  1  0  0  0  0
 18 19  2  0  0  0  0
M  END
> <s_m_source_file>
AV-unprocessed.smi

> <i_m_source_file_index>
2893

> <i_lp_mmshare_version>
43012

> <i_f3d_flags>
0

> <s_epik_input>
W0NIM11bQ0gyXVtOSF1DKD1PKWMxW2NIXVtjSF1jKG5uMSlbTkhdW0NASF0oW0NIMl1bQ0BASF0yMylbQ0BASF0oTzMpW0NIMl1bQ0gyXTI=

> <s_epik_cmdline>
J2VwaWtfcHl0aG9uJywgJy1waCcsICc3LjAnLCAnLXRuJywgJzgnLCAnLW1hJywgJzIwMCcsICctbWV0YWxfYmluZGluZycsICctaW1hZScsICc8aW5maWxlLm1hZT4nLCAnLW9tYWUnLCAnPG91dGZpbGUubWFlPic=

> <r_lp_tautomer_probability>
1

> <r_epik_Ionization_Penalty>
0.00432031

> <r_epik_Ionization_Penalty_Charging>
0

> <r_epik_Ionization_Penalty_Neutral>
0.00432031

> <r_epik_State_Penalty>
-0

> <r_epik_Charging_Adjusted_Penalty>
0

> <i_epik_Tot_Q>
0

> <i_epik_Tot_abs_Q>
0

> <r_epik_Metal_State_Penalty>
-0

> <b_epik_Metal_Only>
0

> <s_lp_Force_Field>
OPLS_2005

> <r_lp_Energy>
49.39

> <b_lp_Chiralities_Consistent>
1

> <s_lp_Variant>
AV-unprocessed.smi:2893-4

> <Gold.Version>
5.8.1

> <Gold.Id.Protein>
6NUR|6NUR_protein|mol2

> <Gold.PLP.Fitness>
40.9782

> <Gold.PLP.PLP>
-33.9708

> <Gold.PLP.part.hbond>
-4.4751

> <Gold.PLP.part.metal>
0.0000

> <Gold.PLP.part.buried>
-6.2157

> <Gold.PLP.part.nonpolar>
-22.9213

> <Gold.PLP.part.repulsive>
0.3835

> <Gold.PLP.ligand.clash>
0.0000

> <Gold.PLP.ligand.torsion>
0.1610

> <Gold.PLP.Chemscore.Hbond>
2.4357

> <Gold.PLP.Chemscore.CHOScore>
0.0000

> <Gold.PLP.Chemscore.Metal>
0.0000

> <Gold.Chemscore.Hbonds>
donor molecule, donor type, donor heavy atom, donor atom, acceptor molecule, acceptor atom, score
      L1  H     3    25       P1 10175  1.00
      L1  H    10    28       P1 10957  1.00
      P1  H 11000 11005       L1    18  0.38

> <Gold.PLP.Chemscore.Internal.Correction>
0.0224

> <Gold.Rescore>
     Score         DG    S(hbond)    S(metal)    S(lipo)     H(rot)  DE(clash)    DE(int)     intcor
     16.47     -16.71       1.98        0.00      65.98       1.21       0.06       0.18       ----

> <Gold.Chemscore.Fitness>
16.4732

> <Gold.Chemscore.DG>
-16.7134

> <Gold.Chemscore.ZeroCoef>
-5.4800

> <Gold.Chemscore.Hbond>
1.9765

> <Gold.Chemscore.Metal>
0.0000

> <Gold.Chemscore.Lipo>
65.9790

> <Gold.Chemscore.Internal_Hbond>
0.0000

> <Gold.Chemscore.DEClash>
0.0638

> <Gold.Chemscore.DEInternal>
0.1764

> <Gold.Chemscore.Rot>
1.2061

> <Gold.Chemscore.Internal.Correction>
   9.000000E+99

> <Gold.Chemscore.Hbonds>
donor molecule, donor type, donor heavy atom, donor atom, acceptor molecule, acceptor atom, score
      L1  H     3    25       P1 10175  0.71
      L1  H    10    28       P1 10957  0.94
      P1  H 11000 11005       L1    18  0.03

> <Gold.Chemscore.Hbond.Weighted>
-6.6014

> <Gold.Chemscore.Metal.Weighted>
-0.0000

> <Gold.Chemscore.Lipo.Weighted>
-7.7195

> <Gold.Chemscore.Internal_Hbond.Weighted>
0.0000

> <Gold.Chemscore.DEClash.Weighted>
0.0638

> <Gold.Chemscore.DEInternal.Weighted>
0.1764

> <Gold.Chemscore.Rot.Weighted>
3.0876

> <Gold.Chemscore.Internal.Correction.Weighted>
   9.000000E+99

> <Gold.Protein.RotatedTorsions>
[ 6907 6896 6895 6894 ] final   60.70 input  -60.11 | X-H torsion
[ 7974 7965 7964 7962 ] final  143.28 input  175.53 | X-H torsion
[ 8008 7997 7996 7995 ] final   60.91 input   59.86 | X-H torsion
[ 10167 10162 10161 10158 ] final   79.28 input  -65.29 | X-H torsion
[ 10718 10713 10712 10709 ] final  -16.80 input   66.30 | X-H torsion
[ 10763 10752 10751 10750 ] final -148.71 input  -60.55 | X-H torsion
[ 11005 11000 10999 10996 ] final    9.66 input  -57.11 | X-H torsion

> <Gold.Protein.ActiveResidues>
 VAL166  LYS551  ARG553  GLY616  TRP617  ASP618  TYR619  PRO620  LYS621  CYS622 
 ASP623  PHE694  ASN695  SER759  ASP760  ASP761  ALA762  ILE779  LEU786  VAL792 
 PHE793  MET794  SER795  GLU796  ALA797  LYS798  CYS799  TRP800  GLU811  SER814 

> <Gold.Protein.RotatedAtoms>
  152.4025  134.6261  160.0063 H   0  0  0  0  0  0  0  0  0  0  0  0  # atno 6907 bound_to 6896
  151.6462  133.3317  159.3149 H   0  0  0  0  0  0  0  0  0  0  0  0  # atno 6908 bound_to 6896
  150.7924  134.7000  159.6589 H   0  0  0  0  0  0  0  0  0  0  0  0  # atno 6909 bound_to 6896
  144.8934  139.5525  143.5787 H   0  0  0  0  0  0  0  0  0  0  0  0  # atno 7974 bound_to 7965
  155.5899  140.3492  155.4563 H   0  0  0  0  0  0  0  0  0  0  0  0  # atno 8008 bound_to 7997
  156.0309  140.1274  157.0284 H   0  0  0  0  0  0  0  0  0  0  0  0  # atno 8009 bound_to 7997
  154.4352  140.1043  156.6084 H   0  0  0  0  0  0  0  0  0  0  0  0  # atno 8010 bound_to 7997
  139.9620  144.5954  150.8063 H   0  0  0  0  0  0  0  0  0  0  0  0  # atno 10167 bound_to 10162
  156.5825  130.4778  149.6314 H   0  0  0  0  0  0  0  0  0  0  0  0  # atno 10718 bound_to 10713
  154.8218  135.3327  154.7017 H   0  0  0  0  0  0  0  0  0  0  0  0  # atno 10763 bound_to 10752
  153.7648  135.6930  153.4922 H   0  0  0  0  0  0  0  0  0  0  0  0  # atno 10764 bound_to 10752
  153.2085  135.4490  155.0300 H   0  0  0  0  0  0  0  0  0  0  0  0  # atno 10765 bound_to 10752
  140.5232  134.0539  155.7851 H   0  0  0  0  0  0  0  0  0  0  0  0  # atno 11005 bound_to 11000
  146.3067  139.7605  142.9050 LP  0  0  0  0  0  0  0  0  0  0  0  0  # atno 17320 bound_to 7965
  145.3742  141.0348  143.3214 LP  0  0  0  0  0  0  0  0  0  0  0  0  # atno 17321 bound_to 7965
  140.7550  143.3038  151.3014 LP  0  0  0  0  0  0  0  0  0  0  0  0  # atno 17342 bound_to 10162
  139.6546  144.0299  152.2651 LP  0  0  0  0  0  0  0  0  0  0  0  0  # atno 17343 bound_to 10162
  156.2619  130.6967  151.1739 LP  0  0  0  0  0  0  0  0  0  0  0  0  # atno 17370 bound_to 10713
  157.7323  131.0601  150.5634 LP  0  0  0  0  0  0  0  0  0  0  0  0  # atno 17371 bound_to 10713
  141.1323  133.9281  157.2510 LP  0  0  0  0  0  0  0  0  0  0  0  0  # atno 17394 bound_to 11000
  139.9594  135.0158  156.9220 LP  0  0  0  0  0  0  0  0  0  0  0  0  # atno 17395 bound_to 11000

$$$$
