AV-unprocessed.smi:21|AV-procd|sdf|137|dock1
  -GOLD-   2262015333D 1   1.00000     0.00000
 Structure written by MMmdl.
 62 65  0  0  0  0  0  0  0  0  2 V2000
  145.8755  130.1853  152.7199 C   0  0  0  0  0  0  0  0  0  0  0  0
  146.2649  131.5473  152.6500 O   0  0  0  0  0  0  0  0  0  0  0  0
  147.4612  131.8338  153.3593 C   0  0  1  0  0  0  0  0  0  0  0  0
  148.2247  133.0273  152.7948 C   0  0  0  0  0  0  0  0  0  0  0  0
  149.0688  133.5155  153.9812 C   0  0  1  0  0  0  0  0  0  0  0  0
  149.4656  135.0099  153.8900 C   0  0  0  0  0  0  0  0  0  0  0  0
  150.3467  135.4234  154.9861 N   0  0  0  0  0  0  0  0  0  0  0  0
  150.9875  134.3793  155.7764 C   0  0  0  0  0  0  0  0  0  0  0  0
  150.7631  136.7189  155.0970 C   0  0  0  0  0  0  0  0  0  0  0  0
  150.8807  137.4554  153.9598 N   0  0  0  0  0  0  0  0  0  0  0  0
  151.2863  138.7263  154.0013 C   0  0  0  0  0  0  0  0  0  0  0  0
  151.6213  139.4563  155.0633 N   0  0  0  0  0  0  0  0  0  0  0  0
  151.5041  138.7386  156.2153 C   0  0  0  0  0  0  0  0  0  0  0  0
  151.0927  137.3766  156.3241 C   0  0  0  0  0  0  0  0  0  0  0  0
  151.1264  136.9947  157.6616 N   0  0  0  0  0  0  0  0  0  0  0  0
  151.5194  138.0617  158.2995 C   0  0  0  0  0  0  0  0  0  0  0  0
  151.7518  139.1638  157.5101 N   0  0  0  0  0  0  0  0  0  0  0  0
  152.1903  140.4765  157.9644 C   0  0  0  0  0  0  0  0  0  0  0  0
  151.0539  141.5311  158.0760 C   0  0  2  0  0  0  0  0  0  0  0  0
  150.1353  141.5452  156.8307 C   0  0  0  0  0  0  0  0  0  0  0  0
  148.8592  142.0627  157.1457 O   0  0  0  0  0  0  0  0  0  0  0  0
  151.5981  142.9495  158.3893 C   0  0  2  0  0  0  0  0  0  0  0  0
  152.6147  143.0028  159.5184 C   0  0  0  0  0  0  0  0  0  0  0  0
  152.6157  144.4828  159.8823 C   0  0  0  0  0  0  0  0  0  0  0  0
  151.2900  144.9373  159.6361 O   0  0  0  0  0  0  0  0  0  0  0  0
  150.5602  143.9408  158.9277 C   0  0  0  0  0  0  0  0  0  0  0  0
  148.3117  133.1148  155.2046 N   0  3  1  0  0  0  0  0  0  0  0  0
  147.9622  134.1739  156.1807 C   0  0  0  0  0  0  0  0  0  0  0  0
  147.1455  132.3097  154.7753 C   0  0  0  0  0  0  0  0  0  0  0  0
  148.1084  130.9560  153.4078 H   0  0  0  0  0  0  0  0  0  0  0  0
  149.9825  132.9199  154.0075 H   0  0  0  0  0  0  0  0  0  0  0  0
  144.9322  130.0497  152.1905 H   0  0  0  0  0  0  0  0  0  0  0  0
  145.7288  129.8683  153.7530 H   0  0  0  0  0  0  0  0  0  0  0  0
  146.6141  129.5322  152.2545 H   0  0  0  0  0  0  0  0  0  0  0  0
  148.8307  132.7730  151.9245 H   0  0  0  0  0  0  0  0  0  0  0  0
  147.5148  133.7997  152.4954 H   0  0  0  0  0  0  0  0  0  0  0  0
  149.8978  135.2348  152.9155 H   0  0  0  0  0  0  0  0  0  0  0  0
  148.5710  135.6290  153.9567 H   0  0  0  0  0  0  0  0  0  0  0  0
  152.0038  134.1983  155.4258 H   0  0  0  0  0  0  0  0  0  0  0  0
  150.4376  133.4411  155.7014 H   0  0  0  0  0  0  0  0  0  0  0  0
  151.0198  134.6549  156.8310 H   0  0  0  0  0  0  0  0  0  0  0  0
  151.3507  139.2300  153.0480 H   0  0  0  0  0  0  0  0  0  0  0  0
  151.6438  138.0756  159.3727 H   0  0  0  0  0  0  0  0  0  0  0  0
  152.6668  140.3482  158.9369 H   0  0  0  0  0  0  0  0  0  0  0  0
  152.9819  140.8260  157.3020 H   0  0  0  0  0  0  0  0  0  0  0  0
  150.4333  141.2358  158.9236 H   0  0  0  0  0  0  0  0  0  0  0  0
  150.5498  142.1810  156.0492 H   0  0  0  0  0  0  0  0  0  0  0  0
  150.0314  140.5491  156.3999 H   0  0  0  0  0  0  0  0  0  0  0  0
  148.8798  143.0012  157.0344 H   0  0  0  0  0  0  0  0  0  0  0  0
  152.0417  143.3813  157.4912 H   0  0  0  0  0  0  0  0  0  0  0  0
  152.2704  142.4118  160.3684 H   0  0  0  0  0  0  0  0  0  0  0  0
  153.6054  142.6456  159.2408 H   0  0  0  0  0  0  0  0  0  0  0  0
  152.9142  144.6579  160.9161 H   0  0  0  0  0  0  0  0  0  0  0  0
  153.2983  145.0330  159.2334 H   0  0  0  0  0  0  0  0  0  0  0  0
  149.9591  144.3898  158.1370 H   0  0  0  0  0  0  0  0  0  0  0  0
  149.8842  143.4498  159.6292 H   0  0  0  0  0  0  0  0  0  0  0  0
  147.3226  134.9362  155.7339 H   0  0  0  0  0  0  0  0  0  0  0  0
  148.8562  134.6524  156.5801 H   0  0  0  0  0  0  0  0  0  0  0  0
  147.4247  133.7399  157.0248 H   0  0  0  0  0  0  0  0  0  0  0  0
  146.2560  132.9423  154.7527 H   0  0  0  0  0  0  0  0  0  0  0  0
  146.9498  131.4849  155.4610 H   0  0  0  0  0  0  0  0  0  0  0  0
  148.9231  132.4772  155.6946 H   0  0  0  0  0  0  0  0  0  0  0  0
  1  2  1  0  0  0  0
  1 32  1  0  0  0  0
  1 33  1  0  0  0  0
  1 34  1  0  0  0  0
  2  3  1  0  0  0  0
  3 30  1  0  0  0  0
  3 29  1  0  0  0  0
  3  4  1  0  0  0  0
  4  5  1  0  0  0  0
  4 35  1  0  0  0  0
  4 36  1  0  0  0  0
  5 31  1  0  0  0  0
  5  6  1  0  0  0  0
  5 27  1  0  0  0  0
  6  7  1  0  0  0  0
  6 37  1  0  0  0  0
  6 38  1  0  0  0  0
  7  8  1  0  0  0  0
  7  9  1  0  0  0  0
  8 39  1  0  0  0  0
  8 40  1  0  0  0  0
  8 41  1  0  0  0  0
  9 14  1  0  0  0  0
  9 10  2  0  0  0  0
 10 11  1  0  0  0  0
 11 12  2  0  0  0  0
 11 42  1  0  0  0  0
 12 13  1  0  0  0  0
 13 17  1  0  0  0  0
 13 14  2  0  0  0  0
 14 15  1  0  0  0  0
 15 16  2  0  0  0  0
 16 17  1  0  0  0  0
 16 43  1  0  0  0  0
 17 18  1  0  0  0  0
 18 19  1  0  0  0  0
 18 44  1  0  0  0  0
 18 45  1  0  0  0  0
 19 20  1  0  0  0  0
 19 22  1  0  0  0  0
 19 46  1  0  0  0  0
 20 21  1  0  0  0  0
 20 47  1  0  0  0  0
 20 48  1  0  0  0  0
 21 49  1  0  0  0  0
 22 26  1  0  0  0  0
 22 23  1  0  0  0  0
 22 50  1  0  0  0  0
 23 24  1  0  0  0  0
 23 51  1  0  0  0  0
 23 52  1  0  0  0  0
 24 25  1  0  0  0  0
 24 53  1  0  0  0  0
 24 54  1  0  0  0  0
 25 26  1  0  0  0  0
 26 55  1  0  0  0  0
 26 56  1  0  0  0  0
 27 28  1  0  0  0  0
 27 29  1  0  0  0  0
 27 62  1  0  0  0  0
 28 57  1  0  0  0  0
 28 58  1  0  0  0  0
 28 59  1  0  0  0  0
 29 60  1  0  0  0  0
 29 61  1  0  0  0  0
M  CHG  1  27   1
M  END
> <s_m_source_file>
AV-unprocessed.smi

> <i_m_source_file_index>
21

> <i_lp_mmshare_version>
43012

> <i_f3d_flags>
0

> <s_epik_input>
W0NIM11PW0NASF0xW0NIMl1bQ0BIXShOKFtDSDNdKVtDSDJdMSlbQ0gyXU4oW0NIM10pYyhuW2NIXW4yKWMoYzIzKW5bY0hdbjNbQ0gyXVtDQEhdKFtDSDJdW09IXSlbQ0BASF00W0NIMl1bQ0gyXU9bQ0gyXTQ=

> <s_epik_cmdline>
J2VwaWtfcHl0aG9uJywgJy1waCcsICc3LjAnLCAnLXRuJywgJzgnLCAnLW1hJywgJzIwMCcsICctbWV0YWxfYmluZGluZycsICctaW1hZScsICc8aW5maWxlLm1hZT4nLCAnLW9tYWUnLCAnPG91dGZpbGUubWFlPic=

> <r_lp_tautomer_probability>
1

> <r_epik_Ionization_Penalty>
0.0157465

> <r_epik_Ionization_Penalty_Charging>
0.015354

> <r_epik_Ionization_Penalty_Neutral>
0.000392529

> <r_epik_State_Penalty>
0.0120612

> <r_epik_Charging_Adjusted_Penalty>
0.0274152

> <i_epik_Tot_Q>
1

> <i_epik_Tot_abs_Q>
1

> <r_epik_Metal_State_Penalty>
0.0121253

> <b_epik_Metal_Only>
0

> <s_lp_Force_Field>
OPLS_2005

> <r_lp_Energy>
60.1072

> <b_lp_Chiralities_Consistent>
1

> <s_lp_Variant>
AV-unprocessed.smi:21-17

> <Gold.Version>
5.8.1

> <Gold.Id.Protein>
6NUR|6NUR_protein|mol2

> <Gold.PLP.Fitness>
47.9083

> <Gold.PLP.PLP>
-44.5755

> <Gold.PLP.part.hbond>
-2.0000

> <Gold.PLP.part.metal>
0.0000

> <Gold.PLP.part.buried>
-8.1068

> <Gold.PLP.part.nonpolar>
-36.1339

> <Gold.PLP.part.repulsive>
0.4134

> <Gold.PLP.ligand.clash>
0.0000

> <Gold.PLP.ligand.torsion>
1.6875

> <Gold.PLP.Chemscore.Hbond>
2.0000

> <Gold.PLP.Chemscore.CHOScore>
0.0000

> <Gold.PLP.Chemscore.Metal>
0.0000

> <Gold.Chemscore.Hbonds>
donor molecule, donor type, donor heavy atom, donor atom, acceptor molecule, acceptor atom, score
      L1  H    21    49       P1  8028  0.59
      L1  C    11    42       P1  7957  0.57

> <Gold.PLP.Chemscore.Internal.Correction>
0.7077

> <Gold.Rescore>
     Score         DG    S(hbond)    S(metal)    S(lipo)     H(rot)  DE(clash)    DE(int)     intcor
     11.69     -15.05       1.56        0.00     104.54       3.08       0.07       3.29       ----

> <Gold.Chemscore.Fitness>
11.6932

> <Gold.Chemscore.DG>
-15.0530

> <Gold.Chemscore.ZeroCoef>
-5.4800

> <Gold.Chemscore.Hbond>
1.5615

> <Gold.Chemscore.Metal>
0.0000

> <Gold.Chemscore.Lipo>
104.5440

> <Gold.Chemscore.Internal_Hbond>
0.0000

> <Gold.Chemscore.DEClash>
0.0671

> <Gold.Chemscore.DEInternal>
3.2927

> <Gold.Chemscore.Rot>
3.0758

> <Gold.Chemscore.Internal.Correction>
   9.000000E+99

> <Gold.Chemscore.Hbonds>
donor molecule, donor type, donor heavy atom, donor atom, acceptor molecule, acceptor atom, score
      L1  H    21    49       P1  8028  0.44

> <Gold.Chemscore.Hbond.Weighted>
-5.2155

> <Gold.Chemscore.Metal.Weighted>
-0.0000

> <Gold.Chemscore.Lipo.Weighted>
-12.2316

> <Gold.Chemscore.Internal_Hbond.Weighted>
0.0000

> <Gold.Chemscore.DEClash.Weighted>
0.0671

> <Gold.Chemscore.DEInternal.Weighted>
3.2927

> <Gold.Chemscore.Rot.Weighted>
7.8741

> <Gold.Chemscore.Internal.Correction.Weighted>
   9.000000E+99

> <Gold.Protein.RotatedTorsions>
[ 6907 6896 6895 6894 ] final  -45.15 input  -60.11 | X-H torsion
[ 7974 7965 7964 7962 ] final  -49.78 input  175.53 | X-H torsion
[ 8008 7997 7996 7995 ] final  165.97 input   59.86 | X-H torsion
[ 10167 10162 10161 10158 ] final   98.08 input  -65.29 | X-H torsion
[ 10718 10713 10712 10709 ] final    1.66 input   66.30 | X-H torsion
[ 10763 10752 10751 10750 ] final  165.48 input  -60.55 | X-H torsion
[ 11005 11000 10999 10996 ] final  -65.89 input  -57.11 | X-H torsion

> <Gold.Protein.ActiveResidues>
 VAL166  LYS551  ARG553  GLY616  TRP617  ASP618  TYR619  PRO620  LYS621  CYS622 
 ASP623  PHE694  ASN695  SER759  ASP760  ASP761  ALA762  ILE779  LEU786  VAL792 
 PHE793  MET794  SER795  GLU796  ALA797  LYS798  CYS799  TRP800  GLU811  SER814 

> <Gold.Protein.RotatedAtoms>
  150.9251  134.8668  159.7514 H   0  0  0  0  0  0  0  0  0  0  0  0  # atno 6907 bound_to 6896
  152.5011  134.4161  159.9475 H   0  0  0  0  0  0  0  0  0  0  0  0  # atno 6908 bound_to 6896
  151.4192  133.3664  159.2789 H   0  0  0  0  0  0  0  0  0  0  0  0  # atno 6909 bound_to 6896
  145.9369  140.7698  142.9571 H   0  0  0  0  0  0  0  0  0  0  0  0  # atno 7974 bound_to 7965
  156.1757  140.1656  156.8367 H   0  0  0  0  0  0  0  0  0  0  0  0  # atno 8008 bound_to 7997
  154.5304  140.0758  156.8369 H   0  0  0  0  0  0  0  0  0  0  0  0  # atno 8009 bound_to 7997
  155.3418  140.3385  155.4241 H   0  0  0  0  0  0  0  0  0  0  0  0  # atno 8010 bound_to 7997
  139.7742  144.6912  151.0113 H   0  0  0  0  0  0  0  0  0  0  0  0  # atno 10167 bound_to 10162
  156.8514  130.5555  149.5669 H   0  0  0  0  0  0  0  0  0  0  0  0  # atno 10718 bound_to 10713
  154.3246  135.2755  155.2502 H   0  0  0  0  0  0  0  0  0  0  0  0  # atno 10763 bound_to 10752
  154.4841  135.5851  153.6414 H   0  0  0  0  0  0  0  0  0  0  0  0  # atno 10764 bound_to 10752
  152.9873  135.6118  154.3434 H   0  0  0  0  0  0  0  0  0  0  0  0  # atno 10765 bound_to 10752
  141.1467  133.6689  156.6055 H   0  0  0  0  0  0  0  0  0  0  0  0  # atno 11005 bound_to 11000
  144.6773  140.2217  143.7365 LP  0  0  0  0  0  0  0  0  0  0  0  0  # atno 17320 bound_to 7965
  145.8352  139.2104  143.1860 LP  0  0  0  0  0  0  0  0  0  0  0  0  # atno 17321 bound_to 7965
  140.7815  143.4555  151.0352 LP  0  0  0  0  0  0  0  0  0  0  0  0  # atno 17342 bound_to 10162
  139.8237  143.7785  152.3178 LP  0  0  0  0  0  0  0  0  0  0  0  0  # atno 17343 bound_to 10162
  156.0826  130.5832  150.9590 LP  0  0  0  0  0  0  0  0  0  0  0  0  # atno 17370 bound_to 10713
  157.6301  131.0922  150.8458 LP  0  0  0  0  0  0  0  0  0  0  0  0  # atno 17371 bound_to 10713
  140.3655  134.7651  157.4563 LP  0  0  0  0  0  0  0  0  0  0  0  0  # atno 17394 bound_to 11000
  140.0751  134.5808  155.8599 LP  0  0  0  0  0  0  0  0  0  0  0  0  # atno 17395 bound_to 11000

$$$$
