AV-unprocessed.smi:38|AV-procd|sdf|343|dock2
  -GOLD-   2262016183D 1   1.00000     0.00000
 Structure written by MMmdl.
 27 28  0  0  0  0  0  0  0  0  2 V2000
  152.4347  139.2024  155.5781 O   0  0  0  0  0  0  0  0  0  0  0  0
  151.3035  139.3545  155.1196 C   0  0  0  0  0  0  0  0  0  0  0  0
  150.7706  140.5834  154.8597 N   0  5  0  0  0  0  0  0  0  0  0  0
  149.5142  140.7500  154.3513 C   0  0  0  0  0  0  0  0  0  0  0  0
  149.0336  141.8545  154.0966 O   0  0  0  0  0  0  0  0  0  0  0  0
  148.7189  139.6002  154.0915 N   0  0  0  0  0  0  0  0  0  0  0  0
  147.3259  139.7778  153.5238 C   0  0  1  0  0  0  0  0  0  0  0  0
  147.3406  139.5781  152.0061 C   0  0  0  0  0  0  0  0  0  0  0  0
  146.9304  138.1257  151.8838 C   0  0  2  0  0  0  0  0  0  0  0  0
  146.3515  137.8696  150.6206 O   0  0  0  0  0  0  0  0  0  0  0  0
  145.9255  137.9878  153.0300 C   0  0  1  0  0  0  0  0  0  0  0  0
  145.7517  136.5435  153.5260 C   0  0  0  0  0  0  0  0  0  0  0  0
  147.0004  136.0029  153.9021 O   0  0  0  0  0  0  0  0  0  0  0  0
  146.4747  138.8061  154.0635 O   0  0  0  0  0  0  0  0  0  0  0  0
  149.2393  138.3400  154.3353 C   0  0  0  0  0  0  0  0  0  0  0  0
  150.4827  138.1800  154.8324 C   0  0  0  0  0  0  0  0  0  0  0  0
  150.9596  136.9435  155.0563 F   0  0  0  0  0  0  0  0  0  0  0  0
  146.9947  140.7689  153.8381 H   0  0  0  0  0  0  0  0  0  0  0  0
  147.7927  137.4765  152.0420 H   0  0  0  0  0  0  0  0  0  0  0  0
  144.9686  138.4148  152.7227 H   0  0  0  0  0  0  0  0  0  0  0  0
  146.5880  140.2369  151.5699 H   0  0  0  0  0  0  0  0  0  0  0  0
  148.3099  139.8069  151.5611 H   0  0  0  0  0  0  0  0  0  0  0  0
  145.4750  138.2223  150.6172 H   0  0  0  0  0  0  0  0  0  0  0  0
  145.1115  136.5264  154.4083 H   0  0  0  0  0  0  0  0  0  0  0  0
  145.2780  135.9147  152.7726 H   0  0  0  0  0  0  0  0  0  0  0  0
  147.5771  136.0315  153.1542 H   0  0  0  0  0  0  0  0  0  0  0  0
  148.6530  137.4598  154.1248 H   0  0  0  0  0  0  0  0  0  0  0  0
  1  2  2  0  0  0  0
  2 16  1  0  0  0  0
  2  3  1  0  0  0  0
  3  4  1  0  0  0  0
  4  5  2  0  0  0  0
  4  6  1  0  0  0  0
  6  7  1  0  0  0  0
  6 15  1  0  0  0  0
  7 18  1  0  0  0  0
  7 14  1  0  0  0  0
  7  8  1  0  0  0  0
  8  9  1  0  0  0  0
  8 21  1  0  0  0  0
  8 22  1  0  0  0  0
  9 19  1  0  0  0  0
  9 10  1  0  0  0  0
  9 11  1  0  0  0  0
 10 23  1  0  0  0  0
 11 20  1  0  0  0  0
 11 12  1  0  0  0  0
 11 14  1  0  0  0  0
 12 13  1  0  0  0  0
 12 24  1  0  0  0  0
 12 25  1  0  0  0  0
 13 26  1  0  0  0  0
 15 16  2  0  0  0  0
 15 27  1  0  0  0  0
 16 17  1  0  0  0  0
M  CHG  1   3  -1
M  END
> <s_m_source_file>
AV-unprocessed.smi

> <i_m_source_file_index>
38

> <i_lp_mmshare_version>
43012

> <i_f3d_flags>
0

> <s_epik_input>
Tz1jMVtuSF1jKD1PKW4oW2NIXWMxRilbQ0BIXTJbQ0gyXVtDQEhdKFtPSF0pW0NASF0oTzIpW0NIMl1bT0hd

> <s_epik_cmdline>
J2VwaWtfcHl0aG9uJywgJy1waCcsICc3LjAnLCAnLXRuJywgJzgnLCAnLW1hJywgJzIwMCcsICctbWV0YWxfYmluZGluZycsICctaW1hZScsICc8aW5maWxlLm1hZT4nLCAnLW9tYWUnLCAnPG91dGZpbGUubWFlPic=

> <r_epik_Ionization_Penalty>
1.68146

> <r_epik_Ionization_Penalty_Charging>
3.4211e-08

> <r_epik_Ionization_Penalty_Neutral>
1.68146

> <r_epik_State_Penalty>
1.78593

> <r_epik_Charging_Adjusted_Penalty>
1.78593

> <i_epik_Tot_Q>
-1

> <i_epik_Tot_abs_Q>
1

> <r_epik_Metal_State_Penalty>
0.0113696

> <b_epik_Metal_Only>
0

> <s_epik_Chemistry_Notes>
This compound contains an acetal/aminal-like group ( X-CH(R)-Y where X, Y are N, S, or O) that may be acid/base labile, releasing an aldehyde.

> <s_lp_Force_Field>
OPLS_2005

> <r_lp_Energy>
36.3434

> <b_lp_Chiralities_Consistent>
1

> <s_lp_Variant>
AV-unprocessed.smi:38-9

> <Gold.Version>
5.8.1

> <Gold.Id.Protein>
6NUR|6NUR_protein|mol2

> <Gold.PLP.Fitness>
39.1688

> <Gold.PLP.PLP>
-25.6289

> <Gold.PLP.part.hbond>
-5.5871

> <Gold.PLP.part.metal>
0.0000

> <Gold.PLP.part.buried>
6.7016

> <Gold.PLP.part.nonpolar>
-26.0299

> <Gold.PLP.part.repulsive>
0.4221

> <Gold.PLP.ligand.clash>
0.0000

> <Gold.PLP.ligand.torsion>
0.6426

> <Gold.PLP.Chemscore.Hbond>
4.1286

> <Gold.PLP.Chemscore.CHOScore>
0.8096

> <Gold.PLP.Chemscore.Metal>
0.0000

> <Gold.Chemscore.Hbonds>
donor molecule, donor type, donor heavy atom, donor atom, acceptor molecule, acceptor atom, score
      L1  H    10    23       P1 10171  1.00
      L1  H    13    26       P1  7948  1.00
      P1  H  7954  7966       L1    10  0.39
      P1  H  7989  7998       L1     3  0.80
      P1  H  7997  8009       L1     1  0.54
      P1  H  8011  8017       L1     5  0.48
      L1  C    15    27       P1  7948  0.68

> <Gold.PLP.Chemscore.Internal.Correction>
0.0104

> <Gold.Rescore>
     Score         DG    S(hbond)    S(metal)    S(lipo)     H(rot)  DE(clash)    DE(int)     intcor
      9.01     -13.06       3.17        0.00      37.25       2.88       3.33       0.72       ----

> <Gold.Chemscore.Fitness>
9.0126

> <Gold.Chemscore.DG>
-13.0557

> <Gold.Chemscore.ZeroCoef>
-5.4800

> <Gold.Chemscore.Hbond>
3.1720

> <Gold.Chemscore.Metal>
0.0000

> <Gold.Chemscore.Lipo>
37.2452

> <Gold.Chemscore.Internal_Hbond>
0.0000

> <Gold.Chemscore.DEClash>
3.3265

> <Gold.Chemscore.DEInternal>
0.7165

> <Gold.Chemscore.Rot>
2.8815

> <Gold.Chemscore.Internal.Correction>
   9.000000E+99

> <Gold.Chemscore.Hbonds>
donor molecule, donor type, donor heavy atom, donor atom, acceptor molecule, acceptor atom, score
      L1  H    10    23       P1 10171  0.96
      L1  H    13    26       P1  7948  1.00
      P1  H  7954  7966       L1    10  0.01
      P1  H  7989  7998       L1     3  0.03
      P1  H  7997  8009       L1     1  0.54
      P1  H  8011  8017       L1     5  0.28

> <Gold.Chemscore.Hbond.Weighted>
-10.5945

> <Gold.Chemscore.Metal.Weighted>
-0.0000

> <Gold.Chemscore.Lipo.Weighted>
-4.3577

> <Gold.Chemscore.Internal_Hbond.Weighted>
0.0000

> <Gold.Chemscore.DEClash.Weighted>
3.3265

> <Gold.Chemscore.DEInternal.Weighted>
0.7165

> <Gold.Chemscore.Rot.Weighted>
7.3765

> <Gold.Chemscore.Internal.Correction.Weighted>
   9.000000E+99

> <Gold.Protein.RotatedTorsions>
[ 6907 6896 6895 6894 ] final   17.59 input  -60.11 | X-H torsion
[ 7974 7965 7964 7962 ] final -109.99 input  175.53 | X-H torsion
[ 8008 7997 7996 7995 ] final -149.08 input   59.86 | X-H torsion
[ 10167 10162 10161 10158 ] final  122.62 input  -65.29 | X-H torsion
[ 10718 10713 10712 10709 ] final -158.68 input   66.30 | X-H torsion
[ 10763 10752 10751 10750 ] final   11.06 input  -60.55 | X-H torsion
[ 11005 11000 10999 10996 ] final -139.35 input  -57.11 | X-H torsion

> <Gold.Protein.ActiveResidues>
 VAL166  LYS551  ARG553  GLY616  TRP617  ASP618  TYR619  PRO620  LYS621  CYS622 
 ASP623  PHE694  ASN695  SER759  ASP760  ASP761  ALA762  ILE779  LEU786  VAL792 
 PHE793  MET794  SER795  GLU796  ALA797  LYS798  CYS799  TRP800  GLU811  SER814 

> <Gold.Protein.RotatedAtoms>
  151.8520  135.0554  160.0459 H   0  0  0  0  0  0  0  0  0  0  0  0  # atno 6907 bound_to 6896
  152.2729  133.5394  159.5458 H   0  0  0  0  0  0  0  0  0  0  0  0  # atno 6908 bound_to 6896
  150.7159  134.0588  159.3866 H   0  0  0  0  0  0  0  0  0  0  0  0  # atno 6909 bound_to 6896
  145.1738  140.8938  143.3520 H   0  0  0  0  0  0  0  0  0  0  0  0  # atno 7974 bound_to 7965
  155.6019  140.0663  157.2730 H   0  0  0  0  0  0  0  0  0  0  0  0  # atno 8008 bound_to 7997
  154.4276  140.1817  156.1229 H   0  0  0  0  0  0  0  0  0  0  0  0  # atno 8009 bound_to 7997
  156.0153  140.3322  155.6986 H   0  0  0  0  0  0  0  0  0  0  0  0  # atno 8010 bound_to 7997
  139.5848  144.7002  151.3437 H   0  0  0  0  0  0  0  0  0  0  0  0  # atno 10167 bound_to 10162
  156.5576  130.8633  151.2799 H   0  0  0  0  0  0  0  0  0  0  0  0  # atno 10718 bound_to 10713
  153.1966  135.6850  153.8284 H   0  0  0  0  0  0  0  0  0  0  0  0  # atno 10763 bound_to 10752
  153.7565  135.3216  155.3331 H   0  0  0  0  0  0  0  0  0  0  0  0  # atno 10764 bound_to 10752
  154.8148  135.4693  154.0713 H   0  0  0  0  0  0  0  0  0  0  0  0  # atno 10765 bound_to 10752
  140.8528  134.2265  157.4751 H   0  0  0  0  0  0  0  0  0  0  0  0  # atno 11005 bound_to 11000
  145.0206  139.3428  143.6074 LP  0  0  0  0  0  0  0  0  0  0  0  0  # atno 17320 bound_to 7965
  146.3464  139.9504  142.8729 LP  0  0  0  0  0  0  0  0  0  0  0  0  # atno 17321 bound_to 7965
  140.7121  143.7363  150.7586 LP  0  0  0  0  0  0  0  0  0  0  0  0  # atno 17342 bound_to 10162
  140.0904  143.4883  152.2481 LP  0  0  0  0  0  0  0  0  0  0  0  0  # atno 17343 bound_to 10162
  157.7375  130.9797  150.2197 LP  0  0  0  0  0  0  0  0  0  0  0  0  # atno 17370 bound_to 10713
  156.2828  130.3735  149.7918 LP  0  0  0  0  0  0  0  0  0  0  0  0  # atno 17371 bound_to 10713
  139.8704  134.9691  156.4656 LP  0  0  0  0  0  0  0  0  0  0  0  0  # atno 17394 bound_to 11000
  140.8771  133.7945  155.9426 LP  0  0  0  0  0  0  0  0  0  0  0  0  # atno 17395 bound_to 11000

$$$$
