AV-unprocessed.smi:2908|AV-procd|sdf|11167|dock4
  -GOLD-   2272016 53D 1   1.00000     0.00000
 Structure written by MMmdl.
 43 44  0  0  0  0  0  0  0  0  1 V2000
  150.4024  140.1025  154.7605 O   0  0  0  0  0  0  0  0  0  0  0  0
  149.6701  141.0822  154.9074 C   0  0  0  0  0  0  0  0  0  0  0  0
  149.9717  142.0734  155.7618 N   0  0  0  0  0  0  0  0  0  0  0  0
  151.1774  142.1217  156.5774 C   0  0  0  0  0  0  0  0  0  0  0  0
  151.4452  143.5506  157.0702 C   0  0  0  0  0  0  0  0  0  0  0  0
  151.8018  143.5903  158.5445 C   0  0  0  0  0  0  0  0  0  0  0  0
  151.6859  144.7876  159.2827 C   0  0  0  0  0  0  0  0  0  0  0  0
  152.0172  144.7663  160.6513 C   0  0  0  0  0  0  0  0  0  0  0  0
  152.4487  143.5554  161.2263 C   0  0  0  0  0  0  0  0  0  0  0  0
  152.5309  142.4149  160.4032 C   0  0  0  0  0  0  0  0  0  0  0  0
  152.2162  142.4244  159.0899 N   0  0  0  0  0  0  0  0  0  0  0  0
  148.4906  141.2340  154.2534 N   0  0  0  0  0  0  0  0  0  0  0  0
  147.6293  140.1554  153.7444 C   0  0  0  0  0  0  0  0  0  0  0  0
  146.4049  140.0261  154.6671 C   0  0  0  0  0  0  0  0  0  0  0  0
  145.6153  141.3566  154.7725 C   0  0  0  0  0  0  0  0  0  0  0  0
  144.4353  141.2361  155.7754 C   0  0  2  0  0  0  0  0  0  0  0  0
  143.4507  140.3907  155.2087 O   0  0  0  0  0  0  0  0  0  0  0  0
  143.7395  142.5634  156.1585 C   0  0  0  0  0  0  0  0  0  0  0  0
  142.5432  142.3070  156.6900 F   0  0  0  0  0  0  0  0  0  0  0  0
  144.4444  143.2152  157.0828 F   0  0  0  0  0  0  0  0  0  0  0  0
  143.5890  143.3507  155.0932 F   0  0  0  0  0  0  0  0  0  0  0  0
  146.5848  142.5196  155.0996 C   0  0  0  0  0  0  0  0  0  0  0  0
  147.8097  142.5297  154.1666 C   0  0  0  0  0  0  0  0  0  0  0  0
  149.3255  142.8444  155.8455 H   0  0  0  0  0  0  0  0  0  0  0  0
  151.0675  141.4482  157.4291 H   0  0  0  0  0  0  0  0  0  0  0  0
  152.0229  141.7627  155.9882 H   0  0  0  0  0  0  0  0  0  0  0  0
  152.2587  143.9986  156.4978 H   0  0  0  0  0  0  0  0  0  0  0  0
  150.5677  144.1750  156.8969 H   0  0  0  0  0  0  0  0  0  0  0  0
  151.3485  145.7005  158.8143 H   0  0  0  0  0  0  0  0  0  0  0  0
  151.9402  145.6623  161.2493 H   0  0  0  0  0  0  0  0  0  0  0  0
  152.7099  143.5019  162.2728 H   0  0  0  0  0  0  0  0  0  0  0  0
  152.8574  141.4695  160.8106 H   0  0  0  0  0  0  0  0  0  0  0  0
  147.3071  140.4010  152.7315 H   0  0  0  0  0  0  0  0  0  0  0  0
  148.1299  139.1910  153.6599 H   0  0  0  0  0  0  0  0  0  0  0  0
  145.7611  139.2301  154.2920 H   0  0  0  0  0  0  0  0  0  0  0  0
  146.7341  139.7125  155.6589 H   0  0  0  0  0  0  0  0  0  0  0  0
  145.1949  141.5622  153.7868 H   0  0  0  0  0  0  0  0  0  0  0  0
  144.7872  140.7545  156.6886 H   0  0  0  0  0  0  0  0  0  0  0  0
  143.2591  140.6988  154.3359 H   0  0  0  0  0  0  0  0  0  0  0  0
  146.0748  143.4771  155.0003 H   0  0  0  0  0  0  0  0  0  0  0  0
  146.9177  142.4452  156.1358 H   0  0  0  0  0  0  0  0  0  0  0  0
  148.4632  143.3659  154.4196 H   0  0  0  0  0  0  0  0  0  0  0  0
  147.4952  142.7056  153.1369 H   0  0  0  0  0  0  0  0  0  0  0  0
  1  2  2  0  0  0  0
  2  3  1  0  0  0  0
  2 12  1  0  0  0  0
  3  4  1  0  0  0  0
  3 24  1  0  0  0  0
  4  5  1  0  0  0  0
  4 25  1  0  0  0  0
  4 26  1  0  0  0  0
  5  6  1  0  0  0  0
  5 27  1  0  0  0  0
  5 28  1  0  0  0  0
  6 11  1  0  0  0  0
  6  7  2  0  0  0  0
  7  8  1  0  0  0  0
  7 29  1  0  0  0  0
  8  9  2  0  0  0  0
  8 30  1  0  0  0  0
  9 10  1  0  0  0  0
  9 31  1  0  0  0  0
 10 11  2  0  0  0  0
 10 32  1  0  0  0  0
 12 23  1  0  0  0  0
 12 13  1  0  0  0  0
 13 14  1  0  0  0  0
 13 33  1  0  0  0  0
 13 34  1  0  0  0  0
 14 15  1  0  0  0  0
 14 35  1  0  0  0  0
 14 36  1  0  0  0  0
 15 16  1  0  0  0  0
 15 22  1  0  0  0  0
 15 37  1  0  0  0  0
 16 17  1  0  0  0  0
 16 18  1  0  0  0  0
 16 38  1  0  0  0  0
 17 39  1  0  0  0  0
 18 19  1  0  0  0  0
 18 20  1  0  0  0  0
 18 21  1  0  0  0  0
 22 23  1  0  0  0  0
 22 40  1  0  0  0  0
 22 41  1  0  0  0  0
 23 42  1  0  0  0  0
 23 43  1  0  0  0  0
M  END
> <s_m_source_file>
AV-unprocessed.smi

> <i_m_source_file_index>
2908

> <i_lp_mmshare_version>
43012

> <i_f3d_flags>
0

> <s_epik_input>
RkMoRikoRilbQ0BASF0oW09IXSlbQ0hdKFtDSDJdW0NIMl0xKVtDSDJdW0NIMl1OMUMoPU8pW05IXVtDSDJdW0NIMl1jMltjSF1bY0hdW2NIXVtjSF1uMg==

> <s_epik_cmdline>
J2VwaWtfcHl0aG9uJywgJy1waCcsICc3LjAnLCAnLXRuJywgJzgnLCAnLW1hJywgJzIwMCcsICctbWV0YWxfYmluZGluZycsICctaW1hZScsICc8aW5maWxlLm1hZT4nLCAnLW9tYWUnLCAnPG91dGZpbGUubWFlPic=

> <r_epik_Ionization_Penalty>
0.0451198

> <r_epik_Ionization_Penalty_Charging>
0

> <r_epik_Ionization_Penalty_Neutral>
0.0451198

> <r_epik_State_Penalty>
0.0381178

> <r_epik_Charging_Adjusted_Penalty>
0.0381178

> <i_epik_Tot_Q>
0

> <i_epik_Tot_abs_Q>
0

> <r_epik_Metal_State_Penalty>
0.0354176

> <b_epik_Metal_Only>
0

> <s_lp_Force_Field>
OPLS_2005

> <r_lp_Energy>
35.4637

> <b_lp_Chiralities_Consistent>
1

> <s_lp_Variant>
AV-unprocessed.smi:2908-1

> <Gold.Version>
5.8.1

> <Gold.Id.Protein>
6NUR|6NUR_protein|mol2

> <Gold.PLP.Fitness>
46.3053

> <Gold.PLP.PLP>
-41.3411

> <Gold.PLP.part.hbond>
-3.0000

> <Gold.PLP.part.metal>
0.0000

> <Gold.PLP.part.buried>
-1.3777

> <Gold.PLP.part.nonpolar>
-37.0485

> <Gold.PLP.part.repulsive>
0.2144

> <Gold.PLP.ligand.clash>
0.9026

> <Gold.PLP.ligand.torsion>
1.6515

> <Gold.PLP.Chemscore.Hbond>
2.9200

> <Gold.PLP.Chemscore.CHOScore>
0.0000

> <Gold.PLP.Chemscore.Metal>
0.0000

> <Gold.Chemscore.Hbonds>
donor molecule, donor type, donor heavy atom, donor atom, acceptor molecule, acceptor atom, score
      L1  H     3    24       P1  8028  1.00
      L1  H    17    39       P1 10175  0.93
      P1  H  7989  7998       L1     1  0.90

> <Gold.PLP.Chemscore.Internal.Correction>
0.4098

> <Gold.Rescore>
     Score         DG    S(hbond)    S(metal)    S(lipo)     H(rot)  DE(clash)    DE(int)     intcor
     16.89     -20.99       2.61        0.00     108.50       2.30       1.81       2.29       ----

> <Gold.Chemscore.Fitness>
16.8919

> <Gold.Chemscore.DG>
-20.9922

> <Gold.Chemscore.ZeroCoef>
-5.4800

> <Gold.Chemscore.Hbond>
2.6102

> <Gold.Chemscore.Metal>
0.0000

> <Gold.Chemscore.Lipo>
108.4995

> <Gold.Chemscore.Internal_Hbond>
0.0000

> <Gold.Chemscore.DEClash>
1.8107

> <Gold.Chemscore.DEInternal>
2.2896

> <Gold.Chemscore.Rot>
2.3048

> <Gold.Chemscore.Internal.Correction>
   9.000000E+99

> <Gold.Chemscore.Hbonds>
donor molecule, donor type, donor heavy atom, donor atom, acceptor molecule, acceptor atom, score
      L1  H     3    24       P1  8028  0.95
      L1  H    17    39       P1 10175  0.83
      P1  H  7989  7998       L1     1  0.18

> <Gold.Chemscore.Hbond.Weighted>
-8.7182

> <Gold.Chemscore.Metal.Weighted>
-0.0000

> <Gold.Chemscore.Lipo.Weighted>
-12.6944

> <Gold.Chemscore.Internal_Hbond.Weighted>
0.0000

> <Gold.Chemscore.DEClash.Weighted>
1.8107

> <Gold.Chemscore.DEInternal.Weighted>
2.2896

> <Gold.Chemscore.Rot.Weighted>
5.9004

> <Gold.Chemscore.Internal.Correction.Weighted>
   9.000000E+99

> <Gold.Protein.RotatedTorsions>
[ 6907 6896 6895 6894 ] final  121.12 input  -60.11 | X-H torsion
[ 7974 7965 7964 7962 ] final  -54.07 input  175.53 | X-H torsion
[ 8008 7997 7996 7995 ] final    0.11 input   59.86 | X-H torsion
[ 10167 10162 10161 10158 ] final  100.43 input  -65.29 | X-H torsion
[ 10718 10713 10712 10709 ] final   10.20 input   66.30 | X-H torsion
[ 10763 10752 10751 10750 ] final  -76.55 input  -60.55 | X-H torsion
[ 11005 11000 10999 10996 ] final   57.35 input  -57.11 | X-H torsion

> <Gold.Protein.ActiveResidues>
 VAL166  LYS551  ARG553  GLY616  TRP617  ASP618  TYR619  PRO620  LYS621  CYS622 
 ASP623  PHE694  ASN695  SER759  ASP760  ASP761  ALA762  ILE779  LEU786  VAL792 
 PHE793  MET794  SER795  GLU796  ALA797  LYS798  CYS799  TRP800  GLU811  SER814 

> <Gold.Protein.RotatedAtoms>
  152.4346  133.7337  159.6601 H   0  0  0  0  0  0  0  0  0  0  0  0  # atno 6907 bound_to 6896
  150.8228  133.8213  159.3137 H   0  0  0  0  0  0  0  0  0  0  0  0  # atno 6908 bound_to 6896
  151.5890  135.1057  160.0086 H   0  0  0  0  0  0  0  0  0  0  0  0  # atno 6909 bound_to 6896
  145.8898  140.8080  142.9797 H   0  0  0  0  0  0  0  0  0  0  0  0  # atno 7974 bound_to 7965
  154.6643  140.2597  155.7075 H   0  0  0  0  0  0  0  0  0  0  0  0  # atno 8008 bound_to 7997
  156.2632  140.2842  156.1049 H   0  0  0  0  0  0  0  0  0  0  0  0  # atno 8009 bound_to 7997
  155.1262  140.0378  157.2753 H   0  0  0  0  0  0  0  0  0  0  0  0  # atno 8010 bound_to 7997
  139.7528  144.6979  151.0407 H   0  0  0  0  0  0  0  0  0  0  0  0  # atno 10167 bound_to 10162
  156.9774  130.5992  149.5674 H   0  0  0  0  0  0  0  0  0  0  0  0  # atno 10718 bound_to 10713
  154.5013  135.5794  153.6533 H   0  0  0  0  0  0  0  0  0  0  0  0  # atno 10763 bound_to 10752
  152.9879  135.6136  154.2999 H   0  0  0  0  0  0  0  0  0  0  0  0  # atno 10764 bound_to 10752
  154.2906  135.2849  155.2636 H   0  0  0  0  0  0  0  0  0  0  0  0  # atno 10765 bound_to 10752
  140.0459  134.5806  155.9323 H   0  0  0  0  0  0  0  0  0  0  0  0  # atno 11005 bound_to 11000
  144.6730  140.1511  143.7430 LP  0  0  0  0  0  0  0  0  0  0  0  0  # atno 17320 bound_to 7965
  145.8922  139.2382  143.1542 LP  0  0  0  0  0  0  0  0  0  0  0  0  # atno 17321 bound_to 7965
  140.7799  143.4789  151.0045 LP  0  0  0  0  0  0  0  0  0  0  0  0  # atno 17342 bound_to 10162
  139.8476  143.7480  152.3179 LP  0  0  0  0  0  0  0  0  0  0  0  0  # atno 17343 bound_to 10162
  156.0258  130.5352  150.8402 LP  0  0  0  0  0  0  0  0  0  0  0  0  # atno 17370 bound_to 10713
  157.5550  131.0945  150.9641 LP  0  0  0  0  0  0  0  0  0  0  0  0  # atno 17371 bound_to 10713
  141.1907  133.6569  156.5422 LP  0  0  0  0  0  0  0  0  0  0  0  0  # atno 17394 bound_to 11000
  140.3994  134.7370  157.4770 LP  0  0  0  0  0  0  0  0  0  0  0  0  # atno 17395 bound_to 11000

$$$$
