AV-unprocessed.smi:263|AV-procd|sdf|2006|dock3
  -GOLD-   2262021203D 1   1.00000     0.00000
 Structure written by MMmdl.
 57 61  0  0  0  0  0  0  0  0  1 V2000
  150.0310  135.1346  154.0044 O   0  0  0  0  0  0  0  0  0  0  0  0
  149.7185  134.1850  155.0089 C   0  0  0  0  0  0  0  0  0  0  0  0
  150.5565  134.5264  156.2663 C   0  0  0  0  0  0  0  0  0  0  0  0
  150.4721  135.9201  156.6760 N   0  0  0  0  0  0  0  0  0  0  0  0
  149.3247  136.6555  156.8713 C   0  0  0  0  0  0  0  0  0  0  0  0
  149.5132  137.8943  157.2360 N   0  0  0  0  0  0  0  0  0  0  0  0
  150.8960  138.0259  157.2942 C   0  0  0  0  0  0  0  0  0  0  0  0
  151.7781  139.0974  157.6124 C   0  0  0  0  0  0  0  0  0  0  0  0
  151.3381  140.3278  157.9824 N   0  0  0  0  0  0  0  0  0  0  0  0
  150.2822  140.9407  157.1733 C   0  0  0  0  0  0  0  0  0  0  0  0
  149.6498  142.1455  157.8962 C   0  0  0  0  0  0  0  0  0  0  0  0
  150.7125  143.1648  158.3575 C   0  0  1  0  0  0  0  0  0  0  0  0
  151.2978  143.7281  157.1944 O   0  0  0  0  0  0  0  0  0  0  0  0
  150.0827  144.3184  159.1700 C   0  0  0  0  0  0  0  0  0  0  0  0
  151.1424  145.2832  159.7362 C   0  0  0  0  0  0  0  0  0  0  0  0
  152.2084  144.5376  160.5550 C   0  0  0  0  0  0  0  0  0  0  0  0
  152.8534  143.4042  159.7401 C   0  0  0  0  0  0  0  0  0  0  0  0
  151.7847  142.4315  159.2047 C   0  0  2  0  0  0  0  0  0  0  0  0
  152.3886  141.2389  158.4380 C   0  0  0  0  0  0  0  0  0  0  0  0
  153.1136  138.8499  157.5343 N   0  0  0  0  0  0  0  0  0  0  0  0
  153.5579  137.6411  157.1788 C   0  0  0  0  0  0  0  0  0  0  0  0
  152.8538  136.5533  156.8613 N   0  0  0  0  0  0  0  0  0  0  0  0
  151.5135  136.7947  156.9331 C   0  0  0  0  0  0  0  0  0  0  0  0
  148.2123  134.2870  155.3236 C   0  0  0  0  0  0  0  0  0  0  0  0
  147.3402  133.7914  154.1564 C   0  0  0  0  0  0  0  0  0  0  0  0
  147.7043  132.4612  153.8093 O   0  0  0  0  0  0  0  0  0  0  0  0
  149.0446  132.3644  153.3430 C   0  0  0  0  0  0  0  0  0  0  0  0
  150.0247  132.7755  154.4566 C   0  0  0  0  0  0  0  0  0  0  0  0
  149.2278  135.4096  153.5889 H   0  0  0  0  0  0  0  0  0  0  0  0
  150.2475  133.9041  157.1074 H   0  0  0  0  0  0  0  0  0  0  0  0
  151.6071  134.2926  156.0887 H   0  0  0  0  0  0  0  0  0  0  0  0
  148.3363  136.2402  156.7377 H   0  0  0  0  0  0  0  0  0  0  0  0
  150.6989  141.2556  156.2156 H   0  0  0  0  0  0  0  0  0  0  0  0
  149.5054  140.2060  156.9569 H   0  0  0  0  0  0  0  0  0  0  0  0
  148.9156  142.6243  157.2469 H   0  0  0  0  0  0  0  0  0  0  0  0
  149.0963  141.7827  158.7634 H   0  0  0  0  0  0  0  0  0  0  0  0
  150.6350  144.2208  156.7353 H   0  0  0  0  0  0  0  0  0  0  0  0
  149.3706  144.8709  158.5554 H   0  0  0  0  0  0  0  0  0  0  0  0
  149.5086  143.9043  159.9999 H   0  0  0  0  0  0  0  0  0  0  0  0
  151.6226  145.8242  158.9201 H   0  0  0  0  0  0  0  0  0  0  0  0
  150.6591  146.0373  160.3579 H   0  0  0  0  0  0  0  0  0  0  0  0
  152.9751  145.2364  160.8910 H   0  0  0  0  0  0  0  0  0  0  0  0
  151.7519  144.1249  161.4555 H   0  0  0  0  0  0  0  0  0  0  0  0
  153.4275  143.8246  158.9134 H   0  0  0  0  0  0  0  0  0  0  0  0
  153.5656  142.8661  160.3665 H   0  0  0  0  0  0  0  0  0  0  0  0
  151.2801  142.0134  160.0778 H   0  0  0  0  0  0  0  0  0  0  0  0
  153.1025  140.7263  159.0816 H   0  0  0  0  0  0  0  0  0  0  0  0
  152.9512  141.5892  157.5718 H   0  0  0  0  0  0  0  0  0  0  0  0
  154.6317  137.5296  157.1447 H   0  0  0  0  0  0  0  0  0  0  0  0
  147.9860  133.6812  156.2022 H   0  0  0  0  0  0  0  0  0  0  0  0
  147.9425  135.3117  155.5831 H   0  0  0  0  0  0  0  0  0  0  0  0
  146.2897  133.8016  154.4472 H   0  0  0  0  0  0  0  0  0  0  0  0
  147.4327  134.4458  153.2883 H   0  0  0  0  0  0  0  0  0  0  0  0
  149.2363  131.3348  153.0404 H   0  0  0  0  0  0  0  0  0  0  0  0
  149.1787  132.9827  152.4541 H   0  0  0  0  0  0  0  0  0  0  0  0
  151.0466  132.7177  154.0808 H   0  0  0  0  0  0  0  0  0  0  0  0
  149.9541  132.0489  155.2672 H   0  0  0  0  0  0  0  0  0  0  0  0
  1  2  1  0  0  0  0
  1 29  1  0  0  0  0
  2 28  1  0  0  0  0
  2  3  1  0  0  0  0
  2 24  1  0  0  0  0
  3  4  1  0  0  0  0
  3 30  1  0  0  0  0
  3 31  1  0  0  0  0
  4 23  1  0  0  0  0
  4  5  1  0  0  0  0
  5  6  2  0  0  0  0
  5 32  1  0  0  0  0
  6  7  1  0  0  0  0
  7 23  2  0  0  0  0
  7  8  1  0  0  0  0
  8  9  1  0  0  0  0
  8 20  2  0  0  0  0
  9 19  1  0  0  0  0
  9 10  1  0  0  0  0
 10 11  1  0  0  0  0
 10 33  1  0  0  0  0
 10 34  1  0  0  0  0
 11 12  1  0  0  0  0
 11 35  1  0  0  0  0
 11 36  1  0  0  0  0
 12 18  1  0  0  0  0
 12 13  1  0  0  0  0
 12 14  1  0  0  0  0
 13 37  1  0  0  0  0
 14 15  1  0  0  0  0
 14 38  1  0  0  0  0
 14 39  1  0  0  0  0
 15 16  1  0  0  0  0
 15 40  1  0  0  0  0
 15 41  1  0  0  0  0
 16 17  1  0  0  0  0
 16 42  1  0  0  0  0
 16 43  1  0  0  0  0
 17 18  1  0  0  0  0
 17 44  1  0  0  0  0
 17 45  1  0  0  0  0
 18 19  1  0  0  0  0
 18 46  1  0  0  0  0
 19 47  1  0  0  0  0
 19 48  1  0  0  0  0
 20 21  1  0  0  0  0
 21 22  2  0  0  0  0
 21 49  1  0  0  0  0
 22 23  1  0  0  0  0
 24 25  1  0  0  0  0
 24 50  1  0  0  0  0
 24 51  1  0  0  0  0
 25 26  1  0  0  0  0
 25 52  1  0  0  0  0
 25 53  1  0  0  0  0
 26 27  1  0  0  0  0
 27 28  1  0  0  0  0
 27 54  1  0  0  0  0
 27 55  1  0  0  0  0
 28 56  1  0  0  0  0
 28 57  1  0  0  0  0
M  END
> <s_m_source_file>
AV-unprocessed.smi

> <i_m_source_file_index>
263

> <i_lp_mmshare_version>
43012

> <i_f3d_flags>
0

> <s_epik_input>
W0NIMl0xW0NIMl1PW0NIMl1bQ0gyXUMxKFtPSF0pW0NIMl1uKFtjSF1uMiljKGMyMyluW2NIXW5jM04oW0NIMl1bQ0gyXTQpW0NIMl1bQ0BASF0oW0NAXTQ1W09IXSlbQ0gyXVtDSDJdW0NIMl1bQ0gyXTU=

> <s_epik_cmdline>
J2VwaWtfcHl0aG9uJywgJy1waCcsICc3LjAnLCAnLXRuJywgJzgnLCAnLW1hJywgJzIwMCcsICctbWV0YWxfYmluZGluZycsICctaW1hZScsICc8aW5maWxlLm1hZT4nLCAnLW9tYWUnLCAnPG91dGZpbGUubWFlPic=

> <r_lp_tautomer_probability>
1

> <r_epik_Ionization_Penalty>
0.00747493

> <r_epik_Ionization_Penalty_Charging>
0

> <r_epik_Ionization_Penalty_Neutral>
0.00747493

> <r_epik_State_Penalty>
0.00549307

> <r_epik_Charging_Adjusted_Penalty>
0.00549307

> <i_epik_Tot_Q>
0

> <i_epik_Tot_abs_Q>
0

> <r_epik_Metal_State_Penalty>
-0

> <b_epik_Metal_Only>
0

> <s_lp_Force_Field>
OPLS_2005

> <r_lp_Energy>
38.115

> <b_lp_Chiralities_Consistent>
1

> <s_lp_Variant>
AV-unprocessed.smi:263-4

> <Gold.Version>
5.8.1

> <Gold.Id.Protein>
6NUR|6NUR_protein|mol2

> <Gold.PLP.Fitness>
50.0968

> <Gold.PLP.PLP>
-39.9690

> <Gold.PLP.part.hbond>
-5.0000

> <Gold.PLP.part.metal>
0.0000

> <Gold.PLP.part.buried>
-6.5117

> <Gold.PLP.part.nonpolar>
-28.4313

> <Gold.PLP.part.repulsive>
0.0603

> <Gold.PLP.ligand.clash>
0.0000

> <Gold.PLP.ligand.torsion>
0.3401

> <Gold.PLP.Chemscore.Hbond>
3.4713

> <Gold.PLP.Chemscore.CHOScore>
0.0000

> <Gold.PLP.Chemscore.Metal>
0.0000

> <Gold.Chemscore.Hbonds>
donor molecule, donor type, donor heavy atom, donor atom, acceptor molecule, acceptor atom, score
      L1  H     1    29       P1  7948  0.56
      L1  H    13    37       P1  8028  0.86
      P1  H  7997  8009       L1    20  1.00
      P1  H 10752 10763       L1    22  0.99

> <Gold.PLP.Chemscore.Internal.Correction>
0.3942

> <Gold.Rescore>
     Score         DG    S(hbond)    S(metal)    S(lipo)     H(rot)  DE(clash)    DE(int)     intcor
     19.83     -20.69       2.63        0.00     112.34       2.62       0.43       0.43       ----

> <Gold.Chemscore.Fitness>
19.8321

> <Gold.Chemscore.DG>
-20.6926

> <Gold.Chemscore.ZeroCoef>
-5.4800

> <Gold.Chemscore.Hbond>
2.6299

> <Gold.Chemscore.Metal>
0.0000

> <Gold.Chemscore.Lipo>
112.3437

> <Gold.Chemscore.Internal_Hbond>
0.0000

> <Gold.Chemscore.DEClash>
0.4294

> <Gold.Chemscore.DEInternal>
0.4311

> <Gold.Chemscore.Rot>
2.6232

> <Gold.Chemscore.Internal.Correction>
   9.000000E+99

> <Gold.Chemscore.Hbonds>
donor molecule, donor type, donor heavy atom, donor atom, acceptor molecule, acceptor atom, score
      L1  H     1    29       P1  7948  0.22
      L1  H    13    37       P1  8028  0.83
      P1  H  7997  8009       L1    20  0.33
      P1  H 10752 10763       L1    22  0.82

> <Gold.Chemscore.Hbond.Weighted>
-8.7839

> <Gold.Chemscore.Metal.Weighted>
-0.0000

> <Gold.Chemscore.Lipo.Weighted>
-13.1442

> <Gold.Chemscore.Internal_Hbond.Weighted>
0.0000

> <Gold.Chemscore.DEClash.Weighted>
0.4294

> <Gold.Chemscore.DEInternal.Weighted>
0.4311

> <Gold.Chemscore.Rot.Weighted>
6.7155

> <Gold.Chemscore.Internal.Correction.Weighted>
   9.000000E+99

> <Gold.Protein.RotatedTorsions>
[ 6907 6896 6895 6894 ] final  -93.43 input  -60.11 | X-H torsion
[ 7974 7965 7964 7962 ] final    4.07 input  175.53 | X-H torsion
[ 8008 7997 7996 7995 ] final  148.65 input   59.86 | X-H torsion
[ 10167 10162 10161 10158 ] final -131.18 input  -65.29 | X-H torsion
[ 10718 10713 10712 10709 ] final  138.84 input   66.30 | X-H torsion
[ 10763 10752 10751 10750 ] final  116.58 input  -60.55 | X-H torsion
[ 11005 11000 10999 10996 ] final   32.05 input  -57.11 | X-H torsion

> <Gold.Protein.ActiveResidues>
 VAL166  LYS551  ARG553  GLY616  TRP617  ASP618  TYR619  PRO620  LYS621  CYS622 
 ASP623  PHE694  ASN695  SER759  ASP760  ASP761  ALA762  ILE779  LEU786  VAL792 
 PHE793  MET794  SER795  GLU796  ALA797  LYS798  CYS799  TRP800  GLU811  SER814 

> <Gold.Protein.RotatedAtoms>
  150.6922  134.1968  159.4306 H   0  0  0  0  0  0  0  0  0  0  0  0  # atno 6907 bound_to 6896
  151.9936  134.9964  160.0572 H   0  0  0  0  0  0  0  0  0  0  0  0  # atno 6908 bound_to 6896
  152.1644  133.4568  159.4914 H   0  0  0  0  0  0  0  0  0  0  0  0  # atno 6909 bound_to 6896
  146.2444  140.0591  142.8370 H   0  0  0  0  0  0  0  0  0  0  0  0  # atno 7974 bound_to 7965
  156.2784  140.2123  156.5732 H   0  0  0  0  0  0  0  0  0  0  0  0  # atno 8008 bound_to 7997
  154.7119  140.0511  157.0581 H   0  0  0  0  0  0  0  0  0  0  0  0  # atno 8009 bound_to 7997
  155.0594  140.3165  155.4668 H   0  0  0  0  0  0  0  0  0  0  0  0  # atno 8010 bound_to 7997
  139.9216  143.6376  152.2552 H   0  0  0  0  0  0  0  0  0  0  0  0  # atno 10167 bound_to 10162
  157.4209  131.1038  151.0354 H   0  0  0  0  0  0  0  0  0  0  0  0  # atno 10718 bound_to 10713
  153.5394  135.3562  155.2711 H   0  0  0  0  0  0  0  0  0  0  0  0  # atno 10763 bound_to 10752
  154.8719  135.4087  154.3061 H   0  0  0  0  0  0  0  0  0  0  0  0  # atno 10764 bound_to 10752
  153.3765  135.7066  153.6665 H   0  0  0  0  0  0  0  0  0  0  0  0  # atno 10765 bound_to 10752
  140.2775  134.3011  155.7810 H   0  0  0  0  0  0  0  0  0  0  0  0  # atno 11005 bound_to 11000
  145.0916  140.9288  143.4765 LP  0  0  0  0  0  0  0  0  0  0  0  0  # atno 17320 bound_to 7965
  145.0764  139.2992  143.5805 LP  0  0  0  0  0  0  0  0  0  0  0  0  # atno 17321 bound_to 7965
  139.6857  144.7652  151.1528 LP  0  0  0  0  0  0  0  0  0  0  0  0  # atno 17342 bound_to 10162
  140.7661  143.5660  150.9047 LP  0  0  0  0  0  0  0  0  0  0  0  0  # atno 17343 bound_to 10162
  157.1285  130.6092  149.5523 LP  0  0  0  0  0  0  0  0  0  0  0  0  # atno 17370 bound_to 10713
  155.9880  130.4922  150.7152 LP  0  0  0  0  0  0  0  0  0  0  0  0  # atno 17371 bound_to 10713
  141.2168  133.7505  156.9429 LP  0  0  0  0  0  0  0  0  0  0  0  0  # atno 17394 bound_to 11000
  140.1315  134.9353  157.2343 LP  0  0  0  0  0  0  0  0  0  0  0  0  # atno 17395 bound_to 11000

$$$$
