AV-unprocessed.smi:3211|AV-procd|sdf|12274|dock1
  -GOLD-   2272018113D 1   1.00000     0.00000
 Structure written by MMmdl.
 34 35  0  0  0  0  0  0  0  0  1 V2000
  153.0774  142.6466  162.5999 C   0  0  0  0  0  0  0  0  0  0  0  0
  153.4651  142.0222  161.2554 C   0  0  0  0  0  0  0  0  0  0  0  0
  152.7721  142.6673  160.1023 C   0  0  0  0  0  0  0  0  0  0  0  0
  152.3190  141.9909  159.0438 N   0  0  0  0  0  0  0  0  0  0  0  0
  151.6831  142.8142  158.1094 C   0  0  0  0  0  0  0  0  0  0  0  0
  151.1205  142.2212  156.8538 C   0  0  0  0  0  0  0  0  0  0  0  0
  150.2750  140.9670  157.1305 C   0  0  0  0  0  0  0  0  0  0  0  0
  148.9896  141.0263  156.4433 N   0  0  0  0  0  0  0  0  0  0  0  0
  148.8232  140.9549  155.1138 C   0  0  0  0  0  0  0  0  0  0  0  0
  149.7608  140.8171  154.3267 O   0  0  0  0  0  0  0  0  0  0  0  0
  147.3994  141.0635  154.6743 C   0  0  2  0  0  0  0  0  0  0  0  0
  147.1087  140.9229  153.1937 C   0  0  0  0  0  0  0  0  0  0  0  0
  147.0068  142.2771  153.8524 C   0  0  1  0  0  0  0  0  0  0  0  0
  145.6634  142.9413  154.0628 C   0  0  0  0  0  0  0  0  0  0  0  0
  151.6464  144.1334  158.4870 C   0  0  0  0  0  0  0  0  0  0  0  0
  152.4104  144.3882  160.0318 S   0  0  0  0  0  0  0  0  0  0  0  0
  153.6004  142.1560  163.4208 H   0  0  0  0  0  0  0  0  0  0  0  0
  152.0066  142.5516  162.7831 H   0  0  0  0  0  0  0  0  0  0  0  0
  153.3300  143.7069  162.6293 H   0  0  0  0  0  0  0  0  0  0  0  0
  154.5421  142.1030  161.1050 H   0  0  0  0  0  0  0  0  0  0  0  0
  153.2291  140.9574  161.2580 H   0  0  0  0  0  0  0  0  0  0  0  0
  150.5111  142.9620  156.3345 H   0  0  0  0  0  0  0  0  0  0  0  0
  151.9336  141.9730  156.1703 H   0  0  0  0  0  0  0  0  0  0  0  0
  150.8161  140.0659  156.8365 H   0  0  0  0  0  0  0  0  0  0  0  0
  150.0837  140.8782  158.2002 H   0  0  0  0  0  0  0  0  0  0  0  0
  148.1678  141.1379  157.0193 H   0  0  0  0  0  0  0  0  0  0  0  0
  146.6498  140.6671  155.3577 H   0  0  0  0  0  0  0  0  0  0  0  0
  147.9418  140.7610  152.5119 H   0  0  0  0  0  0  0  0  0  0  0  0
  146.1876  140.4123  152.9199 H   0  0  0  0  0  0  0  0  0  0  0  0
  147.7974  142.9834  153.6035 H   0  0  0  0  0  0  0  0  0  0  0  0
  144.8986  142.2026  154.3046 H   0  0  0  0  0  0  0  0  0  0  0  0
  145.3619  143.4704  153.1586 H   0  0  0  0  0  0  0  0  0  0  0  0
  145.7259  143.6584  154.8814 H   0  0  0  0  0  0  0  0  0  0  0  0
  151.2140  144.9671  157.9541 H   0  0  0  0  0  0  0  0  0  0  0  0
  1  2  1  0  0  0  0
  1 17  1  0  0  0  0
  1 18  1  0  0  0  0
  1 19  1  0  0  0  0
  2  3  1  0  0  0  0
  2 20  1  0  0  0  0
  2 21  1  0  0  0  0
  3 16  1  0  0  0  0
  3  4  2  0  0  0  0
  4  5  1  0  0  0  0
  5  6  1  0  0  0  0
  5 15  2  0  0  0  0
  6  7  1  0  0  0  0
  6 22  1  0  0  0  0
  6 23  1  0  0  0  0
  7  8  1  0  0  0  0
  7 24  1  0  0  0  0
  7 25  1  0  0  0  0
  8  9  1  0  0  0  0
  8 26  1  0  0  0  0
  9 10  2  0  0  0  0
  9 11  1  0  0  0  0
 11 13  1  0  0  0  0
 11 12  1  0  0  0  0
 11 27  1  0  0  0  0
 12 13  1  0  0  0  0
 12 28  1  0  0  0  0
 12 29  1  0  0  0  0
 13 14  1  0  0  0  0
 13 30  1  0  0  0  0
 14 31  1  0  0  0  0
 14 32  1  0  0  0  0
 14 33  1  0  0  0  0
 15 16  1  0  0  0  0
 15 34  1  0  0  0  0
M  END
> <s_m_source_file>
AV-unprocessed.smi

> <i_m_source_file_index>
3211

> <i_lp_mmshare_version>
43012

> <i_f3d_flags>
0

> <s_epik_input>
W0NIM11bQ0gyXWMxbmMoW2NIXXMxKVtDSDJdW0NIMl1bTkhdQyg9TylbQ0BASF0yW0NIMl1bQ0BIXTJbQ0gzXQ==

> <s_epik_cmdline>
J2VwaWtfcHl0aG9uJywgJy1waCcsICc3LjAnLCAnLXRuJywgJzgnLCAnLW1hJywgJzIwMCcsICctbWV0YWxfYmluZGluZycsICctaW1hZScsICc8aW5maWxlLm1hZT4nLCAnLW9tYWUnLCAnPG91dGZpbGUubWFlPic=

> <r_epik_Ionization_Penalty>
0.00109667

> <r_epik_Ionization_Penalty_Charging>
0

> <r_epik_Ionization_Penalty_Neutral>
0.00109667

> <r_epik_State_Penalty>
0.000719322

> <r_epik_Charging_Adjusted_Penalty>
0.000719322

> <i_epik_Tot_Q>
0

> <i_epik_Tot_abs_Q>
0

> <r_epik_Metal_State_Penalty>
-0

> <b_epik_Metal_Only>
0

> <s_lp_Force_Field>
OPLS_2005

> <r_lp_Energy>
-0.493762

> <b_lp_Chiralities_Consistent>
1

> <s_lp_Variant>
AV-unprocessed.smi:3211-1

> <Gold.Version>
5.8.1

> <Gold.Id.Protein>
6NUR|6NUR_protein|mol2

> <Gold.PLP.Fitness>
41.7477

> <Gold.PLP.PLP>
-41.4884

> <Gold.PLP.part.hbond>
-1.0000

> <Gold.PLP.part.metal>
0.0000

> <Gold.PLP.part.buried>
-6.9796

> <Gold.PLP.part.nonpolar>
-33.8108

> <Gold.PLP.part.repulsive>
0.1538

> <Gold.PLP.ligand.clash>
0.0000

> <Gold.PLP.ligand.torsion>
0.8665

> <Gold.PLP.Chemscore.Hbond>
0.6080

> <Gold.PLP.Chemscore.CHOScore>
0.0000

> <Gold.PLP.Chemscore.Metal>
0.0000

> <Gold.Chemscore.Hbonds>
donor molecule, donor type, donor heavy atom, donor atom, acceptor molecule, acceptor atom, score
      P1  H  7989  7998       L1    10  0.62

> <Gold.PLP.Chemscore.Internal.Correction>
0.1684

> <Gold.Rescore>
     Score         DG    S(hbond)    S(metal)    S(lipo)     H(rot)  DE(clash)    DE(int)     intcor
     16.54     -17.65       0.86        0.00     112.38       1.51       0.15       0.96       ----

> <Gold.Chemscore.Fitness>
16.5379

> <Gold.Chemscore.DG>
-17.6460

> <Gold.Chemscore.ZeroCoef>
-5.4800

> <Gold.Chemscore.Hbond>
0.8629

> <Gold.Chemscore.Metal>
0.0000

> <Gold.Chemscore.Lipo>
112.3800

> <Gold.Chemscore.Internal_Hbond>
0.0000

> <Gold.Chemscore.DEClash>
0.1477

> <Gold.Chemscore.DEInternal>
0.9605

> <Gold.Chemscore.Rot>
1.5096

> <Gold.Chemscore.Internal.Correction>
   9.000000E+99

> <Gold.Chemscore.Hbonds>
donor molecule, donor type, donor heavy atom, donor atom, acceptor molecule, acceptor atom, score
      P1  H  7989  7998       L1    10  0.58

> <Gold.Chemscore.Hbond.Weighted>
-2.8821

> <Gold.Chemscore.Metal.Weighted>
-0.0000

> <Gold.Chemscore.Lipo.Weighted>
-13.1485

> <Gold.Chemscore.Internal_Hbond.Weighted>
0.0000

> <Gold.Chemscore.DEClash.Weighted>
0.1477

> <Gold.Chemscore.DEInternal.Weighted>
0.9605

> <Gold.Chemscore.Rot.Weighted>
3.8646

> <Gold.Chemscore.Internal.Correction.Weighted>
   9.000000E+99

> <Gold.Protein.RotatedTorsions>
[ 6907 6896 6895 6894 ] final  -84.69 input  -60.11 | X-H torsion
[ 7974 7965 7964 7962 ] final  134.06 input  175.53 | X-H torsion
[ 8008 7997 7996 7995 ] final   50.92 input   59.86 | X-H torsion
[ 10167 10162 10161 10158 ] final  179.17 input  -65.29 | X-H torsion
[ 10718 10713 10712 10709 ] final -171.27 input   66.30 | X-H torsion
[ 10763 10752 10751 10750 ] final -115.74 input  -60.55 | X-H torsion
[ 11005 11000 10999 10996 ] final  109.16 input  -57.11 | X-H torsion

> <Gold.Protein.ActiveResidues>
 VAL166  LYS551  ARG553  GLY616  TRP617  ASP618  TYR619  PRO620  LYS621  CYS622 
 ASP623  PHE694  ASN695  SER759  ASP760  ASP761  ALA762  ILE779  LEU786  VAL792 
 PHE793  MET794  SER795  GLU796  ALA797  LYS798  CYS799  TRP800  GLU811  SER814 

> <Gold.Protein.RotatedAtoms>
  150.6875  134.3319  159.4830 H   0  0  0  0  0  0  0  0  0  0  0  0  # atno 6907 bound_to 6896
  152.1183  134.9222  160.0573 H   0  0  0  0  0  0  0  0  0  0  0  0  # atno 6908 bound_to 6896
  152.0438  133.3954  159.4385 H   0  0  0  0  0  0  0  0  0  0  0  0  # atno 6909 bound_to 6896
  144.9802  139.4513  143.5390 H   0  0  0  0  0  0  0  0  0  0  0  0  # atno 7974 bound_to 7965
  155.4267  140.3449  155.4276 H   0  0  0  0  0  0  0  0  0  0  0  0  # atno 8008 bound_to 7997
  156.1360  140.1528  156.9024 H   0  0  0  0  0  0  0  0  0  0  0  0  # atno 8009 bound_to 7997
  154.4932  140.0835  156.7621 H   0  0  0  0  0  0  0  0  0  0  0  0  # atno 8010 bound_to 7997
  139.5325  144.2592  152.0721 H   0  0  0  0  0  0  0  0  0  0  0  0  # atno 10167 bound_to 10162
  156.7384  130.9333  151.3109 H   0  0  0  0  0  0  0  0  0  0  0  0  # atno 10718 bound_to 10713
  154.8493  135.4371  154.1710 H   0  0  0  0  0  0  0  0  0  0  0  0  # atno 10763 bound_to 10752
  153.2824  135.6954  153.7379 H   0  0  0  0  0  0  0  0  0  0  0  0  # atno 10764 bound_to 10752
  153.6578  135.3440  155.3093 H   0  0  0  0  0  0  0  0  0  0  0  0  # atno 10765 bound_to 10752
  139.8857  134.9450  156.6082 H   0  0  0  0  0  0  0  0  0  0  0  0  # atno 11005 bound_to 11000
  146.3406  139.9069  142.8786 LP  0  0  0  0  0  0  0  0  0  0  0  0  # atno 17320 bound_to 7965
  145.2432  141.0017  143.3923 LP  0  0  0  0  0  0  0  0  0  0  0  0  # atno 17321 bound_to 7965
  140.2058  144.4612  150.6409 LP  0  0  0  0  0  0  0  0  0  0  0  0  # atno 17342 bound_to 10162
  140.6512  143.2225  151.6073 LP  0  0  0  0  0  0  0  0  0  0  0  0  # atno 17343 bound_to 10162
  157.6829  130.9157  150.0312 LP  0  0  0  0  0  0  0  0  0  0  0  0  # atno 17370 bound_to 10713
  156.1481  130.3642  149.9479 LP  0  0  0  0  0  0  0  0  0  0  0  0  # atno 17371 bound_to 10713
  140.7831  133.8643  155.8584 LP  0  0  0  0  0  0  0  0  0  0  0  0  # atno 17394 bound_to 11000
  140.9743  134.1490  157.4550 LP  0  0  0  0  0  0  0  0  0  0  0  0  # atno 17395 bound_to 11000

$$$$
