AV-unprocessed.smi:1203|AV-procd|sdf|5036|dock1
  -GOLD-   22720 4 63D 1   1.00000     0.00000
 Structure written by MMmdl.
 40 41  0  0  0  0  0  0  0  0  2 V2000
  149.2064  135.0545  156.7767 C   0  0  0  0  0  0  0  0  0  0  0  0
  150.7915  135.9573  157.0203 S   0  0  0  0  0  0  0  0  0  0  0  0
  150.8305  136.4385  158.4095 O   0  0  0  0  0  0  0  0  0  0  0  0
  151.8909  135.1329  156.4952 O   0  0  0  0  0  0  0  0  0  0  0  0
  150.6221  137.3464  155.9949 N   0  0  0  0  0  0  0  0  0  0  0  0
  151.2799  137.4434  154.6943 C   0  0  0  0  0  0  0  0  0  0  0  0
  150.6686  138.6886  154.0581 C   0  0  0  0  0  0  0  0  0  0  0  0
  150.3539  139.5926  155.2471 C   0  0  0  0  0  0  0  0  0  0  0  0
  150.0188  138.6268  156.4039 C   0  0  2  0  0  0  0  0  0  0  0  0
  150.4884  139.1726  157.7605 C   0  0  0  0  0  0  0  0  0  0  0  0
  149.6710  139.4560  158.6370 O   0  0  0  0  0  0  0  0  0  0  0  0
  151.8141  139.3134  157.9196 N   0  0  0  0  0  0  0  0  0  0  0  0
  152.4796  139.7962  159.1271 C   0  0  0  0  0  0  0  0  0  0  0  0
  152.8823  141.2804  159.0223 C   0  0  0  0  0  0  0  0  0  0  0  0
  153.0508  141.9639  160.3686 C   0  0  0  0  0  0  0  0  0  0  0  0
  152.3572  143.1599  160.6574 C   0  0  0  0  0  0  0  0  0  0  0  0
  152.5063  143.7569  161.9265 C   0  0  0  0  0  0  0  0  0  0  0  0
  153.3485  143.1456  162.8777 C   0  0  0  0  0  0  0  0  0  0  0  0
  153.9997  142.0041  162.5644 N   0  3  0  0  0  0  0  0  0  0  0  0
  153.8834  141.4014  161.3609 C   0  0  0  0  0  0  0  0  0  0  0  0
  149.1789  134.1925  157.4427 H   0  0  0  0  0  0  0  0  0  0  0  0
  149.1242  134.7095  155.7478 H   0  0  0  0  0  0  0  0  0  0  0  0
  148.3705  135.7140  157.0087 H   0  0  0  0  0  0  0  0  0  0  0  0
  152.3531  137.5637  154.8451 H   0  0  0  0  0  0  0  0  0  0  0  0
  151.1075  136.5482  154.0962 H   0  0  0  0  0  0  0  0  0  0  0  0
  151.3303  139.1594  153.3307 H   0  0  0  0  0  0  0  0  0  0  0  0
  149.7436  138.4209  153.5455 H   0  0  0  0  0  0  0  0  0  0  0  0
  151.2287  140.2075  155.4641 H   0  0  0  0  0  0  0  0  0  0  0  0
  149.5291  140.2717  155.0291 H   0  0  0  0  0  0  0  0  0  0  0  0
  148.9384  138.4767  156.4334 H   0  0  0  0  0  0  0  0  0  0  0  0
  152.4088  139.0755  157.1386 H   0  0  0  0  0  0  0  0  0  0  0  0
  151.7939  139.6647  159.9642 H   0  0  0  0  0  0  0  0  0  0  0  0
  153.3531  139.1829  159.3544 H   0  0  0  0  0  0  0  0  0  0  0  0
  153.8124  141.3678  158.4589 H   0  0  0  0  0  0  0  0  0  0  0  0
  152.1305  141.8232  158.4482 H   0  0  0  0  0  0  0  0  0  0  0  0
  151.7083  143.6093  159.9196 H   0  0  0  0  0  0  0  0  0  0  0  0
  151.9795  144.6686  162.1676 H   0  0  0  0  0  0  0  0  0  0  0  0
  153.5196  143.5323  163.8718 H   0  0  0  0  0  0  0  0  0  0  0  0
  154.4467  140.4881  161.2343 H   0  0  0  0  0  0  0  0  0  0  0  0
  154.6044  141.5781  163.2673 H   0  0  0  0  0  0  0  0  0  0  0  0
  1  2  1  0  0  0  0
  1 21  1  0  0  0  0
  1 22  1  0  0  0  0
  1 23  1  0  0  0  0
  2  3  2  0  0  0  0
  2  4  2  0  0  0  0
  2  5  1  0  0  0  0
  5  9  1  0  0  0  0
  5  6  1  0  0  0  0
  6  7  1  0  0  0  0
  6 24  1  0  0  0  0
  6 25  1  0  0  0  0
  7  8  1  0  0  0  0
  7 26  1  0  0  0  0
  7 27  1  0  0  0  0
  8  9  1  0  0  0  0
  8 28  1  0  0  0  0
  8 29  1  0  0  0  0
  9 10  1  0  0  0  0
  9 30  1  0  0  0  0
 10 11  2  0  0  0  0
 10 12  1  0  0  0  0
 12 13  1  0  0  0  0
 12 31  1  0  0  0  0
 13 14  1  0  0  0  0
 13 32  1  0  0  0  0
 13 33  1  0  0  0  0
 14 15  1  0  0  0  0
 14 34  1  0  0  0  0
 14 35  1  0  0  0  0
 15 20  1  0  0  0  0
 15 16  2  0  0  0  0
 16 17  1  0  0  0  0
 16 36  1  0  0  0  0
 17 18  2  0  0  0  0
 17 37  1  0  0  0  0
 18 19  1  0  0  0  0
 18 38  1  0  0  0  0
 19 20  2  0  0  0  0
 19 40  1  0  0  0  0
 20 39  1  0  0  0  0
M  CHG  1  19   1
M  END
> <s_m_source_file>
AV-unprocessed.smi

> <i_m_source_file_index>
1203

> <i_lp_mmshare_version>
43012

> <i_f3d_flags>
0

> <s_epik_input>
W0NIM11TKD1PKSg9TylOMVtDSDJdW0NIMl1bQ0gyXVtDQEhdMUMoPU8pW05IXVtDSDJdW0NIMl1jMltjSF1bY0hdW2NIXW5bY0hdMg==

> <s_epik_cmdline>
J2VwaWtfcHl0aG9uJywgJy1waCcsICc3LjAnLCAnLXRuJywgJzgnLCAnLW1hJywgJzIwMCcsICctbWV0YWxfYmluZGluZycsICctaW1hZScsICc8aW5maWxlLm1hZT4nLCAnLW9tYWUnLCAnPG91dGZpbGUubWFlPic=

> <r_epik_Ionization_Penalty>
2.2835

> <r_epik_Ionization_Penalty_Charging>
2.2835

> <r_epik_Ionization_Penalty_Neutral>
1.4017e-07

> <r_epik_State_Penalty>
2.43297

> <r_epik_Charging_Adjusted_Penalty>
4.71647

> <i_epik_Tot_Q>
1

> <i_epik_Tot_abs_Q>
1

> <r_epik_Metal_State_Penalty>
2.44558

> <b_epik_Metal_Only>
0

> <s_lp_Force_Field>
OPLS_2005

> <r_lp_Energy>
15.5637

> <b_lp_Chiralities_Consistent>
1

> <s_lp_Variant>
AV-unprocessed.smi:1203-4

> <Gold.Version>
5.8.1

> <Gold.Id.Protein>
6NUR|6NUR_protein|mol2

> <Gold.PLP.Fitness>
41.8706

> <Gold.PLP.PLP>
-37.1144

> <Gold.PLP.part.hbond>
-3.3724

> <Gold.PLP.part.metal>
0.0000

> <Gold.PLP.part.buried>
-4.9687

> <Gold.PLP.part.nonpolar>
-27.9046

> <Gold.PLP.part.repulsive>
0.0922

> <Gold.PLP.ligand.clash>
0.0000

> <Gold.PLP.ligand.torsion>
1.3747

> <Gold.PLP.Chemscore.Hbond>
1.8000

> <Gold.PLP.Chemscore.CHOScore>
0.0000

> <Gold.PLP.Chemscore.Metal>
0.0000

> <Gold.Chemscore.Hbonds>
donor molecule, donor type, donor heavy atom, donor atom, acceptor molecule, acceptor atom, score
      P1  H  6896  6908       L1     3  0.80
      P1  H 10752 10763       L1     4  1.00

> <Gold.PLP.Chemscore.Internal.Correction>
2.1056

> <Gold.Rescore>
     Score         DG    S(hbond)    S(metal)    S(lipo)     H(rot)  DE(clash)    DE(int)     intcor
     15.89     -18.64       1.72        0.00     100.60       1.70       0.02       2.73       ----

> <Gold.Chemscore.Fitness>
15.8856

> <Gold.Chemscore.DG>
-18.6351

> <Gold.Chemscore.ZeroCoef>
-5.4800

> <Gold.Chemscore.Hbond>
1.7185

> <Gold.Chemscore.Metal>
0.0000

> <Gold.Chemscore.Lipo>
100.6026

> <Gold.Chemscore.Internal_Hbond>
0.0000

> <Gold.Chemscore.DEClash>
0.0184

> <Gold.Chemscore.DEInternal>
2.7311

> <Gold.Chemscore.Rot>
1.7012

> <Gold.Chemscore.Internal.Correction>
   9.000000E+99

> <Gold.Chemscore.Hbonds>
donor molecule, donor type, donor heavy atom, donor atom, acceptor molecule, acceptor atom, score
      P1  H  6896  6908       L1     3  0.68
      P1  H 10752 10763       L1     4  0.98

> <Gold.Chemscore.Hbond.Weighted>
-5.7397

> <Gold.Chemscore.Metal.Weighted>
-0.0000

> <Gold.Chemscore.Lipo.Weighted>
-11.7705

> <Gold.Chemscore.Internal_Hbond.Weighted>
0.0000

> <Gold.Chemscore.DEClash.Weighted>
0.0184

> <Gold.Chemscore.DEInternal.Weighted>
2.7311

> <Gold.Chemscore.Rot.Weighted>
4.3551

> <Gold.Chemscore.Internal.Correction.Weighted>
   9.000000E+99

> <Gold.Protein.RotatedTorsions>
[ 6907 6896 6895 6894 ] final -155.91 input  -60.11 | X-H torsion
[ 7974 7965 7964 7962 ] final   40.14 input  175.53 | X-H torsion
[ 8008 7997 7996 7995 ] final  173.91 input   59.86 | X-H torsion
[ 10167 10162 10161 10158 ] final   14.75 input  -65.29 | X-H torsion
[ 10718 10713 10712 10709 ] final  157.98 input   66.30 | X-H torsion
[ 10763 10752 10751 10750 ] final   91.03 input  -60.55 | X-H torsion
[ 11005 11000 10999 10996 ] final -121.69 input  -57.11 | X-H torsion

> <Gold.Protein.ActiveResidues>
 VAL166  LYS551  ARG553  GLY616  TRP617  ASP618  TYR619  PRO620  LYS621  CYS622 
 ASP623  PHE694  ASN695  SER759  ASP760  ASP761  ALA762  ILE779  LEU786  VAL792 
 PHE793  MET794  SER795  GLU796  ALA797  LYS798  CYS799  TRP800  GLU811  SER814 

> <Gold.Protein.RotatedAtoms>
  151.2796  133.4216  159.2625 H   0  0  0  0  0  0  0  0  0  0  0  0  # atno 6907 bound_to 6896
  151.0372  134.9582  159.8153 H   0  0  0  0  0  0  0  0  0  0  0  0  # atno 6908 bound_to 6896
  152.5358  134.2755  159.9040 H   0  0  0  0  0  0  0  0  0  0  0  0  # atno 6909 bound_to 6896
  146.0928  139.5568  142.9464 H   0  0  0  0  0  0  0  0  0  0  0  0  # atno 7974 bound_to 7965
  156.1028  140.1448  156.9444 H   0  0  0  0  0  0  0  0  0  0  0  0  # atno 8008 bound_to 7997
  154.4714  140.0909  156.7198 H   0  0  0  0  0  0  0  0  0  0  0  0  # atno 8009 bound_to 7997
  155.4730  140.3442  155.4331 H   0  0  0  0  0  0  0  0  0  0  0  0  # atno 8010 bound_to 7997
  140.5914  143.8787  150.6877 H   0  0  0  0  0  0  0  0  0  0  0  0  # atno 10167 bound_to 10162
  157.1841  131.0639  151.2116 H   0  0  0  0  0  0  0  0  0  0  0  0  # atno 10718 bound_to 10713
  153.2039  135.4412  155.0299 H   0  0  0  0  0  0  0  0  0  0  0  0  # atno 10763 bound_to 10752
  154.8162  135.3316  154.7171 H   0  0  0  0  0  0  0  0  0  0  0  0  # atno 10764 bound_to 10752
  153.7614  135.6991  153.4980 H   0  0  0  0  0  0  0  0  0  0  0  0  # atno 10765 bound_to 10752
  141.0051  134.0346  157.3487 H   0  0  0  0  0  0  0  0  0  0  0  0  # atno 11005 bound_to 11000
  145.6006  141.0356  143.2020 LP  0  0  0  0  0  0  0  0  0  0  0  0  # atno 17320 bound_to 7965
  144.7373  139.7549  143.7324 LP  0  0  0  0  0  0  0  0  0  0  0  0  # atno 17321 bound_to 7965
  140.2311  143.3735  152.1565 LP  0  0  0  0  0  0  0  0  0  0  0  0  # atno 17342 bound_to 10162
  139.5230  144.7066  151.5335 LP  0  0  0  0  0  0  0  0  0  0  0  0  # atno 17343 bound_to 10162
  157.3924  130.7289  149.6707 LP  0  0  0  0  0  0  0  0  0  0  0  0  # atno 17370 bound_to 10713
  155.9720  130.4143  150.4124 LP  0  0  0  0  0  0  0  0  0  0  0  0  # atno 17371 bound_to 10713
  139.9059  135.0179  156.7483 LP  0  0  0  0  0  0  0  0  0  0  0  0  # atno 17394 bound_to 11000
  140.6826  133.9461  155.7919 LP  0  0  0  0  0  0  0  0  0  0  0  0  # atno 17395 bound_to 11000

$$$$
