AV-unprocessed.smi:2107|AV-procd|sdf|8601|dock3
  -GOLD-   2272011343D 1   1.00000     0.00000
 Structure written by MMmdl.
 47 48  0  0  0  0  0  0  0  0  2 V2000
  144.8962  133.8845  162.5458 C   0  0  0  0  0  0  0  0  0  0  0  0
  145.5445  135.2022  162.0873 C   0  0  0  0  0  0  0  0  0  0  0  0
  146.8530  134.9996  161.4361 N   0  0  0  0  0  0  0  0  0  0  0  0
  147.6584  133.8649  161.9327 C   0  0  0  0  0  0  0  0  0  0  0  0
  147.3243  132.5363  161.2393 C   0  0  0  0  0  0  0  0  0  0  0  0
  147.6394  136.3603  160.6968 S   0  0  0  0  0  0  0  0  0  0  0  0
  146.6199  137.3296  160.2672 O   0  0  0  0  0  0  0  0  0  0  0  0
  148.7683  136.7804  161.5408 O   0  0  0  0  0  0  0  0  0  0  0  0
  148.2717  135.6002  159.2851 N   0  0  0  0  0  0  0  0  0  0  0  0
  148.6560  136.3899  158.1152 C   0  0  0  0  0  0  0  0  0  0  0  0
  148.6096  135.6188  156.7992 C   0  0  0  0  0  0  0  0  0  0  0  0
  148.1334  134.2877  156.8139 C   0  0  0  0  0  0  0  0  0  0  0  0
  148.0503  133.5567  155.6130 C   0  0  0  0  0  0  0  0  0  0  0  0
  148.4464  134.1725  154.4121 C   0  0  0  0  0  0  0  0  0  0  0  0
  148.8990  135.4436  154.4298 N   0  3  0  0  0  0  0  0  0  0  0  0
  149.0005  136.1917  155.5567 C   0  0  0  0  0  0  0  0  0  0  0  0
  149.4969  137.5034  155.4463 N   0  0  0  0  0  0  0  0  0  0  0  0
  150.8991  137.5616  155.0555 C   0  0  0  0  0  0  0  0  0  0  0  0
  151.4195  139.0028  155.1864 C   0  0  0  0  0  0  0  0  0  0  0  0
  150.6019  139.8761  154.4128 O   0  0  0  0  0  0  0  0  0  0  0  0
  149.2475  139.8746  154.8543 C   0  0  0  0  0  0  0  0  0  0  0  0
  148.6635  138.4578  154.7220 C   0  0  0  0  0  0  0  0  0  0  0  0
  143.9104  134.0745  162.9702 H   0  0  0  0  0  0  0  0  0  0  0  0
  145.4882  133.3920  163.3173 H   0  0  0  0  0  0  0  0  0  0  0  0
  144.7681  133.1782  161.7270 H   0  0  0  0  0  0  0  0  0  0  0  0
  144.8721  135.7337  161.4128 H   0  0  0  0  0  0  0  0  0  0  0  0
  145.6851  135.8526  162.9508 H   0  0  0  0  0  0  0  0  0  0  0  0
  148.7164  134.0921  161.7974 H   0  0  0  0  0  0  0  0  0  0  0  0
  147.5143  133.7597  163.0065 H   0  0  0  0  0  0  0  0  0  0  0  0
  147.8759  131.7177  161.7019 H   0  0  0  0  0  0  0  0  0  0  0  0
  147.6027  132.5524  160.1862 H   0  0  0  0  0  0  0  0  0  0  0  0
  146.2640  132.2964  161.3110 H   0  0  0  0  0  0  0  0  0  0  0  0
  147.9179  134.6620  159.0985 H   0  0  0  0  0  0  0  0  0  0  0  0
  147.9929  137.2511  158.0426 H   0  0  0  0  0  0  0  0  0  0  0  0
  149.6560  136.7906  158.2839 H   0  0  0  0  0  0  0  0  0  0  0  0
  147.8236  133.8262  157.7402 H   0  0  0  0  0  0  0  0  0  0  0  0
  147.6846  132.5404  155.6137 H   0  0  0  0  0  0  0  0  0  0  0  0
  148.4156  133.6915  153.4452 H   0  0  0  0  0  0  0  0  0  0  0  0
  151.5000  136.8917  155.6696 H   0  0  0  0  0  0  0  0  0  0  0  0
  150.9977  137.2218  154.0236 H   0  0  0  0  0  0  0  0  0  0  0  0
  151.4250  139.3211  156.2304 H   0  0  0  0  0  0  0  0  0  0  0  0
  152.4469  139.0659  154.8275 H   0  0  0  0  0  0  0  0  0  0  0  0
  149.1918  140.2266  155.8844 H   0  0  0  0  0  0  0  0  0  0  0  0
  148.6740  140.5758  154.2481 H   0  0  0  0  0  0  0  0  0  0  0  0
  148.6136  138.1813  153.6678 H   0  0  0  0  0  0  0  0  0  0  0  0
  147.6464  138.4341  155.1156 H   0  0  0  0  0  0  0  0  0  0  0  0
  149.1814  135.8644  153.5445 H   0  0  0  0  0  0  0  0  0  0  0  0
  1  2  1  0  0  0  0
  1 23  1  0  0  0  0
  1 24  1  0  0  0  0
  1 25  1  0  0  0  0
  2  3  1  0  0  0  0
  2 26  1  0  0  0  0
  2 27  1  0  0  0  0
  3  4  1  0  0  0  0
  3  6  1  0  0  0  0
  4  5  1  0  0  0  0
  4 28  1  0  0  0  0
  4 29  1  0  0  0  0
  5 30  1  0  0  0  0
  5 31  1  0  0  0  0
  5 32  1  0  0  0  0
  6  7  2  0  0  0  0
  6  8  2  0  0  0  0
  6  9  1  0  0  0  0
  9 10  1  0  0  0  0
  9 33  1  0  0  0  0
 10 11  1  0  0  0  0
 10 34  1  0  0  0  0
 10 35  1  0  0  0  0
 11 16  1  0  0  0  0
 11 12  2  0  0  0  0
 12 13  1  0  0  0  0
 12 36  1  0  0  0  0
 13 14  2  0  0  0  0
 13 37  1  0  0  0  0
 14 15  1  0  0  0  0
 14 38  1  0  0  0  0
 15 16  2  0  0  0  0
 15 47  1  0  0  0  0
 16 17  1  0  0  0  0
 17 22  1  0  0  0  0
 17 18  1  0  0  0  0
 18 19  1  0  0  0  0
 18 39  1  0  0  0  0
 18 40  1  0  0  0  0
 19 20  1  0  0  0  0
 19 41  1  0  0  0  0
 19 42  1  0  0  0  0
 20 21  1  0  0  0  0
 21 22  1  0  0  0  0
 21 43  1  0  0  0  0
 21 44  1  0  0  0  0
 22 45  1  0  0  0  0
 22 46  1  0  0  0  0
M  CHG  1  15   1
M  END
> <s_m_source_file>
AV-unprocessed.smi

> <i_m_source_file_index>
2107

> <i_lp_mmshare_version>
43012

> <i_f3d_flags>
0

> <s_epik_input>
W0NIM11bQ0gyXU4oW0NIMl1bQ0gzXSlTKD1PKSg9TylbTkhdW0NIMl1jMVtjSF1bY0hdW2NIXW5jMU4yW0NIMl1bQ0gyXU9bQ0gyXVtDSDJdMg==

> <s_epik_cmdline>
J2VwaWtfcHl0aG9uJywgJy1waCcsICc3LjAnLCAnLXRuJywgJzgnLCAnLW1hJywgJzIwMCcsICctbWV0YWxfYmluZGluZycsICctaW1hZScsICc8aW5maWxlLm1hZT4nLCAnLW9tYWUnLCAnPG91dGZpbGUubWFlPic=

> <r_lp_tautomer_probability>
0.999994

> <r_epik_Ionization_Penalty>
2.66893

> <r_epik_Ionization_Penalty_Charging>
2.61323

> <r_epik_Ionization_Penalty_Neutral>
0.0557011

> <r_epik_State_Penalty>
2.68492

> <r_epik_Charging_Adjusted_Penalty>
5.29815

> <i_epik_Tot_Q>
1

> <i_epik_Tot_abs_Q>
1

> <r_epik_Metal_State_Penalty>
5.63236

> <b_epik_Metal_Only>
0

> <s_lp_Force_Field>
OPLS_2005

> <r_lp_Energy>
23.5693

> <b_lp_Chiralities_Consistent>
1

> <s_lp_Variant>
AV-unprocessed.smi:2107-2

> <Gold.Version>
5.8.1

> <Gold.Id.Protein>
6NUR|6NUR_protein|mol2

> <Gold.PLP.Fitness>
44.0000

> <Gold.PLP.PLP>
-30.2504

> <Gold.PLP.part.hbond>
-3.8482

> <Gold.PLP.part.metal>
0.0000

> <Gold.PLP.part.buried>
-5.6091

> <Gold.PLP.part.nonpolar>
-22.1814

> <Gold.PLP.part.repulsive>
0.3105

> <Gold.PLP.ligand.clash>
0.0000

> <Gold.PLP.ligand.torsion>
2.3798

> <Gold.PLP.Chemscore.Hbond>
4.8778

> <Gold.PLP.Chemscore.CHOScore>
0.0000

> <Gold.PLP.Chemscore.Metal>
0.0000

> <Gold.Chemscore.Hbonds>
donor molecule, donor type, donor heavy atom, donor atom, acceptor molecule, acceptor atom, score
      L1  H    15    47       P1  7948  2.00
      P1  H  6931  6943       L1     8  0.99
      P1  H  6934  6947       L1     7  1.00
      P1  H  7989  7998       L1    20  1.00

> <Gold.PLP.Chemscore.Internal.Correction>
3.8758

> <Gold.Rescore>
     Score         DG    S(hbond)    S(metal)    S(lipo)     H(rot)  DE(clash)    DE(int)     intcor
     17.73     -20.32       3.57        0.00      63.58       1.77       0.22       2.37       ----

> <Gold.Chemscore.Fitness>
17.7274

> <Gold.Chemscore.DG>
-20.3207

> <Gold.Chemscore.ZeroCoef>
-5.4800

> <Gold.Chemscore.Hbond>
3.5713

> <Gold.Chemscore.Metal>
0.0000

> <Gold.Chemscore.Lipo>
63.5772

> <Gold.Chemscore.Internal_Hbond>
0.0000

> <Gold.Chemscore.DEClash>
0.2213

> <Gold.Chemscore.DEInternal>
2.3720

> <Gold.Chemscore.Rot>
1.7680

> <Gold.Chemscore.Internal.Correction>
   9.000000E+99

> <Gold.Chemscore.Hbonds>
donor molecule, donor type, donor heavy atom, donor atom, acceptor molecule, acceptor atom, score
      L1  H    15    47       P1  7948  0.77
      P1  H  6931  6943       L1     8  0.92
      P1  H  6934  6947       L1     7  0.60
      P1  H  7989  7998       L1    20  0.65

> <Gold.Chemscore.Hbond.Weighted>
-11.9282

> <Gold.Chemscore.Metal.Weighted>
-0.0000

> <Gold.Chemscore.Lipo.Weighted>
-7.4385

> <Gold.Chemscore.Internal_Hbond.Weighted>
0.0000

> <Gold.Chemscore.DEClash.Weighted>
0.2213

> <Gold.Chemscore.DEInternal.Weighted>
2.3720

> <Gold.Chemscore.Rot.Weighted>
4.5261

> <Gold.Chemscore.Internal.Correction.Weighted>
   9.000000E+99

> <Gold.Protein.RotatedTorsions>
[ 6907 6896 6895 6894 ] final -143.73 input  -60.11 | X-H torsion
[ 7974 7965 7964 7962 ] final  -22.04 input  175.53 | X-H torsion
[ 8008 7997 7996 7995 ] final  102.60 input   59.86 | X-H torsion
[ 10167 10162 10161 10158 ] final   34.37 input  -65.29 | X-H torsion
[ 10718 10713 10712 10709 ] final  -75.30 input   66.30 | X-H torsion
[ 10763 10752 10751 10750 ] final  -29.25 input  -60.55 | X-H torsion
[ 11005 11000 10999 10996 ] final   93.26 input  -57.11 | X-H torsion

> <Gold.Protein.ActiveResidues>
 VAL166  LYS551  ARG553  GLY616  TRP617  ASP618  TYR619  PRO620  LYS621  CYS622 
 ASP623  PHE694  ASN695  SER759  ASP760  ASP761  ALA762  ILE779  LEU786  VAL792 
 PHE793  MET794  SER795  GLU796  ALA797  LYS798  CYS799  TRP800  GLU811  SER814 

> <Gold.Protein.RotatedAtoms>
  151.1044  133.5219  159.2608 H   0  0  0  0  0  0  0  0  0  0  0  0  # atno 6907 bound_to 6896
  151.2037  135.0452  159.8893 H   0  0  0  0  0  0  0  0  0  0  0  0  # atno 6908 bound_to 6896
  152.5445  134.0869  159.8313 H   0  0  0  0  0  0  0  0  0  0  0  0  # atno 6909 bound_to 6896
  146.1698  140.4425  142.8537 H   0  0  0  0  0  0  0  0  0  0  0  0  # atno 7974 bound_to 7965
  156.1408  140.3178  155.8492 H   0  0  0  0  0  0  0  0  0  0  0  0  # atno 8008 bound_to 7997
  155.4158  140.0509  157.3046 H   0  0  0  0  0  0  0  0  0  0  0  0  # atno 8009 bound_to 7997
  154.4974  140.2116  155.9429 H   0  0  0  0  0  0  0  0  0  0  0  0  # atno 8010 bound_to 7997
  140.4321  144.1309  150.6161 H   0  0  0  0  0  0  0  0  0  0  0  0  # atno 10167 bound_to 10162
  156.0212  130.4437  150.3023 H   0  0  0  0  0  0  0  0  0  0  0  0  # atno 10718 bound_to 10713
  153.7615  135.6919  153.4924 H   0  0  0  0  0  0  0  0  0  0  0  0  # atno 10763 bound_to 10752
  153.1935  135.4462  155.0177 H   0  0  0  0  0  0  0  0  0  0  0  0  # atno 10764 bound_to 10752
  154.8151  135.3395  154.7130 H   0  0  0  0  0  0  0  0  0  0  0  0  # atno 10765 bound_to 10752
  139.8812  134.8780  156.3693 H   0  0  0  0  0  0  0  0  0  0  0  0  # atno 11005 bound_to 11000
  144.8146  140.6446  143.6392 LP  0  0  0  0  0  0  0  0  0  0  0  0  # atno 17320 bound_to 7965
  145.4370  139.1541  143.3991 LP  0  0  0  0  0  0  0  0  0  0  0  0  # atno 17321 bound_to 7965
  140.4415  143.2524  151.9467 LP  0  0  0  0  0  0  0  0  0  0  0  0  # atno 17342 bound_to 10162
  139.4785  144.5650  151.8180 LP  0  0  0  0  0  0  0  0  0  0  0  0  # atno 17343 bound_to 10162
  157.1125  131.0225  151.3042 LP  0  0  0  0  0  0  0  0  0  0  0  0  # atno 17370 bound_to 10713
  157.4693  130.7699  149.7308 LP  0  0  0  0  0  0  0  0  0  0  0  0  # atno 17371 bound_to 10713
  140.9475  133.7473  156.0228 LP  0  0  0  0  0  0  0  0  0  0  0  0  # atno 17394 bound_to 11000
  140.8145  134.3361  157.5401 LP  0  0  0  0  0  0  0  0  0  0  0  0  # atno 17395 bound_to 11000

$$$$
