AV-unprocessed.smi:940|AV-procd|sdf|4219|dock5
  -GOLD-   22720 2133D 1   1.00000     0.00000
 Structure written by MMmdl.
 36 36  0  0  0  0  0  0  0  0  1 V2000
  148.3018  134.4651  154.9218 C   0  0  0  0  0  0  0  0  0  0  0  0
  147.2266  135.5320  155.1658 C   0  0  0  0  0  0  0  0  0  0  0  0
  147.3002  136.6022  154.1785 N   0  0  0  0  0  0  0  0  0  0  0  0
  146.5121  137.6890  154.1579 C   0  0  0  0  0  0  0  0  0  0  0  0
  145.6323  137.9050  154.9909 O   0  0  0  0  0  0  0  0  0  0  0  0
  146.7561  138.6899  153.0270 C   0  0  0  0  0  0  0  0  0  0  0  0
  147.0976  140.0010  153.5492 N   0  0  0  0  0  0  0  0  0  0  0  0
  146.4803  141.2102  153.2985 C   0  0  0  0  0  0  0  0  0  0  0  0
  147.1414  142.1663  154.0152 C   0  0  0  0  0  0  0  0  0  0  0  0
  148.1618  141.4258  154.6846 C   0  0  0  0  0  0  0  0  0  0  0  0
  149.1417  141.9572  155.5621 N   0  0  0  0  0  0  0  0  0  0  0  0
  150.3271  141.4273  155.9141 C   0  0  0  0  0  0  0  0  0  0  0  0
  150.7713  140.3593  155.4941 O   0  0  0  0  0  0  0  0  0  0  0  0
  151.1553  142.2461  156.9033 C   0  0  0  0  0  0  0  0  0  0  0  0
  151.2713  141.5143  158.1127 O   0  0  0  0  0  0  0  0  0  0  0  0
  152.2909  142.0137  158.9609 C   0  0  0  0  0  0  0  0  0  0  0  0
  152.0534  143.5076  159.1931 C   0  0  0  0  0  0  0  0  0  0  0  0
  148.1386  140.1350  154.4004 N   0  0  0  0  0  0  0  0  0  0  0  0
  148.2189  133.6588  155.6508 H   0  0  0  0  0  0  0  0  0  0  0  0
  149.3045  134.8850  155.0062 H   0  0  0  0  0  0  0  0  0  0  0  0
  148.2035  134.0263  153.9285 H   0  0  0  0  0  0  0  0  0  0  0  0
  146.2375  135.0779  155.1025 H   0  0  0  0  0  0  0  0  0  0  0  0
  147.3167  135.9390  156.1743 H   0  0  0  0  0  0  0  0  0  0  0  0
  147.9987  136.5082  153.4556 H   0  0  0  0  0  0  0  0  0  0  0  0
  147.5621  138.3377  152.3811 H   0  0  0  0  0  0  0  0  0  0  0  0
  145.8633  138.7770  152.4066 H   0  0  0  0  0  0  0  0  0  0  0  0
  145.6298  141.2887  152.6376 H   0  0  0  0  0  0  0  0  0  0  0  0
  146.9176  143.2220  154.0426 H   0  0  0  0  0  0  0  0  0  0  0  0
  148.9187  142.8563  155.9638 H   0  0  0  0  0  0  0  0  0  0  0  0
  152.1405  142.4313  156.4723 H   0  0  0  0  0  0  0  0  0  0  0  0
  150.6846  143.2129  157.0911 H   0  0  0  0  0  0  0  0  0  0  0  0
  152.2806  141.4826  159.9138 H   0  0  0  0  0  0  0  0  0  0  0  0
  153.2702  141.8584  158.5056 H   0  0  0  0  0  0  0  0  0  0  0  0
  152.8202  143.9276  159.8441 H   0  0  0  0  0  0  0  0  0  0  0  0
  151.0842  143.6810  159.6617 H   0  0  0  0  0  0  0  0  0  0  0  0
  152.0742  144.0580  158.2523 H   0  0  0  0  0  0  0  0  0  0  0  0
  1  2  1  0  0  0  0
  1 19  1  0  0  0  0
  1 20  1  0  0  0  0
  1 21  1  0  0  0  0
  2  3  1  0  0  0  0
  2 22  1  0  0  0  0
  2 23  1  0  0  0  0
  3  4  1  0  0  0  0
  3 24  1  0  0  0  0
  4  5  2  0  0  0  0
  4  6  1  0  0  0  0
  6  7  1  0  0  0  0
  6 25  1  0  0  0  0
  6 26  1  0  0  0  0
  7 18  1  0  0  0  0
  7  8  1  0  0  0  0
  8  9  2  0  0  0  0
  8 27  1  0  0  0  0
  9 10  1  0  0  0  0
  9 28  1  0  0  0  0
 10 11  1  0  0  0  0
 10 18  2  0  0  0  0
 11 12  1  0  0  0  0
 11 29  1  0  0  0  0
 12 13  2  0  0  0  0
 12 14  1  0  0  0  0
 14 15  1  0  0  0  0
 14 30  1  0  0  0  0
 14 31  1  0  0  0  0
 15 16  1  0  0  0  0
 16 17  1  0  0  0  0
 16 32  1  0  0  0  0
 16 33  1  0  0  0  0
 17 34  1  0  0  0  0
 17 35  1  0  0  0  0
 17 36  1  0  0  0  0
M  END
> <s_m_source_file>
AV-unprocessed.smi

> <i_m_source_file_index>
940

> <i_lp_mmshare_version>
43012

> <i_f3d_flags>
0

> <s_epik_input>
W0NIM11bQ0gyXVtOSF1DKD1PKVtDSDJdbjFbY0hdW2NIXWMobjEpW05IXUMoPU8pW0NIMl1PW0NIMl1bQ0gzXQ==

> <s_epik_cmdline>
J2VwaWtfcHl0aG9uJywgJy1waCcsICc3LjAnLCAnLXRuJywgJzgnLCAnLW1hJywgJzIwMCcsICctbWV0YWxfYmluZGluZycsICctaW1hZScsICc8aW5maWxlLm1hZT4nLCAnLW9tYWUnLCAnPG91dGZpbGUubWFlPic=

> <r_lp_tautomer_probability>
1

> <r_epik_Ionization_Penalty>
3.22351e-06

> <r_epik_Ionization_Penalty_Charging>
0

> <r_epik_Ionization_Penalty_Neutral>
3.22351e-06

> <r_epik_State_Penalty>
-0

> <r_epik_Charging_Adjusted_Penalty>
0

> <i_epik_Tot_Q>
0

> <i_epik_Tot_abs_Q>
0

> <r_epik_Metal_State_Penalty>
-0

> <b_epik_Metal_Only>
0

> <s_lp_Force_Field>
OPLS_2005

> <r_lp_Energy>
6.8138

> <b_lp_Chiralities_Consistent>
1

> <s_lp_Variant>
AV-unprocessed.smi:940-1

> <Gold.Version>
5.8.1

> <Gold.Id.Protein>
6NUR|6NUR_protein|mol2

> <Gold.PLP.Fitness>
39.4993

> <Gold.PLP.PLP>
-29.5929

> <Gold.PLP.part.hbond>
-2.9741

> <Gold.PLP.part.metal>
0.0000

> <Gold.PLP.part.buried>
-4.8096

> <Gold.PLP.part.nonpolar>
-22.6465

> <Gold.PLP.part.repulsive>
0.3494

> <Gold.PLP.ligand.clash>
0.0000

> <Gold.PLP.ligand.torsion>
0.2097

> <Gold.PLP.Chemscore.Hbond>
2.7837

> <Gold.PLP.Chemscore.CHOScore>
0.6376

> <Gold.PLP.Chemscore.Metal>
0.0000

> <Gold.Chemscore.Hbonds>
donor molecule, donor type, donor heavy atom, donor atom, acceptor molecule, acceptor atom, score
      L1  H     3    24       P1  7948  1.00
      L1  H    11    29       P1  8028  0.90
      P1  H  7989  7998       L1    13  0.50
      L1  C     8    27       P1 10175  0.47

> <Gold.PLP.Chemscore.Internal.Correction>
0.0617

> <Gold.Rescore>
     Score         DG    S(hbond)    S(metal)    S(lipo)     H(rot)  DE(clash)    DE(int)     intcor
     12.85     -14.54       2.45        0.00      58.69       2.34       0.07       1.62       ----

> <Gold.Chemscore.Fitness>
12.8497

> <Gold.Chemscore.DG>
-14.5439

> <Gold.Chemscore.ZeroCoef>
-5.4800

> <Gold.Chemscore.Hbond>
2.4492

> <Gold.Chemscore.Metal>
0.0000

> <Gold.Chemscore.Lipo>
58.6908

> <Gold.Chemscore.Internal_Hbond>
0.0000

> <Gold.Chemscore.DEClash>
0.0748

> <Gold.Chemscore.DEInternal>
1.6194

> <Gold.Chemscore.Rot>
2.3372

> <Gold.Chemscore.Internal.Correction>
   9.000000E+99

> <Gold.Chemscore.Hbonds>
donor molecule, donor type, donor heavy atom, donor atom, acceptor molecule, acceptor atom, score
      L1  H     3    24       P1  7948  1.00
      L1  H    11    29       P1  8028  0.88
      P1  H  7989  7998       L1    13  0.21

> <Gold.Chemscore.Hbond.Weighted>
-8.1804

> <Gold.Chemscore.Metal.Weighted>
-0.0000

> <Gold.Chemscore.Lipo.Weighted>
-6.8668

> <Gold.Chemscore.Internal_Hbond.Weighted>
0.0000

> <Gold.Chemscore.DEClash.Weighted>
0.0748

> <Gold.Chemscore.DEInternal.Weighted>
1.6194

> <Gold.Chemscore.Rot.Weighted>
5.9833

> <Gold.Chemscore.Internal.Correction.Weighted>
   9.000000E+99

> <Gold.Protein.RotatedTorsions>
[ 6907 6896 6895 6894 ] final  117.75 input  -60.11 | X-H torsion
[ 7974 7965 7964 7962 ] final -170.16 input  175.53 | X-H torsion
[ 8008 7997 7996 7995 ] final  -71.93 input   59.86 | X-H torsion
[ 10167 10162 10161 10158 ] final   31.93 input  -65.29 | X-H torsion
[ 10718 10713 10712 10709 ] final  -36.08 input   66.30 | X-H torsion
[ 10763 10752 10751 10750 ] final  -98.18 input  -60.55 | X-H torsion
[ 11005 11000 10999 10996 ] final  166.39 input  -57.11 | X-H torsion

> <Gold.Protein.ActiveResidues>
 VAL166  LYS551  ARG553  GLY616  TRP617  ASP618  TYR619  PRO620  LYS621  CYS622 
 ASP623  PHE694  ASN695  SER759  ASP760  ASP761  ALA762  ILE779  LEU786  VAL792 
 PHE793  MET794  SER795  GLU796  ALA797  LYS798  CYS799  TRP800  GLU811  SER814 

> <Gold.Protein.RotatedAtoms>
  152.4590  133.7783  159.6836 H   0  0  0  0  0  0  0  0  0  0  0  0  # atno 6907 bound_to 6896
  150.8527  133.7752  159.3026 H   0  0  0  0  0  0  0  0  0  0  0  0  # atno 6908 bound_to 6896
  151.5342  135.1071  159.9962 H   0  0  0  0  0  0  0  0  0  0  0  0  # atno 6909 bound_to 6896
  144.7174  140.2113  143.6327 H   0  0  0  0  0  0  0  0  0  0  0  0  # atno 7974 bound_to 7965
  154.5126  140.0806  156.8019 H   0  0  0  0  0  0  0  0  0  0  0  0  # atno 8008 bound_to 7997
  155.3751  140.3425  155.4226 H   0  0  0  0  0  0  0  0  0  0  0  0  # atno 8009 bound_to 7997
  156.1591  140.1582  156.8630 H   0  0  0  0  0  0  0  0  0  0  0  0  # atno 8010 bound_to 7997
  140.4545  144.0999  150.6199 H   0  0  0  0  0  0  0  0  0  0  0  0  # atno 10167 bound_to 10162
  156.3311  130.4279  149.7872 H   0  0  0  0  0  0  0  0  0  0  0  0  # atno 10718 bound_to 10713
  154.7392  135.5019  153.9094 H   0  0  0  0  0  0  0  0  0  0  0  0  # atno 10763 bound_to 10752
  153.1026  135.6689  153.9653 H   0  0  0  0  0  0  0  0  0  0  0  0  # atno 10764 bound_to 10752
  153.9435  135.3065  155.3421 H   0  0  0  0  0  0  0  0  0  0  0  0  # atno 10765 bound_to 10752
  140.2659  134.7865  157.3632 H   0  0  0  0  0  0  0  0  0  0  0  0  # atno 11005 bound_to 11000
  145.8588  139.2212  143.1729 LP  0  0  0  0  0  0  0  0  0  0  0  0  # atno 17320 bound_to 7965
  146.0193  140.8363  142.9931 LP  0  0  0  0  0  0  0  0  0  0  0  0  # atno 17321 bound_to 7965
  140.4168  143.2630  151.9765 LP  0  0  0  0  0  0  0  0  0  0  0  0  # atno 17342 bound_to 10162
  139.4800  144.5867  151.7842 LP  0  0  0  0  0  0  0  0  0  0  0  0  # atno 17343 bound_to 10162
  156.5144  130.8187  151.3181 LP  0  0  0  0  0  0  0  0  0  0  0  0  # atno 17370 bound_to 10713
  157.7430  130.9903  150.2561 LP  0  0  0  0  0  0  0  0  0  0  0  0  # atno 17371 bound_to 10713
  140.1419  134.4961  155.8025 LP  0  0  0  0  0  0  0  0  0  0  0  0  # atno 17394 bound_to 11000
  141.2184  133.6828  156.7225 LP  0  0  0  0  0  0  0  0  0  0  0  0  # atno 17395 bound_to 11000

$$$$
