AV-unprocessed.smi:2083|AV-procd|sdf|8510|dock5
  -GOLD-   2272011223D 1   1.00000     0.00000
 Structure written by MMmdl.
 44 45  0  0  0  0  0  0  0  0  3 V2000
  154.3178  135.4528  164.6829 C   0  0  0  0  0  0  0  0  0  0  0  0
  154.8313  136.4371  163.6892 C   0  0  0  0  0  0  0  0  0  0  0  0
  154.2197  137.2079  162.7410 C   0  0  0  0  0  0  0  0  0  0  0  0
  155.3029  137.9139  162.1529 C   0  0  0  0  0  0  0  0  0  0  0  0
  155.0766  138.8424  161.1026 N   0  0  0  0  0  0  0  0  0  0  0  0
  155.7187  138.9565  159.9254 C   0  0  0  0  0  0  0  0  0  0  0  0
  156.6338  138.1767  159.6350 O   0  0  0  0  0  0  0  0  0  0  0  0
  155.2360  139.9834  159.1737 N   0  5  0  0  0  0  0  0  0  0  0  0
  154.6563  141.2083  159.7222 C   0  0  0  0  0  0  0  0  0  0  0  0
  153.1349  141.0289  159.9665 C   0  0  2  0  0  0  0  0  0  0  0  0
  152.4301  140.0921  158.9526 C   0  0  0  0  0  0  0  0  0  0  0  0
  152.4649  142.3617  160.0887 N   0  3  1  0  0  0  0  0  0  0  0  0
  152.8691  143.1988  161.2568 C   0  0  0  0  0  0  0  0  0  0  0  0
  151.9301  144.4039  161.4145 C   0  0  0  0  0  0  0  0  0  0  0  0
  151.8941  145.2418  160.1282 C   0  0  0  0  0  0  0  0  0  0  0  0
  151.5518  144.3740  158.9026 C   0  0  2  0  0  0  0  0  0  0  0  0
  150.0661  143.9748  158.8534 C   0  0  0  0  0  0  0  0  0  0  0  0
  152.4849  143.1475  158.8246 C   0  0  0  0  0  0  0  0  0  0  0  0
  156.4708  137.6000  162.6941 N   0  0  0  0  0  0  0  0  0  0  0  0
  156.1745  136.6526  163.6811 O   0  0  0  0  0  0  0  0  0  0  0  0
  153.2509  135.2778  164.5430 H   0  0  0  0  0  0  0  0  0  0  0  0
  154.4704  135.8162  165.6990 H   0  0  0  0  0  0  0  0  0  0  0  0
  154.8332  134.4975  164.5831 H   0  0  0  0  0  0  0  0  0  0  0  0
  153.1667  137.2587  162.5075 H   0  0  0  0  0  0  0  0  0  0  0  0
  154.3389  139.5114  161.2649 H   0  0  0  0  0  0  0  0  0  0  0  0
  155.1270  141.4723  160.6706 H   0  0  0  0  0  0  0  0  0  0  0  0
  154.8158  142.0656  159.0669 H   0  0  0  0  0  0  0  0  0  0  0  0
  153.0537  140.5458  160.9417 H   0  0  0  0  0  0  0  0  0  0  0  0
  152.8297  139.0774  158.9922 H   0  0  0  0  0  0  0  0  0  0  0  0
  152.5246  140.4359  157.9211 H   0  0  0  0  0  0  0  0  0  0  0  0
  151.3656  140.0124  159.1742 H   0  0  0  0  0  0  0  0  0  0  0  0
  152.8495  142.6125  162.1760 H   0  0  0  0  0  0  0  0  0  0  0  0
  153.8932  143.5512  161.1276 H   0  0  0  0  0  0  0  0  0  0  0  0
  150.9267  144.0591  161.6666 H   0  0  0  0  0  0  0  0  0  0  0  0
  152.2586  145.0232  162.2495 H   0  0  0  0  0  0  0  0  0  0  0  0
  151.1821  146.0616  160.2291 H   0  0  0  0  0  0  0  0  0  0  0  0
  152.8711  145.7033  159.9786 H   0  0  0  0  0  0  0  0  0  0  0  0
  151.7351  144.9802  158.0146 H   0  0  0  0  0  0  0  0  0  0  0  0
  149.7872  143.3356  159.6912 H   0  0  0  0  0  0  0  0  0  0  0  0
  149.8382  143.4307  157.9364 H   0  0  0  0  0  0  0  0  0  0  0  0
  149.4225  144.8545  158.8790 H   0  0  0  0  0  0  0  0  0  0  0  0
  153.5074  143.4680  158.6199 H   0  0  0  0  0  0  0  0  0  0  0  0
  152.1801  142.5230  157.9838 H   0  0  0  0  0  0  0  0  0  0  0  0
  151.4918  142.1342  160.2364 H   0  0  0  0  0  0  0  0  0  0  0  0
  1  2  1  0  0  0  0
  1 21  1  0  0  0  0
  1 22  1  0  0  0  0
  1 23  1  0  0  0  0
  2 20  1  0  0  0  0
  2  3  2  0  0  0  0
  3  4  1  0  0  0  0
  3 24  1  0  0  0  0
  4  5  1  0  0  0  0
  4 19  2  0  0  0  0
  5  6  1  0  0  0  0
  5 25  1  0  0  0  0
  6  7  2  0  0  0  0
  6  8  1  0  0  0  0
  8  9  1  0  0  0  0
  9 10  1  0  0  0  0
  9 26  1  0  0  0  0
  9 27  1  0  0  0  0
 10 11  1  0  0  0  0
 10 12  1  0  0  0  0
 10 28  1  0  0  0  0
 11 29  1  0  0  0  0
 11 30  1  0  0  0  0
 11 31  1  0  0  0  0
 12 18  1  0  0  0  0
 12 13  1  0  0  0  0
 12 44  1  0  0  0  0
 13 14  1  0  0  0  0
 13 32  1  0  0  0  0
 13 33  1  0  0  0  0
 14 15  1  0  0  0  0
 14 34  1  0  0  0  0
 14 35  1  0  0  0  0
 15 16  1  0  0  0  0
 15 36  1  0  0  0  0
 15 37  1  0  0  0  0
 16 17  1  0  0  0  0
 16 18  1  0  0  0  0
 16 38  1  0  0  0  0
 17 39  1  0  0  0  0
 17 40  1  0  0  0  0
 17 41  1  0  0  0  0
 18 42  1  0  0  0  0
 18 43  1  0  0  0  0
 19 20  1  0  0  0  0
M  CHG  1   8  -1
M  CHG  1  12   1
M  END
> <s_m_source_file>
AV-unprocessed.smi

> <i_m_source_file_index>
2083

> <i_lp_mmshare_version>
43012

> <i_f3d_flags>
0

> <s_epik_input>
W0NIM11jMVtjSF1jKG5vMSlbTkhdQyg9TylbTkhdW0NIMl1bQ0BIXShbQ0gzXSlOMltDSDJdW0NIMl1bQ0gyXVtDQEBIXShbQ0gzXSlbQ0gyXTI=

> <s_epik_cmdline>
J2VwaWtfcHl0aG9uJywgJy1waCcsICc3LjAnLCAnLXRuJywgJzgnLCAnLW1hJywgJzIwMCcsICctbWV0YWxfYmluZGluZycsICctaW1hZScsICc8aW5maWxlLm1hZT4nLCAnLW9tYWUnLCAnPG91dGZpbGUubWFlPic=

> <r_epik_Ionization_Penalty>
6.76934

> <r_epik_Ionization_Penalty_Charging>
6.76934

> <r_epik_Ionization_Penalty_Neutral>
5.77849e-06

> <r_epik_State_Penalty>
6.79457

> <r_epik_Charging_Adjusted_Penalty>
13.5639

> <i_epik_Tot_Q>
0

> <i_epik_Tot_abs_Q>
2

> <r_epik_Metal_State_Penalty>
2.72837

> <b_epik_Metal_Only>
1

> <s_lp_Force_Field>
OPLS_2005

> <r_lp_Energy>
20.9735

> <b_lp_Chiralities_Consistent>
1

> <s_lp_Variant>
AV-unprocessed.smi:2083-21

> <Gold.Version>
5.8.1

> <Gold.Id.Protein>
6NUR|6NUR_protein|mol2

> <Gold.PLP.Fitness>
44.1708

> <Gold.PLP.PLP>
-40.2098

> <Gold.PLP.part.hbond>
-1.0000

> <Gold.PLP.part.metal>
0.0000

> <Gold.PLP.part.buried>
-2.9699

> <Gold.PLP.part.nonpolar>
-36.6435

> <Gold.PLP.part.repulsive>
0.1492

> <Gold.PLP.ligand.clash>
0.0000

> <Gold.PLP.ligand.torsion>
1.0998

> <Gold.PLP.Chemscore.Hbond>
2.0000

> <Gold.PLP.Chemscore.CHOScore>
0.0000

> <Gold.PLP.Chemscore.Metal>
0.0000

> <Gold.Chemscore.Hbonds>
donor molecule, donor type, donor heavy atom, donor atom, acceptor molecule, acceptor atom, score
      P1  H  7997  8009       L1     8  2.00

> <Gold.PLP.Chemscore.Internal.Correction>
0.1605

> <Gold.Rescore>
     Score         DG    S(hbond)    S(metal)    S(lipo)     H(rot)  DE(clash)    DE(int)     intcor
     17.31     -18.46       0.85        0.00     119.99       1.52       0.10       1.04       ----

> <Gold.Chemscore.Fitness>
17.3129

> <Gold.Chemscore.DG>
-18.4556

> <Gold.Chemscore.ZeroCoef>
-5.4800

> <Gold.Chemscore.Hbond>
0.8458

> <Gold.Chemscore.Metal>
0.0000

> <Gold.Chemscore.Lipo>
119.9925

> <Gold.Chemscore.Internal_Hbond>
0.0000

> <Gold.Chemscore.DEClash>
0.1003

> <Gold.Chemscore.DEInternal>
1.0424

> <Gold.Chemscore.Rot>
1.5190

> <Gold.Chemscore.Internal.Correction>
   9.000000E+99

> <Gold.Chemscore.Hbonds>
donor molecule, donor type, donor heavy atom, donor atom, acceptor molecule, acceptor atom, score
      P1  H  7997  8009       L1     8  0.76

> <Gold.Chemscore.Hbond.Weighted>
-2.8251

> <Gold.Chemscore.Metal.Weighted>
-0.0000

> <Gold.Chemscore.Lipo.Weighted>
-14.0391

> <Gold.Chemscore.Internal_Hbond.Weighted>
0.0000

> <Gold.Chemscore.DEClash.Weighted>
0.1003

> <Gold.Chemscore.DEInternal.Weighted>
1.0424

> <Gold.Chemscore.Rot.Weighted>
3.8886

> <Gold.Chemscore.Internal.Correction.Weighted>
   9.000000E+99

> <Gold.Protein.RotatedTorsions>
[ 6907 6896 6895 6894 ] final   43.35 input  -60.11 | X-H torsion
[ 7974 7965 7964 7962 ] final  -83.65 input  175.53 | X-H torsion
[ 8008 7997 7996 7995 ] final  111.76 input   59.86 | X-H torsion
[ 10167 10162 10161 10158 ] final  -82.19 input  -65.29 | X-H torsion
[ 10718 10713 10712 10709 ] final   -3.76 input   66.30 | X-H torsion
[ 10763 10752 10751 10750 ] final -150.73 input  -60.55 | X-H torsion
[ 11005 11000 10999 10996 ] final  -38.94 input  -57.11 | X-H torsion

> <Gold.Protein.ActiveResidues>
 VAL166  LYS551  ARG553  GLY616  TRP617  ASP618  TYR619  PRO620  LYS621  CYS622 
 ASP623  PHE694  ASN695  SER759  ASP760  ASP761  ALA762  ILE779  LEU786  VAL792 
 PHE793  MET794  SER795  GLU796  ALA797  LYS798  CYS799  TRP800  GLU811  SER814 

> <Gold.Protein.RotatedAtoms>
  152.2191  134.8429  160.0487 H   0  0  0  0  0  0  0  0  0  0  0  0  # atno 6907 bound_to 6896
  151.9219  133.3583  159.3908 H   0  0  0  0  0  0  0  0  0  0  0  0  # atno 6908 bound_to 6896
  150.6995  134.4551  159.5398 H   0  0  0  0  0  0  0  0  0  0  0  0  # atno 6909 bound_to 6896
  145.5172  140.9535  143.1675 H   0  0  0  0  0  0  0  0  0  0  0  0  # atno 7974 bound_to 7965
  156.2146  140.3013  155.9810 H   0  0  0  0  0  0  0  0  0  0  0  0  # atno 8008 bound_to 7997
  155.2637  140.0431  157.3017 H   0  0  0  0  0  0  0  0  0  0  0  0  # atno 8009 bound_to 7997
  154.5749  140.2359  155.8145 H   0  0  0  0  0  0  0  0  0  0  0  0  # atno 8010 bound_to 7997
  140.4342  143.2537  151.8717 H   0  0  0  0  0  0  0  0  0  0  0  0  # atno 10167 bound_to 10162
  156.7713  130.5301  149.5767 H   0  0  0  0  0  0  0  0  0  0  0  0  # atno 10718 bound_to 10713
  154.8101  135.3277  154.7327 H   0  0  0  0  0  0  0  0  0  0  0  0  # atno 10763 bound_to 10752
  153.7978  135.6906  153.4865 H   0  0  0  0  0  0  0  0  0  0  0  0  # atno 10764 bound_to 10752
  153.1874  135.4564  155.0051 H   0  0  0  0  0  0  0  0  0  0  0  0  # atno 10765 bound_to 10752
  141.0065  133.6929  156.2120 H   0  0  0  0  0  0  0  0  0  0  0  0  # atno 11005 bound_to 11000
  144.7696  139.6766  143.7200 LP  0  0  0  0  0  0  0  0  0  0  0  0  # atno 17320 bound_to 7965
  146.2129  139.5498  142.9669 LP  0  0  0  0  0  0  0  0  0  0  0  0  # atno 17321 bound_to 7965
  139.4786  144.5301  151.8679 LP  0  0  0  0  0  0  0  0  0  0  0  0  # atno 17342 bound_to 10162
  140.4392  144.2009  150.5890 LP  0  0  0  0  0  0  0  0  0  0  0  0  # atno 17343 bound_to 10162
  156.1276  130.6155  151.0287 LP  0  0  0  0  0  0  0  0  0  0  0  0  # atno 17370 bound_to 10713
  157.6690  131.0865  150.7659 LP  0  0  0  0  0  0  0  0  0  0  0  0  # atno 17371 bound_to 10713
  140.6804  134.4773  157.5589 LP  0  0  0  0  0  0  0  0  0  0  0  0  # atno 17394 bound_to 11000
  139.9066  134.8435  156.1683 LP  0  0  0  0  0  0  0  0  0  0  0  0  # atno 17395 bound_to 11000

$$$$
