AV-unprocessed.smi:2522|AV-procd|sdf|9919|dock4
  -GOLD-   2272013553D 1   1.00000     0.00000
 Structure written by MMmdl.
 41 42  0  0  0  0  0  0  0  0  1 V2000
  149.5493  139.2395  154.1349 C   0  0  0  0  0  0  0  0  0  0  0  0
  148.8772  140.4321  154.8471 C   0  0  0  0  0  0  0  0  0  0  0  0
  148.3359  141.4054  153.7835 C   0  0  0  0  0  0  0  0  0  0  0  0
  147.6943  139.9132  155.6906 C   0  0  0  0  0  0  0  0  0  0  0  0
  149.9009  141.1905  155.7326 C   0  0  0  0  0  0  0  0  0  0  0  0
  150.6542  140.3035  156.6145 N   0  0  0  0  0  0  0  0  0  0  0  0
  151.8467  139.7479  156.3466 C   0  0  0  0  0  0  0  0  0  0  0  0
  152.4140  139.8394  155.2582 O   0  0  0  0  0  0  0  0  0  0  0  0
  152.5176  139.0014  157.5015 C   0  0  0  0  0  0  0  0  0  0  0  0
  152.7298  139.9409  158.6544 C   0  0  0  0  0  0  0  0  0  0  0  0
  153.4087  139.6802  159.8195 C   0  0  0  0  0  0  0  0  0  0  0  0
  153.4634  141.0711  160.8691 S   0  0  0  0  0  0  0  0  0  0  0  0
  152.5431  141.9738  159.6673 C   0  0  0  0  0  0  0  0  0  0  0  0
  152.1847  143.3474  159.8145 N   0  0  0  0  0  0  0  0  0  0  0  0
  152.1741  143.9898  161.1230 C   0  0  0  0  0  0  0  0  0  0  0  0
  151.9602  145.4845  160.8588 C   0  0  0  0  0  0  0  0  0  0  0  0
  151.5075  145.5808  159.4033 C   0  0  0  0  0  0  0  0  0  0  0  0
  151.8157  144.2029  158.8421 C   0  0  0  0  0  0  0  0  0  0  0  0
  151.7204  143.9627  157.6386 O   0  0  0  0  0  0  0  0  0  0  0  0
  152.2231  141.2435  158.5937 N   0  0  0  0  0  0  0  0  0  0  0  0
  148.8547  138.7387  153.4597 H   0  0  0  0  0  0  0  0  0  0  0  0
  149.9011  138.4903  154.8441 H   0  0  0  0  0  0  0  0  0  0  0  0
  150.4074  139.5612  153.5439 H   0  0  0  0  0  0  0  0  0  0  0  0
  149.1375  141.7899  153.1519 H   0  0  0  0  0  0  0  0  0  0  0  0
  147.8412  142.2615  154.2436 H   0  0  0  0  0  0  0  0  0  0  0  0
  147.6097  140.9197  153.1307 H   0  0  0  0  0  0  0  0  0  0  0  0
  146.9329  139.4506  155.0620 H   0  0  0  0  0  0  0  0  0  0  0  0
  147.2164  140.7229  156.2429 H   0  0  0  0  0  0  0  0  0  0  0  0
  148.0105  139.1618  156.4147 H   0  0  0  0  0  0  0  0  0  0  0  0
  150.6242  141.7060  155.1000 H   0  0  0  0  0  0  0  0  0  0  0  0
  149.3998  141.9717  156.3068 H   0  0  0  0  0  0  0  0  0  0  0  0
  150.2756  140.1666  157.5409 H   0  0  0  0  0  0  0  0  0  0  0  0
  151.8954  138.1555  157.7968 H   0  0  0  0  0  0  0  0  0  0  0  0
  153.4668  138.5851  157.1620 H   0  0  0  0  0  0  0  0  0  0  0  0
  153.8920  138.7609  160.1159 H   0  0  0  0  0  0  0  0  0  0  0  0
  151.3561  143.5800  161.7172 H   0  0  0  0  0  0  0  0  0  0  0  0
  153.1066  143.8169  161.6617 H   0  0  0  0  0  0  0  0  0  0  0  0
  151.2299  145.9159  161.5441 H   0  0  0  0  0  0  0  0  0  0  0  0
  152.8969  146.0275  160.9919 H   0  0  0  0  0  0  0  0  0  0  0  0
  150.4361  145.7699  159.3311 H   0  0  0  0  0  0  0  0  0  0  0  0
  152.0390  146.3612  158.8580 H   0  0  0  0  0  0  0  0  0  0  0  0
  1  2  1  0  0  0  0
  1 21  1  0  0  0  0
  1 22  1  0  0  0  0
  1 23  1  0  0  0  0
  2  3  1  0  0  0  0
  2  4  1  0  0  0  0
  2  5  1  0  0  0  0
  3 24  1  0  0  0  0
  3 25  1  0  0  0  0
  3 26  1  0  0  0  0
  4 27  1  0  0  0  0
  4 28  1  0  0  0  0
  4 29  1  0  0  0  0
  5  6  1  0  0  0  0
  5 30  1  0  0  0  0
  5 31  1  0  0  0  0
  6  7  1  0  0  0  0
  6 32  1  0  0  0  0
  7  8  2  0  0  0  0
  7  9  1  0  0  0  0
  9 10  1  0  0  0  0
  9 33  1  0  0  0  0
  9 34  1  0  0  0  0
 10 20  1  0  0  0  0
 10 11  2  0  0  0  0
 11 12  1  0  0  0  0
 11 35  1  0  0  0  0
 12 13  1  0  0  0  0
 13 14  1  0  0  0  0
 13 20  2  0  0  0  0
 14 18  1  0  0  0  0
 14 15  1  0  0  0  0
 15 16  1  0  0  0  0
 15 36  1  0  0  0  0
 15 37  1  0  0  0  0
 16 17  1  0  0  0  0
 16 38  1  0  0  0  0
 16 39  1  0  0  0  0
 17 18  1  0  0  0  0
 17 40  1  0  0  0  0
 17 41  1  0  0  0  0
 18 19  2  0  0  0  0
M  END
> <s_m_source_file>
AV-unprocessed.smi

> <i_m_source_file_index>
2522

> <i_lp_mmshare_version>
43012

> <i_f3d_flags>
0

> <s_epik_input>
W0NIM11DKFtDSDNdKShbQ0gzXSlbQ0gyXVtOSF1DKD1PKVtDSDJdYzFbY0hdc2MobjEpTjJbQ0gyXVtDSDJdW0NIMl1DMj1P

> <s_epik_cmdline>
J2VwaWtfcHl0aG9uJywgJy1waCcsICc3LjAnLCAnLXRuJywgJzgnLCAnLW1hJywgJzIwMCcsICctbWV0YWxfYmluZGluZycsICctaW1hZScsICc8aW5maWxlLm1hZT4nLCAnLW9tYWUnLCAnPG91dGZpbGUubWFlPic=

> <r_lp_tautomer_probability>
1

> <r_epik_Ionization_Penalty>
2.986e-05

> <r_epik_Ionization_Penalty_Charging>
0

> <r_epik_Ionization_Penalty_Neutral>
2.986e-05

> <r_epik_State_Penalty>
-0

> <r_epik_Charging_Adjusted_Penalty>
0

> <i_epik_Tot_Q>
0

> <i_epik_Tot_abs_Q>
0

> <r_epik_Metal_State_Penalty>
-0

> <b_epik_Metal_Only>
0

> <s_lp_Force_Field>
OPLS_2005

> <r_lp_Energy>
19.1404

> <b_lp_Chiralities_Consistent>
1

> <s_lp_Variant>
AV-unprocessed.smi:2522-1

> <Gold.Version>
5.8.1

> <Gold.Id.Protein>
6NUR|6NUR_protein|mol2

> <Gold.PLP.Fitness>
44.8497

> <Gold.PLP.PLP>
-42.0398

> <Gold.PLP.part.hbond>
-1.6898

> <Gold.PLP.part.metal>
0.0000

> <Gold.PLP.part.buried>
0.8723

> <Gold.PLP.part.nonpolar>
-39.7825

> <Gold.PLP.part.repulsive>
0.1909

> <Gold.PLP.ligand.clash>
0.0000

> <Gold.PLP.ligand.torsion>
0.4647

> <Gold.PLP.Chemscore.Hbond>
1.2441

> <Gold.PLP.Chemscore.CHOScore>
0.0000

> <Gold.PLP.Chemscore.Metal>
0.0000

> <Gold.Chemscore.Hbonds>
donor molecule, donor type, donor heavy atom, donor atom, acceptor molecule, acceptor atom, score
      P1  H  7989  7998       L1     8  0.45
      P1  H  7997  8010       L1     8  0.62

> <Gold.PLP.Chemscore.Internal.Correction>
0.0070

> <Gold.Rescore>
     Score         DG    S(hbond)    S(metal)    S(lipo)     H(rot)  DE(clash)    DE(int)     intcor
     10.71     -14.66       0.75        0.00      91.80       1.59       0.82       3.12       ----

> <Gold.Chemscore.Fitness>
10.7106

> <Gold.Chemscore.DG>
-14.6561

> <Gold.Chemscore.ZeroCoef>
-5.4800

> <Gold.Chemscore.Hbond>
0.7498

> <Gold.Chemscore.Metal>
0.0000

> <Gold.Chemscore.Lipo>
91.7954

> <Gold.Chemscore.Internal_Hbond>
0.0000

> <Gold.Chemscore.DEClash>
0.8233

> <Gold.Chemscore.DEInternal>
3.1223

> <Gold.Chemscore.Rot>
1.5892

> <Gold.Chemscore.Internal.Correction>
   9.000000E+99

> <Gold.Chemscore.Hbonds>
donor molecule, donor type, donor heavy atom, donor atom, acceptor molecule, acceptor atom, score
      P1  H  7989  7998       L1     8  0.45
      P1  H  7997  8010       L1     8  0.24

> <Gold.Chemscore.Hbond.Weighted>
-2.5045

> <Gold.Chemscore.Metal.Weighted>
-0.0000

> <Gold.Chemscore.Lipo.Weighted>
-10.7401

> <Gold.Chemscore.Internal_Hbond.Weighted>
0.0000

> <Gold.Chemscore.DEClash.Weighted>
0.8233

> <Gold.Chemscore.DEInternal.Weighted>
3.1223

> <Gold.Chemscore.Rot.Weighted>
4.0684

> <Gold.Chemscore.Internal.Correction.Weighted>
   9.000000E+99

> <Gold.Protein.RotatedTorsions>
[ 6907 6896 6895 6894 ] final   51.31 input  -60.11 | X-H torsion
[ 7974 7965 7964 7962 ] final  143.82 input  175.53 | X-H torsion
[ 8008 7997 7996 7995 ] final  109.85 input   59.86 | X-H torsion
[ 10167 10162 10161 10158 ] final -145.35 input  -65.29 | X-H torsion
[ 10718 10713 10712 10709 ] final  165.02 input   66.30 | X-H torsion
[ 10763 10752 10751 10750 ] final   29.19 input  -60.55 | X-H torsion
[ 11005 11000 10999 10996 ] final  168.32 input  -57.11 | X-H torsion

> <Gold.Protein.ActiveResidues>
 VAL166  LYS551  ARG553  GLY616  TRP617  ASP618  TYR619  PRO620  LYS621  CYS622 
 ASP623  PHE694  ASN695  SER759  ASP760  ASP761  ALA762  ILE779  LEU786  VAL792 
 PHE793  MET794  SER795  GLU796  ALA797  LYS798  CYS799  TRP800  GLU811  SER814 

> <Gold.Protein.RotatedAtoms>
  152.3113  134.7493  160.0335 H   0  0  0  0  0  0  0  0  0  0  0  0  # atno 6907 bound_to 6896
  151.7973  133.3360  159.3525 H   0  0  0  0  0  0  0  0  0  0  0  0  # atno 6908 bound_to 6896
  150.7322  134.5717  159.5938 H   0  0  0  0  0  0  0  0  0  0  0  0  # atno 6909 bound_to 6896
  144.8888  139.5589  143.5808 H   0  0  0  0  0  0  0  0  0  0  0  0  # atno 7974 bound_to 7965
  156.2009  140.3050  155.9525 H   0  0  0  0  0  0  0  0  0  0  0  0  # atno 8008 bound_to 7997
  155.2955  140.0444  157.3043 H   0  0  0  0  0  0  0  0  0  0  0  0  # atno 8009 bound_to 7997
  154.5570  140.2309  155.8404 H   0  0  0  0  0  0  0  0  0  0  0  0  # atno 8010 bound_to 7997
  139.7814  143.8095  152.2639 H   0  0  0  0  0  0  0  0  0  0  0  0  # atno 10167 bound_to 10162
  157.0860  131.0405  151.2556 H   0  0  0  0  0  0  0  0  0  0  0  0  # atno 10718 bound_to 10713
  153.0445  135.6495  154.0853 H   0  0  0  0  0  0  0  0  0  0  0  0  # atno 10763 bound_to 10752
  154.0553  135.2892  155.3335 H   0  0  0  0  0  0  0  0  0  0  0  0  # atno 10764 bound_to 10752
  154.6693  135.5362  153.8183 H   0  0  0  0  0  0  0  0  0  0  0  0  # atno 10765 bound_to 10752
  140.2860  134.7712  157.3799 H   0  0  0  0  0  0  0  0  0  0  0  0  # atno 11005 bound_to 11000
  146.3041  139.7521  142.9069 LP  0  0  0  0  0  0  0  0  0  0  0  0  # atno 17320 bound_to 7965
  145.3821  141.0360  143.3172 LP  0  0  0  0  0  0  0  0  0  0  0  0  # atno 17321 bound_to 7965
  139.8159  144.7316  150.9636 LP  0  0  0  0  0  0  0  0  0  0  0  0  # atno 17342 bound_to 10162
  140.7818  143.4205  151.0849 LP  0  0  0  0  0  0  0  0  0  0  0  0  # atno 17343 bound_to 10162
  157.4760  130.7737  149.7369 LP  0  0  0  0  0  0  0  0  0  0  0  0  # atno 17370 bound_to 10713
  155.9910  130.3940  150.3001 LP  0  0  0  0  0  0  0  0  0  0  0  0  # atno 17371 bound_to 10713
  140.1239  134.5183  155.8161 LP  0  0  0  0  0  0  0  0  0  0  0  0  # atno 17394 bound_to 11000
  141.2154  133.6766  156.6916 LP  0  0  0  0  0  0  0  0  0  0  0  0  # atno 17395 bound_to 11000

$$$$
