AV-unprocessed.smi:1697|AV-procd|sdf|6805|dock4
  -GOLD-   22720 7573D 1   1.00000     0.00000
 Structure written by MMmdl.
 54 56  0  0  0  0  0  0  0  0  2 V2000
  146.7857  141.8979  154.1193 C   0  0  0  0  0  0  0  0  0  0  0  0
  147.7370  141.3626  155.1982 C   0  0  0  0  0  0  0  0  0  0  0  0
  147.6619  139.9476  155.3178 O   0  0  0  0  0  0  0  0  0  0  0  0
  148.4954  139.2149  154.4251 C   0  0  2  0  0  0  0  0  0  0  0  0
  147.9087  139.3166  153.0091 C   0  0  0  0  0  0  0  0  0  0  0  0
  146.5568  138.5902  152.8979 C   0  0  0  0  0  0  0  0  0  0  0  0
  146.6710  137.1705  153.3206 N   0  3  2  0  0  0  0  0  0  0  0  0
  145.4158  136.4118  153.0859 C   0  0  0  0  0  0  0  0  0  0  0  0
  145.4374  135.6120  151.7639 C   0  0  2  0  0  0  0  0  0  0  0  0
  145.7712  136.4945  150.7100 O   0  0  0  0  0  0  0  0  0  0  0  0
  144.0933  134.9215  151.4417 C   0  0  0  0  0  0  0  0  0  0  0  0
  144.2305  133.5233  151.0670 N   0  0  0  0  0  0  0  0  0  0  0  0
  143.5202  132.8589  150.1346 C   0  0  0  0  0  0  0  0  0  0  0  0
  143.8000  131.5712  149.9582 N   0  0  0  0  0  0  0  0  0  0  0  0
  144.8163  131.3779  150.8775 C   0  0  0  0  0  0  0  0  0  0  0  0
  145.5530  130.2173  151.1988 C   0  0  0  0  0  0  0  0  0  0  0  0
  146.5578  130.2482  152.1917 C   0  0  0  0  0  0  0  0  0  0  0  0
  147.3201  128.9741  152.5102 C   0  0  0  0  0  0  0  0  0  0  0  0
  146.8439  131.4571  152.8755 C   0  0  0  0  0  0  0  0  0  0  0  0
  147.9220  131.5157  153.9433 C   0  0  0  0  0  0  0  0  0  0  0  0
  146.1179  132.6262  152.5663 C   0  0  0  0  0  0  0  0  0  0  0  0
  145.1148  132.5808  151.5819 C   0  0  0  0  0  0  0  0  0  0  0  0
  147.1760  137.0584  154.7147 C   0  0  0  0  0  0  0  0  0  0  0  0
  148.5454  137.7431  154.8658 C   0  0  0  0  0  0  0  0  0  0  0  0
  146.9089  142.9740  153.9966 H   0  0  0  0  0  0  0  0  0  0  0  0
  145.7418  141.7154  154.3739 H   0  0  0  0  0  0  0  0  0  0  0  0
  146.9839  141.4288  153.1553 H   0  0  0  0  0  0  0  0  0  0  0  0
  148.7611  141.6160  154.9236 H   0  0  0  0  0  0  0  0  0  0  0  0
  147.5492  141.8405  156.1607 H   0  0  0  0  0  0  0  0  0  0  0  0
  149.5088  139.6201  154.4102 H   0  0  0  0  0  0  0  0  0  0  0  0
  147.7953  140.3639  152.7263 H   0  0  0  0  0  0  0  0  0  0  0  0
  148.6099  138.8814  152.2957 H   0  0  0  0  0  0  0  0  0  0  0  0
  145.8044  139.0929  153.5078 H   0  0  0  0  0  0  0  0  0  0  0  0
  146.2117  138.6417  151.8645 H   0  0  0  0  0  0  0  0  0  0  0  0
  145.2353  135.7479  153.9326 H   0  0  0  0  0  0  0  0  0  0  0  0
  144.5752  137.1068  153.0598 H   0  0  0  0  0  0  0  0  0  0  0  0
  146.2031  134.8382  151.7997 H   0  0  0  0  0  0  0  0  0  0  0  0
  145.0612  137.1081  150.5939 H   0  0  0  0  0  0  0  0  0  0  0  0
  143.4204  134.9849  152.2981 H   0  0  0  0  0  0  0  0  0  0  0  0
  143.5951  135.4466  150.6260 H   0  0  0  0  0  0  0  0  0  0  0  0
  142.7477  133.3469  149.5582 H   0  0  0  0  0  0  0  0  0  0  0  0
  145.3372  129.2974  150.6749 H   0  0  0  0  0  0  0  0  0  0  0  0
  148.3765  129.0919  152.2682 H   0  0  0  0  0  0  0  0  0  0  0  0
  146.9377  128.1278  151.9391 H   0  0  0  0  0  0  0  0  0  0  0  0
  147.2316  128.7287  153.5688 H   0  0  0  0  0  0  0  0  0  0  0  0
  148.0678  132.5335  154.3060 H   0  0  0  0  0  0  0  0  0  0  0  0
  148.8748  131.1641  153.5472 H   0  0  0  0  0  0  0  0  0  0  0  0
  147.6489  130.8913  154.7941 H   0  0  0  0  0  0  0  0  0  0  0  0
  146.3262  133.5520  153.0814 H   0  0  0  0  0  0  0  0  0  0  0  0
  146.4549  137.5050  155.4010 H   0  0  0  0  0  0  0  0  0  0  0  0
  147.2739  136.0127  155.0033 H   0  0  0  0  0  0  0  0  0  0  0  0
  149.2816  137.2106  154.2621 H   0  0  0  0  0  0  0  0  0  0  0  0
  148.8864  137.6692  155.8986 H   0  0  0  0  0  0  0  0  0  0  0  0
  147.3658  136.7532  152.7172 H   0  0  0  0  0  0  0  0  0  0  0  0
  1  2  1  0  0  0  0
  1 25  1  0  0  0  0
  1 26  1  0  0  0  0
  1 27  1  0  0  0  0
  2  3  1  0  0  0  0
  2 28  1  0  0  0  0
  2 29  1  0  0  0  0
  3  4  1  0  0  0  0
  4 24  1  0  0  0  0
  4  5  1  0  0  0  0
  4 30  1  0  0  0  0
  5  6  1  0  0  0  0
  5 31  1  0  0  0  0
  5 32  1  0  0  0  0
  6  7  1  0  0  0  0
  6 33  1  0  0  0  0
  6 34  1  0  0  0  0
  7  8  1  0  0  0  0
  7 23  1  0  0  0  0
  7 54  1  0  0  0  0
  8  9  1  0  0  0  0
  8 35  1  0  0  0  0
  8 36  1  0  0  0  0
  9 10  1  0  0  0  0
  9 11  1  0  0  0  0
  9 37  1  0  0  0  0
 10 38  1  0  0  0  0
 11 12  1  0  0  0  0
 11 39  1  0  0  0  0
 11 40  1  0  0  0  0
 12 22  1  0  0  0  0
 12 13  1  0  0  0  0
 13 14  2  0  0  0  0
 13 41  1  0  0  0  0
 14 15  1  0  0  0  0
 15 22  2  0  0  0  0
 15 16  1  0  0  0  0
 16 17  2  0  0  0  0
 16 42  1  0  0  0  0
 17 18  1  0  0  0  0
 17 19  1  0  0  0  0
 18 43  1  0  0  0  0
 18 44  1  0  0  0  0
 18 45  1  0  0  0  0
 19 20  1  0  0  0  0
 19 21  2  0  0  0  0
 20 46  1  0  0  0  0
 20 47  1  0  0  0  0
 20 48  1  0  0  0  0
 21 22  1  0  0  0  0
 21 49  1  0  0  0  0
 23 24  1  0  0  0  0
 23 50  1  0  0  0  0
 23 51  1  0  0  0  0
 24 52  1  0  0  0  0
 24 53  1  0  0  0  0
M  CHG  1   7   1
M  END
> <s_m_source_file>
AV-unprocessed.smi

> <i_m_source_file_index>
1697

> <i_lp_mmshare_version>
43012

> <i_f3d_flags>
0

> <s_epik_input>
W0NIM11bQ0gyXU9bQ0hdMVtDSDJdW0NIMl1OKFtDSDJdW0NIMl0xKVtDSDJdW0NASF0oW09IXSlbQ0gyXW4oW2NIXW4yKWMoYzIzKVtjSF1jKFtDSDNdKWMoW2NIXTMpW0NIM10=

> <s_epik_cmdline>
J2VwaWtfcHl0aG9uJywgJy1waCcsICc3LjAnLCAnLXRuJywgJzgnLCAnLW1hJywgJzIwMCcsICctbWV0YWxfYmluZGluZycsICctaW1hZScsICc8aW5maWxlLm1hZT4nLCAnLW9tYWUnLCAnPG91dGZpbGUubWFlPic=

> <r_epik_Ionization_Penalty>
0.112476

> <r_epik_Ionization_Penalty_Charging>
0.0244612

> <r_epik_Ionization_Penalty_Neutral>
0.0880147

> <r_epik_State_Penalty>
0.0961447

> <r_epik_Charging_Adjusted_Penalty>
0.120606

> <i_epik_Tot_Q>
1

> <i_epik_Tot_abs_Q>
1

> <r_epik_Metal_State_Penalty>
0.0206204

> <b_epik_Metal_Only>
0

> <s_lp_Force_Field>
OPLS_2005

> <r_lp_Energy>
22.8908

> <b_lp_Chiralities_Consistent>
1

> <s_lp_Variant>
AV-unprocessed.smi:1697-3

> <Gold.Version>
5.8.1

> <Gold.Id.Protein>
6NUR|6NUR_protein|mol2

> <Gold.PLP.Fitness>
50.0849

> <Gold.PLP.PLP>
-39.1435

> <Gold.PLP.part.hbond>
-3.0000

> <Gold.PLP.part.metal>
0.0000

> <Gold.PLP.part.buried>
-2.3958

> <Gold.PLP.part.nonpolar>
-35.0617

> <Gold.PLP.part.repulsive>
0.2268

> <Gold.PLP.ligand.clash>
0.0000

> <Gold.PLP.ligand.torsion>
1.8129

> <Gold.PLP.Chemscore.Hbond>
3.8000

> <Gold.PLP.Chemscore.CHOScore>
1.0000

> <Gold.PLP.Chemscore.Metal>
0.0000

> <Gold.Chemscore.Hbonds>
donor molecule, donor type, donor heavy atom, donor atom, acceptor molecule, acceptor atom, score
      L1  H     7    54       P1  7948  2.00
      L1  H    10    38       P1 10171  0.96
      P1  H 10785 10796       L1    14  0.82
      L1  C    13    41       P1 10186  1.00

> <Gold.PLP.Chemscore.Internal.Correction>
0.1670

> <Gold.Rescore>
     Score         DG    S(hbond)    S(metal)    S(lipo)     H(rot)  DE(clash)    DE(int)     intcor
     17.83     -21.62       2.77        0.00     108.73       2.27       1.90       1.90       ----

> <Gold.Chemscore.Fitness>
17.8280

> <Gold.Chemscore.DG>
-21.6246

> <Gold.Chemscore.ZeroCoef>
-5.4800

> <Gold.Chemscore.Hbond>
2.7654

> <Gold.Chemscore.Metal>
0.0000

> <Gold.Chemscore.Lipo>
108.7334

> <Gold.Chemscore.Internal_Hbond>
0.0000

> <Gold.Chemscore.DEClash>
1.9012

> <Gold.Chemscore.DEInternal>
1.8953

> <Gold.Chemscore.Rot>
2.2710

> <Gold.Chemscore.Internal.Correction>
   9.000000E+99

> <Gold.Chemscore.Hbonds>
donor molecule, donor type, donor heavy atom, donor atom, acceptor molecule, acceptor atom, score
      L1  H     7    54       P1  7948  1.00
      L1  H    10    38       P1 10171  0.90
      P1  H 10785 10796       L1    14  0.79

> <Gold.Chemscore.Hbond.Weighted>
-9.2365

> <Gold.Chemscore.Metal.Weighted>
-0.0000

> <Gold.Chemscore.Lipo.Weighted>
-12.7218

> <Gold.Chemscore.Internal_Hbond.Weighted>
0.0000

> <Gold.Chemscore.DEClash.Weighted>
1.9012

> <Gold.Chemscore.DEInternal.Weighted>
1.8953

> <Gold.Chemscore.Rot.Weighted>
5.8137

> <Gold.Chemscore.Internal.Correction.Weighted>
   9.000000E+99

> <Gold.Protein.RotatedTorsions>
[ 6907 6896 6895 6894 ] final  -88.52 input  -60.11 | X-H torsion
[ 7974 7965 7964 7962 ] final  -37.25 input  175.53 | X-H torsion
[ 8008 7997 7996 7995 ] final -152.31 input   59.86 | X-H torsion
[ 10167 10162 10161 10158 ] final  -89.44 input  -65.29 | X-H torsion
[ 10718 10713 10712 10709 ] final  162.40 input   66.30 | X-H torsion
[ 10763 10752 10751 10750 ] final   67.46 input  -60.55 | X-H torsion
[ 11005 11000 10999 10996 ] final  -40.92 input  -57.11 | X-H torsion

> <Gold.Protein.ActiveResidues>
 VAL166  LYS551  ARG553  GLY616  TRP617  ASP618  TYR619  PRO620  LYS621  CYS622 
 ASP623  PHE694  ASN695  SER759  ASP760  ASP761  ALA762  ILE779  LEU786  VAL792 
 PHE793  MET794  SER795  GLU796  ALA797  LYS798  CYS799  TRP800  GLU811  SER814 

> <Gold.Protein.RotatedAtoms>
  150.6869  134.2729  159.4595 H   0  0  0  0  0  0  0  0  0  0  0  0  # atno 6907 bound_to 6896
  152.0650  134.9567  160.0584 H   0  0  0  0  0  0  0  0  0  0  0  0  # atno 6908 bound_to 6896
  152.0980  133.4200  159.4611 H   0  0  0  0  0  0  0  0  0  0  0  0  # atno 6909 bound_to 6896
  146.0591  140.6373  142.9005 H   0  0  0  0  0  0  0  0  0  0  0  0  # atno 7974 bound_to 7965
  155.6531  140.0714  157.2580 H   0  0  0  0  0  0  0  0  0  0  0  0  # atno 8008 bound_to 7997
  154.4158  140.1730  156.1746 H   0  0  0  0  0  0  0  0  0  0  0  0  # atno 8009 bound_to 7997
  155.9760  140.3358  155.6622 H   0  0  0  0  0  0  0  0  0  0  0  0  # atno 8010 bound_to 7997
  140.3648  143.2824  151.9572 H   0  0  0  0  0  0  0  0  0  0  0  0  # atno 10167 bound_to 10162
  157.1230  131.0497  151.2406 H   0  0  0  0  0  0  0  0  0  0  0  0  # atno 10718 bound_to 10713
  153.0187  135.5283  154.6983 H   0  0  0  0  0  0  0  0  0  0  0  0  # atno 10763 bound_to 10752
  154.6099  135.2877  155.0446 H   0  0  0  0  0  0  0  0  0  0  0  0  # atno 10764 bound_to 10752
  154.1472  135.6569  153.5007 H   0  0  0  0  0  0  0  0  0  0  0  0  # atno 10765 bound_to 10752
  141.0209  133.6863  156.2386 H   0  0  0  0  0  0  0  0  0  0  0  0  # atno 11005 bound_to 11000
  144.7165  140.4227  143.7040 LP  0  0  0  0  0  0  0  0  0  0  0  0  # atno 17320 bound_to 7965
  145.6591  139.1578  143.2818 LP  0  0  0  0  0  0  0  0  0  0  0  0  # atno 17321 bound_to 7965
  139.4810  144.5961  151.7688 LP  0  0  0  0  0  0  0  0  0  0  0  0  # atno 17342 bound_to 10162
  140.5092  144.1051  150.5990 LP  0  0  0  0  0  0  0  0  0  0  0  0  # atno 17343 bound_to 10162
  157.4459  130.7571  149.7109 LP  0  0  0  0  0  0  0  0  0  0  0  0  # atno 17370 bound_to 10713
  155.9824  130.4010  150.3417 LP  0  0  0  0  0  0  0  0  0  0  0  0  # atno 17371 bound_to 10713
  140.6575  134.5003  157.5581 LP  0  0  0  0  0  0  0  0  0  0  0  0  # atno 17394 bound_to 11000
  139.9145  134.8274  156.1412 LP  0  0  0  0  0  0  0  0  0  0  0  0  # atno 17395 bound_to 11000

$$$$
