AV-unprocessed.smi:3280|AV-procd|sdf|12555|dock9
  -GOLD-   2272018473D 1   1.00000     0.00000
 Structure written by MMmdl.
 38 39  0  0  0  0  0  0  0  0  1 V2000
  155.6814  137.4112  163.7981 C   0  0  0  0  0  0  0  0  0  0  0  0
  154.1862  137.2219  163.5034 C   0  0  0  0  0  0  0  0  0  0  0  0
  153.5217  136.1836  164.4195 C   0  0  0  0  0  0  0  0  0  0  0  0
  153.9394  136.9245  162.0559 C   0  0  0  0  0  0  0  0  0  0  0  0
  154.3232  135.7738  161.5150 N   0  0  0  0  0  0  0  0  0  0  0  0
  153.9037  135.8846  160.1818 O   0  0  0  0  0  0  0  0  0  0  0  0
  153.3284  137.1062  160.0757 C   0  0  0  0  0  0  0  0  0  0  0  0
  152.7335  137.5113  158.7687 C   0  0  0  0  0  0  0  0  0  0  0  0
  151.9645  138.8350  158.8646 C   0  0  0  0  0  0  0  0  0  0  0  0
  152.7592  139.8084  159.6013 N   0  0  0  0  0  0  0  0  0  0  0  0
  152.1338  141.1261  159.6197 C   0  0  1  0  0  0  0  0  0  0  0  0
  153.1208  142.0987  160.2951 C   0  0  0  0  0  0  0  0  0  0  0  0
  152.5482  143.5181  160.4372 C   0  0  0  0  0  0  0  0  0  0  0  0
  152.2191  144.1532  159.0793 C   0  0  0  0  0  0  0  0  0  0  0  0
  150.9513  143.2006  158.2011 S   0  0  0  0  0  0  0  0  0  0  0  0
  151.7794  141.5866  158.1895 C   0  0  0  0  0  0  0  0  0  0  0  0
  153.3040  137.7903  161.2166 N   0  0  0  0  0  0  0  0  0  0  0  0
  156.1044  138.2066  163.1838 H   0  0  0  0  0  0  0  0  0  0  0  0
  156.2445  136.4992  163.5974 H   0  0  0  0  0  0  0  0  0  0  0  0
  155.8444  137.6788  164.8423 H   0  0  0  0  0  0  0  0  0  0  0  0
  153.7064  138.1769  163.7245 H   0  0  0  0  0  0  0  0  0  0  0  0
  152.4487  136.1266  164.2340 H   0  0  0  0  0  0  0  0  0  0  0  0
  153.6616  136.4402  165.4698 H   0  0  0  0  0  0  0  0  0  0  0  0
  153.9407  135.1893  164.2622 H   0  0  0  0  0  0  0  0  0  0  0  0
  153.5341  137.5905  158.0318 H   0  0  0  0  0  0  0  0  0  0  0  0
  152.0715  136.7134  158.4288 H   0  0  0  0  0  0  0  0  0  0  0  0
  151.7425  139.2022  157.8632 H   0  0  0  0  0  0  0  0  0  0  0  0
  151.0135  138.6741  159.3741 H   0  0  0  0  0  0  0  0  0  0  0  0
  152.8667  139.4839  160.5519 H   0  0  0  0  0  0  0  0  0  0  0  0
  151.2288  141.0798  160.2275 H   0  0  0  0  0  0  0  0  0  0  0  0
  153.3810  141.7267  161.2871 H   0  0  0  0  0  0  0  0  0  0  0  0
  154.0535  142.1388  159.7300 H   0  0  0  0  0  0  0  0  0  0  0  0
  151.6537  143.4961  161.0610 H   0  0  0  0  0  0  0  0  0  0  0  0
  153.2699  144.1457  160.9607 H   0  0  0  0  0  0  0  0  0  0  0  0
  151.8574  145.1724  159.2164 H   0  0  0  0  0  0  0  0  0  0  0  0
  153.1142  144.2121  158.4591 H   0  0  0  0  0  0  0  0  0  0  0  0
  152.6777  141.6559  157.5744 H   0  0  0  0  0  0  0  0  0  0  0  0
  151.1101  140.8826  157.6965 H   0  0  0  0  0  0  0  0  0  0  0  0
  1  2  1  0  0  0  0
  1 18  1  0  0  0  0
  1 19  1  0  0  0  0
  1 20  1  0  0  0  0
  2  3  1  0  0  0  0
  2  4  1  0  0  0  0
  2 21  1  0  0  0  0
  3 22  1  0  0  0  0
  3 23  1  0  0  0  0
  3 24  1  0  0  0  0
  4 17  1  0  0  0  0
  4  5  2  0  0  0  0
  5  6  1  0  0  0  0
  6  7  1  0  0  0  0
  7  8  1  0  0  0  0
  7 17  2  0  0  0  0
  8  9  1  0  0  0  0
  8 25  1  0  0  0  0
  8 26  1  0  0  0  0
  9 10  1  0  0  0  0
  9 27  1  0  0  0  0
  9 28  1  0  0  0  0
 10 11  1  0  0  0  0
 10 29  1  0  0  0  0
 11 16  1  0  0  0  0
 11 12  1  0  0  0  0
 11 30  1  0  0  0  0
 12 13  1  0  0  0  0
 12 31  1  0  0  0  0
 12 32  1  0  0  0  0
 13 14  1  0  0  0  0
 13 33  1  0  0  0  0
 13 34  1  0  0  0  0
 14 15  1  0  0  0  0
 14 35  1  0  0  0  0
 14 36  1  0  0  0  0
 15 16  1  0  0  0  0
 16 37  1  0  0  0  0
 16 38  1  0  0  0  0
M  END
> <s_m_source_file>
AV-unprocessed.smi

> <i_m_source_file_index>
3280

> <i_lp_mmshare_version>
43012

> <i_f3d_flags>
0

> <s_epik_input>
W0NIM11bQ0hdKFtDSDNdKWMxbm9jKG4xKVtDSDJdW0NIMl1bTkhdW0NAQEhdMltDSDJdW0NIMl1bQ0gyXVNbQ0gyXTI=

> <s_epik_cmdline>
J2VwaWtfcHl0aG9uJywgJy1waCcsICc3LjAnLCAnLXRuJywgJzgnLCAnLW1hJywgJzIwMCcsICctbWV0YWxfYmluZGluZycsICctaW1hZScsICc8aW5maWxlLm1hZT4nLCAnLW9tYWUnLCAnPG91dGZpbGUubWFlPic=

> <r_lp_tautomer_probability>
1

> <r_epik_Ionization_Penalty>
2.40576

> <r_epik_Ionization_Penalty_Charging>
0

> <r_epik_Ionization_Penalty_Neutral>
2.40576

> <r_epik_State_Penalty>
2.56401

> <r_epik_Charging_Adjusted_Penalty>
2.56401

> <i_epik_Tot_Q>
0

> <i_epik_Tot_abs_Q>
0

> <r_epik_Metal_State_Penalty>
2.56401

> <b_epik_Metal_Only>
0

> <s_lp_Force_Field>
OPLS_2005

> <r_lp_Energy>
1.02241

> <b_lp_Chiralities_Consistent>
1

> <s_lp_Variant>
AV-unprocessed.smi:3280-4

> <Gold.Version>
5.8.1

> <Gold.Id.Protein>
6NUR|6NUR_protein|mol2

> <Gold.PLP.Fitness>
37.8308

> <Gold.PLP.PLP>
-35.1099

> <Gold.PLP.part.hbond>
-1.0000

> <Gold.PLP.part.metal>
0.0000

> <Gold.PLP.part.buried>
-4.5080

> <Gold.PLP.part.nonpolar>
-29.3113

> <Gold.PLP.part.repulsive>
0.0000

> <Gold.PLP.ligand.clash>
0.0000

> <Gold.PLP.ligand.torsion>
0.1806

> <Gold.PLP.Chemscore.Hbond>
1.0000

> <Gold.PLP.Chemscore.CHOScore>
0.0000

> <Gold.PLP.Chemscore.Metal>
0.0000

> <Gold.Chemscore.Hbonds>
donor molecule, donor type, donor heavy atom, donor atom, acceptor molecule, acceptor atom, score
      P1  H  6896  6907       L1     6  1.00

> <Gold.PLP.Chemscore.Internal.Correction>
0.0821

> <Gold.Rescore>
     Score         DG    S(hbond)    S(metal)    S(lipo)     H(rot)  DE(clash)    DE(int)     intcor
     13.46     -15.44       0.90        0.00      96.10       1.68       0.01       1.97       ----

> <Gold.Chemscore.Fitness>
13.4581

> <Gold.Chemscore.DG>
-15.4368

> <Gold.Chemscore.ZeroCoef>
-5.4800

> <Gold.Chemscore.Hbond>
0.9049

> <Gold.Chemscore.Metal>
0.0000

> <Gold.Chemscore.Lipo>
96.0999

> <Gold.Chemscore.Internal_Hbond>
0.0000

> <Gold.Chemscore.DEClash>
0.0115

> <Gold.Chemscore.DEInternal>
1.9671

> <Gold.Chemscore.Rot>
1.6833

> <Gold.Chemscore.Internal.Correction>
   9.000000E+99

> <Gold.Chemscore.Hbonds>
donor molecule, donor type, donor heavy atom, donor atom, acceptor molecule, acceptor atom, score
      P1  H  6896  6907       L1     6  0.20

> <Gold.Chemscore.Hbond.Weighted>
-3.0223

> <Gold.Chemscore.Metal.Weighted>
-0.0000

> <Gold.Chemscore.Lipo.Weighted>
-11.2437

> <Gold.Chemscore.Internal_Hbond.Weighted>
0.0000

> <Gold.Chemscore.DEClash.Weighted>
0.0115

> <Gold.Chemscore.DEInternal.Weighted>
1.9671

> <Gold.Chemscore.Rot.Weighted>
4.3092

> <Gold.Chemscore.Internal.Correction.Weighted>
   9.000000E+99

> <Gold.Protein.RotatedTorsions>
[ 6907 6896 6895 6894 ] final   57.00 input  -60.11 | X-H torsion
[ 7974 7965 7964 7962 ] final   21.21 input  175.53 | X-H torsion
[ 8008 7997 7996 7995 ] final  133.41 input   59.86 | X-H torsion
[ 10167 10162 10161 10158 ] final   95.04 input  -65.29 | X-H torsion
[ 10718 10713 10712 10709 ] final  -36.72 input   66.30 | X-H torsion
[ 10763 10752 10751 10750 ] final  155.77 input  -60.55 | X-H torsion
[ 11005 11000 10999 10996 ] final  157.00 input  -57.11 | X-H torsion

> <Gold.Protein.ActiveResidues>
 VAL166  LYS551  ARG553  GLY616  TRP617  ASP618  TYR619  PRO620  LYS621  CYS622 
 ASP623  PHE694  ASN695  SER759  ASP760  ASP761  ALA762  ILE779  LEU786  VAL792 
 PHE793  MET794  SER795  GLU796  ALA797  LYS798  CYS799  TRP800  GLU811  SER814 

> <Gold.Protein.RotatedAtoms>
  152.3689  134.6763  160.0182 H   0  0  0  0  0  0  0  0  0  0  0  0  # atno 6907 bound_to 6896
  151.7062  133.3306  159.3287 H   0  0  0  0  0  0  0  0  0  0  0  0  # atno 6908 bound_to 6896
  150.7659  134.6507  159.6331 H   0  0  0  0  0  0  0  0  0  0  0  0  # atno 6909 bound_to 6896
  146.2080  139.8059  142.8710 H   0  0  0  0  0  0  0  0  0  0  0  0  # atno 7974 bound_to 7965
  156.2992  140.2522  156.3248 H   0  0  0  0  0  0  0  0  0  0  0  0  # atno 8008 bound_to 7997
  154.9201  140.0401  157.2012 H   0  0  0  0  0  0  0  0  0  0  0  0  # atno 8009 bound_to 7997
  154.8320  140.2877  155.5720 H   0  0  0  0  0  0  0  0  0  0  0  0  # atno 8010 bound_to 7997
  139.8026  144.6807  150.9744 H   0  0  0  0  0  0  0  0  0  0  0  0  # atno 10167 bound_to 10162
  156.3235  130.4269  149.7938 H   0  0  0  0  0  0  0  0  0  0  0  0  # atno 10718 bound_to 10713
  154.1736  135.2803  155.3073 H   0  0  0  0  0  0  0  0  0  0  0  0  # atno 10763 bound_to 10752
  154.6056  135.5515  153.7423 H   0  0  0  0  0  0  0  0  0  0  0  0  # atno 10764 bound_to 10752
  153.0157  135.6402  154.1876 H   0  0  0  0  0  0  0  0  0  0  0  0  # atno 10765 bound_to 10752
  140.1728  134.8531  157.2710 H   0  0  0  0  0  0  0  0  0  0  0  0  # atno 11005 bound_to 11000
  145.3247  141.0252  143.3480 LP  0  0  0  0  0  0  0  0  0  0  0  0  # atno 17320 bound_to 7965
  144.8842  139.4863  143.6709 LP  0  0  0  0  0  0  0  0  0  0  0  0  # atno 17321 bound_to 7965
  140.7820  143.4266  151.0759 LP  0  0  0  0  0  0  0  0  0  0  0  0  # atno 17342 bound_to 10162
  139.7937  143.8182  152.3155 LP  0  0  0  0  0  0  0  0  0  0  0  0  # atno 17343 bound_to 10162
  156.5237  130.8226  151.3212 LP  0  0  0  0  0  0  0  0  0  0  0  0  # atno 17370 bound_to 10713
  157.7416  130.9874  150.2461 LP  0  0  0  0  0  0  0  0  0  0  0  0  # atno 17371 bound_to 10713
  140.2358  134.3855  155.7502 LP  0  0  0  0  0  0  0  0  0  0  0  0  # atno 17394 bound_to 11000
  141.2218  133.7239  156.8711 LP  0  0  0  0  0  0  0  0  0  0  0  0  # atno 17395 bound_to 11000

$$$$
