AV-unprocessed.smi:47|AV-procd|sdf|426|dock3
  -GOLD-   2262016303D 1   1.00000     0.00000
 Structure written by MMmdl.
 32 34  0  0  0  0  0  0  0  0  2 V2000
  151.7231  135.7845  155.8392 O   0  0  0  0  0  0  0  0  0  0  0  0
  151.0262  137.0080  155.7363 C   0  0  2  0  0  0  0  0  0  0  0  0
  149.6906  136.8530  155.0119 C   0  0  0  0  0  0  0  0  0  0  0  0
  149.3876  138.1901  154.4703 N   0  3  0  0  0  0  0  0  0  0  0  0
  150.6518  138.9512  154.3534 C   0  0  1  0  0  0  0  0  0  0  0  0
  150.5807  140.2322  155.1274 C   0  0  0  0  0  0  0  0  0  0  0  0
  149.8120  141.2350  154.7166 N   0  0  0  0  0  0  0  0  0  0  0  0
  150.0724  142.1813  155.6419 N   0  0  0  0  0  0  0  0  0  0  0  0
  150.9674  141.7305  156.5301 C   0  0  0  0  0  0  0  0  0  0  0  0
  151.4797  142.5014  157.6651 C   0  0  0  0  0  0  0  0  0  0  0  0
  152.0341  141.8426  158.7871 C   0  0  0  0  0  0  0  0  0  0  0  0
  152.5263  142.5832  159.8794 C   0  0  0  0  0  0  0  0  0  0  0  0
  152.4698  143.9893  159.8613 C   0  0  0  0  0  0  0  0  0  0  0  0
  151.9205  144.6546  158.7495 C   0  0  0  0  0  0  0  0  0  0  0  0
  151.4276  143.9150  157.6569 C   0  0  0  0  0  0  0  0  0  0  0  0
  151.3345  140.4814  156.2405 N   0  0  0  0  0  0  0  0  0  0  0  0
  151.7638  138.0201  154.8634 C   0  0  0  0  0  0  0  0  0  0  0  0
  150.8642  137.4240  156.7319 H   0  0  0  0  0  0  0  0  0  0  0  0
  150.8210  139.1862  153.3016 H   0  0  0  0  0  0  0  0  0  0  0  0
  149.6392  143.0939  155.6284 H   0  0  0  0  0  0  0  0  0  0  0  0
  151.1655  135.1522  156.2671 H   0  0  0  0  0  0  0  0  0  0  0  0
  149.7885  136.1618  154.1732 H   0  0  0  0  0  0  0  0  0  0  0  0
  148.8945  136.4880  155.6612 H   0  0  0  0  0  0  0  0  0  0  0  0
  148.9204  138.1193  153.5781 H   0  0  0  0  0  0  0  0  0  0  0  0
  152.0880  140.7646  158.8233 H   0  0  0  0  0  0  0  0  0  0  0  0
  152.9478  142.0713  160.7320 H   0  0  0  0  0  0  0  0  0  0  0  0
  152.8473  144.5571  160.6991 H   0  0  0  0  0  0  0  0  0  0  0  0
  151.8767  145.7338  158.7346 H   0  0  0  0  0  0  0  0  0  0  0  0
  151.0098  144.4467  156.8146 H   0  0  0  0  0  0  0  0  0  0  0  0
  152.5686  138.5401  155.3851 H   0  0  0  0  0  0  0  0  0  0  0  0
  152.2086  137.5037  154.0109 H   0  0  0  0  0  0  0  0  0  0  0  0
  148.7953  138.6790  155.1270 H   0  0  0  0  0  0  0  0  0  0  0  0
  1  2  1  0  0  0  0
  1 21  1  0  0  0  0
  2 18  1  0  0  0  0
  2 17  1  0  0  0  0
  2  3  1  0  0  0  0
  3  4  1  0  0  0  0
  3 22  1  0  0  0  0
  3 23  1  0  0  0  0
  4  5  1  0  0  0  0
  4 24  1  0  0  0  0
  4 32  1  0  0  0  0
  5 19  1  0  0  0  0
  5  6  1  0  0  0  0
  5 17  1  0  0  0  0
  6 16  1  0  0  0  0
  6  7  2  0  0  0  0
  7  8  1  0  0  0  0
  8 20  1  0  0  0  0
  8  9  1  0  0  0  0
  9 10  1  0  0  0  0
  9 16  2  0  0  0  0
 10 15  1  0  0  0  0
 10 11  2  0  0  0  0
 11 12  1  0  0  0  0
 11 25  1  0  0  0  0
 12 13  2  0  0  0  0
 12 26  1  0  0  0  0
 13 14  1  0  0  0  0
 13 27  1  0  0  0  0
 14 15  2  0  0  0  0
 14 28  1  0  0  0  0
 15 29  1  0  0  0  0
 17 30  1  0  0  0  0
 17 31  1  0  0  0  0
M  CHG  1   4   1
M  END
> <s_m_source_file>
AV-unprocessed.smi

> <i_m_source_file_index>
47

> <i_lp_mmshare_version>
43012

> <i_f3d_flags>
0

> <s_epik_input>
W09IXVtDQEhdMVtDSDJdW05IXVtDQEBIXShbQ0gyXTEpYzJuW25IXWMobjIpLWMzW2NIXVtjSF1bY0hdW2NIXVtjSF0z

> <s_epik_cmdline>
J2VwaWtfcHl0aG9uJywgJy1waCcsICc3LjAnLCAnLXRuJywgJzgnLCAnLW1hJywgJzIwMCcsICctbWV0YWxfYmluZGluZycsICctaW1hZScsICc8aW5maWxlLm1hZT4nLCAnLW9tYWUnLCAnPG91dGZpbGUubWFlPic=

> <r_lp_tautomer_probability>
0.948284

> <r_epik_Ionization_Penalty>
0.163822

> <r_epik_Ionization_Penalty_Charging>
0.0371552

> <r_epik_Ionization_Penalty_Neutral>
0.126667

> <r_epik_State_Penalty>
0.318338

> <r_epik_Charging_Adjusted_Penalty>
0.355493

> <i_epik_Tot_Q>
1

> <i_epik_Tot_abs_Q>
1

> <r_epik_Metal_State_Penalty>
0.81572

> <b_epik_Metal_Only>
0

> <s_lp_Force_Field>
OPLS_2005

> <r_lp_Energy>
24.5404

> <b_lp_Chiralities_Consistent>
1

> <s_lp_Variant>
AV-unprocessed.smi:47-4

> <Gold.Version>
5.8.1

> <Gold.Id.Protein>
6NUR|6NUR_protein|mol2

> <Gold.PLP.Fitness>
43.0210

> <Gold.PLP.PLP>
-37.7110

> <Gold.PLP.part.hbond>
-3.1375

> <Gold.PLP.part.metal>
0.0000

> <Gold.PLP.part.buried>
-3.4595

> <Gold.PLP.part.nonpolar>
-31.2645

> <Gold.PLP.part.repulsive>
0.3182

> <Gold.PLP.ligand.clash>
0.0000

> <Gold.PLP.ligand.torsion>
0.3524

> <Gold.PLP.Chemscore.Hbond>
2.0000

> <Gold.PLP.Chemscore.CHOScore>
0.0000

> <Gold.PLP.Chemscore.Metal>
0.0000

> <Gold.Chemscore.Hbonds>
donor molecule, donor type, donor heavy atom, donor atom, acceptor molecule, acceptor atom, score
      L1  H     8    20       P1  8028  1.00
      P1  H 10752 10764       L1     1  1.00

> <Gold.PLP.Chemscore.Internal.Correction>
0.0148

> <Gold.Rescore>
     Score         DG    S(hbond)    S(metal)    S(lipo)     H(rot)  DE(clash)    DE(int)     intcor
     19.05     -19.45       1.99        0.00      95.31       1.50       0.14       0.26       ----

> <Gold.Chemscore.Fitness>
19.0482

> <Gold.Chemscore.DG>
-19.4469

> <Gold.Chemscore.ZeroCoef>
-5.4800

> <Gold.Chemscore.Hbond>
1.9900

> <Gold.Chemscore.Metal>
0.0000

> <Gold.Chemscore.Lipo>
95.3121

> <Gold.Chemscore.Internal_Hbond>
0.0000

> <Gold.Chemscore.DEClash>
0.1352

> <Gold.Chemscore.DEInternal>
0.2635

> <Gold.Chemscore.Rot>
1.4966

> <Gold.Chemscore.Internal.Correction>
   9.000000E+99

> <Gold.Chemscore.Hbonds>
donor molecule, donor type, donor heavy atom, donor atom, acceptor molecule, acceptor atom, score
      L1  H     8    20       P1  8028  1.00
      P1  H 10752 10764       L1     1  0.98

> <Gold.Chemscore.Hbond.Weighted>
-6.6466

> <Gold.Chemscore.Metal.Weighted>
-0.0000

> <Gold.Chemscore.Lipo.Weighted>
-11.1515

> <Gold.Chemscore.Internal_Hbond.Weighted>
0.0000

> <Gold.Chemscore.DEClash.Weighted>
0.1352

> <Gold.Chemscore.DEInternal.Weighted>
0.2635

> <Gold.Chemscore.Rot.Weighted>
3.8312

> <Gold.Chemscore.Internal.Correction.Weighted>
   9.000000E+99

> <Gold.Protein.RotatedTorsions>
[ 6907 6896 6895 6894 ] final  -13.00 input  -60.11 | X-H torsion
[ 7974 7965 7964 7962 ] final   64.38 input  175.53 | X-H torsion
[ 8008 7997 7996 7995 ] final  -49.96 input   59.86 | X-H torsion
[ 10167 10162 10161 10158 ] final -169.55 input  -65.29 | X-H torsion
[ 10718 10713 10712 10709 ] final -174.44 input   66.30 | X-H torsion
[ 10763 10752 10751 10750 ] final  -38.51 input  -60.55 | X-H torsion
[ 11005 11000 10999 10996 ] final -113.57 input  -57.11 | X-H torsion

> <Gold.Protein.ActiveResidues>
 VAL166  LYS551  ARG553  GLY616  TRP617  ASP618  TYR619  PRO620  LYS621  CYS622 
 ASP623  PHE694  ASN695  SER759  ASP760  ASP761  ALA762  ILE779  LEU786  VAL792 
 PHE793  MET794  SER795  GLU796  ALA797  LYS798  CYS799  TRP800  GLU811  SER814 

> <Gold.Protein.RotatedAtoms>
  151.3617  135.0905  159.9436 H   0  0  0  0  0  0  0  0  0  0  0  0  # atno 6907 bound_to 6896
  152.5160  133.9251  159.7564 H   0  0  0  0  0  0  0  0  0  0  0  0  # atno 6908 bound_to 6896
  150.9647  133.6353  159.2777 H   0  0  0  0  0  0  0  0  0  0  0  0  # atno 6909 bound_to 6896
  145.8509  139.3253  143.0876 H   0  0  0  0  0  0  0  0  0  0  0  0  # atno 7974 bound_to 7965
  154.4053  140.1284  156.4588 H   0  0  0  0  0  0  0  0  0  0  0  0  # atno 8008 bound_to 7997
  155.7293  140.3491  155.5032 H   0  0  0  0  0  0  0  0  0  0  0  0  # atno 8009 bound_to 7997
  155.9142  140.1041  157.1246 H   0  0  0  0  0  0  0  0  0  0  0  0  # atno 8010 bound_to 7997
  139.5915  144.1202  152.1640 H   0  0  0  0  0  0  0  0  0  0  0  0  # atno 10167 bound_to 10162
  156.7851  130.9497  151.3120 H   0  0  0  0  0  0  0  0  0  0  0  0  # atno 10718 bound_to 10713
  153.9141  135.6789  153.4750 H   0  0  0  0  0  0  0  0  0  0  0  0  # atno 10763 bound_to 10752
  153.1063  135.4804  154.8954 H   0  0  0  0  0  0  0  0  0  0  0  0  # atno 10764 bound_to 10752
  154.7512  135.3185  154.8510 H   0  0  0  0  0  0  0  0  0  0  0  0  # atno 10765 bound_to 10752
  141.0606  133.9541  157.2674 H   0  0  0  0  0  0  0  0  0  0  0  0  # atno 11005 bound_to 11000
  145.9359  140.9015  143.0332 LP  0  0  0  0  0  0  0  0  0  0  0  0  # atno 17320 bound_to 7965
  144.6729  140.1482  143.7432 LP  0  0  0  0  0  0  0  0  0  0  0  0  # atno 17321 bound_to 7965
  140.0778  144.5726  150.7144 LP  0  0  0  0  0  0  0  0  0  0  0  0  # atno 17342 bound_to 10162
  140.7177  143.2560  151.4380 LP  0  0  0  0  0  0  0  0  0  0  0  0  # atno 17343 bound_to 10162
  157.6628  130.8981  149.9866 LP  0  0  0  0  0  0  0  0  0  0  0  0  # atno 17370 bound_to 10713
  156.1194  130.3646  149.9913 LP  0  0  0  0  0  0  0  0  0  0  0  0  # atno 17371 bound_to 10713
  139.9429  135.0188  156.8764 LP  0  0  0  0  0  0  0  0  0  0  0  0  # atno 17394 bound_to 11000
  140.5876  134.0292  155.7487 LP  0  0  0  0  0  0  0  0  0  0  0  0  # atno 17395 bound_to 11000

$$$$
