AV-unprocessed.smi:54|AV-procd|sdf|548|dock1
  -GOLD-   2262016443D 1   1.00000     0.00000
 Structure written by MMmdl.
 43 45  0  0  0  0  0  0  0  0  2 V2000
  152.0075  144.4066  157.8683 C   0  0  0  0  0  0  0  0  0  0  0  0
  151.6590  143.3725  158.9518 C   0  0  0  0  0  0  0  0  0  0  0  0
  152.8682  143.0830  159.8566 C   0  0  0  0  0  0  0  0  0  0  0  0
  151.1311  142.0780  158.3169 C   0  0  0  0  0  0  0  0  0  0  0  0
  150.0029  141.6789  158.6161 O   0  0  0  0  0  0  0  0  0  0  0  0
  151.9783  141.4678  157.4580 N   0  0  0  0  0  0  0  0  0  0  0  0
  151.7997  140.2855  156.7302 C   0  0  0  0  0  0  0  0  0  0  0  0
  150.6087  139.9506  156.2858 N   0  0  0  0  0  0  0  0  0  0  0  0
  150.6210  138.7532  155.5974 C   0  0  0  0  0  0  0  0  0  0  0  0
  151.6921  137.9400  155.3492 C   0  0  0  0  0  0  0  0  0  0  0  0
  151.3185  136.8145  154.6258 N   0  0  0  0  0  0  0  0  0  0  0  0
  150.0099  137.0076  154.4684 C   0  0  0  0  0  0  0  0  0  0  0  0
  149.5162  138.1338  155.0248 N   0  0  0  0  0  0  0  0  0  0  0  0
  148.1007  138.6314  155.0210 C   0  0  1  0  0  0  0  0  0  0  0  0
  148.0335  139.7274  155.8862 O   0  0  0  0  0  0  0  0  0  0  0  0
  147.6867  140.9218  155.1826 C   0  0  1  0  0  0  0  0  0  0  0  0
  148.4207  142.1423  155.7662 C   0  0  0  0  0  0  0  0  0  0  0  0
  148.0087  142.3651  157.0974 O   0  0  0  0  0  0  0  0  0  0  0  0
  147.9709  140.6195  153.7032 C   0  0  1  0  0  0  0  0  0  0  0  0
  149.3116  140.9192  153.3520 O   0  0  0  0  0  0  0  0  0  0  0  0
  147.6663  139.1307  153.6318 C   0  0  1  0  0  0  0  0  0  0  0  0
  148.2710  138.4851  152.5251 O   0  0  0  0  0  0  0  0  0  0  0  0
  153.0045  138.3848  155.8744 C   0  0  0  0  0  0  0  0  0  0  0  0
  153.9971  137.6875  155.6737 O   0  0  0  0  0  0  0  0  0  0  0  0
  152.9940  139.5687  156.5583 N   0  5  0  0  0  0  0  0  0  0  0  0
  147.5141  137.7900  155.3915 H   0  0  0  0  0  0  0  0  0  0  0  0
  146.6082  141.0560  155.2847 H   0  0  0  0  0  0  0  0  0  0  0  0
  147.3169  141.1935  153.0461 H   0  0  0  0  0  0  0  0  0  0  0  0
  146.5861  138.9959  153.5650 H   0  0  0  0  0  0  0  0  0  0  0  0
  151.1539  144.6016  157.2179 H   0  0  0  0  0  0  0  0  0  0  0  0
  152.8345  144.0697  157.2419 H   0  0  0  0  0  0  0  0  0  0  0  0
  152.2995  145.3566  158.3166 H   0  0  0  0  0  0  0  0  0  0  0  0
  150.8704  143.7968  159.5758 H   0  0  0  0  0  0  0  0  0  0  0  0
  152.6230  142.3458  160.6226 H   0  0  0  0  0  0  0  0  0  0  0  0
  153.1962  143.9881  160.3681 H   0  0  0  0  0  0  0  0  0  0  0  0
  153.7158  142.7015  159.2854 H   0  0  0  0  0  0  0  0  0  0  0  0
  152.8676  141.9294  157.3359 H   0  0  0  0  0  0  0  0  0  0  0  0
  149.3927  136.3026  153.9324 H   0  0  0  0  0  0  0  0  0  0  0  0
  149.5026  142.0163  155.7229 H   0  0  0  0  0  0  0  0  0  0  0  0
  148.1735  143.0381  155.1958 H   0  0  0  0  0  0  0  0  0  0  0  0
  148.1931  143.2643  157.3218 H   0  0  0  0  0  0  0  0  0  0  0  0
  149.6209  140.2479  152.7629 H   0  0  0  0  0  0  0  0  0  0  0  0
  148.8595  139.0957  152.1074 H   0  0  0  0  0  0  0  0  0  0  0  0
  1  2  1  0  0  0  0
  1 30  1  0  0  0  0
  1 31  1  0  0  0  0
  1 32  1  0  0  0  0
  2  3  1  0  0  0  0
  2  4  1  0  0  0  0
  2 33  1  0  0  0  0
  3 34  1  0  0  0  0
  3 35  1  0  0  0  0
  3 36  1  0  0  0  0
  4  5  2  0  0  0  0
  4  6  1  0  0  0  0
  6 37  1  0  0  0  0
  6  7  1  0  0  0  0
  7 25  1  0  0  0  0
  7  8  2  0  0  0  0
  8  9  1  0  0  0  0
  9 13  1  0  0  0  0
  9 10  2  0  0  0  0
 10 11  1  0  0  0  0
 10 23  1  0  0  0  0
 11 12  2  0  0  0  0
 12 13  1  0  0  0  0
 12 38  1  0  0  0  0
 13 14  1  0  0  0  0
 14 26  1  0  0  0  0
 14 21  1  0  0  0  0
 14 15  1  0  0  0  0
 15 16  1  0  0  0  0
 16 27  1  0  0  0  0
 16 17  1  0  0  0  0
 16 19  1  0  0  0  0
 17 18  1  0  0  0  0
 17 39  1  0  0  0  0
 17 40  1  0  0  0  0
 18 41  1  0  0  0  0
 19 28  1  0  0  0  0
 19 20  1  0  0  0  0
 19 21  1  0  0  0  0
 20 42  1  0  0  0  0
 21 29  1  0  0  0  0
 21 22  1  0  0  0  0
 22 43  1  0  0  0  0
 23 24  2  0  0  0  0
 23 25  1  0  0  0  0
M  CHG  1  25  -1
M  END
> <s_m_source_file>
AV-unprocessed.smi

> <i_m_source_file_index>
54

> <i_lp_mmshare_version>
43012

> <i_f3d_flags>
0

> <s_epik_input>
W0NIM11bQ0hdKFtDSDNdKUMoPU8pW05IXWMobjEpW25IXWMoPU8pYyhjMTIpbltjSF1uMltDQEBIXTNPW0NASF0oW0NIMl1bT0hdKVtDQEBIXShbT0hdKVtDQEhdM1tPSF0=

> <s_epik_cmdline>
J2VwaWtfcHl0aG9uJywgJy1waCcsICc3LjAnLCAnLXRuJywgJzgnLCAnLW1hJywgJzIwMCcsICctbWV0YWxfYmluZGluZycsICctaW1hZScsICc8aW5maWxlLm1hZT4nLCAnLW9tYWUnLCAnPG91dGZpbGUubWFlPic=

> <r_lp_tautomer_probability>
0.85571

> <r_epik_Ionization_Penalty>
1.75936

> <r_epik_Ionization_Penalty_Charging>
4.55893e-11

> <r_epik_Ionization_Penalty_Neutral>
1.75936

> <r_epik_State_Penalty>
1.72072

> <r_epik_Charging_Adjusted_Penalty>
1.72072

> <i_epik_Tot_Q>
-1

> <i_epik_Tot_abs_Q>
1

> <r_epik_Metal_State_Penalty>
0.400338

> <b_epik_Metal_Only>
1

> <s_epik_Chemistry_Notes>
This compound contains an acetal/aminal-like group ( X-CH(R)-Y where X, Y are N, S, or O) that may be acid/base labile, releasing an aldehyde.

> <s_lp_Force_Field>
OPLS_2005

> <r_lp_Energy>
61.5499

> <b_lp_Chiralities_Consistent>
1

> <s_lp_Variant>
AV-unprocessed.smi:54-20

> <Gold.Version>
5.8.1

> <Gold.Id.Protein>
6NUR|6NUR_protein|mol2

> <Gold.PLP.Fitness>
53.3028

> <Gold.PLP.PLP>
-33.4713

> <Gold.PLP.part.hbond>
-8.4005

> <Gold.PLP.part.metal>
0.0000

> <Gold.PLP.part.buried>
3.6878

> <Gold.PLP.part.nonpolar>
-28.7883

> <Gold.PLP.part.repulsive>
0.2896

> <Gold.PLP.ligand.clash>
0.0929

> <Gold.PLP.ligand.torsion>
0.4701

> <Gold.PLP.Chemscore.Hbond>
5.7897

> <Gold.PLP.Chemscore.CHOScore>
0.9440

> <Gold.PLP.Chemscore.Metal>
0.0000

> <Gold.Chemscore.Hbonds>
donor molecule, donor type, donor heavy atom, donor atom, acceptor molecule, acceptor atom, score
      L1  H    18    41       P1  8028  0.09
      L1  H    20    42       P1  7957  0.70
      L1  H    22    43       P1  7957  0.96
      P1  H  7997  8010       L1    25  1.95
      P1  H  8011  8017       L1    20  0.90
      P1  H 10752 10763       L1    11  1.00
      L1  C    12    38       P1  7948  0.96

> <Gold.PLP.Chemscore.Internal.Correction>
0.6636

> <Gold.Rescore>
     Score         DG    S(hbond)    S(metal)    S(lipo)     H(rot)  DE(clash)    DE(int)     intcor
      8.36     -14.69       3.47        0.00      67.47       4.02       2.05       4.28       ----

> <Gold.Chemscore.Fitness>
8.3565

> <Gold.Chemscore.DG>
-14.6894

> <Gold.Chemscore.ZeroCoef>
-5.4800

> <Gold.Chemscore.Hbond>
3.4745

> <Gold.Chemscore.Metal>
0.0000

> <Gold.Chemscore.Lipo>
67.4687

> <Gold.Chemscore.Internal_Hbond>
0.0000

> <Gold.Chemscore.DEClash>
2.0537

> <Gold.Chemscore.DEInternal>
4.2792

> <Gold.Chemscore.Rot>
4.0192

> <Gold.Chemscore.Internal.Correction>
   9.000000E+99

> <Gold.Chemscore.Hbonds>
donor molecule, donor type, donor heavy atom, donor atom, acceptor molecule, acceptor atom, score
      L1  H    18    41       P1  8028  0.01
      L1  H    20    42       P1  7957  0.69
      L1  H    22    43       P1  7957  0.89
      P1  H  7997  8010       L1    25  0.62
      P1  H  8011  8017       L1    20  0.18
      P1  H 10752 10763       L1    11  0.67
      P1  H 10752 10764       L1    24  0.01

> <Gold.Chemscore.Hbond.Weighted>
-11.6048

> <Gold.Chemscore.Metal.Weighted>
-0.0000

> <Gold.Chemscore.Lipo.Weighted>
-7.8938

> <Gold.Chemscore.Internal_Hbond.Weighted>
0.0000

> <Gold.Chemscore.DEClash.Weighted>
2.0537

> <Gold.Chemscore.DEInternal.Weighted>
4.2792

> <Gold.Chemscore.Rot.Weighted>
10.2893

> <Gold.Chemscore.Internal.Correction.Weighted>
   9.000000E+99

> <Gold.Protein.RotatedTorsions>
[ 6907 6896 6895 6894 ] final  -35.56 input  -60.11 | X-H torsion
[ 7974 7965 7964 7962 ] final   19.11 input  175.53 | X-H torsion
[ 8008 7997 7996 7995 ] final   52.04 input   59.86 | X-H torsion
[ 10167 10162 10161 10158 ] final  135.81 input  -65.29 | X-H torsion
[ 10718 10713 10712 10709 ] final -119.70 input   66.30 | X-H torsion
[ 10763 10752 10751 10750 ] final   46.16 input  -60.55 | X-H torsion
[ 11005 11000 10999 10996 ] final   74.71 input  -57.11 | X-H torsion

> <Gold.Protein.ActiveResidues>
 VAL166  LYS551  ARG553  GLY616  TRP617  ASP618  TYR619  PRO620  LYS621  CYS622 
 ASP623  PHE694  ASN695  SER759  ASP760  ASP761  ALA762  ILE779  LEU786  VAL792 
 PHE793  MET794  SER795  GLU796  ALA797  LYS798  CYS799  TRP800  GLU811  SER814 

> <Gold.Protein.RotatedAtoms>
  151.0383  134.9589  159.8147 H   0  0  0  0  0  0  0  0  0  0  0  0  # atno 6907 bound_to 6896
  152.5359  134.2691  159.8974 H   0  0  0  0  0  0  0  0  0  0  0  0  # atno 6908 bound_to 6896
  151.2702  133.4216  159.2655 H   0  0  0  0  0  0  0  0  0  0  0  0  # atno 6909 bound_to 6896
  146.2161  139.8360  142.8650 H   0  0  0  0  0  0  0  0  0  0  0  0  # atno 7974 bound_to 7965
  155.4453  140.3456  155.4294 H   0  0  0  0  0  0  0  0  0  0  0  0  # atno 8008 bound_to 7997
  156.1254  140.1499  156.9174 H   0  0  0  0  0  0  0  0  0  0  0  0  # atno 8009 bound_to 7997
  154.4854  140.0857  156.7453 H   0  0  0  0  0  0  0  0  0  0  0  0  # atno 8010 bound_to 7997
  139.5203  144.6497  151.5336 H   0  0  0  0  0  0  0  0  0  0  0  0  # atno 10167 bound_to 10162
  156.1201  130.6317  150.9449 H   0  0  0  0  0  0  0  0  0  0  0  0  # atno 10718 bound_to 10713
  152.9814  135.6017  154.3554 H   0  0  0  0  0  0  0  0  0  0  0  0  # atno 10763 bound_to 10752
  154.3240  135.2769  155.2507 H   0  0  0  0  0  0  0  0  0  0  0  0  # atno 10764 bound_to 10752
  154.4661  135.5953  153.6345 H   0  0  0  0  0  0  0  0  0  0  0  0  # atno 10765 bound_to 10752
  139.9378  134.7456  156.1182 H   0  0  0  0  0  0  0  0  0  0  0  0  # atno 11005 bound_to 11000
  145.2948  141.0177  143.3642 LP  0  0  0  0  0  0  0  0  0  0  0  0  # atno 17320 bound_to 7965
  144.9050  139.4600  143.6614 LP  0  0  0  0  0  0  0  0  0  0  0  0  # atno 17321 bound_to 7965
  140.6297  143.9099  150.6595 LP  0  0  0  0  0  0  0  0  0  0  0  0  # atno 17342 bound_to 10162
  140.2399  143.3671  152.1495 LP  0  0  0  0  0  0  0  0  0  0  0  0  # atno 17343 bound_to 10162
  157.6385  131.0913  150.8300 LP  0  0  0  0  0  0  0  0  0  0  0  0  # atno 17370 bound_to 10713
  156.8398  130.5044  149.5322 LP  0  0  0  0  0  0  0  0  0  0  0  0  # atno 17371 bound_to 10713
  141.0999  133.6681  156.2730 LP  0  0  0  0  0  0  0  0  0  0  0  0  # atno 17394 bound_to 11000
  140.6031  134.5535  157.5521 LP  0  0  0  0  0  0  0  0  0  0  0  0  # atno 17395 bound_to 11000

$$$$
