AV-unprocessed.smi:101|AV-procd|sdf|929|dock5
  -GOLD-   2262017443D 1   1.00000     0.00000
 Structure written by MMmdl.
 43 45  0  0  0  0  0  0  0  0  2 V2000
  148.5585  136.5544  158.3045 C   0  0  0  0  0  0  0  0  0  0  0  0
  149.4867  136.8545  157.1402 C   0  0  0  0  0  0  0  0  0  0  0  0
  149.2972  137.9109  156.3190 C   0  0  0  0  0  0  0  0  0  0  0  0
  150.1438  138.1887  155.2550 N   0  0  0  0  0  0  0  0  0  0  0  0
  149.9794  139.4351  154.3903 C   0  0  2  0  0  0  0  0  0  0  0  0
  150.7893  140.4334  154.9254 O   0  0  0  0  0  0  0  0  0  0  0  0
  150.0223  141.1890  155.8521 C   0  0  1  0  0  0  0  0  0  0  0  0
  150.7274  142.5101  156.1920 C   0  0  0  0  0  0  0  0  0  0  0  0
  151.4233  142.3511  157.4170 O   0  0  0  0  0  0  0  0  0  0  0  0
  151.5649  143.3933  158.2566 C   0  0  0  0  0  0  0  0  0  0  0  0
  151.2252  144.5452  157.9783 O   0  0  0  0  0  0  0  0  0  0  0  0
  152.1734  143.0058  159.5621 C   0  0  0  0  0  0  0  0  0  0  0  0
  151.9587  143.8219  160.6972 C   0  0  0  0  0  0  0  0  0  0  0  0
  152.5198  143.4798  161.9432 C   0  0  0  0  0  0  0  0  0  0  0  0
  153.3025  142.3174  162.0693 C   0  0  0  0  0  0  0  0  0  0  0  0
  153.5242  141.4975  160.9475 C   0  0  0  0  0  0  0  0  0  0  0  0
  152.9646  141.8382  159.7006 C   0  0  0  0  0  0  0  0  0  0  0  0
  148.6548  141.3025  155.1544 C   0  0  1  0  0  0  0  0  0  0  0  0
  148.5920  142.4684  154.3470 O   0  0  0  0  0  0  0  0  0  0  0  0
  148.5434  140.0014  154.3398 C   0  0  1  0  0  0  0  0  0  0  0  0
  148.0986  140.2143  153.0128 O   0  0  0  0  0  0  0  0  0  0  0  0
  151.3118  137.3941  155.0855 C   0  0  0  0  0  0  0  0  0  0  0  0
  152.1137  137.7123  154.2072 O   0  0  0  0  0  0  0  0  0  0  0  0
  151.5013  136.3145  155.8963 N   0  5  0  0  0  0  0  0  0  0  0  0
  150.6440  135.9865  156.9034 C   0  0  0  0  0  0  0  0  0  0  0  0
  150.8172  134.9979  157.6156 O   0  0  0  0  0  0  0  0  0  0  0  0
  147.7522  137.2853  158.3689 H   0  0  0  0  0  0  0  0  0  0  0  0
  149.1094  136.5744  159.2454 H   0  0  0  0  0  0  0  0  0  0  0  0
  148.1105  135.5671  158.1887 H   0  0  0  0  0  0  0  0  0  0  0  0
  148.4626  138.5604  156.5291 H   0  0  0  0  0  0  0  0  0  0  0  0
  150.3235  139.1527  153.3944 H   0  0  0  0  0  0  0  0  0  0  0  0
  149.9007  140.6111  156.7688 H   0  0  0  0  0  0  0  0  0  0  0  0
  151.4118  142.8000  155.3933 H   0  0  0  0  0  0  0  0  0  0  0  0
  149.9913  143.3071  156.3068 H   0  0  0  0  0  0  0  0  0  0  0  0
  151.3612  144.7192  160.6249 H   0  0  0  0  0  0  0  0  0  0  0  0
  152.3488  144.1108  162.8028 H   0  0  0  0  0  0  0  0  0  0  0  0
  153.7323  142.0549  163.0249 H   0  0  0  0  0  0  0  0  0  0  0  0
  154.1252  140.6049  161.0422 H   0  0  0  0  0  0  0  0  0  0  0  0
  153.1561  141.1872  158.8598 H   0  0  0  0  0  0  0  0  0  0  0  0
  147.8530  141.3709  155.8902 H   0  0  0  0  0  0  0  0  0  0  0  0
  148.6503  143.2265  154.9078 H   0  0  0  0  0  0  0  0  0  0  0  0
  147.8306  139.3073  154.7802 H   0  0  0  0  0  0  0  0  0  0  0  0
  148.7497  139.8630  152.4245 H   0  0  0  0  0  0  0  0  0  0  0  0
  1  2  1  0  0  0  0
  1 27  1  0  0  0  0
  1 28  1  0  0  0  0
  1 29  1  0  0  0  0
  2 25  1  0  0  0  0
  2  3  2  0  0  0  0
  3  4  1  0  0  0  0
  3 30  1  0  0  0  0
  4  5  1  0  0  0  0
  4 22  1  0  0  0  0
  5 20  1  0  0  0  0
  5  6  1  0  0  0  0
  5 31  1  0  0  0  0
  6  7  1  0  0  0  0
  7  8  1  0  0  0  0
  7 18  1  0  0  0  0
  7 32  1  0  0  0  0
  8  9  1  0  0  0  0
  8 33  1  0  0  0  0
  8 34  1  0  0  0  0
  9 10  1  0  0  0  0
 10 11  2  0  0  0  0
 10 12  1  0  0  0  0
 12 17  1  0  0  0  0
 12 13  2  0  0  0  0
 13 14  1  0  0  0  0
 13 35  1  0  0  0  0
 14 15  2  0  0  0  0
 14 36  1  0  0  0  0
 15 16  1  0  0  0  0
 15 37  1  0  0  0  0
 16 17  2  0  0  0  0
 16 38  1  0  0  0  0
 17 39  1  0  0  0  0
 18 19  1  0  0  0  0
 18 20  1  0  0  0  0
 18 40  1  0  0  0  0
 19 41  1  0  0  0  0
 20 21  1  0  0  0  0
 20 42  1  0  0  0  0
 21 43  1  0  0  0  0
 22 23  2  0  0  0  0
 22 24  1  0  0  0  0
 24 25  1  0  0  0  0
 25 26  2  0  0  0  0
M  CHG  1  24  -1
M  END
> <s_m_source_file>
AV-unprocessed.smi

> <i_m_source_file_index>
101

> <i_lp_mmshare_version>
43012

> <i_f3d_flags>
0

> <s_epik_input>
Tz1jMVtuSF1jKD1PKW4oW2NIXWMxW0NIM10pW0NAQEhdMk9bQ0BIXShbQ0BASF0oW09IXSlbQ0BIXTJbT0hdKVtDSDJdT0MoPU8pYzNbY0hdW2NIXVtjSF1bY0hdW2NIXTM=

> <s_epik_cmdline>
J2VwaWtfcHl0aG9uJywgJy1waCcsICc3LjAnLCAnLXRuJywgJzgnLCAnLW1hJywgJzIwMCcsICctbWV0YWxfYmluZGluZycsICctaW1hZScsICc8aW5maWxlLm1hZT4nLCAnLW9tYWUnLCAnPG91dGZpbGUubWFlPic=

> <r_lp_tautomer_probability>
0.999537

> <r_epik_Ionization_Penalty>
3.21006

> <r_epik_Ionization_Penalty_Charging>
5.75142e-08

> <r_epik_Ionization_Penalty_Neutral>
3.21006

> <r_epik_State_Penalty>
3.20925

> <r_epik_Charging_Adjusted_Penalty>
3.20925

> <i_epik_Tot_Q>
-1

> <i_epik_Tot_abs_Q>
1

> <r_epik_Metal_State_Penalty>
0.119957

> <b_epik_Metal_Only>
1

> <s_epik_Chemistry_Notes>
This compound has an ester and may undergo hydrolysis at high or low pH. This compound contains an acetal/aminal-like group ( X-CH(R)-Y where X, Y are N, S, or O) that may be acid/base labile, releasing an aldehyde.

> <s_lp_Force_Field>
OPLS_2005

> <r_lp_Energy>
45.1107

> <b_lp_Chiralities_Consistent>
1

> <s_lp_Variant>
AV-unprocessed.smi:101-17

> <Gold.Version>
5.8.1

> <Gold.Id.Protein>
6NUR|6NUR_protein|mol2

> <Gold.PLP.Fitness>
63.4498

> <Gold.PLP.PLP>
-50.3882

> <Gold.PLP.part.hbond>
-6.3933

> <Gold.PLP.part.metal>
0.0000

> <Gold.PLP.part.buried>
-6.3494

> <Gold.PLP.part.nonpolar>
-38.3937

> <Gold.PLP.part.repulsive>
0.4959

> <Gold.PLP.ligand.clash>
0.0000

> <Gold.PLP.ligand.torsion>
1.5732

> <Gold.PLP.Chemscore.Hbond>
5.3508

> <Gold.PLP.Chemscore.CHOScore>
0.0000

> <Gold.PLP.Chemscore.Metal>
0.0000

> <Gold.Chemscore.Hbonds>
donor molecule, donor type, donor heavy atom, donor atom, acceptor molecule, acceptor atom, score
      L1  H    19    41       P1  8028  1.00
      L1  H    21    43       P1  7957  0.96
      P1  H  6896  6908       L1    26  0.35
      P1  H  7989  7998       L1     6  0.95
      P1  H  8011  8017       L1    19  0.04
      P1  H 10752 10764       L1    24  1.90

> <Gold.PLP.Chemscore.Internal.Correction>
0.1557

> <Gold.Rescore>
     Score         DG    S(hbond)    S(metal)    S(lipo)     H(rot)  DE(clash)    DE(int)     intcor
     16.74     -19.88       3.31        0.00      99.97       3.27       1.48       1.65       ----

> <Gold.Chemscore.Fitness>
16.7449

> <Gold.Chemscore.DG>
-19.8776

> <Gold.Chemscore.ZeroCoef>
-5.4800

> <Gold.Chemscore.Hbond>
3.3116

> <Gold.Chemscore.Metal>
0.0000

> <Gold.Chemscore.Lipo>
99.9715

> <Gold.Chemscore.Internal_Hbond>
0.0000

> <Gold.Chemscore.DEClash>
1.4815

> <Gold.Chemscore.DEInternal>
1.6512

> <Gold.Chemscore.Rot>
3.2656

> <Gold.Chemscore.Internal.Correction>
   9.000000E+99

> <Gold.Chemscore.Hbonds>
donor molecule, donor type, donor heavy atom, donor atom, acceptor molecule, acceptor atom, score
      L1  H    19    41       P1  8028  1.00
      L1  H    21    43       P1  7957  0.86
      P1  H  6896  6908       L1    26  0.36
      P1  H  7989  7998       L1     6  0.21
      P1  H  8011  8017       L1    19  0.04
      P1  H 10752 10764       L1    24  0.21

> <Gold.Chemscore.Hbond.Weighted>
-11.0607

> <Gold.Chemscore.Metal.Weighted>
-0.0000

> <Gold.Chemscore.Lipo.Weighted>
-11.6967

> <Gold.Chemscore.Internal_Hbond.Weighted>
0.0000

> <Gold.Chemscore.DEClash.Weighted>
1.4815

> <Gold.Chemscore.DEInternal.Weighted>
1.6512

> <Gold.Chemscore.Rot.Weighted>
8.3598

> <Gold.Chemscore.Internal.Correction.Weighted>
   9.000000E+99

> <Gold.Protein.RotatedTorsions>
[ 6907 6896 6895 6894 ] final  157.33 input  -60.11 | X-H torsion
[ 7974 7965 7964 7962 ] final  -23.74 input  175.53 | X-H torsion
[ 8008 7997 7996 7995 ] final  -93.02 input   59.86 | X-H torsion
[ 10167 10162 10161 10158 ] final  -91.57 input  -65.29 | X-H torsion
[ 10718 10713 10712 10709 ] final  -39.43 input   66.30 | X-H torsion
[ 10763 10752 10751 10750 ] final  -34.32 input  -60.55 | X-H torsion
[ 11005 11000 10999 10996 ] final  104.69 input  -57.11 | X-H torsion

> <Gold.Protein.ActiveResidues>
 VAL166  LYS551  ARG553  GLY616  TRP617  ASP618  TYR619  PRO620  LYS621  CYS622 
 ASP623  PHE694  ASN695  SER759  ASP760  ASP761  ALA762  ILE779  LEU786  VAL792 
 PHE793  MET794  SER795  GLU796  ALA797  LYS798  CYS799  TRP800  GLU811  SER814 

> <Gold.Protein.RotatedAtoms>
  152.0166  133.3882  159.4241 H   0  0  0  0  0  0  0  0  0  0  0  0  # atno 6907 bound_to 6896
  150.6894  134.3672  159.4985 H   0  0  0  0  0  0  0  0  0  0  0  0  # atno 6908 bound_to 6896
  152.1440  134.9040  160.0603 H   0  0  0  0  0  0  0  0  0  0  0  0  # atno 6909 bound_to 6896
  146.1598  140.4657  142.8576 H   0  0  0  0  0  0  0  0  0  0  0  0  # atno 7974 bound_to 7965
  154.7304  140.0503  157.0721 H   0  0  0  0  0  0  0  0  0  0  0  0  # atno 8008 bound_to 7997
  155.0309  140.3158  155.4739 H   0  0  0  0  0  0  0  0  0  0  0  0  # atno 8009 bound_to 7997
  156.2840  140.2150  156.5430 H   0  0  0  0  0  0  0  0  0  0  0  0  # atno 8010 bound_to 7997
  140.3435  143.2929  151.9808 H   0  0  0  0  0  0  0  0  0  0  0  0  # atno 10167 bound_to 10162
  156.2925  130.4230  149.8224 H   0  0  0  0  0  0  0  0  0  0  0  0  # atno 10718 bound_to 10713
  153.8448  135.6854  153.4799 H   0  0  0  0  0  0  0  0  0  0  0  0  # atno 10763 bound_to 10752
  153.1432  135.4648  154.9525 H   0  0  0  0  0  0  0  0  0  0  0  0  # atno 10764 bound_to 10752
  154.7829  135.3275  154.7897 H   0  0  0  0  0  0  0  0  0  0  0  0  # atno 10765 bound_to 10752
  139.8794  134.9309  156.5400 H   0  0  0  0  0  0  0  0  0  0  0  0  # atno 11005 bound_to 11000
  144.8011  140.6214  143.6477 LP  0  0  0  0  0  0  0  0  0  0  0  0  # atno 17320 bound_to 7965
  145.4618  139.1512  143.3862 LP  0  0  0  0  0  0  0  0  0  0  0  0  # atno 17321 bound_to 7965
  139.4837  144.6136  151.7387 LP  0  0  0  0  0  0  0  0  0  0  0  0  # atno 17342 bound_to 10162
  140.5286  144.0766  150.6046 LP  0  0  0  0  0  0  0  0  0  0  0  0  # atno 17343 bound_to 10162
  156.5631  130.8392  151.3334 LP  0  0  0  0  0  0  0  0  0  0  0  0  # atno 17370 bound_to 10713
  157.7346  130.9749  150.2039 LP  0  0  0  0  0  0  0  0  0  0  0  0  # atno 17371 bound_to 10713
  140.8318  133.8273  155.8991 LP  0  0  0  0  0  0  0  0  0  0  0  0  # atno 17394 bound_to 11000
  140.9322  134.2008  157.4856 LP  0  0  0  0  0  0  0  0  0  0  0  0  # atno 17395 bound_to 11000

$$$$
