AV-unprocessed.smi:2730|AV-procd|sdf|10528|dock3
  -GOLD-   2272014573D 1   1.00000     0.00000
 Structure written by MMmdl.
 43 44  0  0  0  0  0  0  0  0  1 V2000
  154.6413  133.8812  164.8333 C   0  0  0  0  0  0  0  0  0  0  0  0
  154.3834  133.4605  163.3789 C   0  0  0  0  0  0  0  0  0  0  0  0
  155.3164  134.1444  162.3589 C   0  0  2  0  0  0  0  0  0  0  0  0
  156.8011  133.8318  162.6220 C   0  0  0  0  0  0  0  0  0  0  0  0
  157.7179  134.4596  161.6576 C   0  0  0  0  0  0  0  0  0  0  0  0
  158.4392  134.9534  160.8997 N   0  0  0  0  0  0  0  0  0  0  0  0
  155.1039  135.5899  162.3753 N   0  0  0  0  0  0  0  0  0  0  0  0
  154.5137  136.2964  161.4006 C   0  0  0  0  0  0  0  0  0  0  0  0
  154.0883  135.7933  160.3604 O   0  0  0  0  0  0  0  0  0  0  0  0
  154.4550  137.6021  161.7149 N   0  0  0  0  0  0  0  0  0  0  0  0
  153.9109  138.6653  160.9488 C   0  0  0  0  0  0  0  0  0  0  0  0
  153.2162  138.4990  159.7818 N   0  0  0  0  0  0  0  0  0  0  0  0
  152.9547  139.7705  159.5090 C   0  0  0  0  0  0  0  0  0  0  0  0
  153.4371  140.6309  160.4104 N   0  0  0  0  0  0  0  0  0  0  0  0
  153.3565  142.0828  160.4580 C   0  0  0  0  0  0  0  0  0  0  0  0
  152.6022  142.5680  161.7135 C   0  0  0  0  0  0  0  0  0  0  0  0
  152.5302  144.1030  161.7624 C   0  0  0  0  0  0  0  0  0  0  0  0
  151.8967  144.6724  160.4826 C   0  0  0  0  0  0  0  0  0  0  0  0
  152.6454  144.1920  159.2290 C   0  0  0  0  0  0  0  0  0  0  0  0
  152.7166  142.6569  159.1766 C   0  0  0  0  0  0  0  0  0  0  0  0
  154.0738  139.9169  161.3721 N   0  0  0  0  0  0  0  0  0  0  0  0
  153.9252  133.4070  165.5047 H   0  0  0  0  0  0  0  0  0  0  0  0
  154.5432  134.9603  164.9528 H   0  0  0  0  0  0  0  0  0  0  0  0
  155.6398  133.5959  165.1647 H   0  0  0  0  0  0  0  0  0  0  0  0
  154.4777  132.3773  163.2941 H   0  0  0  0  0  0  0  0  0  0  0  0
  153.3464  133.6928  163.1360 H   0  0  0  0  0  0  0  0  0  0  0  0
  155.0590  133.7659  161.3676 H   0  0  0  0  0  0  0  0  0  0  0  0
  157.0952  134.1731  163.6150 H   0  0  0  0  0  0  0  0  0  0  0  0
  156.9749  132.7558  162.5895 H   0  0  0  0  0  0  0  0  0  0  0  0
  155.4229  136.0854  163.1949 H   0  0  0  0  0  0  0  0  0  0  0  0
  154.8444  137.8683  162.6071 H   0  0  0  0  0  0  0  0  0  0  0  0
  152.4011  140.0803  158.6349 H   0  0  0  0  0  0  0  0  0  0  0  0
  154.3807  142.4552  160.5172 H   0  0  0  0  0  0  0  0  0  0  0  0
  151.5896  142.1622  161.7236 H   0  0  0  0  0  0  0  0  0  0  0  0
  153.0937  142.1946  162.6127 H   0  0  0  0  0  0  0  0  0  0  0  0
  151.9565  144.4201  162.6337 H   0  0  0  0  0  0  0  0  0  0  0  0
  153.5335  144.5123  161.8867 H   0  0  0  0  0  0  0  0  0  0  0  0
  150.8519  144.3645  160.4240 H   0  0  0  0  0  0  0  0  0  0  0  0
  151.8963  145.7621  160.5208 H   0  0  0  0  0  0  0  0  0  0  0  0
  152.1526  144.5720  158.3337 H   0  0  0  0  0  0  0  0  0  0  0  0
  153.6550  144.6051  159.2252 H   0  0  0  0  0  0  0  0  0  0  0  0
  153.2882  142.3455  158.3015 H   0  0  0  0  0  0  0  0  0  0  0  0
  151.7102  142.2560  159.0471 H   0  0  0  0  0  0  0  0  0  0  0  0
  1  2  1  0  0  0  0
  1 22  1  0  0  0  0
  1 23  1  0  0  0  0
  1 24  1  0  0  0  0
  2  3  1  0  0  0  0
  2 25  1  0  0  0  0
  2 26  1  0  0  0  0
  3  4  1  0  0  0  0
  3  7  1  0  0  0  0
  3 27  1  0  0  0  0
  4  5  1  0  0  0  0
  4 28  1  0  0  0  0
  4 29  1  0  0  0  0
  5  6  3  0  0  0  0
  7  8  1  0  0  0  0
  7 30  1  0  0  0  0
  8  9  2  0  0  0  0
  8 10  1  0  0  0  0
 10 11  1  0  0  0  0
 10 31  1  0  0  0  0
 11 21  2  0  0  0  0
 11 12  1  0  0  0  0
 12 13  2  0  0  0  0
 13 14  1  0  0  0  0
 13 32  1  0  0  0  0
 14 15  1  0  0  0  0
 14 21  1  0  0  0  0
 15 20  1  0  0  0  0
 15 16  1  0  0  0  0
 15 33  1  0  0  0  0
 16 17  1  0  0  0  0
 16 34  1  0  0  0  0
 16 35  1  0  0  0  0
 17 18  1  0  0  0  0
 17 36  1  0  0  0  0
 17 37  1  0  0  0  0
 18 19  1  0  0  0  0
 18 38  1  0  0  0  0
 18 39  1  0  0  0  0
 19 20  1  0  0  0  0
 19 40  1  0  0  0  0
 19 41  1  0  0  0  0
 20 42  1  0  0  0  0
 20 43  1  0  0  0  0
M  END
> <s_m_source_file>
AV-unprocessed.smi

> <i_m_source_file_index>
2730

> <i_lp_mmshare_version>
43012

> <i_f3d_flags>
0

> <s_epik_input>
TiNDW0NIMl1bQ0BASF0oW0NIMl1bQ0gzXSlbTkhdQyg9TylbTkhdYzFuW2NIXW4objEpW0NIXTJbQ0gyXVtDSDJdW0NIMl1bQ0gyXVtDSDJdMg==

> <s_epik_cmdline>
J2VwaWtfcHl0aG9uJywgJy1waCcsICc3LjAnLCAnLXRuJywgJzgnLCAnLW1hJywgJzIwMCcsICctbWV0YWxfYmluZGluZycsICctaW1hZScsICc8aW5maWxlLm1hZT4nLCAnLW9tYWUnLCAnPG91dGZpbGUubWFlPic=

> <r_lp_tautomer_probability>
1

> <r_epik_Ionization_Penalty>
7.18854e-05

> <r_epik_Ionization_Penalty_Charging>
0

> <r_epik_Ionization_Penalty_Neutral>
7.18854e-05

> <r_epik_State_Penalty>
-0

> <r_epik_Charging_Adjusted_Penalty>
0

> <i_epik_Tot_Q>
0

> <i_epik_Tot_abs_Q>
0

> <r_epik_Metal_State_Penalty>
-0

> <b_epik_Metal_Only>
0

> <s_lp_Force_Field>
OPLS_2005

> <r_lp_Energy>
15.2848

> <b_lp_Chiralities_Consistent>
1

> <s_lp_Variant>
AV-unprocessed.smi:2730-1

> <Gold.Version>
5.8.1

> <Gold.Id.Protein>
6NUR|6NUR_protein|mol2

> <Gold.PLP.Fitness>
42.1939

> <Gold.PLP.PLP>
-39.4040

> <Gold.PLP.part.hbond>
-1.0000

> <Gold.PLP.part.metal>
0.0000

> <Gold.PLP.part.buried>
-5.4074

> <Gold.PLP.part.nonpolar>
-32.4689

> <Gold.PLP.part.repulsive>
0.0335

> <Gold.PLP.ligand.clash>
0.0000

> <Gold.PLP.ligand.torsion>
0.1346

> <Gold.PLP.Chemscore.Hbond>
1.0000

> <Gold.PLP.Chemscore.CHOScore>
0.0000

> <Gold.PLP.Chemscore.Metal>
0.0000

> <Gold.Chemscore.Hbonds>
donor molecule, donor type, donor heavy atom, donor atom, acceptor molecule, acceptor atom, score
      P1  H  6896  6908       L1     9  1.00

> <Gold.PLP.Chemscore.Internal.Correction>
0.0591

> <Gold.Rescore>
     Score         DG    S(hbond)    S(metal)    S(lipo)     H(rot)  DE(clash)    DE(int)     intcor
     13.85     -15.26       1.00        0.00      95.01       1.82       0.05       1.37       ----

> <Gold.Chemscore.Fitness>
13.8513

> <Gold.Chemscore.DG>
-15.2634

> <Gold.Chemscore.ZeroCoef>
-5.4800

> <Gold.Chemscore.Hbond>
0.9998

> <Gold.Chemscore.Metal>
0.0000

> <Gold.Chemscore.Lipo>
95.0078

> <Gold.Chemscore.Internal_Hbond>
0.0000

> <Gold.Chemscore.DEClash>
0.0462

> <Gold.Chemscore.DEInternal>
1.3659

> <Gold.Chemscore.Rot>
1.8249

> <Gold.Chemscore.Internal.Correction>
   9.000000E+99

> <Gold.Chemscore.Hbonds>
donor molecule, donor type, donor heavy atom, donor atom, acceptor molecule, acceptor atom, score
      P1  H  6896  6908       L1     9  0.94

> <Gold.Chemscore.Hbond.Weighted>
-3.3393

> <Gold.Chemscore.Metal.Weighted>
-0.0000

> <Gold.Chemscore.Lipo.Weighted>
-11.1159

> <Gold.Chemscore.Internal_Hbond.Weighted>
0.0000

> <Gold.Chemscore.DEClash.Weighted>
0.0462

> <Gold.Chemscore.DEInternal.Weighted>
1.3659

> <Gold.Chemscore.Rot.Weighted>
4.6718

> <Gold.Chemscore.Internal.Correction.Weighted>
   9.000000E+99

> <Gold.Protein.RotatedTorsions>
[ 6907 6896 6895 6894 ] final  -70.51 input  -60.11 | X-H torsion
[ 7974 7965 7964 7962 ] final -137.68 input  175.53 | X-H torsion
[ 8008 7997 7996 7995 ] final  -65.66 input   59.86 | X-H torsion
[ 10167 10162 10161 10158 ] final  156.29 input  -65.29 | X-H torsion
[ 10718 10713 10712 10709 ] final  -91.44 input   66.30 | X-H torsion
[ 10763 10752 10751 10750 ] final   60.86 input  -60.55 | X-H torsion
[ 11005 11000 10999 10996 ] final  -52.03 input  -57.11 | X-H torsion

> <Gold.Protein.ActiveResidues>
 VAL166  LYS551  ARG553  GLY616  TRP617  ASP618  TYR619  PRO620  LYS621  CYS622 
 ASP623  PHE694  ASN695  SER759  ASP760  ASP761  ALA762  ILE779  LEU786  VAL792 
 PHE793  MET794  SER795  GLU796  ALA797  LYS798  CYS799  TRP800  GLU811  SER814 

> <Gold.Protein.RotatedAtoms>
  150.7254  134.5443  159.5762 H   0  0  0  0  0  0  0  0  0  0  0  0  # atno 6907 bound_to 6896
  152.2946  134.7679  160.0380 H   0  0  0  0  0  0  0  0  0  0  0  0  # atno 6908 bound_to 6896
  151.8281  133.3369  159.3641 H   0  0  0  0  0  0  0  0  0  0  0  0  # atno 6909 bound_to 6896
  144.8822  140.6523  143.5199 H   0  0  0  0  0  0  0  0  0  0  0  0  # atno 7974 bound_to 7965
  154.4685  140.0928  156.7084 H   0  0  0  0  0  0  0  0  0  0  0  0  # atno 8008 bound_to 7997
  155.4789  140.3467  155.4318 H   0  0  0  0  0  0  0  0  0  0  0  0  # atno 8009 bound_to 7997
  156.0999  140.1419  156.9470 H   0  0  0  0  0  0  0  0  0  0  0  0  # atno 8010 bound_to 7997
  139.4821  144.5022  151.8151 H   0  0  0  0  0  0  0  0  0  0  0  0  # atno 10167 bound_to 10162
  155.9994  130.4948  150.5475 H   0  0  0  0  0  0  0  0  0  0  0  0  # atno 10718 bound_to 10713
  152.9933  135.5521  154.5941 H   0  0  0  0  0  0  0  0  0  0  0  0  # atno 10763 bound_to 10752
  154.5296  135.2812  155.1194 H   0  0  0  0  0  0  0  0  0  0  0  0  # atno 10764 bound_to 10752
  154.2514  135.6398  153.5294 H   0  0  0  0  0  0  0  0  0  0  0  0  # atno 10765 bound_to 10752
  141.0903  133.6634  156.3964 H   0  0  0  0  0  0  0  0  0  0  0  0  # atno 11005 bound_to 11000
  145.3934  139.1612  143.4216 LP  0  0  0  0  0  0  0  0  0  0  0  0  # atno 17320 bound_to 7965
  146.3001  140.4025  142.8707 LP  0  0  0  0  0  0  0  0  0  0  0  0  # atno 17321 bound_to 7965
  140.4516  144.1846  150.5898 LP  0  0  0  0  0  0  0  0  0  0  0  0  # atno 17342 bound_to 10162
  140.4578  143.2461  151.9260 LP  0  0  0  0  0  0  0  0  0  0  0  0  # atno 17343 bound_to 10162
  157.3403  131.0715  151.1793 LP  0  0  0  0  0  0  0  0  0  0  0  0  # atno 17370 bound_to 10713
  157.2644  130.6674  149.5990 LP  0  0  0  0  0  0  0  0  0  0  0  0  # atno 17371 bound_to 10713
  140.5268  134.6251  157.5337 LP  0  0  0  0  0  0  0  0  0  0  0  0  # atno 17394 bound_to 11000
  139.9727  134.7266  156.0009 LP  0  0  0  0  0  0  0  0  0  0  0  0  # atno 17395 bound_to 11000

$$$$
