AV-unprocessed.smi:1464|AV-procd|sdf|5941|dock3
  -GOLD-   22720 6 23D 1   1.00000     0.00000
 Structure written by MMmdl.
 40 41  0  0  0  0  0  0  0  0  2 V2000
  151.8666  145.7467  160.3633 C   0  0  0  0  0  0  0  0  0  0  0  0
  151.6612  144.2393  160.1382 C   0  0  2  0  0  0  0  0  0  0  0  0
  152.8363  143.4118  160.6976 C   0  0  0  0  0  0  0  0  0  0  0  0
  152.5789  141.9031  160.5599 C   0  0  0  0  0  0  0  0  0  0  0  0
  152.2562  141.5153  159.1090 C   0  0  0  0  0  0  0  0  0  0  0  0
  151.0783  142.3419  158.5581 C   0  0  2  0  0  0  0  0  0  0  0  0
  150.7753  141.9213  157.1918 N   0  0  0  0  0  0  0  0  0  0  0  0
  149.5447  141.7536  156.6836 C   0  0  0  0  0  0  0  0  0  0  0  0
  148.5168  141.9453  157.3358 O   0  0  0  0  0  0  0  0  0  0  0  0
  149.4894  141.3098  155.2129 C   0  0  0  0  0  0  0  0  0  0  0  0
  150.1086  140.0014  154.9543 N   0  0  0  0  0  0  0  0  0  0  0  0
  151.5678  140.0177  155.0125 N   0  5  0  0  0  0  0  0  0  0  0  0
  152.2538  138.8724  154.7565 C   0  0  0  0  0  0  0  0  0  0  0  0
  153.4812  138.8140  154.7685 O   0  0  0  0  0  0  0  0  0  0  0  0
  151.4922  137.6696  154.4628 C   0  0  0  0  0  0  0  0  0  0  0  0
  150.1447  137.6772  154.4447 C   0  0  0  0  0  0  0  0  0  0  0  0
  149.3683  138.8829  154.7078 C   0  0  0  0  0  0  0  0  0  0  0  0
  148.1370  138.8947  154.7026 O   0  0  0  0  0  0  0  0  0  0  0  0
  151.3506  143.8683  158.6633 C   0  0  2  0  0  0  0  0  0  0  0  0
  152.4183  144.3677  157.6620 C   0  0  0  0  0  0  0  0  0  0  0  0
  152.7896  146.1037  159.9068 H   0  0  0  0  0  0  0  0  0  0  0  0
  151.9226  145.9756  161.4279 H   0  0  0  0  0  0  0  0  0  0  0  0
  151.0401  146.3233  159.9471 H   0  0  0  0  0  0  0  0  0  0  0  0
  150.7789  143.9675  160.7200 H   0  0  0  0  0  0  0  0  0  0  0  0
  153.7612  143.6758  160.1840 H   0  0  0  0  0  0  0  0  0  0  0  0
  152.9937  143.6547  161.7491 H   0  0  0  0  0  0  0  0  0  0  0  0
  153.4471  141.3440  160.9099 H   0  0  0  0  0  0  0  0  0  0  0  0
  151.7475  141.6162  161.2051 H   0  0  0  0  0  0  0  0  0  0  0  0
  153.1408  141.6559  158.4869 H   0  0  0  0  0  0  0  0  0  0  0  0
  152.0176  140.4520  159.0640 H   0  0  0  0  0  0  0  0  0  0  0  0
  150.2081  142.1093  159.1755 H   0  0  0  0  0  0  0  0  0  0  0  0
  151.5626  141.7458  156.5848 H   0  0  0  0  0  0  0  0  0  0  0  0
  148.4435  141.3013  154.9005 H   0  0  0  0  0  0  0  0  0  0  0  0
  149.9707  142.0710  154.5963 H   0  0  0  0  0  0  0  0  0  0  0  0
  152.0187  136.7492  154.2574 H   0  0  0  0  0  0  0  0  0  0  0  0
  149.6200  136.7598  154.2238 H   0  0  0  0  0  0  0  0  0  0  0  0
  150.4240  144.3793  158.3978 H   0  0  0  0  0  0  0  0  0  0  0  0
  153.3978  143.9317  157.8541 H   0  0  0  0  0  0  0  0  0  0  0  0
  152.5260  145.4510  157.7002 H   0  0  0  0  0  0  0  0  0  0  0  0
  152.1476  144.1250  156.6345 H   0  0  0  0  0  0  0  0  0  0  0  0
  1  2  1  0  0  0  0
  1 21  1  0  0  0  0
  1 22  1  0  0  0  0
  1 23  1  0  0  0  0
  2 19  1  0  0  0  0
  2  3  1  0  0  0  0
  2 24  1  0  0  0  0
  3  4  1  0  0  0  0
  3 25  1  0  0  0  0
  3 26  1  0  0  0  0
  4  5  1  0  0  0  0
  4 27  1  0  0  0  0
  4 28  1  0  0  0  0
  5  6  1  0  0  0  0
  5 29  1  0  0  0  0
  5 30  1  0  0  0  0
  6  7  1  0  0  0  0
  6 19  1  0  0  0  0
  6 31  1  0  0  0  0
  7  8  1  0  0  0  0
  7 32  1  0  0  0  0
  8  9  2  0  0  0  0
  8 10  1  0  0  0  0
 10 33  1  0  0  0  0
 10 34  1  0  0  0  0
 10 11  1  0  0  0  0
 11 12  1  0  0  0  0
 11 17  1  0  0  0  0
 12 13  1  0  0  0  0
 13 14  2  0  0  0  0
 13 15  1  0  0  0  0
 15 35  1  0  0  0  0
 15 16  2  0  0  0  0
 16 36  1  0  0  0  0
 16 17  1  0  0  0  0
 17 18  2  0  0  0  0
 19 20  1  0  0  0  0
 19 37  1  0  0  0  0
 20 38  1  0  0  0  0
 20 39  1  0  0  0  0
 20 40  1  0  0  0  0
M  CHG  1  12  -1
M  END
> <s_m_source_file>
AV-unprocessed.smi

> <i_m_source_file_index>
1464

> <i_lp_mmshare_version>
43012

> <i_f3d_flags>
0

> <s_epik_input>
W0NIM11bQ0BASF0xW0NIMl1bQ0gyXVtDSDJdW0NASF0oW0NASF0xW0NIM10pW05IXUMoPU8pW0NIMl1uMltuSF1jKD1PKVtjSF1bY0hdYzI9Tw==

> <s_epik_cmdline>
J2VwaWtfcHl0aG9uJywgJy1waCcsICc3LjAnLCAnLXRuJywgJzgnLCAnLW1hJywgJzIwMCcsICctbWV0YWxfYmluZGluZycsICctaW1hZScsICc8aW5maWxlLm1hZT4nLCAnLW9tYWUnLCAnPG91dGZpbGUubWFlPic=

> <r_lp_tautomer_probability>
1

> <r_epik_Ionization_Penalty>
0.101366

> <r_epik_Ionization_Penalty_Charging>
0.101366

> <r_epik_Ionization_Penalty_Neutral>
1.90469e-08

> <r_epik_State_Penalty>
0.035861

> <r_epik_Charging_Adjusted_Penalty>
0.137227

> <i_epik_Tot_Q>
-1

> <i_epik_Tot_abs_Q>
1

> <r_epik_Metal_State_Penalty>
0.035861

> <b_epik_Metal_Only>
0

> <s_lp_Force_Field>
OPLS_2005

> <r_lp_Energy>
29.9934

> <b_lp_Chiralities_Consistent>
1

> <s_lp_Variant>
AV-unprocessed.smi:1464-7

> <Gold.Version>
5.8.1

> <Gold.Id.Protein>
6NUR|6NUR_protein|mol2

> <Gold.PLP.Fitness>
48.4822

> <Gold.PLP.PLP>
-45.1344

> <Gold.PLP.part.hbond>
-2.0000

> <Gold.PLP.part.metal>
0.0000

> <Gold.PLP.part.buried>
-4.8025

> <Gold.PLP.part.nonpolar>
-39.2584

> <Gold.PLP.part.repulsive>
0.3328

> <Gold.PLP.ligand.clash>
0.0000

> <Gold.PLP.ligand.torsion>
0.4576

> <Gold.PLP.Chemscore.Hbond>
1.4160

> <Gold.PLP.Chemscore.CHOScore>
0.0000

> <Gold.PLP.Chemscore.Metal>
0.0000

> <Gold.Chemscore.Hbonds>
donor molecule, donor type, donor heavy atom, donor atom, acceptor molecule, acceptor atom, score
      P1  H  7989  7998       L1    12  0.55
      P1  H  7997  8008       L1    14  0.74

> <Gold.PLP.Chemscore.Internal.Correction>
0.0151

> <Gold.Rescore>
     Score         DG    S(hbond)    S(metal)    S(lipo)     H(rot)  DE(clash)    DE(int)     intcor
     14.18     -14.92       0.27        0.00     108.83       1.64       0.19       0.55       ----

> <Gold.Chemscore.Fitness>
14.1829

> <Gold.Chemscore.DG>
-14.9207

> <Gold.Chemscore.ZeroCoef>
-5.4800

> <Gold.Chemscore.Hbond>
0.2740

> <Gold.Chemscore.Metal>
0.0000

> <Gold.Chemscore.Lipo>
108.8322

> <Gold.Chemscore.Internal_Hbond>
0.0000

> <Gold.Chemscore.DEClash>
0.1880

> <Gold.Chemscore.DEInternal>
0.5498

> <Gold.Chemscore.Rot>
1.6438

> <Gold.Chemscore.Internal.Correction>
   9.000000E+99

> <Gold.Chemscore.Hbonds>
donor molecule, donor type, donor heavy atom, donor atom, acceptor molecule, acceptor atom, score
      P1  H  7989  7998       L1    12  0.01
      P1  H  7997  8008       L1    14  0.66

> <Gold.Chemscore.Hbond.Weighted>
-0.9153

> <Gold.Chemscore.Metal.Weighted>
-0.0000

> <Gold.Chemscore.Lipo.Weighted>
-12.7334

> <Gold.Chemscore.Internal_Hbond.Weighted>
0.0000

> <Gold.Chemscore.DEClash.Weighted>
0.1880

> <Gold.Chemscore.DEInternal.Weighted>
0.5498

> <Gold.Chemscore.Rot.Weighted>
4.2080

> <Gold.Chemscore.Internal.Correction.Weighted>
   9.000000E+99

> <Gold.Protein.RotatedTorsions>
[ 6907 6896 6895 6894 ] final   47.84 input  -60.11 | X-H torsion
[ 7974 7965 7964 7962 ] final -165.17 input  175.53 | X-H torsion
[ 8008 7997 7996 7995 ] final  -29.31 input   59.86 | X-H torsion
[ 10167 10162 10161 10158 ] final  178.55 input  -65.29 | X-H torsion
[ 10718 10713 10712 10709 ] final   80.89 input   66.30 | X-H torsion
[ 10763 10752 10751 10750 ] final -122.12 input  -60.55 | X-H torsion
[ 11005 11000 10999 10996 ] final  -58.23 input  -57.11 | X-H torsion

> <Gold.Protein.ActiveResidues>
 VAL166  LYS551  ARG553  GLY616  TRP617  ASP618  TYR619  PRO620  LYS621  CYS622 
 ASP623  PHE694  ASN695  SER759  ASP760  ASP761  ALA762  ILE779  LEU786  VAL792 
 PHE793  MET794  SER795  GLU796  ALA797  LYS798  CYS799  TRP800  GLU811  SER814 

> <Gold.Protein.RotatedAtoms>
  152.2727  134.7915  160.0410 H   0  0  0  0  0  0  0  0  0  0  0  0  # atno 6907 bound_to 6896
  151.8522  133.3436  159.3685 H   0  0  0  0  0  0  0  0  0  0  0  0  # atno 6908 bound_to 6896
  150.7158  134.5216  159.5701 H   0  0  0  0  0  0  0  0  0  0  0  0  # atno 6909 bound_to 6896
  144.7277  140.2853  143.6229 H   0  0  0  0  0  0  0  0  0  0  0  0  # atno 7974 bound_to 7965
  154.4295  140.1821  156.1228 H   0  0  0  0  0  0  0  0  0  0  0  0  # atno 8008 bound_to 7997
  156.0129  140.3349  155.6934 H   0  0  0  0  0  0  0  0  0  0  0  0  # atno 8009 bound_to 7997
  155.6085  140.0647  157.2703 H   0  0  0  0  0  0  0  0  0  0  0  0  # atno 8010 bound_to 7997
  139.5298  144.2667  152.0662 H   0  0  0  0  0  0  0  0  0  0  0  0  # atno 10167 bound_to 10162
  157.6818  130.9980  150.2146 H   0  0  0  0  0  0  0  0  0  0  0  0  # atno 10718 bound_to 10713
  154.8683  135.4144  154.2730 H   0  0  0  0  0  0  0  0  0  0  0  0  # atno 10763 bound_to 10752
  153.3637  135.7004  153.6698 H   0  0  0  0  0  0  0  0  0  0  0  0  # atno 10764 bound_to 10752
  153.5588  135.3614  155.2763 H   0  0  0  0  0  0  0  0  0  0  0  0  # atno 10765 bound_to 10752
  141.1198  133.6612  156.4889 H   0  0  0  0  0  0  0  0  0  0  0  0  # atno 11005 bound_to 11000
  145.7909  139.1926  143.2103 LP  0  0  0  0  0  0  0  0  0  0  0  0  # atno 17320 bound_to 7965
  146.0757  140.7820  142.9666 LP  0  0  0  0  0  0  0  0  0  0  0  0  # atno 17321 bound_to 7965
  140.2129  144.4545  150.6377 LP  0  0  0  0  0  0  0  0  0  0  0  0  # atno 17342 bound_to 10162
  140.6469  143.2215  151.6166 LP  0  0  0  0  0  0  0  0  0  0  0  0  # atno 17343 bound_to 10162
  156.2810  130.3733  149.7935 LP  0  0  0  0  0  0  0  0  0  0  0  0  # atno 17370 bound_to 10713
  156.5623  130.8389  151.3332 LP  0  0  0  0  0  0  0  0  0  0  0  0  # atno 17371 bound_to 10713
  140.4539  134.6903  157.5053 LP  0  0  0  0  0  0  0  0  0  0  0  0  # atno 17394 bound_to 11000
  140.0147  134.6637  155.9327 LP  0  0  0  0  0  0  0  0  0  0  0  0  # atno 17395 bound_to 11000

$$$$
