AV-unprocessed.smi:716|AV-procd|sdf|3488|dock7
  -GOLD-   22720 0483D 1   1.00000     0.00000
 Structure written by MMmdl.
 48 50  0  0  0  0  0  0  0  0  1 V2000
  146.3120  142.8342  154.1365 C   0  0  0  0  0  0  0  0  0  0  0  0
  147.2659  141.7246  153.6895 C   0  0  0  0  0  0  0  0  0  0  0  0
  148.0479  141.3199  154.8000 O   0  0  0  0  0  0  0  0  0  0  0  0
  149.1788  140.5481  154.4276 C   0  0  2  0  0  0  0  0  0  0  0  0
  148.8875  139.0627  154.1920 C   0  0  0  0  0  0  0  0  0  0  0  0
  150.2441  138.8027  154.8486 C   0  0  2  0  0  0  0  0  0  0  0  0
  150.2410  137.6007  155.6741 N   0  0  0  0  0  0  0  0  0  0  0  0
  150.8884  136.4671  155.3699 C   0  0  0  0  0  0  0  0  0  0  0  0
  151.5715  136.3317  154.3539 O   0  0  0  0  0  0  0  0  0  0  0  0
  150.7595  135.3240  156.3866 C   0  0  0  0  0  0  0  0  0  0  0  0
  150.4881  134.0213  155.7622 N   0  0  0  0  0  0  0  0  0  0  0  0
  149.6369  134.0798  154.6710 N   0  0  0  0  0  0  0  0  0  0  0  0
  149.3052  133.0091  154.0267 C   0  0  0  0  0  0  0  0  0  0  0  0
  148.3773  133.1599  152.8581 C   0  0  0  0  0  0  0  0  0  0  0  0
  149.8335  131.7267  154.4510 C   0  0  0  0  0  0  0  0  0  0  0  0
  150.6673  131.6730  155.5116 C   0  0  0  0  0  0  0  0  0  0  0  0
  151.0535  132.8754  156.2465 C   0  0  0  0  0  0  0  0  0  0  0  0
  151.8178  132.8608  157.2113 O   0  0  0  0  0  0  0  0  0  0  0  0
  150.0675  140.1322  155.6267 C   0  0  0  0  0  0  0  0  0  0  0  0
  149.4111  140.1149  157.0138 C   0  0  0  0  0  0  0  0  0  0  0  0
  149.6631  141.4905  157.6357 C   0  0  0  0  0  0  0  0  0  0  0  0
  150.9099  142.0382  156.9325 C   0  0  0  0  0  0  0  0  0  0  0  0
  151.3042  140.9828  155.8939 C   0  0  0  0  0  0  0  0  0  0  0  0
  145.6938  143.1746  153.3057 H   0  0  0  0  0  0  0  0  0  0  0  0
  146.8631  143.6939  154.5180 H   0  0  0  0  0  0  0  0  0  0  0  0
  145.6477  142.4837  154.9268 H   0  0  0  0  0  0  0  0  0  0  0  0
  146.6955  140.8814  153.2979 H   0  0  0  0  0  0  0  0  0  0  0  0
  147.9116  142.0880  152.8888 H   0  0  0  0  0  0  0  0  0  0  0  0
  149.7586  140.9974  153.6179 H   0  0  0  0  0  0  0  0  0  0  0  0
  148.0382  138.6949  154.7709 H   0  0  0  0  0  0  0  0  0  0  0  0
  148.8228  138.7706  153.1437 H   0  0  0  0  0  0  0  0  0  0  0  0
  151.0590  138.8468  154.1216 H   0  0  0  0  0  0  0  0  0  0  0  0
  149.7078  137.6320  156.5309 H   0  0  0  0  0  0  0  0  0  0  0  0
  151.6851  135.2835  156.9638 H   0  0  0  0  0  0  0  0  0  0  0  0
  149.9746  135.5572  157.1088 H   0  0  0  0  0  0  0  0  0  0  0  0
  148.2249  132.2073  152.3500 H   0  0  0  0  0  0  0  0  0  0  0  0
  148.7793  133.8651  152.1304 H   0  0  0  0  0  0  0  0  0  0  0  0
  147.4027  133.5256  153.1822 H   0  0  0  0  0  0  0  0  0  0  0  0
  149.5577  130.8286  153.9182 H   0  0  0  0  0  0  0  0  0  0  0  0
  151.0598  130.7177  155.8270 H   0  0  0  0  0  0  0  0  0  0  0  0
  148.3465  139.8813  156.9793 H   0  0  0  0  0  0  0  0  0  0  0  0
  149.8771  139.3596  157.6472 H   0  0  0  0  0  0  0  0  0  0  0  0
  148.8142  142.1487  157.4467 H   0  0  0  0  0  0  0  0  0  0  0  0
  149.7941  141.4259  158.7162 H   0  0  0  0  0  0  0  0  0  0  0  0
  150.6720  142.9827  156.4415 H   0  0  0  0  0  0  0  0  0  0  0  0
  151.7236  142.2284  157.6328 H   0  0  0  0  0  0  0  0  0  0  0  0
  152.1018  140.3579  156.2980 H   0  0  0  0  0  0  0  0  0  0  0  0
  151.6974  141.4448  154.9880 H   0  0  0  0  0  0  0  0  0  0  0  0
  1  2  1  0  0  0  0
  1 24  1  0  0  0  0
  1 25  1  0  0  0  0
  1 26  1  0  0  0  0
  2  3  1  0  0  0  0
  2 27  1  0  0  0  0
  2 28  1  0  0  0  0
  3  4  1  0  0  0  0
  4 19  1  0  0  0  0
  4  5  1  0  0  0  0
  4 29  1  0  0  0  0
  5  6  1  0  0  0  0
  5 30  1  0  0  0  0
  5 31  1  0  0  0  0
  6  7  1  0  0  0  0
  6 19  1  0  0  0  0
  6 32  1  0  0  0  0
  7  8  1  0  0  0  0
  7 33  1  0  0  0  0
  8  9  2  0  0  0  0
  8 10  1  0  0  0  0
 10 11  1  0  0  0  0
 10 34  1  0  0  0  0
 10 35  1  0  0  0  0
 11 17  1  0  0  0  0
 11 12  1  0  0  0  0
 12 13  2  0  0  0  0
 13 14  1  0  0  0  0
 13 15  1  0  0  0  0
 14 36  1  0  0  0  0
 14 37  1  0  0  0  0
 14 38  1  0  0  0  0
 15 16  2  0  0  0  0
 15 39  1  0  0  0  0
 16 17  1  0  0  0  0
 16 40  1  0  0  0  0
 17 18  2  0  0  0  0
 19 23  1  0  0  0  0
 19 20  1  0  0  0  0
 20 21  1  0  0  0  0
 20 41  1  0  0  0  0
 20 42  1  0  0  0  0
 21 22  1  0  0  0  0
 21 43  1  0  0  0  0
 21 44  1  0  0  0  0
 22 23  1  0  0  0  0
 22 45  1  0  0  0  0
 22 46  1  0  0  0  0
 23 47  1  0  0  0  0
 23 48  1  0  0  0  0
M  END
> <s_m_source_file>
AV-unprocessed.smi

> <i_m_source_file_index>
716

> <i_lp_mmshare_version>
43012

> <i_f3d_flags>
0

> <s_epik_input>
W0NIMl0xW0NIMl1bQ0gyXVtDSDJdQzEyW0NASF0oT1tDSDJdW0NIM10pW0NIMl1bQ0BIXTJbTkhdQyg9TylbQ0gyXW4zbmMoW0NIM10pW2NIXVtjSF1jMz1P

> <s_epik_cmdline>
J2VwaWtfcHl0aG9uJywgJy1waCcsICc3LjAnLCAnLXRuJywgJzgnLCAnLW1hJywgJzIwMCcsICctbWV0YWxfYmluZGluZycsICctaW1hZScsICc8aW5maWxlLm1hZT4nLCAnLW9tYWUnLCAnPG91dGZpbGUubWFlPic=

> <r_lp_tautomer_probability>
1

> <r_epik_Ionization_Penalty>
4.75561e-08

> <r_epik_Ionization_Penalty_Charging>
2.86617e-08

> <r_epik_Ionization_Penalty_Neutral>
1.88944e-08

> <r_epik_State_Penalty>
-0

> <r_epik_Charging_Adjusted_Penalty>
2.86617e-08

> <i_epik_Tot_Q>
0

> <i_epik_Tot_abs_Q>
0

> <r_epik_Metal_State_Penalty>
-0

> <b_epik_Metal_Only>
0

> <s_lp_Force_Field>
OPLS_2005

> <r_lp_Energy>
50.3273

> <b_lp_Chiralities_Consistent>
1

> <s_lp_Variant>
AV-unprocessed.smi:716-3

> <Gold.Version>
5.8.1

> <Gold.Id.Protein>
6NUR|6NUR_protein|mol2

> <Gold.PLP.Fitness>
45.9595

> <Gold.PLP.PLP>
-41.8612

> <Gold.PLP.part.hbond>
-2.0000

> <Gold.PLP.part.metal>
0.0000

> <Gold.PLP.part.buried>
-6.2727

> <Gold.PLP.part.nonpolar>
-34.5126

> <Gold.PLP.part.repulsive>
1.4916

> <Gold.PLP.ligand.clash>
0.0000

> <Gold.PLP.ligand.torsion>
0.8946

> <Gold.PLP.Chemscore.Hbond>
1.8480

> <Gold.PLP.Chemscore.CHOScore>
0.0000

> <Gold.PLP.Chemscore.Metal>
0.0000

> <Gold.Chemscore.Hbonds>
donor molecule, donor type, donor heavy atom, donor atom, acceptor molecule, acceptor atom, score
      P1  H  6896  6908       L1    18  0.68
      P1  H 10752 10763       L1     9  0.98

> <Gold.PLP.Chemscore.Internal.Correction>
0.3436

> <Gold.Rescore>
     Score         DG    S(hbond)    S(metal)    S(lipo)     H(rot)  DE(clash)    DE(int)     intcor
     15.71     -16.45       1.62        0.00      85.43       1.73       0.03       0.71       ----

> <Gold.Chemscore.Fitness>
15.7082

> <Gold.Chemscore.DG>
-16.4481

> <Gold.Chemscore.ZeroCoef>
-5.4800

> <Gold.Chemscore.Hbond>
1.6211

> <Gold.Chemscore.Metal>
0.0000

> <Gold.Chemscore.Lipo>
85.4254

> <Gold.Chemscore.Internal_Hbond>
0.0000

> <Gold.Chemscore.DEClash>
0.0317

> <Gold.Chemscore.DEInternal>
0.7082

> <Gold.Chemscore.Rot>
1.7348

> <Gold.Chemscore.Internal.Correction>
   9.000000E+99

> <Gold.Chemscore.Hbonds>
donor molecule, donor type, donor heavy atom, donor atom, acceptor molecule, acceptor atom, score
      P1  H  6896  6908       L1    18  0.67
      P1  H 10752 10763       L1     9  0.92

> <Gold.Chemscore.Hbond.Weighted>
-5.4144

> <Gold.Chemscore.Metal.Weighted>
-0.0000

> <Gold.Chemscore.Lipo.Weighted>
-9.9948

> <Gold.Chemscore.Internal_Hbond.Weighted>
0.0000

> <Gold.Chemscore.DEClash.Weighted>
0.0317

> <Gold.Chemscore.DEInternal.Weighted>
0.7082

> <Gold.Chemscore.Rot.Weighted>
4.4411

> <Gold.Chemscore.Internal.Correction.Weighted>
   9.000000E+99

> <Gold.Protein.RotatedTorsions>
[ 6907 6896 6895 6894 ] final   56.99 input  -60.11 | X-H torsion
[ 7974 7965 7964 7962 ] final  -49.98 input  175.53 | X-H torsion
[ 8008 7997 7996 7995 ] final  -19.98 input   59.86 | X-H torsion
[ 10167 10162 10161 10158 ] final -116.15 input  -65.29 | X-H torsion
[ 10718 10713 10712 10709 ] final    6.94 input   66.30 | X-H torsion
[ 10763 10752 10751 10750 ] final   40.57 input  -60.55 | X-H torsion
[ 11005 11000 10999 10996 ] final   30.22 input  -57.11 | X-H torsion

> <Gold.Protein.ActiveResidues>
 VAL166  LYS551  ARG553  GLY616  TRP617  ASP618  TYR619  PRO620  LYS621  CYS622 
 ASP623  PHE694  ASN695  SER759  ASP760  ASP761  ALA762  ILE779  LEU786  VAL792 
 PHE793  MET794  SER795  GLU796  ALA797  LYS798  CYS799  TRP800  GLU811  SER814 

> <Gold.Protein.RotatedAtoms>
  152.3689  134.6764  160.0182 H   0  0  0  0  0  0  0  0  0  0  0  0  # atno 6907 bound_to 6896
  151.7063  133.3306  159.3287 H   0  0  0  0  0  0  0  0  0  0  0  0  # atno 6908 bound_to 6896
  150.7658  134.6506  159.6331 H   0  0  0  0  0  0  0  0  0  0  0  0  # atno 6909 bound_to 6896
  145.9348  140.7716  142.9581 H   0  0  0  0  0  0  0  0  0  0  0  0  # atno 7974 bound_to 7965
  154.4800  140.2074  155.9786 H   0  0  0  0  0  0  0  0  0  0  0  0  # atno 8008 bound_to 7997
  156.1150  140.3223  155.8096 H   0  0  0  0  0  0  0  0  0  0  0  0  # atno 8009 bound_to 7997
  155.4569  140.0521  157.2986 H   0  0  0  0  0  0  0  0  0  0  0  0  # atno 8010 bound_to 7997
  140.0823  143.4776  152.1918 H   0  0  0  0  0  0  0  0  0  0  0  0  # atno 10167 bound_to 10162
  156.9296  130.5821  149.5649 H   0  0  0  0  0  0  0  0  0  0  0  0  # atno 10718 bound_to 10713
  152.9932  135.6187  154.2648 H   0  0  0  0  0  0  0  0  0  0  0  0  # atno 10763 bound_to 10752
  154.2383  135.2789  155.2865 H   0  0  0  0  0  0  0  0  0  0  0  0  # atno 10764 bound_to 10752
  154.5391  135.5766  153.6882 H   0  0  0  0  0  0  0  0  0  0  0  0  # atno 10765 bound_to 10752
  140.2967  134.2803  155.7763 H   0  0  0  0  0  0  0  0  0  0  0  0  # atno 11005 bound_to 11000
  144.6770  140.2185  143.7369 LP  0  0  0  0  0  0  0  0  0  0  0  0  # atno 17320 bound_to 7965
  145.8378  139.2116  143.1845 LP  0  0  0  0  0  0  0  0  0  0  0  0  # atno 17321 bound_to 7965
  139.5772  144.7493  151.3733 LP  0  0  0  0  0  0  0  0  0  0  0  0  # atno 17342 bound_to 10162
  140.7071  143.7485  150.7501 LP  0  0  0  0  0  0  0  0  0  0  0  0  # atno 17343 bound_to 10162
  156.0453  130.5530  150.8867 LP  0  0  0  0  0  0  0  0  0  0  0  0  # atno 17370 bound_to 10713
  157.5855  131.0945  150.9202 LP  0  0  0  0  0  0  0  0  0  0  0  0  # atno 17371 bound_to 10713
  141.2136  133.7619  156.9705 LP  0  0  0  0  0  0  0  0  0  0  0  0  # atno 17394 bound_to 11000
  140.1146  134.9455  157.2116 LP  0  0  0  0  0  0  0  0  0  0  0  0  # atno 17395 bound_to 11000

$$$$
