AV-unprocessed.smi:284|AV-procd|sdf|2161|dock2
  -GOLD-   2262021513D 1   1.00000     0.00000
 Structure written by MMmdl.
 60 62  0  0  0  0  0  0  0  0  1 V2000
  149.4747  133.5727  156.2140 C   0  0  0  0  0  0  0  0  0  0  0  0
  149.2020  134.9449  155.6176 C   0  0  0  0  0  0  0  0  0  0  0  0
  147.9645  135.3270  155.2266 C   0  0  0  0  0  0  0  0  0  0  0  0
  147.6771  136.5673  154.6832 N   0  0  0  0  0  0  0  0  0  0  0  0
  146.2907  136.9138  154.1735 C   0  0  2  0  0  0  0  0  0  0  0  0
  145.2050  135.8899  154.5364 C   0  0  0  0  0  0  0  0  0  0  0  0
  144.9465  135.2067  153.2050 C   0  0  1  0  0  0  0  0  0  0  0  0
  143.6107  134.7518  153.1263 O   0  0  0  0  0  0  0  0  0  0  0  0
  145.2432  136.3256  152.2027 C   0  0  2  0  0  0  0  0  0  0  0  0
  145.6160  135.8128  150.8034 C   0  0  0  0  0  0  0  0  0  0  0  0
  146.1929  136.8523  150.0425 O   0  0  0  0  0  0  0  0  0  0  0  0
  146.3584  136.9954  152.7831 O   0  0  0  0  0  0  0  0  0  0  0  0
  148.7372  137.4610  154.4161 C   0  0  0  0  0  0  0  0  0  0  0  0
  148.5360  138.5288  153.8328 O   0  0  0  0  0  0  0  0  0  0  0  0
  150.0387  137.1037  154.8355 N   0  0  0  0  0  0  0  0  0  0  0  0
  151.1480  138.0528  154.5897 C   0  0  0  0  0  0  0  0  0  0  0  0
  150.9463  139.4283  155.2458 C   0  0  0  0  0  0  0  0  0  0  0  0
  150.4395  140.3558  154.6132 O   0  0  0  0  0  0  0  0  0  0  0  0
  151.3880  139.5215  156.5134 N   0  0  0  0  0  0  0  0  0  0  0  0
  151.3354  140.6340  157.3963 C   0  0  0  0  0  0  0  0  0  0  0  0
  151.6925  140.5700  158.7628 C   0  0  0  0  0  0  0  0  0  0  0  0
  151.6374  141.7236  159.5691 C   0  0  0  0  0  0  0  0  0  0  0  0
  151.2334  142.9706  159.0313 C   0  0  0  0  0  0  0  0  0  0  0  0
  151.1640  144.2537  159.8816 C   0  0  0  0  0  0  0  0  0  0  0  0
  152.0409  145.3472  159.2374 C   0  0  0  0  0  0  0  0  0  0  0  0
  151.6618  144.0455  161.3298 C   0  0  0  0  0  0  0  0  0  0  0  0
  149.7047  144.7500  159.9570 C   0  0  0  0  0  0  0  0  0  0  0  0
  150.8939  143.0244  157.6590 C   0  0  0  0  0  0  0  0  0  0  0  0
  150.9482  141.8732  156.8513 C   0  0  0  0  0  0  0  0  0  0  0  0
  150.3308  135.8612  155.4482 C   0  0  0  0  0  0  0  0  0  0  0  0
  151.4811  135.5857  155.7946 O   0  0  0  0  0  0  0  0  0  0  0  0
  148.5648  132.9784  156.3014 H   0  0  0  0  0  0  0  0  0  0  0  0
  149.9058  133.6691  157.2111 H   0  0  0  0  0  0  0  0  0  0  0  0
  150.1760  133.0184  155.5892 H   0  0  0  0  0  0  0  0  0  0  0  0
  147.1700  134.6079  155.3418 H   0  0  0  0  0  0  0  0  0  0  0  0
  146.0385  137.8852  154.6003 H   0  0  0  0  0  0  0  0  0  0  0  0
  145.4912  135.2216  155.3486 H   0  0  0  0  0  0  0  0  0  0  0  0
  144.3225  136.4457  154.8576 H   0  0  0  0  0  0  0  0  0  0  0  0
  145.6317  134.3713  153.0606 H   0  0  0  0  0  0  0  0  0  0  0  0
  143.5849  133.8437  153.3870 H   0  0  0  0  0  0  0  0  0  0  0  0
  144.3968  137.0146  152.1625 H   0  0  0  0  0  0  0  0  0  0  0  0
  146.2938  134.9604  150.8611 H   0  0  0  0  0  0  0  0  0  0  0  0
  144.7229  135.4806  150.2738 H   0  0  0  0  0  0  0  0  0  0  0  0
  145.5016  137.3214  149.6008 H   0  0  0  0  0  0  0  0  0  0  0  0
  152.0951  137.6371  154.9378 H   0  0  0  0  0  0  0  0  0  0  0  0
  151.3076  138.2033  153.5208 H   0  0  0  0  0  0  0  0  0  0  0  0
  151.8700  138.7097  156.8707 H   0  0  0  0  0  0  0  0  0  0  0  0
  152.0281  139.6495  159.2145 H   0  0  0  0  0  0  0  0  0  0  0  0
  151.9200  141.6192  160.6048 H   0  0  0  0  0  0  0  0  0  0  0  0
  152.0271  146.2652  159.8260 H   0  0  0  0  0  0  0  0  0  0  0  0
  151.7029  145.6065  158.2340 H   0  0  0  0  0  0  0  0  0  0  0  0
  153.0798  145.0240  159.1600 H   0  0  0  0  0  0  0  0  0  0  0  0
  152.7057  143.7305  161.3573 H   0  0  0  0  0  0  0  0  0  0  0  0
  151.0679  143.2978  161.8570 H   0  0  0  0  0  0  0  0  0  0  0  0
  151.5951  144.9688  161.9065 H   0  0  0  0  0  0  0  0  0  0  0  0
  149.6221  145.6466  160.5722 H   0  0  0  0  0  0  0  0  0  0  0  0
  149.0526  143.9928  160.3936 H   0  0  0  0  0  0  0  0  0  0  0  0
  149.3037  145.0013  158.9752 H   0  0  0  0  0  0  0  0  0  0  0  0
  150.5886  143.9566  157.2083 H   0  0  0  0  0  0  0  0  0  0  0  0
  150.6853  141.9468  155.8061 H   0  0  0  0  0  0  0  0  0  0  0  0
  1  2  1  0  0  0  0
  1 32  1  0  0  0  0
  1 33  1  0  0  0  0
  1 34  1  0  0  0  0
  2 30  1  0  0  0  0
  2  3  2  0  0  0  0
  3  4  1  0  0  0  0
  3 35  1  0  0  0  0
  4  5  1  0  0  0  0
  4 13  1  0  0  0  0
  5 12  1  0  0  0  0
  5  6  1  0  0  0  0
  5 36  1  0  0  0  0
  6  7  1  0  0  0  0
  6 37  1  0  0  0  0
  6 38  1  0  0  0  0
  7  8  1  0  0  0  0
  7  9  1  0  0  0  0
  7 39  1  0  0  0  0
  8 40  1  0  0  0  0
  9 10  1  0  0  0  0
  9 12  1  0  0  0  0
  9 41  1  0  0  0  0
 10 11  1  0  0  0  0
 10 42  1  0  0  0  0
 10 43  1  0  0  0  0
 11 44  1  0  0  0  0
 13 14  2  0  0  0  0
 13 15  1  0  0  0  0
 15 16  1  0  0  0  0
 15 30  1  0  0  0  0
 16 17  1  0  0  0  0
 16 45  1  0  0  0  0
 16 46  1  0  0  0  0
 17 18  2  0  0  0  0
 17 19  1  0  0  0  0
 19 20  1  0  0  0  0
 19 47  1  0  0  0  0
 20 29  1  0  0  0  0
 20 21  2  0  0  0  0
 21 22  1  0  0  0  0
 21 48  1  0  0  0  0
 22 23  2  0  0  0  0
 22 49  1  0  0  0  0
 23 24  1  0  0  0  0
 23 28  1  0  0  0  0
 24 25  1  0  0  0  0
 24 26  1  0  0  0  0
 24 27  1  0  0  0  0
 25 50  1  0  0  0  0
 25 51  1  0  0  0  0
 25 52  1  0  0  0  0
 26 53  1  0  0  0  0
 26 54  1  0  0  0  0
 26 55  1  0  0  0  0
 27 56  1  0  0  0  0
 27 57  1  0  0  0  0
 27 58  1  0  0  0  0
 28 29  2  0  0  0  0
 28 59  1  0  0  0  0
 29 60  1  0  0  0  0
 30 31  2  0  0  0  0
M  END
> <s_m_source_file>
AV-unprocessed.smi

> <i_m_source_file_index>
284

> <i_lp_mmshare_version>
43012

> <i_f3d_flags>
0

> <s_epik_input>
W09IXVtDSDJdW0NAQEhdKE8xKVtDQEhdKFtPSF0pW0NIMl1bQ0BIXTFuKFtjSF1jMltDSDNdKWMoPU8pbihjMj1PKVtDSDJdQyg9TylbTkhdYzNbY0hdW2NIXWMoQyhbQ0gzXSkoW0NIM10pW0NIM10pW2NIXVtjSF0z

> <s_epik_cmdline>
J2VwaWtfcHl0aG9uJywgJy1waCcsICc3LjAnLCAnLXRuJywgJzgnLCAnLW1hJywgJzIwMCcsICctbWV0YWxfYmluZGluZycsICctaW1hZScsICc8aW5maWxlLm1hZT4nLCAnLW9tYWUnLCAnPG91dGZpbGUubWFlPic=

> <r_lp_tautomer_probability>
1

> <r_epik_Ionization_Penalty>
4.92358e-06

> <r_epik_Ionization_Penalty_Charging>
1.29777e-07

> <r_epik_Ionization_Penalty_Neutral>
4.79381e-06

> <r_epik_State_Penalty>
-0

> <r_epik_Charging_Adjusted_Penalty>
1.29777e-07

> <i_epik_Tot_Q>
0

> <i_epik_Tot_abs_Q>
0

> <r_epik_Metal_State_Penalty>
-0

> <b_epik_Metal_Only>
0

> <s_epik_Chemistry_Notes>
This compound contains an acetal/aminal-like group ( X-CH(R)-Y where X, Y are N, S, or O) that may be acid/base labile, releasing an aldehyde.

> <s_lp_Force_Field>
OPLS_2005

> <r_lp_Energy>
40.5501

> <b_lp_Chiralities_Consistent>
1

> <s_lp_Variant>
AV-unprocessed.smi:284-5

> <Gold.Version>
5.8.1

> <Gold.Id.Protein>
6NUR|6NUR_protein|mol2

> <Gold.PLP.Fitness>
58.1440

> <Gold.PLP.PLP>
-47.1798

> <Gold.PLP.part.hbond>
-4.0000

> <Gold.PLP.part.metal>
0.0000

> <Gold.PLP.part.buried>
-9.0672

> <Gold.PLP.part.nonpolar>
-36.4797

> <Gold.PLP.part.repulsive>
0.5485

> <Gold.PLP.ligand.clash>
0.0000

> <Gold.PLP.ligand.torsion>
0.6049

> <Gold.PLP.Chemscore.Hbond>
3.9750

> <Gold.PLP.Chemscore.CHOScore>
0.0000

> <Gold.PLP.Chemscore.Metal>
0.0000

> <Gold.Chemscore.Hbonds>
donor molecule, donor type, donor heavy atom, donor atom, acceptor molecule, acceptor atom, score
      L1  H    11    44       P1 10171  0.91
      P1  H  7954  7966       L1    11  0.35
      P1  H  7989  7998       L1    18  1.00
      P1  H 10752 10764       L1    31  1.00

> <Gold.PLP.Chemscore.Internal.Correction>
0.2489

> <Gold.Rescore>
     Score         DG    S(hbond)    S(metal)    S(lipo)     H(rot)  DE(clash)    DE(int)     intcor
     17.39     -23.16       3.72        0.00     116.50       3.27       0.03       5.74       ----

> <Gold.Chemscore.Fitness>
17.3890

> <Gold.Chemscore.DG>
-23.1577

> <Gold.Chemscore.ZeroCoef>
-5.4800

> <Gold.Chemscore.Hbond>
3.7206

> <Gold.Chemscore.Metal>
0.0000

> <Gold.Chemscore.Lipo>
116.5023

> <Gold.Chemscore.Internal_Hbond>
0.0000

> <Gold.Chemscore.DEClash>
0.0309

> <Gold.Chemscore.DEInternal>
5.7377

> <Gold.Chemscore.Rot>
3.2735

> <Gold.Chemscore.Internal.Correction>
   9.000000E+99

> <Gold.Chemscore.Hbonds>
donor molecule, donor type, donor heavy atom, donor atom, acceptor molecule, acceptor atom, score
      L1  H    11    44       P1 10171  0.83
      P1  H  7954  7966       L1    11  0.29
      P1  H  7989  7998       L1    18  0.59
      P1  H 10752 10764       L1    31  1.00

> <Gold.Chemscore.Hbond.Weighted>
-12.4270

> <Gold.Chemscore.Metal.Weighted>
-0.0000

> <Gold.Chemscore.Lipo.Weighted>
-13.6308

> <Gold.Chemscore.Internal_Hbond.Weighted>
0.0000

> <Gold.Chemscore.DEClash.Weighted>
0.0309

> <Gold.Chemscore.DEInternal.Weighted>
5.7377

> <Gold.Chemscore.Rot.Weighted>
8.3801

> <Gold.Chemscore.Internal.Correction.Weighted>
   9.000000E+99

> <Gold.Protein.RotatedTorsions>
[ 6907 6896 6895 6894 ] final  133.39 input  -60.11 | X-H torsion
[ 7974 7965 7964 7962 ] final -113.13 input  175.53 | X-H torsion
[ 8008 7997 7996 7995 ] final -113.28 input   59.86 | X-H torsion
[ 10167 10162 10161 10158 ] final   94.19 input  -65.29 | X-H torsion
[ 10718 10713 10712 10709 ] final   12.38 input   66.30 | X-H torsion
[ 10763 10752 10751 10750 ] final  -38.60 input  -60.55 | X-H torsion
[ 11005 11000 10999 10996 ] final  111.46 input  -57.11 | X-H torsion

> <Gold.Protein.ActiveResidues>
 VAL166  LYS551  ARG553  GLY616  TRP617  ASP618  TYR619  PRO620  LYS621  CYS622 
 ASP623  PHE694  ASN695  SER759  ASP760  ASP761  ALA762  ILE779  LEU786  VAL792 
 PHE793  MET794  SER795  GLU796  ALA797  LYS798  CYS799  TRP800  GLU811  SER814 

> <Gold.Protein.RotatedAtoms>
  152.3225  133.5869  159.5753 H   0  0  0  0  0  0  0  0  0  0  0  0  # atno 6907 bound_to 6896
  150.7379  133.9990  159.3641 H   0  0  0  0  0  0  0  0  0  0  0  0  # atno 6908 bound_to 6896
  151.7873  135.0746  160.0433 H   0  0  0  0  0  0  0  0  0  0  0  0  # atno 6909 bound_to 6896
  145.1357  140.8749  143.3732 H   0  0  0  0  0  0  0  0  0  0  0  0  # atno 7974 bound_to 7965
  155.0183  140.0393  157.2427 H   0  0  0  0  0  0  0  0  0  0  0  0  # atno 8008 bound_to 7997
  154.7400  140.2747  155.6358 H   0  0  0  0  0  0  0  0  0  0  0  0  # atno 8009 bound_to 7997
  156.2862  140.2667  156.2125 H   0  0  0  0  0  0  0  0  0  0  0  0  # atno 8010 bound_to 7997
  139.8107  144.6774  150.9644 H   0  0  0  0  0  0  0  0  0  0  0  0  # atno 10167 bound_to 10162
  157.0093  130.6110  149.5706 H   0  0  0  0  0  0  0  0  0  0  0  0  # atno 10718 bound_to 10713
  153.9155  135.6788  153.4749 H   0  0  0  0  0  0  0  0  0  0  0  0  # atno 10763 bound_to 10752
  153.1056  135.4807  154.8942 H   0  0  0  0  0  0  0  0  0  0  0  0  # atno 10764 bound_to 10752
  154.7505  135.3183  154.8522 H   0  0  0  0  0  0  0  0  0  0  0  0  # atno 10765 bound_to 10752
  139.8904  134.9508  156.6436 H   0  0  0  0  0  0  0  0  0  0  0  0  # atno 11005 bound_to 11000
  145.0587  139.3123  143.5891 LP  0  0  0  0  0  0  0  0  0  0  0  0  # atno 17320 bound_to 7965
  146.3510  140.0021  142.8675 LP  0  0  0  0  0  0  0  0  0  0  0  0  # atno 17321 bound_to 7965
  140.7818  143.4188  151.0874 LP  0  0  0  0  0  0  0  0  0  0  0  0  # atno 17342 bound_to 10162
  139.7855  143.8294  152.3144 LP  0  0  0  0  0  0  0  0  0  0  0  0  # atno 17343 bound_to 10162
  156.0142  130.5235  150.8083 LP  0  0  0  0  0  0  0  0  0  0  0  0  # atno 17370 bound_to 10713
  157.5332  131.0937  150.9927 LP  0  0  0  0  0  0  0  0  0  0  0  0  # atno 17371 bound_to 10713
  140.7574  133.8846  155.8393 LP  0  0  0  0  0  0  0  0  0  0  0  0  # atno 17394 bound_to 11000
  140.9950  134.1227  157.4372 LP  0  0  0  0  0  0  0  0  0  0  0  0  # atno 17395 bound_to 11000

$$$$
