AV-unprocessed.smi:2985|AV-procd|sdf|11379|dock4
  -GOLD-   2272016303D 1   1.00000     0.00000
 Structure written by MMmdl.
 33 34  0  0  0  0  0  0  0  0  1 V2000
  150.9643  138.2710  154.4294 C   0  0  0  0  0  0  0  0  0  0  0  0
  151.0855  139.6701  154.6171 O   0  0  0  0  0  0  0  0  0  0  0  0
  151.8861  139.9986  155.7392 C   0  0  0  0  0  0  0  0  0  0  0  0
  150.9839  140.1302  156.9727 C   0  0  0  0  0  0  0  0  0  0  0  0
  151.6615  140.8217  158.0573 N   0  0  0  0  0  0  0  0  0  0  0  0
  152.3098  140.2741  159.1135 C   0  0  0  0  0  0  0  0  0  0  0  0
  152.4330  138.5288  159.3231 S   0  0  0  0  0  0  0  0  0  0  0  0
  153.5294  138.5262  160.7701 C   0  0  0  0  0  0  0  0  0  0  0  0
  153.9601  137.1197  161.1787 C   0  0  0  0  0  0  0  0  0  0  0  0
  154.6984  137.0069  162.2862 N   0  0  0  0  0  0  0  0  0  0  0  0
  153.6410  136.1468  160.4992 O   0  0  0  0  0  0  0  0  0  0  0  0
  152.8368  141.1393  159.9801 N   0  0  0  0  0  0  0  0  0  0  0  0
  152.4960  142.3622  159.4357 C   0  0  0  0  0  0  0  0  0  0  0  0
  152.7619  143.6749  159.8868 C   0  0  0  0  0  0  0  0  0  0  0  0
  152.2997  144.7883  159.1548 C   0  0  0  0  0  0  0  0  0  0  0  0
  151.5661  144.6057  157.9646 C   0  0  0  0  0  0  0  0  0  0  0  0
  151.2909  143.3062  157.4970 C   0  0  0  0  0  0  0  0  0  0  0  0
  151.7562  142.1984  158.2305 C   0  0  0  0  0  0  0  0  0  0  0  0
  150.3382  138.0704  153.5601 H   0  0  0  0  0  0  0  0  0  0  0  0
  150.5007  137.7954  155.2948 H   0  0  0  0  0  0  0  0  0  0  0  0
  151.9379  137.8107  154.2568 H   0  0  0  0  0  0  0  0  0  0  0  0
  152.6359  139.2229  155.9039 H   0  0  0  0  0  0  0  0  0  0  0  0
  152.4156  140.9350  155.5559 H   0  0  0  0  0  0  0  0  0  0  0  0
  150.0670  140.6653  156.7243 H   0  0  0  0  0  0  0  0  0  0  0  0
  150.6783  139.1432  157.3210 H   0  0  0  0  0  0  0  0  0  0  0  0
  154.4089  139.1344  160.5548 H   0  0  0  0  0  0  0  0  0  0  0  0
  153.0138  138.9939  161.6099 H   0  0  0  0  0  0  0  0  0  0  0  0
  155.0173  136.0980  162.5891 H   0  0  0  0  0  0  0  0  0  0  0  0
  154.9455  137.8341  162.8099 H   0  0  0  0  0  0  0  0  0  0  0  0
  153.3216  143.8253  160.7983 H   0  0  0  0  0  0  0  0  0  0  0  0
  152.5080  145.7871  159.5092 H   0  0  0  0  0  0  0  0  0  0  0  0
  151.2145  145.4639  157.4107 H   0  0  0  0  0  0  0  0  0  0  0  0
  150.7278  143.1643  156.5866 H   0  0  0  0  0  0  0  0  0  0  0  0
  1  2  1  0  0  0  0
  1 19  1  0  0  0  0
  1 20  1  0  0  0  0
  1 21  1  0  0  0  0
  2  3  1  0  0  0  0
  3  4  1  0  0  0  0
  3 22  1  0  0  0  0
  3 23  1  0  0  0  0
  4  5  1  0  0  0  0
  4 24  1  0  0  0  0
  4 25  1  0  0  0  0
  5 18  1  0  0  0  0
  5  6  1  0  0  0  0
  6  7  1  0  0  0  0
  6 12  2  0  0  0  0
  7  8  1  0  0  0  0
  8  9  1  0  0  0  0
  8 26  1  0  0  0  0
  8 27  1  0  0  0  0
  9 10  1  0  0  0  0
  9 11  2  0  0  0  0
 10 28  1  0  0  0  0
 10 29  1  0  0  0  0
 12 13  1  0  0  0  0
 13 18  2  0  0  0  0
 13 14  1  0  0  0  0
 14 15  2  0  0  0  0
 14 30  1  0  0  0  0
 15 16  1  0  0  0  0
 15 31  1  0  0  0  0
 16 17  2  0  0  0  0
 16 32  1  0  0  0  0
 17 18  1  0  0  0  0
 17 33  1  0  0  0  0
M  END
> <s_m_source_file>
AV-unprocessed.smi

> <i_m_source_file_index>
2985

> <i_lp_mmshare_version>
43012

> <i_f3d_flags>
0

> <s_epik_input>
W2NIXTFbY0hdW2NIXVtjSF1jKGMxMiluKFtDSDJdW0NIMl1PW0NIM10pYyhuMilTW0NIMl1DKD1PKVtOSDJd

> <s_epik_cmdline>
J2VwaWtfcHl0aG9uJywgJy1waCcsICc3LjAnLCAnLXRuJywgJzgnLCAnLW1hJywgJzIwMCcsICctbWV0YWxfYmluZGluZycsICctaW1hZScsICc8aW5maWxlLm1hZT4nLCAnLW9tYWUnLCAnPG91dGZpbGUubWFlPic=

> <r_epik_Ionization_Penalty>
0.0273334

> <r_epik_Ionization_Penalty_Charging>
0

> <r_epik_Ionization_Penalty_Neutral>
0.0273334

> <r_epik_State_Penalty>
0.0223655

> <r_epik_Charging_Adjusted_Penalty>
0.0223655

> <i_epik_Tot_Q>
0

> <i_epik_Tot_abs_Q>
0

> <r_epik_Metal_State_Penalty>
0.0213644

> <b_epik_Metal_Only>
0

> <s_lp_Force_Field>
OPLS_2005

> <r_lp_Energy>
5.41897

> <b_lp_Chiralities_Consistent>
1

> <s_lp_Variant>
AV-unprocessed.smi:2985-1

> <Gold.Version>
5.8.1

> <Gold.Id.Protein>
6NUR|6NUR_protein|mol2

> <Gold.PLP.Fitness>
45.6595

> <Gold.PLP.PLP>
-40.9498

> <Gold.PLP.part.hbond>
-2.0000

> <Gold.PLP.part.metal>
0.0000

> <Gold.PLP.part.buried>
-5.8354

> <Gold.PLP.part.nonpolar>
-33.4360

> <Gold.PLP.part.repulsive>
0.0974

> <Gold.PLP.ligand.clash>
0.0000

> <Gold.PLP.ligand.torsion>
0.6597

> <Gold.PLP.Chemscore.Hbond>
2.0000

> <Gold.PLP.Chemscore.CHOScore>
0.0000

> <Gold.PLP.Chemscore.Metal>
0.0000

> <Gold.Chemscore.Hbonds>
donor molecule, donor type, donor heavy atom, donor atom, acceptor molecule, acceptor atom, score
      P1  H  6896  6907       L1    11  1.00
      P1  H  7989  7998       L1     2  1.00

> <Gold.PLP.Chemscore.Internal.Correction>
0.0290

> <Gold.Rescore>
     Score         DG    S(hbond)    S(metal)    S(lipo)     H(rot)  DE(clash)    DE(int)     intcor
     16.49     -17.30       1.96        0.00     103.88       2.68       0.13       0.68       ----

> <Gold.Chemscore.Fitness>
16.4922

> <Gold.Chemscore.DG>
-17.3013

> <Gold.Chemscore.ZeroCoef>
-5.4800

> <Gold.Chemscore.Hbond>
1.9555

> <Gold.Chemscore.Metal>
0.0000

> <Gold.Chemscore.Lipo>
103.8837

> <Gold.Chemscore.Internal_Hbond>
0.0000

> <Gold.Chemscore.DEClash>
0.1338

> <Gold.Chemscore.DEInternal>
0.6752

> <Gold.Chemscore.Rot>
2.6814

> <Gold.Chemscore.Internal.Correction>
   9.000000E+99

> <Gold.Chemscore.Hbonds>
donor molecule, donor type, donor heavy atom, donor atom, acceptor molecule, acceptor atom, score
      P1  H  6896  6907       L1    11  1.00
      P1  H  7989  7998       L1     2  0.26

> <Gold.Chemscore.Hbond.Weighted>
-6.5312

> <Gold.Chemscore.Metal.Weighted>
-0.0000

> <Gold.Chemscore.Lipo.Weighted>
-12.1544

> <Gold.Chemscore.Internal_Hbond.Weighted>
0.0000

> <Gold.Chemscore.DEClash.Weighted>
0.1338

> <Gold.Chemscore.DEInternal.Weighted>
0.6752

> <Gold.Chemscore.Rot.Weighted>
6.8644

> <Gold.Chemscore.Internal.Correction.Weighted>
   9.000000E+99

> <Gold.Protein.RotatedTorsions>
[ 6907 6896 6895 6894 ] final   52.11 input  -60.11 | X-H torsion
[ 7974 7965 7964 7962 ] final   50.39 input  175.53 | X-H torsion
[ 8008 7997 7996 7995 ] final   18.05 input   59.86 | X-H torsion
[ 10167 10162 10161 10158 ] final   16.06 input  -65.29 | X-H torsion
[ 10718 10713 10712 10709 ] final  -84.83 input   66.30 | X-H torsion
[ 10763 10752 10751 10750 ] final  -47.44 input  -60.55 | X-H torsion
[ 11005 11000 10999 10996 ] final    2.25 input  -57.11 | X-H torsion

> <Gold.Protein.ActiveResidues>
 VAL166  LYS551  ARG553  GLY616  TRP617  ASP618  TYR619  PRO620  LYS621  CYS622 
 ASP623  PHE694  ASN695  SER759  ASP760  ASP761  ALA762  ILE779  LEU786  VAL792 
 PHE793  MET794  SER795  GLU796  ALA797  LYS798  CYS799  TRP800  GLU811  SER814 

> <Gold.Protein.RotatedAtoms>
  152.3198  134.7394  160.0316 H   0  0  0  0  0  0  0  0  0  0  0  0  # atno 6907 bound_to 6896
  151.7847  133.3348  159.3489 H   0  0  0  0  0  0  0  0  0  0  0  0  # atno 6908 bound_to 6896
  150.7364  134.5829  159.5992 H   0  0  0  0  0  0  0  0  0  0  0  0  # atno 6909 bound_to 6896
  146.0016  139.4446  143.0011 H   0  0  0  0  0  0  0  0  0  0  0  0  # atno 7974 bound_to 7965
  154.9003  140.2999  155.5321 H   0  0  0  0  0  0  0  0  0  0  0  0  # atno 8008 bound_to 7997
  156.3018  140.2408  156.3965 H   0  0  0  0  0  0  0  0  0  0  0  0  # atno 8009 bound_to 7997
  154.8528  140.0408  157.1604 H   0  0  0  0  0  0  0  0  0  0  0  0  # atno 8010 bound_to 7997
  140.5824  143.8955  150.6801 H   0  0  0  0  0  0  0  0  0  0  0  0  # atno 10167 bound_to 10162
  156.0002  130.4711  150.4469 H   0  0  0  0  0  0  0  0  0  0  0  0  # atno 10718 bound_to 10713
  154.0615  135.6617  153.4812 H   0  0  0  0  0  0  0  0  0  0  0  0  # atno 10763 bound_to 10752
  153.0425  135.5136  154.7655 H   0  0  0  0  0  0  0  0  0  0  0  0  # atno 10764 bound_to 10752
  154.6692  135.3027  154.9731 H   0  0  0  0  0  0  0  0  0  0  0  0  # atno 10765 bound_to 10752
  140.6063  133.9789  155.8156 H   0  0  0  0  0  0  0  0  0  0  0  0  # atno 11005 bound_to 11000
  145.7478  140.9984  143.1266 LP  0  0  0  0  0  0  0  0  0  0  0  0  # atno 17320 bound_to 7965
  144.6921  139.9178  143.7466 LP  0  0  0  0  0  0  0  0  0  0  0  0  # atno 17321 bound_to 7965
  140.2458  143.3630  152.1448 LP  0  0  0  0  0  0  0  0  0  0  0  0  # atno 17342 bound_to 10162
  139.5177  144.6996  151.5531 LP  0  0  0  0  0  0  0  0  0  0  0  0  # atno 17343 bound_to 10162
  157.2506  131.0545  151.2382 LP  0  0  0  0  0  0  0  0  0  0  0  0  # atno 17370 bound_to 10713
  157.3532  130.7093  149.6454 LP  0  0  0  0  0  0  0  0  0  0  0  0  # atno 17371 bound_to 10713
  141.0838  134.0022  157.3345 LP  0  0  0  0  0  0  0  0  0  0  0  0  # atno 17394 bound_to 11000
  139.9211  135.0200  156.8066 LP  0  0  0  0  0  0  0  0  0  0  0  0  # atno 17395 bound_to 11000

$$$$
