AV-unprocessed.smi:149|AV-procd|sdf|1241|dock5
  -GOLD-   2262018453D 1   1.00000     0.00000
 Structure written by MMmdl.
 59 63  0  0  0  0  0  0  0  0  1 V2000
  151.6602  144.2433  158.0361 C   0  0  0  0  0  0  0  0  0  0  0  0
  151.1489  142.8375  158.3970 C   0  0  1  0  0  0  0  0  0  0  0  0
  150.2655  142.2680  157.2735 C   0  0  0  0  0  0  0  0  0  0  0  0
  150.8872  141.0284  156.8362 N   0  0  0  0  0  0  0  0  0  0  0  0
  150.1732  140.1525  156.0765 C   0  0  0  0  0  0  0  0  0  0  0  0
  150.5240  140.0033  154.7705 N   0  0  0  0  0  0  0  0  0  0  0  0
  149.8625  139.1571  153.9771 C   0  0  0  0  0  0  0  0  0  0  0  0
  148.8298  138.3696  154.2766 N   0  0  0  0  0  0  0  0  0  0  0  0
  148.4705  138.5032  155.5849 C   0  0  0  0  0  0  0  0  0  0  0  0
  149.0859  139.3549  156.5489 C   0  0  0  0  0  0  0  0  0  0  0  0
  148.4533  139.1907  157.7775 N   0  0  0  0  0  0  0  0  0  0  0  0
  147.5264  138.3014  157.5535 C   0  0  0  0  0  0  0  0  0  0  0  0
  147.4446  137.8587  156.2542 N   0  0  0  0  0  0  0  0  0  0  0  0
  146.5459  136.8670  155.7415 C   0  0  0  0  0  0  0  0  0  0  0  0
  146.4937  136.5470  154.2459 C   0  0  0  0  0  0  0  0  0  0  0  0
  144.9831  136.2493  154.3676 C   0  0  0  0  0  0  0  0  0  0  0  0
  144.1179  136.7883  153.2161 C   0  0  0  0  0  0  0  0  0  0  0  0
  144.6668  137.9706  152.6701 O   0  0  0  0  0  0  0  0  0  0  0  0
  144.6258  134.7721  154.6293 C   0  0  0  0  0  0  0  0  0  0  0  0
  143.2789  134.6293  155.0318 O   0  0  0  0  0  0  0  0  0  0  0  0
  145.0446  137.1431  155.6269 C   0  0  0  0  0  0  0  0  0  0  0  0
  151.7501  140.5545  157.8984 C   0  0  0  0  0  0  0  0  0  0  0  0
  152.2826  141.8047  158.6142 C   0  0  2  0  0  0  0  0  0  0  0  0
  152.6585  141.5409  160.0131 N   0  0  0  0  0  0  0  0  0  0  0  0
  153.8942  140.7606  160.1058 C   0  0  0  0  0  0  0  0  0  0  0  0
  154.3005  140.4793  161.5626 C   0  0  0  0  0  0  0  0  0  0  0  0
  154.4377  141.7088  162.2647 O   0  0  0  0  0  0  0  0  0  0  0  0
  153.2417  142.4790  162.2478 C   0  0  0  0  0  0  0  0  0  0  0  0
  152.8286  142.7659  160.7936 C   0  0  0  0  0  0  0  0  0  0  0  0
  152.2489  144.2242  157.1184 H   0  0  0  0  0  0  0  0  0  0  0  0
  152.2887  144.6636  158.8197 H   0  0  0  0  0  0  0  0  0  0  0  0
  150.8292  144.9318  157.8815 H   0  0  0  0  0  0  0  0  0  0  0  0
  150.5359  142.9021  159.2971 H   0  0  0  0  0  0  0  0  0  0  0  0
  149.2574  142.0769  157.6445 H   0  0  0  0  0  0  0  0  0  0  0  0
  150.1862  142.9584  156.4328 H   0  0  0  0  0  0  0  0  0  0  0  0
  150.2091  139.1054  152.9554 H   0  0  0  0  0  0  0  0  0  0  0  0
  146.8692  137.9490  158.3353 H   0  0  0  0  0  0  0  0  0  0  0  0
  146.7297  135.9627  156.3241 H   0  0  0  0  0  0  0  0  0  0  0  0
  146.7074  137.4205  153.6265 H   0  0  0  0  0  0  0  0  0  0  0  0
  147.1060  135.6967  153.9438 H   0  0  0  0  0  0  0  0  0  0  0  0
  143.9995  136.0511  152.4219 H   0  0  0  0  0  0  0  0  0  0  0  0
  143.1121  137.0219  153.5666 H   0  0  0  0  0  0  0  0  0  0  0  0
  144.4460  138.0085  151.7520 H   0  0  0  0  0  0  0  0  0  0  0  0
  144.7961  134.1561  153.7462 H   0  0  0  0  0  0  0  0  0  0  0  0
  145.2522  134.3495  155.4150 H   0  0  0  0  0  0  0  0  0  0  0  0
  143.0782  133.7074  155.0842 H   0  0  0  0  0  0  0  0  0  0  0  0
  144.4579  136.7900  156.4756 H   0  0  0  0  0  0  0  0  0  0  0  0
  144.8280  138.1916  155.4143 H   0  0  0  0  0  0  0  0  0  0  0  0
  151.1693  139.9285  158.5781 H   0  0  0  0  0  0  0  0  0  0  0  0
  152.5773  139.9662  157.5014 H   0  0  0  0  0  0  0  0  0  0  0  0
  153.1608  142.1479  158.0642 H   0  0  0  0  0  0  0  0  0  0  0  0
  153.7817  139.8058  159.5926 H   0  0  0  0  0  0  0  0  0  0  0  0
  154.7042  141.2908  159.6026 H   0  0  0  0  0  0  0  0  0  0  0  0
  153.5590  139.8494  162.0563 H   0  0  0  0  0  0  0  0  0  0  0  0
  155.2490  139.9434  161.5946 H   0  0  0  0  0  0  0  0  0  0  0  0
  152.4494  141.9454  162.7753 H   0  0  0  0  0  0  0  0  0  0  0  0
  153.4117  143.4122  162.7847 H   0  0  0  0  0  0  0  0  0  0  0  0
  153.5778  143.4046  160.3231 H   0  0  0  0  0  0  0  0  0  0  0  0
  151.8982  143.3314  160.8146 H   0  0  0  0  0  0  0  0  0  0  0  0
  1  2  1  0  0  0  0
  1 30  1  0  0  0  0
  1 31  1  0  0  0  0
  1 32  1  0  0  0  0
  2 23  1  0  0  0  0
  2  3  1  0  0  0  0
  2 33  1  0  0  0  0
  3  4  1  0  0  0  0
  3 34  1  0  0  0  0
  3 35  1  0  0  0  0
  4  5  1  0  0  0  0
  4 22  1  0  0  0  0
  5 10  1  0  0  0  0
  5  6  2  0  0  0  0
  6  7  1  0  0  0  0
  7  8  2  0  0  0  0
  7 36  1  0  0  0  0
  8  9  1  0  0  0  0
  9 13  1  0  0  0  0
  9 10  2  0  0  0  0
 10 11  1  0  0  0  0
 11 12  2  0  0  0  0
 12 13  1  0  0  0  0
 12 37  1  0  0  0  0
 13 14  1  0  0  0  0
 14 21  1  0  0  0  0
 14 15  1  0  0  0  0
 14 38  1  0  0  0  0
 15 16  1  0  0  0  0
 15 39  1  0  0  0  0
 15 40  1  0  0  0  0
 16 17  1  0  0  0  0
 16 19  1  0  0  0  0
 16 21  1  0  0  0  0
 17 18  1  0  0  0  0
 17 41  1  0  0  0  0
 17 42  1  0  0  0  0
 18 43  1  0  0  0  0
 19 20  1  0  0  0  0
 19 44  1  0  0  0  0
 19 45  1  0  0  0  0
 20 46  1  0  0  0  0
 21 47  1  0  0  0  0
 21 48  1  0  0  0  0
 22 23  1  0  0  0  0
 22 49  1  0  0  0  0
 22 50  1  0  0  0  0
 23 24  1  0  0  0  0
 23 51  1  0  0  0  0
 24 29  1  0  0  0  0
 24 25  1  0  0  0  0
 25 26  1  0  0  0  0
 25 52  1  0  0  0  0
 25 53  1  0  0  0  0
 26 27  1  0  0  0  0
 26 54  1  0  0  0  0
 26 55  1  0  0  0  0
 27 28  1  0  0  0  0
 28 29  1  0  0  0  0
 28 56  1  0  0  0  0
 28 57  1  0  0  0  0
 29 58  1  0  0  0  0
 29 59  1  0  0  0  0
M  END
> <s_m_source_file>
AV-unprocessed.smi

> <i_m_source_file_index>
149

> <i_lp_mmshare_version>
43012

> <i_f3d_flags>
0

> <s_epik_input>
W0NIMl0xW0NIMl1PW0NIMl1bQ0gyXU4xW0NAQEhdMltDSDJdTihbQ0gyXVtDQEhdMltDSDNdKWMobltjSF1uMyljKGMzNCluW2NIXW40W0NIXShbQ0gyXTUpW0NIMl1DNShbQ0gyXVtPSF0pW0NIMl1bT0hd

> <s_epik_cmdline>
J2VwaWtfcHl0aG9uJywgJy1waCcsICc3LjAnLCAnLXRuJywgJzgnLCAnLW1hJywgJzIwMCcsICctbWV0YWxfYmluZGluZycsICctaW1hZScsICc8aW5maWxlLm1hZT4nLCAnLW9tYWUnLCAnPG91dGZpbGUubWFlPic=

> <r_lp_tautomer_probability>
1

> <r_epik_Ionization_Penalty>
0.41918

> <r_epik_Ionization_Penalty_Charging>
0

> <r_epik_Ionization_Penalty_Neutral>
0.41918

> <r_epik_State_Penalty>
0.654916

> <r_epik_Charging_Adjusted_Penalty>
0.654916

> <i_epik_Tot_Q>
0

> <i_epik_Tot_abs_Q>
0

> <r_epik_Metal_State_Penalty>
0.653217

> <b_epik_Metal_Only>
0

> <s_lp_Force_Field>
OPLS_2005

> <r_lp_Energy>
73.5543

> <b_lp_Chiralities_Consistent>
1

> <s_lp_Variant>
AV-unprocessed.smi:149-8

> <Gold.Version>
5.8.1

> <Gold.Id.Protein>
6NUR|6NUR_protein|mol2

> <Gold.PLP.Fitness>
51.7639

> <Gold.PLP.PLP>
-40.4991

> <Gold.PLP.part.hbond>
-5.0000

> <Gold.PLP.part.metal>
0.0000

> <Gold.PLP.part.buried>
-5.2291

> <Gold.PLP.part.nonpolar>
-30.6920

> <Gold.PLP.part.repulsive>
0.3044

> <Gold.PLP.ligand.clash>
0.0000

> <Gold.PLP.ligand.torsion>
0.7870

> <Gold.PLP.Chemscore.Hbond>
2.9913

> <Gold.PLP.Chemscore.CHOScore>
1.0000

> <Gold.PLP.Chemscore.Metal>
0.0000

> <Gold.Chemscore.Hbonds>
donor molecule, donor type, donor heavy atom, donor atom, acceptor molecule, acceptor atom, score
      L1  H    18    43       P1 10171  0.83
      L1  H    20    46       P1 10957  1.00
      P1  H  7989  7998       L1     6  1.00
      L1  C     7    36       P1  7957  1.00

> <Gold.PLP.Chemscore.Internal.Correction>
0.8650

> <Gold.Rescore>
     Score         DG    S(hbond)    S(metal)    S(lipo)     H(rot)  DE(clash)    DE(int)     intcor
     12.83     -15.54       2.45        0.00      89.04       3.34       0.65       2.07       ----

> <Gold.Chemscore.Fitness>
12.8256

> <Gold.Chemscore.DG>
-15.5403

> <Gold.Chemscore.ZeroCoef>
-5.4800

> <Gold.Chemscore.Hbond>
2.4542

> <Gold.Chemscore.Metal>
0.0000

> <Gold.Chemscore.Lipo>
89.0409

> <Gold.Chemscore.Internal_Hbond>
0.0000

> <Gold.Chemscore.DEClash>
0.6490

> <Gold.Chemscore.DEInternal>
2.0658

> <Gold.Chemscore.Rot>
3.3416

> <Gold.Chemscore.Internal.Correction>
   9.000000E+99

> <Gold.Chemscore.Hbonds>
donor molecule, donor type, donor heavy atom, donor atom, acceptor molecule, acceptor atom, score
      L1  H    18    43       P1 10171  0.80
      L1  H    20    46       P1 10957  0.96
      P1  H  7989  7998       L1     6  0.26

> <Gold.Chemscore.Hbond.Weighted>
-8.1970

> <Gold.Chemscore.Metal.Weighted>
-0.0000

> <Gold.Chemscore.Lipo.Weighted>
-10.4178

> <Gold.Chemscore.Internal_Hbond.Weighted>
0.0000

> <Gold.Chemscore.DEClash.Weighted>
0.6490

> <Gold.Chemscore.DEInternal.Weighted>
2.0658

> <Gold.Chemscore.Rot.Weighted>
8.5545

> <Gold.Chemscore.Internal.Correction.Weighted>
   9.000000E+99

> <Gold.Protein.RotatedTorsions>
[ 6907 6896 6895 6894 ] final  133.54 input  -60.11 | X-H torsion
[ 7974 7965 7964 7962 ] final  -73.09 input  175.53 | X-H torsion
[ 8008 7997 7996 7995 ] final   25.14 input   59.86 | X-H torsion
[ 10167 10162 10161 10158 ] final  159.01 input  -65.29 | X-H torsion
[ 10718 10713 10712 10709 ] final -107.43 input   66.30 | X-H torsion
[ 10763 10752 10751 10750 ] final  -57.21 input  -60.55 | X-H torsion
[ 11005 11000 10999 10996 ] final  123.22 input  -57.11 | X-H torsion

> <Gold.Protein.ActiveResidues>
 VAL166  LYS551  ARG553  GLY616  TRP617  ASP618  TYR619  PRO620  LYS621  CYS622 
 ASP623  PHE694  ASN695  SER759  ASP760  ASP761  ALA762  ILE779  LEU786  VAL792 
 PHE793  MET794  SER795  GLU796  ALA797  LYS798  CYS799  TRP800  GLU811  SER814 

> <Gold.Protein.RotatedAtoms>
  152.3209  133.5852  159.5743 H   0  0  0  0  0  0  0  0  0  0  0  0  # atno 6907 bound_to 6896
  150.7371  134.0013  159.3648 H   0  0  0  0  0  0  0  0  0  0  0  0  # atno 6908 bound_to 6896
  151.7897  135.0739  160.0436 H   0  0  0  0  0  0  0  0  0  0  0  0  # atno 6909 bound_to 6896
  145.6567  140.9265  143.0955 H   0  0  0  0  0  0  0  0  0  0  0  0  # atno 7974 bound_to 7965
  155.0071  140.3132  155.4844 H   0  0  0  0  0  0  0  0  0  0  0  0  # atno 8008 bound_to 7997
  156.2915  140.2221  156.5125 H   0  0  0  0  0  0  0  0  0  0  0  0  # atno 8009 bound_to 7997
  154.7567  140.0462  157.0927 H   0  0  0  0  0  0  0  0  0  0  0  0  # atno 8010 bound_to 7997
  139.4830  144.4771  151.8496 H   0  0  0  0  0  0  0  0  0  0  0  0  # atno 10167 bound_to 10162
  156.0436  130.5662  150.7820 H   0  0  0  0  0  0  0  0  0  0  0  0  # atno 10718 bound_to 10713
  154.2189  135.6381  153.5138 H   0  0  0  0  0  0  0  0  0  0  0  0  # atno 10763 bound_to 10752
  152.9973  135.5492  154.6135 H   0  0  0  0  0  0  0  0  0  0  0  0  # atno 10764 bound_to 10752
  154.5591  135.2907  155.0910 H   0  0  0  0  0  0  0  0  0  0  0  0  # atno 10765 bound_to 10752
  139.9303  134.9641  156.8226 H   0  0  0  0  0  0  0  0  0  0  0  0  # atno 11005 bound_to 11000
  144.7103  139.8396  143.7416 LP  0  0  0  0  0  0  0  0  0  0  0  0  # atno 17320 bound_to 7965
  146.1159  139.4170  143.0259 LP  0  0  0  0  0  0  0  0  0  0  0  0  # atno 17321 bound_to 7965
  140.4244  144.2200  150.5887 LP  0  0  0  0  0  0  0  0  0  0  0  0  # atno 17342 bound_to 10162
  140.4842  143.2369  151.8912 LP  0  0  0  0  0  0  0  0  0  0  0  0  # atno 17343 bound_to 10162
  157.5285  131.0935  150.9987 LP  0  0  0  0  0  0  0  0  0  0  0  0  # atno 17370 bound_to 10713
  157.0299  130.5707  149.5342 LP  0  0  0  0  0  0  0  0  0  0  0  0  # atno 17371 bound_to 10713
  140.6221  133.9984  155.7623 LP  0  0  0  0  0  0  0  0  0  0  0  0  # atno 17394 bound_to 11000
  141.0887  133.9951  157.3272 LP  0  0  0  0  0  0  0  0  0  0  0  0  # atno 17395 bound_to 11000

$$$$
