AV-unprocessed.smi:937|AV-procd|sdf|4214|dock3
  -GOLD-   22720 2123D 1   1.00000     0.00000
 Structure written by MMmdl.
 46 47  0  0  0  0  0  0  0  0  2 V2000
  151.4118  145.2249  158.9590 C   0  0  0  0  0  0  0  0  0  0  0  0
  151.3291  143.7990  158.4569 C   0  0  0  0  0  0  0  0  0  0  0  0
  152.0608  142.7489  159.0527 C   0  0  0  0  0  0  0  0  0  0  0  0
  151.9337  141.4419  158.5378 C   0  0  0  0  0  0  0  0  0  0  0  0
  151.0770  141.2114  157.4393 C   0  0  0  0  0  0  0  0  0  0  0  0
  150.9160  139.8200  156.8600 C   0  0  0  0  0  0  0  0  0  0  0  0
  151.2412  138.7230  157.8864 C   0  0  0  0  0  0  0  0  0  0  0  0
  150.0270  138.1165  158.4180 N   0  0  0  0  0  0  0  0  0  0  0  0
  149.9795  137.3104  159.4923 C   0  0  0  0  0  0  0  0  0  0  0  0
  150.9709  137.0108  160.1556 O   0  0  0  0  0  0  0  0  0  0  0  0
  148.7555  136.8414  159.7949 N   0  0  0  0  0  0  0  0  0  0  0  0
  148.3658  135.9514  160.8901 C   0  0  1  0  0  0  0  0  0  0  0  0
  147.2045  136.5606  161.7024 C   0  0  0  0  0  0  0  0  0  0  0  0
  146.7261  135.5990  162.7999 C   0  0  0  0  0  0  0  0  0  0  0  0
  146.3312  134.2347  162.2137 C   0  0  0  0  0  0  0  0  0  0  0  0
  147.4884  133.6049  161.4099 C   0  0  1  0  0  0  0  0  0  0  0  0
  147.1081  132.2259  160.8322 C   0  0  0  0  0  0  0  0  0  0  0  0
  148.1553  131.6561  160.2350 F   0  0  0  0  0  0  0  0  0  0  0  0
  146.6798  131.4245  161.8076 F   0  0  0  0  0  0  0  0  0  0  0  0
  146.1244  132.3590  159.9424 F   0  0  0  0  0  0  0  0  0  0  0  0
  147.9620  134.5815  160.3118 C   0  0  0  0  0  0  0  0  0  0  0  0
  150.3711  142.3000  156.8836 C   0  0  0  0  0  0  0  0  0  0  0  0
  150.5201  143.5370  157.4059 N   0  3  0  0  0  0  0  0  0  0  0  0
  152.3600  145.4025  159.4671 H   0  0  0  0  0  0  0  0  0  0  0  0
  150.6033  145.4239  159.6626 H   0  0  0  0  0  0  0  0  0  0  0  0
  151.3325  145.9334  158.1337 H   0  0  0  0  0  0  0  0  0  0  0  0
  152.7107  142.9401  159.8942 H   0  0  0  0  0  0  0  0  0  0  0  0
  152.4878  140.6278  158.9820 H   0  0  0  0  0  0  0  0  0  0  0  0
  149.8951  139.6995  156.4944 H   0  0  0  0  0  0  0  0  0  0  0  0
  151.5661  139.7288  155.9887 H   0  0  0  0  0  0  0  0  0  0  0  0
  151.8732  137.9539  157.4387 H   0  0  0  0  0  0  0  0  0  0  0  0
  151.8069  139.1444  158.7178 H   0  0  0  0  0  0  0  0  0  0  0  0
  149.1638  138.3137  157.9327 H   0  0  0  0  0  0  0  0  0  0  0  0
  148.0021  137.1460  159.1951 H   0  0  0  0  0  0  0  0  0  0  0  0
  149.2201  135.7921  161.5507 H   0  0  0  0  0  0  0  0  0  0  0  0
  147.5093  137.5046  162.1553 H   0  0  0  0  0  0  0  0  0  0  0  0
  146.3711  136.7931  161.0380 H   0  0  0  0  0  0  0  0  0  0  0  0
  147.5171  135.4644  163.5387 H   0  0  0  0  0  0  0  0  0  0  0  0
  145.8785  136.0339  163.3302 H   0  0  0  0  0  0  0  0  0  0  0  0
  146.0290  133.5688  163.0225 H   0  0  0  0  0  0  0  0  0  0  0  0
  145.4578  134.3552  161.5718 H   0  0  0  0  0  0  0  0  0  0  0  0
  148.3223  133.4499  162.0965 H   0  0  0  0  0  0  0  0  0  0  0  0
  147.1677  134.7140  159.5755 H   0  0  0  0  0  0  0  0  0  0  0  0
  148.8084  134.1512  159.7752 H   0  0  0  0  0  0  0  0  0  0  0  0
  149.6972  142.2196  156.0428 H   0  0  0  0  0  0  0  0  0  0  0  0
  149.9982  144.3075  156.9879 H   0  0  0  0  0  0  0  0  0  0  0  0
  1  2  1  0  0  0  0
  1 24  1  0  0  0  0
  1 25  1  0  0  0  0
  1 26  1  0  0  0  0
  2 23  1  0  0  0  0
  2  3  2  0  0  0  0
  3  4  1  0  0  0  0
  3 27  1  0  0  0  0
  4  5  2  0  0  0  0
  4 28  1  0  0  0  0
  5  6  1  0  0  0  0
  5 22  1  0  0  0  0
  6  7  1  0  0  0  0
  6 29  1  0  0  0  0
  6 30  1  0  0  0  0
  7  8  1  0  0  0  0
  7 31  1  0  0  0  0
  7 32  1  0  0  0  0
  8  9  1  0  0  0  0
  8 33  1  0  0  0  0
  9 10  2  0  0  0  0
  9 11  1  0  0  0  0
 11 12  1  0  0  0  0
 11 34  1  0  0  0  0
 12 21  1  0  0  0  0
 12 13  1  0  0  0  0
 12 35  1  0  0  0  0
 13 14  1  0  0  0  0
 13 36  1  0  0  0  0
 13 37  1  0  0  0  0
 14 15  1  0  0  0  0
 14 38  1  0  0  0  0
 14 39  1  0  0  0  0
 15 16  1  0  0  0  0
 15 40  1  0  0  0  0
 15 41  1  0  0  0  0
 16 17  1  0  0  0  0
 16 21  1  0  0  0  0
 16 42  1  0  0  0  0
 17 18  1  0  0  0  0
 17 19  1  0  0  0  0
 17 20  1  0  0  0  0
 21 43  1  0  0  0  0
 21 44  1  0  0  0  0
 22 23  2  0  0  0  0
 22 45  1  0  0  0  0
 23 46  1  0  0  0  0
M  CHG  1  23   1
M  END
> <s_m_source_file>
AV-unprocessed.smi

> <i_m_source_file_index>
937

> <i_lp_mmshare_version>
43012

> <i_f3d_flags>
0

> <s_epik_input>
W0NIM11jMVtjSF1bY0hdYyhbY0hdbjEpW0NIMl1bQ0gyXVtOSF1DKD1PKVtOSF1bQ0BASF0yW0NIMl1bQ0gyXVtDSDJdW0NAQEhdKEMoRikoRilGKVtDSDJdMg==

> <s_epik_cmdline>
J2VwaWtfcHl0aG9uJywgJy1waCcsICc3LjAnLCAnLXRuJywgJzgnLCAnLW1hJywgJzIwMCcsICctbWV0YWxfYmluZGluZycsICctaW1hZScsICc8aW5maWxlLm1hZT4nLCAnLW9tYWUnLCAnPG91dGZpbGUubWFlPic=

> <r_epik_Ionization_Penalty>
1.4226

> <r_epik_Ionization_Penalty_Charging>
1.42255

> <r_epik_Ionization_Penalty_Neutral>
5.16456e-05

> <r_epik_State_Penalty>
1.50646

> <r_epik_Charging_Adjusted_Penalty>
2.92901

> <i_epik_Tot_Q>
1

> <i_epik_Tot_abs_Q>
1

> <r_epik_Metal_State_Penalty>
1.55846

> <b_epik_Metal_Only>
0

> <s_lp_Force_Field>
OPLS_2005

> <r_lp_Energy>
24.5693

> <b_lp_Chiralities_Consistent>
1

> <s_lp_Variant>
AV-unprocessed.smi:937-6

> <Gold.Version>
5.8.1

> <Gold.Id.Protein>
6NUR|6NUR_protein|mol2

> <Gold.PLP.Fitness>
47.9880

> <Gold.PLP.PLP>
-41.6809

> <Gold.PLP.part.hbond>
-2.0000

> <Gold.PLP.part.metal>
0.0000

> <Gold.PLP.part.buried>
-4.6291

> <Gold.PLP.part.nonpolar>
-36.9505

> <Gold.PLP.part.repulsive>
0.3307

> <Gold.PLP.ligand.clash>
0.0000

> <Gold.PLP.ligand.torsion>
0.8085

> <Gold.PLP.Chemscore.Hbond>
2.6320

> <Gold.PLP.Chemscore.CHOScore>
0.0000

> <Gold.PLP.Chemscore.Metal>
0.0000

> <Gold.Chemscore.Hbonds>
donor molecule, donor type, donor heavy atom, donor atom, acceptor molecule, acceptor atom, score
      L1  H    23    46       P1  8028  1.79
      P1  H  6896  6907       L1    10  1.00

> <Gold.PLP.Chemscore.Internal.Correction>
0.0280

> <Gold.Rescore>
     Score         DG    S(hbond)    S(metal)    S(lipo)     H(rot)  DE(clash)    DE(int)     intcor
     20.28     -21.01       1.97        0.00     112.88       1.66       0.05       0.68       ----

> <Gold.Chemscore.Fitness>
20.2792

> <Gold.Chemscore.DG>
-21.0144

> <Gold.Chemscore.ZeroCoef>
-5.4800

> <Gold.Chemscore.Hbond>
1.9681

> <Gold.Chemscore.Metal>
0.0000

> <Gold.Chemscore.Lipo>
112.8771

> <Gold.Chemscore.Internal_Hbond>
0.0000

> <Gold.Chemscore.DEClash>
0.0536

> <Gold.Chemscore.DEInternal>
0.6816

> <Gold.Chemscore.Rot>
1.6585

> <Gold.Chemscore.Internal.Correction>
   9.000000E+99

> <Gold.Chemscore.Hbonds>
donor molecule, donor type, donor heavy atom, donor atom, acceptor molecule, acceptor atom, score
      L1  H    23    46       P1  8028  0.69
      P1  H  6896  6907       L1    10  0.38

> <Gold.Chemscore.Hbond.Weighted>
-6.5735

> <Gold.Chemscore.Metal.Weighted>
-0.0000

> <Gold.Chemscore.Lipo.Weighted>
-13.2066

> <Gold.Chemscore.Internal_Hbond.Weighted>
0.0000

> <Gold.Chemscore.DEClash.Weighted>
0.0536

> <Gold.Chemscore.DEInternal.Weighted>
0.6816

> <Gold.Chemscore.Rot.Weighted>
4.2457

> <Gold.Chemscore.Internal.Correction.Weighted>
   9.000000E+99

> <Gold.Protein.RotatedTorsions>
[ 6907 6896 6895 6894 ] final  -29.43 input  -60.11 | X-H torsion
[ 7974 7965 7964 7962 ] final   28.60 input  175.53 | X-H torsion
[ 8008 7997 7996 7995 ] final  -52.83 input   59.86 | X-H torsion
[ 10167 10162 10161 10158 ] final -113.70 input  -65.29 | X-H torsion
[ 10718 10713 10712 10709 ] final  -95.94 input   66.30 | X-H torsion
[ 10763 10752 10751 10750 ] final  163.91 input  -60.55 | X-H torsion
[ 11005 11000 10999 10996 ] final -120.86 input  -57.11 | X-H torsion

> <Gold.Protein.ActiveResidues>
 VAL166  LYS551  ARG553  GLY616  TRP617  ASP618  TYR619  PRO620  LYS621  CYS622 
 ASP623  PHE694  ASN695  SER759  ASP760  ASP761  ALA762  ILE779  LEU786  VAL792 
 PHE793  MET794  SER795  GLU796  ALA797  LYS798  CYS799  TRP800  GLU811  SER814 

> <Gold.Protein.RotatedAtoms>
  151.1192  135.0070  159.8530 H   0  0  0  0  0  0  0  0  0  0  0  0  # atno 6907 bound_to 6896
  152.5447  134.1742  159.8619 H   0  0  0  0  0  0  0  0  0  0  0  0  # atno 6908 bound_to 6896
  151.1799  133.4686  159.2627 H   0  0  0  0  0  0  0  0  0  0  0  0  # atno 6909 bound_to 6896
  146.1719  139.7034  142.8961 H   0  0  0  0  0  0  0  0  0  0  0  0  # atno 7974 bound_to 7965
  154.4117  140.1214  156.5055 H   0  0  0  0  0  0  0  0  0  0  0  0  # atno 8008 bound_to 7997
  155.6852  140.3496  155.4852 H   0  0  0  0  0  0  0  0  0  0  0  0  # atno 8009 bound_to 7997
  155.9517  140.1106  157.0961 H   0  0  0  0  0  0  0  0  0  0  0  0  # atno 8010 bound_to 7997
  140.1090  143.4545  152.1765 H   0  0  0  0  0  0  0  0  0  0  0  0  # atno 10167 bound_to 10162
  156.0052  130.5130  150.6151 H   0  0  0  0  0  0  0  0  0  0  0  0  # atno 10718 bound_to 10713
  154.3008  135.2759  155.2612 H   0  0  0  0  0  0  0  0  0  0  0  0  # atno 10763 bound_to 10752
  154.5049  135.5798  153.6563 H   0  0  0  0  0  0  0  0  0  0  0  0  # atno 10764 bound_to 10752
  152.9901  135.6167  154.3179 H   0  0  0  0  0  0  0  0  0  0  0  0  # atno 10765 bound_to 10752
  141.0112  134.0261  157.3410 H   0  0  0  0  0  0  0  0  0  0  0  0  # atno 11005 bound_to 11000
  145.4316  141.0415  143.2908 LP  0  0  0  0  0  0  0  0  0  0  0  0  # atno 17320 bound_to 7965
  144.8177  139.5847  143.7001 LP  0  0  0  0  0  0  0  0  0  0  0  0  # atno 17321 bound_to 7965
  139.5630  144.7417  151.4102 LP  0  0  0  0  0  0  0  0  0  0  0  0  # atno 17342 bound_to 10162
  140.6936  143.7802  150.7293 LP  0  0  0  0  0  0  0  0  0  0  0  0  # atno 17343 bound_to 10162
  157.3977  131.0805  151.1337 LP  0  0  0  0  0  0  0  0  0  0  0  0  # atno 17370 bound_to 10713
  157.2009  130.6394  149.5738 LP  0  0  0  0  0  0  0  0  0  0  0  0  # atno 17371 bound_to 10713
  139.9091  135.0186  156.7615 LP  0  0  0  0  0  0  0  0  0  0  0  0  # atno 17394 bound_to 11000
  140.6730  133.9543  155.7867 LP  0  0  0  0  0  0  0  0  0  0  0  0  # atno 17395 bound_to 11000

$$$$
