AV-unprocessed.smi:1047|AV-procd|sdf|4582|dock6
  -GOLD-   22720 3 53D 1   1.00000     0.00000
 Structure written by MMmdl.
 58 60  0  0  0  0  0  0  0  0  4 V2000
  145.0447  133.6483  150.5228 C   0  0  0  0  0  0  0  0  0  0  0  0
  145.9092  134.8438  150.9474 C   0  0  0  0  0  0  0  0  0  0  0  0
  145.1675  136.1315  150.8868 N   0  3  1  0  0  0  0  0  0  0  0  0
  143.8483  136.0873  151.5634 C   0  0  0  0  0  0  0  0  0  0  0  0
  144.0033  136.1899  153.0910 C   0  0  0  0  0  0  0  0  0  0  0  0
  144.7129  137.3797  153.4147 O   0  0  0  0  0  0  0  0  0  0  0  0
  146.0314  137.3987  152.8776 C   0  0  2  0  0  0  0  0  0  0  0  0
  146.7076  138.6915  153.3650 C   0  0  0  0  0  0  0  0  0  0  0  0
  148.1786  138.6235  153.2442 N   0  3  0  0  0  0  0  0  0  0  0  0
  148.9030  139.0668  154.4530 C   0  0  0  0  0  0  0  0  0  0  0  0
  150.4210  138.8675  154.3030 C   0  0  2  0  0  0  0  0  0  0  0  0
  150.6664  137.5165  153.9634 O   0  0  0  0  0  0  0  0  0  0  0  0
  151.1788  139.2229  155.5980 C   0  0  0  0  0  0  0  0  0  0  0  0
  150.9281  140.6000  156.0498 N   0  0  0  0  0  0  0  0  0  0  0  0
  150.1851  141.5821  155.4697 C   0  0  0  0  0  0  0  0  0  0  0  0
  150.2552  142.6797  156.2719 N   0  3  0  0  0  0  0  0  0  0  0  0
  151.0519  142.3956  157.3828 C   0  0  0  0  0  0  0  0  0  0  0  0
  151.4174  143.1864  158.4655 C   0  0  0  0  0  0  0  0  0  0  0  0
  152.2495  142.5965  159.4432 C   0  0  0  0  0  0  0  0  0  0  0  0
  152.6706  143.4346  160.6384 C   0  0  0  0  0  0  0  0  0  0  0  0
  152.6852  141.2522  159.3159 C   0  0  0  0  0  0  0  0  0  0  0  0
  153.5751  140.6265  160.3764 C   0  0  0  0  0  0  0  0  0  0  0  0
  152.3044  140.4650  158.2055 C   0  0  0  0  0  0  0  0  0  0  0  0
  151.4847  141.0615  157.2497 C   0  0  0  0  0  0  0  0  0  0  0  0
  145.9405  137.3192  151.3347 C   0  0  0  0  0  0  0  0  0  0  0  0
  145.5867  132.7137  150.6699 H   0  0  0  0  0  0  0  0  0  0  0  0
  144.7646  133.6946  149.4709 H   0  0  0  0  0  0  0  0  0  0  0  0
  144.1299  133.5936  151.1136 H   0  0  0  0  0  0  0  0  0  0  0  0
  146.2297  134.6677  151.9749 H   0  0  0  0  0  0  0  0  0  0  0  0
  146.8184  134.8873  150.3486 H   0  0  0  0  0  0  0  0  0  0  0  0
  143.2508  136.9267  151.2053 H   0  0  0  0  0  0  0  0  0  0  0  0
  143.3011  135.1850  151.2877 H   0  0  0  0  0  0  0  0  0  0  0  0
  143.0221  136.2271  153.5640 H   0  0  0  0  0  0  0  0  0  0  0  0
  144.5172  135.3179  153.4984 H   0  0  0  0  0  0  0  0  0  0  0  0
  146.5835  136.5459  153.2754 H   0  0  0  0  0  0  0  0  0  0  0  0
  146.3287  139.5512  152.8106 H   0  0  0  0  0  0  0  0  0  0  0  0
  146.4590  138.8561  154.4144 H   0  0  0  0  0  0  0  0  0  0  0  0
  148.4443  137.6670  153.0549 H   0  0  0  0  0  0  0  0  0  0  0  0
  148.6847  140.1231  154.6167 H   0  0  0  0  0  0  0  0  0  0  0  0
  148.5327  138.5258  155.3252 H   0  0  0  0  0  0  0  0  0  0  0  0
  150.7924  139.4961  153.4924 H   0  0  0  0  0  0  0  0  0  0  0  0
  149.9964  137.2318  153.3597 H   0  0  0  0  0  0  0  0  0  0  0  0
  150.8621  138.5610  156.4051 H   0  0  0  0  0  0  0  0  0  0  0  0
  152.2523  139.0697  155.4855 H   0  0  0  0  0  0  0  0  0  0  0  0
  149.6372  141.5058  154.5415 H   0  0  0  0  0  0  0  0  0  0  0  0
  151.0809  144.2089  158.5568 H   0  0  0  0  0  0  0  0  0  0  0  0
  152.3042  142.9923  161.5650 H   0  0  0  0  0  0  0  0  0  0  0  0
  152.2758  144.4489  160.5738 H   0  0  0  0  0  0  0  0  0  0  0  0
  153.7571  143.5047  160.6933 H   0  0  0  0  0  0  0  0  0  0  0  0
  153.8063  139.5870  160.1420 H   0  0  0  0  0  0  0  0  0  0  0  0
  153.0827  140.6459  161.3492 H   0  0  0  0  0  0  0  0  0  0  0  0
  154.5181  141.1681  160.4539 H   0  0  0  0  0  0  0  0  0  0  0  0
  152.6422  139.4438  158.1096 H   0  0  0  0  0  0  0  0  0  0  0  0
  146.9325  137.3284  150.8848 H   0  0  0  0  0  0  0  0  0  0  0  0
  145.4322  138.2081  150.9585 H   0  0  0  0  0  0  0  0  0  0  0  0
  148.4703  139.2001  152.4680 H   0  0  0  0  0  0  0  0  0  0  0  0
  144.9665  136.2702  149.9063 H   0  0  0  0  0  0  0  0  0  0  0  0
  149.7906  143.5571  156.0747 H   0  0  0  0  0  0  0  0  0  0  0  0
  1  2  1  0  0  0  0
  1 26  1  0  0  0  0
  1 27  1  0  0  0  0
  1 28  1  0  0  0  0
  2  3  1  0  0  0  0
  2 29  1  0  0  0  0
  2 30  1  0  0  0  0
  3 25  1  0  0  0  0
  3  4  1  0  0  0  0
  3 57  1  0  0  0  0
  4  5  1  0  0  0  0
  4 31  1  0  0  0  0
  4 32  1  0  0  0  0
  5  6  1  0  0  0  0
  5 33  1  0  0  0  0
  5 34  1  0  0  0  0
  6  7  1  0  0  0  0
  7  8  1  0  0  0  0
  7 25  1  0  0  0  0
  7 35  1  0  0  0  0
  8  9  1  0  0  0  0
  8 36  1  0  0  0  0
  8 37  1  0  0  0  0
  9 10  1  0  0  0  0
  9 38  1  0  0  0  0
  9 56  1  0  0  0  0
 10 11  1  0  0  0  0
 10 39  1  0  0  0  0
 10 40  1  0  0  0  0
 11 12  1  0  0  0  0
 11 13  1  0  0  0  0
 11 41  1  0  0  0  0
 12 42  1  0  0  0  0
 13 14  1  0  0  0  0
 13 43  1  0  0  0  0
 13 44  1  0  0  0  0
 14 24  1  0  0  0  0
 14 15  1  0  0  0  0
 15 16  2  0  0  0  0
 15 45  1  0  0  0  0
 16 17  1  0  0  0  0
 16 58  1  0  0  0  0
 17 24  2  0  0  0  0
 17 18  1  0  0  0  0
 18 19  2  0  0  0  0
 18 46  1  0  0  0  0
 19 20  1  0  0  0  0
 19 21  1  0  0  0  0
 20 47  1  0  0  0  0
 20 48  1  0  0  0  0
 20 49  1  0  0  0  0
 21 22  1  0  0  0  0
 21 23  2  0  0  0  0
 22 50  1  0  0  0  0
 22 51  1  0  0  0  0
 22 52  1  0  0  0  0
 23 24  1  0  0  0  0
 23 53  1  0  0  0  0
 25 54  1  0  0  0  0
 25 55  1  0  0  0  0
M  CHG  1   3   1
M  CHG  1   9   1
M  CHG  1  16   1
M  END
> <s_m_source_file>
AV-unprocessed.smi

> <i_m_source_file_index>
1047

> <i_lp_mmshare_version>
43012

> <i_f3d_flags>
0

> <s_epik_input>
W0NIM11bQ0gyXU4xW0NIMl1bQ0gyXU9bQ0BIXShbQ0gyXTEpW0NIMl1bTkhdW0NIMl1bQ0BIXShbT0hdKVtDSDJdbihbY0hdbjIpYyhjMjMpW2NIXWMoW0NIM10pYyhbY0hdMylbQ0gzXQ==

> <s_epik_cmdline>
J2VwaWtfcHl0aG9uJywgJy1waCcsICc3LjAnLCAnLXRuJywgJzgnLCAnLW1hJywgJzIwMCcsICctbWV0YWxfYmluZGluZycsICctaW1hZScsICc8aW5maWxlLm1hZT4nLCAnLW9tYWUnLCAnPG91dGZpbGUubWFlPic=

> <r_epik_Ionization_Penalty>
1.6114

> <r_epik_Ionization_Penalty_Charging>
1.61139

> <r_epik_Ionization_Penalty_Neutral>
5.04732e-06

> <r_epik_State_Penalty>
1.63724

> <r_epik_Charging_Adjusted_Penalty>
3.24864

> <i_epik_Tot_Q>
3

> <i_epik_Tot_abs_Q>
3

> <r_epik_Metal_State_Penalty>
5.64594

> <b_epik_Metal_Only>
0

> <s_lp_Force_Field>
OPLS_2005

> <r_lp_Energy>
42.8961

> <b_lp_Chiralities_Consistent>
1

> <s_lp_Variant>
AV-unprocessed.smi:1047-23

> <Gold.Version>
5.8.1

> <Gold.Id.Protein>
6NUR|6NUR_protein|mol2

> <Gold.PLP.Fitness>
66.8663

> <Gold.PLP.PLP>
-49.8619

> <Gold.PLP.part.hbond>
-6.0000

> <Gold.PLP.part.metal>
0.0000

> <Gold.PLP.part.buried>
-5.0408

> <Gold.PLP.part.nonpolar>
-40.5842

> <Gold.PLP.part.repulsive>
0.3368

> <Gold.PLP.ligand.clash>
0.0000

> <Gold.PLP.ligand.torsion>
0.5565

> <Gold.PLP.Chemscore.Hbond>
6.0000

> <Gold.PLP.Chemscore.CHOScore>
0.0000

> <Gold.PLP.Chemscore.Metal>
0.0000

> <Gold.Chemscore.Hbonds>
donor molecule, donor type, donor heavy atom, donor atom, acceptor molecule, acceptor atom, score
      L1  H     9    38       P1  7948  2.00
      L1  H     9    56       P1  7957  1.00
      L1  H    12    42       P1  7948  0.99
      L1  H    16    58       P1  8028  1.98

> <Gold.PLP.Chemscore.Internal.Correction>
0.1173

> <Gold.Rescore>
     Score         DG    S(hbond)    S(metal)    S(lipo)     H(rot)  DE(clash)    DE(int)     intcor
     22.24     -24.01       3.25        0.00     126.54       2.78       0.33       1.44       ----

> <Gold.Chemscore.Fitness>
22.2398

> <Gold.Chemscore.DG>
-24.0138

> <Gold.Chemscore.ZeroCoef>
-5.4800

> <Gold.Chemscore.Hbond>
3.2507

> <Gold.Chemscore.Metal>
0.0000

> <Gold.Chemscore.Lipo>
126.5424

> <Gold.Chemscore.Internal_Hbond>
0.0000

> <Gold.Chemscore.DEClash>
0.3349

> <Gold.Chemscore.DEInternal>
1.4391

> <Gold.Chemscore.Rot>
2.7848

> <Gold.Chemscore.Internal.Correction>
   9.000000E+99

> <Gold.Chemscore.Hbonds>
donor molecule, donor type, donor heavy atom, donor atom, acceptor molecule, acceptor atom, score
      L1  H     9    38       P1  7948  0.96
      L1  H     9    56       P1  7957  0.99
      L1  H    12    42       P1  7948  0.28
      L1  H    16    58       P1  8028  0.92

> <Gold.Chemscore.Hbond.Weighted>
-10.8574

> <Gold.Chemscore.Metal.Weighted>
-0.0000

> <Gold.Chemscore.Lipo.Weighted>
-14.8055

> <Gold.Chemscore.Internal_Hbond.Weighted>
0.0000

> <Gold.Chemscore.DEClash.Weighted>
0.3349

> <Gold.Chemscore.DEInternal.Weighted>
1.4391

> <Gold.Chemscore.Rot.Weighted>
7.1291

> <Gold.Chemscore.Internal.Correction.Weighted>
   9.000000E+99

> <Gold.Protein.RotatedTorsions>
[ 6907 6896 6895 6894 ] final    2.75 input  -60.11 | X-H torsion
[ 7974 7965 7964 7962 ] final  122.48 input  175.53 | X-H torsion
[ 8008 7997 7996 7995 ] final   -4.19 input   59.86 | X-H torsion
[ 10167 10162 10161 10158 ] final  -25.25 input  -65.29 | X-H torsion
[ 10718 10713 10712 10709 ] final  106.58 input   66.30 | X-H torsion
[ 10763 10752 10751 10750 ] final  152.07 input  -60.55 | X-H torsion
[ 11005 11000 10999 10996 ] final  -65.26 input  -57.11 | X-H torsion

> <Gold.Protein.ActiveResidues>
 VAL166  LYS551  ARG553  GLY616  TRP617  ASP618  TYR619  PRO620  LYS621  CYS622 
 ASP623  PHE694  ASN695  SER759  ASP760  ASP761  ALA762  ILE779  LEU786  VAL792 
 PHE793  MET794  SER795  GLU796  ALA797  LYS798  CYS799  TRP800  GLU811  SER814 

> <Gold.Protein.RotatedAtoms>
  151.6139  135.1038  160.0086 H   0  0  0  0  0  0  0  0  0  0  0  0  # atno 6907 bound_to 6896
  152.4194  133.7087  159.6477 H   0  0  0  0  0  0  0  0  0  0  0  0  # atno 6908 bound_to 6896
  150.8081  133.8398  159.3217 H   0  0  0  0  0  0  0  0  0  0  0  0  # atno 6909 bound_to 6896
  145.1071  139.3478  143.4782 H   0  0  0  0  0  0  0  0  0  0  0  0  # atno 7974 bound_to 7965
  154.6169  140.2490  155.7598 H   0  0  0  0  0  0  0  0  0  0  0  0  # atno 8008 bound_to 7997
  156.2404  140.2935  156.0377 H   0  0  0  0  0  0  0  0  0  0  0  0  # atno 8009 bound_to 7997
  155.1960  140.0393  157.2899 H   0  0  0  0  0  0  0  0  0  0  0  0  # atno 8010 bound_to 7997
  140.7287  143.4282  151.0844 H   0  0  0  0  0  0  0  0  0  0  0  0  # atno 10167 bound_to 10162
  157.6662  131.0854  150.6029 H   0  0  0  0  0  0  0  0  0  0  0  0  # atno 10718 bound_to 10713
  154.1141  135.2837  155.3224 H   0  0  0  0  0  0  0  0  0  0  0  0  # atno 10763 bound_to 10752
  154.6469  135.5382  153.7858 H   0  0  0  0  0  0  0  0  0  0  0  0  # atno 10764 bound_to 10752
  153.0335  135.6500  154.1298 H   0  0  0  0  0  0  0  0  0  0  0  0  # atno 10765 bound_to 10752
  141.1449  133.6679  156.5960 H   0  0  0  0  0  0  0  0  0  0  0  0  # atno 11005 bound_to 11000
  146.3528  140.0974  142.8609 LP  0  0  0  0  0  0  0  0  0  0  0  0  # atno 17320 bound_to 7965
  145.0889  140.9271  143.4781 LP  0  0  0  0  0  0  0  0  0  0  0  0  # atno 17321 bound_to 7965
  139.7935  143.8184  152.3155 LP  0  0  0  0  0  0  0  0  0  0  0  0  # atno 17342 bound_to 10162
  139.8176  144.7309  150.9614 LP  0  0  0  0  0  0  0  0  0  0  0  0  # atno 17343 bound_to 10162
  156.6329  130.4437  149.5780 LP  0  0  0  0  0  0  0  0  0  0  0  0  # atno 17370 bound_to 10713
  156.2268  130.6770  151.1423 LP  0  0  0  0  0  0  0  0  0  0  0  0  # atno 17371 bound_to 10713
  140.3726  134.7592  157.4608 LP  0  0  0  0  0  0  0  0  0  0  0  0  # atno 17394 bound_to 11000
  140.0699  134.5877  155.8654 LP  0  0  0  0  0  0  0  0  0  0  0  0  # atno 17395 bound_to 11000

$$$$
