AV-unprocessed.smi:471|AV-procd|sdf|2658|dock3
  -GOLD-   2262023 73D 1   1.00000     0.00000
 Structure written by MMmdl.
 17 17  0  0  0  0  0  0  0  0  2 V2000
  152.9971  139.1733  155.0442 O   0  0  0  0  0  0  0  0  0  0  0  0
  152.0696  138.4587  154.6055 C   0  0  0  0  0  0  0  0  0  0  0  0
  152.2017  137.3219  154.1010 O   0  5  0  0  0  0  0  0  0  0  0  0
  150.6516  139.0308  154.6854 C   0  0  0  0  0  0  0  0  0  0  0  0
  150.5531  140.1451  155.6028 N   0  0  0  0  0  0  0  0  0  0  0  0
  151.1325  140.0965  156.8625 C   0  0  0  0  0  0  0  0  0  0  0  0
  151.0834  141.1252  157.7408 C   0  0  0  0  0  0  0  0  0  0  0  0
  150.4031  142.3663  157.3870 C   0  0  0  0  0  0  0  0  0  0  0  0
  150.3070  143.3537  158.1129 O   0  0  0  0  0  0  0  0  0  0  0  0
  149.8375  142.3747  156.1086 N   0  0  0  0  0  0  0  0  0  0  0  0
  149.8791  141.3219  155.1922 C   0  0  0  0  0  0  0  0  0  0  0  0
  149.3366  141.4560  154.0952 O   0  0  0  0  0  0  0  0  0  0  0  0
  149.3539  143.2134  155.8229 H   0  0  0  0  0  0  0  0  0  0  0  0
  150.3478  139.4356  153.7183 H   0  0  0  0  0  0  0  0  0  0  0  0
  149.9289  138.2537  154.9358 H   0  0  0  0  0  0  0  0  0  0  0  0
  151.6490  139.1950  157.1610 H   0  0  0  0  0  0  0  0  0  0  0  0
  151.5517  141.0296  158.7097 H   0  0  0  0  0  0  0  0  0  0  0  0
  1  2  2  0  0  0  0
  2  3  1  0  0  0  0
  2  4  1  0  0  0  0
  4  5  1  0  0  0  0
  4 14  1  0  0  0  0
  4 15  1  0  0  0  0
  5 11  1  0  0  0  0
  5  6  1  0  0  0  0
  6  7  2  0  0  0  0
  6 16  1  0  0  0  0
  7  8  1  0  0  0  0
  7 17  1  0  0  0  0
  8  9  2  0  0  0  0
  8 10  1  0  0  0  0
 10 13  1  0  0  0  0
 10 11  1  0  0  0  0
 11 12  2  0  0  0  0
M  CHG  1   3  -1
M  END
> <s_m_source_file>
AV-unprocessed.smi

> <i_m_source_file_index>
471

> <i_lp_mmshare_version>
43012

> <i_f3d_flags>
0

> <s_epik_input>
Tz1DKFtPSF0pW0NIMl1uMVtjSF1bY0hdYyg9TylbbkhdYzE9Tw==

> <s_epik_cmdline>
J2VwaWtfcHl0aG9uJywgJy1waCcsICc3LjAnLCAnLXRuJywgJzgnLCAnLW1hJywgJzIwMCcsICctbWV0YWxfYmluZGluZycsICctaW1hZScsICc8aW5maWxlLm1hZT4nLCAnLW9tYWUnLCAnPG91dGZpbGUubWFlPic=

> <r_lp_tautomer_probability>
1

> <r_epik_Ionization_Penalty>
0.00201392

> <r_epik_Ionization_Penalty_Charging>
0.00201392

> <r_epik_Ionization_Penalty_Neutral>
0

> <r_epik_State_Penalty>
-0

> <r_epik_Charging_Adjusted_Penalty>
0.00201392

> <i_epik_Tot_Q>
-1

> <i_epik_Tot_abs_Q>
1

> <r_epik_Metal_State_Penalty>
0.487386

> <b_epik_Metal_Only>
0

> <s_lp_Force_Field>
OPLS_2005

> <r_lp_Energy>
1.1986

> <b_lp_Chiralities_Consistent>
1

> <s_lp_Variant>
AV-unprocessed.smi:471-1

> <Gold.Version>
5.8.1

> <Gold.Id.Protein>
6NUR|6NUR_protein|mol2

> <Gold.PLP.Fitness>
38.6635

> <Gold.PLP.PLP>
-23.1972

> <Gold.PLP.part.hbond>
-5.0000

> <Gold.PLP.part.metal>
0.0000

> <Gold.PLP.part.buried>
-4.4234

> <Gold.PLP.part.nonpolar>
-15.8725

> <Gold.PLP.part.repulsive>
0.8171

> <Gold.PLP.ligand.clash>
0.0000

> <Gold.PLP.ligand.torsion>
0.3803

> <Gold.PLP.Chemscore.Hbond>
5.4084

> <Gold.PLP.Chemscore.CHOScore>
0.0000

> <Gold.PLP.Chemscore.Metal>
0.0000

> <Gold.Chemscore.Hbonds>
donor molecule, donor type, donor heavy atom, donor atom, acceptor molecule, acceptor atom, score
      L1  H    10    13       P1  8028  1.00
      P1  H  7997  8009       L1     1  2.00
      P1  H  8011  8017       L1    12  0.63
      P1  H 10752 10763       L1     3  1.76

> <Gold.PLP.Chemscore.Internal.Correction>
0.0016

> <Gold.Rescore>
     Score         DG    S(hbond)    S(metal)    S(lipo)     H(rot)  DE(clash)    DE(int)     intcor
     13.08     -14.93       3.49        0.00      17.57       1.66       0.07       1.78       ----

> <Gold.Chemscore.Fitness>
13.0811

> <Gold.Chemscore.DG>
-14.9333

> <Gold.Chemscore.ZeroCoef>
-5.4800

> <Gold.Chemscore.Hbond>
3.4865

> <Gold.Chemscore.Metal>
0.0000

> <Gold.Chemscore.Lipo>
17.5691

> <Gold.Chemscore.Internal_Hbond>
0.0000

> <Gold.Chemscore.DEClash>
0.0682

> <Gold.Chemscore.DEInternal>
1.7840

> <Gold.Chemscore.Rot>
1.6591

> <Gold.Chemscore.Internal.Correction>
   9.000000E+99

> <Gold.Chemscore.Hbonds>
donor molecule, donor type, donor heavy atom, donor atom, acceptor molecule, acceptor atom, score
      L1  H    10    13       P1  8028  0.98
      P1  H  7997  8009       L1     1  0.97
      P1  H  8011  8017       L1    12  0.61
      P1  H 10752 10763       L1     3  0.87

> <Gold.Chemscore.Hbond.Weighted>
-11.6450

> <Gold.Chemscore.Metal.Weighted>
-0.0000

> <Gold.Chemscore.Lipo.Weighted>
-2.0556

> <Gold.Chemscore.Internal_Hbond.Weighted>
0.0000

> <Gold.Chemscore.DEClash.Weighted>
0.0682

> <Gold.Chemscore.DEInternal.Weighted>
1.7840

> <Gold.Chemscore.Rot.Weighted>
4.2473

> <Gold.Chemscore.Internal.Correction.Weighted>
   9.000000E+99

> <Gold.Protein.RotatedTorsions>
[ 6907 6896 6895 6894 ] final  -96.91 input  -60.11 | X-H torsion
[ 7974 7965 7964 7962 ] final  -40.25 input  175.53 | X-H torsion
[ 8008 7997 7996 7995 ] final -127.91 input   59.86 | X-H torsion
[ 10167 10162 10161 10158 ] final   65.78 input  -65.29 | X-H torsion
[ 10718 10713 10712 10709 ] final   84.52 input   66.30 | X-H torsion
[ 10763 10752 10751 10750 ] final   32.45 input  -60.55 | X-H torsion
[ 11005 11000 10999 10996 ] final -157.09 input  -57.11 | X-H torsion

> <Gold.Protein.ActiveResidues>
 VAL166  LYS551  ARG553  GLY616  TRP617  ASP618  TYR619  PRO620  LYS621  CYS622 
 ASP623  PHE694  ASN695  SER759  ASP760  ASP761  ALA762  ILE779  LEU786  VAL792 
 PHE793  MET794  SER795  GLU796  ALA797  LYS798  CYS799  TRP800  GLU811  SER814 

> <Gold.Protein.RotatedAtoms>
  150.7001  134.1430  159.4111 H   0  0  0  0  0  0  0  0  0  0  0  0  # atno 6907 bound_to 6896
  151.9414  135.0209  160.0545 H   0  0  0  0  0  0  0  0  0  0  0  0  # atno 6908 bound_to 6896
  152.2091  133.4862  159.5137 H   0  0  0  0  0  0  0  0  0  0  0  0  # atno 6909 bound_to 6896
  146.0322  140.6717  142.9127 H   0  0  0  0  0  0  0  0  0  0  0  0  # atno 7974 bound_to 7965
  155.2539  140.0433  157.2990 H   0  0  0  0  0  0  0  0  0  0  0  0  # atno 8008 bound_to 7997
  154.5752  140.2385  155.8103 H   0  0  0  0  0  0  0  0  0  0  0  0  # atno 8009 bound_to 7997
  156.2152  140.2987  155.9832 H   0  0  0  0  0  0  0  0  0  0  0  0  # atno 8010 bound_to 7997
  140.1075  144.4848  150.6998 H   0  0  0  0  0  0  0  0  0  0  0  0  # atno 10167 bound_to 10162
  157.6899  131.0137  150.2685 H   0  0  0  0  0  0  0  0  0  0  0  0  # atno 10718 bound_to 10713
  153.0262  135.6413  154.1357 H   0  0  0  0  0  0  0  0  0  0  0  0  # atno 10763 bound_to 10752
  154.1085  135.2854  155.3237 H   0  0  0  0  0  0  0  0  0  0  0  0  # atno 10764 bound_to 10752
  154.6348  135.5480  153.7784 H   0  0  0  0  0  0  0  0  0  0  0  0  # atno 10765 bound_to 10752
  140.6685  134.4273  157.5232 H   0  0  0  0  0  0  0  0  0  0  0  0  # atno 11005 bound_to 11000
  144.7035  140.3756  143.7136 LP  0  0  0  0  0  0  0  0  0  0  0  0  # atno 17320 bound_to 7965
  145.7022  139.1664  143.2586 LP  0  0  0  0  0  0  0  0  0  0  0  0  # atno 17321 bound_to 7965
  140.6944  143.2395  151.5042 LP  0  0  0  0  0  0  0  0  0  0  0  0  # atno 17342 bound_to 10162
  139.5637  144.2094  152.1732 LP  0  0  0  0  0  0  0  0  0  0  0  0  # atno 17343 bound_to 10162
  156.3252  130.3792  149.7539 LP  0  0  0  0  0  0  0  0  0  0  0  0  # atno 17370 bound_to 10713
  156.5097  130.8166  151.3164 LP  0  0  0  0  0  0  0  0  0  0  0  0  # atno 17371 bound_to 10713
  139.8989  134.8602  156.1981 LP  0  0  0  0  0  0  0  0  0  0  0  0  # atno 17394 bound_to 11000
  141.0411  133.6937  156.1599 LP  0  0  0  0  0  0  0  0  0  0  0  0  # atno 17395 bound_to 11000

$$$$
