AV-unprocessed.smi:1389|AV-procd|sdf|5646|dock1
  -GOLD-   22720 5263D 1   1.00000     0.00000
 Structure written by MMmdl.
 51 53  0  0  0  0  0  0  0  0  1 V2000
  154.7011  141.0144  161.1076 C   0  0  0  0  0  0  0  0  0  0  0  0
  153.6255  140.3667  160.1982 C   0  0  2  0  0  0  0  0  0  0  0  0
  154.2215  139.0985  159.5236 C   0  0  0  0  0  0  0  0  0  0  0  0
  154.7755  138.1474  160.4848 N   0  0  0  0  0  0  0  0  0  0  0  0
  154.5910  136.8195  160.4637 C   0  0  0  0  0  0  0  0  0  0  0  0
  153.9048  136.2376  159.6237 O   0  0  0  0  0  0  0  0  0  0  0  0
  155.2725  136.2223  161.4553 N   0  0  0  0  0  0  0  0  0  0  0  0
  155.3834  134.8302  161.7343 C   0  0  0  0  0  0  0  0  0  0  0  0
  155.2914  133.8434  160.7225 C   0  0  0  0  0  0  0  0  0  0  0  0
  155.4003  132.4864  161.0748 C   0  0  0  0  0  0  0  0  0  0  0  0
  155.5887  132.1619  162.4294 C   0  0  0  0  0  0  0  0  0  0  0  0
  155.6600  133.0882  163.4065 N   0  0  0  0  0  0  0  0  0  0  0  0
  155.5602  134.3993  163.0767 C   0  0  0  0  0  0  0  0  0  0  0  0
  155.6056  135.3429  164.1238 N   0  0  0  0  0  0  0  0  0  0  0  0
  156.8266  136.1435  164.1362 C   0  0  0  0  0  0  0  0  0  0  0  0
  156.4215  137.5392  164.6127 C   0  0  0  0  0  0  0  0  0  0  0  0
  154.9726  137.6478  164.1549 C   0  0  0  0  0  0  0  0  0  0  0  0
  154.4578  136.2218  164.3445 C   0  0  0  0  0  0  0  0  0  0  0  0
  153.0479  141.3246  159.2261 N   0  0  0  0  0  0  0  0  0  0  0  0
  151.8196  140.8277  158.5953 C   0  0  0  0  0  0  0  0  0  0  0  0
  151.2088  141.8327  157.6034 C   0  0  0  0  0  0  0  0  0  0  0  0
  150.9537  143.0642  158.2643 O   0  0  0  0  0  0  0  0  0  0  0  0
  152.1341  143.6220  158.8246 C   0  0  0  0  0  0  0  0  0  0  0  0
  152.7511  142.6307  159.8262 C   0  0  0  0  0  0  0  0  0  0  0  0
  155.1418  140.3026  161.8041 H   0  0  0  0  0  0  0  0  0  0  0  0
  154.2932  141.8026  161.7382 H   0  0  0  0  0  0  0  0  0  0  0  0
  155.5129  141.4396  160.5164 H   0  0  0  0  0  0  0  0  0  0  0  0
  152.8212  140.0285  160.8532 H   0  0  0  0  0  0  0  0  0  0  0  0
  153.4532  138.5368  158.9955 H   0  0  0  0  0  0  0  0  0  0  0  0
  154.9599  139.3879  158.7739 H   0  0  0  0  0  0  0  0  0  0  0  0
  155.3601  138.5315  161.2125 H   0  0  0  0  0  0  0  0  0  0  0  0
  155.8683  136.8211  162.0081 H   0  0  0  0  0  0  0  0  0  0  0  0
  155.1267  134.1019  159.6878 H   0  0  0  0  0  0  0  0  0  0  0  0
  155.3364  131.7128  160.3241 H   0  0  0  0  0  0  0  0  0  0  0  0
  155.6755  131.1308  162.7387 H   0  0  0  0  0  0  0  0  0  0  0  0
  157.5795  135.7039  164.7907 H   0  0  0  0  0  0  0  0  0  0  0  0
  157.2494  136.2006  163.1315 H   0  0  0  0  0  0  0  0  0  0  0  0
  156.4682  137.5879  165.7014 H   0  0  0  0  0  0  0  0  0  0  0  0
  157.0586  138.3271  164.2103 H   0  0  0  0  0  0  0  0  0  0  0  0
  154.3988  138.3851  164.7168 H   0  0  0  0  0  0  0  0  0  0  0  0
  154.9355  137.9188  163.0989 H   0  0  0  0  0  0  0  0  0  0  0  0
  153.5992  136.0138  163.7059 H   0  0  0  0  0  0  0  0  0  0  0  0
  154.1270  136.0807  165.3739 H   0  0  0  0  0  0  0  0  0  0  0  0
  152.0146  139.9145  158.0367 H   0  0  0  0  0  0  0  0  0  0  0  0
  151.0831  140.5819  159.3617 H   0  0  0  0  0  0  0  0  0  0  0  0
  151.8784  141.9963  156.7574 H   0  0  0  0  0  0  0  0  0  0  0  0
  150.2731  141.4455  157.1998 H   0  0  0  0  0  0  0  0  0  0  0  0
  152.8447  143.8636  158.0325 H   0  0  0  0  0  0  0  0  0  0  0  0
  151.8826  144.5578  159.3237 H   0  0  0  0  0  0  0  0  0  0  0  0
  152.0753  142.5040  160.6733 H   0  0  0  0  0  0  0  0  0  0  0  0
  153.6581  143.0932  160.2107 H   0  0  0  0  0  0  0  0  0  0  0  0
  1  2  1  0  0  0  0
  1 25  1  0  0  0  0
  1 26  1  0  0  0  0
  1 27  1  0  0  0  0
  2  3  1  0  0  0  0
  2 19  1  0  0  0  0
  2 28  1  0  0  0  0
  3  4  1  0  0  0  0
  3 29  1  0  0  0  0
  3 30  1  0  0  0  0
  4  5  1  0  0  0  0
  4 31  1  0  0  0  0
  5  6  2  0  0  0  0
  5  7  1  0  0  0  0
  7  8  1  0  0  0  0
  7 32  1  0  0  0  0
  8 13  1  0  0  0  0
  8  9  2  0  0  0  0
  9 10  1  0  0  0  0
  9 33  1  0  0  0  0
 10 11  2  0  0  0  0
 10 34  1  0  0  0  0
 11 12  1  0  0  0  0
 11 35  1  0  0  0  0
 12 13  2  0  0  0  0
 13 14  1  0  0  0  0
 14 18  1  0  0  0  0
 14 15  1  0  0  0  0
 15 16  1  0  0  0  0
 15 36  1  0  0  0  0
 15 37  1  0  0  0  0
 16 17  1  0  0  0  0
 16 38  1  0  0  0  0
 16 39  1  0  0  0  0
 17 18  1  0  0  0  0
 17 40  1  0  0  0  0
 17 41  1  0  0  0  0
 18 42  1  0  0  0  0
 18 43  1  0  0  0  0
 19 24  1  0  0  0  0
 19 20  1  0  0  0  0
 20 21  1  0  0  0  0
 20 44  1  0  0  0  0
 20 45  1  0  0  0  0
 21 22  1  0  0  0  0
 21 46  1  0  0  0  0
 21 47  1  0  0  0  0
 22 23  1  0  0  0  0
 23 24  1  0  0  0  0
 23 48  1  0  0  0  0
 23 49  1  0  0  0  0
 24 50  1  0  0  0  0
 24 51  1  0  0  0  0
M  END
> <s_m_source_file>
AV-unprocessed.smi

> <i_m_source_file_index>
1389

> <i_lp_mmshare_version>
43012

> <i_f3d_flags>
0

> <s_epik_input>
W0NIMl0xW0NIMl1PW0NIMl1bQ0gyXU4xW0NASF0oW0NIM10pW0NIMl1bTkhdQyg9TylbTkhdYzJbY0hdW2NIXVtjSF1uYzJOM1tDSDJdW0NIMl1bQ0gyXVtDSDJdMw==

> <s_epik_cmdline>
J2VwaWtfcHl0aG9uJywgJy1waCcsICc3LjAnLCAnLXRuJywgJzgnLCAnLW1hJywgJzIwMCcsICctbWV0YWxfYmluZGluZycsICctaW1hZScsICc8aW5maWxlLm1hZT4nLCAnLW9tYWUnLCAnPG91dGZpbGUubWFlPic=

> <r_lp_tautomer_probability>
1

> <r_epik_Ionization_Penalty>
0.365229

> <r_epik_Ionization_Penalty_Charging>
0

> <r_epik_Ionization_Penalty_Neutral>
0.365229

> <r_epik_State_Penalty>
0.350519

> <r_epik_Charging_Adjusted_Penalty>
0.350519

> <i_epik_Tot_Q>
0

> <i_epik_Tot_abs_Q>
0

> <r_epik_Metal_State_Penalty>
0.33386

> <b_epik_Metal_Only>
0

> <s_lp_Force_Field>
OPLS_2005

> <r_lp_Energy>
57.3938

> <b_lp_Chiralities_Consistent>
1

> <s_lp_Variant>
AV-unprocessed.smi:1389-1

> <Gold.Version>
5.8.1

> <Gold.Id.Protein>
6NUR|6NUR_protein|mol2

> <Gold.PLP.Fitness>
39.3793

> <Gold.PLP.PLP>
-37.3427

> <Gold.PLP.part.hbond>
-1.0000

> <Gold.PLP.part.metal>
0.0000

> <Gold.PLP.part.buried>
-4.8702

> <Gold.PLP.part.nonpolar>
-30.9221

> <Gold.PLP.part.repulsive>
0.2273

> <Gold.PLP.ligand.clash>
0.0000

> <Gold.PLP.ligand.torsion>
0.5662

> <Gold.PLP.Chemscore.Hbond>
1.0000

> <Gold.PLP.Chemscore.CHOScore>
0.0000

> <Gold.PLP.Chemscore.Metal>
0.0000

> <Gold.Chemscore.Hbonds>
donor molecule, donor type, donor heavy atom, donor atom, acceptor molecule, acceptor atom, score
      P1  H  6896  6907       L1     6  0.70

> <Gold.PLP.Chemscore.Internal.Correction>
0.1690

> <Gold.Rescore>
     Score         DG    S(hbond)    S(metal)    S(lipo)     H(rot)  DE(clash)    DE(int)     intcor
     13.59     -16.95       1.00        0.00     103.96       1.57       0.04       3.31       ----

> <Gold.Chemscore.Fitness>
13.5944

> <Gold.Chemscore.DG>
-16.9483

> <Gold.Chemscore.ZeroCoef>
-5.4800

> <Gold.Chemscore.Hbond>
0.9968

> <Gold.Chemscore.Metal>
0.0000

> <Gold.Chemscore.Lipo>
103.9580

> <Gold.Chemscore.Internal_Hbond>
0.0000

> <Gold.Chemscore.DEClash>
0.0443

> <Gold.Chemscore.DEInternal>
3.3097

> <Gold.Chemscore.Rot>
1.5718

> <Gold.Chemscore.Internal.Correction>
   9.000000E+99

> <Gold.Chemscore.Hbonds>
donor molecule, donor type, donor heavy atom, donor atom, acceptor molecule, acceptor atom, score
      P1  H  6896  6907       L1     6  0.71

> <Gold.Chemscore.Hbond.Weighted>
-3.3292

> <Gold.Chemscore.Metal.Weighted>
-0.0000

> <Gold.Chemscore.Lipo.Weighted>
-12.1631

> <Gold.Chemscore.Internal_Hbond.Weighted>
0.0000

> <Gold.Chemscore.DEClash.Weighted>
0.0443

> <Gold.Chemscore.DEInternal.Weighted>
3.3097

> <Gold.Chemscore.Rot.Weighted>
4.0239

> <Gold.Chemscore.Internal.Correction.Weighted>
   9.000000E+99

> <Gold.Protein.RotatedTorsions>
[ 6907 6896 6895 6894 ] final   48.43 input  -60.11 | X-H torsion
[ 7974 7965 7964 7962 ] final   44.81 input  175.53 | X-H torsion
[ 8008 7997 7996 7995 ] final  155.65 input   59.86 | X-H torsion
[ 10167 10162 10161 10158 ] final  131.96 input  -65.29 | X-H torsion
[ 10718 10713 10712 10709 ] final  -26.74 input   66.30 | X-H torsion
[ 10763 10752 10751 10750 ] final -116.56 input  -60.55 | X-H torsion
[ 11005 11000 10999 10996 ] final   33.74 input  -57.11 | X-H torsion

> <Gold.Protein.ActiveResidues>
 VAL166  LYS551  ARG553  GLY616  TRP617  ASP618  TYR619  PRO620  LYS621  CYS622 
 ASP623  PHE694  ASN695  SER759  ASP760  ASP761  ALA762  ILE779  LEU786  VAL792 
 PHE793  MET794  SER795  GLU796  ALA797  LYS798  CYS799  TRP800  GLU811  SER814 

> <Gold.Protein.RotatedAtoms>
  152.2794  134.7845  160.0399 H   0  0  0  0  0  0  0  0  0  0  0  0  # atno 6907 bound_to 6896
  151.8430  133.3421  159.3657 H   0  0  0  0  0  0  0  0  0  0  0  0  # atno 6908 bound_to 6896
  150.7183  134.5301  159.5740 H   0  0  0  0  0  0  0  0  0  0  0  0  # atno 6909 bound_to 6896
  146.0535  139.5033  142.9703 H   0  0  0  0  0  0  0  0  0  0  0  0  # atno 7974 bound_to 7965
  156.2466  140.1934  156.6834 H   0  0  0  0  0  0  0  0  0  0  0  0  # atno 8008 bound_to 7997
  154.6305  140.0596  156.9752 H   0  0  0  0  0  0  0  0  0  0  0  0  # atno 8009 bound_to 7997
  155.1718  140.3269  155.4394 H   0  0  0  0  0  0  0  0  0  0  0  0  # atno 8010 bound_to 7997
  139.5361  144.6683  151.4783 H   0  0  0  0  0  0  0  0  0  0  0  0  # atno 10167 bound_to 10162
  156.4473  130.4476  149.7013 H   0  0  0  0  0  0  0  0  0  0  0  0  # atno 10718 bound_to 10713
  154.8524  135.4341  154.1841 H   0  0  0  0  0  0  0  0  0  0  0  0  # atno 10763 bound_to 10752
  153.2925  135.6962  153.7286 H   0  0  0  0  0  0  0  0  0  0  0  0  # atno 10764 bound_to 10752
  153.6447  135.3462  155.3057 H   0  0  0  0  0  0  0  0  0  0  0  0  # atno 10765 bound_to 10752
  140.2600  134.3203  155.7861 H   0  0  0  0  0  0  0  0  0  0  0  0  # atno 11005 bound_to 11000
  145.6683  141.0223  143.1671 LP  0  0  0  0  0  0  0  0  0  0  0  0  # atno 17320 bound_to 7965
  144.7135  139.8281  143.7406 LP  0  0  0  0  0  0  0  0  0  0  0  0  # atno 17321 bound_to 7965
  140.6567  143.8584  150.6843 LP  0  0  0  0  0  0  0  0  0  0  0  0  # atno 17342 bound_to 10162
  140.1966  143.3993  152.1823 LP  0  0  0  0  0  0  0  0  0  0  0  0  # atno 17343 bound_to 10162
  156.3854  130.7600  151.2596 LP  0  0  0  0  0  0  0  0  0  0  0  0  # atno 17370 bound_to 10713
  157.7504  131.0283  150.4045 LP  0  0  0  0  0  0  0  0  0  0  0  0  # atno 17371 bound_to 10713
  141.2191  133.7404  156.9172 LP  0  0  0  0  0  0  0  0  0  0  0  0  # atno 17394 bound_to 11000
  140.1473  134.9253  157.2547 LP  0  0  0  0  0  0  0  0  0  0  0  0  # atno 17395 bound_to 11000

$$$$
