AV-unprocessed.smi:157|AV-procd|sdf|1309|dock3
  -GOLD-   2262019 03D 1   1.00000     0.00000
 Structure written by MMmdl.
 36 38  0  0  0  0  0  0  0  0  2 V2000
  147.9859  136.8927  154.4458 O   0  0  0  0  0  0  0  0  0  0  0  0
  148.6432  137.1632  155.6651 C   0  0  0  0  0  0  0  0  0  0  0  0
  149.5373  138.4022  155.5112 C   0  0  1  0  0  0  0  0  0  0  0  0
  150.2176  138.6622  156.7360 O   0  0  0  0  0  0  0  0  0  0  0  0
  151.4201  139.3297  156.4874 C   0  0  2  0  0  0  0  0  0  0  0  0
  151.2926  140.7449  156.9564 N   0  0  0  0  0  0  0  0  0  0  0  0
  150.5616  141.7263  156.3848 C   0  0  0  0  0  0  0  0  0  0  0  0
  150.6338  142.8913  157.0058 N   0  3  0  0  0  0  0  0  0  0  0  0
  151.4728  142.7083  158.0845 C   0  0  0  0  0  0  0  0  0  0  0  0
  151.8795  141.3727  158.0304 C   0  0  0  0  0  0  0  0  0  0  0  0
  152.7426  140.6598  158.8765 N   0  0  0  0  0  0  0  0  0  0  0  0
  153.5349  141.2346  159.7221 C   0  0  0  0  0  0  0  0  0  0  0  0
  153.6497  142.5781  160.0390 N   0  0  0  0  0  0  0  0  0  0  0  0
  152.5060  143.4371  160.2899 C   0  0  0  0  0  0  0  0  0  0  0  0
  151.7517  143.8445  159.0177 C   0  0  1  0  0  0  0  0  0  0  0  0
  152.4555  144.8987  158.3939 O   0  0  0  0  0  0  0  0  0  0  0  0
  151.6537  139.2995  154.9736 C   0  0  0  0  0  0  0  0  0  0  0  0
  150.6978  138.2089  154.5339 C   0  0  2  0  0  0  0  0  0  0  0  0
  150.3078  138.3882  153.1879 O   0  0  0  0  0  0  0  0  0  0  0  0
  148.9544  139.2794  155.2226 H   0  0  0  0  0  0  0  0  0  0  0  0
  152.2293  138.8975  157.0773 H   0  0  0  0  0  0  0  0  0  0  0  0
  150.7923  144.2638  159.3228 H   0  0  0  0  0  0  0  0  0  0  0  0
  151.1572  137.2282  154.6672 H   0  0  0  0  0  0  0  0  0  0  0  0
  148.6394  136.7425  153.7796 H   0  0  0  0  0  0  0  0  0  0  0  0
  147.9179  137.2931  156.4688 H   0  0  0  0  0  0  0  0  0  0  0  0
  149.2485  136.2906  155.9121 H   0  0  0  0  0  0  0  0  0  0  0  0
  149.9689  141.5715  155.5011 H   0  0  0  0  0  0  0  0  0  0  0  0
  154.2267  140.6188  160.2986 H   0  0  0  0  0  0  0  0  0  0  0  0
  154.4625  142.8858  160.5539 H   0  0  0  0  0  0  0  0  0  0  0  0
  151.8255  142.8920  160.9460 H   0  0  0  0  0  0  0  0  0  0  0  0
  152.8249  144.3175  160.8489 H   0  0  0  0  0  0  0  0  0  0  0  0
  152.5194  145.6215  158.9989 H   0  0  0  0  0  0  0  0  0  0  0  0
  151.3793  140.2613  154.5353 H   0  0  0  0  0  0  0  0  0  0  0  0
  152.6975  139.0884  154.7391 H   0  0  0  0  0  0  0  0  0  0  0  0
  149.9518  137.5750  152.8638 H   0  0  0  0  0  0  0  0  0  0  0  0
  150.1575  143.7441  156.7406 H   0  0  0  0  0  0  0  0  0  0  0  0
  1  2  1  0  0  0  0
  1 24  1  0  0  0  0
  2  3  1  0  0  0  0
  2 25  1  0  0  0  0
  2 26  1  0  0  0  0
  3 20  1  0  0  0  0
  3 18  1  0  0  0  0
  3  4  1  0  0  0  0
  4  5  1  0  0  0  0
  5 21  1  0  0  0  0
  5  6  1  0  0  0  0
  5 17  1  0  0  0  0
  6 10  1  0  0  0  0
  6  7  1  0  0  0  0
  7  8  2  0  0  0  0
  7 27  1  0  0  0  0
  8  9  1  0  0  0  0
  8 36  1  0  0  0  0
  9 15  1  0  0  0  0
  9 10  2  0  0  0  0
 10 11  1  0  0  0  0
 11 12  2  0  0  0  0
 12 13  1  0  0  0  0
 12 28  1  0  0  0  0
 13 14  1  0  0  0  0
 13 29  1  0  0  0  0
 14 15  1  0  0  0  0
 14 30  1  0  0  0  0
 14 31  1  0  0  0  0
 15 22  1  0  0  0  0
 15 16  1  0  0  0  0
 16 32  1  0  0  0  0
 17 18  1  0  0  0  0
 17 33  1  0  0  0  0
 17 34  1  0  0  0  0
 18 23  1  0  0  0  0
 18 19  1  0  0  0  0
 19 35  1  0  0  0  0
M  CHG  1   8   1
M  END
> <s_m_source_file>
AV-unprocessed.smi

> <i_m_source_file_index>
157

> <i_lp_mmshare_version>
43012

> <i_f3d_flags>
0

> <s_epik_input>
W09IXVtDSDJdW0NASF0xT1tDQEhdKFtDSDJdW0NAQEhdMVtPSF0pbihbY0hdbjIpYyhjMjMpTj1bQ0hdW05IXVtDSDJdW0NASF0zW09IXQ==

> <s_epik_cmdline>
J2VwaWtfcHl0aG9uJywgJy1waCcsICc3LjAnLCAnLXRuJywgJzgnLCAnLW1hJywgJzIwMCcsICctbWV0YWxfYmluZGluZycsICctaW1hZScsICc8aW5maWxlLm1hZT4nLCAnLW9tYWUnLCAnPG91dGZpbGUubWFlPic=

> <r_epik_Ionization_Penalty>
1.68594

> <r_epik_Ionization_Penalty_Charging>
0

> <r_epik_Ionization_Penalty_Neutral>
1.68594

> <r_epik_State_Penalty>
1.79006

> <r_epik_Charging_Adjusted_Penalty>
1.79006

> <i_epik_Tot_Q>
1

> <i_epik_Tot_abs_Q>
1

> <r_epik_Metal_State_Penalty>
5.85324

> <b_epik_Metal_Only>
0

> <s_epik_Chemistry_Notes>
This compound has an imine and may undergo hydrolysis. This compound contains an acetal/aminal-like group ( X-CH(R)-Y where X, Y are N, S, or O) that may be acid/base labile, releasing an aldehyde.

> <s_lp_Force_Field>
OPLS_2005

> <r_lp_Energy>
51.4634

> <b_lp_Chiralities_Consistent>
1

> <s_lp_Variant>
AV-unprocessed.smi:157-19

> <Gold.Version>
5.8.1

> <Gold.Id.Protein>
6NUR|6NUR_protein|mol2

> <Gold.PLP.Fitness>
44.9366

> <Gold.PLP.PLP>
-33.6001

> <Gold.PLP.part.hbond>
-4.8497

> <Gold.PLP.part.metal>
0.0000

> <Gold.PLP.part.buried>
-2.9396

> <Gold.PLP.part.nonpolar>
-25.4913

> <Gold.PLP.part.repulsive>
0.0519

> <Gold.PLP.ligand.clash>
0.0000

> <Gold.PLP.ligand.torsion>
0.2922

> <Gold.PLP.Chemscore.Hbond>
3.9675

> <Gold.PLP.Chemscore.CHOScore>
0.0000

> <Gold.PLP.Chemscore.Metal>
0.0000

> <Gold.Chemscore.Hbonds>
donor molecule, donor type, donor heavy atom, donor atom, acceptor molecule, acceptor atom, score
      L1  H     1    24       P1  7948  0.93
      L1  H     8    36       P1  8028  2.00
      L1  H    19    35       P1  7948  0.95

> <Gold.PLP.Chemscore.Internal.Correction>
0.0185

> <Gold.Rescore>
     Score         DG    S(hbond)    S(metal)    S(lipo)     H(rot)  DE(clash)    DE(int)     intcor
     10.91     -11.17       2.72        0.00      51.19       3.67       0.11       0.15       ----

> <Gold.Chemscore.Fitness>
10.9062

> <Gold.Chemscore.DG>
-11.1671

> <Gold.Chemscore.ZeroCoef>
-5.4800

> <Gold.Chemscore.Hbond>
2.7194

> <Gold.Chemscore.Metal>
0.0000

> <Gold.Chemscore.Lipo>
51.1879

> <Gold.Chemscore.Internal_Hbond>
0.0000

> <Gold.Chemscore.DEClash>
0.1103

> <Gold.Chemscore.DEInternal>
0.1506

> <Gold.Chemscore.Rot>
3.6659

> <Gold.Chemscore.Internal.Correction>
   9.000000E+99

> <Gold.Chemscore.Hbonds>
donor molecule, donor type, donor heavy atom, donor atom, acceptor molecule, acceptor atom, score
      L1  H     1    24       P1  7948  0.86
      L1  H     8    36       P1  8028  0.96
      L1  H    19    35       P1  7948  0.21

> <Gold.Chemscore.Hbond.Weighted>
-9.0829

> <Gold.Chemscore.Metal.Weighted>
-0.0000

> <Gold.Chemscore.Lipo.Weighted>
-5.9890

> <Gold.Chemscore.Internal_Hbond.Weighted>
0.0000

> <Gold.Chemscore.DEClash.Weighted>
0.1103

> <Gold.Chemscore.DEInternal.Weighted>
0.1506

> <Gold.Chemscore.Rot.Weighted>
9.3848

> <Gold.Chemscore.Internal.Correction.Weighted>
   9.000000E+99

> <Gold.Protein.RotatedTorsions>
[ 6907 6896 6895 6894 ] final    5.30 input  -60.11 | X-H torsion
[ 7974 7965 7964 7962 ] final  -25.91 input  175.53 | X-H torsion
[ 8008 7997 7996 7995 ] final  -90.43 input   59.86 | X-H torsion
[ 10167 10162 10161 10158 ] final -153.59 input  -65.29 | X-H torsion
[ 10718 10713 10712 10709 ] final   -6.33 input   66.30 | X-H torsion
[ 10763 10752 10751 10750 ] final   20.65 input  -60.55 | X-H torsion
[ 11005 11000 10999 10996 ] final   98.31 input  -57.11 | X-H torsion

> <Gold.Protein.ActiveResidues>
 VAL166  LYS551  ARG553  GLY616  TRP617  ASP618  TYR619  PRO620  LYS621  CYS622 
 ASP623  PHE694  ASN695  SER759  ASP760  ASP761  ALA762  ILE779  LEU786  VAL792 
 PHE793  MET794  SER795  GLU796  ALA797  LYS798  CYS799  TRP800  GLU811  SER814 

> <Gold.Protein.RotatedAtoms>
  151.6552  135.0996  160.0168 H   0  0  0  0  0  0  0  0  0  0  0  0  # atno 6907 bound_to 6896
  152.3978  133.6768  159.6299 H   0  0  0  0  0  0  0  0  0  0  0  0  # atno 6908 bound_to 6896
  150.7882  133.8760  159.3313 H   0  0  0  0  0  0  0  0  0  0  0  0  # atno 6909 bound_to 6896
  146.1460  140.4949  142.8631 H   0  0  0  0  0  0  0  0  0  0  0  0  # atno 7974 bound_to 7965
  154.6984  140.0530  157.0434 H   0  0  0  0  0  0  0  0  0  0  0  0  # atno 8008 bound_to 7997
  155.0718  140.3200  155.4609 H   0  0  0  0  0  0  0  0  0  0  0  0  # atno 8009 bound_to 7997
  156.2752  140.2080  156.5846 H   0  0  0  0  0  0  0  0  0  0  0  0  # atno 8010 bound_to 7997
  139.7084  143.9149  152.2458 H   0  0  0  0  0  0  0  0  0  0  0  0  # atno 10167 bound_to 10162
  156.7334  130.5187  149.5840 H   0  0  0  0  0  0  0  0  0  0  0  0  # atno 10718 bound_to 10713
  153.1060  135.6684  153.9586 H   0  0  0  0  0  0  0  0  0  0  0  0  # atno 10763 bound_to 10752
  153.9143  135.3021  155.3450 H   0  0  0  0  0  0  0  0  0  0  0  0  # atno 10764 bound_to 10752
  154.7481  135.5048  153.9315 H   0  0  0  0  0  0  0  0  0  0  0  0  # atno 10765 bound_to 10752
  139.8773  134.9043  156.4437 H   0  0  0  0  0  0  0  0  0  0  0  0  # atno 11005 bound_to 11000
  144.7847  140.5912  143.6582 LP  0  0  0  0  0  0  0  0  0  0  0  0  # atno 17320 bound_to 7965
  145.4936  139.1487  143.3696 LP  0  0  0  0  0  0  0  0  0  0  0  0  # atno 17321 bound_to 7965
  139.9011  144.6911  150.8664 LP  0  0  0  0  0  0  0  0  0  0  0  0  # atno 17342 bound_to 10162
  140.7727  143.3513  151.2008 LP  0  0  0  0  0  0  0  0  0  0  0  0  # atno 17343 bound_to 10162
  156.1513  130.6312  151.0599 LP  0  0  0  0  0  0  0  0  0  0  0  0  # atno 17370 bound_to 10713
  157.6849  131.0827  150.7270 LP  0  0  0  0  0  0  0  0  0  0  0  0  # atno 17371 bound_to 10713
  140.8981  133.7799  155.9649 LP  0  0  0  0  0  0  0  0  0  0  0  0  # atno 17394 bound_to 11000
  140.8681  134.2760  157.5204 LP  0  0  0  0  0  0  0  0  0  0  0  0  # atno 17395 bound_to 11000

$$$$
