AV-unprocessed.smi:1021|AV-procd|sdf|4456|dock4
  -GOLD-   22720 2423D 1   1.00000     0.00000
 Structure written by MMmdl.
 43 45  0  0  0  0  0  0  0  0  2 V2000
  151.5409  136.7944  154.1366 O   0  0  0  0  0  0  0  0  0  0  0  0
  152.0997  138.0744  153.9314 C   0  0  0  0  0  0  0  0  0  0  0  0
  152.4016  138.7506  155.2760 C   0  0  0  0  0  0  0  0  0  0  0  0
  151.1400  139.2564  155.9927 C   0  0  0  0  0  0  0  0  0  0  0  0
  151.4454  140.4036  156.8995 C   0  0  0  0  0  0  0  0  0  0  0  0
  152.2204  140.3464  158.0190 N   0  3  0  0  0  0  0  0  0  0  0  0
  152.2759  141.6039  158.6209 C   0  0  0  0  0  0  0  0  0  0  0  0
  152.9359  142.0388  159.7660 C   0  0  0  0  0  0  0  0  0  0  0  0
  152.7826  143.3987  160.1068 C   0  0  0  0  0  0  0  0  0  0  0  0
  151.9974  144.2687  159.3224 C   0  0  0  0  0  0  0  0  0  0  0  0
  151.3322  143.8159  158.1638 C   0  0  0  0  0  0  0  0  0  0  0  0
  151.4908  142.4704  157.8335 C   0  0  0  0  0  0  0  0  0  0  0  0
  150.9995  141.6887  156.7825 N   0  0  0  0  0  0  0  0  0  0  0  0
  150.1369  142.3153  155.7682 C   0  0  0  0  0  0  0  0  0  0  0  0
  149.1208  141.3293  155.1564 C   0  0  2  0  0  0  0  0  0  0  0  0
  149.5038  141.0755  153.8208 O   0  0  0  0  0  0  0  0  0  0  0  0
  147.6891  141.8357  155.2649 C   0  0  0  0  0  0  0  0  0  0  0  0
  147.0801  141.9493  156.5333 C   0  0  0  0  0  0  0  0  0  0  0  0
  145.7663  142.4429  156.6490 C   0  0  0  0  0  0  0  0  0  0  0  0
  145.0530  142.8251  155.4969 C   0  0  0  0  0  0  0  0  0  0  0  0
  143.7907  143.3017  155.6088 F   0  0  0  0  0  0  0  0  0  0  0  0
  145.6541  142.7129  154.2286 C   0  0  0  0  0  0  0  0  0  0  0  0
  146.9684  142.2203  154.1122 C   0  0  0  0  0  0  0  0  0  0  0  0
  151.1180  136.5197  153.3370 H   0  0  0  0  0  0  0  0  0  0  0  0
  153.0040  137.9858  153.3286 H   0  0  0  0  0  0  0  0  0  0  0  0
  151.3897  138.6739  153.3616 H   0  0  0  0  0  0  0  0  0  0  0  0
  152.9094  138.0298  155.9177 H   0  0  0  0  0  0  0  0  0  0  0  0
  153.1031  139.5725  155.1275 H   0  0  0  0  0  0  0  0  0  0  0  0
  150.3905  139.5719  155.2662 H   0  0  0  0  0  0  0  0  0  0  0  0
  150.6884  138.4521  156.5720 H   0  0  0  0  0  0  0  0  0  0  0  0
  153.5371  141.3740  160.3689 H   0  0  0  0  0  0  0  0  0  0  0  0
  153.2771  143.7822  160.9876 H   0  0  0  0  0  0  0  0  0  0  0  0
  151.9027  145.3043  159.6151 H   0  0  0  0  0  0  0  0  0  0  0  0
  150.7327  144.4893  157.5692 H   0  0  0  0  0  0  0  0  0  0  0  0
  149.6226  143.1581  156.2314 H   0  0  0  0  0  0  0  0  0  0  0  0
  150.7812  142.7385  154.9963 H   0  0  0  0  0  0  0  0  0  0  0  0
  149.1867  140.3732  155.6769 H   0  0  0  0  0  0  0  0  0  0  0  0
  148.9894  140.3535  153.4931 H   0  0  0  0  0  0  0  0  0  0  0  0
  147.6230  141.6666  157.4233 H   0  0  0  0  0  0  0  0  0  0  0  0
  145.3060  142.5305  157.6221 H   0  0  0  0  0  0  0  0  0  0  0  0
  145.1082  143.0077  153.3446 H   0  0  0  0  0  0  0  0  0  0  0  0
  147.4231  142.1483  153.1350 H   0  0  0  0  0  0  0  0  0  0  0  0
  152.6774  139.5045  158.3454 H   0  0  0  0  0  0  0  0  0  0  0  0
  1  2  1  0  0  0  0
  1 24  1  0  0  0  0
  2  3  1  0  0  0  0
  2 25  1  0  0  0  0
  2 26  1  0  0  0  0
  3  4  1  0  0  0  0
  3 27  1  0  0  0  0
  3 28  1  0  0  0  0
  4  5  1  0  0  0  0
  4 29  1  0  0  0  0
  4 30  1  0  0  0  0
  5 13  1  0  0  0  0
  5  6  2  0  0  0  0
  6  7  1  0  0  0  0
  6 43  1  0  0  0  0
  7 12  2  0  0  0  0
  7  8  1  0  0  0  0
  8  9  2  0  0  0  0
  8 31  1  0  0  0  0
  9 10  1  0  0  0  0
  9 32  1  0  0  0  0
 10 11  2  0  0  0  0
 10 33  1  0  0  0  0
 11 12  1  0  0  0  0
 11 34  1  0  0  0  0
 12 13  1  0  0  0  0
 13 14  1  0  0  0  0
 14 15  1  0  0  0  0
 14 35  1  0  0  0  0
 14 36  1  0  0  0  0
 15 16  1  0  0  0  0
 15 17  1  0  0  0  0
 15 37  1  0  0  0  0
 16 38  1  0  0  0  0
 17 23  1  0  0  0  0
 17 18  2  0  0  0  0
 18 19  1  0  0  0  0
 18 39  1  0  0  0  0
 19 20  2  0  0  0  0
 19 40  1  0  0  0  0
 20 21  1  0  0  0  0
 20 22  1  0  0  0  0
 22 23  2  0  0  0  0
 22 41  1  0  0  0  0
 23 42  1  0  0  0  0
M  CHG  1   6   1
M  END
> <s_m_source_file>
AV-unprocessed.smi

> <i_m_source_file_index>
1021

> <i_lp_mmshare_version>
43012

> <i_f3d_flags>
0

> <s_epik_input>
W09IXVtDSDJdW0NIMl1bQ0gyXWMobjEpbihjKGMxMilbY0hdW2NIXVtjSF1bY0hdMilbQ0gyXVtDQEhdKFtPSF0pYzNbY0hdW2NIXWMoRilbY0hdW2NIXTM=

> <s_epik_cmdline>
J2VwaWtfcHl0aG9uJywgJy1waCcsICc3LjAnLCAnLXRuJywgJzgnLCAnLW1hJywgJzIwMCcsICctbWV0YWxfYmluZGluZycsICctaW1hZScsICc8aW5maWxlLm1hZT4nLCAnLW9tYWUnLCAnPG91dGZpbGUubWFlPic=

> <r_epik_Ionization_Penalty>
0.786441

> <r_epik_Ionization_Penalty_Charging>
0.786439

> <r_epik_Ionization_Penalty_Neutral>
1.96029e-06

> <r_epik_State_Penalty>
0.816472

> <r_epik_Charging_Adjusted_Penalty>
1.60291

> <i_epik_Tot_Q>
1

> <i_epik_Tot_abs_Q>
1

> <r_epik_Metal_State_Penalty>
4.73733

> <b_epik_Metal_Only>
0

> <s_lp_Force_Field>
OPLS_2005

> <r_lp_Energy>
17.0058

> <b_lp_Chiralities_Consistent>
1

> <s_lp_Variant>
AV-unprocessed.smi:1021-3

> <Gold.Version>
5.8.1

> <Gold.Id.Protein>
6NUR|6NUR_protein|mol2

> <Gold.PLP.Fitness>
58.0712

> <Gold.PLP.PLP>
-51.1977

> <Gold.PLP.part.hbond>
-5.0000

> <Gold.PLP.part.metal>
0.0000

> <Gold.PLP.part.buried>
-2.8660

> <Gold.PLP.part.nonpolar>
-43.9670

> <Gold.PLP.part.repulsive>
0.0853

> <Gold.PLP.ligand.clash>
0.0000

> <Gold.PLP.ligand.torsion>
1.4765

> <Gold.PLP.Chemscore.Hbond>
3.2299

> <Gold.PLP.Chemscore.CHOScore>
0.0000

> <Gold.PLP.Chemscore.Metal>
0.0000

> <Gold.Chemscore.Hbonds>
donor molecule, donor type, donor heavy atom, donor atom, acceptor molecule, acceptor atom, score
      L1  H     1    24       P1  7949  1.00
      P1  H  7989  7998       L1    16  0.25
      P1  H  8011  8017       L1    16  0.93
      P1  H 10752 10764       L1     1  1.00

> <Gold.PLP.Chemscore.Internal.Correction>
0.1369

> <Gold.Rescore>
     Score         DG    S(hbond)    S(metal)    S(lipo)     H(rot)  DE(clash)    DE(int)     intcor
     16.11     -21.85       2.84        0.00     128.12       3.16       3.36       2.38       ----

> <Gold.Chemscore.Fitness>
16.1147

> <Gold.Chemscore.DG>
-21.8510

> <Gold.Chemscore.ZeroCoef>
-5.4800

> <Gold.Chemscore.Hbond>
2.8358

> <Gold.Chemscore.Metal>
0.0000

> <Gold.Chemscore.Lipo>
128.1215

> <Gold.Chemscore.Internal_Hbond>
0.0000

> <Gold.Chemscore.DEClash>
3.3585

> <Gold.Chemscore.DEInternal>
2.3778

> <Gold.Chemscore.Rot>
3.1604

> <Gold.Chemscore.Internal.Correction>
   9.000000E+99

> <Gold.Chemscore.Hbonds>
donor molecule, donor type, donor heavy atom, donor atom, acceptor molecule, acceptor atom, score
      L1  H     1    24       P1  7949  0.38
      L1  H    16    38       P1  7957  0.01
      P1  H  7989  7998       L1    16  0.21
      P1  H  8011  8017       L1    16  0.59
      P1  H 10752 10764       L1     1  0.15

> <Gold.Chemscore.Hbond.Weighted>
-9.4715

> <Gold.Chemscore.Metal.Weighted>
-0.0000

> <Gold.Chemscore.Lipo.Weighted>
-14.9902

> <Gold.Chemscore.Internal_Hbond.Weighted>
0.0000

> <Gold.Chemscore.DEClash.Weighted>
3.3585

> <Gold.Chemscore.DEInternal.Weighted>
2.3778

> <Gold.Chemscore.Rot.Weighted>
8.0907

> <Gold.Chemscore.Internal.Correction.Weighted>
   9.000000E+99

> <Gold.Protein.RotatedTorsions>
[ 6907 6896 6895 6894 ] final  159.71 input  -60.11 | X-H torsion
[ 7974 7965 7964 7962 ] final   20.16 input  175.53 | X-H torsion
[ 8008 7997 7996 7995 ] final   70.00 input   59.86 | X-H torsion
[ 10167 10162 10161 10158 ] final  -41.71 input  -65.29 | X-H torsion
[ 10718 10713 10712 10709 ] final   34.38 input   66.30 | X-H torsion
[ 10763 10752 10751 10750 ] final  -84.29 input  -60.55 | X-H torsion
[ 11005 11000 10999 10996 ] final  -34.83 input  -57.11 | X-H torsion

> <Gold.Protein.ActiveResidues>
 VAL166  LYS551  ARG553  GLY616  TRP617  ASP618  TYR619  PRO620  LYS621  CYS622 
 ASP623  PHE694  ASN695  SER759  ASP760  ASP761  ALA762  ILE779  LEU786  VAL792 
 PHE793  MET794  SER795  GLU796  ALA797  LYS798  CYS799  TRP800  GLU811  SER814 

> <Gold.Protein.RotatedAtoms>
  151.9816  133.3759  159.4109 H   0  0  0  0  0  0  0  0  0  0  0  0  # atno 6907 bound_to 6896
  150.6934  134.4033  159.5138 H   0  0  0  0  0  0  0  0  0  0  0  0  # atno 6908 bound_to 6896
  152.1752  134.8800  160.0582 H   0  0  0  0  0  0  0  0  0  0  0  0  # atno 6909 bound_to 6896
  146.2122  139.8210  142.8680 H   0  0  0  0  0  0  0  0  0  0  0  0  # atno 7974 bound_to 7965
  155.7322  140.3491  155.5064 H   0  0  0  0  0  0  0  0  0  0  0  0  # atno 8008 bound_to 7997
  155.9172  140.1061  157.1256 H   0  0  0  0  0  0  0  0  0  0  0  0  # atno 8009 bound_to 7997
  154.4064  140.1256  156.4620 H   0  0  0  0  0  0  0  0  0  0  0  0  # atno 8010 bound_to 7997
  140.6993  143.3079  151.3105 H   0  0  0  0  0  0  0  0  0  0  0  0  # atno 10167 bound_to 10162
  157.3096  130.7392  149.6716 H   0  0  0  0  0  0  0  0  0  0  0  0  # atno 10718 bound_to 10713
  154.5978  135.5526  153.7343 H   0  0  0  0  0  0  0  0  0  0  0  0  # atno 10763 bound_to 10752
  153.0142  135.6359  154.1758 H   0  0  0  0  0  0  0  0  0  0  0  0  # atno 10764 bound_to 10752
  154.1698  135.2892  155.3064 H   0  0  0  0  0  0  0  0  0  0  0  0  # atno 10765 bound_to 10752
  140.9748  133.7089  156.1583 H   0  0  0  0  0  0  0  0  0  0  0  0  # atno 11005 bound_to 11000
  145.3096  141.0216  143.3562 LP  0  0  0  0  0  0  0  0  0  0  0  0  # atno 17320 bound_to 7965
  144.8945  139.4730  143.6662 LP  0  0  0  0  0  0  0  0  0  0  0  0  # atno 17321 bound_to 7965
  139.6491  144.0396  152.2613 LP  0  0  0  0  0  0  0  0  0  0  0  0  # atno 17342 bound_to 10162
  139.9926  144.6350  150.7801 LP  0  0  0  0  0  0  0  0  0  0  0  0  # atno 17343 bound_to 10162
  155.9677  130.4255  150.4658 LP  0  0  0  0  0  0  0  0  0  0  0  0  # atno 17370 bound_to 10713
  157.2654  131.0576  151.2294 LP  0  0  0  0  0  0  0  0  0  0  0  0  # atno 17371 bound_to 10713
  140.7276  134.4290  157.5569 LP  0  0  0  0  0  0  0  0  0  0  0  0  # atno 17394 bound_to 11000
  139.8926  134.8751  156.2263 LP  0  0  0  0  0  0  0  0  0  0  0  0  # atno 17395 bound_to 11000

$$$$
