AV-unprocessed.smi:174|AV-procd|sdf|1428|dock8
  -GOLD-   2262019203D 1   1.00000     0.00000
 Structure written by MMmdl.
 51 54  0  0  0  0  0  0  0  0  1 V2000
  148.1169  131.1869  152.7302 N   0  0  0  0  0  0  0  0  0  0  0  0
  147.5957  132.4081  152.8669 C   0  0  0  0  0  0  0  0  0  0  0  0
  147.2383  133.0770  151.8983 O   0  0  0  0  0  0  0  0  0  0  0  0
  147.4463  132.9324  154.3023 C   0  0  0  0  0  0  0  0  0  0  0  0
  148.2697  134.1196  154.5772 N   0  0  0  0  0  0  0  0  0  0  0  0
  149.7158  133.9625  154.3982 C   0  0  0  0  0  0  0  0  0  0  0  0
  150.5142  134.8255  155.3801 C   0  0  0  0  0  0  0  0  0  0  0  0
  150.0753  136.2133  155.3032 N   0  0  0  0  0  0  0  0  0  0  0  0
  150.8914  137.2114  155.7445 C   0  0  0  0  0  0  0  0  0  0  0  0
  152.2159  136.9307  155.8732 N   0  0  0  0  0  0  0  0  0  0  0  0
  153.0738  137.8577  156.3062 C   0  0  0  0  0  0  0  0  0  0  0  0
  152.8285  139.1189  156.6603 N   0  0  0  0  0  0  0  0  0  0  0  0
  151.5057  139.4187  156.5275 C   0  0  0  0  0  0  0  0  0  0  0  0
  150.4763  138.5371  156.0830 C   0  0  0  0  0  0  0  0  0  0  0  0
  149.2622  139.2186  156.0736 N   0  0  0  0  0  0  0  0  0  0  0  0
  149.5538  140.4181  156.4947 C   0  0  0  0  0  0  0  0  0  0  0  0
  150.8800  140.6244  156.7907 N   0  0  0  0  0  0  0  0  0  0  0  0
  151.4772  141.8572  157.2729 C   0  0  0  0  0  0  0  0  0  0  0  0
  151.9222  141.7504  158.7466 C   0  0  1  0  0  0  0  0  0  0  0  0
  152.9602  140.7993  158.8775 O   0  0  0  0  0  0  0  0  0  0  0  0
  152.3766  143.0829  159.3774 C   0  0  1  0  0  0  0  0  0  0  0  0
  151.4228  144.2732  159.2365 C   0  0  0  0  0  0  0  0  0  0  0  0
  151.8600  145.1419  160.3938 C   0  0  0  0  0  0  0  0  0  0  0  0
  152.1507  144.0995  161.4699 C   0  0  0  0  0  0  0  0  0  0  0  0
  152.5955  142.9348  160.7785 O   0  0  0  0  0  0  0  0  0  0  0  0
  148.6330  136.5036  155.2472 C   0  0  0  0  0  0  0  0  0  0  0  0
  147.7176  135.3033  154.9387 C   0  0  0  0  0  0  0  0  0  0  0  0
  146.5013  135.4614  155.0476 O   0  0  0  0  0  0  0  0  0  0  0  0
  148.2391  130.7953  151.8076 H   0  0  0  0  0  0  0  0  0  0  0  0
  148.3892  130.6598  153.5470 H   0  0  0  0  0  0  0  0  0  0  0  0
  146.3944  133.1640  154.4754 H   0  0  0  0  0  0  0  0  0  0  0  0
  147.6865  132.1329  155.0056 H   0  0  0  0  0  0  0  0  0  0  0  0
  150.0057  132.9185  154.5243 H   0  0  0  0  0  0  0  0  0  0  0  0
  149.9659  134.2360  153.3722 H   0  0  0  0  0  0  0  0  0  0  0  0
  150.3813  134.4582  156.3988 H   0  0  0  0  0  0  0  0  0  0  0  0
  151.5721  134.7406  155.1296 H   0  0  0  0  0  0  0  0  0  0  0  0
  154.1045  137.5430  156.3796 H   0  0  0  0  0  0  0  0  0  0  0  0
  148.8055  141.1902  156.6007 H   0  0  0  0  0  0  0  0  0  0  0  0
  152.3148  142.1096  156.6229 H   0  0  0  0  0  0  0  0  0  0  0  0
  150.7424  142.6547  157.1578 H   0  0  0  0  0  0  0  0  0  0  0  0
  151.0801  141.3797  159.3326 H   0  0  0  0  0  0  0  0  0  0  0  0
  153.3172  140.6257  158.0199 H   0  0  0  0  0  0  0  0  0  0  0  0
  153.3390  143.3667  158.9476 H   0  0  0  0  0  0  0  0  0  0  0  0
  151.5071  144.7725  158.2711 H   0  0  0  0  0  0  0  0  0  0  0  0
  150.3834  143.9799  159.3783 H   0  0  0  0  0  0  0  0  0  0  0  0
  152.7723  145.6809  160.1348 H   0  0  0  0  0  0  0  0  0  0  0  0
  151.1057  145.8690  160.6956 H   0  0  0  0  0  0  0  0  0  0  0  0
  152.8914  144.4425  162.1925 H   0  0  0  0  0  0  0  0  0  0  0  0
  151.2383  143.8500  162.0127 H   0  0  0  0  0  0  0  0  0  0  0  0
  148.3186  136.9365  156.1983 H   0  0  0  0  0  0  0  0  0  0  0  0
  148.4452  137.2530  154.4771 H   0  0  0  0  0  0  0  0  0  0  0  0
  1  2  1  0  0  0  0
  1 29  1  0  0  0  0
  1 30  1  0  0  0  0
  2  3  2  0  0  0  0
  2  4  1  0  0  0  0
  4  5  1  0  0  0  0
  4 31  1  0  0  0  0
  4 32  1  0  0  0  0
  5 27  1  0  0  0  0
  5  6  1  0  0  0  0
  6  7  1  0  0  0  0
  6 33  1  0  0  0  0
  6 34  1  0  0  0  0
  7  8  1  0  0  0  0
  7 35  1  0  0  0  0
  7 36  1  0  0  0  0
  8  9  1  0  0  0  0
  8 26  1  0  0  0  0
  9 14  1  0  0  0  0
  9 10  2  0  0  0  0
 10 11  1  0  0  0  0
 11 12  2  0  0  0  0
 11 37  1  0  0  0  0
 12 13  1  0  0  0  0
 13 17  1  0  0  0  0
 13 14  2  0  0  0  0
 14 15  1  0  0  0  0
 15 16  2  0  0  0  0
 16 17  1  0  0  0  0
 16 38  1  0  0  0  0
 17 18  1  0  0  0  0
 18 19  1  0  0  0  0
 18 39  1  0  0  0  0
 18 40  1  0  0  0  0
 19 20  1  0  0  0  0
 19 21  1  0  0  0  0
 19 41  1  0  0  0  0
 20 42  1  0  0  0  0
 21 25  1  0  0  0  0
 21 22  1  0  0  0  0
 21 43  1  0  0  0  0
 22 23  1  0  0  0  0
 22 44  1  0  0  0  0
 22 45  1  0  0  0  0
 23 24  1  0  0  0  0
 23 46  1  0  0  0  0
 23 47  1  0  0  0  0
 24 25  1  0  0  0  0
 24 48  1  0  0  0  0
 24 49  1  0  0  0  0
 26 27  1  0  0  0  0
 26 50  1  0  0  0  0
 26 51  1  0  0  0  0
 27 28  2  0  0  0  0
M  END
> <s_m_source_file>
AV-unprocessed.smi

> <i_m_source_file_index>
174

> <i_lp_mmshare_version>
43012

> <i_f3d_flags>
0

> <s_epik_input>
W05IMl1DKD1PKVtDSDJdTjFbQ0gyXVtDSDJdTihbQ0gyXUMxPU8pYyhuW2NIXW4yKWMoYzIzKW5bY0hdbjNbQ0gyXVtDQEhdKFtPSF0pW0NAQEhdNFtDSDJdW0NIMl1bQ0gyXU80

> <s_epik_cmdline>
J2VwaWtfcHl0aG9uJywgJy1waCcsICc3LjAnLCAnLXRuJywgJzgnLCAnLW1hJywgJzIwMCcsICctbWV0YWxfYmluZGluZycsICctaW1hZScsICc8aW5maWxlLm1hZT4nLCAnLW9tYWUnLCAnPG91dGZpbGUubWFlPic=

> <r_lp_tautomer_probability>
1

> <r_epik_Ionization_Penalty>
0.000250477

> <r_epik_Ionization_Penalty_Charging>
0

> <r_epik_Ionization_Penalty_Neutral>
0.000250477

> <r_epik_State_Penalty>
-0

> <r_epik_Charging_Adjusted_Penalty>
0

> <i_epik_Tot_Q>
0

> <i_epik_Tot_abs_Q>
0

> <r_epik_Metal_State_Penalty>
-0

> <b_epik_Metal_Only>
0

> <s_lp_Force_Field>
OPLS_2005

> <r_lp_Energy>
38.9575

> <b_lp_Chiralities_Consistent>
1

> <s_lp_Variant>
AV-unprocessed.smi:174-4

> <Gold.Version>
5.8.1

> <Gold.Id.Protein>
6NUR|6NUR_protein|mol2

> <Gold.PLP.Fitness>
50.8043

> <Gold.PLP.PLP>
-42.1698

> <Gold.PLP.part.hbond>
-3.0507

> <Gold.PLP.part.metal>
0.0000

> <Gold.PLP.part.buried>
-8.2788

> <Gold.PLP.part.nonpolar>
-32.1869

> <Gold.PLP.part.repulsive>
0.2956

> <Gold.PLP.ligand.clash>
0.0000

> <Gold.PLP.ligand.torsion>
0.2734

> <Gold.PLP.Chemscore.Hbond>
2.9680

> <Gold.PLP.Chemscore.CHOScore>
0.0000

> <Gold.PLP.Chemscore.Metal>
0.0000

> <Gold.Chemscore.Hbonds>
donor molecule, donor type, donor heavy atom, donor atom, acceptor molecule, acceptor atom, score
      L1  H     1    29       P1 10747  0.99
      P1  H  7997  8009       L1    12  1.00
      P1  H 10752 10765       L1    10  0.99

> <Gold.PLP.Chemscore.Internal.Correction>
0.2772

> <Gold.Rescore>
     Score         DG    S(hbond)    S(metal)    S(lipo)     H(rot)  DE(clash)    DE(int)     intcor
     13.70     -15.34       2.60        0.00      85.79       3.46       0.10       1.54       ----

> <Gold.Chemscore.Fitness>
13.6977

> <Gold.Chemscore.DG>
-15.3359

> <Gold.Chemscore.ZeroCoef>
-5.4800

> <Gold.Chemscore.Hbond>
2.5969

> <Gold.Chemscore.Metal>
0.0000

> <Gold.Chemscore.Lipo>
85.7929

> <Gold.Chemscore.Internal_Hbond>
0.0000

> <Gold.Chemscore.DEClash>
0.1027

> <Gold.Chemscore.DEInternal>
1.5355

> <Gold.Chemscore.Rot>
3.4591

> <Gold.Chemscore.Internal.Correction>
   9.000000E+99

> <Gold.Chemscore.Hbonds>
donor molecule, donor type, donor heavy atom, donor atom, acceptor molecule, acceptor atom, score
      L1  H     1    29       P1 10747  0.94
      P1  H  7997  8009       L1    12  0.57
      P1  H 10752 10765       L1    10  0.77

> <Gold.Chemscore.Hbond.Weighted>
-8.6735

> <Gold.Chemscore.Metal.Weighted>
-0.0000

> <Gold.Chemscore.Lipo.Weighted>
-10.0378

> <Gold.Chemscore.Internal_Hbond.Weighted>
0.0000

> <Gold.Chemscore.DEClash.Weighted>
0.1027

> <Gold.Chemscore.DEInternal.Weighted>
1.5355

> <Gold.Chemscore.Rot.Weighted>
8.8553

> <Gold.Chemscore.Internal.Correction.Weighted>
   9.000000E+99

> <Gold.Protein.RotatedTorsions>
[ 6907 6896 6895 6894 ] final   27.39 input  -60.11 | X-H torsion
[ 7974 7965 7964 7962 ] final    5.59 input  175.53 | X-H torsion
[ 8008 7997 7996 7995 ] final -153.23 input   59.86 | X-H torsion
[ 10167 10162 10161 10158 ] final -121.63 input  -65.29 | X-H torsion
[ 10718 10713 10712 10709 ] final  143.69 input   66.30 | X-H torsion
[ 10763 10752 10751 10750 ] final -157.36 input  -60.55 | X-H torsion
[ 11005 11000 10999 10996 ] final  -17.71 input  -57.11 | X-H torsion

> <Gold.Protein.ActiveResidues>
 VAL166  LYS551  ARG553  GLY616  TRP617  ASP618  TYR619  PRO620  LYS621  CYS622 
 ASP623  PHE694  ASN695  SER759  ASP760  ASP761  ALA762  ILE779  LEU786  VAL792 
 PHE793  MET794  SER795  GLU796  ALA797  LYS798  CYS799  TRP800  GLU811  SER814 

> <Gold.Protein.RotatedAtoms>
  152.0015  134.9925  160.0564 H   0  0  0  0  0  0  0  0  0  0  0  0  # atno 6907 bound_to 6896
  152.1514  133.4520  159.4824 H   0  0  0  0  0  0  0  0  0  0  0  0  # atno 6908 bound_to 6896
  150.6876  134.2102  159.4399 H   0  0  0  0  0  0  0  0  0  0  0  0  # atno 6909 bound_to 6896
  146.2440  140.0361  142.8386 H   0  0  0  0  0  0  0  0  0  0  0  0  # atno 7974 bound_to 7965
  155.6675  140.0729  157.2532 H   0  0  0  0  0  0  0  0  0  0  0  0  # atno 8008 bound_to 7997
  154.4130  140.1705  156.1895 H   0  0  0  0  0  0  0  0  0  0  0  0  # atno 8009 bound_to 7997
  155.9644  140.3367  155.6523 H   0  0  0  0  0  0  0  0  0  0  0  0  # atno 8010 bound_to 7997
  140.0230  143.5325  152.2212 H   0  0  0  0  0  0  0  0  0  0  0  0  # atno 10167 bound_to 10162
  157.3660  131.0972  151.0872 H   0  0  0  0  0  0  0  0  0  0  0  0  # atno 10718 bound_to 10713
  154.7642  135.3126  154.8318 H   0  0  0  0  0  0  0  0  0  0  0  0  # atno 10763 bound_to 10752
  153.9071  135.6809  153.4757 H   0  0  0  0  0  0  0  0  0  0  0  0  # atno 10764 bound_to 10752
  153.1246  135.4807  154.9184 H   0  0  0  0  0  0  0  0  0  0  0  0  # atno 10765 bound_to 10752
  140.8195  133.8079  155.9645 H   0  0  0  0  0  0  0  0  0  0  0  0  # atno 11005 bound_to 11000
  145.1111  140.9405  143.4656 LP  0  0  0  0  0  0  0  0  0  0  0  0  # atno 17320 bound_to 7965
  145.0575  139.3132  143.5897 LP  0  0  0  0  0  0  0  0  0  0  0  0  # atno 17321 bound_to 7965
  139.6127  144.7612  151.2915 LP  0  0  0  0  0  0  0  0  0  0  0  0  # atno 17342 bound_to 10162
  140.7334  143.6794  150.8014 LP  0  0  0  0  0  0  0  0  0  0  0  0  # atno 17343 bound_to 10162
  157.1994  130.6387  149.5733 LP  0  0  0  0  0  0  0  0  0  0  0  0  # atno 17370 bound_to 10713
  155.9746  130.4696  150.6400 LP  0  0  0  0  0  0  0  0  0  0  0  0  # atno 17371 bound_to 10713
  140.9113  134.2256  157.4983 LP  0  0  0  0  0  0  0  0  0  0  0  0  # atno 17394 bound_to 11000
  139.8709  134.9751  156.4872 LP  0  0  0  0  0  0  0  0  0  0  0  0  # atno 17395 bound_to 11000

$$$$
