AV-unprocessed.smi:1966|AV-procd|sdf|7949|dock5
  -GOLD-   2272010113D 1   1.00000     0.00000
 Structure written by MMmdl.
 53 54  0  0  0  0  0  0  0  0  1 V2000
  154.0753  131.8754  161.4126 C   0  0  0  0  0  0  0  0  0  0  0  0
  154.7320  133.2467  161.3019 C   0  0  0  0  0  0  0  0  0  0  0  0
  155.1811  133.6322  160.2228 O   0  0  0  0  0  0  0  0  0  0  0  0
  154.7825  133.9739  162.4294 N   0  0  0  0  0  0  0  0  0  0  0  0
  155.3550  135.3170  162.5478 C   0  0  1  0  0  0  0  0  0  0  0  0
  154.5783  136.2699  161.6179 C   0  0  0  0  0  0  0  0  0  0  0  0
  153.8165  135.8099  160.7666 O   0  0  0  0  0  0  0  0  0  0  0  0
  154.7731  137.5829  161.8414 N   0  0  0  0  0  0  0  0  0  0  0  0
  154.2064  138.6981  161.1669 C   0  0  0  0  0  0  0  0  0  0  0  0
  154.6900  139.9796  161.4942 C   0  0  0  0  0  0  0  0  0  0  0  0
  154.1632  141.1055  160.8340 C   0  0  0  0  0  0  0  0  0  0  0  0
  153.1647  140.9228  159.8488 C   0  0  0  0  0  0  0  0  0  0  0  0
  152.6221  142.0375  159.1732 N   0  0  0  0  0  0  0  0  0  0  0  0
  151.5358  141.7407  158.2437 C   0  0  0  0  0  0  0  0  0  0  0  0
  151.2399  142.9618  157.3519 C   0  0  1  0  0  0  0  0  0  0  0  0
  150.0221  142.7330  156.4508 C   0  0  0  0  0  0  0  0  0  0  0  0
  150.9790  144.0951  158.1753 O   0  0  0  0  0  0  0  0  0  0  0  0
  152.0926  144.4393  158.9947 C   0  0  1  0  0  0  0  0  0  0  0  0
  151.7475  145.7197  159.7621 C   0  0  0  0  0  0  0  0  0  0  0  0
  152.4054  143.2635  159.9388 C   0  0  0  0  0  0  0  0  0  0  0  0
  152.7043  139.6886  159.5286 N   0  0  0  0  0  0  0  0  0  0  0  0
  153.2128  138.6111  160.1631 C   0  0  0  0  0  0  0  0  0  0  0  0
  155.2306  135.7909  164.0263 C   0  0  0  0  0  0  0  0  0  0  0  0
  155.7747  134.7614  165.0389 C   0  0  0  0  0  0  0  0  0  0  0  0
  153.7751  136.1387  164.3962 C   0  0  0  0  0  0  0  0  0  0  0  0
  153.0494  131.9712  161.7691 H   0  0  0  0  0  0  0  0  0  0  0  0
  154.6273  131.2446  162.1100 H   0  0  0  0  0  0  0  0  0  0  0  0
  154.0545  131.3764  160.4430 H   0  0  0  0  0  0  0  0  0  0  0  0
  154.3806  133.5778  163.2665 H   0  0  0  0  0  0  0  0  0  0  0  0
  156.4095  135.2925  162.2639 H   0  0  0  0  0  0  0  0  0  0  0  0
  155.3699  137.8098  162.6235 H   0  0  0  0  0  0  0  0  0  0  0  0
  155.4534  140.1039  162.2485 H   0  0  0  0  0  0  0  0  0  0  0  0
  154.5191  142.0898  161.0988 H   0  0  0  0  0  0  0  0  0  0  0  0
  151.7723  140.8872  157.6100 H   0  0  0  0  0  0  0  0  0  0  0  0
  150.6488  141.4714  158.8189 H   0  0  0  0  0  0  0  0  0  0  0  0
  152.1042  143.1720  156.7194 H   0  0  0  0  0  0  0  0  0  0  0  0
  150.1797  141.8825  155.7874 H   0  0  0  0  0  0  0  0  0  0  0  0
  149.8273  143.6079  155.8302 H   0  0  0  0  0  0  0  0  0  0  0  0
  149.1263  142.5368  157.0408 H   0  0  0  0  0  0  0  0  0  0  0  0
  152.9569  144.6393  158.3584 H   0  0  0  0  0  0  0  0  0  0  0  0
  152.5751  146.0288  160.4010 H   0  0  0  0  0  0  0  0  0  0  0  0
  150.8705  145.5769  160.3939 H   0  0  0  0  0  0  0  0  0  0  0  0
  151.5334  146.5390  159.0751 H   0  0  0  0  0  0  0  0  0  0  0  0
  151.5800  143.1105  160.6356 H   0  0  0  0  0  0  0  0  0  0  0  0
  153.2922  143.4985  160.5290 H   0  0  0  0  0  0  0  0  0  0  0  0
  152.8132  137.6667  159.8295 H   0  0  0  0  0  0  0  0  0  0  0  0
  155.8168  136.7036  164.1483 H   0  0  0  0  0  0  0  0  0  0  0  0
  155.2653  133.8026  164.9380 H   0  0  0  0  0  0  0  0  0  0  0  0
  155.6309  135.1053  166.0637 H   0  0  0  0  0  0  0  0  0  0  0  0
  156.8435  134.5864  164.9153 H   0  0  0  0  0  0  0  0  0  0  0  0
  153.1188  135.2782  164.2626 H   0  0  0  0  0  0  0  0  0  0  0  0
  153.3821  136.9544  163.7893 H   0  0  0  0  0  0  0  0  0  0  0  0
  153.6993  136.4541  165.4371 H   0  0  0  0  0  0  0  0  0  0  0  0
  1  2  1  0  0  0  0
  1 26  1  0  0  0  0
  1 27  1  0  0  0  0
  1 28  1  0  0  0  0
  2  3  2  0  0  0  0
  2  4  1  0  0  0  0
  4  5  1  0  0  0  0
  4 29  1  0  0  0  0
  5  6  1  0  0  0  0
  5 23  1  0  0  0  0
  5 30  1  0  0  0  0
  6  7  2  0  0  0  0
  6  8  1  0  0  0  0
  8  9  1  0  0  0  0
  8 31  1  0  0  0  0
  9 22  1  0  0  0  0
  9 10  2  0  0  0  0
 10 11  1  0  0  0  0
 10 32  1  0  0  0  0
 11 12  2  0  0  0  0
 11 33  1  0  0  0  0
 12 13  1  0  0  0  0
 12 21  1  0  0  0  0
 13 20  1  0  0  0  0
 13 14  1  0  0  0  0
 14 15  1  0  0  0  0
 14 34  1  0  0  0  0
 14 35  1  0  0  0  0
 15 16  1  0  0  0  0
 15 17  1  0  0  0  0
 15 36  1  0  0  0  0
 16 37  1  0  0  0  0
 16 38  1  0  0  0  0
 16 39  1  0  0  0  0
 17 18  1  0  0  0  0
 18 19  1  0  0  0  0
 18 20  1  0  0  0  0
 18 40  1  0  0  0  0
 19 41  1  0  0  0  0
 19 42  1  0  0  0  0
 19 43  1  0  0  0  0
 20 44  1  0  0  0  0
 20 45  1  0  0  0  0
 21 22  2  0  0  0  0
 22 46  1  0  0  0  0
 23 24  1  0  0  0  0
 23 25  1  0  0  0  0
 23 47  1  0  0  0  0
 24 48  1  0  0  0  0
 24 49  1  0  0  0  0
 24 50  1  0  0  0  0
 25 51  1  0  0  0  0
 25 52  1  0  0  0  0
 25 53  1  0  0  0  0
M  END
> <s_m_source_file>
AV-unprocessed.smi

> <i_m_source_file_index>
1966

> <i_lp_mmshare_version>
43012

> <i_f3d_flags>
0

> <s_epik_input>
W0NIM11DKD1PKVtOSF1bQ0BASF0oW0NIXShbQ0gzXSlbQ0gzXSlDKD1PKVtOSF1jMVtjSF1bY0hdYyhuW2NIXTEpTjJbQ0gyXVtDQEBIXShbQ0gzXSlPW0NAQEhdKFtDSDNdKVtDSDJdMg==

> <s_epik_cmdline>
J2VwaWtfcHl0aG9uJywgJy1waCcsICc3LjAnLCAnLXRuJywgJzgnLCAnLW1hJywgJzIwMCcsICctbWV0YWxfYmluZGluZycsICctaW1hZScsICc8aW5maWxlLm1hZT4nLCAnLW9tYWUnLCAnPG91dGZpbGUubWFlPic=

> <r_lp_tautomer_probability>
1

> <r_epik_Ionization_Penalty>
0.000679699

> <r_epik_Ionization_Penalty_Charging>
0

> <r_epik_Ionization_Penalty_Neutral>
0.000679699

> <r_epik_State_Penalty>
0.000430485

> <r_epik_Charging_Adjusted_Penalty>
0.000430485

> <i_epik_Tot_Q>
0

> <i_epik_Tot_abs_Q>
0

> <r_epik_Metal_State_Penalty>
-0

> <b_epik_Metal_Only>
0

> <s_lp_Force_Field>
OPLS_2005

> <r_lp_Energy>
24.6084

> <b_lp_Chiralities_Consistent>
1

> <s_lp_Variant>
AV-unprocessed.smi:1966-2

> <Gold.Version>
5.8.1

> <Gold.Id.Protein>
6NUR|6NUR_protein|mol2

> <Gold.PLP.Fitness>
42.8400

> <Gold.PLP.PLP>
-41.0559

> <Gold.PLP.part.hbond>
-1.0000

> <Gold.PLP.part.metal>
0.0000

> <Gold.PLP.part.buried>
-2.0793

> <Gold.PLP.part.nonpolar>
-37.9525

> <Gold.PLP.part.repulsive>
0.1937

> <Gold.PLP.ligand.clash>
0.0000

> <Gold.PLP.ligand.torsion>
0.7907

> <Gold.PLP.Chemscore.Hbond>
1.0000

> <Gold.PLP.Chemscore.CHOScore>
0.0000

> <Gold.PLP.Chemscore.Metal>
0.0000

> <Gold.Chemscore.Hbonds>
donor molecule, donor type, donor heavy atom, donor atom, acceptor molecule, acceptor atom, score
      P1  H  6896  6909       L1     7  1.00

> <Gold.PLP.Chemscore.Internal.Correction>
0.3656

> <Gold.Rescore>
     Score         DG    S(hbond)    S(metal)    S(lipo)     H(rot)  DE(clash)    DE(int)     intcor
     15.33     -18.52       0.99        0.00     119.77       1.68       1.43       1.76       ----

> <Gold.Chemscore.Fitness>
15.3325

> <Gold.Chemscore.DG>
-18.5198

> <Gold.Chemscore.ZeroCoef>
-5.4800

> <Gold.Chemscore.Hbond>
0.9930

> <Gold.Chemscore.Metal>
0.0000

> <Gold.Chemscore.Lipo>
119.7742

> <Gold.Chemscore.Internal_Hbond>
0.0000

> <Gold.Chemscore.DEClash>
1.4256

> <Gold.Chemscore.DEInternal>
1.7617

> <Gold.Chemscore.Rot>
1.6759

> <Gold.Chemscore.Internal.Correction>
   9.000000E+99

> <Gold.Chemscore.Hbonds>
donor molecule, donor type, donor heavy atom, donor atom, acceptor molecule, acceptor atom, score
      P1  H  6896  6909       L1     7  0.97

> <Gold.Chemscore.Hbond.Weighted>
-3.3165

> <Gold.Chemscore.Metal.Weighted>
-0.0000

> <Gold.Chemscore.Lipo.Weighted>
-14.0136

> <Gold.Chemscore.Internal_Hbond.Weighted>
0.0000

> <Gold.Chemscore.DEClash.Weighted>
1.4256

> <Gold.Chemscore.DEInternal.Weighted>
1.7617

> <Gold.Chemscore.Rot.Weighted>
4.2902

> <Gold.Chemscore.Internal.Correction.Weighted>
   9.000000E+99

> <Gold.Protein.RotatedTorsions>
[ 6907 6896 6895 6894 ] final  159.98 input  -60.11 | X-H torsion
[ 7974 7965 7964 7962 ] final  -44.37 input  175.53 | X-H torsion
[ 8008 7997 7996 7995 ] final  119.70 input   59.86 | X-H torsion
[ 10167 10162 10161 10158 ] final   86.95 input  -65.29 | X-H torsion
[ 10718 10713 10712 10709 ] final -136.59 input   66.30 | X-H torsion
[ 10763 10752 10751 10750 ] final  -57.10 input  -60.55 | X-H torsion
[ 11005 11000 10999 10996 ] final  106.79 input  -57.11 | X-H torsion

> <Gold.Protein.ActiveResidues>
 VAL166  LYS551  ARG553  GLY616  TRP617  ASP618  TYR619  PRO620  LYS621  CYS622 
 ASP623  PHE694  ASN695  SER759  ASP760  ASP761  ALA762  ILE779  LEU786  VAL792 
 PHE793  MET794  SER795  GLU796  ALA797  LYS798  CYS799  TRP800  GLU811  SER814 

> <Gold.Protein.RotatedAtoms>
  151.9775  133.3746  159.4094 H   0  0  0  0  0  0  0  0  0  0  0  0  # atno 6907 bound_to 6896
  150.6939  134.4075  159.5156 H   0  0  0  0  0  0  0  0  0  0  0  0  # atno 6908 bound_to 6896
  152.1788  134.8771  160.0579 H   0  0  0  0  0  0  0  0  0  0  0  0  # atno 6909 bound_to 6896
  145.9927  140.7163  142.9309 H   0  0  0  0  0  0  0  0  0  0  0  0  # atno 7974 bound_to 7965
  156.2608  140.2847  156.1033 H   0  0  0  0  0  0  0  0  0  0  0  0  # atno 8008 bound_to 7997
  155.1336  140.0394  157.2798 H   0  0  0  0  0  0  0  0  0  0  0  0  # atno 8009 bound_to 7997
  154.6581  140.2560  155.7145 H   0  0  0  0  0  0  0  0  0  0  0  0  # atno 8010 bound_to 7997
  139.8823  144.6433  150.8830 H   0  0  0  0  0  0  0  0  0  0  0  0  # atno 10167 bound_to 10162
  156.2787  130.7308  151.1298 H   0  0  0  0  0  0  0  0  0  0  0  0  # atno 10718 bound_to 10713
  154.2171  135.6384  153.5133 H   0  0  0  0  0  0  0  0  0  0  0  0  # atno 10763 bound_to 10752
  152.9977  135.5488  154.6154 H   0  0  0  0  0  0  0  0  0  0  0  0  # atno 10764 bound_to 10752
  154.5605  135.2908  155.0898 H   0  0  0  0  0  0  0  0  0  0  0  0  # atno 10765 bound_to 10752
  139.8819  134.9380  156.5720 H   0  0  0  0  0  0  0  0  0  0  0  0  # atno 11005 bound_to 11000
  144.6894  140.3097  143.7250 LP  0  0  0  0  0  0  0  0  0  0  0  0  # atno 17320 bound_to 7965
  145.7606  139.1823  143.2269 LP  0  0  0  0  0  0  0  0  0  0  0  0  # atno 17321 bound_to 7965
  140.7742  143.3576  151.1891 LP  0  0  0  0  0  0  0  0  0  0  0  0  # atno 17342 bound_to 10162
  139.7185  143.9262  152.2976 LP  0  0  0  0  0  0  0  0  0  0  0  0  # atno 17343 bound_to 10162
  157.7307  131.0614  150.5711 LP  0  0  0  0  0  0  0  0  0  0  0  0  # atno 17370 bound_to 10713
  156.5815  130.4305  149.5975 LP  0  0  0  0  0  0  0  0  0  0  0  0  # atno 17371 bound_to 10713
  140.8091  133.8444  155.8794 LP  0  0  0  0  0  0  0  0  0  0  0  0  # atno 17394 bound_to 11000
  140.9523  134.1763  157.4718 LP  0  0  0  0  0  0  0  0  0  0  0  0  # atno 17395 bound_to 11000

$$$$
