AV-unprocessed.smi:249|AV-procd|sdf|1909|dock3
  -GOLD-   2262020593D 1   1.00000     0.00000
 Structure written by MMmdl.
 64 67  0  0  0  0  0  0  0  0  2 V2000
  146.6084  133.0644  151.0011 C   0  0  0  0  0  0  0  0  0  0  0  0
  146.3227  133.7953  152.3214 C   0  0  0  0  0  0  0  0  0  0  0  0
  147.5517  134.1099  153.0984 N   0  3  1  0  0  0  0  0  0  0  0  0
  147.2396  134.7409  154.4091 C   0  0  0  0  0  0  0  0  0  0  0  0
  148.5071  135.2830  155.0874 C   0  0  0  0  0  0  0  0  0  0  0  0
  149.5653  134.1732  155.2421 C   0  0  2  0  0  0  0  0  0  0  0  0
  150.7751  134.6028  155.9589 N   0  0  0  0  0  0  0  0  0  0  0  0
  151.6680  133.5665  156.4674 C   0  0  0  0  0  0  0  0  0  0  0  0
  150.8438  135.7743  156.6463 C   0  0  0  0  0  0  0  0  0  0  0  0
  150.6544  135.7936  157.9917 N   0  0  0  0  0  0  0  0  0  0  0  0
  150.7372  136.9398  158.6732 C   0  0  0  0  0  0  0  0  0  0  0  0
  151.0030  138.1638  158.2157 N   0  0  0  0  0  0  0  0  0  0  0  0
  151.2034  138.1537  156.8675 C   0  0  0  0  0  0  0  0  0  0  0  0
  151.1407  137.0155  156.0142 C   0  0  0  0  0  0  0  0  0  0  0  0
  151.3830  137.3985  154.7002 N   0  0  0  0  0  0  0  0  0  0  0  0
  151.5844  138.6857  154.7732 C   0  0  0  0  0  0  0  0  0  0  0  0
  151.5173  139.2184  156.0408 N   0  0  0  0  0  0  0  0  0  0  0  0
  151.6937  140.6129  156.4066 C   0  0  0  0  0  0  0  0  0  0  0  0
  150.5552  141.2104  157.2808 C   0  0  2  0  0  0  0  0  0  0  0  0
  149.3587  141.5790  156.3702 C   0  0  0  0  0  0  0  0  0  0  0  0
  148.3026  142.1518  157.1139 O   0  0  0  0  0  0  0  0  0  0  0  0
  151.0146  142.4279  158.1385 C   0  0  1  0  0  0  0  0  0  0  0  0
  152.2037  142.1615  159.0507 C   0  0  0  0  0  0  0  0  0  0  0  0
  152.6952  143.5662  159.3655 C   0  0  0  0  0  0  0  0  0  0  0  0
  152.5386  144.2732  158.1464 O   0  0  0  0  0  0  0  0  0  0  0  0
  151.5384  143.6427  157.3516 C   0  0  0  0  0  0  0  0  0  0  0  0
  149.8433  133.5052  153.8772 C   0  0  0  0  0  0  0  0  0  0  0  0
  148.5490  132.9989  153.2071 C   0  0  1  0  0  0  0  0  0  0  0  0
  147.9937  131.7284  153.8864 C   0  0  0  0  0  0  0  0  0  0  0  0
  145.6990  132.9845  150.4054 H   0  0  0  0  0  0  0  0  0  0  0  0
  146.9717  132.0503  151.1658 H   0  0  0  0  0  0  0  0  0  0  0  0
  147.3474  133.5991  150.4040 H   0  0  0  0  0  0  0  0  0  0  0  0
  145.8238  134.7335  152.0753 H   0  0  0  0  0  0  0  0  0  0  0  0
  145.6147  133.2308  152.9284 H   0  0  0  0  0  0  0  0  0  0  0  0
  146.5442  135.5680  154.2608 H   0  0  0  0  0  0  0  0  0  0  0  0
  146.7339  134.0270  155.0597 H   0  0  0  0  0  0  0  0  0  0  0  0
  148.8935  136.1118  154.4955 H   0  0  0  0  0  0  0  0  0  0  0  0
  148.2470  135.6976  156.0617 H   0  0  0  0  0  0  0  0  0  0  0  0
  149.1255  133.4044  155.8782 H   0  0  0  0  0  0  0  0  0  0  0  0
  152.6614  133.6732  156.0315 H   0  0  0  0  0  0  0  0  0  0  0  0
  151.3039  132.5702  156.2149 H   0  0  0  0  0  0  0  0  0  0  0  0
  151.7602  133.6207  157.5533 H   0  0  0  0  0  0  0  0  0  0  0  0
  150.5690  136.8654  159.7374 H   0  0  0  0  0  0  0  0  0  0  0  0
  151.8016  139.2829  153.8995 H   0  0  0  0  0  0  0  0  0  0  0  0
  152.6493  140.7178  156.9219 H   0  0  0  0  0  0  0  0  0  0  0  0
  151.7914  141.1686  155.4737 H   0  0  0  0  0  0  0  0  0  0  0  0
  150.2030  140.4400  157.9681 H   0  0  0  0  0  0  0  0  0  0  0  0
  149.6384  142.3163  155.6191 H   0  0  0  0  0  0  0  0  0  0  0  0
  148.9915  140.7013  155.8373 H   0  0  0  0  0  0  0  0  0  0  0  0
  148.2624  143.0755  156.9181 H   0  0  0  0  0  0  0  0  0  0  0  0
  150.1836  142.7546  158.7662 H   0  0  0  0  0  0  0  0  0  0  0  0
  151.9410  141.6104  159.9540 H   0  0  0  0  0  0  0  0  0  0  0  0
  152.9779  141.6057  158.5194 H   0  0  0  0  0  0  0  0  0  0  0  0
  152.0679  144.0292  160.1282 H   0  0  0  0  0  0  0  0  0  0  0  0
  153.7286  143.5854  159.7120 H   0  0  0  0  0  0  0  0  0  0  0  0
  152.0016  143.3390  156.4123 H   0  0  0  0  0  0  0  0  0  0  0  0
  150.7463  144.3548  157.1239 H   0  0  0  0  0  0  0  0  0  0  0  0
  150.3197  134.2055  153.1925 H   0  0  0  0  0  0  0  0  0  0  0  0
  150.5473  132.6813  154.0010 H   0  0  0  0  0  0  0  0  0  0  0  0
  148.8365  132.7126  152.1960 H   0  0  0  0  0  0  0  0  0  0  0  0
  148.7660  130.9618  153.9537 H   0  0  0  0  0  0  0  0  0  0  0  0
  147.1709  131.2931  153.3199 H   0  0  0  0  0  0  0  0  0  0  0  0
  147.6379  131.9169  154.8986 H   0  0  0  0  0  0  0  0  0  0  0  0
  148.0182  134.8321  152.5683 H   0  0  0  0  0  0  0  0  0  0  0  0
  1  2  1  0  0  0  0
  1 30  1  0  0  0  0
  1 31  1  0  0  0  0
  1 32  1  0  0  0  0
  2  3  1  0  0  0  0
  2 33  1  0  0  0  0
  2 34  1  0  0  0  0
  3 28  1  0  0  0  0
  3  4  1  0  0  0  0
  3 64  1  0  0  0  0
  4  5  1  0  0  0  0
  4 35  1  0  0  0  0
  4 36  1  0  0  0  0
  5  6  1  0  0  0  0
  5 37  1  0  0  0  0
  5 38  1  0  0  0  0
  6  7  1  0  0  0  0
  6 27  1  0  0  0  0
  6 39  1  0  0  0  0
  7  8  1  0  0  0  0
  7  9  1  0  0  0  0
  8 40  1  0  0  0  0
  8 41  1  0  0  0  0
  8 42  1  0  0  0  0
  9 14  1  0  0  0  0
  9 10  2  0  0  0  0
 10 11  1  0  0  0  0
 11 12  2  0  0  0  0
 11 43  1  0  0  0  0
 12 13  1  0  0  0  0
 13 17  1  0  0  0  0
 13 14  2  0  0  0  0
 14 15  1  0  0  0  0
 15 16  2  0  0  0  0
 16 17  1  0  0  0  0
 16 44  1  0  0  0  0
 17 18  1  0  0  0  0
 18 19  1  0  0  0  0
 18 45  1  0  0  0  0
 18 46  1  0  0  0  0
 19 20  1  0  0  0  0
 19 22  1  0  0  0  0
 19 47  1  0  0  0  0
 20 21  1  0  0  0  0
 20 48  1  0  0  0  0
 20 49  1  0  0  0  0
 21 50  1  0  0  0  0
 22 26  1  0  0  0  0
 22 23  1  0  0  0  0
 22 51  1  0  0  0  0
 23 24  1  0  0  0  0
 23 52  1  0  0  0  0
 23 53  1  0  0  0  0
 24 25  1  0  0  0  0
 24 54  1  0  0  0  0
 24 55  1  0  0  0  0
 25 26  1  0  0  0  0
 26 56  1  0  0  0  0
 26 57  1  0  0  0  0
 27 28  1  0  0  0  0
 27 58  1  0  0  0  0
 27 59  1  0  0  0  0
 28 29  1  0  0  0  0
 28 60  1  0  0  0  0
 29 61  1  0  0  0  0
 29 62  1  0  0  0  0
 29 63  1  0  0  0  0
M  CHG  1   3   1
M  END
> <s_m_source_file>
AV-unprocessed.smi

> <i_m_source_file_index>
249

> <i_lp_mmshare_version>
43012

> <i_f3d_flags>
0

> <s_epik_input>
W0NIM11bQ0gyXU4xW0NIMl1bQ0gyXVtDQEhdKFtDSDJdW0NASF0xW0NIM10pTihbQ0gzXSljKG5bY0hdbjIpYyhjMjMpbltjSF1uM1tDSDJdW0NASF0oW0NIMl1bT0hdKVtDQEBIXTRbQ0gyXVtDSDJdT1tDSDJdNA==

> <s_epik_cmdline>
J2VwaWtfcHl0aG9uJywgJy1waCcsICc3LjAnLCAnLXRuJywgJzgnLCAnLW1hJywgJzIwMCcsICctbWV0YWxfYmluZGluZycsICctaW1hZScsICc8aW5maWxlLm1hZT4nLCAnLW9tYWUnLCAnPG91dGZpbGUubWFlPic=

> <r_lp_tautomer_probability>
1

> <r_epik_Ionization_Penalty>
0.00294688

> <r_epik_Ionization_Penalty_Charging>
0.00169971

> <r_epik_Ionization_Penalty_Neutral>
0.00124717

> <r_epik_State_Penalty>
-0

> <r_epik_Charging_Adjusted_Penalty>
0.00169971

> <i_epik_Tot_Q>
1

> <i_epik_Tot_abs_Q>
1

> <r_epik_Metal_State_Penalty>
-0

> <b_epik_Metal_Only>
0

> <s_lp_Force_Field>
OPLS_2005

> <r_lp_Energy>
54.5732

> <b_lp_Chiralities_Consistent>
1

> <s_lp_Variant>
AV-unprocessed.smi:249-12

> <Gold.Version>
5.8.1

> <Gold.Id.Protein>
6NUR|6NUR_protein|mol2

> <Gold.PLP.Fitness>
55.0716

> <Gold.PLP.PLP>
-46.9836

> <Gold.PLP.part.hbond>
-3.0000

> <Gold.PLP.part.metal>
0.0000

> <Gold.PLP.part.buried>
-6.5815

> <Gold.PLP.part.nonpolar>
-37.5578

> <Gold.PLP.part.repulsive>
0.1698

> <Gold.PLP.ligand.clash>
0.0000

> <Gold.PLP.ligand.torsion>
1.9820

> <Gold.PLP.Chemscore.Hbond>
3.6552

> <Gold.PLP.Chemscore.CHOScore>
0.0000

> <Gold.PLP.Chemscore.Metal>
0.0000

> <Gold.Chemscore.Hbonds>
donor molecule, donor type, donor heavy atom, donor atom, acceptor molecule, acceptor atom, score
      L1  H     3    64       P1  7948  2.00
      L1  H    21    50       P1  8028  0.71
      P1  H  6896  6909       L1    10  0.50
      P1  H 10752 10763       L1    15  0.02

> <Gold.PLP.Chemscore.Internal.Correction>
1.0865

> <Gold.Rescore>
     Score         DG    S(hbond)    S(metal)    S(lipo)     H(rot)  DE(clash)    DE(int)     intcor
     16.20     -18.43       2.19        0.00     106.10       2.65       0.15       2.08       ----

> <Gold.Chemscore.Fitness>
16.2007

> <Gold.Chemscore.DG>
-18.4308

> <Gold.Chemscore.ZeroCoef>
-5.4800

> <Gold.Chemscore.Hbond>
2.1932

> <Gold.Chemscore.Metal>
0.0000

> <Gold.Chemscore.Lipo>
106.0980

> <Gold.Chemscore.Internal_Hbond>
0.0000

> <Gold.Chemscore.DEClash>
0.1489

> <Gold.Chemscore.DEInternal>
2.0813

> <Gold.Chemscore.Rot>
2.6515

> <Gold.Chemscore.Internal.Correction>
   9.000000E+99

> <Gold.Chemscore.Hbonds>
donor molecule, donor type, donor heavy atom, donor atom, acceptor molecule, acceptor atom, score
      L1  H     3    64       P1  7948  0.74
      L1  H    21    50       P1  8028  0.20
      P1  H  6896  6909       L1    10  0.12

> <Gold.Chemscore.Hbond.Weighted>
-7.3253

> <Gold.Chemscore.Metal.Weighted>
-0.0000

> <Gold.Chemscore.Lipo.Weighted>
-12.4135

> <Gold.Chemscore.Internal_Hbond.Weighted>
0.0000

> <Gold.Chemscore.DEClash.Weighted>
0.1489

> <Gold.Chemscore.DEInternal.Weighted>
2.0813

> <Gold.Chemscore.Rot.Weighted>
6.7880

> <Gold.Chemscore.Internal.Correction.Weighted>
   9.000000E+99

> <Gold.Protein.RotatedTorsions>
[ 6907 6896 6895 6894 ] final   42.68 input  -60.11 | X-H torsion
[ 7974 7965 7964 7962 ] final  128.95 input  175.53 | X-H torsion
[ 8008 7997 7996 7995 ] final -108.79 input   59.86 | X-H torsion
[ 10167 10162 10161 10158 ] final  130.29 input  -65.29 | X-H torsion
[ 10718 10713 10712 10709 ] final   13.76 input   66.30 | X-H torsion
[ 10763 10752 10751 10750 ] final   65.62 input  -60.55 | X-H torsion
[ 11005 11000 10999 10996 ] final  -60.68 input  -57.11 | X-H torsion

> <Gold.Protein.ActiveResidues>
 VAL166  LYS551  ARG553  GLY616  TRP617  ASP618  TYR619  PRO620  LYS621  CYS622 
 ASP623  PHE694  ASN695  SER759  ASP760  ASP761  ALA762  ILE779  LEU786  VAL792 
 PHE793  MET794  SER795  GLU796  ALA797  LYS798  CYS799  TRP800  GLU811  SER814 

> <Gold.Protein.RotatedAtoms>
  152.2109  134.8502  160.0497 H   0  0  0  0  0  0  0  0  0  0  0  0  # atno 6907 bound_to 6896
  151.9321  133.3609  159.3942 H   0  0  0  0  0  0  0  0  0  0  0  0  # atno 6908 bound_to 6896
  150.6976  134.4452  159.5354 H   0  0  0  0  0  0  0  0  0  0  0  0  # atno 6909 bound_to 6896
  145.0339  139.4022  143.5136 H   0  0  0  0  0  0  0  0  0  0  0  0  # atno 7974 bound_to 7965
  154.9495  140.0401  157.2137 H   0  0  0  0  0  0  0  0  0  0  0  0  # atno 8008 bound_to 7997
  154.7992  140.2849  155.5912 H   0  0  0  0  0  0  0  0  0  0  0  0  # atno 8009 bound_to 7997
  156.2959  140.2558  156.2856 H   0  0  0  0  0  0  0  0  0  0  0  0  # atno 8010 bound_to 7997
  139.5437  144.6754  151.4542 H   0  0  0  0  0  0  0  0  0  0  0  0  # atno 10167 bound_to 10162
  157.0294  130.6186  149.5733 H   0  0  0  0  0  0  0  0  0  0  0  0  # atno 10718 bound_to 10713
  153.0104  135.5350  154.6696 H   0  0  0  0  0  0  0  0  0  0  0  0  # atno 10763 bound_to 10752
  154.5884  135.2856  155.0663 H   0  0  0  0  0  0  0  0  0  0  0  0  # atno 10764 bound_to 10752
  154.1766  135.6523  153.5075 H   0  0  0  0  0  0  0  0  0  0  0  0  # atno 10765 bound_to 10752
  141.1296  133.6624  156.5260 H   0  0  0  0  0  0  0  0  0  0  0  0  # atno 11005 bound_to 11000
  146.3502  139.9904  142.8686 LP  0  0  0  0  0  0  0  0  0  0  0  0  # atno 17320 bound_to 7965
  145.1735  140.9732  143.4308 LP  0  0  0  0  0  0  0  0  0  0  0  0  # atno 17321 bound_to 7965
  140.6677  143.8362  150.6961 LP  0  0  0  0  0  0  0  0  0  0  0  0  # atno 17342 bound_to 10162
  140.1776  143.4142  152.1956 LP  0  0  0  0  0  0  0  0  0  0  0  0  # atno 17343 bound_to 10162
  156.0075  130.5163  150.7878 LP  0  0  0  0  0  0  0  0  0  0  0  0  # atno 17370 bound_to 10713
  157.5189  131.0930  151.0103 LP  0  0  0  0  0  0  0  0  0  0  0  0  # atno 17371 bound_to 10713
  140.4254  134.7150  157.4913 LP  0  0  0  0  0  0  0  0  0  0  0  0  # atno 17394 bound_to 11000
  140.0331  134.6377  155.9080 LP  0  0  0  0  0  0  0  0  0  0  0  0  # atno 17395 bound_to 11000

$$$$
