AV-unprocessed.smi:1116|AV-procd|sdf|4812|dock8
  -GOLD-   22720 3363D 1   1.00000     0.00000
 Structure written by MMmdl.
 35 36  0  0  0  0  0  0  0  0  2 V2000
  152.3813  143.3315  161.5101 C   0  0  0  0  0  0  0  0  0  0  0  0
  151.8837  143.1348  160.1193 C   0  0  0  0  0  0  0  0  0  0  0  0
  151.5517  141.9436  159.6147 N   0  0  0  0  0  0  0  0  0  0  0  0
  151.1182  142.0230  158.2874 C   0  0  0  0  0  0  0  0  0  0  0  0
  150.7136  140.7793  157.5557 C   0  0  0  0  0  0  0  0  0  0  0  0
  151.1416  139.5040  158.3007 C   0  0  0  0  0  0  0  0  0  0  0  0
  150.0216  138.5896  158.4932 N   0  0  0  0  0  0  0  0  0  0  0  0
  150.1102  137.3692  159.0440 C   0  0  0  0  0  0  0  0  0  0  0  0
  151.1707  136.8837  159.4387 O   0  0  0  0  0  0  0  0  0  0  0  0
  148.8046  136.5766  159.1560 C   0  0  0  0  0  0  0  0  0  0  0  0
  148.4688  136.1837  160.6074 C   0  0  0  0  0  0  0  0  0  0  0  0
  147.4368  135.0422  160.6976 C   0  0  1  0  0  0  0  0  0  0  0  0
  147.7362  133.9921  159.7481 N   0  0  0  0  0  0  0  0  0  0  0  0
  147.9173  132.8226  160.3585 C   0  0  0  0  0  0  0  0  0  0  0  0
  148.1648  131.7967  159.7287 O   0  0  0  0  0  0  0  0  0  0  0  0
  147.7912  132.9699  161.6916 N   0  5  0  0  0  0  0  0  0  0  0  0
  147.5123  134.2536  162.0051 C   0  0  0  0  0  0  0  0  0  0  0  0
  147.3271  134.7830  163.0998 O   0  0  0  0  0  0  0  0  0  0  0  0
  151.1226  143.3035  157.7924 C   0  0  0  0  0  0  0  0  0  0  0  0
  151.6747  144.4561  158.9764 S   0  0  0  0  0  0  0  0  0  0  0  0
  152.6262  142.3734  161.9697 H   0  0  0  0  0  0  0  0  0  0  0  0
  151.6179  143.8245  162.1122 H   0  0  0  0  0  0  0  0  0  0  0  0
  153.2772  143.9525  161.5016 H   0  0  0  0  0  0  0  0  0  0  0  0
  149.6325  140.7710  157.4098 H   0  0  0  0  0  0  0  0  0  0  0  0
  151.1492  140.7838  156.5557 H   0  0  0  0  0  0  0  0  0  0  0  0
  151.9478  139.0009  157.7639 H   0  0  0  0  0  0  0  0  0  0  0  0
  151.5387  139.7626  159.2828 H   0  0  0  0  0  0  0  0  0  0  0  0
  149.1126  138.9104  158.1926 H   0  0  0  0  0  0  0  0  0  0  0  0
  147.9846  137.1634  158.7386 H   0  0  0  0  0  0  0  0  0  0  0  0
  148.8969  135.6843  158.5361 H   0  0  0  0  0  0  0  0  0  0  0  0
  149.3775  135.9008  161.1421 H   0  0  0  0  0  0  0  0  0  0  0  0
  148.0734  137.0596  161.1249 H   0  0  0  0  0  0  0  0  0  0  0  0
  146.4204  135.4089  160.5476 H   0  0  0  0  0  0  0  0  0  0  0  0
  147.7807  134.1366  158.7503 H   0  0  0  0  0  0  0  0  0  0  0  0
  150.8374  143.6371  156.8055 H   0  0  0  0  0  0  0  0  0  0  0  0
  1  2  1  0  0  0  0
  1 21  1  0  0  0  0
  1 22  1  0  0  0  0
  1 23  1  0  0  0  0
  2 20  1  0  0  0  0
  2  3  2  0  0  0  0
  3  4  1  0  0  0  0
  4  5  1  0  0  0  0
  4 19  2  0  0  0  0
  5  6  1  0  0  0  0
  5 24  1  0  0  0  0
  5 25  1  0  0  0  0
  6  7  1  0  0  0  0
  6 26  1  0  0  0  0
  6 27  1  0  0  0  0
  7  8  1  0  0  0  0
  7 28  1  0  0  0  0
  8  9  2  0  0  0  0
  8 10  1  0  0  0  0
 10 11  1  0  0  0  0
 10 29  1  0  0  0  0
 10 30  1  0  0  0  0
 11 12  1  0  0  0  0
 11 31  1  0  0  0  0
 11 32  1  0  0  0  0
 12 17  1  0  0  0  0
 12 13  1  0  0  0  0
 12 33  1  0  0  0  0
 13 14  1  0  0  0  0
 13 34  1  0  0  0  0
 14 15  2  0  0  0  0
 14 16  1  0  0  0  0
 16 17  1  0  0  0  0
 17 18  2  0  0  0  0
 19 20  1  0  0  0  0
 19 35  1  0  0  0  0
M  CHG  1  16  -1
M  END
> <s_m_source_file>
AV-unprocessed.smi

> <i_m_source_file_index>
1116

> <i_lp_mmshare_version>
43012

> <i_f3d_flags>
0

> <s_epik_input>
W0NIM11jMW5jKFtjSF1zMSlbQ0gyXVtDSDJdW05IXUMoPU8pW0NIMl1bQ0gyXVtDQEBIXTJbTkhdQyg9TylbTkhdQzI9Tw==

> <s_epik_cmdline>
J2VwaWtfcHl0aG9uJywgJy1waCcsICc3LjAnLCAnLXRuJywgJzgnLCAnLW1hJywgJzIwMCcsICctbWV0YWxfYmluZGluZycsICctaW1hZScsICc8aW5maWxlLm1hZT4nLCAnLW9tYWUnLCAnPG91dGZpbGUubWFlPic=

> <r_lp_tautomer_probability>
1

> <r_epik_Ionization_Penalty>
2.5713

> <r_epik_Ionization_Penalty_Charging>
2.57023

> <r_epik_Ionization_Penalty_Neutral>
0.00106405

> <r_epik_State_Penalty>
2.56828

> <r_epik_Charging_Adjusted_Penalty>
5.13851

> <i_epik_Tot_Q>
-1

> <i_epik_Tot_abs_Q>
1

> <r_epik_Metal_State_Penalty>
0.44525

> <b_epik_Metal_Only>
1

> <s_lp_Force_Field>
OPLS_2005

> <r_lp_Energy>
2.19092

> <b_lp_Chiralities_Consistent>
1

> <s_lp_Variant>
AV-unprocessed.smi:1116-6

> <Gold.Version>
5.8.1

> <Gold.Id.Protein>
6NUR|6NUR_protein|mol2

> <Gold.PLP.Fitness>
42.1781

> <Gold.PLP.PLP>
-37.7120

> <Gold.PLP.part.hbond>
-1.4637

> <Gold.PLP.part.metal>
0.0000

> <Gold.PLP.part.buried>
-7.3123

> <Gold.PLP.part.nonpolar>
-29.5303

> <Gold.PLP.part.repulsive>
0.2365

> <Gold.PLP.ligand.clash>
0.0000

> <Gold.PLP.ligand.torsion>
0.7935

> <Gold.PLP.Chemscore.Hbond>
1.0000

> <Gold.PLP.Chemscore.CHOScore>
0.9988

> <Gold.PLP.Chemscore.Metal>
0.0000

> <Gold.Chemscore.Hbonds>
donor molecule, donor type, donor heavy atom, donor atom, acceptor molecule, acceptor atom, score
      P1  H  6896  6907       L1     9  1.00
      L1  C    19    35       P1  8028  1.00

> <Gold.PLP.Chemscore.Internal.Correction>
0.0566

> <Gold.Rescore>
     Score         DG    S(hbond)    S(metal)    S(lipo)     H(rot)  DE(clash)    DE(int)     intcor
     10.70     -11.30       0.97        0.00      82.58       2.77       0.02       0.57       ----

> <Gold.Chemscore.Fitness>
10.7048

> <Gold.Chemscore.DG>
-11.2973

> <Gold.Chemscore.ZeroCoef>
-5.4800

> <Gold.Chemscore.Hbond>
0.9713

> <Gold.Chemscore.Metal>
0.0000

> <Gold.Chemscore.Lipo>
82.5823

> <Gold.Chemscore.Internal_Hbond>
0.0000

> <Gold.Chemscore.DEClash>
0.0178

> <Gold.Chemscore.DEInternal>
0.5748

> <Gold.Chemscore.Rot>
2.7691

> <Gold.Chemscore.Internal.Correction>
   9.000000E+99

> <Gold.Chemscore.Hbonds>
donor molecule, donor type, donor heavy atom, donor atom, acceptor molecule, acceptor atom, score
      P1  H  6896  6907       L1     9  0.90

> <Gold.Chemscore.Hbond.Weighted>
-3.2441

> <Gold.Chemscore.Metal.Weighted>
-0.0000

> <Gold.Chemscore.Lipo.Weighted>
-9.6621

> <Gold.Chemscore.Internal_Hbond.Weighted>
0.0000

> <Gold.Chemscore.DEClash.Weighted>
0.0178

> <Gold.Chemscore.DEInternal.Weighted>
0.5748

> <Gold.Chemscore.Rot.Weighted>
7.0889

> <Gold.Chemscore.Internal.Correction.Weighted>
   9.000000E+99

> <Gold.Protein.RotatedTorsions>
[ 6907 6896 6895 6894 ] final  -29.13 input  -60.11 | X-H torsion
[ 7974 7965 7964 7962 ] final  158.30 input  175.53 | X-H torsion
[ 8008 7997 7996 7995 ] final   24.12 input   59.86 | X-H torsion
[ 10167 10162 10161 10158 ] final  -84.33 input  -65.29 | X-H torsion
[ 10718 10713 10712 10709 ] final   94.96 input   66.30 | X-H torsion
[ 10763 10752 10751 10750 ] final   -4.26 input  -60.55 | X-H torsion
[ 11005 11000 10999 10996 ] final  154.61 input  -57.11 | X-H torsion

> <Gold.Protein.ActiveResidues>
 VAL166  LYS551  ARG553  GLY616  TRP617  ASP618  TYR619  PRO620  LYS621  CYS622 
 ASP623  PHE694  ASN695  SER759  ASP760  ASP761  ALA762  ILE779  LEU786  VAL792 
 PHE793  MET794  SER795  GLU796  ALA797  LYS798  CYS799  TRP800  GLU811  SER814 

> <Gold.Protein.RotatedAtoms>
  151.1235  135.0092  159.8549 H   0  0  0  0  0  0  0  0  0  0  0  0  # atno 6907 bound_to 6896
  152.5448  134.1695  159.8601 H   0  0  0  0  0  0  0  0  0  0  0  0  # atno 6908 bound_to 6896
  151.1755  133.4712  159.2627 H   0  0  0  0  0  0  0  0  0  0  0  0  # atno 6909 bound_to 6896
  144.7853  139.7459  143.6243 H   0  0  0  0  0  0  0  0  0  0  0  0  # atno 7974 bound_to 7965
  154.9914  140.3114  155.4905 H   0  0  0  0  0  0  0  0  0  0  0  0  # atno 8008 bound_to 7997
  156.2939  140.2248  156.4959 H   0  0  0  0  0  0  0  0  0  0  0  0  # atno 8009 bound_to 7997
  154.7700  140.0453  157.1031 H   0  0  0  0  0  0  0  0  0  0  0  0  # atno 8010 bound_to 7997
  140.4143  143.2610  151.8976 H   0  0  0  0  0  0  0  0  0  0  0  0  # atno 10167 bound_to 10162
  157.6943  131.0530  150.4266 H   0  0  0  0  0  0  0  0  0  0  0  0  # atno 10718 bound_to 10713
  153.3824  135.6999  153.6555 H   0  0  0  0  0  0  0  0  0  0  0  0  # atno 10763 bound_to 10752
  153.5161  135.3621  155.2610 H   0  0  0  0  0  0  0  0  0  0  0  0  # atno 10764 bound_to 10752
  154.8694  135.4146  154.3125 H   0  0  0  0  0  0  0  0  0  0  0  0  # atno 10765 bound_to 10752
  140.1505  134.8678  157.2448 H   0  0  0  0  0  0  0  0  0  0  0  0  # atno 11005 bound_to 11000
  146.2082  139.5421  142.9698 LP  0  0  0  0  0  0  0  0  0  0  0  0  # atno 17320 bound_to 7965
  145.5937  141.0366  143.2056 LP  0  0  0  0  0  0  0  0  0  0  0  0  # atno 17321 bound_to 7965
  139.4782  144.5504  151.8394 LP  0  0  0  0  0  0  0  0  0  0  0  0  # atno 17342 bound_to 10162
  140.4604  144.1730  150.5905 LP  0  0  0  0  0  0  0  0  0  0  0  0  # atno 17343 bound_to 10162
  156.4636  130.4037  149.6561 LP  0  0  0  0  0  0  0  0  0  0  0  0  # atno 17370 bound_to 10713
  156.3667  130.7509  151.2488 LP  0  0  0  0  0  0  0  0  0  0  0  0  # atno 17371 bound_to 10713
  140.2610  134.3571  155.7406 LP  0  0  0  0  0  0  0  0  0  0  0  0  # atno 17394 bound_to 11000
  141.2198  133.7369  156.9080 LP  0  0  0  0  0  0  0  0  0  0  0  0  # atno 17395 bound_to 11000

$$$$
