AV-unprocessed.smi:265|AV-procd|sdf|2025|dock5
  -GOLD-   2262021233D 1   1.00000     0.00000
 Structure written by MMmdl.
 52 56  0  0  0  0  0  0  0  0  1 V2000
  149.1246  141.2867  154.5611 C   0  0  0  0  0  0  0  0  0  0  0  0
  149.9054  140.1211  155.1895 C   0  0  2  0  0  0  0  0  0  0  0  0
  151.3036  140.3069  155.0218 O   0  0  0  0  0  0  0  0  0  0  0  0
  151.9188  139.0535  155.2570 C   0  0  0  0  0  0  0  0  0  0  0  0
  151.0172  138.0889  154.4962 C   0  0  0  0  0  0  0  0  0  0  0  0
  149.6189  138.6985  154.6385 C   0  0  2  0  0  0  0  0  0  0  0  0
  149.0248  138.7423  153.3511 O   0  0  0  0  0  0  0  0  0  0  0  0
  148.7077  137.8558  155.5648 C   0  0  0  0  0  0  0  0  0  0  0  0
  147.9398  136.8413  154.8579 N   0  0  0  0  0  0  0  0  0  0  0  0
  146.6493  136.9584  154.3925 C   0  0  0  0  0  0  0  0  0  0  0  0
  146.1739  135.8997  153.7964 N   0  0  0  0  0  0  0  0  0  0  0  0
  147.2206  134.9865  153.8393 C   0  0  0  0  0  0  0  0  0  0  0  0
  147.3870  133.6477  153.3846 C   0  0  0  0  0  0  0  0  0  0  0  0
  146.4100  132.9699  152.7302 N   0  0  0  0  0  0  0  0  0  0  0  0
  146.6870  131.5894  152.3342 C   0  0  0  0  0  0  0  0  0  0  0  0
  145.3849  130.8525  151.9850 C   0  0  0  0  0  0  0  0  0  0  0  0
  144.5587  131.6152  150.9364 C   0  0  2  0  0  0  0  0  0  0  0  0
  145.2247  131.6035  149.6804 O   0  0  0  0  0  0  0  0  0  0  0  0
  144.4427  132.1337  148.6087 C   0  0  0  0  0  0  0  0  0  0  0  0
  143.8113  133.4937  148.9606 C   0  0  0  0  0  0  0  0  0  0  0  0
  143.3603  134.2090  148.0693 O   0  0  0  0  0  0  0  0  0  0  0  0
  143.7356  133.8402  150.2556 N   0  0  0  0  0  0  0  0  0  0  0  0
  144.3556  133.0909  151.3433 C   0  0  2  0  0  0  0  0  0  0  0  0
  145.6893  133.7593  151.7335 C   0  0  0  0  0  0  0  0  0  0  0  0
  148.5840  133.0493  153.6278 N   0  0  0  0  0  0  0  0  0  0  0  0
  149.5547  133.7137  154.2612 C   0  0  0  0  0  0  0  0  0  0  0  0
  149.5408  134.9616  154.7327 N   0  0  0  0  0  0  0  0  0  0  0  0
  148.3398  135.5646  154.5023 C   0  0  0  0  0  0  0  0  0  0  0  0
  143.5931  131.1176  150.8259 H   0  0  0  0  0  0  0  0  0  0  0  0
  143.6839  133.1287  152.2020 H   0  0  0  0  0  0  0  0  0  0  0  0
  148.0494  141.1483  154.6774 H   0  0  0  0  0  0  0  0  0  0  0  0
  149.3398  141.3873  153.4971 H   0  0  0  0  0  0  0  0  0  0  0  0
  149.3895  142.2297  155.0393 H   0  0  0  0  0  0  0  0  0  0  0  0
  149.7327  140.1320  156.2662 H   0  0  0  0  0  0  0  0  0  0  0  0
  152.9497  139.0365  154.9029 H   0  0  0  0  0  0  0  0  0  0  0  0
  151.9152  138.8343  156.3260 H   0  0  0  0  0  0  0  0  0  0  0  0
  151.3321  138.0673  153.4513 H   0  0  0  0  0  0  0  0  0  0  0  0
  151.0897  137.0695  154.8775 H   0  0  0  0  0  0  0  0  0  0  0  0
  149.1193  137.8933  152.9475 H   0  0  0  0  0  0  0  0  0  0  0  0
  149.3005  137.3604  156.3348 H   0  0  0  0  0  0  0  0  0  0  0  0
  148.0095  138.5065  156.0931 H   0  0  0  0  0  0  0  0  0  0  0  0
  146.0633  137.8571  154.5185 H   0  0  0  0  0  0  0  0  0  0  0  0
  147.3591  131.5884  151.4747 H   0  0  0  0  0  0  0  0  0  0  0  0
  147.1945  131.0600  153.1418 H   0  0  0  0  0  0  0  0  0  0  0  0
  145.6064  129.8459  151.6300 H   0  0  0  0  0  0  0  0  0  0  0  0
  144.7897  130.7358  152.8914 H   0  0  0  0  0  0  0  0  0  0  0  0
  145.0744  132.2370  147.7260 H   0  0  0  0  0  0  0  0  0  0  0  0
  143.6480  131.4305  148.3572 H   0  0  0  0  0  0  0  0  0  0  0  0
  143.2901  134.7149  150.4918 H   0  0  0  0  0  0  0  0  0  0  0  0
  145.4944  134.7703  152.0904 H   0  0  0  0  0  0  0  0  0  0  0  0
  146.3276  133.8612  150.8544 H   0  0  0  0  0  0  0  0  0  0  0  0
  150.4740  133.1670  154.4115 H   0  0  0  0  0  0  0  0  0  0  0  0
  1  2  1  0  0  0  0
  1 31  1  0  0  0  0
  1 32  1  0  0  0  0
  1 33  1  0  0  0  0
  2  6  1  0  0  0  0
  2  3  1  0  0  0  0
  2 34  1  0  0  0  0
  3  4  1  0  0  0  0
  4  5  1  0  0  0  0
  4 35  1  0  0  0  0
  4 36  1  0  0  0  0
  5  6  1  0  0  0  0
  5 37  1  0  0  0  0
  5 38  1  0  0  0  0
  6  7  1  0  0  0  0
  6  8  1  0  0  0  0
  7 39  1  0  0  0  0
  8  9  1  0  0  0  0
  8 40  1  0  0  0  0
  8 41  1  0  0  0  0
  9 28  1  0  0  0  0
  9 10  1  0  0  0  0
 10 11  2  0  0  0  0
 10 42  1  0  0  0  0
 11 12  1  0  0  0  0
 12 28  2  0  0  0  0
 12 13  1  0  0  0  0
 13 14  1  0  0  0  0
 13 25  2  0  0  0  0
 14 24  1  0  0  0  0
 14 15  1  0  0  0  0
 15 16  1  0  0  0  0
 15 43  1  0  0  0  0
 15 44  1  0  0  0  0
 16 17  1  0  0  0  0
 16 45  1  0  0  0  0
 16 46  1  0  0  0  0
 17 29  1  0  0  0  0
 17 23  1  0  0  0  0
 17 18  1  0  0  0  0
 18 19  1  0  0  0  0
 19 20  1  0  0  0  0
 19 47  1  0  0  0  0
 19 48  1  0  0  0  0
 20 21  2  0  0  0  0
 20 22  1  0  0  0  0
 22 23  1  0  0  0  0
 22 49  1  0  0  0  0
 23 30  1  0  0  0  0
 23 24  1  0  0  0  0
 24 50  1  0  0  0  0
 24 51  1  0  0  0  0
 25 26  1  0  0  0  0
 26 27  2  0  0  0  0
 26 52  1  0  0  0  0
 27 28  1  0  0  0  0
M  END
> <s_m_source_file>
AV-unprocessed.smi

> <i_m_source_file_index>
265

> <i_lp_mmshare_version>
43012

> <i_f3d_flags>
0

> <s_epik_input>
W0NIMl0xW0NIMl1PW0NAQEhdKFtDSDNdKVtDQEBdMShbT0hdKVtDSDJdbihbY0hdbjIpYyhjMjMpbltjSF1uYzNOKFtDSDJdW0NIMl00KVtDSDJdW0NAQEhdKFtDQEhdNDUpW05IXUMoPU8pW0NIMl1PNQ==

> <s_epik_cmdline>
J2VwaWtfcHl0aG9uJywgJy1waCcsICc3LjAnLCAnLXRuJywgJzgnLCAnLW1hJywgJzIwMCcsICctbWV0YWxfYmluZGluZycsICctaW1hZScsICc8aW5maWxlLm1hZT4nLCAnLW9tYWUnLCAnPG91dGZpbGUubWFlPic=

> <r_lp_tautomer_probability>
1

> <r_epik_Ionization_Penalty>
0.00221504

> <r_epik_Ionization_Penalty_Charging>
0

> <r_epik_Ionization_Penalty_Neutral>
0.00221504

> <r_epik_State_Penalty>
-0

> <r_epik_Charging_Adjusted_Penalty>
0

> <i_epik_Tot_Q>
0

> <i_epik_Tot_abs_Q>
0

> <r_epik_Metal_State_Penalty>
-0

> <b_epik_Metal_Only>
0

> <s_lp_Force_Field>
OPLS_2005

> <r_lp_Energy>
44.0403

> <b_lp_Chiralities_Consistent>
1

> <s_lp_Variant>
AV-unprocessed.smi:265-11

> <Gold.Version>
5.8.1

> <Gold.Id.Protein>
6NUR|6NUR_protein|mol2

> <Gold.PLP.Fitness>
40.5808

> <Gold.PLP.PLP>
-33.5141

> <Gold.PLP.part.hbond>
-5.6290

> <Gold.PLP.part.metal>
0.0000

> <Gold.PLP.part.buried>
2.1286

> <Gold.PLP.part.nonpolar>
-35.4998

> <Gold.PLP.part.repulsive>
5.0506

> <Gold.PLP.ligand.clash>
0.0000

> <Gold.PLP.ligand.torsion>
1.1513

> <Gold.PLP.Chemscore.Hbond>
3.0000

> <Gold.PLP.Chemscore.CHOScore>
0.0000

> <Gold.PLP.Chemscore.Metal>
0.0000

> <Gold.Chemscore.Hbonds>
donor molecule, donor type, donor heavy atom, donor atom, acceptor molecule, acceptor atom, score
      L1  H     7    39       P1  7948  1.00
      P1  H  7989  7998       L1     3  1.00
      P1  H 10192 10197       L1    21  1.00

> <Gold.PLP.Chemscore.Internal.Correction>
0.3692

> <Gold.Rescore>
     Score         DG    S(hbond)    S(metal)    S(lipo)     H(rot)  DE(clash)    DE(int)     intcor
     11.76     -19.04       2.75        0.00      86.46       2.25       5.29       1.99       ----

> <Gold.Chemscore.Fitness>
11.7592

> <Gold.Chemscore.DG>
-19.0381

> <Gold.Chemscore.ZeroCoef>
-5.4800

> <Gold.Chemscore.Hbond>
2.7514

> <Gold.Chemscore.Metal>
0.0000

> <Gold.Chemscore.Lipo>
86.4634

> <Gold.Chemscore.Internal_Hbond>
0.0000

> <Gold.Chemscore.DEClash>
5.2873

> <Gold.Chemscore.DEInternal>
1.9917

> <Gold.Chemscore.Rot>
2.2453

> <Gold.Chemscore.Internal.Correction>
   9.000000E+99

> <Gold.Chemscore.Hbonds>
donor molecule, donor type, donor heavy atom, donor atom, acceptor molecule, acceptor atom, score
      L1  H     7    39       P1  7948  0.98
      P1  H  7989  7998       L1     3  0.62
      P1  H 10192 10197       L1    21  1.00

> <Gold.Chemscore.Hbond.Weighted>
-9.1898

> <Gold.Chemscore.Metal.Weighted>
-0.0000

> <Gold.Chemscore.Lipo.Weighted>
-10.1162

> <Gold.Chemscore.Internal_Hbond.Weighted>
0.0000

> <Gold.Chemscore.DEClash.Weighted>
5.2873

> <Gold.Chemscore.DEInternal.Weighted>
1.9917

> <Gold.Chemscore.Rot.Weighted>
5.7479

> <Gold.Chemscore.Internal.Correction.Weighted>
   9.000000E+99

> <Gold.Protein.RotatedTorsions>
[ 6907 6896 6895 6894 ] final   79.93 input  -60.11 | X-H torsion
[ 7974 7965 7964 7962 ] final  -95.11 input  175.53 | X-H torsion
[ 8008 7997 7996 7995 ] final  118.71 input   59.86 | X-H torsion
[ 10167 10162 10161 10158 ] final  -85.25 input  -65.29 | X-H torsion
[ 10718 10713 10712 10709 ] final   12.38 input   66.30 | X-H torsion
[ 10763 10752 10751 10750 ] final   23.71 input  -60.55 | X-H torsion
[ 11005 11000 10999 10996 ] final  -78.54 input  -57.11 | X-H torsion

> <Gold.Protein.ActiveResidues>
 VAL166  LYS551  ARG553  GLY616  TRP617  ASP618  TYR619  PRO620  LYS621  CYS622 
 ASP623  PHE694  ASN695  SER759  ASP760  ASP761  ALA762  ILE779  LEU786  VAL792 
 PHE793  MET794  SER795  GLU796  ALA797  LYS798  CYS799  TRP800  GLU811  SER814 

> <Gold.Protein.RotatedAtoms>
  152.5217  134.3435  159.9225 H   0  0  0  0  0  0  0  0  0  0  0  0  # atno 6907 bound_to 6896
  151.3385  133.3965  159.2676 H   0  0  0  0  0  0  0  0  0  0  0  0  # atno 6908 bound_to 6896
  150.9823  134.9193  159.7909 H   0  0  0  0  0  0  0  0  0  0  0  0  # atno 6909 bound_to 6896
  145.3643  140.9496  143.2483 H   0  0  0  0  0  0  0  0  0  0  0  0  # atno 7974 bound_to 7965
  156.2560  140.2869  156.0877 H   0  0  0  0  0  0  0  0  0  0  0  0  # atno 8008 bound_to 7997
  155.1497  140.0397  157.2835 H   0  0  0  0  0  0  0  0  0  0  0  0  # atno 8009 bound_to 7997
  154.6470  140.2535  155.7264 H   0  0  0  0  0  0  0  0  0  0  0  0  # atno 8010 bound_to 7997
  140.4055  143.2644  151.9087 H   0  0  0  0  0  0  0  0  0  0  0  0  # atno 10167 bound_to 10162
  157.0094  130.6111  149.5706 H   0  0  0  0  0  0  0  0  0  0  0  0  # atno 10718 bound_to 10713
  153.0818  135.6621  154.0030 H   0  0  0  0  0  0  0  0  0  0  0  0  # atno 10763 bound_to 10752
  153.9650  135.2970  155.3432 H   0  0  0  0  0  0  0  0  0  0  0  0  # atno 10764 bound_to 10752
  154.7218  135.5161  153.8896 H   0  0  0  0  0  0  0  0  0  0  0  0  # atno 10765 bound_to 10752
  141.1665  133.7067  156.7987 H   0  0  0  0  0  0  0  0  0  0  0  0  # atno 11005 bound_to 11000
  144.8623  139.5159  143.6806 LP  0  0  0  0  0  0  0  0  0  0  0  0  # atno 17320 bound_to 7965
  146.2913  139.7148  142.9158 LP  0  0  0  0  0  0  0  0  0  0  0  0  # atno 17321 bound_to 7965
  139.4783  144.5590  151.8268 LP  0  0  0  0  0  0  0  0  0  0  0  0  # atno 17342 bound_to 10162
  140.4694  144.1608  150.5916 LP  0  0  0  0  0  0  0  0  0  0  0  0  # atno 17343 bound_to 10162
  156.0142  130.5235  150.8082 LP  0  0  0  0  0  0  0  0  0  0  0  0  # atno 17370 bound_to 10713
  157.5332  131.0937  150.9927 LP  0  0  0  0  0  0  0  0  0  0  0  0  # atno 17371 bound_to 10713
  140.2272  134.8713  157.3439 LP  0  0  0  0  0  0  0  0  0  0  0  0  # atno 17394 bound_to 11000
  140.1928  134.4351  155.7706 LP  0  0  0  0  0  0  0  0  0  0  0  0  # atno 17395 bound_to 11000

$$$$
