AV-unprocessed.smi:919|AV-procd|sdf|4165|dock8
  -GOLD-   22720 2 73D 1   1.00000     0.00000
 Structure written by MMmdl.
 43 45  0  0  0  0  0  0  0  0  1 V2000
  144.9303  143.6409  157.0507 C   0  0  0  0  0  0  0  0  0  0  0  0
  144.9944  143.2036  158.4859 C   0  0  0  0  0  0  0  0  0  0  0  0
  145.1330  141.9178  158.7624 N   0  0  0  0  0  0  0  0  0  0  0  0
  145.1709  141.8265  160.1572 O   0  0  0  0  0  0  0  0  0  0  0  0
  145.0539  143.0771  160.6717 C   0  0  0  0  0  0  0  0  0  0  0  0
  145.0811  143.2003  162.1576 C   0  0  0  0  0  0  0  0  0  0  0  0
  144.9348  143.9972  159.6677 C   0  0  0  0  0  0  0  0  0  0  0  0
  144.7878  145.4897  159.7870 C   0  0  0  0  0  0  0  0  0  0  0  0
  146.0661  146.1339  160.3452 C   0  0  0  0  0  0  0  0  0  0  0  0
  147.2548  145.6529  159.6526 N   0  0  0  0  0  0  0  0  0  0  0  0
  148.1217  144.7516  160.1444 C   0  0  0  0  0  0  0  0  0  0  0  0
  148.0068  144.2364  161.2550 O   0  0  0  0  0  0  0  0  0  0  0  0
  149.1379  144.4425  159.3201 N   0  0  0  0  0  0  0  0  0  0  0  0
  150.2374  143.5040  159.5605 C   0  0  1  0  0  0  0  0  0  0  0  0
  150.8261  142.9842  158.2300 C   0  0  0  0  0  0  0  0  0  0  0  0
  152.3101  143.3846  158.3233 C   0  0  1  0  0  0  0  0  0  0  0  0
  152.4441  144.9121  158.1721 C   0  0  0  0  0  0  0  0  0  0  0  0
  151.9109  145.4361  159.5187 C   0  0  0  0  0  0  0  0  0  0  0  0
  151.4801  144.1397  160.2378 C   0  0  2  0  0  0  0  0  0  0  0  0
  152.5901  143.1869  159.8067 C   0  0  0  0  0  0  0  0  0  0  0  0
  144.6397  144.6875  156.9631 H   0  0  0  0  0  0  0  0  0  0  0  0
  144.2044  143.0503  156.4911 H   0  0  0  0  0  0  0  0  0  0  0  0
  145.8993  143.5254  156.5646 H   0  0  0  0  0  0  0  0  0  0  0  0
  145.8091  143.9503  162.4677 H   0  0  0  0  0  0  0  0  0  0  0  0
  145.3507  142.2543  162.6276 H   0  0  0  0  0  0  0  0  0  0  0  0
  144.1048  143.5016  162.5370 H   0  0  0  0  0  0  0  0  0  0  0  0
  144.5503  145.9337  158.8199 H   0  0  0  0  0  0  0  0  0  0  0  0
  143.9447  145.7349  160.4341 H   0  0  0  0  0  0  0  0  0  0  0  0
  146.0089  147.2217  160.2752 H   0  0  0  0  0  0  0  0  0  0  0  0
  146.1711  145.8968  161.4043 H   0  0  0  0  0  0  0  0  0  0  0  0
  147.4268  146.0217  158.7288 H   0  0  0  0  0  0  0  0  0  0  0  0
  149.1458  144.9056  158.4228 H   0  0  0  0  0  0  0  0  0  0  0  0
  149.8788  142.6558  160.1467 H   0  0  0  0  0  0  0  0  0  0  0  0
  150.7241  141.8998  158.1686 H   0  0  0  0  0  0  0  0  0  0  0  0
  150.3453  143.4085  157.3473 H   0  0  0  0  0  0  0  0  0  0  0  0
  152.9576  142.8200  157.6518 H   0  0  0  0  0  0  0  0  0  0  0  0
  153.4864  145.2025  158.0341 H   0  0  0  0  0  0  0  0  0  0  0  0
  151.8747  145.2929  157.3233 H   0  0  0  0  0  0  0  0  0  0  0  0
  152.7093  145.9299  160.0741 H   0  0  0  0  0  0  0  0  0  0  0  0
  151.1054  146.1608  159.4003 H   0  0  0  0  0  0  0  0  0  0  0  0
  151.3788  144.2564  161.3171 H   0  0  0  0  0  0  0  0  0  0  0  0
  152.4353  142.1604  160.1435 H   0  0  0  0  0  0  0  0  0  0  0  0
  153.5866  143.5154  160.1073 H   0  0  0  0  0  0  0  0  0  0  0  0
  1  2  1  0  0  0  0
  1 21  1  0  0  0  0
  1 22  1  0  0  0  0
  1 23  1  0  0  0  0
  2  7  1  0  0  0  0
  2  3  2  0  0  0  0
  3  4  1  0  0  0  0
  4  5  1  0  0  0  0
  5  6  1  0  0  0  0
  5  7  2  0  0  0  0
  6 24  1  0  0  0  0
  6 25  1  0  0  0  0
  6 26  1  0  0  0  0
  7  8  1  0  0  0  0
  8  9  1  0  0  0  0
  8 27  1  0  0  0  0
  8 28  1  0  0  0  0
  9 10  1  0  0  0  0
  9 29  1  0  0  0  0
  9 30  1  0  0  0  0
 10 11  1  0  0  0  0
 10 31  1  0  0  0  0
 11 12  2  0  0  0  0
 11 13  1  0  0  0  0
 13 14  1  0  0  0  0
 13 32  1  0  0  0  0
 14 19  1  0  0  0  0
 14 15  1  0  0  0  0
 14 33  1  0  0  0  0
 15 16  1  0  0  0  0
 15 34  1  0  0  0  0
 15 35  1  0  0  0  0
 16 20  1  0  0  0  0
 16 17  1  0  0  0  0
 16 36  1  0  0  0  0
 17 18  1  0  0  0  0
 17 37  1  0  0  0  0
 17 38  1  0  0  0  0
 18 19  1  0  0  0  0
 18 39  1  0  0  0  0
 18 40  1  0  0  0  0
 19 20  1  0  0  0  0
 19 41  1  0  0  0  0
 20 42  1  0  0  0  0
 20 43  1  0  0  0  0
M  END
> <s_m_source_file>
AV-unprocessed.smi

> <i_m_source_file_index>
919

> <i_lp_mmshare_version>
43012

> <i_f3d_flags>
0

> <s_epik_input>
W0NIM11jMW5vYyhbQ0gzXSljMVtDSDJdW0NIMl1bTkhdQyg9TylbTkhdW0NASF0oW0NIMl1bQ0BASF0yMylbQ0BASF0oW0NIMl0zKVtDSDJdW0NIMl0y

> <s_epik_cmdline>
J2VwaWtfcHl0aG9uJywgJy1waCcsICc3LjAnLCAnLXRuJywgJzgnLCAnLW1hJywgJzIwMCcsICctbWV0YWxfYmluZGluZycsICctaW1hZScsICc8aW5maWxlLm1hZT4nLCAnLW9tYWUnLCAnPG91dGZpbGUubWFlPic=

> <r_lp_tautomer_probability>
1

> <r_epik_Ionization_Penalty>
6.40771e-05

> <r_epik_Ionization_Penalty_Charging>
0

> <r_epik_Ionization_Penalty_Neutral>
6.40771e-05

> <r_epik_State_Penalty>
-0

> <r_epik_Charging_Adjusted_Penalty>
0

> <i_epik_Tot_Q>
0

> <i_epik_Tot_abs_Q>
0

> <r_epik_Metal_State_Penalty>
-0

> <b_epik_Metal_Only>
0

> <s_lp_Force_Field>
OPLS_2005

> <r_lp_Energy>
47.6346

> <b_lp_Chiralities_Consistent>
1

> <s_lp_Variant>
AV-unprocessed.smi:919-2

> <Gold.Version>
5.8.1

> <Gold.Id.Protein>
6NUR|6NUR_protein|mol2

> <Gold.PLP.Fitness>
47.0185

> <Gold.PLP.PLP>
-36.7938

> <Gold.PLP.part.hbond>
-3.8388

> <Gold.PLP.part.metal>
0.0000

> <Gold.PLP.part.buried>
-4.6731

> <Gold.PLP.part.nonpolar>
-30.5928

> <Gold.PLP.part.repulsive>
0.4676

> <Gold.PLP.ligand.clash>
0.0000

> <Gold.PLP.ligand.torsion>
0.5596

> <Gold.PLP.Chemscore.Hbond>
3.7753

> <Gold.PLP.Chemscore.CHOScore>
0.0000

> <Gold.PLP.Chemscore.Metal>
0.0000

> <Gold.Chemscore.Hbonds>
donor molecule, donor type, donor heavy atom, donor atom, acceptor molecule, acceptor atom, score
      L1  H    10    31       P1  8029  0.93
      L1  H    13    32       P1  8029  0.78
      P1  H  6933  6944       L1    12  1.00
      P1  H  6934  6946       L1     4  0.94

> <Gold.PLP.Chemscore.Internal.Correction>
0.0181

> <Gold.Rescore>
     Score         DG    S(hbond)    S(metal)    S(lipo)     H(rot)  DE(clash)    DE(int)     intcor
     24.30     -25.17       3.38        0.00     105.01       1.52       0.26       0.61       ----

> <Gold.Chemscore.Fitness>
24.3014

> <Gold.Chemscore.DG>
-25.1721

> <Gold.Chemscore.ZeroCoef>
-5.4800

> <Gold.Chemscore.Hbond>
3.3793

> <Gold.Chemscore.Metal>
0.0000

> <Gold.Chemscore.Lipo>
105.0120

> <Gold.Chemscore.Internal_Hbond>
0.0000

> <Gold.Chemscore.DEClash>
0.2593

> <Gold.Chemscore.DEInternal>
0.6114

> <Gold.Chemscore.Rot>
1.5161

> <Gold.Chemscore.Internal.Correction>
   9.000000E+99

> <Gold.Chemscore.Hbonds>
donor molecule, donor type, donor heavy atom, donor atom, acceptor molecule, acceptor atom, score
      L1  H    10    31       P1  8029  0.88
      L1  H    13    32       P1  8029  0.53
      P1  H  6933  6944       L1    12  0.94
      P1  H  6934  6946       L1     4  0.55

> <Gold.Chemscore.Hbond.Weighted>
-11.2870

> <Gold.Chemscore.Metal.Weighted>
-0.0000

> <Gold.Chemscore.Lipo.Weighted>
-12.2864

> <Gold.Chemscore.Internal_Hbond.Weighted>
0.0000

> <Gold.Chemscore.DEClash.Weighted>
0.2593

> <Gold.Chemscore.DEInternal.Weighted>
0.6114

> <Gold.Chemscore.Rot.Weighted>
3.8813

> <Gold.Chemscore.Internal.Correction.Weighted>
   9.000000E+99

> <Gold.Protein.RotatedTorsions>
[ 6907 6896 6895 6894 ] final -162.23 input  -60.11 | X-H torsion
[ 7974 7965 7964 7962 ] final   82.39 input  175.53 | X-H torsion
[ 8008 7997 7996 7995 ] final  -60.56 input   59.86 | X-H torsion
[ 10167 10162 10161 10158 ] final   63.63 input  -65.29 | X-H torsion
[ 10718 10713 10712 10709 ] final  -38.35 input   66.30 | X-H torsion
[ 10763 10752 10751 10750 ] final -150.66 input  -60.55 | X-H torsion
[ 11005 11000 10999 10996 ] final -148.51 input  -57.11 | X-H torsion

> <Gold.Protein.ActiveResidues>
 VAL166  LYS551  ARG553  GLY616  TRP617  ASP618  TYR619  PRO620  LYS621  CYS622 
 ASP623  PHE694  ASN695  SER759  ASP760  ASP761  ALA762  ILE779  LEU786  VAL792 
 PHE793  MET794  SER795  GLU796  ALA797  LYS798  CYS799  TRP800  GLU811  SER814 

> <Gold.Protein.RotatedAtoms>
  151.3771  133.3834  159.2705 H   0  0  0  0  0  0  0  0  0  0  0  0  # atno 6907 bound_to 6896
  150.9606  134.8995  159.7738 H   0  0  0  0  0  0  0  0  0  0  0  0  # atno 6908 bound_to 6896
  152.5148  134.3730  159.9377 H   0  0  0  0  0  0  0  0  0  0  0  0  # atno 6909 bound_to 6896
  145.6257  139.2394  143.2113 H   0  0  0  0  0  0  0  0  0  0  0  0  # atno 7974 bound_to 7965
  154.4404  140.1037  156.6292 H   0  0  0  0  0  0  0  0  0  0  0  0  # atno 8008 bound_to 7997
  155.5623  140.3487  155.4476 H   0  0  0  0  0  0  0  0  0  0  0  0  # atno 8009 bound_to 7997
  156.0451  140.1291  157.0102 H   0  0  0  0  0  0  0  0  0  0  0  0  # atno 8010 bound_to 7997
  140.1310  144.4643  150.6865 H   0  0  0  0  0  0  0  0  0  0  0  0  # atno 10167 bound_to 10162
  156.3047  130.4244  149.8108 H   0  0  0  0  0  0  0  0  0  0  0  0  # atno 10718 bound_to 10713
  154.8105  135.3279  154.7317 H   0  0  0  0  0  0  0  0  0  0  0  0  # atno 10763 bound_to 10752
  153.7967  135.6907  153.4867 H   0  0  0  0  0  0  0  0  0  0  0  0  # atno 10764 bound_to 10752
  153.1881  135.4561  155.0060 H   0  0  0  0  0  0  0  0  0  0  0  0  # atno 10765 bound_to 10752
  140.7605  134.3304  157.5103 H   0  0  0  0  0  0  0  0  0  0  0  0  # atno 11005 bound_to 11000
  146.1396  140.7076  142.9373 LP  0  0  0  0  0  0  0  0  0  0  0  0  # atno 17320 bound_to 7965
  144.7213  140.4383  143.7006 LP  0  0  0  0  0  0  0  0  0  0  0  0  # atno 17321 bound_to 7965
  140.6817  143.2330  151.5367 LP  0  0  0  0  0  0  0  0  0  0  0  0  # atno 17342 bound_to 10162
  139.5520  144.2372  152.1546 LP  0  0  0  0  0  0  0  0  0  0  0  0  # atno 17343 bound_to 10162
  156.5473  130.8326  151.3288 LP  0  0  0  0  0  0  0  0  0  0  0  0  # atno 17370 bound_to 10713
  157.7377  130.9800  150.2207 LP  0  0  0  0  0  0  0  0  0  0  0  0  # atno 17371 bound_to 10713
  139.8772  134.9199  156.3237 LP  0  0  0  0  0  0  0  0  0  0  0  0  # atno 17394 bound_to 11000
  140.9668  133.7353  156.0478 LP  0  0  0  0  0  0  0  0  0  0  0  0  # atno 17395 bound_to 11000

$$$$
