AV-unprocessed.smi:72|AV-procd|sdf|681|dock6
  -GOLD-   2262016593D 1   1.00000     0.00000
 Structure written by MMmdl.
 29 30  0  0  0  0  0  0  0  0  1 V2000
  152.1192  140.9521  158.9337 N   0  0  0  0  0  0  0  0  0  0  0  0
  151.3828  141.0432  157.8850 C   0  0  0  0  0  0  0  0  0  0  0  0
  150.2211  141.8210  157.7733 N   0  0  0  0  0  0  0  0  0  0  0  0
  149.5657  141.8036  156.6534 C   0  0  0  0  0  0  0  0  0  0  0  0
  149.9848  140.9891  155.5186 N   0  0  0  0  0  0  0  0  0  0  0  0
  149.2327  140.9664  154.1974 C   0  0  2  0  0  0  0  0  0  0  0  0
  148.3942  142.0827  154.1060 O   0  0  0  0  0  0  0  0  0  0  0  0
  147.0656  141.7203  154.4716 C   0  0  1  0  0  0  0  0  0  0  0  0
  146.0473  142.7696  153.9932 C   0  0  0  0  0  0  0  0  0  0  0  0
  144.7597  142.4435  154.4714 O   0  0  0  0  0  0  0  0  0  0  0  0
  146.9369  140.3295  153.8438 C   0  0  1  0  0  0  0  0  0  0  0  0
  146.6401  140.4364  152.4606 O   0  0  0  0  0  0  0  0  0  0  0  0
  148.3169  139.7254  154.1046 C   0  0  1  0  0  0  0  0  0  0  0  0
  148.7069  138.8108  153.0970 O   0  0  0  0  0  0  0  0  0  0  0  0
  151.1792  140.2313  155.6070 C   0  0  0  0  0  0  0  0  0  0  0  0
  151.6056  139.5611  154.6665 O   0  0  0  0  0  0  0  0  0  0  0  0
  151.8224  140.2860  156.7928 N   0  0  0  0  0  0  0  0  0  0  0  0
  150.0033  141.0222  153.4264 H   0  0  0  0  0  0  0  0  0  0  0  0
  147.0027  141.6089  155.5557 H   0  0  0  0  0  0  0  0  0  0  0  0
  146.1476  139.7437  154.3158 H   0  0  0  0  0  0  0  0  0  0  0  0
  148.3036  139.2115  155.0673 H   0  0  0  0  0  0  0  0  0  0  0  0
  151.7389  141.5237  159.6746 H   0  0  0  0  0  0  0  0  0  0  0  0
  148.6658  142.3999  156.5024 H   0  0  0  0  0  0  0  0  0  0  0  0
  146.3268  143.7735  154.3149 H   0  0  0  0  0  0  0  0  0  0  0  0
  145.9991  142.7771  152.9040 H   0  0  0  0  0  0  0  0  0  0  0  0
  144.4889  141.6306  154.0729 H   0  0  0  0  0  0  0  0  0  0  0  0
  145.7021  140.5032  152.3645 H   0  0  0  0  0  0  0  0  0  0  0  0
  148.8907  139.2983  152.3078 H   0  0  0  0  0  0  0  0  0  0  0  0
  152.6721  139.7498  156.8908 H   0  0  0  0  0  0  0  0  0  0  0  0
  1  2  2  0  0  0  0
  1 22  1  0  0  0  0
  2 17  1  0  0  0  0
  2  3  1  0  0  0  0
  3  4  2  0  0  0  0
  4  5  1  0  0  0  0
  4 23  1  0  0  0  0
  5  6  1  0  0  0  0
  5 15  1  0  0  0  0
  6 18  1  0  0  0  0
  6 13  1  0  0  0  0
  6  7  1  0  0  0  0
  7  8  1  0  0  0  0
  8 19  1  0  0  0  0
  8  9  1  0  0  0  0
  8 11  1  0  0  0  0
  9 10  1  0  0  0  0
  9 24  1  0  0  0  0
  9 25  1  0  0  0  0
 10 26  1  0  0  0  0
 11 20  1  0  0  0  0
 11 12  1  0  0  0  0
 11 13  1  0  0  0  0
 12 27  1  0  0  0  0
 13 21  1  0  0  0  0
 13 14  1  0  0  0  0
 14 28  1  0  0  0  0
 15 16  2  0  0  0  0
 15 17  1  0  0  0  0
 17 29  1  0  0  0  0
M  END
> <s_m_source_file>
AV-unprocessed.smi

> <i_m_source_file_index>
72

> <i_lp_mmshare_version>
43012

> <i_f3d_flags>
0

> <s_epik_input>
W05IMl1jMW5bY0hdbihjKD1PKW4xKVtDQEBIXTJPW0NASF0oW0NIMl1bT0hdKVtDQEBIXShbT0hdKVtDQEhdMltPSF0=

> <s_epik_cmdline>
J2VwaWtfcHl0aG9uJywgJy1waCcsICc3LjAnLCAnLXRuJywgJzgnLCAnLW1hJywgJzIwMCcsICctbWV0YWxfYmluZGluZycsICctaW1hZScsICc8aW5maWxlLm1hZT4nLCAnLW9tYWUnLCAnPG91dGZpbGUubWFlPic=

> <r_lp_tautomer_probability>
7.17554e-07

> <r_epik_Ionization_Penalty>
0.0066451

> <r_epik_Ionization_Penalty_Charging>
0.00663793

> <r_epik_Ionization_Penalty_Neutral>
7.17052e-06

> <r_epik_State_Penalty>
0.419231

> <r_epik_Charging_Adjusted_Penalty>
0.425868

> <i_epik_Tot_Q>
0

> <i_epik_Tot_abs_Q>
0

> <r_epik_Metal_State_Penalty>
1.44144

> <b_epik_Metal_Only>
0

> <s_epik_Chemistry_Notes>
This compound contains an acetal/aminal-like group ( X-CH(R)-Y where X, Y are N, S, or O) that may be acid/base labile, releasing an aldehyde.

> <s_lp_Force_Field>
OPLS_2005

> <r_lp_Energy>
42.1864

> <b_lp_Chiralities_Consistent>
1

> <s_lp_Variant>
AV-unprocessed.smi:72-19

> <Gold.Version>
5.8.1

> <Gold.Id.Protein>
6NUR|6NUR_protein|mol2

> <Gold.PLP.Fitness>
42.4691

> <Gold.PLP.PLP>
-29.6803

> <Gold.PLP.part.hbond>
-6.9486

> <Gold.PLP.part.metal>
0.0000

> <Gold.PLP.part.buried>
-3.2514

> <Gold.PLP.part.nonpolar>
-20.8582

> <Gold.PLP.part.repulsive>
0.6818

> <Gold.PLP.ligand.clash>
0.0000

> <Gold.PLP.ligand.torsion>
0.6110

> <Gold.PLP.Chemscore.Hbond>
3.9000

> <Gold.PLP.Chemscore.CHOScore>
0.7626

> <Gold.PLP.Chemscore.Metal>
0.0000

> <Gold.Chemscore.Hbonds>
donor molecule, donor type, donor heavy atom, donor atom, acceptor molecule, acceptor atom, score
      L1  H    10    26       P1 10175  0.72
      L1  H    12    27       P1 10175  1.00
      L1  H    14    28       P1  7957  1.00
      P1  H  7989  7998       L1    16  0.85
      L1  C     4    23       P1  8028  0.79

> <Gold.PLP.Chemscore.Internal.Correction>
0.0229

> <Gold.Rescore>
     Score         DG    S(hbond)    S(metal)    S(lipo)     H(rot)  DE(clash)    DE(int)     intcor
      7.56      -8.34       3.22        0.00      21.28       4.06       0.01       0.78       ----

> <Gold.Chemscore.Fitness>
7.5554

> <Gold.Chemscore.DG>
-8.3404

> <Gold.Chemscore.ZeroCoef>
-5.4800

> <Gold.Chemscore.Hbond>
3.2230

> <Gold.Chemscore.Metal>
0.0000

> <Gold.Chemscore.Lipo>
21.2753

> <Gold.Chemscore.Internal_Hbond>
0.0000

> <Gold.Chemscore.DEClash>
0.0077

> <Gold.Chemscore.DEInternal>
0.7773

> <Gold.Chemscore.Rot>
4.0600

> <Gold.Chemscore.Internal.Correction>
   9.000000E+99

> <Gold.Chemscore.Hbonds>
donor molecule, donor type, donor heavy atom, donor atom, acceptor molecule, acceptor atom, score
      L1  H    10    26       P1 10175  0.12
      L1  H    12    27       P1 10175  0.38
      L1  H    14    28       P1  7957  0.93
      P1  H  7989  7998       L1    16  0.15

> <Gold.Chemscore.Hbond.Weighted>
-10.7648

> <Gold.Chemscore.Metal.Weighted>
-0.0000

> <Gold.Chemscore.Lipo.Weighted>
-2.4892

> <Gold.Chemscore.Internal_Hbond.Weighted>
0.0000

> <Gold.Chemscore.DEClash.Weighted>
0.0077

> <Gold.Chemscore.DEInternal.Weighted>
0.7773

> <Gold.Chemscore.Rot.Weighted>
10.3936

> <Gold.Chemscore.Internal.Correction.Weighted>
   9.000000E+99

> <Gold.Protein.RotatedTorsions>
[ 6907 6896 6895 6894 ] final   75.67 input  -60.11 | X-H torsion
[ 7974 7965 7964 7962 ] final -174.96 input  175.53 | X-H torsion
[ 8008 7997 7996 7995 ] final   29.61 input   59.86 | X-H torsion
[ 10167 10162 10161 10158 ] final -143.63 input  -65.29 | X-H torsion
[ 10718 10713 10712 10709 ] final -122.19 input   66.30 | X-H torsion
[ 10763 10752 10751 10750 ] final   86.66 input  -60.55 | X-H torsion
[ 11005 11000 10999 10996 ] final   36.93 input  -57.11 | X-H torsion

> <Gold.Protein.ActiveResidues>
 VAL166  LYS551  ARG553  GLY616  TRP617  ASP618  TYR619  PRO620  LYS621  CYS622 
 ASP623  PHE694  ASN695  SER759  ASP760  ASP761  ALA762  ILE779  LEU786  VAL792 
 PHE793  MET794  SER795  GLU796  ALA797  LYS798  CYS799  TRP800  GLU811  SER814 

> <Gold.Protein.RotatedAtoms>
  152.5037  134.4085  159.9440 H   0  0  0  0  0  0  0  0  0  0  0  0  # atno 6907 bound_to 6896
  151.4052  133.3738  159.2745 H   0  0  0  0  0  0  0  0  0  0  0  0  # atno 6908 bound_to 6896
  150.9332  134.8767  159.7624 H   0  0  0  0  0  0  0  0  0  0  0  0  # atno 6909 bound_to 6896
  144.7130  140.1392  143.6393 H   0  0  0  0  0  0  0  0  0  0  0  0  # atno 7974 bound_to 7965
  155.0772  140.3206  155.4612 H   0  0  0  0  0  0  0  0  0  0  0  0  # atno 8008 bound_to 7997
  156.2776  140.2101  156.5845 H   0  0  0  0  0  0  0  0  0  0  0  0  # atno 8009 bound_to 7997
  154.7007  140.0507  157.0443 H   0  0  0  0  0  0  0  0  0  0  0  0  # atno 8010 bound_to 7997
  139.7975  143.7880  152.2655 H   0  0  0  0  0  0  0  0  0  0  0  0  # atno 10167 bound_to 10162
  156.1398  130.6458  150.9754 H   0  0  0  0  0  0  0  0  0  0  0  0  # atno 10718 bound_to 10713
  153.1592  135.4572  154.9748 H   0  0  0  0  0  0  0  0  0  0  0  0  # atno 10763 bound_to 10752
  154.7885  135.3212  154.7835 H   0  0  0  0  0  0  0  0  0  0  0  0  # atno 10764 bound_to 10752
  153.8327  135.6937  153.4867 H   0  0  0  0  0  0  0  0  0  0  0  0  # atno 10765 bound_to 10752
  140.2276  134.3566  155.7977 H   0  0  0  0  0  0  0  0  0  0  0  0  # atno 11005 bound_to 11000
  145.9217  139.2550  143.1377 LP  0  0  0  0  0  0  0  0  0  0  0  0  # atno 17320 bound_to 7965
  145.9613  140.8833  143.0209 LP  0  0  0  0  0  0  0  0  0  0  0  0  # atno 17321 bound_to 7965
  139.7990  144.7381  150.9851 LP  0  0  0  0  0  0  0  0  0  0  0  0  # atno 17342 bound_to 10162
  140.7820  143.4364  151.0616 LP  0  0  0  0  0  0  0  0  0  0  0  0  # atno 17343 bound_to 10162
  157.6566  131.0888  150.7934 LP  0  0  0  0  0  0  0  0  0  0  0  0  # atno 17370 bound_to 10713
  156.8011  130.4921  149.5370 LP  0  0  0  0  0  0  0  0  0  0  0  0  # atno 17371 bound_to 10713
  141.2220  133.7227  156.8678 LP  0  0  0  0  0  0  0  0  0  0  0  0  # atno 17394 bound_to 11000
  140.1784  134.9050  157.2919 LP  0  0  0  0  0  0  0  0  0  0  0  0  # atno 17395 bound_to 11000

$$$$
