AV-unprocessed.smi:1158|AV-procd|sdf|4911|dock3
  -GOLD-   22720 3493D 1   1.00000     0.00000
 Structure written by MMmdl.
 42 43  0  0  0  0  0  0  0  0  1 V2000
  147.2232  132.6807  152.7609 C   0  0  0  0  0  0  0  0  0  0  0  0
  148.2212  133.5955  153.2007 O   0  0  0  0  0  0  0  0  0  0  0  0
  149.0294  133.2312  154.2609 C   0  0  0  0  0  0  0  0  0  0  0  0
  149.0493  131.9278  154.6373 N   0  0  0  0  0  0  0  0  0  0  0  0
  149.8406  131.5684  155.6684 C   0  0  0  0  0  0  0  0  0  0  0  0
  150.6532  132.4780  156.3687 C   0  0  0  0  0  0  0  0  0  0  0  0
  150.6357  133.8302  155.9800 C   0  0  0  0  0  0  0  0  0  0  0  0
  149.7976  134.2272  154.9090 C   0  0  0  0  0  0  0  0  0  0  0  0
  149.7081  135.5616  154.4225 N   0  0  0  0  0  0  0  0  0  0  0  0
  149.9192  136.7173  155.0753 C   0  0  0  0  0  0  0  0  0  0  0  0
  150.2404  136.8224  156.2587 O   0  0  0  0  0  0  0  0  0  0  0  0
  149.7197  137.7687  154.2680 N   0  0  0  0  0  0  0  0  0  0  0  0
  149.8601  139.1688  154.6574 C   0  0  0  0  0  0  0  0  0  0  0  0
  151.1692  139.3676  155.4341 C   0  0  0  0  0  0  0  0  0  0  0  0
  151.2782  140.8048  155.9722 C   0  0  0  0  0  0  0  0  0  0  0  0
  150.1455  141.1138  156.8485 N   0  0  0  0  0  0  0  0  0  0  0  0
  150.3338  142.4534  157.4049 C   0  0  0  0  0  0  0  0  0  0  0  0
  151.7538  142.6682  157.9564 C   0  0  0  0  0  0  0  0  0  0  0  0
  151.9121  143.9242  158.3738 F   0  0  0  0  0  0  0  0  0  0  0  0
  151.9603  141.8430  158.9816 F   0  0  0  0  0  0  0  0  0  0  0  0
  148.8980  141.0371  156.0809 C   0  0  0  0  0  0  0  0  0  0  0  0
  148.6825  139.6118  155.5414 C   0  0  0  0  0  0  0  0  0  0  0  0
  146.6813  133.1148  151.9208 H   0  0  0  0  0  0  0  0  0  0  0  0
  146.4981  132.4711  153.5487 H   0  0  0  0  0  0  0  0  0  0  0  0
  147.6645  131.7430  152.4203 H   0  0  0  0  0  0  0  0  0  0  0  0
  149.8299  130.5231  155.9396 H   0  0  0  0  0  0  0  0  0  0  0  0
  151.2794  132.1455  157.1834 H   0  0  0  0  0  0  0  0  0  0  0  0
  151.2734  134.5254  156.5023 H   0  0  0  0  0  0  0  0  0  0  0  0
  149.3835  135.6469  153.4703 H   0  0  0  0  0  0  0  0  0  0  0  0
  149.4539  137.5888  153.3109 H   0  0  0  0  0  0  0  0  0  0  0  0
  149.8930  139.7954  153.7638 H   0  0  0  0  0  0  0  0  0  0  0  0
  151.2219  138.6647  156.2672 H   0  0  0  0  0  0  0  0  0  0  0  0
  152.0221  139.1499  154.7903 H   0  0  0  0  0  0  0  0  0  0  0  0
  152.2107  140.9047  156.5292 H   0  0  0  0  0  0  0  0  0  0  0  0
  151.3210  141.5171  155.1465 H   0  0  0  0  0  0  0  0  0  0  0  0
  150.1663  143.1912  156.6188 H   0  0  0  0  0  0  0  0  0  0  0  0
  149.5890  142.6480  158.1783 H   0  0  0  0  0  0  0  0  0  0  0  0
  152.5352  142.4576  157.2274 H   0  0  0  0  0  0  0  0  0  0  0  0
  148.0487  141.2975  156.7106 H   0  0  0  0  0  0  0  0  0  0  0  0
  148.9169  141.7536  155.2580 H   0  0  0  0  0  0  0  0  0  0  0  0
  147.7513  139.5718  154.9752 H   0  0  0  0  0  0  0  0  0  0  0  0
  148.5646  138.9230  156.3795 H   0  0  0  0  0  0  0  0  0  0  0  0
  1  2  1  0  0  0  0
  1 23  1  0  0  0  0
  1 24  1  0  0  0  0
  1 25  1  0  0  0  0
  2  3  1  0  0  0  0
  3  8  1  0  0  0  0
  3  4  2  0  0  0  0
  4  5  1  0  0  0  0
  5  6  2  0  0  0  0
  5 26  1  0  0  0  0
  6  7  1  0  0  0  0
  6 27  1  0  0  0  0
  7  8  2  0  0  0  0
  7 28  1  0  0  0  0
  8  9  1  0  0  0  0
  9 10  1  0  0  0  0
  9 29  1  0  0  0  0
 10 11  2  0  0  0  0
 10 12  1  0  0  0  0
 12 13  1  0  0  0  0
 12 30  1  0  0  0  0
 13 22  1  0  0  0  0
 13 14  1  0  0  0  0
 13 31  1  0  0  0  0
 14 15  1  0  0  0  0
 14 32  1  0  0  0  0
 14 33  1  0  0  0  0
 15 16  1  0  0  0  0
 15 34  1  0  0  0  0
 15 35  1  0  0  0  0
 16 17  1  0  0  0  0
 16 21  1  0  0  0  0
 17 18  1  0  0  0  0
 17 36  1  0  0  0  0
 17 37  1  0  0  0  0
 18 19  1  0  0  0  0
 18 20  1  0  0  0  0
 18 38  1  0  0  0  0
 21 22  1  0  0  0  0
 21 39  1  0  0  0  0
 21 40  1  0  0  0  0
 22 41  1  0  0  0  0
 22 42  1  0  0  0  0
M  END
> <s_m_source_file>
AV-unprocessed.smi

> <i_m_source_file_index>
1158

> <i_lp_mmshare_version>
43012

> <i_f3d_flags>
0

> <s_epik_input>
W0NIM11PYzFuW2NIXVtjSF1bY0hdYzFbTkhdQyg9TylbTkhdW0NIXTJbQ0gyXVtDSDJdTihbQ0gyXVtDSF0oRilGKVtDSDJdW0NIMl0y

> <s_epik_cmdline>
J2VwaWtfcHl0aG9uJywgJy1waCcsICc3LjAnLCAnLXRuJywgJzgnLCAnLW1hJywgJzIwMCcsICctbWV0YWxfYmluZGluZycsICctaW1hZScsICc8aW5maWxlLm1hZT4nLCAnLW9tYWUnLCAnPG91dGZpbGUubWFlPic=

> <r_lp_tautomer_probability>
1

> <r_epik_Ionization_Penalty>
0.177131

> <r_epik_Ionization_Penalty_Charging>
0

> <r_epik_Ionization_Penalty_Neutral>
0.177131

> <r_epik_State_Penalty>
0.166485

> <r_epik_Charging_Adjusted_Penalty>
0.166485

> <i_epik_Tot_Q>
0

> <i_epik_Tot_abs_Q>
0

> <r_epik_Metal_State_Penalty>
0.166483

> <b_epik_Metal_Only>
0

> <s_lp_Force_Field>
OPLS_2005

> <r_lp_Energy>
18.3974

> <b_lp_Chiralities_Consistent>
1

> <s_lp_Variant>
AV-unprocessed.smi:1158-1

> <Gold.Version>
5.8.1

> <Gold.Id.Protein>
6NUR|6NUR_protein|mol2

> <Gold.PLP.Fitness>
40.8626

> <Gold.PLP.PLP>
-36.0102

> <Gold.PLP.part.hbond>
-2.3655

> <Gold.PLP.part.metal>
0.0000

> <Gold.PLP.part.buried>
-4.9998

> <Gold.PLP.part.nonpolar>
-29.5838

> <Gold.PLP.part.repulsive>
1.1668

> <Gold.PLP.ligand.clash>
0.0000

> <Gold.PLP.ligand.torsion>
0.5795

> <Gold.PLP.Chemscore.Hbond>
1.9920

> <Gold.PLP.Chemscore.CHOScore>
0.0000

> <Gold.PLP.Chemscore.Metal>
0.0000

> <Gold.Chemscore.Hbonds>
donor molecule, donor type, donor heavy atom, donor atom, acceptor molecule, acceptor atom, score
      L1  H     9    29       P1  7948  1.00
      L1  H    12    30       P1  7948  0.98

> <Gold.PLP.Chemscore.Internal.Correction>
0.0354

> <Gold.Rescore>
     Score         DG    S(hbond)    S(metal)    S(lipo)     H(rot)  DE(clash)    DE(int)     intcor
     11.95     -14.76       1.71        0.00      64.45       1.55       0.05       2.77       ----

> <Gold.Chemscore.Fitness>
11.9485

> <Gold.Chemscore.DG>
-14.7649

> <Gold.Chemscore.ZeroCoef>
-5.4800

> <Gold.Chemscore.Hbond>
1.7115

> <Gold.Chemscore.Metal>
0.0000

> <Gold.Chemscore.Lipo>
64.4527

> <Gold.Chemscore.Internal_Hbond>
0.0000

> <Gold.Chemscore.DEClash>
0.0480

> <Gold.Chemscore.DEInternal>
2.7684

> <Gold.Chemscore.Rot>
1.5517

> <Gold.Chemscore.Internal.Correction>
   9.000000E+99

> <Gold.Chemscore.Hbonds>
donor molecule, donor type, donor heavy atom, donor atom, acceptor molecule, acceptor atom, score
      L1  H     9    29       P1  7948  0.30
      L1  H    12    30       P1  7948  0.82

> <Gold.Chemscore.Hbond.Weighted>
-5.7163

> <Gold.Chemscore.Metal.Weighted>
-0.0000

> <Gold.Chemscore.Lipo.Weighted>
-7.5410

> <Gold.Chemscore.Internal_Hbond.Weighted>
0.0000

> <Gold.Chemscore.DEClash.Weighted>
0.0480

> <Gold.Chemscore.DEInternal.Weighted>
2.7684

> <Gold.Chemscore.Rot.Weighted>
3.9723

> <Gold.Chemscore.Internal.Correction.Weighted>
   9.000000E+99

> <Gold.Protein.RotatedTorsions>
[ 6907 6896 6895 6894 ] final  165.63 input  -60.11 | X-H torsion
[ 7974 7965 7964 7962 ] final  -60.27 input  175.53 | X-H torsion
[ 8008 7997 7996 7995 ] final    1.11 input   59.86 | X-H torsion
[ 10167 10162 10161 10158 ] final -173.74 input  -65.29 | X-H torsion
[ 10718 10713 10712 10709 ] final  -15.31 input   66.30 | X-H torsion
[ 10763 10752 10751 10750 ] final   90.23 input  -60.55 | X-H torsion
[ 11005 11000 10999 10996 ] final  112.20 input  -57.11 | X-H torsion

> <Gold.Protein.ActiveResidues>
 VAL166  LYS551  ARG553  GLY616  TRP617  ASP618  TYR619  PRO620  LYS621  CYS622 
 ASP623  PHE694  ASN695  SER759  ASP760  ASP761  ALA762  ILE779  LEU786  VAL792 
 PHE793  MET794  SER795  GLU796  ALA797  LYS798  CYS799  TRP800  GLU811  SER814 

> <Gold.Protein.RotatedAtoms>
  151.8914  133.3517  159.3799 H   0  0  0  0  0  0  0  0  0  0  0  0  # atno 6907 bound_to 6896
  150.7102  134.4920  159.5529 H   0  0  0  0  0  0  0  0  0  0  0  0  # atno 6908 bound_to 6896
  152.2491  134.8151  160.0499 H   0  0  0  0  0  0  0  0  0  0  0  0  # atno 6909 bound_to 6896
  145.8175  140.8561  143.0150 H   0  0  0  0  0  0  0  0  0  0  0  0  # atno 7974 bound_to 7965
  154.6759  140.2622  155.6958 H   0  0  0  0  0  0  0  0  0  0  0  0  # atno 8008 bound_to 7997
  156.2678  140.2820  156.1208 H   0  0  0  0  0  0  0  0  0  0  0  0  # atno 8009 bound_to 7997
  155.1101  140.0375  157.2711 H   0  0  0  0  0  0  0  0  0  0  0  0  # atno 8010 bound_to 7997
  139.5672  144.1728  152.1330 H   0  0  0  0  0  0  0  0  0  0  0  0  # atno 10167 bound_to 10162
  156.6035  130.4830  149.6230 H   0  0  0  0  0  0  0  0  0  0  0  0  # atno 10718 bound_to 10713
  153.1954  135.4441  155.0201 H   0  0  0  0  0  0  0  0  0  0  0  0  # atno 10763 bound_to 10752
  154.8115  135.3296  154.7294 H   0  0  0  0  0  0  0  0  0  0  0  0  # atno 10764 bound_to 10752
  153.7744  135.6982  153.4955 H   0  0  0  0  0  0  0  0  0  0  0  0  # atno 10765 bound_to 10752
  139.8922  134.9525  156.6550 H   0  0  0  0  0  0  0  0  0  0  0  0  # atno 11005 bound_to 11000
  144.6751  140.0485  143.7479 LP  0  0  0  0  0  0  0  0  0  0  0  0  # atno 17320 bound_to 7965
  145.9711  139.2870  143.1098 LP  0  0  0  0  0  0  0  0  0  0  0  0  # atno 17321 bound_to 7965
  140.1253  144.5337  150.6837 LP  0  0  0  0  0  0  0  0  0  0  0  0  # atno 17342 bound_to 10162
  140.6956  143.2401  151.5011 LP  0  0  0  0  0  0  0  0  0  0  0  0  # atno 17343 bound_to 10162
  156.2449  130.6873  151.1591 LP  0  0  0  0  0  0  0  0  0  0  0  0  # atno 17370 bound_to 10713
  157.7273  131.0640  150.5870 LP  0  0  0  0  0  0  0  0  0  0  0  0  # atno 17371 bound_to 10713
  140.7491  133.8912  155.8334 LP  0  0  0  0  0  0  0  0  0  0  0  0  # atno 17394 bound_to 11000
  141.0015  134.1144  157.4312 LP  0  0  0  0  0  0  0  0  0  0  0  0  # atno 17395 bound_to 11000

$$$$
