AV-unprocessed.smi:2434|AV-procd|sdf|9591|dock9
  -GOLD-   2272013223D 1   1.00000     0.00000
 Structure written by MMmdl.
 36 37  0  0  0  0  0  0  0  0  1 V2000
  146.4897  142.5950  155.6743 C   0  0  0  0  0  0  0  0  0  0  0  0
  146.4398  141.8599  154.3258 C   0  0  0  0  0  0  0  0  0  0  0  0
  147.4999  140.7528  154.1567 C   0  0  0  0  0  0  0  0  0  0  0  0
  148.8822  141.3861  153.8881 C   0  0  0  0  0  0  0  0  0  0  0  0
  149.3907  142.1246  155.0419 N   0  0  0  0  0  0  0  0  0  0  0  0
  150.2688  141.6589  155.9417 C   0  0  0  0  0  0  0  0  0  0  0  0
  150.7455  140.5238  155.9135 O   0  0  0  0  0  0  0  0  0  0  0  0
  150.5800  142.5962  156.8515 N   0  0  0  0  0  0  0  0  0  0  0  0
  151.5012  142.4628  157.9213 C   0  0  0  0  0  0  0  0  0  0  0  0
  151.8189  141.1661  158.3751 C   0  0  0  0  0  0  0  0  0  0  0  0
  152.7478  141.0264  159.4257 C   0  0  0  0  0  0  0  0  0  0  0  0
  153.3665  142.0723  160.0138 N   0  0  0  0  0  0  0  0  0  0  0  0
  153.0791  143.3109  159.5592 C   0  0  0  0  0  0  0  0  0  0  0  0
  152.1660  143.5632  158.5153 C   0  0  0  0  0  0  0  0  0  0  0  0
  151.9668  144.8329  158.0866 F   0  0  0  0  0  0  0  0  0  0  0  0
  147.4902  139.6603  155.2504 C   0  0  0  0  0  0  0  0  0  0  0  0
  147.6850  138.5985  154.1695 C   0  0  0  0  0  0  0  0  0  0  0  0
  147.1157  139.6164  153.1833 C   0  0  0  0  0  0  0  0  0  0  0  0
  145.7753  143.4183  155.6870 H   0  0  0  0  0  0  0  0  0  0  0  0
  147.4780  143.0138  155.8635 H   0  0  0  0  0  0  0  0  0  0  0  0
  146.2372  141.9375  156.5056 H   0  0  0  0  0  0  0  0  0  0  0  0
  145.4350  141.4685  154.1664 H   0  0  0  0  0  0  0  0  0  0  0  0
  146.5715  142.6070  153.5422 H   0  0  0  0  0  0  0  0  0  0  0  0
  149.6174  140.6127  153.6649 H   0  0  0  0  0  0  0  0  0  0  0  0
  148.8544  142.0083  152.9931 H   0  0  0  0  0  0  0  0  0  0  0  0
  149.0601  143.0724  155.1500 H   0  0  0  0  0  0  0  0  0  0  0  0
  150.2207  143.5248  156.6873 H   0  0  0  0  0  0  0  0  0  0  0  0
  151.3538  140.2945  157.9381 H   0  0  0  0  0  0  0  0  0  0  0  0
  153.0021  140.0468  159.8024 H   0  0  0  0  0  0  0  0  0  0  0  0
  153.6037  144.1271  160.0336 H   0  0  0  0  0  0  0  0  0  0  0  0
  148.3051  139.7218  155.9723 H   0  0  0  0  0  0  0  0  0  0  0  0
  146.5270  139.5633  155.7543 H   0  0  0  0  0  0  0  0  0  0  0  0
  148.7338  138.3629  153.9836 H   0  0  0  0  0  0  0  0  0  0  0  0
  147.0816  137.6993  154.2970 H   0  0  0  0  0  0  0  0  0  0  0  0
  146.0372  139.5079  153.0539 H   0  0  0  0  0  0  0  0  0  0  0  0
  147.6259  139.6462  152.2198 H   0  0  0  0  0  0  0  0  0  0  0  0
  1  2  1  0  0  0  0
  1 19  1  0  0  0  0
  1 20  1  0  0  0  0
  1 21  1  0  0  0  0
  2  3  1  0  0  0  0
  2 22  1  0  0  0  0
  2 23  1  0  0  0  0
  3 18  1  0  0  0  0
  3  4  1  0  0  0  0
  3 16  1  0  0  0  0
  4  5  1  0  0  0  0
  4 24  1  0  0  0  0
  4 25  1  0  0  0  0
  5  6  1  0  0  0  0
  5 26  1  0  0  0  0
  6  7  2  0  0  0  0
  6  8  1  0  0  0  0
  8  9  1  0  0  0  0
  8 27  1  0  0  0  0
  9 14  1  0  0  0  0
  9 10  2  0  0  0  0
 10 11  1  0  0  0  0
 10 28  1  0  0  0  0
 11 12  2  0  0  0  0
 11 29  1  0  0  0  0
 12 13  1  0  0  0  0
 13 14  2  0  0  0  0
 13 30  1  0  0  0  0
 14 15  1  0  0  0  0
 16 17  1  0  0  0  0
 16 31  1  0  0  0  0
 16 32  1  0  0  0  0
 17 18  1  0  0  0  0
 17 33  1  0  0  0  0
 17 34  1  0  0  0  0
 18 35  1  0  0  0  0
 18 36  1  0  0  0  0
M  END
> <s_m_source_file>
AV-unprocessed.smi

> <i_m_source_file_index>
2434

> <i_lp_mmshare_version>
43012

> <i_f3d_flags>
0

> <s_epik_input>
W0NIMl0xW0NIMl1bQ0gyXUMxKFtDSDJdW0NIM10pW0NIMl1bTkhdQyg9TylbTkhdYzJbY0hdW2NIXW5bY0hdYzJG

> <s_epik_cmdline>
J2VwaWtfcHl0aG9uJywgJy1waCcsICc3LjAnLCAnLXRuJywgJzgnLCAnLW1hJywgJzIwMCcsICctbWV0YWxfYmluZGluZycsICctaW1hZScsICc8aW5maWxlLm1hZT4nLCAnLW9tYWUnLCAnPG91dGZpbGUubWFlPic=

> <r_epik_Ionization_Penalty>
0.00332283

> <r_epik_Ionization_Penalty_Charging>
0

> <r_epik_Ionization_Penalty_Neutral>
0.00332283

> <r_epik_State_Penalty>
0.00231995

> <r_epik_Charging_Adjusted_Penalty>
0.00231995

> <i_epik_Tot_Q>
0

> <i_epik_Tot_abs_Q>
0

> <r_epik_Metal_State_Penalty>
-0

> <b_epik_Metal_Only>
0

> <s_lp_Force_Field>
OPLS_2005

> <r_lp_Energy>
27.2745

> <b_lp_Chiralities_Consistent>
1

> <s_lp_Variant>
AV-unprocessed.smi:2434-1

> <Gold.Version>
5.8.1

> <Gold.Id.Protein>
6NUR|6NUR_protein|mol2

> <Gold.PLP.Fitness>
40.8925

> <Gold.PLP.PLP>
-35.7386

> <Gold.PLP.part.hbond>
-2.0000

> <Gold.PLP.part.metal>
0.0000

> <Gold.PLP.part.buried>
-2.3718

> <Gold.PLP.part.nonpolar>
-30.2214

> <Gold.PLP.part.repulsive>
0.2900

> <Gold.PLP.ligand.clash>
0.0000

> <Gold.PLP.ligand.torsion>
0.5905

> <Gold.PLP.Chemscore.Hbond>
1.9675

> <Gold.PLP.Chemscore.CHOScore>
0.0000

> <Gold.PLP.Chemscore.Metal>
0.0000

> <Gold.Chemscore.Hbonds>
donor molecule, donor type, donor heavy atom, donor atom, acceptor molecule, acceptor atom, score
      L1  H     5    26       P1  8028  1.00
      L1  H     8    27       P1  8028  0.92

> <Gold.PLP.Chemscore.Internal.Correction>
0.4326

> <Gold.Rescore>
     Score         DG    S(hbond)    S(metal)    S(lipo)     H(rot)  DE(clash)    DE(int)     intcor
     15.98     -18.98       1.96        0.00      90.03       1.40       0.85       2.15       ----

> <Gold.Chemscore.Fitness>
15.9821

> <Gold.Chemscore.DG>
-18.9826

> <Gold.Chemscore.ZeroCoef>
-5.4800

> <Gold.Chemscore.Hbond>
1.9612

> <Gold.Chemscore.Metal>
0.0000

> <Gold.Chemscore.Lipo>
90.0292

> <Gold.Chemscore.Internal_Hbond>
0.0000

> <Gold.Chemscore.DEClash>
0.8482

> <Gold.Chemscore.DEInternal>
2.1522

> <Gold.Chemscore.Rot>
1.3990

> <Gold.Chemscore.Internal.Correction>
   9.000000E+99

> <Gold.Chemscore.Hbonds>
donor molecule, donor type, donor heavy atom, donor atom, acceptor molecule, acceptor atom, score
      L1  H     5    26       P1  8028  1.00
      L1  H     8    27       P1  8028  0.83

> <Gold.Chemscore.Hbond.Weighted>
-6.5505

> <Gold.Chemscore.Metal.Weighted>
-0.0000

> <Gold.Chemscore.Lipo.Weighted>
-10.5334

> <Gold.Chemscore.Internal_Hbond.Weighted>
0.0000

> <Gold.Chemscore.DEClash.Weighted>
0.8482

> <Gold.Chemscore.DEInternal.Weighted>
2.1522

> <Gold.Chemscore.Rot.Weighted>
3.5814

> <Gold.Chemscore.Internal.Correction.Weighted>
   9.000000E+99

> <Gold.Protein.RotatedTorsions>
[ 6907 6896 6895 6894 ] final -136.12 input  -60.11 | X-H torsion
[ 7974 7965 7964 7962 ] final   70.40 input  175.53 | X-H torsion
[ 8008 7997 7996 7995 ] final -108.10 input   59.86 | X-H torsion
[ 10167 10162 10161 10158 ] final   83.81 input  -65.29 | X-H torsion
[ 10718 10713 10712 10709 ] final  158.38 input   66.30 | X-H torsion
[ 10763 10752 10751 10750 ] final   39.15 input  -60.55 | X-H torsion
[ 11005 11000 10999 10996 ] final  -22.11 input  -57.11 | X-H torsion

> <Gold.Protein.ActiveResidues>
 VAL166  LYS551  ARG553  GLY616  TRP617  ASP618  TYR619  PRO620  LYS621  CYS622 
 ASP623  PHE694  ASN695  SER759  ASP760  ASP761  ALA762  ILE779  LEU786  VAL792 
 PHE793  MET794  SER795  GLU796  ALA797  LYS798  CYS799  TRP800  GLU811  SER814 

> <Gold.Protein.RotatedAtoms>
  151.0062  133.6008  159.2688 H   0  0  0  0  0  0  0  0  0  0  0  0  # atno 6907 bound_to 6896
  151.3177  135.0809  159.9304 H   0  0  0  0  0  0  0  0  0  0  0  0  # atno 6908 bound_to 6896
  152.5287  133.9715  159.7818 H   0  0  0  0  0  0  0  0  0  0  0  0  # atno 6909 bound_to 6896
  145.7786  139.2877  143.1279 H   0  0  0  0  0  0  0  0  0  0  0  0  # atno 7974 bound_to 7965
  154.9393  140.0403  157.2088 H   0  0  0  0  0  0  0  0  0  0  0  0  # atno 8008 bound_to 7997
  154.8085  140.2864  155.5848 H   0  0  0  0  0  0  0  0  0  0  0  0  # atno 8009 bound_to 7997
  156.2969  140.2541  156.2968 H   0  0  0  0  0  0  0  0  0  0  0  0  # atno 8010 bound_to 7997
  139.9145  144.6251  150.8503 H   0  0  0  0  0  0  0  0  0  0  0  0  # atno 10167 bound_to 10162
  157.1787  131.0627  151.2143 H   0  0  0  0  0  0  0  0  0  0  0  0  # atno 10718 bound_to 10713
  152.9976  135.6229  154.2419 H   0  0  0  0  0  0  0  0  0  0  0  0  # atno 10763 bound_to 10752
  154.2160  135.2798  155.2943 H   0  0  0  0  0  0  0  0  0  0  0  0  # atno 10764 bound_to 10752
  154.5568  135.5717  153.7029 H   0  0  0  0  0  0  0  0  0  0  0  0  # atno 10765 bound_to 10752
  140.8626  133.7777  156.0092 H   0  0  0  0  0  0  0  0  0  0  0  0  # atno 11005 bound_to 11000
  146.0097  140.8446  142.9977 LP  0  0  0  0  0  0  0  0  0  0  0  0  # atno 17320 bound_to 7965
  144.6800  140.2472  143.7336 LP  0  0  0  0  0  0  0  0  0  0  0  0  # atno 17321 bound_to 7965
  140.7677  143.3341  151.2347 LP  0  0  0  0  0  0  0  0  0  0  0  0  # atno 17342 bound_to 10162
  139.6914  143.9686  152.2861 LP  0  0  0  0  0  0  0  0  0  0  0  0  # atno 17343 bound_to 10162
  157.3973  130.7314  149.6741 LP  0  0  0  0  0  0  0  0  0  0  0  0  # atno 17370 bound_to 10713
  155.9727  130.4130  150.4060 LP  0  0  0  0  0  0  0  0  0  0  0  0  # atno 17371 bound_to 10713
  140.8665  134.2777  157.5210 LP  0  0  0  0  0  0  0  0  0  0  0  0  # atno 17394 bound_to 11000
  139.8707  134.9545  156.4179 LP  0  0  0  0  0  0  0  0  0  0  0  0  # atno 17395 bound_to 11000

$$$$
