AV-unprocessed.smi:1406|AV-procd|sdf|5709|dock7
  -GOLD-   22720 5343D 1   1.00000     0.00000
 Structure written by MMmdl.
 41 43  0  0  0  0  0  0  0  0  2 V2000
  151.7327  144.4956  157.8669 C   0  0  0  0  0  0  0  0  0  0  0  0
  152.2490  143.1336  158.3738 C   0  0  2  0  0  0  0  0  0  0  0  0
  151.3967  141.9548  157.8789 C   0  0  0  0  0  0  0  0  0  0  0  0
  150.8405  141.2010  158.6780 O   0  0  0  0  0  0  0  0  0  0  0  0
  151.3061  141.8065  156.5476 N   0  0  0  0  0  0  0  0  0  0  0  0
  150.5737  140.7451  155.8637 C   0  0  2  0  0  0  0  0  0  0  0  0
  151.4796  139.8154  155.0647 C   0  0  0  0  0  0  0  0  0  0  0  0
  150.4951  139.1625  154.0937 C   0  0  0  0  0  0  0  0  0  0  0  0
  149.4864  140.2002  153.7815 N   0  3  1  0  0  0  0  0  0  0  0  0
  148.1166  139.6817  153.5468 C   0  0  0  0  0  0  0  0  0  0  0  0
  147.1501  140.8356  153.2245 C   0  0  0  0  0  0  0  0  0  0  0  0
  147.2053  141.9767  154.2614 C   0  0  0  0  0  0  0  0  0  0  0  0
  148.2312  141.7129  155.3747 C   0  0  0  0  0  0  0  0  0  0  0  0
  149.6004  141.2831  154.7999 C   0  0  1  0  0  0  0  0  0  0  0  0
  152.3653  143.0934  159.8262 N   0  0  0  0  0  0  0  0  0  0  0  0
  152.0236  144.0051  160.7394 C   0  0  0  0  0  0  0  0  0  0  0  0
  152.3184  143.6581  161.9842 N   0  0  0  0  0  0  0  0  0  0  0  0
  152.8892  142.4388  161.7520 C   0  0  0  0  0  0  0  0  0  0  0  0
  152.9532  142.0581  160.4763 N   0  0  0  0  0  0  0  0  0  0  0  0
  151.7017  144.5232  156.7772 H   0  0  0  0  0  0  0  0  0  0  0  0
  152.3872  145.3040  158.1943 H   0  0  0  0  0  0  0  0  0  0  0  0
  150.7288  144.7172  158.2312 H   0  0  0  0  0  0  0  0  0  0  0  0
  153.2543  143.0018  157.9692 H   0  0  0  0  0  0  0  0  0  0  0  0
  151.7944  142.4717  155.9654 H   0  0  0  0  0  0  0  0  0  0  0  0
  150.0296  140.1348  156.5880 H   0  0  0  0  0  0  0  0  0  0  0  0
  152.2247  140.3891  154.5111 H   0  0  0  0  0  0  0  0  0  0  0  0
  152.0031  139.0902  155.6885 H   0  0  0  0  0  0  0  0  0  0  0  0
  150.9812  138.7940  153.1901 H   0  0  0  0  0  0  0  0  0  0  0  0
  150.0160  138.3136  154.5845 H   0  0  0  0  0  0  0  0  0  0  0  0
  148.1354  138.9690  152.7216 H   0  0  0  0  0  0  0  0  0  0  0  0
  147.7706  139.1352  154.4258 H   0  0  0  0  0  0  0  0  0  0  0  0
  147.3907  141.2386  152.2397 H   0  0  0  0  0  0  0  0  0  0  0  0
  146.1327  140.4502  153.1491 H   0  0  0  0  0  0  0  0  0  0  0  0
  147.4583  142.9084  153.7540 H   0  0  0  0  0  0  0  0  0  0  0  0
  146.2196  142.1319  154.7013 H   0  0  0  0  0  0  0  0  0  0  0  0
  148.3443  142.6062  155.9892 H   0  0  0  0  0  0  0  0  0  0  0  0
  147.8462  140.9384  156.0397 H   0  0  0  0  0  0  0  0  0  0  0  0
  150.0545  142.1325  154.2865 H   0  0  0  0  0  0  0  0  0  0  0  0
  151.5538  144.9447  160.4884 H   0  0  0  0  0  0  0  0  0  0  0  0
  153.2761  141.8170  162.5457 H   0  0  0  0  0  0  0  0  0  0  0  0
  149.7765  140.6244  152.9119 H   0  0  0  0  0  0  0  0  0  0  0  0
  1  2  1  0  0  0  0
  1 20  1  0  0  0  0
  1 21  1  0  0  0  0
  1 22  1  0  0  0  0
  2  3  1  0  0  0  0
  2 15  1  0  0  0  0
  2 23  1  0  0  0  0
  3  4  2  0  0  0  0
  3  5  1  0  0  0  0
  5  6  1  0  0  0  0
  5 24  1  0  0  0  0
  6 14  1  0  0  0  0
  6  7  1  0  0  0  0
  6 25  1  0  0  0  0
  7  8  1  0  0  0  0
  7 26  1  0  0  0  0
  7 27  1  0  0  0  0
  8  9  1  0  0  0  0
  8 28  1  0  0  0  0
  8 29  1  0  0  0  0
  9 14  1  0  0  0  0
  9 10  1  0  0  0  0
  9 41  1  0  0  0  0
 10 11  1  0  0  0  0
 10 30  1  0  0  0  0
 10 31  1  0  0  0  0
 11 12  1  0  0  0  0
 11 32  1  0  0  0  0
 11 33  1  0  0  0  0
 12 13  1  0  0  0  0
 12 34  1  0  0  0  0
 12 35  1  0  0  0  0
 13 14  1  0  0  0  0
 13 36  1  0  0  0  0
 13 37  1  0  0  0  0
 14 38  1  0  0  0  0
 15 19  1  0  0  0  0
 15 16  1  0  0  0  0
 16 17  2  0  0  0  0
 16 39  1  0  0  0  0
 17 18  1  0  0  0  0
 18 19  2  0  0  0  0
 18 40  1  0  0  0  0
M  CHG  1   9   1
M  END
> <s_m_source_file>
AV-unprocessed.smi

> <i_m_source_file_index>
1406

> <i_lp_mmshare_version>
43012

> <i_f3d_flags>
0

> <s_epik_input>
bjFbY0hdbltjSF1uMVtDQEhdKFtDSDNdKUMoPU8pW05IXVtDQEhdKFtDSDJdW0NIMl0yKVtDQEBIXShOMjMpW0NIMl1bQ0gyXVtDSDJdW0NIMl0z

> <s_epik_cmdline>
J2VwaWtfcHl0aG9uJywgJy1waCcsICc3LjAnLCAnLXRuJywgJzgnLCAnLW1hJywgJzIwMCcsICctbWV0YWxfYmluZGluZycsICctaW1hZScsICc8aW5maWxlLm1hZT4nLCAnLW9tYWUnLCAnPG91dGZpbGUubWFlPic=

> <r_lp_tautomer_probability>
1

> <r_epik_Ionization_Penalty>
0.00197066

> <r_epik_Ionization_Penalty_Charging>
0.00196223

> <r_epik_Ionization_Penalty_Neutral>
8.43107e-06

> <r_epik_State_Penalty>
0.00133866

> <r_epik_Charging_Adjusted_Penalty>
0.00330089

> <i_epik_Tot_Q>
1

> <i_epik_Tot_abs_Q>
1

> <r_epik_Metal_State_Penalty>
-0

> <b_epik_Metal_Only>
0

> <s_lp_Force_Field>
OPLS_2005

> <r_lp_Energy>
45.3265

> <b_lp_Chiralities_Consistent>
1

> <s_lp_Variant>
AV-unprocessed.smi:1406-1

> <Gold.Version>
5.8.1

> <Gold.Id.Protein>
6NUR|6NUR_protein|mol2

> <Gold.PLP.Fitness>
47.5425

> <Gold.PLP.PLP>
-44.9989

> <Gold.PLP.part.hbond>
-1.0000

> <Gold.PLP.part.metal>
0.0000

> <Gold.PLP.part.buried>
-4.2978

> <Gold.PLP.part.nonpolar>
-39.6590

> <Gold.PLP.part.repulsive>
0.4310

> <Gold.PLP.ligand.clash>
0.0000

> <Gold.PLP.ligand.torsion>
0.1236

> <Gold.PLP.Chemscore.Hbond>
0.8960

> <Gold.PLP.Chemscore.CHOScore>
0.0000

> <Gold.PLP.Chemscore.Metal>
0.0000

> <Gold.Chemscore.Hbonds>
donor molecule, donor type, donor heavy atom, donor atom, acceptor molecule, acceptor atom, score
      L1  H     9    41       P1  7957  0.64

> <Gold.PLP.Chemscore.Internal.Correction>
0.1028

> <Gold.Rescore>
     Score         DG    S(hbond)    S(metal)    S(lipo)     H(rot)  DE(clash)    DE(int)     intcor
     11.32     -11.97       0.80        0.00      73.77       1.89       0.15       0.50       ----

> <Gold.Chemscore.Fitness>
11.3179

> <Gold.Chemscore.DG>
-11.9689

> <Gold.Chemscore.ZeroCoef>
-5.4800

> <Gold.Chemscore.Hbond>
0.8044

> <Gold.Chemscore.Metal>
0.0000

> <Gold.Chemscore.Lipo>
73.7740

> <Gold.Chemscore.Internal_Hbond>
0.0000

> <Gold.Chemscore.DEClash>
0.1521

> <Gold.Chemscore.DEInternal>
0.4989

> <Gold.Chemscore.Rot>
1.8865

> <Gold.Chemscore.Internal.Correction>
   9.000000E+99

> <Gold.Chemscore.Hbonds>
donor molecule, donor type, donor heavy atom, donor atom, acceptor molecule, acceptor atom, score
      L1  H     9    41       P1  7957  0.64

> <Gold.Chemscore.Hbond.Weighted>
-2.6868

> <Gold.Chemscore.Metal.Weighted>
-0.0000

> <Gold.Chemscore.Lipo.Weighted>
-8.6316

> <Gold.Chemscore.Internal_Hbond.Weighted>
0.0000

> <Gold.Chemscore.DEClash.Weighted>
0.1521

> <Gold.Chemscore.DEInternal.Weighted>
0.4989

> <Gold.Chemscore.Rot.Weighted>
4.8295

> <Gold.Chemscore.Internal.Correction.Weighted>
   9.000000E+99

> <Gold.Protein.RotatedTorsions>
[ 6907 6896 6895 6894 ] final   16.55 input  -60.11 | X-H torsion
[ 7974 7965 7964 7962 ] final -143.41 input  175.53 | X-H torsion
[ 8008 7997 7996 7995 ] final  141.57 input   59.86 | X-H torsion
[ 10167 10162 10161 10158 ] final  -29.61 input  -65.29 | X-H torsion
[ 10718 10713 10712 10709 ] final  -31.15 input   66.30 | X-H torsion
[ 10763 10752 10751 10750 ] final   15.20 input  -60.55 | X-H torsion
[ 11005 11000 10999 10996 ] final    7.08 input  -57.11 | X-H torsion

> <Gold.Protein.ActiveResidues>
 VAL166  LYS551  ARG553  GLY616  TRP617  ASP618  TYR619  PRO620  LYS621  CYS622 
 ASP623  PHE694  ASN695  SER759  ASP760  ASP761  ALA762  ILE779  LEU786  VAL792 
 PHE793  MET794  SER795  GLU796  ALA797  LYS798  CYS799  TRP800  GLU811  SER814 

> <Gold.Protein.RotatedAtoms>
  151.8356  135.0607  160.0441 H   0  0  0  0  0  0  0  0  0  0  0  0  # atno 6907 bound_to 6896
  152.2847  133.5500  159.5528 H   0  0  0  0  0  0  0  0  0  0  0  0  # atno 6908 bound_to 6896
  150.7204  134.0429  159.3814 H   0  0  0  0  0  0  0  0  0  0  0  0  # atno 6909 bound_to 6896
  144.8371  140.5838  143.5476 H   0  0  0  0  0  0  0  0  0  0  0  0  # atno 7974 bound_to 7965
  156.2963  140.2312  156.4586 H   0  0  0  0  0  0  0  0  0  0  0  0  # atno 8008 bound_to 7997
  154.8038  140.0447  157.1313 H   0  0  0  0  0  0  0  0  0  0  0  0  # atno 8009 bound_to 7997
  154.9502  140.3041  155.5082 H   0  0  0  0  0  0  0  0  0  0  0  0  # atno 8010 bound_to 7997
  140.7258  143.3915  151.1422 H   0  0  0  0  0  0  0  0  0  0  0  0  # atno 10167 bound_to 10162
  156.3908  130.4372  149.7396 H   0  0  0  0  0  0  0  0  0  0  0  0  # atno 10718 bound_to 10713
  153.1548  135.6785  153.8828 H   0  0  0  0  0  0  0  0  0  0  0  0  # atno 10763 bound_to 10752
  153.8243  135.3126  155.3414 H   0  0  0  0  0  0  0  0  0  0  0  0  # atno 10764 bound_to 10752
  154.7889  135.4846  154.0096 H   0  0  0  0  0  0  0  0  0  0  0  0  # atno 10765 bound_to 10752
  140.5523  134.0271  155.7941 H   0  0  0  0  0  0  0  0  0  0  0  0  # atno 11005 bound_to 11000
  145.4771  139.1498  143.3782 LP  0  0  0  0  0  0  0  0  0  0  0  0  # atno 17320 bound_to 7965
  146.2669  140.4906  142.8830 LP  0  0  0  0  0  0  0  0  0  0  0  0  # atno 17321 bound_to 7965
  139.7521  143.8763  152.3079 LP  0  0  0  0  0  0  0  0  0  0  0  0  # atno 17342 bound_to 10162
  139.8620  144.7112  150.9088 LP  0  0  0  0  0  0  0  0  0  0  0  0  # atno 17343 bound_to 10162
  156.4450  130.7879  151.2901 LP  0  0  0  0  0  0  0  0  0  0  0  0  # atno 17370 bound_to 10713
  157.7499  131.0113  150.3340 LP  0  0  0  0  0  0  0  0  0  0  0  0  # atno 17371 bound_to 10713
  141.1164  133.9533  157.2814 LP  0  0  0  0  0  0  0  0  0  0  0  0  # atno 17394 bound_to 11000
  139.9449  135.0185  156.8822 LP  0  0  0  0  0  0  0  0  0  0  0  0  # atno 17395 bound_to 11000

$$$$
