AV-unprocessed.smi:3103|AV-procd|sdf|11814|dock10
  -GOLD-   2272017183D 1   1.00000     0.00000
 Structure written by MMmdl.
 32 32  0  0  0  0  0  0  0  0  1 V2000
  153.0919  142.7125  161.6398 C   0  0  0  0  0  0  0  0  0  0  0  0
  152.4342  142.7002  160.2734 C   0  0  0  0  0  0  0  0  0  0  0  0
  152.3470  141.5155  159.5117 C   0  0  0  0  0  0  0  0  0  0  0  0
  151.7669  141.4931  158.2922 N   0  0  0  0  0  0  0  0  0  0  0  0
  151.2756  142.6460  157.8327 C   0  0  0  0  0  0  0  0  0  0  0  0
  150.6987  142.5887  156.5787 N   0  0  0  0  0  0  0  0  0  0  0  0
  150.5985  141.3741  155.7840 C   0  0  0  0  0  0  0  0  0  0  0  0
  149.1507  141.0874  155.3746 C   0  0  0  0  0  0  0  0  0  0  0  0
  148.9200  141.6432  154.0907 O   0  0  0  0  0  0  0  0  0  0  0  0
  147.5499  141.6446  153.7270 C   0  0  0  0  0  0  0  0  0  0  0  0
  147.0700  140.1943  153.5931 C   0  0  0  0  0  0  0  0  0  0  0  0
  147.3616  139.7038  152.3019 O   0  0  0  0  0  0  0  0  0  0  0  0
  151.2979  143.8249  158.4658 N   0  0  0  0  0  0  0  0  0  0  0  0
  151.8759  143.8598  159.6871 C   0  0  0  0  0  0  0  0  0  0  0  0
  151.8935  145.2051  160.3874 C   0  0  0  0  0  0  0  0  0  0  0  0
  153.4995  141.7322  161.8888 H   0  0  0  0  0  0  0  0  0  0  0  0
  152.3675  142.9837  162.4080 H   0  0  0  0  0  0  0  0  0  0  0  0
  153.9087  143.4344  161.6635 H   0  0  0  0  0  0  0  0  0  0  0  0
  152.7440  140.5805  159.8788 H   0  0  0  0  0  0  0  0  0  0  0  0
  150.2153  143.4135  156.2541 H   0  0  0  0  0  0  0  0  0  0  0  0
  151.2134  141.4952  154.8915 H   0  0  0  0  0  0  0  0  0  0  0  0
  151.0048  140.5300  156.3427 H   0  0  0  0  0  0  0  0  0  0  0  0
  148.9526  140.0143  155.3766 H   0  0  0  0  0  0  0  0  0  0  0  0
  148.4733  141.5473  156.0954 H   0  0  0  0  0  0  0  0  0  0  0  0
  146.9801  142.1392  154.5151 H   0  0  0  0  0  0  0  0  0  0  0  0
  147.3805  142.2032  152.8046 H   0  0  0  0  0  0  0  0  0  0  0  0
  147.5183  139.5558  154.3551 H   0  0  0  0  0  0  0  0  0  0  0  0
  145.9891  140.1485  153.7276 H   0  0  0  0  0  0  0  0  0  0  0  0
  148.2780  139.8510  152.1246 H   0  0  0  0  0  0  0  0  0  0  0  0
  151.4146  145.1321  161.3640 H   0  0  0  0  0  0  0  0  0  0  0  0
  151.3637  145.9630  159.8086 H   0  0  0  0  0  0  0  0  0  0  0  0
  152.9198  145.5441  160.5295 H   0  0  0  0  0  0  0  0  0  0  0  0
  1  2  1  0  0  0  0
  1 16  1  0  0  0  0
  1 17  1  0  0  0  0
  1 18  1  0  0  0  0
  2 14  1  0  0  0  0
  2  3  2  0  0  0  0
  3  4  1  0  0  0  0
  3 19  1  0  0  0  0
  4  5  2  0  0  0  0
  5  6  1  0  0  0  0
  5 13  1  0  0  0  0
  6  7  1  0  0  0  0
  6 20  1  0  0  0  0
  7  8  1  0  0  0  0
  7 21  1  0  0  0  0
  7 22  1  0  0  0  0
  8  9  1  0  0  0  0
  8 23  1  0  0  0  0
  8 24  1  0  0  0  0
  9 10  1  0  0  0  0
 10 11  1  0  0  0  0
 10 25  1  0  0  0  0
 10 26  1  0  0  0  0
 11 12  1  0  0  0  0
 11 27  1  0  0  0  0
 11 28  1  0  0  0  0
 12 29  1  0  0  0  0
 13 14  2  0  0  0  0
 14 15  1  0  0  0  0
 15 30  1  0  0  0  0
 15 31  1  0  0  0  0
 15 32  1  0  0  0  0
M  END
> <s_m_source_file>
AV-unprocessed.smi

> <i_m_source_file_index>
3103

> <i_lp_mmshare_version>
43012

> <i_f3d_flags>
0

> <s_epik_input>
W0NIM11jMVtjSF1uYyhuYzFbQ0gzXSlbTkhdW0NIMl1bQ0gyXU9bQ0gyXVtDSDJdW09IXQ==

> <s_epik_cmdline>
J2VwaWtfcHl0aG9uJywgJy1waCcsICc3LjAnLCAnLXRuJywgJzgnLCAnLW1hJywgJzIwMCcsICctbWV0YWxfYmluZGluZycsICctaW1hZScsICc8aW5maWxlLm1hZT4nLCAnLW9tYWUnLCAnPG91dGZpbGUubWFlPic=

> <r_lp_tautomer_probability>
1

> <r_epik_Ionization_Penalty>
0.00815169

> <r_epik_Ionization_Penalty_Charging>
0

> <r_epik_Ionization_Penalty_Neutral>
0.00815169

> <r_epik_State_Penalty>
0.00530275

> <r_epik_Charging_Adjusted_Penalty>
0.00530275

> <i_epik_Tot_Q>
0

> <i_epik_Tot_abs_Q>
0

> <r_epik_Metal_State_Penalty>
-0

> <b_epik_Metal_Only>
0

> <s_lp_Force_Field>
OPLS_2005

> <r_lp_Energy>
-2.90403

> <b_lp_Chiralities_Consistent>
1

> <s_lp_Variant>
AV-unprocessed.smi:3103-1

> <Gold.Version>
5.8.1

> <Gold.Id.Protein>
6NUR|6NUR_protein|mol2

> <Gold.PLP.Fitness>
43.3809

> <Gold.PLP.PLP>
-36.4546

> <Gold.PLP.part.hbond>
-2.8129

> <Gold.PLP.part.metal>
0.0000

> <Gold.PLP.part.buried>
-7.2909

> <Gold.PLP.part.nonpolar>
-25.7333

> <Gold.PLP.part.repulsive>
0.3704

> <Gold.PLP.ligand.clash>
0.0000

> <Gold.PLP.ligand.torsion>
0.4121

> <Gold.PLP.Chemscore.Hbond>
2.5760

> <Gold.PLP.Chemscore.CHOScore>
0.0000

> <Gold.PLP.Chemscore.Metal>
0.0000

> <Gold.Chemscore.Hbonds>
donor molecule, donor type, donor heavy atom, donor atom, acceptor molecule, acceptor atom, score
      L1  H     6    20       P1  8028  1.00
      L1  H    12    29       P1  7957  1.00
      P1  H  8011  8017       L1     9  0.48

> <Gold.PLP.Chemscore.Internal.Correction>
0.0225

> <Gold.Rescore>
     Score         DG    S(hbond)    S(metal)    S(lipo)     H(rot)  DE(clash)    DE(int)     intcor
     15.98     -16.74       2.45        0.00      83.49       2.61       0.30       0.46       ----

> <Gold.Chemscore.Fitness>
15.9776

> <Gold.Chemscore.DG>
-16.7376

> <Gold.Chemscore.ZeroCoef>
-5.4800

> <Gold.Chemscore.Hbond>
2.4473

> <Gold.Chemscore.Metal>
0.0000

> <Gold.Chemscore.Lipo>
83.4915

> <Gold.Chemscore.Internal_Hbond>
0.0000

> <Gold.Chemscore.DEClash>
0.2968

> <Gold.Chemscore.DEInternal>
0.4632

> <Gold.Chemscore.Rot>
2.6113

> <Gold.Chemscore.Internal.Correction>
   9.000000E+99

> <Gold.Chemscore.Hbonds>
donor molecule, donor type, donor heavy atom, donor atom, acceptor molecule, acceptor atom, score
      L1  H     6    20       P1  8028  0.99
      L1  H    12    29       P1  7957  0.97
      P1  H  8011  8017       L1     9  0.14

> <Gold.Chemscore.Hbond.Weighted>
-8.1740

> <Gold.Chemscore.Metal.Weighted>
-0.0000

> <Gold.Chemscore.Lipo.Weighted>
-9.7685

> <Gold.Chemscore.Internal_Hbond.Weighted>
0.0000

> <Gold.Chemscore.DEClash.Weighted>
0.2968

> <Gold.Chemscore.DEInternal.Weighted>
0.4632

> <Gold.Chemscore.Rot.Weighted>
6.6849

> <Gold.Chemscore.Internal.Correction.Weighted>
   9.000000E+99

> <Gold.Protein.RotatedTorsions>
[ 6907 6896 6895 6894 ] final -102.50 input  -60.11 | X-H torsion
[ 7974 7965 7964 7962 ] final   85.46 input  175.53 | X-H torsion
[ 8008 7997 7996 7995 ] final  -15.87 input   59.86 | X-H torsion
[ 10167 10162 10161 10158 ] final   93.62 input  -65.29 | X-H torsion
[ 10718 10713 10712 10709 ] final   59.47 input   66.30 | X-H torsion
[ 10763 10752 10751 10750 ] final  142.55 input  -60.55 | X-H torsion
[ 11005 11000 10999 10996 ] final -134.83 input  -57.11 | X-H torsion

> <Gold.Protein.ActiveResidues>
 VAL166  LYS551  ARG553  GLY616  TRP617  ASP618  TYR619  PRO620  LYS621  CYS622 
 ASP623  PHE694  ASN695  SER759  ASP760  ASP761  ALA762  ILE779  LEU786  VAL792 
 PHE793  MET794  SER795  GLU796  ALA797  LYS798  CYS799  TRP800  GLU811  SER814 

> <Gold.Protein.RotatedAtoms>
  150.7199  134.0571  159.3818 H   0  0  0  0  0  0  0  0  0  0  0  0  # atno 6907 bound_to 6896
  151.8550  135.0542  160.0472 H   0  0  0  0  0  0  0  0  0  0  0  0  # atno 6908 bound_to 6896
  152.2761  133.5391  159.5505 H   0  0  0  0  0  0  0  0  0  0  0  0  # atno 6909 bound_to 6896
  145.5852  139.2330  143.2330 H   0  0  0  0  0  0  0  0  0  0  0  0  # atno 7974 bound_to 7965
  154.5096  140.2184  155.9182 H   0  0  0  0  0  0  0  0  0  0  0  0  # atno 8008 bound_to 7997
  156.1536  140.3156  155.8655 H   0  0  0  0  0  0  0  0  0  0  0  0  # atno 8009 bound_to 7997
  155.3890  140.0477  157.3032 H   0  0  0  0  0  0  0  0  0  0  0  0  # atno 8010 bound_to 7997
  139.8163  144.6751  150.9576 H   0  0  0  0  0  0  0  0  0  0  0  0  # atno 10167 bound_to 10162
  157.5678  130.8884  149.9216 H   0  0  0  0  0  0  0  0  0  0  0  0  # atno 10718 bound_to 10713
  153.9577  135.2963  155.3435 H   0  0  0  0  0  0  0  0  0  0  0  0  # atno 10763 bound_to 10752
  154.7392  135.5032  153.9096 H   0  0  0  0  0  0  0  0  0  0  0  0  # atno 10764 bound_to 10752
  153.0962  135.6722  153.9868 H   0  0  0  0  0  0  0  0  0  0  0  0  # atno 10765 bound_to 10752
  140.8954  134.1758  157.4498 H   0  0  0  0  0  0  0  0  0  0  0  0  # atno 11005 bound_to 11000
  146.1687  140.6679  142.9243 LP  0  0  0  0  0  0  0  0  0  0  0  0  # atno 17320 bound_to 7965
  144.7376  140.4851  143.6893 LP  0  0  0  0  0  0  0  0  0  0  0  0  # atno 17321 bound_to 7965
  140.7815  143.4136  151.0954 LP  0  0  0  0  0  0  0  0  0  0  0  0  # atno 17342 bound_to 10162
  139.7799  143.8370  152.3136 LP  0  0  0  0  0  0  0  0  0  0  0  0  # atno 17343 bound_to 10162
  156.0725  130.3683  150.0746 LP  0  0  0  0  0  0  0  0  0  0  0  0  # atno 17370 bound_to 10713
  156.8903  130.9586  151.3589 LP  0  0  0  0  0  0  0  0  0  0  0  0  # atno 17371 bound_to 10713
  139.8735  134.9876  156.5375 LP  0  0  0  0  0  0  0  0  0  0  0  0  # atno 17394 bound_to 11000
  140.8295  133.8290  155.8971 LP  0  0  0  0  0  0  0  0  0  0  0  0  # atno 17395 bound_to 11000

$$$$
