AV-unprocessed.smi:72|AV-procd|sdf|735|dock4
  -GOLD-   2262017 63D 1   1.00000     0.00000
 Structure written by MMmdl.
 28 29  0  0  0  0  0  0  0  0  2 V2000
  153.5840  135.3249  158.6504 N   0  0  0  0  0  0  0  0  0  0  0  0
  153.1972  136.3451  158.0182 C   0  0  0  0  0  0  0  0  0  0  0  0
  152.0651  137.1072  158.4990 N   0  0  0  0  0  0  0  0  0  0  0  0
  151.7133  138.1581  157.8237 C   0  0  0  0  0  0  0  0  0  0  0  0
  152.4310  138.5778  156.6280 N   0  0  0  0  0  0  0  0  0  0  0  0
  152.0007  139.8028  155.8460 C   0  0  2  0  0  0  0  0  0  0  0  0
  151.1437  140.5694  156.6340 O   0  0  0  0  0  0  0  0  0  0  0  0
  150.2365  141.2515  155.7823 C   0  0  2  0  0  0  0  0  0  0  0  0
  149.0034  141.7021  156.5807 C   0  0  0  0  0  0  0  0  0  0  0  0
  149.3569  142.7230  157.4894 O   0  0  0  0  0  0  0  0  0  0  0  0
  149.9231  140.1942  154.7184 C   0  0  1  0  0  0  0  0  0  0  0  0
  149.5211  140.8103  153.5116 O   0  0  0  0  0  0  0  0  0  0  0  0
  151.2522  139.4677  154.5353 C   0  0  2  0  0  0  0  0  0  0  0  0
  151.0332  138.0855  154.3169 O   0  0  0  0  0  0  0  0  0  0  0  0
  153.5190  137.7943  156.1612 C   0  0  0  0  0  0  0  0  0  0  0  0
  154.0798  138.1395  155.1210 O   0  0  0  0  0  0  0  0  0  0  0  0
  153.8825  136.6917  156.8742 N   0  5  0  0  0  0  0  0  0  0  0  0
  152.9004  140.3962  155.6757 H   0  0  0  0  0  0  0  0  0  0  0  0
  150.7466  142.1019  155.3243 H   0  0  0  0  0  0  0  0  0  0  0  0
  149.1514  139.5123  155.0801 H   0  0  0  0  0  0  0  0  0  0  0  0
  151.8317  139.8812  153.7084 H   0  0  0  0  0  0  0  0  0  0  0  0
  154.3784  134.8768  158.2175 H   0  0  0  0  0  0  0  0  0  0  0  0
  150.8641  138.7837  158.1011 H   0  0  0  0  0  0  0  0  0  0  0  0
  148.2511  142.1133  155.9069 H   0  0  0  0  0  0  0  0  0  0  0  0
  148.5436  140.8649  157.1070 H   0  0  0  0  0  0  0  0  0  0  0  0
  149.0695  143.5515  157.1370 H   0  0  0  0  0  0  0  0  0  0  0  0
  149.5377  140.1585  152.8273 H   0  0  0  0  0  0  0  0  0  0  0  0
  150.5333  137.9861  153.5204 H   0  0  0  0  0  0  0  0  0  0  0  0
  1  2  2  0  0  0  0
  1 22  1  0  0  0  0
  2 17  1  0  0  0  0
  2  3  1  0  0  0  0
  3  4  2  0  0  0  0
  4  5  1  0  0  0  0
  4 23  1  0  0  0  0
  5  6  1  0  0  0  0
  5 15  1  0  0  0  0
  6 18  1  0  0  0  0
  6 13  1  0  0  0  0
  6  7  1  0  0  0  0
  7  8  1  0  0  0  0
  8 19  1  0  0  0  0
  8  9  1  0  0  0  0
  8 11  1  0  0  0  0
  9 10  1  0  0  0  0
  9 24  1  0  0  0  0
  9 25  1  0  0  0  0
 10 26  1  0  0  0  0
 11 20  1  0  0  0  0
 11 12  1  0  0  0  0
 11 13  1  0  0  0  0
 12 27  1  0  0  0  0
 13 21  1  0  0  0  0
 13 14  1  0  0  0  0
 14 28  1  0  0  0  0
 15 16  2  0  0  0  0
 15 17  1  0  0  0  0
M  CHG  1  17  -1
M  END
> <s_m_source_file>
AV-unprocessed.smi

> <i_m_source_file_index>
72

> <i_lp_mmshare_version>
43012

> <i_f3d_flags>
0

> <s_epik_input>
W05IMl1jMW5bY0hdbihjKD1PKW4xKVtDQEBIXTJPW0NASF0oW0NIMl1bT0hdKVtDQEBIXShbT0hdKVtDQEhdMltPSF0=

> <s_epik_cmdline>
J2VwaWtfcHl0aG9uJywgJy1waCcsICc3LjAnLCAnLXRuJywgJzgnLCAnLW1hJywgJzIwMCcsICctbWV0YWxfYmluZGluZycsICctaW1hZScsICc8aW5maWxlLm1hZT4nLCAnLW9tYWUnLCAnPG91dGZpbGUubWFlPic=

> <r_lp_tautomer_probability>
7.17554e-07

> <r_epik_Ionization_Penalty>
12.8705

> <r_epik_Ionization_Penalty_Charging>
5.64144

> <r_epik_Ionization_Penalty_Neutral>
7.22905

> <r_epik_State_Penalty>
3.30104

> <r_epik_Charging_Adjusted_Penalty>
8.94249

> <i_epik_Tot_Q>
-1

> <i_epik_Tot_abs_Q>
1

> <r_epik_Metal_State_Penalty>
0.529074

> <b_epik_Metal_Only>
1

> <s_epik_Chemistry_Notes>
This compound contains an acetal/aminal-like group ( X-CH(R)-Y where X, Y are N, S, or O) that may be acid/base labile, releasing an aldehyde.

> <s_lp_Force_Field>
OPLS_2005

> <r_lp_Energy>
36.8699

> <b_lp_Chiralities_Consistent>
1

> <s_lp_Variant>
AV-unprocessed.smi:72-73

> <Gold.Version>
5.8.1

> <Gold.Id.Protein>
6NUR|6NUR_protein|mol2

> <Gold.PLP.Fitness>
39.1784

> <Gold.PLP.PLP>
-23.1029

> <Gold.PLP.part.hbond>
-7.7106

> <Gold.PLP.part.metal>
0.0000

> <Gold.PLP.part.buried>
0.7467

> <Gold.PLP.part.nonpolar>
-15.7831

> <Gold.PLP.part.repulsive>
0.0068

> <Gold.PLP.ligand.clash>
0.0000

> <Gold.PLP.ligand.torsion>
0.3904

> <Gold.PLP.Chemscore.Hbond>
5.5090

> <Gold.PLP.Chemscore.CHOScore>
0.0000

> <Gold.PLP.Chemscore.Metal>
0.0000

> <Gold.Chemscore.Hbonds>
donor molecule, donor type, donor heavy atom, donor atom, acceptor molecule, acceptor atom, score
      L1  H    10    26       P1  8028  1.00
      L1  H    12    27       P1  7957  0.80
      P1  H  6896  6908       L1     1  0.67
      P1  H  7997  8009       L1    16  0.29
      P1  H  8011  8017       L1    12  0.85
      P1  H 10752 10765       L1    17  1.76

> <Gold.PLP.Chemscore.Internal.Correction>
0.3292

> <Gold.Rescore>
     Score         DG    S(hbond)    S(metal)    S(lipo)     H(rot)  DE(clash)    DE(int)     intcor
      5.76      -7.83       2.78        0.00      29.24       4.04       1.64       0.43       ----

> <Gold.Chemscore.Fitness>
5.7646

> <Gold.Chemscore.DG>
-7.8336

> <Gold.Chemscore.ZeroCoef>
-5.4800

> <Gold.Chemscore.Hbond>
2.7773

> <Gold.Chemscore.Metal>
0.0000

> <Gold.Chemscore.Lipo>
29.2355

> <Gold.Chemscore.Internal_Hbond>
0.0000

> <Gold.Chemscore.DEClash>
1.6373

> <Gold.Chemscore.DEInternal>
0.4317

> <Gold.Chemscore.Rot>
4.0403

> <Gold.Chemscore.Internal.Correction>
   9.000000E+99

> <Gold.Chemscore.Hbonds>
donor molecule, donor type, donor heavy atom, donor atom, acceptor molecule, acceptor atom, score
      L1  H    10    26       P1  8028  0.53
      L1  H    12    27       P1  7957  0.79
      P1  H  6896  6908       L1     1  0.64
      P1  H  7997  8009       L1    16  0.07
      P1  H  8011  8017       L1    12  0.14
      P1  H 10752 10765       L1    17  0.18

> <Gold.Chemscore.Hbond.Weighted>
-9.2761

> <Gold.Chemscore.Metal.Weighted>
-0.0000

> <Gold.Chemscore.Lipo.Weighted>
-3.4206

> <Gold.Chemscore.Internal_Hbond.Weighted>
0.0000

> <Gold.Chemscore.DEClash.Weighted>
1.6373

> <Gold.Chemscore.DEInternal.Weighted>
0.4317

> <Gold.Chemscore.Rot.Weighted>
10.3431

> <Gold.Chemscore.Internal.Correction.Weighted>
   9.000000E+99

> <Gold.Protein.RotatedTorsions>
[ 6907 6896 6895 6894 ] final  -40.28 input  -60.11 | X-H torsion
[ 7974 7965 7964 7962 ] final  117.68 input  175.53 | X-H torsion
[ 8008 7997 7996 7995 ] final -117.71 input   59.86 | X-H torsion
[ 10167 10162 10161 10158 ] final -106.04 input  -65.29 | X-H torsion
[ 10718 10713 10712 10709 ] final  157.25 input   66.30 | X-H torsion
[ 10763 10752 10751 10750 ] final -102.29 input  -60.55 | X-H torsion
[ 11005 11000 10999 10996 ] final -125.34 input  -57.11 | X-H torsion

> <Gold.Protein.ActiveResidues>
 VAL166  LYS551  ARG553  GLY616  TRP617  ASP618  TYR619  PRO620  LYS621  CYS622 
 ASP623  PHE694  ASN695  SER759  ASP760  ASP761  ALA762  ILE779  LEU786  VAL792 
 PHE793  MET794  SER795  GLU796  ALA797  LYS798  CYS799  TRP800  GLU811  SER814 

> <Gold.Protein.RotatedAtoms>
  150.9804  134.9160  159.7840 H   0  0  0  0  0  0  0  0  0  0  0  0  # atno 6907 bound_to 6896
  152.5220  134.3419  159.9230 H   0  0  0  0  0  0  0  0  0  0  0  0  # atno 6908 bound_to 6896
  151.3426  133.3915  159.2707 H   0  0  0  0  0  0  0  0  0  0  0  0  # atno 6909 bound_to 6896
  145.1644  139.3137  143.4500 H   0  0  0  0  0  0  0  0  0  0  0  0  # atno 7974 bound_to 7965
  155.0880  140.0395  157.2660 H   0  0  0  0  0  0  0  0  0  0  0  0  # atno 8008 bound_to 7997
  154.6854  140.2642  155.6841 H   0  0  0  0  0  0  0  0  0  0  0  0  # atno 8009 bound_to 7997
  156.2710  140.2770  156.1414 H   0  0  0  0  0  0  0  0  0  0  0  0  # atno 8010 bound_to 7997
  140.1920  143.3884  152.1198 H   0  0  0  0  0  0  0  0  0  0  0  0  # atno 10167 bound_to 10162
  157.1939  131.0661  151.2063 H   0  0  0  0  0  0  0  0  0  0  0  0  # atno 10718 bound_to 10713
  154.7722  135.4866  153.9672 H   0  0  0  0  0  0  0  0  0  0  0  0  # atno 10763 bound_to 10752
  153.1383  135.6767  153.9075 H   0  0  0  0  0  0  0  0  0  0  0  0  # atno 10764 bound_to 10752
  153.8758  135.3138  155.3422 H   0  0  0  0  0  0  0  0  0  0  0  0  # atno 10765 bound_to 10752
  140.9769  134.0727  157.3808 H   0  0  0  0  0  0  0  0  0  0  0  0  # atno 11005 bound_to 11000
  146.3478  140.1766  142.8589 LP  0  0  0  0  0  0  0  0  0  0  0  0  # atno 17320 bound_to 7965
  145.0298  140.8861  143.5116 LP  0  0  0  0  0  0  0  0  0  0  0  0  # atno 17321 bound_to 7965
  139.5252  144.7093  151.5257 LP  0  0  0  0  0  0  0  0  0  0  0  0  # atno 17342 bound_to 10162
  140.6449  143.8815  150.6727 LP  0  0  0  0  0  0  0  0  0  0  0  0  # atno 17343 bound_to 10162
  157.3833  130.7243  149.6645 LP  0  0  0  0  0  0  0  0  0  0  0  0  # atno 17370 bound_to 10713
  155.9708  130.4166  150.4240 LP  0  0  0  0  0  0  0  0  0  0  0  0  # atno 17371 bound_to 10713
  139.8934  135.0130  156.6898 LP  0  0  0  0  0  0  0  0  0  0  0  0  # atno 17394 bound_to 11000
  140.7245  133.9112  155.8169 LP  0  0  0  0  0  0  0  0  0  0  0  0  # atno 17395 bound_to 11000

$$$$
