AV-unprocessed.smi:72|AV-procd|sdf|741|dock1
  -GOLD-   2262017 73D 1   1.00000     0.00000
 Structure written by MMmdl.
 28 29  0  0  0  0  0  0  0  0  2 V2000
  154.4014  138.1507  154.7743 N   0  0  0  0  0  0  0  0  0  0  0  0
  153.1666  138.3955  154.8511 C   0  0  0  0  0  0  0  0  0  0  0  0
  152.2104  137.4807  154.2665 N   0  0  0  0  0  0  0  0  0  0  0  0
  150.9502  137.7724  154.3724 C   0  0  0  0  0  0  0  0  0  0  0  0
  150.4947  138.9769  155.0556 N   0  0  0  0  0  0  0  0  0  0  0  0
  149.0218  139.3297  155.1810 C   0  0  2  0  0  0  0  0  0  0  0  0
  148.2314  138.2633  154.7346 O   0  0  0  0  0  0  0  0  0  0  0  0
  147.6004  138.5990  153.5014 C   0  0  1  0  0  0  0  0  0  0  0  0
  146.3224  137.7644  153.3264 C   0  0  0  0  0  0  0  0  0  0  0  0
  146.6464  136.3939  153.2269 O   0  0  0  0  0  0  0  0  0  0  0  0
  147.3376  140.0930  153.6860 C   0  0  2  0  0  0  0  0  0  0  0  0
  147.0449  140.7621  152.4733 O   0  0  0  0  0  0  0  0  0  0  0  0
  148.6200  140.5756  154.3557 C   0  0  2  0  0  0  0  0  0  0  0  0
  149.5996  140.9706  153.4065 O   0  0  0  0  0  0  0  0  0  0  0  0
  151.4572  139.8595  155.6138 C   0  0  0  0  0  0  0  0  0  0  0  0
  151.0518  140.8802  156.1704 O   0  0  0  0  0  0  0  0  0  0  0  0
  152.7780  139.5464  155.5004 N   0  5  0  0  0  0  0  0  0  0  0  0
  148.8365  139.4420  156.2505 H   0  0  0  0  0  0  0  0  0  0  0  0
  148.2920  138.4469  152.6703 H   0  0  0  0  0  0  0  0  0  0  0  0
  146.5035  140.2333  154.3756 H   0  0  0  0  0  0  0  0  0  0  0  0
  148.4328  141.4142  155.0271 H   0  0  0  0  0  0  0  0  0  0  0  0
  154.5986  137.2906  154.2842 H   0  0  0  0  0  0  0  0  0  0  0  0
  150.1661  137.1392  153.9581 H   0  0  0  0  0  0  0  0  0  0  0  0
  145.6235  137.9318  154.1465 H   0  0  0  0  0  0  0  0  0  0  0  0
  145.8133  138.0463  152.4043 H   0  0  0  0  0  0  0  0  0  0  0  0
  147.3063  136.2892  152.5587 H   0  0  0  0  0  0  0  0  0  0  0  0
  147.7721  140.6397  151.8827 H   0  0  0  0  0  0  0  0  0  0  0  0
  149.3309  140.6593  152.5548 H   0  0  0  0  0  0  0  0  0  0  0  0
  1  2  2  0  0  0  0
  1 22  1  0  0  0  0
  2 17  1  0  0  0  0
  2  3  1  0  0  0  0
  3  4  2  0  0  0  0
  4  5  1  0  0  0  0
  4 23  1  0  0  0  0
  5  6  1  0  0  0  0
  5 15  1  0  0  0  0
  6 18  1  0  0  0  0
  6 13  1  0  0  0  0
  6  7  1  0  0  0  0
  7  8  1  0  0  0  0
  8 19  1  0  0  0  0
  8  9  1  0  0  0  0
  8 11  1  0  0  0  0
  9 10  1  0  0  0  0
  9 24  1  0  0  0  0
  9 25  1  0  0  0  0
 10 26  1  0  0  0  0
 11 20  1  0  0  0  0
 11 12  1  0  0  0  0
 11 13  1  0  0  0  0
 12 27  1  0  0  0  0
 13 21  1  0  0  0  0
 13 14  1  0  0  0  0
 14 28  1  0  0  0  0
 15 16  2  0  0  0  0
 15 17  1  0  0  0  0
M  CHG  1  17  -1
M  END
> <s_m_source_file>
AV-unprocessed.smi

> <i_m_source_file_index>
72

> <i_lp_mmshare_version>
43012

> <i_f3d_flags>
0

> <s_epik_input>
W05IMl1jMW5bY0hdbihjKD1PKW4xKVtDQEBIXTJPW0NASF0oW0NIMl1bT0hdKVtDQEBIXShbT0hdKVtDQEhdMltPSF0=

> <s_epik_cmdline>
J2VwaWtfcHl0aG9uJywgJy1waCcsICc3LjAnLCAnLXRuJywgJzgnLCAnLW1hJywgJzIwMCcsICctbWV0YWxfYmluZGluZycsICctaW1hZScsICc8aW5maWxlLm1hZT4nLCAnLW9tYWUnLCAnPG91dGZpbGUubWFlPic=

> <r_lp_tautomer_probability>
7.17554e-07

> <r_epik_Ionization_Penalty>
12.8705

> <r_epik_Ionization_Penalty_Charging>
5.64144

> <r_epik_Ionization_Penalty_Neutral>
7.22905

> <r_epik_State_Penalty>
3.30104

> <r_epik_Charging_Adjusted_Penalty>
8.94249

> <i_epik_Tot_Q>
-1

> <i_epik_Tot_abs_Q>
1

> <r_epik_Metal_State_Penalty>
0.529074

> <b_epik_Metal_Only>
1

> <s_epik_Chemistry_Notes>
This compound contains an acetal/aminal-like group ( X-CH(R)-Y where X, Y are N, S, or O) that may be acid/base labile, releasing an aldehyde.

> <s_lp_Force_Field>
OPLS_2005

> <r_lp_Energy>
42.5031

> <b_lp_Chiralities_Consistent>
1

> <s_lp_Variant>
AV-unprocessed.smi:72-79

> <Gold.Version>
5.8.1

> <Gold.Id.Protein>
6NUR|6NUR_protein|mol2

> <Gold.PLP.Fitness>
49.1744

> <Gold.PLP.PLP>
-28.4117

> <Gold.PLP.part.hbond>
-8.7184

> <Gold.PLP.part.metal>
0.0000

> <Gold.PLP.part.buried>
-2.5188

> <Gold.PLP.part.nonpolar>
-18.7386

> <Gold.PLP.part.repulsive>
0.2970

> <Gold.PLP.ligand.clash>
0.0000

> <Gold.PLP.ligand.torsion>
0.1375

> <Gold.PLP.Chemscore.Hbond>
5.9502

> <Gold.PLP.Chemscore.CHOScore>
1.0438

> <Gold.PLP.Chemscore.Metal>
0.0000

> <Gold.Chemscore.Hbonds>
donor molecule, donor type, donor heavy atom, donor atom, acceptor molecule, acceptor atom, score
      L1  H    10    26       P1  7948  1.00
      L1  H    12    27       P1  7957  1.00
      L1  H    14    28       P1  7957  1.00
      P1  H  7989  7998       L1    14  0.24
      P1  H  7997  8009       L1    17  1.90
      P1  H 10752 10765       L1     3  0.78
      L1  C     4    23       P1  7948  0.96
      L1  C     4    23       P1  7949  0.01

> <Gold.PLP.Chemscore.Internal.Correction>
0.0557

> <Gold.Rescore>
     Score         DG    S(hbond)    S(metal)    S(lipo)     H(rot)  DE(clash)    DE(int)     intcor
     12.66     -13.27       4.69        0.00      21.06       4.04       0.36       0.24       ----

> <Gold.Chemscore.Fitness>
12.6626

> <Gold.Chemscore.DG>
-13.2669

> <Gold.Chemscore.ZeroCoef>
-5.4800

> <Gold.Chemscore.Hbond>
4.6903

> <Gold.Chemscore.Metal>
0.0000

> <Gold.Chemscore.Lipo>
21.0634

> <Gold.Chemscore.Internal_Hbond>
0.0000

> <Gold.Chemscore.DEClash>
0.3626

> <Gold.Chemscore.DEInternal>
0.2417

> <Gold.Chemscore.Rot>
4.0403

> <Gold.Chemscore.Internal.Correction>
   9.000000E+99

> <Gold.Chemscore.Hbonds>
donor molecule, donor type, donor heavy atom, donor atom, acceptor molecule, acceptor atom, score
      L1  H    10    26       P1  7948  0.99
      L1  H    12    27       P1  7957  0.93
      L1  H    14    28       P1  7957  0.92
      P1  H  7989  7998       L1    14  0.14
      P1  H  7997  8009       L1    17  0.22
      P1  H 10752 10765       L1     3  0.55

> <Gold.Chemscore.Hbond.Weighted>
-15.6656

> <Gold.Chemscore.Metal.Weighted>
-0.0000

> <Gold.Chemscore.Lipo.Weighted>
-2.4644

> <Gold.Chemscore.Internal_Hbond.Weighted>
0.0000

> <Gold.Chemscore.DEClash.Weighted>
0.3626

> <Gold.Chemscore.DEInternal.Weighted>
0.2417

> <Gold.Chemscore.Rot.Weighted>
10.3431

> <Gold.Chemscore.Internal.Correction.Weighted>
   9.000000E+99

> <Gold.Protein.RotatedTorsions>
[ 6907 6896 6895 6894 ] final -119.93 input  -60.11 | X-H torsion
[ 7974 7965 7964 7962 ] final    9.85 input  175.53 | X-H torsion
[ 8008 7997 7996 7995 ] final -138.25 input   59.86 | X-H torsion
[ 10167 10162 10161 10158 ] final  170.13 input  -65.29 | X-H torsion
[ 10718 10713 10712 10709 ] final  150.59 input   66.30 | X-H torsion
[ 10763 10752 10751 10750 ] final  147.10 input  -60.55 | X-H torsion
[ 11005 11000 10999 10996 ] final   53.93 input  -57.11 | X-H torsion

> <Gold.Protein.ActiveResidues>
 VAL166  LYS551  ARG553  GLY616  TRP617  ASP618  TYR619  PRO620  LYS621  CYS622 
 ASP623  PHE694  ASN695  SER759  ASP760  ASP761  ALA762  ILE779  LEU786  VAL792 
 PHE793  MET794  SER795  GLU796  ALA797  LYS798  CYS799  TRP800  GLU811  SER814 

> <Gold.Protein.RotatedAtoms>
  150.8349  133.8030  159.3083 H   0  0  0  0  0  0  0  0  0  0  0  0  # atno 6907 bound_to 6896
  151.5749  135.1059  160.0013 H   0  0  0  0  0  0  0  0  0  0  0  0  # atno 6908 bound_to 6896
  152.4423  133.7428  159.6707 H   0  0  0  0  0  0  0  0  0  0  0  0  # atno 6909 bound_to 6896
  146.2397  139.9722  142.8446 H   0  0  0  0  0  0  0  0  0  0  0  0  # atno 7974 bound_to 7965
  155.4253  140.0521  157.3022 H   0  0  0  0  0  0  0  0  0  0  0  0  # atno 8008 bound_to 7997
  154.4884  140.2110  155.9562 H   0  0  0  0  0  0  0  0  0  0  0  0  # atno 8009 bound_to 7997
  156.1308  140.3172  155.8350 H   0  0  0  0  0  0  0  0  0  0  0  0  # atno 8010 bound_to 7997
  139.5010  144.3631  151.9804 H   0  0  0  0  0  0  0  0  0  0  0  0  # atno 10167 bound_to 10162
  157.2815  131.0836  151.1528 H   0  0  0  0  0  0  0  0  0  0  0  0  # atno 10718 bound_to 10713
  154.0329  135.2896  155.3366 H   0  0  0  0  0  0  0  0  0  0  0  0  # atno 10763 bound_to 10752
  154.6977  135.5201  153.8485 H   0  0  0  0  0  0  0  0  0  0  0  0  # atno 10764 bound_to 10752
  153.0632  135.6621  154.0540 H   0  0  0  0  0  0  0  0  0  0  0  0  # atno 10765 bound_to 10752
  140.0727  134.5447  155.9029 H   0  0  0  0  0  0  0  0  0  0  0  0  # atno 11005 bound_to 11000
  145.1671  140.9702  143.4343 LP  0  0  0  0  0  0  0  0  0  0  0  0  # atno 17320 bound_to 7965
  145.0063  139.3551  143.6142 LP  0  0  0  0  0  0  0  0  0  0  0  0  # atno 17321 bound_to 7965
  140.3067  144.3585  150.6045 LP  0  0  0  0  0  0  0  0  0  0  0  0  # atno 17342 bound_to 10162
  140.5831  143.2171  151.7392 LP  0  0  0  0  0  0  0  0  0  0  0  0  # atno 17343 bound_to 10162
  157.2960  130.6819  149.6139 LP  0  0  0  0  0  0  0  0  0  0  0  0  # atno 17370 bound_to 10713
  155.9664  130.4406  150.5307 LP  0  0  0  0  0  0  0  0  0  0  0  0  # atno 17371 bound_to 10713
  141.2018  133.6621  156.5970 LP  0  0  0  0  0  0  0  0  0  0  0  0  # atno 17394 bound_to 11000
  140.3603  134.7693  157.4529 LP  0  0  0  0  0  0  0  0  0  0  0  0  # atno 17395 bound_to 11000

$$$$
