AV-unprocessed.smi:2336|AV-procd|sdf|9329|dock7
  -GOLD-   2272012553D 1   1.00000     0.00000
 Structure written by MMmdl.
 50 51  0  0  0  0  0  0  0  0  2 V2000
  149.8688  133.0225  154.4635 C   0  0  0  0  0  0  0  0  0  0  0  0
  149.5779  134.5346  154.5160 C   0  0  0  0  0  0  0  0  0  0  0  0
  150.3414  135.1450  155.7086 C   0  0  0  0  0  0  0  0  0  0  0  0
  148.0567  134.8635  154.5707 C   0  0  2  0  0  0  0  0  0  0  0  0
  147.3091  134.0682  155.6804 C   0  0  0  0  0  0  0  0  0  0  0  0
  147.5367  134.5977  157.0226 N   0  0  0  0  0  0  0  0  0  0  0  0
  146.9582  134.1552  158.1485 C   0  0  0  0  0  0  0  0  0  0  0  0
  146.1531  133.2251  158.1787 O   0  0  0  0  0  0  0  0  0  0  0  0
  147.3490  134.8816  159.2092 N   0  0  0  0  0  0  0  0  0  0  0  0
  146.9620  134.7470  160.5705 C   0  0  0  0  0  0  0  0  0  0  0  0
  146.3652  133.5844  161.1159 C   0  0  0  0  0  0  0  0  0  0  0  0
  146.0483  133.5702  162.4892 C   0  0  0  0  0  0  0  0  0  0  0  0
  146.2900  134.6065  163.3195 N   0  0  0  0  0  0  0  0  0  0  0  0
  146.8702  135.7084  162.7986 C   0  0  0  0  0  0  0  0  0  0  0  0
  147.2272  135.8259  161.4401 C   0  0  0  0  0  0  0  0  0  0  0  0
  147.8105  136.9596  160.9810 F   0  0  0  0  0  0  0  0  0  0  0  0
  147.4578  134.7165  153.2058 N   0  3  0  0  0  0  0  0  0  0  0  0
  146.1080  135.3108  153.0330 C   0  0  0  0  0  0  0  0  0  0  0  0
  145.7220  135.3304  151.5395 C   0  0  0  0  0  0  0  0  0  0  0  0
  145.7779  133.9969  150.9371 N   0  0  0  0  0  0  0  0  0  0  0  0
  144.7113  133.1136  151.3973 C   0  0  0  0  0  0  0  0  0  0  0  0
  147.1145  133.4249  151.1128 C   0  0  0  0  0  0  0  0  0  0  0  0
  147.5292  133.3634  152.5970 C   0  0  0  0  0  0  0  0  0  0  0  0
  149.3916  132.4961  155.2909 H   0  0  0  0  0  0  0  0  0  0  0  0
  150.9399  132.8268  154.5232 H   0  0  0  0  0  0  0  0  0  0  0  0
  149.5266  132.5722  153.5320 H   0  0  0  0  0  0  0  0  0  0  0  0
  149.9955  134.9673  153.6064 H   0  0  0  0  0  0  0  0  0  0  0  0
  149.9514  134.7774  156.6584 H   0  0  0  0  0  0  0  0  0  0  0  0
  150.2821  136.2333  155.7210 H   0  0  0  0  0  0  0  0  0  0  0  0
  151.4009  134.8903  155.6679 H   0  0  0  0  0  0  0  0  0  0  0  0
  147.9885  135.9195  154.8370 H   0  0  0  0  0  0  0  0  0  0  0  0
  146.2458  134.0028  155.4452 H   0  0  0  0  0  0  0  0  0  0  0  0
  147.6684  133.0409  155.7141 H   0  0  0  0  0  0  0  0  0  0  0  0
  148.1906  135.3632  157.1004 H   0  0  0  0  0  0  0  0  0  0  0  0
  147.9525  135.6668  159.0136 H   0  0  0  0  0  0  0  0  0  0  0  0
  146.1590  132.7077  160.5217 H   0  0  0  0  0  0  0  0  0  0  0  0
  145.5936  132.6974  162.9344 H   0  0  0  0  0  0  0  0  0  0  0  0
  147.0576  136.5203  163.4859 H   0  0  0  0  0  0  0  0  0  0  0  0
  145.3580  134.7713  153.6076 H   0  0  0  0  0  0  0  0  0  0  0  0
  146.1102  136.3343  153.4087 H   0  0  0  0  0  0  0  0  0  0  0  0
  144.7235  135.7495  151.4099 H   0  0  0  0  0  0  0  0  0  0  0  0
  146.4041  135.9853  150.9953 H   0  0  0  0  0  0  0  0  0  0  0  0
  144.7587  132.1598  150.8708 H   0  0  0  0  0  0  0  0  0  0  0  0
  143.7373  133.5574  151.1882 H   0  0  0  0  0  0  0  0  0  0  0  0
  144.7644  132.9095  152.4662 H   0  0  0  0  0  0  0  0  0  0  0  0
  147.1487  132.4302  150.6669 H   0  0  0  0  0  0  0  0  0  0  0  0
  147.8292  134.0362  150.5598 H   0  0  0  0  0  0  0  0  0  0  0  0
  148.5472  132.9808  152.6652 H   0  0  0  0  0  0  0  0  0  0  0  0
  146.8983  132.6579  153.1329 H   0  0  0  0  0  0  0  0  0  0  0  0
  148.0481  135.2924  152.6228 H   0  0  0  0  0  0  0  0  0  0  0  0
  1  2  1  0  0  0  0
  1 24  1  0  0  0  0
  1 25  1  0  0  0  0
  1 26  1  0  0  0  0
  2  3  1  0  0  0  0
  2  4  1  0  0  0  0
  2 27  1  0  0  0  0
  3 28  1  0  0  0  0
  3 29  1  0  0  0  0
  3 30  1  0  0  0  0
  4  5  1  0  0  0  0
  4 17  1  0  0  0  0
  4 31  1  0  0  0  0
  5  6  1  0  0  0  0
  5 32  1  0  0  0  0
  5 33  1  0  0  0  0
  6  7  1  0  0  0  0
  6 34  1  0  0  0  0
  7  8  2  0  0  0  0
  7  9  1  0  0  0  0
  9 10  1  0  0  0  0
  9 35  1  0  0  0  0
 10 15  1  0  0  0  0
 10 11  2  0  0  0  0
 11 12  1  0  0  0  0
 11 36  1  0  0  0  0
 12 13  2  0  0  0  0
 12 37  1  0  0  0  0
 13 14  1  0  0  0  0
 14 15  2  0  0  0  0
 14 38  1  0  0  0  0
 15 16  1  0  0  0  0
 17 23  1  0  0  0  0
 17 18  1  0  0  0  0
 17 50  1  0  0  0  0
 18 19  1  0  0  0  0
 18 39  1  0  0  0  0
 18 40  1  0  0  0  0
 19 20  1  0  0  0  0
 19 41  1  0  0  0  0
 19 42  1  0  0  0  0
 20 21  1  0  0  0  0
 20 22  1  0  0  0  0
 21 43  1  0  0  0  0
 21 44  1  0  0  0  0
 21 45  1  0  0  0  0
 22 23  1  0  0  0  0
 22 46  1  0  0  0  0
 22 47  1  0  0  0  0
 23 48  1  0  0  0  0
 23 49  1  0  0  0  0
M  CHG  1  17   1
M  END
> <s_m_source_file>
AV-unprocessed.smi

> <i_m_source_file_index>
2336

> <i_lp_mmshare_version>
43012

> <i_f3d_flags>
0

> <s_epik_input>
W0NIMl0xW0NIMl1OKFtDSDNdKVtDSDJdW0NIMl1OMVtDQEhdKFtDSF0oW0NIM10pW0NIM10pW0NIMl1bTkhdQyg9TylbTkhdYzJbY0hdW2NIXW5bY0hdYzJG

> <s_epik_cmdline>
J2VwaWtfcHl0aG9uJywgJy1waCcsICc3LjAnLCAnLXRuJywgJzgnLCAnLW1hJywgJzIwMCcsICctbWV0YWxfYmluZGluZycsICctaW1hZScsICc8aW5maWxlLm1hZT4nLCAnLW9tYWUnLCAnPG91dGZpbGUubWFlPic=

> <r_epik_Ionization_Penalty>
0.204575

> <r_epik_Ionization_Penalty_Charging>
0.20006

> <r_epik_Ionization_Penalty_Neutral>
0.00451444

> <r_epik_State_Penalty>
1.43207

> <r_epik_Charging_Adjusted_Penalty>
1.63213

> <i_epik_Tot_Q>
1

> <i_epik_Tot_abs_Q>
1

> <r_epik_Metal_State_Penalty>
1.43277

> <b_epik_Metal_Only>
0

> <s_lp_Force_Field>
OPLS_2005

> <r_lp_Energy>
38.6222

> <b_lp_Chiralities_Consistent>
1

> <s_lp_Variant>
AV-unprocessed.smi:2336-3

> <Gold.Version>
5.8.1

> <Gold.Id.Protein>
6NUR|6NUR_protein|mol2

> <Gold.PLP.Fitness>
42.1474

> <Gold.PLP.PLP>
-37.0586

> <Gold.PLP.part.hbond>
-2.0000

> <Gold.PLP.part.metal>
0.0000

> <Gold.PLP.part.buried>
-5.2140

> <Gold.PLP.part.nonpolar>
-30.8376

> <Gold.PLP.part.repulsive>
0.2097

> <Gold.PLP.ligand.clash>
0.0000

> <Gold.PLP.ligand.torsion>
0.5650

> <Gold.PLP.Chemscore.Hbond>
2.0000

> <Gold.PLP.Chemscore.CHOScore>
0.0000

> <Gold.PLP.Chemscore.Metal>
0.0000

> <Gold.Chemscore.Hbonds>
donor molecule, donor type, donor heavy atom, donor atom, acceptor molecule, acceptor atom, score
      L1  H    17    50       P1  7948  1.76

> <Gold.PLP.Chemscore.Internal.Correction>
0.2186

> <Gold.Rescore>
     Score         DG    S(hbond)    S(metal)    S(lipo)     H(rot)  DE(clash)    DE(int)     intcor
     12.15     -14.35       0.94        0.00      85.66       1.67       0.13       2.07       ----

> <Gold.Chemscore.Fitness>
12.1518

> <Gold.Chemscore.DG>
-14.3452

> <Gold.Chemscore.ZeroCoef>
-5.4800

> <Gold.Chemscore.Hbond>
0.9367

> <Gold.Chemscore.Metal>
0.0000

> <Gold.Chemscore.Lipo>
85.6559

> <Gold.Chemscore.Internal_Hbond>
0.0000

> <Gold.Chemscore.DEClash>
0.1279

> <Gold.Chemscore.DEInternal>
2.0654

> <Gold.Chemscore.Rot>
1.6739

> <Gold.Chemscore.Internal.Correction>
   9.000000E+99

> <Gold.Chemscore.Hbonds>
donor molecule, donor type, donor heavy atom, donor atom, acceptor molecule, acceptor atom, score
      L1  H    17    50       P1  7948  0.85

> <Gold.Chemscore.Hbond.Weighted>
-3.1286

> <Gold.Chemscore.Metal.Weighted>
-0.0000

> <Gold.Chemscore.Lipo.Weighted>
-10.0217

> <Gold.Chemscore.Internal_Hbond.Weighted>
0.0000

> <Gold.Chemscore.DEClash.Weighted>
0.1279

> <Gold.Chemscore.DEInternal.Weighted>
2.0654

> <Gold.Chemscore.Rot.Weighted>
4.2851

> <Gold.Chemscore.Internal.Correction.Weighted>
   9.000000E+99

> <Gold.Protein.RotatedTorsions>
[ 6907 6896 6895 6894 ] final -116.67 input  -60.11 | X-H torsion
[ 7974 7965 7964 7962 ] final  -68.24 input  175.53 | X-H torsion
[ 8008 7997 7996 7995 ] final  145.22 input   59.86 | X-H torsion
[ 10167 10162 10161 10158 ] final  -59.80 input  -65.29 | X-H torsion
[ 10718 10713 10712 10709 ] final  122.19 input   66.30 | X-H torsion
[ 10763 10752 10751 10750 ] final -168.76 input  -60.55 | X-H torsion
[ 11005 11000 10999 10996 ] final   59.76 input  -57.11 | X-H torsion

> <Gold.Protein.ActiveResidues>
 VAL166  LYS551  ARG553  GLY616  TRP617  ASP618  TYR619  PRO620  LYS621  CYS622 
 ASP623  PHE694  ASN695  SER759  ASP760  ASP761  ALA762  ILE779  LEU786  VAL792 
 PHE793  MET794  SER795  GLU796  ALA797  LYS798  CYS799  TRP800  GLU811  SER814 

> <Gold.Protein.RotatedAtoms>
  150.8075  133.8484  159.3198 H   0  0  0  0  0  0  0  0  0  0  0  0  # atno 6907 bound_to 6896
  151.6279  135.1024  160.0125 H   0  0  0  0  0  0  0  0  0  0  0  0  # atno 6908 bound_to 6896
  152.4166  133.7007  159.6479 H   0  0  0  0  0  0  0  0  0  0  0  0  # atno 6909 bound_to 6896
  145.7190  140.9046  143.0640 H   0  0  0  0  0  0  0  0  0  0  0  0  # atno 7974 bound_to 7965
  156.2889  140.2215  156.5180 H   0  0  0  0  0  0  0  0  0  0  0  0  # atno 8008 bound_to 7997
  154.7553  140.0477  157.0949 H   0  0  0  0  0  0  0  0  0  0  0  0  # atno 8009 bound_to 7997
  155.0059  140.3107  155.4852 H   0  0  0  0  0  0  0  0  0  0  0  0  # atno 8010 bound_to 7997
  140.6112  143.2388  151.5704 H   0  0  0  0  0  0  0  0  0  0  0  0  # atno 10167 bound_to 10162
  157.5761  131.1079  150.8276 H   0  0  0  0  0  0  0  0  0  0  0  0  # atno 10718 bound_to 10713
  154.6595  135.2923  154.9884 H   0  0  0  0  0  0  0  0  0  0  0  0  # atno 10763 bound_to 10752
  154.0949  135.6585  153.4862 H   0  0  0  0  0  0  0  0  0  0  0  0  # atno 10764 bound_to 10752
  153.0421  135.5229  154.7540 H   0  0  0  0  0  0  0  0  0  0  0  0  # atno 10765 bound_to 10752
  140.0280  134.6053  155.9545 H   0  0  0  0  0  0  0  0  0  0  0  0  # atno 11005 bound_to 11000
  144.6921  139.9177  143.7466 LP  0  0  0  0  0  0  0  0  0  0  0  0  # atno 17320 bound_to 7965
  146.0643  139.3634  143.0562 LP  0  0  0  0  0  0  0  0  0  0  0  0  # atno 17321 bound_to 7965
  139.5363  144.2772  152.1258 LP  0  0  0  0  0  0  0  0  0  0  0  0  # atno 17342 bound_to 10162
  140.1972  144.4694  150.6449 LP  0  0  0  0  0  0  0  0  0  0  0  0  # atno 17343 bound_to 10162
  156.8734  130.5154  149.5295 LP  0  0  0  0  0  0  0  0  0  0  0  0  # atno 17370 bound_to 10713
  156.0806  130.5817  150.9556 LP  0  0  0  0  0  0  0  0  0  0  0  0  # atno 17371 bound_to 10713
  141.1814  133.6547  156.5037 LP  0  0  0  0  0  0  0  0  0  0  0  0  # atno 17394 bound_to 11000
  140.4273  134.7133  157.4923 LP  0  0  0  0  0  0  0  0  0  0  0  0  # atno 17395 bound_to 11000

$$$$
