AV-unprocessed.smi:3165|AV-procd|sdf|12091|dock2
  -GOLD-   2272017523D 1   1.00000     0.00000
 Structure written by MMmdl.
 37 38  0  0  0  0  0  0  0  0  1 V2000
  147.5866  141.5092  157.3136 C   0  0  0  0  0  0  0  0  0  0  0  0
  149.0385  141.9425  157.5804 C   0  0  2  0  0  0  0  0  0  0  0  0
  149.1447  143.0834  158.6217 C   0  0  0  0  0  0  0  0  0  0  0  0
  150.4928  143.6066  158.7578 N   0  0  0  0  0  0  0  0  0  0  0  0
  150.9381  144.8919  158.5305 C   0  0  0  0  0  0  0  0  0  0  0  0
  152.2776  144.9113  158.7958 C   0  0  0  0  0  0  0  0  0  0  0  0
  152.5634  143.5736  159.1880 C   0  0  0  0  0  0  0  0  0  0  0  0
  151.4933  142.7957  159.1662 N   0  0  0  0  0  0  0  0  0  0  0  0
  149.6684  142.3071  156.3078 N   0  0  0  0  0  0  0  0  0  0  0  0
  149.4115  141.3972  155.1926 C   0  0  0  0  0  0  0  0  0  0  0  0
  150.1565  140.0690  155.3869 C   0  0  1  0  0  0  0  0  0  0  0  0
  149.7681  139.0376  154.3098 C   0  0  0  0  0  0  0  0  0  0  0  0
  150.5895  137.7534  154.4708 C   0  0  0  0  0  0  0  0  0  0  0  0
  152.0827  138.0958  154.4988 C   0  0  0  0  0  0  0  0  0  0  0  0
  152.3619  139.1806  155.5509 C   0  0  0  0  0  0  0  0  0  0  0  0
  151.5566  140.3263  155.2907 O   0  0  0  0  0  0  0  0  0  0  0  0
  147.1128  141.1096  158.2103 H   0  0  0  0  0  0  0  0  0  0  0  0
  147.5446  140.7265  156.5554 H   0  0  0  0  0  0  0  0  0  0  0  0
  146.9823  142.3461  156.9616 H   0  0  0  0  0  0  0  0  0  0  0  0
  149.5573  141.0725  157.9850 H   0  0  0  0  0  0  0  0  0  0  0  0
  148.5013  143.9197  158.3481 H   0  0  0  0  0  0  0  0  0  0  0  0
  148.8027  142.7341  159.5975 H   0  0  0  0  0  0  0  0  0  0  0  0
  150.2715  145.6755  158.2012 H   0  0  0  0  0  0  0  0  0  0  0  0
  152.9506  145.7525  158.7230 H   0  0  0  0  0  0  0  0  0  0  0  0
  153.5096  143.1479  159.4881 H   0  0  0  0  0  0  0  0  0  0  0  0
  149.3847  143.2461  156.0458 H   0  0  0  0  0  0  0  0  0  0  0  0
  148.3436  141.1921  155.1222 H   0  0  0  0  0  0  0  0  0  0  0  0
  149.7085  141.8538  154.2476 H   0  0  0  0  0  0  0  0  0  0  0  0
  149.9224  139.6642  156.3738 H   0  0  0  0  0  0  0  0  0  0  0  0
  148.7039  138.8078  154.3713 H   0  0  0  0  0  0  0  0  0  0  0  0
  149.9398  139.4588  153.3183 H   0  0  0  0  0  0  0  0  0  0  0  0
  150.3094  137.2523  155.3985 H   0  0  0  0  0  0  0  0  0  0  0  0
  150.3725  137.0578  153.6599 H   0  0  0  0  0  0  0  0  0  0  0  0
  152.6713  137.2026  154.7101 H   0  0  0  0  0  0  0  0  0  0  0  0
  152.3953  138.4530  153.5167 H   0  0  0  0  0  0  0  0  0  0  0  0
  152.1680  138.8067  156.5574 H   0  0  0  0  0  0  0  0  0  0  0  0
  153.4112  139.4732  155.5175 H   0  0  0  0  0  0  0  0  0  0  0  0
  1  2  1  0  0  0  0
  1 17  1  0  0  0  0
  1 18  1  0  0  0  0
  1 19  1  0  0  0  0
  2  3  1  0  0  0  0
  2  9  1  0  0  0  0
  2 20  1  0  0  0  0
  3  4  1  0  0  0  0
  3 21  1  0  0  0  0
  3 22  1  0  0  0  0
  4  8  1  0  0  0  0
  4  5  1  0  0  0  0
  5  6  2  0  0  0  0
  5 23  1  0  0  0  0
  6  7  1  0  0  0  0
  6 24  1  0  0  0  0
  7  8  2  0  0  0  0
  7 25  1  0  0  0  0
  9 10  1  0  0  0  0
  9 26  1  0  0  0  0
 10 11  1  0  0  0  0
 10 27  1  0  0  0  0
 10 28  1  0  0  0  0
 11 16  1  0  0  0  0
 11 12  1  0  0  0  0
 11 29  1  0  0  0  0
 12 13  1  0  0  0  0
 12 30  1  0  0  0  0
 12 31  1  0  0  0  0
 13 14  1  0  0  0  0
 13 32  1  0  0  0  0
 13 33  1  0  0  0  0
 14 15  1  0  0  0  0
 14 34  1  0  0  0  0
 14 35  1  0  0  0  0
 15 16  1  0  0  0  0
 15 36  1  0  0  0  0
 15 37  1  0  0  0  0
M  END
> <s_m_source_file>
AV-unprocessed.smi

> <i_m_source_file_index>
3165

> <i_lp_mmshare_version>
43012

> <i_f3d_flags>
0

> <s_epik_input>
bjFbY0hdW2NIXVtjSF1uMVtDSDJdW0NAQEhdKFtDSDNdKVtOSF1bQ0gyXVtDQEBIXTJbQ0gyXVtDSDJdW0NIMl1bQ0gyXU8y

> <s_epik_cmdline>
J2VwaWtfcHl0aG9uJywgJy1waCcsICc3LjAnLCAnLXRuJywgJzgnLCAnLW1hJywgJzIwMCcsICctbWV0YWxfYmluZGluZycsICctaW1hZScsICc8aW5maWxlLm1hZT4nLCAnLW9tYWUnLCAnPG91dGZpbGUubWFlPic=

> <r_lp_tautomer_probability>
1

> <r_epik_Ionization_Penalty>
2.51982

> <r_epik_Ionization_Penalty_Charging>
0

> <r_epik_Ionization_Penalty_Neutral>
2.51982

> <r_epik_State_Penalty>
2.68614

> <r_epik_Charging_Adjusted_Penalty>
2.68614

> <i_epik_Tot_Q>
0

> <i_epik_Tot_abs_Q>
0

> <r_epik_Metal_State_Penalty>
2.6861

> <b_epik_Metal_Only>
0

> <s_lp_Force_Field>
OPLS_2005

> <r_lp_Energy>
13.227

> <b_lp_Chiralities_Consistent>
1

> <s_lp_Variant>
AV-unprocessed.smi:3165-7

> <Gold.Version>
5.8.1

> <Gold.Id.Protein>
6NUR|6NUR_protein|mol2

> <Gold.PLP.Fitness>
45.5475

> <Gold.PLP.PLP>
-37.1478

> <Gold.PLP.part.hbond>
-2.0000

> <Gold.PLP.part.metal>
0.0000

> <Gold.PLP.part.buried>
-5.1762

> <Gold.PLP.part.nonpolar>
-31.6936

> <Gold.PLP.part.repulsive>
0.0372

> <Gold.PLP.ligand.clash>
0.0000

> <Gold.PLP.ligand.torsion>
0.1863

> <Gold.PLP.Chemscore.Hbond>
1.8960

> <Gold.PLP.Chemscore.CHOScore>
0.9981

> <Gold.PLP.Chemscore.Metal>
0.0000

> <Gold.Chemscore.Hbonds>
donor molecule, donor type, donor heavy atom, donor atom, acceptor molecule, acceptor atom, score
      L1  H     9    26       P1  8028  1.00
      P1  H  7989  7998       L1    16  0.91
      L1  C     5    23       P1  8029  0.98

> <Gold.PLP.Chemscore.Internal.Correction>
0.0901

> <Gold.Rescore>
     Score         DG    S(hbond)    S(metal)    S(lipo)     H(rot)  DE(clash)    DE(int)     intcor
     18.26     -18.62       1.94        0.00      91.51       1.57       0.01       0.36       ----

> <Gold.Chemscore.Fitness>
18.2557

> <Gold.Chemscore.DG>
-18.6240

> <Gold.Chemscore.ZeroCoef>
-5.4800

> <Gold.Chemscore.Hbond>
1.9355

> <Gold.Chemscore.Metal>
0.0000

> <Gold.Chemscore.Lipo>
91.5115

> <Gold.Chemscore.Internal_Hbond>
0.0000

> <Gold.Chemscore.DEClash>
0.0122

> <Gold.Chemscore.DEInternal>
0.3561

> <Gold.Chemscore.Rot>
1.5731

> <Gold.Chemscore.Internal.Correction>
   9.000000E+99

> <Gold.Chemscore.Hbonds>
donor molecule, donor type, donor heavy atom, donor atom, acceptor molecule, acceptor atom, score
      L1  H     9    26       P1  8028  0.99
      P1  H  7989  7998       L1    16  0.19

> <Gold.Chemscore.Hbond.Weighted>
-6.4644

> <Gold.Chemscore.Metal.Weighted>
-0.0000

> <Gold.Chemscore.Lipo.Weighted>
-10.7068

> <Gold.Chemscore.Internal_Hbond.Weighted>
0.0000

> <Gold.Chemscore.DEClash.Weighted>
0.0122

> <Gold.Chemscore.DEInternal.Weighted>
0.3561

> <Gold.Chemscore.Rot.Weighted>
4.0273

> <Gold.Chemscore.Internal.Correction.Weighted>
   9.000000E+99

> <Gold.Protein.RotatedTorsions>
[ 6907 6896 6895 6894 ] final  168.22 input  -60.11 | X-H torsion
[ 7974 7965 7964 7962 ] final  -89.44 input  175.53 | X-H torsion
[ 8008 7997 7996 7995 ] final -172.09 input   59.86 | X-H torsion
[ 10167 10162 10161 10158 ] final  -81.93 input  -65.29 | X-H torsion
[ 10718 10713 10712 10709 ] final  -52.33 input   66.30 | X-H torsion
[ 10763 10752 10751 10750 ] final  158.09 input  -60.55 | X-H torsion
[ 11005 11000 10999 10996 ] final -136.31 input  -57.11 | X-H torsion

> <Gold.Protein.ActiveResidues>
 VAL166  LYS551  ARG553  GLY616  TRP617  ASP618  TYR619  PRO620  LYS621  CYS622 
 ASP623  PHE694  ASN695  SER759  ASP760  ASP761  ALA762  ILE779  LEU786  VAL792 
 PHE793  MET794  SER795  GLU796  ALA797  LYS798  CYS799  TRP800  GLU811  SER814 

> <Gold.Protein.RotatedAtoms>
  151.8511  133.3440  159.3673 H   0  0  0  0  0  0  0  0  0  0  0  0  # atno 6907 bound_to 6896
  150.7206  134.5298  159.5704 H   0  0  0  0  0  0  0  0  0  0  0  0  # atno 6908 bound_to 6896
  152.2792  134.7848  160.0451 H   0  0  0  0  0  0  0  0  0  0  0  0  # atno 6909 bound_to 6896
  145.4398  140.9558  143.2081 H   0  0  0  0  0  0  0  0  0  0  0  0  # atno 7974 bound_to 7965
  155.9401  140.1107  157.1062 H   0  0  0  0  0  0  0  0  0  0  0  0  # atno 8008 bound_to 7997
  154.4087  140.1220  156.4982 H   0  0  0  0  0  0  0  0  0  0  0  0  # atno 8009 bound_to 7997
  155.6972  140.3472  155.4920 H   0  0  0  0  0  0  0  0  0  0  0  0  # atno 8010 bound_to 7997
  140.4367  143.2529  151.8684 H   0  0  0  0  0  0  0  0  0  0  0  0  # atno 10167 bound_to 10162
  156.1631  130.4149  149.9762 H   0  0  0  0  0  0  0  0  0  0  0  0  # atno 10718 bound_to 10713
  154.2106  135.2786  155.2959 H   0  0  0  0  0  0  0  0  0  0  0  0  # atno 10763 bound_to 10752
  154.5781  135.5598  153.7162 H   0  0  0  0  0  0  0  0  0  0  0  0  # atno 10764 bound_to 10752
  153.0065  135.6338  154.2245 H   0  0  0  0  0  0  0  0  0  0  0  0  # atno 10765 bound_to 10752
  140.8817  134.1923  157.4586 H   0  0  0  0  0  0  0  0  0  0  0  0  # atno 11005 bound_to 11000
  144.8129  139.5930  143.7021 LP  0  0  0  0  0  0  0  0  0  0  0  0  # atno 17320 bound_to 7965
  146.2562  139.6308  142.9393 LP  0  0  0  0  0  0  0  0  0  0  0  0  # atno 17321 bound_to 7965
  139.4787  144.5275  151.8714 LP  0  0  0  0  0  0  0  0  0  0  0  0  # atno 17342 bound_to 10162
  140.4365  144.2044  150.5889 LP  0  0  0  0  0  0  0  0  0  0  0  0  # atno 17343 bound_to 10162
  156.7585  130.9142  151.3640 LP  0  0  0  0  0  0  0  0  0  0  0  0  # atno 17370 bound_to 10713
  157.6748  130.9084  150.0124 LP  0  0  0  0  0  0  0  0  0  0  0  0  # atno 17371 bound_to 10713
  139.8720  134.9820  156.5139 LP  0  0  0  0  0  0  0  0  0  0  0  0  # atno 17394 bound_to 11000
  140.8453  133.8173  155.9115 LP  0  0  0  0  0  0  0  0  0  0  0  0  # atno 17395 bound_to 11000

$$$$
