AV-unprocessed.smi:561|AV-procd|sdf|2940|dock6
  -GOLD-   2262023433D 1   1.00000     0.00000
 Structure written by MMmdl.
 36 37  0  0  0  0  0  0  0  0  3 V2000
  149.9311  141.8670  158.0993 C   0  0  0  0  0  0  0  0  0  0  0  0
  151.2842  141.9774  157.3834 C   0  0  2  0  0  0  0  0  0  0  0  0
  151.7711  143.4485  157.3296 C   0  0  0  0  0  0  0  0  0  0  0  0
  151.7822  144.1359  158.6341 N   0  0  0  0  0  0  0  0  0  0  0  0
  152.5286  143.8055  159.7385 C   0  0  0  0  0  0  0  0  0  0  0  0
  152.2138  144.7163  160.7132 C   0  0  0  0  0  0  0  0  0  0  0  0
  151.2987  145.5727  160.1625 N   0  3  0  0  0  0  0  0  0  0  0  0
  151.0428  145.2241  158.8976 C   0  0  0  0  0  0  0  0  0  0  0  0
  151.1424  141.4383  156.0262 N   0  5  0  0  0  0  0  0  0  0  0  0
  151.4497  140.1621  155.6400 C   0  0  0  0  0  0  0  0  0  0  0  0
  151.4060  139.7216  154.4847 O   0  0  0  0  0  0  0  0  0  0  0  0
  151.8578  139.1739  156.6823 C   0  0  0  0  0  0  0  0  0  0  0  0
  152.6752  139.5346  157.6221 N   0  0  0  0  0  0  0  0  0  0  0  0
  153.0734  138.6732  158.6234 N   0  0  0  0  0  0  0  0  0  0  0  0
  153.7805  139.3096  159.7328 C   0  0  0  0  0  0  0  0  0  0  0  0
  152.8827  137.3310  158.6068 C   0  0  0  0  0  0  0  0  0  0  0  0
  153.2324  136.5783  159.5161 O   0  0  0  0  0  0  0  0  0  0  0  0
  152.2213  136.7517  157.3537 C   0  0  0  0  0  0  0  0  0  0  0  0
  151.2889  137.7658  156.6623 C   0  0  0  0  0  0  0  0  0  0  0  0
  149.9970  142.2441  159.1199 H   0  0  0  0  0  0  0  0  0  0  0  0
  149.5979  140.8300  158.1553 H   0  0  0  0  0  0  0  0  0  0  0  0
  149.1583  142.4387  157.5838 H   0  0  0  0  0  0  0  0  0  0  0  0
  152.0046  141.4080  157.9730 H   0  0  0  0  0  0  0  0  0  0  0  0
  152.7789  143.5047  156.9147 H   0  0  0  0  0  0  0  0  0  0  0  0
  151.1310  144.0295  156.6643 H   0  0  0  0  0  0  0  0  0  0  0  0
  153.1989  142.9581  159.7482 H   0  0  0  0  0  0  0  0  0  0  0  0
  152.5626  144.8154  161.7306 H   0  0  0  0  0  0  0  0  0  0  0  0
  150.3618  145.7138  158.2246 H   0  0  0  0  0  0  0  0  0  0  0  0
  154.8053  138.9411  159.7937 H   0  0  0  0  0  0  0  0  0  0  0  0
  153.2832  139.0981  160.6806 H   0  0  0  0  0  0  0  0  0  0  0  0
  153.8256  140.3940  159.6208 H   0  0  0  0  0  0  0  0  0  0  0  0
  153.0187  136.4618  156.6685 H   0  0  0  0  0  0  0  0  0  0  0  0
  151.6747  135.8415  157.6030 H   0  0  0  0  0  0  0  0  0  0  0  0
  150.3121  137.7661  157.1474 H   0  0  0  0  0  0  0  0  0  0  0  0
  151.1249  137.4285  155.6384 H   0  0  0  0  0  0  0  0  0  0  0  0
  150.8715  146.3551  160.6418 H   0  0  0  0  0  0  0  0  0  0  0  0
  1  2  1  0  0  0  0
  1 20  1  0  0  0  0
  1 21  1  0  0  0  0
  1 22  1  0  0  0  0
  2  3  1  0  0  0  0
  2  9  1  0  0  0  0
  2 23  1  0  0  0  0
  3  4  1  0  0  0  0
  3 24  1  0  0  0  0
  3 25  1  0  0  0  0
  4  8  1  0  0  0  0
  4  5  1  0  0  0  0
  5  6  2  0  0  0  0
  5 26  1  0  0  0  0
  6  7  1  0  0  0  0
  6 27  1  0  0  0  0
  7  8  2  0  0  0  0
  7 36  1  0  0  0  0
  8 28  1  0  0  0  0
  9 10  1  0  0  0  0
 10 11  2  0  0  0  0
 10 12  1  0  0  0  0
 12 19  1  0  0  0  0
 12 13  2  0  0  0  0
 13 14  1  0  0  0  0
 14 15  1  0  0  0  0
 14 16  1  0  0  0  0
 15 29  1  0  0  0  0
 15 30  1  0  0  0  0
 15 31  1  0  0  0  0
 16 17  2  0  0  0  0
 16 18  1  0  0  0  0
 18 19  1  0  0  0  0
 18 32  1  0  0  0  0
 18 33  1  0  0  0  0
 19 34  1  0  0  0  0
 19 35  1  0  0  0  0
M  CHG  1   7   1
M  CHG  1   9  -1
M  END
> <s_m_source_file>
AV-unprocessed.smi

> <i_m_source_file_index>
561

> <i_lp_mmshare_version>
43012

> <i_f3d_flags>
0

> <s_epik_input>
W2NIXTFuW2NIXVtjSF1uMVtDSDJdW0NAQEhdKFtDSDNdKVtOSF1DKD1PKUMyPU5OKFtDSDNdKUMoPU8pW0NIMl1bQ0gyXTI=

> <s_epik_cmdline>
J2VwaWtfcHl0aG9uJywgJy1waCcsICc3LjAnLCAnLXRuJywgJzgnLCAnLW1hJywgJzIwMCcsICctbWV0YWxfYmluZGluZycsICctaW1hZScsICc8aW5maWxlLm1hZT4nLCAnLW9tYWUnLCAnPG91dGZpbGUubWFlPic=

> <r_lp_tautomer_probability>
1

> <r_epik_Ionization_Penalty>
5.37239

> <r_epik_Ionization_Penalty_Charging>
5.18263

> <r_epik_Ionization_Penalty_Neutral>
0.189756

> <r_epik_State_Penalty>
5.53772

> <r_epik_Charging_Adjusted_Penalty>
10.7204

> <i_epik_Tot_Q>
0

> <i_epik_Tot_abs_Q>
2

> <r_epik_Metal_State_Penalty>
1.80836

> <b_epik_Metal_Only>
1

> <s_epik_Chemistry_Notes>
This compound has an imine and may undergo hydrolysis.

> <s_lp_Force_Field>
OPLS_2005

> <r_lp_Energy>
20.2917

> <b_lp_Chiralities_Consistent>
1

> <s_lp_Variant>
AV-unprocessed.smi:561-5

> <Gold.Version>
5.8.1

> <Gold.Id.Protein>
6NUR|6NUR_protein|mol2

> <Gold.PLP.Fitness>
43.7901

> <Gold.PLP.PLP>
-33.9629

> <Gold.PLP.part.hbond>
-3.6110

> <Gold.PLP.part.metal>
0.0000

> <Gold.PLP.part.buried>
-5.9932

> <Gold.PLP.part.nonpolar>
-25.4808

> <Gold.PLP.part.repulsive>
0.3327

> <Gold.PLP.ligand.clash>
0.0000

> <Gold.PLP.ligand.torsion>
1.0687

> <Gold.PLP.Chemscore.Hbond>
2.9750

> <Gold.PLP.Chemscore.CHOScore>
1.0000

> <Gold.PLP.Chemscore.Metal>
0.0000

> <Gold.Chemscore.Hbonds>
donor molecule, donor type, donor heavy atom, donor atom, acceptor molecule, acceptor atom, score
      P1  H  6896  6909       L1    17  1.00
      P1  H  7989  7998       L1    11  0.99
      P1  H  7997  8008       L1    13  1.00
      L1  C     8    28       P1  8029  0.76

> <Gold.PLP.Chemscore.Internal.Correction>
0.0395

> <Gold.Rescore>
     Score         DG    S(hbond)    S(metal)    S(lipo)     H(rot)  DE(clash)    DE(int)     intcor
     13.43     -16.13       2.21        0.00      65.66       1.73       0.12       2.58       ----

> <Gold.Chemscore.Fitness>
13.4308

> <Gold.Chemscore.DG>
-16.1290

> <Gold.Chemscore.ZeroCoef>
-5.4800

> <Gold.Chemscore.Hbond>
2.2143

> <Gold.Chemscore.Metal>
0.0000

> <Gold.Chemscore.Lipo>
65.6560

> <Gold.Chemscore.Internal_Hbond>
0.0000

> <Gold.Chemscore.DEClash>
0.1173

> <Gold.Chemscore.DEInternal>
2.5810

> <Gold.Chemscore.Rot>
1.7299

> <Gold.Chemscore.Internal.Correction>
   9.000000E+99

> <Gold.Chemscore.Hbonds>
donor molecule, donor type, donor heavy atom, donor atom, acceptor molecule, acceptor atom, score
      P1  H  6896  6909       L1    17  0.95
      P1  H  7989  7998       L1    11  0.69
      P1  H  7997  8008       L1    13  0.21

> <Gold.Chemscore.Hbond.Weighted>
-7.3959

> <Gold.Chemscore.Metal.Weighted>
-0.0000

> <Gold.Chemscore.Lipo.Weighted>
-7.6818

> <Gold.Chemscore.Internal_Hbond.Weighted>
0.0000

> <Gold.Chemscore.DEClash.Weighted>
0.1173

> <Gold.Chemscore.DEInternal.Weighted>
2.5810

> <Gold.Chemscore.Rot.Weighted>
4.4286

> <Gold.Chemscore.Internal.Correction.Weighted>
   9.000000E+99

> <Gold.Protein.RotatedTorsions>
[ 6907 6896 6895 6894 ] final  160.68 input  -60.11 | X-H torsion
[ 7974 7965 7964 7962 ] final  -42.37 input  175.53 | X-H torsion
[ 8008 7997 7996 7995 ] final  -72.45 input   59.86 | X-H torsion
[ 10167 10162 10161 10158 ] final  -19.95 input  -65.29 | X-H torsion
[ 10718 10713 10712 10709 ] final  106.97 input   66.30 | X-H torsion
[ 10763 10752 10751 10750 ] final  -51.34 input  -60.55 | X-H torsion
[ 11005 11000 10999 10996 ] final   56.54 input  -57.11 | X-H torsion

> <Gold.Protein.ActiveResidues>
 VAL166  LYS551  ARG553  GLY616  TRP617  ASP618  TYR619  PRO620  LYS621  CYS622 
 ASP623  PHE694  ASN695  SER759  ASP760  ASP761  ALA762  ILE779  LEU786  VAL792 
 PHE793  MET794  SER795  GLU796  ALA797  LYS798  CYS799  TRP800  GLU811  SER814 

> <Gold.Protein.RotatedAtoms>
  151.9670  133.3713  159.4056 H   0  0  0  0  0  0  0  0  0  0  0  0  # atno 6907 bound_to 6896
  150.6955  134.4181  159.5201 H   0  0  0  0  0  0  0  0  0  0  0  0  # atno 6908 bound_to 6896
  152.1878  134.8698  160.0571 H   0  0  0  0  0  0  0  0  0  0  0  0  # atno 6909 bound_to 6896
  146.0122  140.6951  142.9219 H   0  0  0  0  0  0  0  0  0  0  0  0  # atno 7974 bound_to 7965
  154.5167  140.0797  156.8095 H   0  0  0  0  0  0  0  0  0  0  0  0  # atno 8008 bound_to 7997
  155.3664  140.3420  155.4224 H   0  0  0  0  0  0  0  0  0  0  0  0  # atno 8009 bound_to 7997
  156.1636  140.1596  156.8557 H   0  0  0  0  0  0  0  0  0  0  0  0  # atno 8010 bound_to 7997
  140.7272  143.4769  151.0170 H   0  0  0  0  0  0  0  0  0  0  0  0  # atno 10167 bound_to 10162
  157.6647  131.0862  150.6087 H   0  0  0  0  0  0  0  0  0  0  0  0  # atno 10718 bound_to 10713
  154.1249  135.6529  153.4910 H   0  0  0  0  0  0  0  0  0  0  0  0  # atno 10763 bound_to 10752
  153.0213  135.5279  154.7059 H   0  0  0  0  0  0  0  0  0  0  0  0  # atno 10764 bound_to 10752
  154.6277  135.2972  155.0223 H   0  0  0  0  0  0  0  0  0  0  0  0  # atno 10765 bound_to 10752
  140.0521  134.5722  155.9251 H   0  0  0  0  0  0  0  0  0  0  0  0  # atno 11005 bound_to 11000
  144.6957  140.3418  143.7198 LP  0  0  0  0  0  0  0  0  0  0  0  0  # atno 17320 bound_to 7965
  145.7324  139.1740  143.2422 LP  0  0  0  0  0  0  0  0  0  0  0  0  # atno 17321 bound_to 7965
  139.8465  143.7495  152.3179 LP  0  0  0  0  0  0  0  0  0  0  0  0  # atno 17342 bound_to 10162
  139.7662  144.7491  151.0291 LP  0  0  0  0  0  0  0  0  0  0  0  0  # atno 17343 bound_to 10162
  156.6388  130.4452  149.5760 LP  0  0  0  0  0  0  0  0  0  0  0  0  # atno 17370 bound_to 10713
  156.2225  130.6746  151.1382 LP  0  0  0  0  0  0  0  0  0  0  0  0  # atno 17371 bound_to 10713
  141.1935  133.6579  156.5551 LP  0  0  0  0  0  0  0  0  0  0  0  0  # atno 17394 bound_to 11000
  140.3901  134.7447  157.4716 LP  0  0  0  0  0  0  0  0  0  0  0  0  # atno 17395 bound_to 11000

$$$$
