AV-unprocessed.smi:3226|AV-procd|sdf|12313|dock8
  -GOLD-   2272018163D 1   1.00000     0.00000
 Structure written by MMmdl.
 41 43  0  0  0  0  0  0  0  0  2 V2000
  145.4546  143.0524  154.6681 C   0  0  0  0  0  0  0  0  0  0  0  0
  145.5429  141.7961  155.5417 C   0  0  0  0  0  0  0  0  0  0  0  0
  146.2501  140.6678  154.8564 C   0  0  0  0  0  0  0  0  0  0  0  0
  145.6866  139.4741  154.6354 N   0  0  0  0  0  0  0  0  0  0  0  0
  146.6363  138.7314  153.9634 N   0  0  0  0  0  0  0  0  0  0  0  0
  147.6759  139.5538  153.8364 C   0  0  0  0  0  0  0  0  0  0  0  0
  147.5062  140.7726  154.3726 N   0  0  0  0  0  0  0  0  0  0  0  0
  148.4430  141.8834  154.4008 C   0  0  0  0  0  0  0  0  0  0  0  0
  149.7538  141.5219  155.1182 C   0  0  0  0  0  0  0  0  0  0  0  0
  149.8645  142.2019  156.4243 N   0  3  0  0  0  0  0  0  0  0  0  0
  151.2474  142.3272  156.9242 C   0  0  0  0  0  0  0  0  0  0  0  0
  151.2686  142.8317  158.3789 C   0  0  2  0  0  0  0  0  0  0  0  0
  150.4569  144.1487  158.5844 C   0  0  0  0  0  0  0  0  0  0  0  0
  151.4847  145.0994  159.2407 C   0  0  1  0  0  0  0  0  0  0  0  0
  151.8488  144.5370  160.5985 C   0  0  0  0  0  0  0  0  0  0  0  0
  152.5668  143.4317  160.3902 C   0  0  0  0  0  0  0  0  0  0  0  0
  152.6761  143.2414  158.8914 C   0  0  2  0  0  0  0  0  0  0  0  0
  152.7349  144.7093  158.4478 C   0  0  0  0  0  0  0  0  0  0  0  0
  144.9302  143.8530  155.1900 H   0  0  0  0  0  0  0  0  0  0  0  0
  144.9162  142.8502  153.7417 H   0  0  0  0  0  0  0  0  0  0  0  0
  146.4467  143.4203  154.4047 H   0  0  0  0  0  0  0  0  0  0  0  0
  146.0415  142.0280  156.4825 H   0  0  0  0  0  0  0  0  0  0  0  0
  144.5378  141.4653  155.8057 H   0  0  0  0  0  0  0  0  0  0  0  0
  148.5887  139.2567  153.3411 H   0  0  0  0  0  0  0  0  0  0  0  0
  148.6428  142.2001  153.3762 H   0  0  0  0  0  0  0  0  0  0  0  0
  147.9647  142.7288  154.8959 H   0  0  0  0  0  0  0  0  0  0  0  0
  149.7937  140.4440  155.2797 H   0  0  0  0  0  0  0  0  0  0  0  0
  150.6118  141.7820  154.4971 H   0  0  0  0  0  0  0  0  0  0  0  0
  149.4715  143.1284  156.3390 H   0  0  0  0  0  0  0  0  0  0  0  0
  151.7559  141.3668  156.8359 H   0  0  0  0  0  0  0  0  0  0  0  0
  151.7840  143.0307  156.2863 H   0  0  0  0  0  0  0  0  0  0  0  0
  150.8571  142.0481  159.0185 H   0  0  0  0  0  0  0  0  0  0  0  0
  150.1128  144.5584  157.6336 H   0  0  0  0  0  0  0  0  0  0  0  0
  149.5795  143.9975  159.2147 H   0  0  0  0  0  0  0  0  0  0  0  0
  151.2367  146.1612  159.2341 H   0  0  0  0  0  0  0  0  0  0  0  0
  151.5426  144.9598  161.5439 H   0  0  0  0  0  0  0  0  0  0  0  0
  152.9710  142.7565  161.1301 H   0  0  0  0  0  0  0  0  0  0  0  0
  153.5153  142.6209  158.5762 H   0  0  0  0  0  0  0  0  0  0  0  0
  152.6403  144.8608  157.3714 H   0  0  0  0  0  0  0  0  0  0  0  0
  153.6347  145.2225  158.7935 H   0  0  0  0  0  0  0  0  0  0  0  0
  149.3255  141.6833  157.1030 H   0  0  0  0  0  0  0  0  0  0  0  0
  1  2  1  0  0  0  0
  1 19  1  0  0  0  0
  1 20  1  0  0  0  0
  1 21  1  0  0  0  0
  2  3  1  0  0  0  0
  2 22  1  0  0  0  0
  2 23  1  0  0  0  0
  3  7  1  0  0  0  0
  3  4  2  0  0  0  0
  4  5  1  0  0  0  0
  5  6  2  0  0  0  0
  6  7  1  0  0  0  0
  6 24  1  0  0  0  0
  7  8  1  0  0  0  0
  8  9  1  0  0  0  0
  8 25  1  0  0  0  0
  8 26  1  0  0  0  0
  9 10  1  0  0  0  0
  9 27  1  0  0  0  0
  9 28  1  0  0  0  0
 10 11  1  0  0  0  0
 10 29  1  0  0  0  0
 10 41  1  0  0  0  0
 11 12  1  0  0  0  0
 11 30  1  0  0  0  0
 11 31  1  0  0  0  0
 12 17  1  0  0  0  0
 12 13  1  0  0  0  0
 12 32  1  0  0  0  0
 13 14  1  0  0  0  0
 13 33  1  0  0  0  0
 13 34  1  0  0  0  0
 14 18  1  0  0  0  0
 14 15  1  0  0  0  0
 14 35  1  0  0  0  0
 15 16  2  0  0  0  0
 15 36  1  0  0  0  0
 16 17  1  0  0  0  0
 16 37  1  0  0  0  0
 17 18  1  0  0  0  0
 17 38  1  0  0  0  0
 18 39  1  0  0  0  0
 18 40  1  0  0  0  0
M  CHG  1  10   1
M  END
> <s_m_source_file>
AV-unprocessed.smi

> <i_m_source_file_index>
3226

> <i_lp_mmshare_version>
43012

> <i_f3d_flags>
0

> <s_epik_input>
W0NIM11bQ0gyXWMxbm5bY0hdbjFbQ0gyXVtDSDJdW05IXVtDSDJdW0NASF0oW0NIMl1bQ0BASF0yMylbQ0BASF0oW0NIMl0zKVtDSF09W0NIXTI=

> <s_epik_cmdline>
J2VwaWtfcHl0aG9uJywgJy1waCcsICc3LjAnLCAnLXRuJywgJzgnLCAnLW1hJywgJzIwMCcsICctbWV0YWxfYmluZGluZycsICctaW1hZScsICc8aW5maWxlLm1hZT4nLCAnLW9tYWUnLCAnPG91dGZpbGUubWFlPic=

> <r_lp_tautomer_probability>
1

> <r_epik_Ionization_Penalty>
0.00175008

> <r_epik_Ionization_Penalty_Charging>
0.00173932

> <r_epik_Ionization_Penalty_Neutral>
1.07546e-05

> <r_epik_State_Penalty>
-0

> <r_epik_Charging_Adjusted_Penalty>
0.00173932

> <i_epik_Tot_Q>
1

> <i_epik_Tot_abs_Q>
1

> <r_epik_Metal_State_Penalty>
-0

> <b_epik_Metal_Only>
0

> <s_lp_Force_Field>
OPLS_2005

> <r_lp_Energy>
64.8147

> <b_lp_Chiralities_Consistent>
1

> <s_lp_Variant>
AV-unprocessed.smi:3226-1

> <Gold.Version>
5.8.1

> <Gold.Id.Protein>
6NUR|6NUR_protein|mol2

> <Gold.PLP.Fitness>
48.4544

> <Gold.PLP.PLP>
-40.4703

> <Gold.PLP.part.hbond>
-1.0000

> <Gold.PLP.part.metal>
0.0000

> <Gold.PLP.part.buried>
-3.7042

> <Gold.PLP.part.nonpolar>
-36.1617

> <Gold.PLP.part.repulsive>
0.4166

> <Gold.PLP.ligand.clash>
0.0000

> <Gold.PLP.ligand.torsion>
0.5240

> <Gold.PLP.Chemscore.Hbond>
2.0000

> <Gold.PLP.Chemscore.CHOScore>
1.0000

> <Gold.PLP.Chemscore.Metal>
0.0000

> <Gold.Chemscore.Hbonds>
donor molecule, donor type, donor heavy atom, donor atom, acceptor molecule, acceptor atom, score
      L1  H    10    29       P1  8028  2.00
      L1  C     6    24       P1  7957  1.00

> <Gold.PLP.Chemscore.Internal.Correction>
0.0321

> <Gold.Rescore>
     Score         DG    S(hbond)    S(metal)    S(lipo)     H(rot)  DE(clash)    DE(int)     intcor
     16.84     -17.36       1.00        0.00     118.15       2.06       0.03       0.49       ----

> <Gold.Chemscore.Fitness>
16.8351

> <Gold.Chemscore.DG>
-17.3620

> <Gold.Chemscore.ZeroCoef>
-5.4800

> <Gold.Chemscore.Hbond>
0.9994

> <Gold.Chemscore.Metal>
0.0000

> <Gold.Chemscore.Lipo>
118.1495

> <Gold.Chemscore.Internal_Hbond>
0.0000

> <Gold.Chemscore.DEClash>
0.0332

> <Gold.Chemscore.DEInternal>
0.4938

> <Gold.Chemscore.Rot>
2.0623

> <Gold.Chemscore.Internal.Correction>
   9.000000E+99

> <Gold.Chemscore.Hbonds>
donor molecule, donor type, donor heavy atom, donor atom, acceptor molecule, acceptor atom, score
      L1  H    10    29       P1  8028  1.00

> <Gold.Chemscore.Hbond.Weighted>
-3.3381

> <Gold.Chemscore.Metal.Weighted>
-0.0000

> <Gold.Chemscore.Lipo.Weighted>
-13.8235

> <Gold.Chemscore.Internal_Hbond.Weighted>
0.0000

> <Gold.Chemscore.DEClash.Weighted>
0.0332

> <Gold.Chemscore.DEInternal.Weighted>
0.4938

> <Gold.Chemscore.Rot.Weighted>
5.2796

> <Gold.Chemscore.Internal.Correction.Weighted>
   9.000000E+99

> <Gold.Protein.RotatedTorsions>
[ 6907 6896 6895 6894 ] final  -46.78 input  -60.11 | X-H torsion
[ 7974 7965 7964 7962 ] final  142.59 input  175.53 | X-H torsion
[ 8008 7997 7996 7995 ] final   42.03 input   59.86 | X-H torsion
[ 10167 10162 10161 10158 ] final -103.10 input  -65.29 | X-H torsion
[ 10718 10713 10712 10709 ] final   60.60 input   66.30 | X-H torsion
[ 10763 10752 10751 10750 ] final  -35.11 input  -60.55 | X-H torsion
[ 11005 11000 10999 10996 ] final   90.35 input  -57.11 | X-H torsion

> <Gold.Protein.ActiveResidues>
 VAL166  LYS551  ARG553  GLY616  TRP617  ASP618  TYR619  PRO620  LYS621  CYS622 
 ASP623  PHE694  ASN695  SER759  ASP760  ASP761  ALA762  ILE779  LEU786  VAL792 
 PHE793  MET794  SER795  GLU796  ALA797  LYS798  CYS799  TRP800  GLU811  SER814 

> <Gold.Protein.RotatedAtoms>
  150.9077  134.8492  159.7403 H   0  0  0  0  0  0  0  0  0  0  0  0  # atno 6907 bound_to 6896
  152.4927  134.4407  159.9552 H   0  0  0  0  0  0  0  0  0  0  0  0  # atno 6908 bound_to 6896
  151.4452  133.3593  159.2822 H   0  0  0  0  0  0  0  0  0  0  0  0  # atno 6909 bound_to 6896
  144.8994  139.5444  143.5760 H   0  0  0  0  0  0  0  0  0  0  0  0  # atno 7974 bound_to 7965
  155.2795  140.3371  155.4259 H   0  0  0  0  0  0  0  0  0  0  0  0  # atno 8008 bound_to 7997
  156.2096  140.1765  156.7764 H   0  0  0  0  0  0  0  0  0  0  0  0  # atno 8009 bound_to 7997
  154.5668  140.0677  156.8889 H   0  0  0  0  0  0  0  0  0  0  0  0  # atno 8010 bound_to 7997
  140.2236  143.3657  152.0948 H   0  0  0  0  0  0  0  0  0  0  0  0  # atno 10167 bound_to 10162
  157.5765  130.8948  149.9356 H   0  0  0  0  0  0  0  0  0  0  0  0  # atno 10718 bound_to 10713
  153.8578  135.6843  153.4786 H   0  0  0  0  0  0  0  0  0  0  0  0  # atno 10763 bound_to 10752
  153.1359  135.4678  154.9419 H   0  0  0  0  0  0  0  0  0  0  0  0  # atno 10764 bound_to 10752
  154.7772  135.3257  154.8015 H   0  0  0  0  0  0  0  0  0  0  0  0  # atno 10765 bound_to 10752
  139.8858  134.8608  156.3272 H   0  0  0  0  0  0  0  0  0  0  0  0  # atno 11005 bound_to 11000
  146.3100  139.7712  142.9027 LP  0  0  0  0  0  0  0  0  0  0  0  0  # atno 17320 bound_to 7965
  145.3642  141.0331  143.3267 LP  0  0  0  0  0  0  0  0  0  0  0  0  # atno 17321 bound_to 7965
  139.5135  144.6933  151.5699 LP  0  0  0  0  0  0  0  0  0  0  0  0  # atno 17342 bound_to 10162
  140.6237  143.9210  150.6547 LP  0  0  0  0  0  0  0  0  0  0  0  0  # atno 17343 bound_to 10162
  156.0810  130.3673  150.0581 LP  0  0  0  0  0  0  0  0  0  0  0  0  # atno 17370 bound_to 10713
  156.8726  130.9529  151.3607 LP  0  0  0  0  0  0  0  0  0  0  0  0  # atno 17371 bound_to 10713
  140.9747  133.7305  156.0585 LP  0  0  0  0  0  0  0  0  0  0  0  0  # atno 17394 bound_to 11000
  140.7826  134.3708  157.5484 LP  0  0  0  0  0  0  0  0  0  0  0  0  # atno 17395 bound_to 11000

$$$$
