AV-unprocessed.smi:3322|AV-procd|sdf|12773|dock6
  -GOLD-   2272019113D 1   1.00000     0.00000
 Structure written by MMmdl.
 39 40  0  0  0  0  0  0  0  0  2 V2000
  148.5836  141.5814  154.6766 C   0  0  0  0  0  0  0  0  0  0  0  0
  149.6547  141.2556  155.7312 C   0  0  2  0  0  0  0  0  0  0  0  0
  150.4721  142.4668  155.9820 N   0  3  0  0  0  0  0  0  0  0  0  0
  150.8792  142.6703  157.3887 C   0  0  0  0  0  0  0  0  0  0  0  0
  151.9000  143.8107  157.5057 C   0  0  0  0  0  0  0  0  0  0  0  0
  152.0245  144.2803  158.8719 N   0  0  0  0  0  0  0  0  0  0  0  0
  152.3253  143.5551  160.0057 C   0  0  0  0  0  0  0  0  0  0  0  0
  152.3332  144.4283  161.0554 C   0  0  0  0  0  0  0  0  0  0  0  0
  152.0249  145.6813  160.4557 C   0  0  0  0  0  0  0  0  0  0  0  0
  151.8418  145.5895  159.1481 N   0  0  0  0  0  0  0  0  0  0  0  0
  150.5202  140.0643  155.2641 C   0  0  0  0  0  0  0  0  0  0  0  0
  150.4241  139.7068  154.0883 O   0  0  0  0  0  0  0  0  0  0  0  0
  151.3494  139.4371  156.1363 N   0  0  0  0  0  0  0  0  0  0  0  0
  151.4845  139.7067  157.5730 C   0  0  0  0  0  0  0  0  0  0  0  0
  151.0685  138.4448  158.3515 C   0  0  0  0  0  0  0  0  0  0  0  0
  151.8670  137.3382  157.9423 O   0  0  0  0  0  0  0  0  0  0  0  0
  151.7638  137.0646  156.5482 C   0  0  0  0  0  0  0  0  0  0  0  0
  152.1996  138.3053  155.7495 C   0  0  0  0  0  0  0  0  0  0  0  0
  147.9318  140.7296  154.4826 H   0  0  0  0  0  0  0  0  0  0  0  0
  149.0343  141.8739  153.7272 H   0  0  0  0  0  0  0  0  0  0  0  0
  147.9486  142.4038  155.0072 H   0  0  0  0  0  0  0  0  0  0  0  0
  149.1647  141.0196  156.6752 H   0  0  0  0  0  0  0  0  0  0  0  0
  151.2983  142.4180  155.4026 H   0  0  0  0  0  0  0  0  0  0  0  0
  149.9948  142.8960  157.9863 H   0  0  0  0  0  0  0  0  0  0  0  0
  151.3101  141.7505  157.7860 H   0  0  0  0  0  0  0  0  0  0  0  0
  152.8809  143.4787  157.1626 H   0  0  0  0  0  0  0  0  0  0  0  0
  151.6108  144.6527  156.8748 H   0  0  0  0  0  0  0  0  0  0  0  0
  152.5057  142.4906  159.9732 H   0  0  0  0  0  0  0  0  0  0  0  0
  152.5305  144.2063  162.0937 H   0  0  0  0  0  0  0  0  0  0  0  0
  151.9297  146.6480  160.9279 H   0  0  0  0  0  0  0  0  0  0  0  0
  152.5234  139.9567  157.7937 H   0  0  0  0  0  0  0  0  0  0  0  0
  150.8945  140.5473  157.9293 H   0  0  0  0  0  0  0  0  0  0  0  0
  151.2047  138.6001  159.4218 H   0  0  0  0  0  0  0  0  0  0  0  0
  150.0127  138.2200  158.1933 H   0  0  0  0  0  0  0  0  0  0  0  0
  152.4038  136.2156  156.3066 H   0  0  0  0  0  0  0  0  0  0  0  0
  150.7414  136.7773  156.2974 H   0  0  0  0  0  0  0  0  0  0  0  0
  152.1615  138.0836  154.6823 H   0  0  0  0  0  0  0  0  0  0  0  0
  153.2412  138.5449  155.9688 H   0  0  0  0  0  0  0  0  0  0  0  0
  149.9301  143.2721  155.7037 H   0  0  0  0  0  0  0  0  0  0  0  0
  1  2  1  0  0  0  0
  1 19  1  0  0  0  0
  1 20  1  0  0  0  0
  1 21  1  0  0  0  0
  2  3  1  0  0  0  0
  2 11  1  0  0  0  0
  2 22  1  0  0  0  0
  3  4  1  0  0  0  0
  3 23  1  0  0  0  0
  3 39  1  0  0  0  0
  4  5  1  0  0  0  0
  4 24  1  0  0  0  0
  4 25  1  0  0  0  0
  5  6  1  0  0  0  0
  5 26  1  0  0  0  0
  5 27  1  0  0  0  0
  6 10  1  0  0  0  0
  6  7  1  0  0  0  0
  7  8  2  0  0  0  0
  7 28  1  0  0  0  0
  8  9  1  0  0  0  0
  8 29  1  0  0  0  0
  9 10  2  0  0  0  0
  9 30  1  0  0  0  0
 11 12  2  0  0  0  0
 11 13  1  0  0  0  0
 13 18  1  0  0  0  0
 13 14  1  0  0  0  0
 14 15  1  0  0  0  0
 14 31  1  0  0  0  0
 14 32  1  0  0  0  0
 15 16  1  0  0  0  0
 15 33  1  0  0  0  0
 15 34  1  0  0  0  0
 16 17  1  0  0  0  0
 17 18  1  0  0  0  0
 17 35  1  0  0  0  0
 17 36  1  0  0  0  0
 18 37  1  0  0  0  0
 18 38  1  0  0  0  0
M  CHG  1   3   1
M  END
> <s_m_source_file>
AV-unprocessed.smi

> <i_m_source_file_index>
3322

> <i_lp_mmshare_version>
43012

> <i_f3d_flags>
0

> <s_epik_input>
W0NIMl0xW0NIMl1PW0NIMl1bQ0gyXU4xQyg9TylbQ0BIXShbQ0gzXSlbTkhdW0NIMl1bQ0gyXW4yW2NIXVtjSF1bY0hdbjI=

> <s_epik_cmdline>
J2VwaWtfcHl0aG9uJywgJy1waCcsICc3LjAnLCAnLXRuJywgJzgnLCAnLW1hJywgJzIwMCcsICctbWV0YWxfYmluZGluZycsICctaW1hZScsICc8aW5maWxlLm1hZT4nLCAnLW9tYWUnLCAnPG91dGZpbGUubWFlPic=

> <r_lp_tautomer_probability>
1

> <r_epik_Ionization_Penalty>
0.3254

> <r_epik_Ionization_Penalty_Charging>
0.325398

> <r_epik_Ionization_Penalty_Neutral>
2.29478e-06

> <r_epik_State_Penalty>
0.320187

> <r_epik_Charging_Adjusted_Penalty>
0.645585

> <i_epik_Tot_Q>
1

> <i_epik_Tot_abs_Q>
1

> <r_epik_Metal_State_Penalty>
0.320558

> <b_epik_Metal_Only>
0

> <s_lp_Force_Field>
OPLS_2005

> <r_lp_Energy>
25.684

> <b_lp_Chiralities_Consistent>
1

> <s_lp_Variant>
AV-unprocessed.smi:3322-1

> <Gold.Version>
5.8.1

> <Gold.Id.Protein>
6NUR|6NUR_protein|mol2

> <Gold.PLP.Fitness>
45.2792

> <Gold.PLP.PLP>
-38.4364

> <Gold.PLP.part.hbond>
-2.8776

> <Gold.PLP.part.metal>
0.0000

> <Gold.PLP.part.buried>
-4.2891

> <Gold.PLP.part.nonpolar>
-32.5056

> <Gold.PLP.part.repulsive>
0.8313

> <Gold.PLP.ligand.clash>
0.0000

> <Gold.PLP.ligand.torsion>
0.8766

> <Gold.PLP.Chemscore.Hbond>
2.8500

> <Gold.PLP.Chemscore.CHOScore>
0.0000

> <Gold.PLP.Chemscore.Metal>
0.0000

> <Gold.Chemscore.Hbonds>
donor molecule, donor type, donor heavy atom, donor atom, acceptor molecule, acceptor atom, score
      L1  H     3    39       P1  8028  2.00
      P1  H  7989  7998       L1    12  0.75

> <Gold.PLP.Chemscore.Internal.Correction>
0.0459

> <Gold.Rescore>
     Score         DG    S(hbond)    S(metal)    S(lipo)     H(rot)  DE(clash)    DE(int)     intcor
     15.10     -17.39       1.91        0.00      88.98       1.91       1.13       1.16       ----

> <Gold.Chemscore.Fitness>
15.0979

> <Gold.Chemscore.DG>
-17.3899

> <Gold.Chemscore.ZeroCoef>
-5.4800

> <Gold.Chemscore.Hbond>
1.9124

> <Gold.Chemscore.Metal>
0.0000

> <Gold.Chemscore.Lipo>
88.9818

> <Gold.Chemscore.Internal_Hbond>
0.0000

> <Gold.Chemscore.DEClash>
1.1275

> <Gold.Chemscore.DEInternal>
1.1646

> <Gold.Chemscore.Rot>
1.9095

> <Gold.Chemscore.Internal.Correction>
   9.000000E+99

> <Gold.Chemscore.Hbonds>
donor molecule, donor type, donor heavy atom, donor atom, acceptor molecule, acceptor atom, score
      L1  H     3    39       P1  8028  1.00
      P1  H  7989  7998       L1    12  0.09

> <Gold.Chemscore.Hbond.Weighted>
-6.3874

> <Gold.Chemscore.Metal.Weighted>
-0.0000

> <Gold.Chemscore.Lipo.Weighted>
-10.4109

> <Gold.Chemscore.Internal_Hbond.Weighted>
0.0000

> <Gold.Chemscore.DEClash.Weighted>
1.1275

> <Gold.Chemscore.DEInternal.Weighted>
1.1646

> <Gold.Chemscore.Rot.Weighted>
4.8884

> <Gold.Chemscore.Internal.Correction.Weighted>
   9.000000E+99

> <Gold.Protein.RotatedTorsions>
[ 6907 6896 6895 6894 ] final   85.35 input  -60.11 | X-H torsion
[ 7974 7965 7964 7962 ] final -140.22 input  175.53 | X-H torsion
[ 8008 7997 7996 7995 ] final -151.44 input   59.86 | X-H torsion
[ 10167 10162 10161 10158 ] final -147.56 input  -65.29 | X-H torsion
[ 10718 10713 10712 10709 ] final  168.36 input   66.30 | X-H torsion
[ 10763 10752 10751 10750 ] final  113.68 input  -60.55 | X-H torsion
[ 11005 11000 10999 10996 ] final  -68.12 input  -57.11 | X-H torsion

> <Gold.Protein.ActiveResidues>
 VAL166  LYS551  ARG553  GLY616  TRP617  ASP618  TYR619  PRO620  LYS621  CYS622 
 ASP623  PHE694  ASN695  SER759  ASP760  ASP761  ALA762  ILE779  LEU786  VAL792 
 PHE793  MET794  SER795  GLU796  ALA797  LYS798  CYS799  TRP800  GLU811  SER814 

> <Gold.Protein.RotatedAtoms>
  152.5373  134.2599  159.8930 H   0  0  0  0  0  0  0  0  0  0  0  0  # atno 6907 bound_to 6896
  151.2559  133.4319  159.2621 H   0  0  0  0  0  0  0  0  0  0  0  0  # atno 6908 bound_to 6896
  151.0496  134.9678  159.8261 H   0  0  0  0  0  0  0  0  0  0  0  0  # atno 6909 bound_to 6896
  144.8615  140.6226  143.5325 H   0  0  0  0  0  0  0  0  0  0  0  0  # atno 7974 bound_to 7965
  155.6394  140.0700  157.2623 H   0  0  0  0  0  0  0  0  0  0  0  0  # atno 8008 bound_to 7997
  154.4187  140.1753  156.1607 H   0  0  0  0  0  0  0  0  0  0  0  0  # atno 8009 bound_to 7997
  155.9867  140.3349  155.6718 H   0  0  0  0  0  0  0  0  0  0  0  0  # atno 8010 bound_to 7997
  139.7611  143.8376  152.2607 H   0  0  0  0  0  0  0  0  0  0  0  0  # atno 10167 bound_to 10162
  157.0382  131.0279  151.2722 H   0  0  0  0  0  0  0  0  0  0  0  0  # atno 10718 bound_to 10713
  153.4960  135.3648  155.2516 H   0  0  0  0  0  0  0  0  0  0  0  0  # atno 10763 bound_to 10752
  154.8750  135.3988  154.3533 H   0  0  0  0  0  0  0  0  0  0  0  0  # atno 10764 bound_to 10752
  153.4161  135.7079  153.6392 H   0  0  0  0  0  0  0  0  0  0  0  0  # atno 10765 bound_to 10752
  141.1524  133.6734  156.6398 H   0  0  0  0  0  0  0  0  0  0  0  0  # atno 11005 bound_to 11000
  145.4304  139.1550  143.4025 LP  0  0  0  0  0  0  0  0  0  0  0  0  # atno 17320 bound_to 7965
  146.2864  140.4420  142.8756 LP  0  0  0  0  0  0  0  0  0  0  0  0  # atno 17321 bound_to 7965
  139.8382  144.7222  150.9364 LP  0  0  0  0  0  0  0  0  0  0  0  0  # atno 17342 bound_to 10162
  140.7807  143.4007  151.1154 LP  0  0  0  0  0  0  0  0  0  0  0  0  # atno 17343 bound_to 10162
  157.5125  130.7947  149.7720 LP  0  0  0  0  0  0  0  0  0  0  0  0  # atno 17370 bound_to 10713
  156.0046  130.3862  150.2476 LP  0  0  0  0  0  0  0  0  0  0  0  0  # atno 17371 bound_to 10713
  140.3402  134.7855  157.4392 LP  0  0  0  0  0  0  0  0  0  0  0  0  # atno 17394 bound_to 11000
  140.0944  134.5557  155.8413 LP  0  0  0  0  0  0  0  0  0  0  0  0  # atno 17395 bound_to 11000

$$$$
