AV-unprocessed.smi:1120|AV-procd|sdf|4825|dock7
  -GOLD-   22720 3383D 1   1.00000     0.00000
 Structure written by MMmdl.
 48 49  0  0  0  0  0  0  0  0  3 V2000
  150.6538  142.1550  156.8778 C   0  0  0  0  0  0  0  0  0  0  0  0
  150.8419  141.0193  155.8624 C   0  0  2  0  0  0  0  0  0  0  0  0
  149.5168  140.2753  155.5801 C   0  0  0  0  0  0  0  0  0  0  0  0
  149.6842  139.0883  154.5953 C   0  0  0  0  0  0  0  0  0  0  0  0
  150.7644  138.0607  155.0147 C   0  0  2  0  0  0  0  0  0  0  0  0
  150.3050  137.3056  156.1724 N   0  5  0  0  0  0  0  0  0  0  0  0
  150.7721  135.7666  156.3848 S   0  0  0  0  0  0  0  0  0  0  0  0
  152.2337  135.6456  156.5061 O   0  0  0  0  0  0  0  0  0  0  0  0
  149.9575  135.0468  157.3786 O   0  0  0  0  0  0  0  0  0  0  0  0
  150.3455  135.0486  154.7343 C   0  0  0  0  0  0  0  0  0  0  0  0
  149.7412  133.6521  154.8890 C   0  0  0  0  0  0  0  0  0  0  0  0
  150.3994  132.7525  155.4118 O   0  0  0  0  0  0  0  0  0  0  0  0
  148.4863  133.4848  154.4408 N   0  0  0  0  0  0  0  0  0  0  0  0
  147.7491  132.2242  154.4279 C   0  0  0  0  0  0  0  0  0  0  0  0
  146.2277  132.4191  154.2744 C   0  0  0  0  0  0  0  0  0  0  0  0
  145.7747  132.6000  152.8364 C   0  0  0  0  0  0  0  0  0  0  0  0
  146.6890  132.7156  151.7666 C   0  0  0  0  0  0  0  0  0  0  0  0
  146.1974  132.9077  150.4586 C   0  0  0  0  0  0  0  0  0  0  0  0
  144.8047  132.9766  150.2475 C   0  0  0  0  0  0  0  0  0  0  0  0
  143.9374  132.8513  151.3517 C   0  0  0  0  0  0  0  0  0  0  0  0
  144.4465  132.6674  152.5892 N   0  3  0  0  0  0  0  0  0  0  0  0
  152.0788  138.8157  155.3413 C   0  0  0  0  0  0  0  0  0  0  0  0
  151.9031  139.9972  156.3303 C   0  0  0  0  0  0  0  0  0  0  0  0
  150.3086  141.7739  157.8394 H   0  0  0  0  0  0  0  0  0  0  0  0
  149.9193  142.8788  156.5238 H   0  0  0  0  0  0  0  0  0  0  0  0
  151.5890  142.6892  157.0471 H   0  0  0  0  0  0  0  0  0  0  0  0
  151.1875  141.4618  154.9271 H   0  0  0  0  0  0  0  0  0  0  0  0
  149.0881  139.9220  156.5203 H   0  0  0  0  0  0  0  0  0  0  0  0
  148.7883  140.9758  155.1705 H   0  0  0  0  0  0  0  0  0  0  0  0
  148.7255  138.5877  154.4536 H   0  0  0  0  0  0  0  0  0  0  0  0
  149.9527  139.4903  153.6177 H   0  0  0  0  0  0  0  0  0  0  0  0
  150.9443  137.3985  154.1671 H   0  0  0  0  0  0  0  0  0  0  0  0
  149.6544  135.7216  154.2268 H   0  0  0  0  0  0  0  0  0  0  0  0
  151.2583  134.9989  154.1411 H   0  0  0  0  0  0  0  0  0  0  0  0
  148.0287  134.2816  154.0212 H   0  0  0  0  0  0  0  0  0  0  0  0
  148.1223  131.6319  153.5923 H   0  0  0  0  0  0  0  0  0  0  0  0
  147.9690  131.6464  155.3273 H   0  0  0  0  0  0  0  0  0  0  0  0
  145.7037  131.5667  154.7088 H   0  0  0  0  0  0  0  0  0  0  0  0
  145.9128  133.2908  154.8493 H   0  0  0  0  0  0  0  0  0  0  0  0
  147.7535  132.6701  151.9453 H   0  0  0  0  0  0  0  0  0  0  0  0
  146.8810  133.0049  149.6281 H   0  0  0  0  0  0  0  0  0  0  0  0
  144.4080  133.1275  149.2541 H   0  0  0  0  0  0  0  0  0  0  0  0
  142.8603  132.8973  151.2843 H   0  0  0  0  0  0  0  0  0  0  0  0
  152.8325  138.1264  155.7220 H   0  0  0  0  0  0  0  0  0  0  0  0
  152.4885  139.2084  154.4102 H   0  0  0  0  0  0  0  0  0  0  0  0
  152.8620  140.5012  156.4540 H   0  0  0  0  0  0  0  0  0  0  0  0
  151.6397  139.6193  157.3207 H   0  0  0  0  0  0  0  0  0  0  0  0
  143.8005  132.5906  153.3751 H   0  0  0  0  0  0  0  0  0  0  0  0
  1  2  1  0  0  0  0
  1 24  1  0  0  0  0
  1 25  1  0  0  0  0
  1 26  1  0  0  0  0
  2 23  1  0  0  0  0
  2  3  1  0  0  0  0
  2 27  1  0  0  0  0
  3  4  1  0  0  0  0
  3 28  1  0  0  0  0
  3 29  1  0  0  0  0
  4  5  1  0  0  0  0
  4 30  1  0  0  0  0
  4 31  1  0  0  0  0
  5  6  1  0  0  0  0
  5 22  1  0  0  0  0
  5 32  1  0  0  0  0
  6  7  1  0  0  0  0
  7  8  2  0  0  0  0
  7  9  2  0  0  0  0
  7 10  1  0  0  0  0
 10 11  1  0  0  0  0
 10 33  1  0  0  0  0
 10 34  1  0  0  0  0
 11 12  2  0  0  0  0
 11 13  1  0  0  0  0
 13 14  1  0  0  0  0
 13 35  1  0  0  0  0
 14 15  1  0  0  0  0
 14 36  1  0  0  0  0
 14 37  1  0  0  0  0
 15 16  1  0  0  0  0
 15 38  1  0  0  0  0
 15 39  1  0  0  0  0
 16 21  1  0  0  0  0
 16 17  2  0  0  0  0
 17 18  1  0  0  0  0
 17 40  1  0  0  0  0
 18 19  2  0  0  0  0
 18 41  1  0  0  0  0
 19 20  1  0  0  0  0
 19 42  1  0  0  0  0
 20 21  2  0  0  0  0
 20 43  1  0  0  0  0
 21 48  1  0  0  0  0
 22 23  1  0  0  0  0
 22 44  1  0  0  0  0
 22 45  1  0  0  0  0
 23 46  1  0  0  0  0
 23 47  1  0  0  0  0
M  CHG  1   6  -1
M  CHG  1  21   1
M  END
> <s_m_source_file>
AV-unprocessed.smi

> <i_m_source_file_index>
1120

> <i_lp_mmshare_version>
43012

> <i_f3d_flags>
0

> <s_epik_input>
W0NIM11bQ0BASF0xW0NIMl1bQ0gyXVtDQEhdKFtDSDJdW0NIMl0xKVtOSF1TKD1PKSg9TylbQ0gyXUMoPU8pW05IXVtDSDJdW0NIMl1jMltjSF1bY0hdW2NIXVtjSF1uMg==

> <s_epik_cmdline>
J2VwaWtfcHl0aG9uJywgJy1waCcsICc3LjAnLCAnLXRuJywgJzgnLCAnLW1hJywgJzIwMCcsICctbWV0YWxfYmluZGluZycsICctaW1hZScsICc8aW5maWxlLm1hZT4nLCAnLW9tYWUnLCAnPG91dGZpbGUubWFlPic=

> <r_epik_Ionization_Penalty>
7.48373

> <r_epik_Ionization_Penalty_Charging>
7.48373

> <r_epik_Ionization_Penalty_Neutral>
1.58512e-08

> <r_epik_State_Penalty>
7.71683

> <r_epik_Charging_Adjusted_Penalty>
15.2006

> <i_epik_Tot_Q>
0

> <i_epik_Tot_abs_Q>
2

> <r_epik_Metal_State_Penalty>
3.7254

> <b_epik_Metal_Only>
1

> <s_lp_Force_Field>
OPLS_2005

> <r_lp_Energy>
13.616

> <b_lp_Chiralities_Consistent>
1

> <s_lp_Variant>
AV-unprocessed.smi:1120-8

> <Gold.Version>
5.8.1

> <Gold.Id.Protein>
6NUR|6NUR_protein|mol2

> <Gold.PLP.Fitness>
46.1775

> <Gold.PLP.PLP>
-38.1066

> <Gold.PLP.part.hbond>
-2.8622

> <Gold.PLP.part.metal>
0.0000

> <Gold.PLP.part.buried>
-6.4882

> <Gold.PLP.part.nonpolar>
-30.9832

> <Gold.PLP.part.repulsive>
0.0153

> <Gold.PLP.ligand.clash>
0.0000

> <Gold.PLP.ligand.torsion>
1.5848

> <Gold.PLP.Chemscore.Hbond>
3.3619

> <Gold.PLP.Chemscore.CHOScore>
0.0000

> <Gold.PLP.Chemscore.Metal>
0.0000

> <Gold.Chemscore.Hbonds>
donor molecule, donor type, donor heavy atom, donor atom, acceptor molecule, acceptor atom, score
      L1  H    21    48       P1 10957  2.00
      P1  H  6896  6908       L1     9  0.31
      P1  H 10752 10764       L1     8  1.00

> <Gold.PLP.Chemscore.Internal.Correction>
1.1547

> <Gold.Rescore>
     Score         DG    S(hbond)    S(metal)    S(lipo)     H(rot)  DE(clash)    DE(int)     intcor
     17.27     -18.98       2.48        0.00      88.01       1.98       0.08       1.63       ----

> <Gold.Chemscore.Fitness>
17.2750

> <Gold.Chemscore.DG>
-18.9791

> <Gold.Chemscore.ZeroCoef>
-5.4800

> <Gold.Chemscore.Hbond>
2.4787

> <Gold.Chemscore.Metal>
0.0000

> <Gold.Chemscore.Lipo>
88.0103

> <Gold.Chemscore.Internal_Hbond>
0.0000

> <Gold.Chemscore.DEClash>
0.0766

> <Gold.Chemscore.DEInternal>
1.6275

> <Gold.Chemscore.Rot>
1.9832

> <Gold.Chemscore.Internal.Correction>
   9.000000E+99

> <Gold.Chemscore.Hbonds>
donor molecule, donor type, donor heavy atom, donor atom, acceptor molecule, acceptor atom, score
      L1  H    21    48       P1 10957  0.29
      P1  H  6896  6908       L1     9  0.31
      P1  H 10752 10764       L1     8  1.00

> <Gold.Chemscore.Hbond.Weighted>
-8.2788

> <Gold.Chemscore.Metal.Weighted>
-0.0000

> <Gold.Chemscore.Lipo.Weighted>
-10.2972

> <Gold.Chemscore.Internal_Hbond.Weighted>
0.0000

> <Gold.Chemscore.DEClash.Weighted>
0.0766

> <Gold.Chemscore.DEInternal.Weighted>
1.6275

> <Gold.Chemscore.Rot.Weighted>
5.0769

> <Gold.Chemscore.Internal.Correction.Weighted>
   9.000000E+99

> <Gold.Protein.RotatedTorsions>
[ 6907 6896 6895 6894 ] final  145.45 input  -60.11 | X-H torsion
[ 7974 7965 7964 7962 ] final -127.81 input  175.53 | X-H torsion
[ 8008 7997 7996 7995 ] final -151.96 input   59.86 | X-H torsion
[ 10167 10162 10161 10158 ] final   -0.44 input  -65.29 | X-H torsion
[ 10718 10713 10712 10709 ] final -124.42 input   66.30 | X-H torsion
[ 10763 10752 10751 10750 ] final  -15.93 input  -60.55 | X-H torsion
[ 11005 11000 10999 10996 ] final  -43.75 input  -57.11 | X-H torsion

> <Gold.Protein.ActiveResidues>
 VAL166  LYS551  ARG553  GLY616  TRP617  ASP618  TYR619  PRO620  LYS621  CYS622 
 ASP623  PHE694  ASN695  SER759  ASP760  ASP761  ALA762  ILE779  LEU786  VAL792 
 PHE793  MET794  SER795  GLU796  ALA797  LYS798  CYS799  TRP800  GLU811  SER814 

> <Gold.Protein.RotatedAtoms>
  152.1808  133.4706  159.4956 H   0  0  0  0  0  0  0  0  0  0  0  0  # atno 6907 bound_to 6896
  150.6934  134.1836  159.4267 H   0  0  0  0  0  0  0  0  0  0  0  0  # atno 6908 bound_to 6896
  151.9747  135.0058  160.0605 H   0  0  0  0  0  0  0  0  0  0  0  0  # atno 6909 bound_to 6896
  144.9734  140.7568  143.4657 H   0  0  0  0  0  0  0  0  0  0  0  0  # atno 7974 bound_to 7965
  155.6477  140.0708  157.2597 H   0  0  0  0  0  0  0  0  0  0  0  0  # atno 8008 bound_to 7997
  154.4169  140.1739  156.1691 H   0  0  0  0  0  0  0  0  0  0  0  0  # atno 8009 bound_to 7997
  155.9803  140.3354  155.6660 H   0  0  0  0  0  0  0  0  0  0  0  0  # atno 8010 bound_to 7997
  140.6767  143.6894  150.8040 H   0  0  0  0  0  0  0  0  0  0  0  0  # atno 10167 bound_to 10162
  156.1586  130.6585  151.0017 H   0  0  0  0  0  0  0  0  0  0  0  0  # atno 10718 bound_to 10713
  153.5508  135.7011  153.5592 H   0  0  0  0  0  0  0  0  0  0  0  0  # atno 10763 bound_to 10752
  153.3517  135.3993  155.1651 H   0  0  0  0  0  0  0  0  0  0  0  0  # atno 10764 bound_to 10752
  154.8661  135.3767  154.5019 H   0  0  0  0  0  0  0  0  0  0  0  0  # atno 10765 bound_to 10752
  141.0405  133.6782  156.2777 H   0  0  0  0  0  0  0  0  0  0  0  0  # atno 11005 bound_to 11000
  145.2526  139.2025  143.4934 LP  0  0  0  0  0  0  0  0  0  0  0  0  # atno 17320 bound_to 7965
  146.3388  140.2442  142.8596 LP  0  0  0  0  0  0  0  0  0  0  0  0  # atno 17321 bound_to 7965
  140.0589  143.5175  152.2637 LP  0  0  0  0  0  0  0  0  0  0  0  0  # atno 17342 bound_to 10162
  139.6064  144.7597  151.3052 LP  0  0  0  0  0  0  0  0  0  0  0  0  # atno 17343 bound_to 10162
  157.6714  131.0860  150.7602 LP  0  0  0  0  0  0  0  0  0  0  0  0  # atno 17370 bound_to 10713
  156.7666  130.4815  149.5426 LP  0  0  0  0  0  0  0  0  0  0  0  0  # atno 17371 bound_to 10713
  140.6244  134.5329  157.5551 LP  0  0  0  0  0  0  0  0  0  0  0  0  # atno 17394 bound_to 11000
  139.9272  134.8033  156.1034 LP  0  0  0  0  0  0  0  0  0  0  0  0  # atno 17395 bound_to 11000

$$$$
