AV-unprocessed.smi:945|AV-procd|sdf|4233|dock4
  -GOLD-   22720 2143D 1   1.00000     0.00000
 Structure written by MMmdl.
 31 32  0  0  0  0  0  0  0  0  1 V2000
  153.8606  140.3147  160.6848 C   0  0  0  0  0  0  0  0  0  0  0  0
  153.5216  141.4543  161.6518 C   0  0  0  0  0  0  0  0  0  0  0  0
  152.7777  142.5647  160.9886 C   0  0  0  0  0  0  0  0  0  0  0  0
  152.4583  142.5644  159.6916 N   0  0  0  0  0  0  0  0  0  0  0  0
  151.7951  143.7315  159.2998 C   0  0  0  0  0  0  0  0  0  0  0  0
  151.3657  143.9049  157.8747 C   0  0  0  0  0  0  0  0  0  0  0  0
  151.3279  142.5674  157.1170 C   0  0  0  0  0  0  0  0  0  0  0  0
  150.2922  142.5552  156.0903 N   0  0  0  0  0  0  0  0  0  0  0  0
  150.1028  141.5732  155.1960 C   0  0  0  0  0  0  0  0  0  0  0  0
  150.8109  140.5663  155.1449 O   0  0  0  0  0  0  0  0  0  0  0  0
  148.9544  141.8103  154.2704 C   0  0  0  0  0  0  0  0  0  0  0  0
  147.5745  141.9333  154.8839 C   0  0  0  0  0  0  0  0  0  0  0  0
  147.9412  140.6962  154.1037 C   0  0  0  0  0  0  0  0  0  0  0  0
  151.6242  144.6271  160.3259 C   0  0  0  0  0  0  0  0  0  0  0  0
  152.2960  144.0382  161.8215 S   0  0  0  0  0  0  0  0  0  0  0  0
  154.4021  139.5190  161.1964 H   0  0  0  0  0  0  0  0  0  0  0  0
  154.4837  140.6681  159.8626 H   0  0  0  0  0  0  0  0  0  0  0  0
  152.9563  139.8805  160.2572 H   0  0  0  0  0  0  0  0  0  0  0  0
  152.9233  141.0741  162.4805 H   0  0  0  0  0  0  0  0  0  0  0  0
  154.4368  141.8573  162.0861 H   0  0  0  0  0  0  0  0  0  0  0  0
  150.3805  144.3719  157.8389 H   0  0  0  0  0  0  0  0  0  0  0  0
  152.0413  144.5955  157.3687 H   0  0  0  0  0  0  0  0  0  0  0  0
  152.3007  142.3544  156.6701 H   0  0  0  0  0  0  0  0  0  0  0  0
  151.1213  141.7527  157.8116 H   0  0  0  0  0  0  0  0  0  0  0  0
  149.6670  143.3478  156.0644 H   0  0  0  0  0  0  0  0  0  0  0  0
  149.1550  142.4241  153.3935 H   0  0  0  0  0  0  0  0  0  0  0  0
  147.4737  141.8321  155.9631 H   0  0  0  0  0  0  0  0  0  0  0  0
  146.8908  142.6436  154.4235 H   0  0  0  0  0  0  0  0  0  0  0  0
  147.5070  140.5689  153.1143 H   0  0  0  0  0  0  0  0  0  0  0  0
  148.0824  139.7746  154.6655 H   0  0  0  0  0  0  0  0  0  0  0  0
  151.1520  145.5978  160.2904 H   0  0  0  0  0  0  0  0  0  0  0  0
  1  2  1  0  0  0  0
  1 16  1  0  0  0  0
  1 17  1  0  0  0  0
  1 18  1  0  0  0  0
  2  3  1  0  0  0  0
  2 19  1  0  0  0  0
  2 20  1  0  0  0  0
  3 15  1  0  0  0  0
  3  4  2  0  0  0  0
  4  5  1  0  0  0  0
  5  6  1  0  0  0  0
  5 14  2  0  0  0  0
  6  7  1  0  0  0  0
  6 21  1  0  0  0  0
  6 22  1  0  0  0  0
  7  8  1  0  0  0  0
  7 23  1  0  0  0  0
  7 24  1  0  0  0  0
  8  9  1  0  0  0  0
  8 25  1  0  0  0  0
  9 10  2  0  0  0  0
  9 11  1  0  0  0  0
 11 13  1  0  0  0  0
 11 12  1  0  0  0  0
 11 26  1  0  0  0  0
 12 13  1  0  0  0  0
 12 27  1  0  0  0  0
 12 28  1  0  0  0  0
 13 29  1  0  0  0  0
 13 30  1  0  0  0  0
 14 15  1  0  0  0  0
 14 31  1  0  0  0  0
M  END
> <s_m_source_file>
AV-unprocessed.smi

> <i_m_source_file_index>
945

> <i_lp_mmshare_version>
43012

> <i_f3d_flags>
0

> <s_epik_input>
W0NIM11bQ0gyXWMxbmMoW2NIXXMxKVtDSDJdW0NIMl1bTkhdQyg9TylbQ0hdMltDSDJdW0NIMl0y

> <s_epik_cmdline>
J2VwaWtfcHl0aG9uJywgJy1waCcsICc3LjAnLCAnLXRuJywgJzgnLCAnLW1hJywgJzIwMCcsICctbWV0YWxfYmluZGluZycsICctaW1hZScsICc8aW5maWxlLm1hZT4nLCAnLW9tYWUnLCAnPG91dGZpbGUubWFlPic=

> <r_epik_Ionization_Penalty>
0.00109668

> <r_epik_Ionization_Penalty_Charging>
0

> <r_epik_Ionization_Penalty_Neutral>
0.00109668

> <r_epik_State_Penalty>
0.000719322

> <r_epik_Charging_Adjusted_Penalty>
0.000719322

> <i_epik_Tot_Q>
0

> <i_epik_Tot_abs_Q>
0

> <r_epik_Metal_State_Penalty>
-0

> <b_epik_Metal_Only>
0

> <s_lp_Force_Field>
OPLS_2005

> <r_lp_Energy>
-3.93776

> <b_lp_Chiralities_Consistent>
1

> <s_lp_Variant>
AV-unprocessed.smi:945-1

> <Gold.Version>
5.8.1

> <Gold.Id.Protein>
6NUR|6NUR_protein|mol2

> <Gold.PLP.Fitness>
44.2076

> <Gold.PLP.PLP>
-39.2476

> <Gold.PLP.part.hbond>
-2.0000

> <Gold.PLP.part.metal>
0.0000

> <Gold.PLP.part.buried>
-4.1687

> <Gold.PLP.part.nonpolar>
-32.5513

> <Gold.PLP.part.repulsive>
0.1697

> <Gold.PLP.ligand.clash>
0.0000

> <Gold.PLP.ligand.torsion>
0.5627

> <Gold.PLP.Chemscore.Hbond>
1.9920

> <Gold.PLP.Chemscore.CHOScore>
0.0000

> <Gold.PLP.Chemscore.Metal>
0.0000

> <Gold.Chemscore.Hbonds>
donor molecule, donor type, donor heavy atom, donor atom, acceptor molecule, acceptor atom, score
      L1  H     8    25       P1  8028  1.00
      P1  H  7989  7998       L1    10  0.88

> <Gold.PLP.Chemscore.Internal.Correction>
0.1094

> <Gold.Rescore>
     Score         DG    S(hbond)    S(metal)    S(lipo)     H(rot)  DE(clash)    DE(int)     intcor
     18.38     -18.85       1.54        0.00     104.91       1.58       0.05       0.41       ----

> <Gold.Chemscore.Fitness>
18.3823

> <Gold.Chemscore.DG>
-18.8483

> <Gold.Chemscore.ZeroCoef>
-5.4800

> <Gold.Chemscore.Hbond>
1.5353

> <Gold.Chemscore.Metal>
0.0000

> <Gold.Chemscore.Lipo>
104.9127

> <Gold.Chemscore.Internal_Hbond>
0.0000

> <Gold.Chemscore.DEClash>
0.0536

> <Gold.Chemscore.DEInternal>
0.4123

> <Gold.Chemscore.Rot>
1.5760

> <Gold.Chemscore.Internal.Correction>
   9.000000E+99

> <Gold.Chemscore.Hbonds>
donor molecule, donor type, donor heavy atom, donor atom, acceptor molecule, acceptor atom, score
      L1  H     8    25       P1  8028  0.99
      P1  H  7989  7998       L1    10  0.16

> <Gold.Chemscore.Hbond.Weighted>
-5.1280

> <Gold.Chemscore.Metal.Weighted>
-0.0000

> <Gold.Chemscore.Lipo.Weighted>
-12.2748

> <Gold.Chemscore.Internal_Hbond.Weighted>
0.0000

> <Gold.Chemscore.DEClash.Weighted>
0.0536

> <Gold.Chemscore.DEInternal.Weighted>
0.4123

> <Gold.Chemscore.Rot.Weighted>
4.0346

> <Gold.Chemscore.Internal.Correction.Weighted>
   9.000000E+99

> <Gold.Protein.RotatedTorsions>
[ 6907 6896 6895 6894 ] final  -30.94 input  -60.11 | X-H torsion
[ 7974 7965 7964 7962 ] final -139.10 input  175.53 | X-H torsion
[ 8008 7997 7996 7995 ] final   36.64 input   59.86 | X-H torsion
[ 10167 10162 10161 10158 ] final  122.77 input  -65.29 | X-H torsion
[ 10718 10713 10712 10709 ] final -111.64 input   66.30 | X-H torsion
[ 10763 10752 10751 10750 ] final    1.20 input  -60.55 | X-H torsion
[ 11005 11000 10999 10996 ] final   -5.18 input  -57.11 | X-H torsion

> <Gold.Protein.ActiveResidues>
 VAL166  LYS551  ARG553  GLY616  TRP617  ASP618  TYR619  PRO620  LYS621  CYS622 
 ASP623  PHE694  ASN695  SER759  ASP760  ASP761  ALA762  ILE779  LEU786  VAL792 
 PHE793  MET794  SER795  GLU796  ALA797  LYS798  CYS799  TRP800  GLU811  SER814 

> <Gold.Protein.RotatedAtoms>
  151.0987  134.9959  159.8437 H   0  0  0  0  0  0  0  0  0  0  0  0  # atno 6907 bound_to 6896
  152.5435  134.1976  159.8709 H   0  0  0  0  0  0  0  0  0  0  0  0  # atno 6908 bound_to 6896
  151.2018  133.4562  159.2629 H   0  0  0  0  0  0  0  0  0  0  0  0  # atno 6909 bound_to 6896
  144.8705  140.6359  143.5270 H   0  0  0  0  0  0  0  0  0  0  0  0  # atno 7974 bound_to 7965
  155.1907  140.3307  155.4359 H   0  0  0  0  0  0  0  0  0  0  0  0  # atno 8008 bound_to 7997
  156.2443  140.1911  156.6950 H   0  0  0  0  0  0  0  0  0  0  0  0  # atno 8009 bound_to 7997
  154.6208  140.0596  156.9598 H   0  0  0  0  0  0  0  0  0  0  0  0  # atno 8010 bound_to 7997
  139.5839  144.6998  151.3459 H   0  0  0  0  0  0  0  0  0  0  0  0  # atno 10167 bound_to 10162
  156.0658  130.5878  150.8400 H   0  0  0  0  0  0  0  0  0  0  0  0  # atno 10718 bound_to 10713
  153.3110  135.6963  153.7115 H   0  0  0  0  0  0  0  0  0  0  0  0  # atno 10763 bound_to 10752
  153.5993  135.3465  155.2940 H   0  0  0  0  0  0  0  0  0  0  0  0  # atno 10764 bound_to 10752
  154.8575  135.4336  154.2248 H   0  0  0  0  0  0  0  0  0  0  0  0  # atno 10765 bound_to 10752
  140.6884  133.9093  155.8601 H   0  0  0  0  0  0  0  0  0  0  0  0  # atno 11005 bound_to 11000
  145.4140  139.1575  143.4110 LP  0  0  0  0  0  0  0  0  0  0  0  0  # atno 17320 bound_to 7965
  146.2926  140.4246  142.8733 LP  0  0  0  0  0  0  0  0  0  0  0  0  # atno 17321 bound_to 7965
  140.7113  143.7382  150.7573 LP  0  0  0  0  0  0  0  0  0  0  0  0  # atno 17342 bound_to 10162
  140.0921  143.4867  152.2473 LP  0  0  0  0  0  0  0  0  0  0  0  0  # atno 17343 bound_to 10162
  157.5699  131.0946  150.9433 LP  0  0  0  0  0  0  0  0  0  0  0  0  # atno 17370 bound_to 10713
  156.9651  130.5470  149.5287 LP  0  0  0  0  0  0  0  0  0  0  0  0  # atno 17371 bound_to 10713
  141.0261  134.0821  157.4066 LP  0  0  0  0  0  0  0  0  0  0  0  0  # atno 17394 bound_to 11000
  139.8931  135.0128  156.6880 LP  0  0  0  0  0  0  0  0  0  0  0  0  # atno 17395 bound_to 11000

$$$$
