AV-unprocessed.smi:2906|AV-procd|sdf|11165|dock7
  -GOLD-   2272016 53D 1   1.00000     0.00000
 Structure written by MMmdl.
 39 40  0  0  0  0  0  0  0  0  2 V2000
  146.6720  142.2450  154.1380 C   0  0  0  0  0  0  0  0  0  0  0  0
  148.0498  141.7288  154.5828 C   0  0  0  0  0  0  0  0  0  0  0  0
  148.3420  140.2844  154.1423 C   0  0  0  0  0  0  0  0  0  0  0  0
  147.5198  139.6746  153.4566 O   0  0  0  0  0  0  0  0  0  0  0  0
  149.5065  139.7237  154.5295 N   0  0  0  0  0  0  0  0  0  0  0  0
  149.9412  138.3629  154.2220 C   0  0  0  0  0  0  0  0  0  0  0  0
  151.1944  138.1227  155.0634 C   0  0  0  0  0  0  0  0  0  0  0  0
  151.7491  139.5193  155.3422 C   0  0  2  0  0  0  0  0  0  0  0  0
  152.4467  139.6000  156.6223 N   0  0  0  0  0  0  0  0  0  0  0  0
  151.9479  139.2301  157.8102 C   0  0  0  0  0  0  0  0  0  0  0  0
  150.8039  138.7750  157.8823 O   0  0  0  0  0  0  0  0  0  0  0  0
  152.8046  139.4137  158.8407 N   0  5  0  0  0  0  0  0  0  0  0  0
  152.8236  140.5844  159.4984 C   0  0  0  0  0  0  0  0  0  0  0  0
  152.2289  141.6903  159.0370 N   0  0  0  0  0  0  0  0  0  0  0  0
  152.3645  142.7939  159.8837 C   0  0  0  0  0  0  0  0  0  0  0  0
  151.7622  144.1110  159.4994 C   0  0  0  0  0  0  0  0  0  0  0  0
  152.3369  144.6528  158.1858 C   0  0  0  0  0  0  0  0  0  0  0  0
  153.0750  142.5137  161.0217 C   0  0  0  0  0  0  0  0  0  0  0  0
  153.5951  140.8533  161.0628 S   0  0  0  0  0  0  0  0  0  0  0  0
  150.5117  140.4234  155.3263 C   0  0  0  0  0  0  0  0  0  0  0  0
  146.5124  143.2651  154.4876 H   0  0  0  0  0  0  0  0  0  0  0  0
  145.8668  141.6299  154.5412 H   0  0  0  0  0  0  0  0  0  0  0  0
  146.5804  142.2525  153.0513 H   0  0  0  0  0  0  0  0  0  0  0  0
  148.8235  142.3827  154.1793 H   0  0  0  0  0  0  0  0  0  0  0  0
  148.1161  141.7890  155.6696 H   0  0  0  0  0  0  0  0  0  0  0  0
  149.1741  137.6205  154.4451 H   0  0  0  0  0  0  0  0  0  0  0  0
  150.1812  138.2976  153.1599 H   0  0  0  0  0  0  0  0  0  0  0  0
  150.9077  137.6398  155.9992 H   0  0  0  0  0  0  0  0  0  0  0  0
  151.9171  137.4746  154.5666 H   0  0  0  0  0  0  0  0  0  0  0  0
  152.4113  139.8162  154.5267 H   0  0  0  0  0  0  0  0  0  0  0  0
  153.3871  139.9668  156.6085 H   0  0  0  0  0  0  0  0  0  0  0  0
  150.6803  144.0123  159.4045 H   0  0  0  0  0  0  0  0  0  0  0  0
  151.9270  144.8425  160.2911 H   0  0  0  0  0  0  0  0  0  0  0  0
  151.8852  145.6112  157.9302 H   0  0  0  0  0  0  0  0  0  0  0  0
  152.1489  143.9653  157.3605 H   0  0  0  0  0  0  0  0  0  0  0  0
  153.4145  144.8003  158.2602 H   0  0  0  0  0  0  0  0  0  0  0  0
  153.3241  143.1789  161.8346 H   0  0  0  0  0  0  0  0  0  0  0  0
  150.7479  141.4048  154.9122 H   0  0  0  0  0  0  0  0  0  0  0  0
  150.1139  140.5701  156.3321 H   0  0  0  0  0  0  0  0  0  0  0  0
  1  2  1  0  0  0  0
  1 21  1  0  0  0  0
  1 22  1  0  0  0  0
  1 23  1  0  0  0  0
  2  3  1  0  0  0  0
  2 24  1  0  0  0  0
  2 25  1  0  0  0  0
  3  4  2  0  0  0  0
  3  5  1  0  0  0  0
  5 20  1  0  0  0  0
  5  6  1  0  0  0  0
  6  7  1  0  0  0  0
  6 26  1  0  0  0  0
  6 27  1  0  0  0  0
  7  8  1  0  0  0  0
  7 28  1  0  0  0  0
  7 29  1  0  0  0  0
  8  9  1  0  0  0  0
  8 20  1  0  0  0  0
  8 30  1  0  0  0  0
  9 10  1  0  0  0  0
  9 31  1  0  0  0  0
 10 11  2  0  0  0  0
 10 12  1  0  0  0  0
 12 13  1  0  0  0  0
 13 19  1  0  0  0  0
 13 14  2  0  0  0  0
 14 15  1  0  0  0  0
 15 16  1  0  0  0  0
 15 18  2  0  0  0  0
 16 17  1  0  0  0  0
 16 32  1  0  0  0  0
 16 33  1  0  0  0  0
 17 34  1  0  0  0  0
 17 35  1  0  0  0  0
 17 36  1  0  0  0  0
 18 19  1  0  0  0  0
 18 37  1  0  0  0  0
 20 38  1  0  0  0  0
 20 39  1  0  0  0  0
M  CHG  1  12  -1
M  END
> <s_m_source_file>
AV-unprocessed.smi

> <i_m_source_file_index>
2906

> <i_lp_mmshare_version>
43012

> <i_f3d_flags>
0

> <s_epik_input>
W0NIM11bQ0gyXUMoPU8pTjFbQ0gyXVtDSDJdW0NASF0oW0NIMl0xKVtOSF1DKD1PKVtOSF1jMm5jKFtjSF1zMilbQ0gyXVtDSDNd

> <s_epik_cmdline>
J2VwaWtfcHl0aG9uJywgJy1waCcsICc3LjAnLCAnLXRuJywgJzgnLCAnLW1hJywgJzIwMCcsICctbWV0YWxfYmluZGluZycsICctaW1hZScsICc8aW5maWxlLm1hZT4nLCAnLW9tYWUnLCAnPG91dGZpbGUubWFlPic=

> <r_lp_tautomer_probability>
1

> <r_epik_Ionization_Penalty>
7.20119

> <r_epik_Ionization_Penalty_Charging>
5.87168

> <r_epik_Ionization_Penalty_Neutral>
1.32951

> <r_epik_State_Penalty>
5.87165

> <r_epik_Charging_Adjusted_Penalty>
11.7433

> <i_epik_Tot_Q>
-1

> <i_epik_Tot_abs_Q>
1

> <r_epik_Metal_State_Penalty>
1.83511

> <b_epik_Metal_Only>
1

> <s_lp_Force_Field>
OPLS_2005

> <r_lp_Energy>
18.7216

> <b_lp_Chiralities_Consistent>
1

> <s_lp_Variant>
AV-unprocessed.smi:2906-4

> <Gold.Version>
5.8.1

> <Gold.Id.Protein>
6NUR|6NUR_protein|mol2

> <Gold.PLP.Fitness>
44.1186

> <Gold.PLP.PLP>
-45.7369

> <Gold.PLP.part.hbond>
0.0000

> <Gold.PLP.part.metal>
0.0000

> <Gold.PLP.part.buried>
-3.6742

> <Gold.PLP.part.nonpolar>
-43.1731

> <Gold.PLP.part.repulsive>
1.8643

> <Gold.PLP.ligand.clash>
0.0000

> <Gold.PLP.ligand.torsion>
0.8307

> <Gold.PLP.Chemscore.Hbond>
0.0000

> <Gold.PLP.Chemscore.CHOScore>
0.0000

> <Gold.PLP.Chemscore.Metal>
0.0000

> <Gold.PLP.Chemscore.Internal.Correction>
0.0431

> <Gold.Rescore>
     Score         DG    S(hbond)    S(metal)    S(lipo)     H(rot)  DE(clash)    DE(int)     intcor
     11.31     -13.84       0.00        0.00     101.75       1.39       0.29       2.23       ----

> <Gold.Chemscore.Fitness>
11.3142

> <Gold.Chemscore.DG>
-13.8379

> <Gold.Chemscore.ZeroCoef>
-5.4800

> <Gold.Chemscore.Hbond>
0.0000

> <Gold.Chemscore.Metal>
0.0000

> <Gold.Chemscore.Lipo>
101.7516

> <Gold.Chemscore.Internal_Hbond>
0.0000

> <Gold.Chemscore.DEClash>
0.2939

> <Gold.Chemscore.DEInternal>
2.2297

> <Gold.Chemscore.Rot>
1.3856

> <Gold.Chemscore.Internal.Correction>
   9.000000E+99

> <Gold.Chemscore.Hbond.Weighted>
-0.0000

> <Gold.Chemscore.Metal.Weighted>
-0.0000

> <Gold.Chemscore.Lipo.Weighted>
-11.9049

> <Gold.Chemscore.Internal_Hbond.Weighted>
0.0000

> <Gold.Chemscore.DEClash.Weighted>
0.2939

> <Gold.Chemscore.DEInternal.Weighted>
2.2297

> <Gold.Chemscore.Rot.Weighted>
3.5471

> <Gold.Chemscore.Internal.Correction.Weighted>
   9.000000E+99

> <Gold.Protein.RotatedTorsions>
[ 6907 6896 6895 6894 ] final   98.39 input  -60.11 | X-H torsion
[ 7974 7965 7964 7962 ] final    3.44 input  175.53 | X-H torsion
[ 8008 7997 7996 7995 ] final   98.60 input   59.86 | X-H torsion
[ 10167 10162 10161 10158 ] final   41.03 input  -65.29 | X-H torsion
[ 10718 10713 10712 10709 ] final  159.92 input   66.30 | X-H torsion
[ 10763 10752 10751 10750 ] final  -31.38 input  -60.55 | X-H torsion
[ 11005 11000 10999 10996 ] final   23.32 input  -57.11 | X-H torsion

> <Gold.Protein.ActiveResidues>
 VAL166  LYS551  ARG553  GLY616  TRP617  ASP618  TYR619  PRO620  LYS621  CYS622 
 ASP623  PHE694  ASN695  SER759  ASP760  ASP761  ALA762  ILE779  LEU786  VAL792 
 PHE793  MET794  SER795  GLU796  ALA797  LYS798  CYS799  TRP800  GLU811  SER814 

> <Gold.Protein.RotatedAtoms>
  152.5410  134.0587  159.8142 H   0  0  0  0  0  0  0  0  0  0  0  0  # atno 6907 bound_to 6896
  151.0718  133.5452  159.2634 H   0  0  0  0  0  0  0  0  0  0  0  0  # atno 6908 bound_to 6896
  151.2312  135.0563  159.9042 H   0  0  0  0  0  0  0  0  0  0  0  0  # atno 6909 bound_to 6896
  146.2445  140.0686  142.8364 H   0  0  0  0  0  0  0  0  0  0  0  0  # atno 7974 bound_to 7965
  156.1020  140.3241  155.7955 H   0  0  0  0  0  0  0  0  0  0  0  0  # atno 8008 bound_to 7997
  155.4820  140.0554  157.2983 H   0  0  0  0  0  0  0  0  0  0  0  0  # atno 8009 bound_to 7997
  154.4703  140.2008  156.0026 H   0  0  0  0  0  0  0  0  0  0  0  0  # atno 8010 bound_to 7997
  140.3684  144.2137  150.6134 H   0  0  0  0  0  0  0  0  0  0  0  0  # atno 10167 bound_to 10162
  157.1575  131.0579  151.2249 H   0  0  0  0  0  0  0  0  0  0  0  0  # atno 10718 bound_to 10713
  153.7963  135.6893  153.4863 H   0  0  0  0  0  0  0  0  0  0  0  0  # atno 10763 bound_to 10752
  153.1717  135.4540  154.9909 H   0  0  0  0  0  0  0  0  0  0  0  0  # atno 10764 bound_to 10752
  154.8024  135.3343  154.7456 H   0  0  0  0  0  0  0  0  0  0  0  0  # atno 10765 bound_to 10752
  140.3710  134.2023  155.7667 H   0  0  0  0  0  0  0  0  0  0  0  0  # atno 11005 bound_to 11000
  145.0837  140.9238  143.4810 LP  0  0  0  0  0  0  0  0  0  0  0  0  # atno 17320 bound_to 7965
  145.0844  139.2936  143.5767 LP  0  0  0  0  0  0  0  0  0  0  0  0  # atno 17321 bound_to 7965
  140.5058  143.2304  151.8610 LP  0  0  0  0  0  0  0  0  0  0  0  0  # atno 17342 bound_to 10162
  139.4806  144.5007  151.9064 LP  0  0  0  0  0  0  0  0  0  0  0  0  # atno 17343 bound_to 10162
  157.4163  130.7413  149.6878 LP  0  0  0  0  0  0  0  0  0  0  0  0  # atno 17370 bound_to 10713
  155.9759  130.4082  150.3813 LP  0  0  0  0  0  0  0  0  0  0  0  0  # atno 17371 bound_to 10713
  141.1954  133.8105  157.0714 LP  0  0  0  0  0  0  0  0  0  0  0  0  # atno 17394 bound_to 11000
  140.0552  134.9784  157.1208 LP  0  0  0  0  0  0  0  0  0  0  0  0  # atno 17395 bound_to 11000

$$$$
