AV-unprocessed.smi:3117|AV-procd|sdf|11884|dock6
  -GOLD-   2272017273D 1   1.00000     0.00000
 Structure written by MMmdl.
 36 36  0  0  0  0  0  0  0  0  1 V2000
  150.6082  140.5855  158.2330 C   0  0  0  0  0  0  0  0  0  0  0  0
  150.3137  142.0923  158.1090 C   0  0  2  0  0  0  0  0  0  0  0  0
  149.6613  142.3238  156.8171 N   0  0  0  0  0  0  0  0  0  0  0  0
  150.2406  141.5882  155.6908 C   0  0  0  0  0  0  0  0  0  0  0  0
  149.1590  141.0605  154.7255 C   0  0  0  0  0  0  0  0  0  0  0  0
  148.5510  139.7311  155.2072 C   0  0  0  0  0  0  0  0  0  0  0  0
  148.0749  142.1116  154.4278 C   0  0  0  0  0  0  0  0  0  0  0  0
  149.8117  140.7911  153.5015 O   0  0  0  0  0  0  0  0  0  0  0  0
  151.5965  142.9621  158.2684 C   0  0  1  0  0  0  0  0  0  0  0  0
  151.4706  144.3912  157.7084 C   0  0  0  0  0  0  0  0  0  0  0  0
  152.0455  143.0216  159.6543 N   0  0  0  0  0  0  0  0  0  0  0  0
  152.5728  142.0052  160.4242 C   0  0  0  0  0  0  0  0  0  0  0  0
  152.8549  142.5272  161.6538 C   0  0  0  0  0  0  0  0  0  0  0  0
  152.4620  143.8897  161.5407 C   0  0  0  0  0  0  0  0  0  0  0  0
  151.9787  144.1833  160.3446 N   0  0  0  0  0  0  0  0  0  0  0  0
  150.9797  140.3227  159.2235 H   0  0  0  0  0  0  0  0  0  0  0  0
  151.3506  140.2643  157.5017 H   0  0  0  0  0  0  0  0  0  0  0  0
  149.7051  139.9963  158.0695 H   0  0  0  0  0  0  0  0  0  0  0  0
  149.6204  142.3414  158.9141 H   0  0  0  0  0  0  0  0  0  0  0  0
  149.6806  143.3158  156.6035 H   0  0  0  0  0  0  0  0  0  0  0  0
  150.9209  142.2437  155.1447 H   0  0  0  0  0  0  0  0  0  0  0  0
  150.8474  140.7559  156.0421 H   0  0  0  0  0  0  0  0  0  0  0  0
  147.9945  139.8617  156.1358 H   0  0  0  0  0  0  0  0  0  0  0  0
  149.3237  138.9834  155.3899 H   0  0  0  0  0  0  0  0  0  0  0  0
  147.8606  139.3196  154.4699 H   0  0  0  0  0  0  0  0  0  0  0  0
  147.4983  142.3533  155.3211 H   0  0  0  0  0  0  0  0  0  0  0  0
  147.3717  141.7533  153.6748 H   0  0  0  0  0  0  0  0  0  0  0  0
  148.5119  143.0392  154.0562 H   0  0  0  0  0  0  0  0  0  0  0  0
  149.2731  140.1998  152.9982 H   0  0  0  0  0  0  0  0  0  0  0  0
  152.3959  142.4715  157.7103 H   0  0  0  0  0  0  0  0  0  0  0  0
  151.3855  144.3868  156.6225 H   0  0  0  0  0  0  0  0  0  0  0  0
  152.3536  144.9842  157.9497 H   0  0  0  0  0  0  0  0  0  0  0  0
  150.6022  144.9080  158.1180 H   0  0  0  0  0  0  0  0  0  0  0  0
  152.7020  141.0052  160.0370 H   0  0  0  0  0  0  0  0  0  0  0  0
  153.2787  142.0143  162.5043 H   0  0  0  0  0  0  0  0  0  0  0  0
  152.5142  144.6687  162.2868 H   0  0  0  0  0  0  0  0  0  0  0  0
  1  2  1  0  0  0  0
  1 16  1  0  0  0  0
  1 17  1  0  0  0  0
  1 18  1  0  0  0  0
  2  3  1  0  0  0  0
  2  9  1  0  0  0  0
  2 19  1  0  0  0  0
  3  4  1  0  0  0  0
  3 20  1  0  0  0  0
  4  5  1  0  0  0  0
  4 21  1  0  0  0  0
  4 22  1  0  0  0  0
  5  6  1  0  0  0  0
  5  7  1  0  0  0  0
  5  8  1  0  0  0  0
  6 23  1  0  0  0  0
  6 24  1  0  0  0  0
  6 25  1  0  0  0  0
  7 26  1  0  0  0  0
  7 27  1  0  0  0  0
  7 28  1  0  0  0  0
  8 29  1  0  0  0  0
  9 10  1  0  0  0  0
  9 11  1  0  0  0  0
  9 30  1  0  0  0  0
 10 31  1  0  0  0  0
 10 32  1  0  0  0  0
 10 33  1  0  0  0  0
 11 15  1  0  0  0  0
 11 12  1  0  0  0  0
 12 13  2  0  0  0  0
 12 34  1  0  0  0  0
 13 14  1  0  0  0  0
 13 35  1  0  0  0  0
 14 15  2  0  0  0  0
 14 36  1  0  0  0  0
M  END
> <s_m_source_file>
AV-unprocessed.smi

> <i_m_source_file_index>
3117

> <i_lp_mmshare_version>
43012

> <i_f3d_flags>
0

> <s_epik_input>
W0NIM11DKFtDSDNdKShbT0hdKVtDSDJdW05IXVtDQEBIXShbQ0gzXSlbQ0BIXShbQ0gzXSluMVtjSF1bY0hdW2NIXW4x

> <s_epik_cmdline>
J2VwaWtfcHl0aG9uJywgJy1waCcsICc3LjAnLCAnLXRuJywgJzgnLCAnLW1hJywgJzIwMCcsICctbWV0YWxfYmluZGluZycsICctaW1hZScsICc8aW5maWxlLm1hZT4nLCAnLW9tYWUnLCAnPG91dGZpbGUubWFlPic=

> <r_lp_tautomer_probability>
1

> <r_epik_Ionization_Penalty>
2.13419

> <r_epik_Ionization_Penalty_Charging>
0

> <r_epik_Ionization_Penalty_Neutral>
2.13419

> <r_epik_State_Penalty>
2.27148

> <r_epik_Charging_Adjusted_Penalty>
2.27148

> <i_epik_Tot_Q>
0

> <i_epik_Tot_abs_Q>
0

> <r_epik_Metal_State_Penalty>
2.27029

> <b_epik_Metal_Only>
0

> <s_lp_Force_Field>
OPLS_2005

> <r_lp_Energy>
15.8141

> <b_lp_Chiralities_Consistent>
1

> <s_lp_Variant>
AV-unprocessed.smi:3117-7

> <Gold.Version>
5.8.1

> <Gold.Id.Protein>
6NUR|6NUR_protein|mol2

> <Gold.PLP.Fitness>
43.3479

> <Gold.PLP.PLP>
-37.6120

> <Gold.PLP.part.hbond>
-3.4267

> <Gold.PLP.part.metal>
0.0000

> <Gold.PLP.part.buried>
-2.7269

> <Gold.PLP.part.nonpolar>
-30.5337

> <Gold.PLP.part.repulsive>
0.0776

> <Gold.PLP.ligand.clash>
0.0000

> <Gold.PLP.ligand.torsion>
1.2903

> <Gold.PLP.Chemscore.Hbond>
2.7360

> <Gold.PLP.Chemscore.CHOScore>
0.0000

> <Gold.PLP.Chemscore.Metal>
0.0000

> <Gold.Chemscore.Hbonds>
donor molecule, donor type, donor heavy atom, donor atom, acceptor molecule, acceptor atom, score
      L1  H     3    20       P1  8028  0.94
      L1  H     8    29       P1  7957  0.37
      P1  H  7989  7998       L1     8  0.35
      P1  H  8011  8017       L1     8  1.00

> <Gold.PLP.Chemscore.Internal.Correction>
0.1086

> <Gold.Rescore>
     Score         DG    S(hbond)    S(metal)    S(lipo)     H(rot)  DE(clash)    DE(int)     intcor
     17.16     -18.55       2.34        0.00      92.89       2.19       0.17       1.22       ----

> <Gold.Chemscore.Fitness>
17.1648

> <Gold.Chemscore.DG>
-18.5538

> <Gold.Chemscore.ZeroCoef>
-5.4800

> <Gold.Chemscore.Hbond>
2.3375

> <Gold.Chemscore.Metal>
0.0000

> <Gold.Chemscore.Lipo>
92.8935

> <Gold.Chemscore.Internal_Hbond>
0.0000

> <Gold.Chemscore.DEClash>
0.1657

> <Gold.Chemscore.DEInternal>
1.2233

> <Gold.Chemscore.Rot>
2.1882

> <Gold.Chemscore.Internal.Correction>
   9.000000E+99

> <Gold.Chemscore.Hbonds>
donor molecule, donor type, donor heavy atom, donor atom, acceptor molecule, acceptor atom, score
      L1  H     3    20       P1  8028  0.91
      L1  H     8    29       P1  7957  0.36
      P1  H  7989  7998       L1     8  0.34
      P1  H  8011  8017       L1     8  0.22

> <Gold.Chemscore.Hbond.Weighted>
-7.8071

> <Gold.Chemscore.Metal.Weighted>
-0.0000

> <Gold.Chemscore.Lipo.Weighted>
-10.8685

> <Gold.Chemscore.Internal_Hbond.Weighted>
0.0000

> <Gold.Chemscore.DEClash.Weighted>
0.1657

> <Gold.Chemscore.DEInternal.Weighted>
1.2233

> <Gold.Chemscore.Rot.Weighted>
5.6018

> <Gold.Chemscore.Internal.Correction.Weighted>
   9.000000E+99

> <Gold.Protein.RotatedTorsions>
[ 6907 6896 6895 6894 ] final  -51.16 input  -60.11 | X-H torsion
[ 7974 7965 7964 7962 ] final   25.16 input  175.53 | X-H torsion
[ 8008 7997 7996 7995 ] final   60.87 input   59.86 | X-H torsion
[ 10167 10162 10161 10158 ] final  -27.46 input  -65.29 | X-H torsion
[ 10718 10713 10712 10709 ] final  -51.54 input   66.30 | X-H torsion
[ 10763 10752 10751 10750 ] final  119.99 input  -60.55 | X-H torsion
[ 11005 11000 10999 10996 ] final  113.54 input  -57.11 | X-H torsion

> <Gold.Protein.ActiveResidues>
 VAL166  LYS551  ARG553  GLY616  TRP617  ASP618  TYR619  PRO620  LYS621  CYS622 
 ASP623  PHE694  ASN695  SER759  ASP760  ASP761  ALA762  ILE779  LEU786  VAL792 
 PHE793  MET794  SER795  GLU796  ALA797  LYS798  CYS799  TRP800  GLU811  SER814 

> <Gold.Protein.RotatedAtoms>
  150.8638  134.7996  159.7102 H   0  0  0  0  0  0  0  0  0  0  0  0  # atno 6907 bound_to 6896
  152.4666  134.5058  159.9748 H   0  0  0  0  0  0  0  0  0  0  0  0  # atno 6908 bound_to 6896
  151.5157  133.3438  159.2928 H   0  0  0  0  0  0  0  0  0  0  0  0  # atno 6909 bound_to 6896
  146.1902  139.7505  142.8837 H   0  0  0  0  0  0  0  0  0  0  0  0  # atno 7974 bound_to 7965
  155.5893  140.3492  155.4562 H   0  0  0  0  0  0  0  0  0  0  0  0  # atno 8008 bound_to 7997
  156.0313  140.1275  157.0280 H   0  0  0  0  0  0  0  0  0  0  0  0  # atno 8009 bound_to 7997
  154.4353  140.1043  156.6090 H   0  0  0  0  0  0  0  0  0  0  0  0  # atno 8010 bound_to 7997
  140.7277  143.4091  151.1135 H   0  0  0  0  0  0  0  0  0  0  0  0  # atno 10167 bound_to 10162
  156.1701  130.4149  149.9661 H   0  0  0  0  0  0  0  0  0  0  0  0  # atno 10718 bound_to 10713
  153.5915  135.3465  155.2912 H   0  0  0  0  0  0  0  0  0  0  0  0  # atno 10763 bound_to 10752
  154.8651  135.4206  154.2510 H   0  0  0  0  0  0  0  0  0  0  0  0  # atno 10764 bound_to 10752
  153.3319  135.7045  153.7011 H   0  0  0  0  0  0  0  0  0  0  0  0  # atno 10765 bound_to 10752
  139.8956  134.9551  156.6755 H   0  0  0  0  0  0  0  0  0  0  0  0  # atno 11005 bound_to 11000
  145.3815  141.0359  143.3175 LP  0  0  0  0  0  0  0  0  0  0  0  0  # atno 17320 bound_to 7965
  144.8473  139.5377  143.6873 LP  0  0  0  0  0  0  0  0  0  0  0  0  # atno 17321 bound_to 7965
  139.7722  143.8477  152.3122 LP  0  0  0  0  0  0  0  0  0  0  0  0  # atno 17342 bound_to 10162
  139.8400  144.7214  150.9343 LP  0  0  0  0  0  0  0  0  0  0  0  0  # atno 17343 bound_to 10162
  156.7464  130.9099  151.3635 LP  0  0  0  0  0  0  0  0  0  0  0  0  # atno 17370 bound_to 10713
  157.6796  130.9127  150.0235 LP  0  0  0  0  0  0  0  0  0  0  0  0  # atno 17371 bound_to 10713
  140.7340  133.9034  155.8231 LP  0  0  0  0  0  0  0  0  0  0  0  0  # atno 17394 bound_to 11000
  141.0130  134.0994  157.4201 LP  0  0  0  0  0  0  0  0  0  0  0  0  # atno 17395 bound_to 11000

$$$$
