AV-unprocessed.smi:848|AV-procd|sdf|3939|dock4
  -GOLD-   22720 1403D 1   1.00000     0.00000
 Structure written by MMmdl.
 46 48  0  0  0  0  0  0  0  0  1 V2000
  146.7663  139.5030  158.0237 C   0  0  0  0  0  0  0  0  0  0  0  0
  147.2800  140.0889  156.7246 C   0  0  0  0  0  0  0  0  0  0  0  0
  146.6048  141.1637  156.1127 C   0  0  0  0  0  0  0  0  0  0  0  0
  147.0865  141.7041  154.9048 C   0  0  0  0  0  0  0  0  0  0  0  0
  146.3547  142.8581  154.2508 C   0  0  0  0  0  0  0  0  0  0  0  0
  148.2486  141.1684  154.3132 C   0  0  0  0  0  0  0  0  0  0  0  0
  148.9379  140.0951  154.9137 C   0  0  0  0  0  0  0  0  0  0  0  0
  150.0666  139.6390  154.2670 O   0  0  0  0  0  0  0  0  0  0  0  0
  150.8859  138.6854  154.9301 C   0  0  0  0  0  0  0  0  0  0  0  0
  151.7105  139.4031  156.0107 C   0  0  2  0  0  0  0  0  0  0  0  0
  153.0176  139.6145  155.5133 O   0  0  0  0  0  0  0  0  0  0  0  0
  151.7881  138.5790  157.3129 C   0  0  0  0  0  0  0  0  0  0  0  0
  152.5503  139.2436  158.3623 N   0  0  0  0  0  0  0  0  0  0  0  0
  153.4607  138.6972  159.2076 C   0  0  0  0  0  0  0  0  0  0  0  0
  153.8143  137.2381  159.1396 C   0  0  0  0  0  0  0  0  0  0  0  0
  153.5546  136.5270  160.3334 O   0  0  0  0  0  0  0  0  0  0  0  0
  154.0151  139.5413  160.0813 N   0  0  0  0  0  0  0  0  0  0  0  0
  153.4106  140.7435  159.7726 C   0  0  0  0  0  0  0  0  0  0  0  0
  153.5729  142.0261  160.3434 C   0  0  0  0  0  0  0  0  0  0  0  0
  152.8384  143.1247  159.8510 C   0  0  0  0  0  0  0  0  0  0  0  0
  151.9334  142.9570  158.7831 C   0  0  0  0  0  0  0  0  0  0  0  0
  151.7552  141.6871  158.2013 C   0  0  0  0  0  0  0  0  0  0  0  0
  152.4904  140.5934  158.6971 C   0  0  0  0  0  0  0  0  0  0  0  0
  148.4414  139.5571  156.1277 C   0  0  0  0  0  0  0  0  0  0  0  0
  145.7884  139.9086  158.2846 H   0  0  0  0  0  0  0  0  0  0  0  0
  147.4572  139.7268  158.8368 H   0  0  0  0  0  0  0  0  0  0  0  0
  146.6724  138.4198  157.9406 H   0  0  0  0  0  0  0  0  0  0  0  0
  145.7155  141.5754  156.5678 H   0  0  0  0  0  0  0  0  0  0  0  0
  146.7501  143.0677  153.2565 H   0  0  0  0  0  0  0  0  0  0  0  0
  146.4552  143.7591  154.8560 H   0  0  0  0  0  0  0  0  0  0  0  0
  145.2938  142.6268  154.1517 H   0  0  0  0  0  0  0  0  0  0  0  0
  148.6204  141.5828  153.3874 H   0  0  0  0  0  0  0  0  0  0  0  0
  150.2372  137.9478  155.4054 H   0  0  0  0  0  0  0  0  0  0  0  0
  151.5369  138.1565  154.2315 H   0  0  0  0  0  0  0  0  0  0  0  0
  151.2601  140.3725  156.2259 H   0  0  0  0  0  0  0  0  0  0  0  0
  152.9643  139.7762  154.5838 H   0  0  0  0  0  0  0  0  0  0  0  0
  150.7864  138.3682  157.6880 H   0  0  0  0  0  0  0  0  0  0  0  0
  152.2435  137.6073  157.1172 H   0  0  0  0  0  0  0  0  0  0  0  0
  153.2537  136.7669  158.3331 H   0  0  0  0  0  0  0  0  0  0  0  0
  154.8740  137.1403  158.9029 H   0  0  0  0  0  0  0  0  0  0  0  0
  154.3221  136.5698  160.8825 H   0  0  0  0  0  0  0  0  0  0  0  0
  154.2643  142.1645  161.1614 H   0  0  0  0  0  0  0  0  0  0  0  0
  152.9704  144.1004  160.2950 H   0  0  0  0  0  0  0  0  0  0  0  0
  151.3754  143.8039  158.4114 H   0  0  0  0  0  0  0  0  0  0  0  0
  151.0605  141.5561  157.3854 H   0  0  0  0  0  0  0  0  0  0  0  0
  148.9367  138.7351  156.6218 H   0  0  0  0  0  0  0  0  0  0  0  0
  1  2  1  0  0  0  0
  1 25  1  0  0  0  0
  1 26  1  0  0  0  0
  1 27  1  0  0  0  0
  2 24  1  0  0  0  0
  2  3  2  0  0  0  0
  3  4  1  0  0  0  0
  3 28  1  0  0  0  0
  4  5  1  0  0  0  0
  4  6  2  0  0  0  0
  5 29  1  0  0  0  0
  5 30  1  0  0  0  0
  5 31  1  0  0  0  0
  6  7  1  0  0  0  0
  6 32  1  0  0  0  0
  7  8  1  0  0  0  0
  7 24  2  0  0  0  0
  8  9  1  0  0  0  0
  9 10  1  0  0  0  0
  9 33  1  0  0  0  0
  9 34  1  0  0  0  0
 10 11  1  0  0  0  0
 10 12  1  0  0  0  0
 10 35  1  0  0  0  0
 11 36  1  0  0  0  0
 12 13  1  0  0  0  0
 12 37  1  0  0  0  0
 12 38  1  0  0  0  0
 13 23  1  0  0  0  0
 13 14  1  0  0  0  0
 14 15  1  0  0  0  0
 14 17  2  0  0  0  0
 15 16  1  0  0  0  0
 15 39  1  0  0  0  0
 15 40  1  0  0  0  0
 16 41  1  0  0  0  0
 17 18  1  0  0  0  0
 18 23  2  0  0  0  0
 18 19  1  0  0  0  0
 19 20  2  0  0  0  0
 19 42  1  0  0  0  0
 20 21  1  0  0  0  0
 20 43  1  0  0  0  0
 21 22  2  0  0  0  0
 21 44  1  0  0  0  0
 22 23  1  0  0  0  0
 22 45  1  0  0  0  0
 24 46  1  0  0  0  0
M  END
> <s_m_source_file>
AV-unprocessed.smi

> <i_m_source_file_index>
848

> <i_lp_mmshare_version>
43012

> <i_f3d_flags>
0

> <s_epik_input>
W0NIM11jMVtjSF1jKFtDSDNdKVtjSF1jKFtjSF0xKU9bQ0gyXVtDQEhdKFtPSF0pW0NIMl1uKGMobjIpW0NIMl1bT0hdKWMoYzIzKVtjSF1bY0hdW2NIXVtjSF0z

> <s_epik_cmdline>
J2VwaWtfcHl0aG9uJywgJy1waCcsICc3LjAnLCAnLXRuJywgJzgnLCAnLW1hJywgJzIwMCcsICctbWV0YWxfYmluZGluZycsICctaW1hZScsICc8aW5maWxlLm1hZT4nLCAnLW9tYWUnLCAnPG91dGZpbGUubWFlPic=

> <r_lp_tautomer_probability>
1

> <r_epik_Ionization_Penalty>
0.0554234

> <r_epik_Ionization_Penalty_Charging>
0

> <r_epik_Ionization_Penalty_Neutral>
0.0554234

> <r_epik_State_Penalty>
0.0476717

> <r_epik_Charging_Adjusted_Penalty>
0.0476717

> <i_epik_Tot_Q>
0

> <i_epik_Tot_abs_Q>
0

> <r_epik_Metal_State_Penalty>
4.96399e-05

> <b_epik_Metal_Only>
0

> <s_lp_Force_Field>
OPLS_2005

> <r_lp_Energy>
17.4445

> <b_lp_Chiralities_Consistent>
1

> <s_lp_Variant>
AV-unprocessed.smi:848-1

> <Gold.Version>
5.8.1

> <Gold.Id.Protein>
6NUR|6NUR_protein|mol2

> <Gold.PLP.Fitness>
50.7125

> <Gold.PLP.PLP>
-43.4673

> <Gold.PLP.part.hbond>
-2.9273

> <Gold.PLP.part.metal>
0.0000

> <Gold.PLP.part.buried>
-6.8895

> <Gold.PLP.part.nonpolar>
-34.9540

> <Gold.PLP.part.repulsive>
0.8615

> <Gold.PLP.ligand.clash>
0.0000

> <Gold.PLP.ligand.torsion>
0.9442

> <Gold.PLP.Chemscore.Hbond>
3.0000

> <Gold.PLP.Chemscore.CHOScore>
0.0000

> <Gold.PLP.Chemscore.Metal>
0.0000

> <Gold.Chemscore.Hbonds>
donor molecule, donor type, donor heavy atom, donor atom, acceptor molecule, acceptor atom, score
      P1  H  6896  6909       L1    16  0.83
      P1  H  7989  7998       L1     8  0.69
      P1  H  7997  8008       L1    11  1.00

> <Gold.PLP.Chemscore.Internal.Correction>
0.1336

> <Gold.Rescore>
     Score         DG    S(hbond)    S(metal)    S(lipo)     H(rot)  DE(clash)    DE(int)     intcor
     15.40     -17.84       2.05        0.00     111.79       2.96       1.38       1.06       ----

> <Gold.Chemscore.Fitness>
15.3984

> <Gold.Chemscore.DG>
-17.8361

> <Gold.Chemscore.ZeroCoef>
-5.4800

> <Gold.Chemscore.Hbond>
2.0492

> <Gold.Chemscore.Metal>
0.0000

> <Gold.Chemscore.Lipo>
111.7900

> <Gold.Chemscore.Internal_Hbond>
0.0000

> <Gold.Chemscore.DEClash>
1.3756

> <Gold.Chemscore.DEInternal>
1.0622

> <Gold.Chemscore.Rot>
2.9561

> <Gold.Chemscore.Internal.Correction>
   9.000000E+99

> <Gold.Chemscore.Hbonds>
donor molecule, donor type, donor heavy atom, donor atom, acceptor molecule, acceptor atom, score
      P1  H  6896  6909       L1    16  0.70
      P1  H  7989  7998       L1     8  0.13
      P1  H  7997  8008       L1    11  0.29

> <Gold.Chemscore.Hbond.Weighted>
-6.8444

> <Gold.Chemscore.Metal.Weighted>
-0.0000

> <Gold.Chemscore.Lipo.Weighted>
-13.0794

> <Gold.Chemscore.Internal_Hbond.Weighted>
0.0000

> <Gold.Chemscore.DEClash.Weighted>
1.3756

> <Gold.Chemscore.DEInternal.Weighted>
1.0622

> <Gold.Chemscore.Rot.Weighted>
7.5677

> <Gold.Chemscore.Internal.Correction.Weighted>
   9.000000E+99

> <Gold.Protein.RotatedTorsions>
[ 6907 6896 6895 6894 ] final  161.99 input  -60.11 | X-H torsion
[ 7974 7965 7964 7962 ] final    5.29 input  175.53 | X-H torsion
[ 8008 7997 7996 7995 ] final  -12.47 input   59.86 | X-H torsion
[ 10167 10162 10161 10158 ] final   67.08 input  -65.29 | X-H torsion
[ 10718 10713 10712 10709 ] final -122.73 input   66.30 | X-H torsion
[ 10763 10752 10751 10750 ] final -113.14 input  -60.55 | X-H torsion
[ 11005 11000 10999 10996 ] final -146.56 input  -57.11 | X-H torsion

> <Gold.Protein.ActiveResidues>
 VAL166  LYS551  ARG553  GLY616  TRP617  ASP618  TYR619  PRO620  LYS621  CYS622 
 ASP623  PHE694  ASN695  SER759  ASP760  ASP761  ALA762  ILE779  LEU786  VAL792 
 PHE793  MET794  SER795  GLU796  ALA797  LYS798  CYS799  TRP800  GLU811  SER814 

> <Gold.Protein.RotatedAtoms>
  151.9472  133.3655  159.3986 H   0  0  0  0  0  0  0  0  0  0  0  0  # atno 6907 bound_to 6896
  150.6987  134.4378  159.5287 H   0  0  0  0  0  0  0  0  0  0  0  0  # atno 6908 bound_to 6896
  152.2045  134.8558  160.0555 H   0  0  0  0  0  0  0  0  0  0  0  0  # atno 6909 bound_to 6896
  146.2441  140.0406  142.8382 H   0  0  0  0  0  0  0  0  0  0  0  0  # atno 7974 bound_to 7965
  154.5375  140.2275  155.8698 H   0  0  0  0  0  0  0  0  0  0  0  0  # atno 8008 bound_to 7997
  156.1825  140.3096  155.9139 H   0  0  0  0  0  0  0  0  0  0  0  0  # atno 8009 bound_to 7997
  155.3326  140.0446  157.3033 H   0  0  0  0  0  0  0  0  0  0  0  0  # atno 8010 bound_to 7997
  140.0934  144.4968  150.7084 H   0  0  0  0  0  0  0  0  0  0  0  0  # atno 10167 bound_to 10162
  156.1443  130.6488  150.9818 H   0  0  0  0  0  0  0  0  0  0  0  0  # atno 10718 bound_to 10713
  154.8382  135.4465  154.1303 H   0  0  0  0  0  0  0  0  0  0  0  0  # atno 10763 bound_to 10752
  153.2515  135.6927  153.7680 H   0  0  0  0  0  0  0  0  0  0  0  0  # atno 10764 bound_to 10752
  153.6991  135.3375  155.3196 H   0  0  0  0  0  0  0  0  0  0  0  0  # atno 10765 bound_to 10752
  140.7807  134.3082  157.5046 H   0  0  0  0  0  0  0  0  0  0  0  0  # atno 11005 bound_to 11000
  145.1073  140.9383  143.4677 LP  0  0  0  0  0  0  0  0  0  0  0  0  # atno 17320 bound_to 7965
  145.0612  139.3104  143.5879 LP  0  0  0  0  0  0  0  0  0  0  0  0  # atno 17321 bound_to 7965
  140.7016  143.2439  151.4846 LP  0  0  0  0  0  0  0  0  0  0  0  0  # atno 17342 bound_to 10162
  139.5712  144.1925  152.1838 LP  0  0  0  0  0  0  0  0  0  0  0  0  # atno 17343 bound_to 10162
  157.6603  131.0882  150.7854 LP  0  0  0  0  0  0  0  0  0  0  0  0  # atno 17370 bound_to 10713
  156.7927  130.4895  149.5382 LP  0  0  0  0  0  0  0  0  0  0  0  0  # atno 17371 bound_to 10713
  139.8743  134.9316  156.3534 LP  0  0  0  0  0  0  0  0  0  0  0  0  # atno 17394 bound_to 11000
  140.9485  133.7467  156.0240 LP  0  0  0  0  0  0  0  0  0  0  0  0  # atno 17395 bound_to 11000

$$$$
