AV-unprocessed.smi:445|AV-procd|sdf|2590|dock7
  -GOLD-   2262022583D 1   1.00000     0.00000
 Structure written by MMmdl.
 44 45  0  0  0  0  0  0  0  0  3 V2000
  151.3132  143.0469  158.1257 C   0  0  0  0  0  0  0  0  0  0  0  0
  152.3367  143.0460  159.2740 C   0  0  1  0  0  0  0  0  0  0  0  0
  151.6814  143.4298  160.6176 C   0  0  0  0  0  0  0  0  0  0  0  0
  152.7116  143.4801  161.7573 C   0  0  0  0  0  0  0  0  0  0  0  0
  153.4763  142.1541  161.8796 C   0  0  0  0  0  0  0  0  0  0  0  0
  154.1375  141.7714  160.5448 C   0  0  0  0  0  0  0  0  0  0  0  0
  153.1159  141.7114  159.3871 C   0  0  1  0  0  0  0  0  0  0  0  0
  152.2015  140.5799  159.5480 N   0  0  0  0  0  0  0  0  0  0  0  0
  152.2005  139.4627  158.8053 C   0  0  0  0  0  0  0  0  0  0  0  0
  152.9805  139.2734  157.8711 O   0  0  0  0  0  0  0  0  0  0  0  0
  151.1494  138.4095  159.1832 C   0  0  0  0  0  0  0  0  0  0  0  0
  150.1522  138.1815  158.1215 N   0  0  0  0  0  0  0  0  0  0  0  0
  149.9728  139.2356  157.2084 C   0  0  0  0  0  0  0  0  0  0  0  0
  149.0900  139.1670  156.1970 C   0  0  0  0  0  0  0  0  0  0  0  0
  148.9189  140.2700  155.2758 N   0  3  0  0  0  0  0  0  0  0  0  0
  149.8677  141.0205  155.0720 O   0  0  0  0  0  0  0  0  0  0  0  0
  147.8324  140.4238  154.7257 O   0  5  0  0  0  0  0  0  0  0  0  0
  148.3101  137.9546  156.0612 C   0  0  0  0  0  0  0  0  0  0  0  0
  148.4606  136.9264  156.9349 C   0  0  0  0  0  0  0  0  0  0  0  0
  147.6834  135.6704  156.8337 C   0  0  0  0  0  0  0  0  0  0  0  0
  146.8121  135.6413  155.8173 N   0  0  0  0  0  0  0  0  0  0  0  0
  147.7637  134.6893  157.5725 O   0  0  0  0  0  0  0  0  0  0  0  0
  149.4352  137.0158  158.0568 C   0  0  0  0  0  0  0  0  0  0  0  0
  149.6223  136.1333  158.8985 O   0  0  0  0  0  0  0  0  0  0  0  0
  150.5092  142.3312  158.2981 H   0  0  0  0  0  0  0  0  0  0  0  0
  151.7884  142.7935  157.1777 H   0  0  0  0  0  0  0  0  0  0  0  0
  150.8572  144.0306  158.0118 H   0  0  0  0  0  0  0  0  0  0  0  0
  153.0671  143.8224  159.0404 H   0  0  0  0  0  0  0  0  0  0  0  0
  151.1932  144.4009  160.5291 H   0  0  0  0  0  0  0  0  0  0  0  0
  150.8964  142.7150  160.8677 H   0  0  0  0  0  0  0  0  0  0  0  0
  153.4171  144.2916  161.5749 H   0  0  0  0  0  0  0  0  0  0  0  0
  152.2133  143.7101  162.6995 H   0  0  0  0  0  0  0  0  0  0  0  0
  154.2343  142.2334  162.6592 H   0  0  0  0  0  0  0  0  0  0  0  0
  152.7937  141.3637  162.1943 H   0  0  0  0  0  0  0  0  0  0  0  0
  154.9049  142.5085  160.3048 H   0  0  0  0  0  0  0  0  0  0  0  0
  154.6611  140.8206  160.6483 H   0  0  0  0  0  0  0  0  0  0  0  0
  153.6651  141.5658  158.4550 H   0  0  0  0  0  0  0  0  0  0  0  0
  151.5223  140.6521  160.2915 H   0  0  0  0  0  0  0  0  0  0  0  0
  151.6550  137.4713  159.4189 H   0  0  0  0  0  0  0  0  0  0  0  0
  150.6756  138.7114  160.1185 H   0  0  0  0  0  0  0  0  0  0  0  0
  150.5937  140.0999  157.3968 H   0  0  0  0  0  0  0  0  0  0  0  0
  147.6070  137.8947  155.2441 H   0  0  0  0  0  0  0  0  0  0  0  0
  146.2374  134.8256  155.6652 H   0  0  0  0  0  0  0  0  0  0  0  0
  146.7348  136.4391  155.2031 H   0  0  0  0  0  0  0  0  0  0  0  0
  1  2  1  0  0  0  0
  1 25  1  0  0  0  0
  1 26  1  0  0  0  0
  1 27  1  0  0  0  0
  2  7  1  0  0  0  0
  2  3  1  0  0  0  0
  2 28  1  0  0  0  0
  3  4  1  0  0  0  0
  3 29  1  0  0  0  0
  3 30  1  0  0  0  0
  4  5  1  0  0  0  0
  4 31  1  0  0  0  0
  4 32  1  0  0  0  0
  5  6  1  0  0  0  0
  5 33  1  0  0  0  0
  5 34  1  0  0  0  0
  6  7  1  0  0  0  0
  6 35  1  0  0  0  0
  6 36  1  0  0  0  0
  7  8  1  0  0  0  0
  7 37  1  0  0  0  0
  8  9  1  0  0  0  0
  8 38  1  0  0  0  0
  9 10  2  0  0  0  0
  9 11  1  0  0  0  0
 11 12  1  0  0  0  0
 11 39  1  0  0  0  0
 11 40  1  0  0  0  0
 12 23  1  0  0  0  0
 12 13  1  0  0  0  0
 13 14  2  0  0  0  0
 13 41  1  0  0  0  0
 14 15  1  0  0  0  0
 14 18  1  0  0  0  0
 15 16  2  0  0  0  0
 15 17  1  0  0  0  0
 18 19  2  0  0  0  0
 18 42  1  0  0  0  0
 19 20  1  0  0  0  0
 19 23  1  0  0  0  0
 20 21  1  0  0  0  0
 20 22  2  0  0  0  0
 21 43  1  0  0  0  0
 21 44  1  0  0  0  0
 23 24  2  0  0  0  0
M  CHG  1  15   1
M  CHG  1  17  -1
M  END
> <s_m_source_file>
AV-unprocessed.smi

> <i_m_source_file_index>
445

> <i_lp_mmshare_version>
43012

> <i_f3d_flags>
0

> <s_epik_input>
W0NIM11bQ0BASF0xW0NIMl1bQ0gyXVtDSDJdW0NIMl1bQ0BIXTFbTkhdQyg9TylbQ0gyXW4yW2NIXWMoW04rXSg9TylbTy1dKVtjSF1jKGMyPU8pQyg9TylbTkgyXQ==

> <s_epik_cmdline>
J2VwaWtfcHl0aG9uJywgJy1waCcsICc3LjAnLCAnLXRuJywgJzgnLCAnLW1hJywgJzIwMCcsICctbWV0YWxfYmluZGluZycsICctaW1hZScsICc8aW5maWxlLm1hZT4nLCAnLW9tYWUnLCAnPG91dGZpbGUubWFlPic=

> <r_lp_tautomer_probability>
1

> <r_epik_Ionization_Penalty>
2.81321e-06

> <r_epik_Ionization_Penalty_Charging>
2.43777e-12

> <r_epik_Ionization_Penalty_Neutral>
2.81321e-06

> <r_epik_State_Penalty>
-0

> <r_epik_Charging_Adjusted_Penalty>
2.43777e-12

> <i_epik_Tot_Q>
0

> <i_epik_Tot_abs_Q>
2

> <r_epik_Metal_State_Penalty>
-0

> <b_epik_Metal_Only>
0

> <s_lp_Force_Field>
OPLS_2005

> <r_lp_Energy>
28.4442

> <b_lp_Chiralities_Consistent>
1

> <s_lp_Variant>
AV-unprocessed.smi:445-2

> <Gold.Version>
5.8.1

> <Gold.Id.Protein>
6NUR|6NUR_protein|mol2

> <Gold.PLP.Fitness>
42.8151

> <Gold.PLP.PLP>
-35.3421

> <Gold.PLP.part.hbond>
-2.8815

> <Gold.PLP.part.metal>
0.0000

> <Gold.PLP.part.buried>
-5.7814

> <Gold.PLP.part.nonpolar>
-26.3310

> <Gold.PLP.part.repulsive>
0.7562

> <Gold.PLP.ligand.clash>
0.0000

> <Gold.PLP.ligand.torsion>
0.7649

> <Gold.PLP.Chemscore.Hbond>
2.9920

> <Gold.PLP.Chemscore.CHOScore>
0.0000

> <Gold.PLP.Chemscore.Metal>
0.0000

> <Gold.Chemscore.Hbonds>
donor molecule, donor type, donor heavy atom, donor atom, acceptor molecule, acceptor atom, score
      P1  H  6896  6908       L1    24  1.00
      P1  H  7989  7998       L1    16  0.13
      P1  H  7997  8010       L1    10  1.00

> <Gold.PLP.Chemscore.Internal.Correction>
0.0268

> <Gold.Rescore>
     Score         DG    S(hbond)    S(metal)    S(lipo)     H(rot)  DE(clash)    DE(int)     intcor
     19.21     -21.58       2.96        0.00      90.69       1.71       0.01       2.37       ----

> <Gold.Chemscore.Fitness>
19.2062

> <Gold.Chemscore.DG>
-21.5840

> <Gold.Chemscore.ZeroCoef>
-5.4800

> <Gold.Chemscore.Hbond>
2.9572

> <Gold.Chemscore.Metal>
0.0000

> <Gold.Chemscore.Lipo>
90.6880

> <Gold.Chemscore.Internal_Hbond>
0.0000

> <Gold.Chemscore.DEClash>
0.0103

> <Gold.Chemscore.DEInternal>
2.3675

> <Gold.Chemscore.Rot>
1.7123

> <Gold.Chemscore.Internal.Correction>
   9.000000E+99

> <Gold.Chemscore.Hbonds>
donor molecule, donor type, donor heavy atom, donor atom, acceptor molecule, acceptor atom, score
      P1  H  6896  6908       L1    24  0.97
      P1  H  7989  7998       L1    16  0.13
      P1  H  7997  8010       L1    10  0.96

> <Gold.Chemscore.Hbond.Weighted>
-9.8770

> <Gold.Chemscore.Metal.Weighted>
-0.0000

> <Gold.Chemscore.Lipo.Weighted>
-10.6105

> <Gold.Chemscore.Internal_Hbond.Weighted>
0.0000

> <Gold.Chemscore.DEClash.Weighted>
0.0103

> <Gold.Chemscore.DEInternal.Weighted>
2.3675

> <Gold.Chemscore.Rot.Weighted>
4.3835

> <Gold.Chemscore.Internal.Correction.Weighted>
   9.000000E+99

> <Gold.Protein.RotatedTorsions>
[ 6907 6896 6895 6894 ] final  171.49 input  -60.11 | X-H torsion
[ 7974 7965 7964 7962 ] final   17.57 input  175.53 | X-H torsion
[ 8008 7997 7996 7995 ] final   55.18 input   59.86 | X-H torsion
[ 10167 10162 10161 10158 ] final -171.63 input  -65.29 | X-H torsion
[ 10718 10713 10712 10709 ] final  -56.48 input   66.30 | X-H torsion
[ 10763 10752 10751 10750 ] final  174.58 input  -60.55 | X-H torsion
[ 11005 11000 10999 10996 ] final    5.14 input  -57.11 | X-H torsion

> <Gold.Protein.ActiveResidues>
 VAL166  LYS551  ARG553  GLY616  TRP617  ASP618  TYR619  PRO620  LYS621  CYS622 
 ASP623  PHE694  ASN695  SER759  ASP760  ASP761  ALA762  ILE779  LEU786  VAL792 
 PHE793  MET794  SER795  GLU796  ALA797  LYS798  CYS799  TRP800  GLU811  SER814 

> <Gold.Protein.RotatedAtoms>
  151.7994  133.3368  159.3522 H   0  0  0  0  0  0  0  0  0  0  0  0  # atno 6907 bound_to 6896
  150.7363  134.5767  159.5927 H   0  0  0  0  0  0  0  0  0  0  0  0  # atno 6908 bound_to 6896
  152.3153  134.7448  160.0378 H   0  0  0  0  0  0  0  0  0  0  0  0  # atno 6909 bound_to 6896
  146.2214  139.8583  142.8609 H   0  0  0  0  0  0  0  0  0  0  0  0  # atno 7974 bound_to 7965
  155.4968  140.3473  155.4364 H   0  0  0  0  0  0  0  0  0  0  0  0  # atno 8008 bound_to 7997
  156.0940  140.1418  156.9583 H   0  0  0  0  0  0  0  0  0  0  0  0  # atno 8009 bound_to 7997
  154.4652  140.0920  156.6978 H   0  0  0  0  0  0  0  0  0  0  0  0  # atno 8010 bound_to 7997
  139.5791  144.1464  152.1491 H   0  0  0  0  0  0  0  0  0  0  0  0  # atno 10167 bound_to 10162
  156.1286  130.4161  150.0310 H   0  0  0  0  0  0  0  0  0  0  0  0  # atno 10718 bound_to 10713
  154.4558  135.2766  155.1748 H   0  0  0  0  0  0  0  0  0  0  0  0  # atno 10763 bound_to 10752
  154.3556  135.6140  153.5668 H   0  0  0  0  0  0  0  0  0  0  0  0  # atno 10764 bound_to 10752
  152.9850  135.5822  154.4911 H   0  0  0  0  0  0  0  0  0  0  0  0  # atno 10765 bound_to 10752
  140.5740  134.0075  155.8020 H   0  0  0  0  0  0  0  0  0  0  0  0  # atno 11005 bound_to 11000
  145.2730  141.0115  143.3761 LP  0  0  0  0  0  0  0  0  0  0  0  0  # atno 17320 bound_to 7965
  144.9208  139.4414  143.6542 LP  0  0  0  0  0  0  0  0  0  0  0  0  # atno 17321 bound_to 7965
  140.1013  144.5537  150.6987 LP  0  0  0  0  0  0  0  0  0  0  0  0  # atno 17342 bound_to 10162
  140.7071  143.2476  151.4693 LP  0  0  0  0  0  0  0  0  0  0  0  0  # atno 17343 bound_to 10162
  156.8229  130.9365  151.3640 LP  0  0  0  0  0  0  0  0  0  0  0  0  # atno 17370 bound_to 10713
  157.6465  130.8849  149.9549 LP  0  0  0  0  0  0  0  0  0  0  0  0  # atno 17371 bound_to 10713
  141.1038  133.9726  157.3033 LP  0  0  0  0  0  0  0  0  0  0  0  0  # atno 17394 bound_to 11000
  139.9348  135.0197  156.8520 LP  0  0  0  0  0  0  0  0  0  0  0  0  # atno 17395 bound_to 11000

$$$$
