AV-unprocessed.smi:473|AV-procd|sdf|2661|dock7
  -GOLD-   2262023 73D 1   1.00000     0.00000
 Structure written by MMmdl.
 42 44  0  0  0  0  0  0  0  0  1 V2000
  152.9875  142.9935  161.8305 C   0  0  0  0  0  0  0  0  0  0  0  0
  152.3711  142.6406  160.4883 C   0  0  0  0  0  0  0  0  0  0  0  0
  152.4101  141.2990  160.0459 C   0  0  0  0  0  0  0  0  0  0  0  0
  151.8457  140.9287  158.8055 C   0  0  0  0  0  0  0  0  0  0  0  0
  151.7705  139.6936  158.1844 N   0  0  0  0  0  0  0  0  0  0  0  0
  151.1307  139.9986  157.0590 C   0  0  0  0  0  0  0  0  0  0  0  0
  150.7823  141.2870  156.8773 N   0  0  0  0  0  0  0  0  0  0  0  0
  150.0849  141.8580  155.7389 C   0  0  0  0  0  0  0  0  0  0  0  0
  149.3857  140.7876  154.8785 C   0  0  2  0  0  0  0  0  0  0  0  0
  149.5823  141.0970  153.5123 O   0  0  0  0  0  0  0  0  0  0  0  0
  147.8758  140.7248  155.1572 C   0  0  0  0  0  0  0  0  0  0  0  0
  147.3055  142.0026  154.9064 O   0  0  0  0  0  0  0  0  0  0  0  0
  145.8993  142.0609  155.1103 C   0  0  0  0  0  0  0  0  0  0  0  0
  145.3543  143.2670  154.4085 C   0  0  0  0  0  0  0  0  0  0  0  0
  145.5761  143.8069  153.1719 C   0  0  0  0  0  0  0  0  0  0  0  0
  144.7441  144.9566  153.0790 C   0  0  0  0  0  0  0  0  0  0  0  0
  144.0684  145.0292  154.2635 C   0  0  0  0  0  0  0  0  0  0  0  0
  144.4251  144.0040  155.0839 O   0  0  0  0  0  0  0  0  0  0  0  0
  151.2380  141.9462  158.0132 C   0  0  0  0  0  0  0  0  0  0  0  0
  151.1939  143.2845  158.4417 C   0  0  0  0  0  0  0  0  0  0  0  0
  151.7612  143.6369  159.6842 C   0  0  0  0  0  0  0  0  0  0  0  0
  151.7050  145.0841  160.1403 C   0  0  0  0  0  0  0  0  0  0  0  0
  153.4107  142.1147  162.3176 H   0  0  0  0  0  0  0  0  0  0  0  0
  152.2350  143.4156  162.4970 H   0  0  0  0  0  0  0  0  0  0  0  0
  153.7873  143.7233  161.7036 H   0  0  0  0  0  0  0  0  0  0  0  0
  152.8738  140.5397  160.6581 H   0  0  0  0  0  0  0  0  0  0  0  0
  150.8995  139.2411  156.3242 H   0  0  0  0  0  0  0  0  0  0  0  0
  149.3537  142.5732  156.1180 H   0  0  0  0  0  0  0  0  0  0  0  0
  150.7966  142.4274  155.1392 H   0  0  0  0  0  0  0  0  0  0  0  0
  149.8342  139.8156  155.0887 H   0  0  0  0  0  0  0  0  0  0  0  0
  149.3248  140.3498  152.9948 H   0  0  0  0  0  0  0  0  0  0  0  0
  147.4171  139.9944  154.4893 H   0  0  0  0  0  0  0  0  0  0  0  0
  147.6746  140.3946  156.1778 H   0  0  0  0  0  0  0  0  0  0  0  0
  145.4085  141.1473  154.7713 H   0  0  0  0  0  0  0  0  0  0  0  0
  145.7092  142.1495  156.1799 H   0  0  0  0  0  0  0  0  0  0  0  0
  146.2560  143.4218  152.4264 H   0  0  0  0  0  0  0  0  0  0  0  0
  144.6494  145.6418  152.2494 H   0  0  0  0  0  0  0  0  0  0  0  0
  143.3320  145.7082  154.6677 H   0  0  0  0  0  0  0  0  0  0  0  0
  150.7246  144.0321  157.8192 H   0  0  0  0  0  0  0  0  0  0  0  0
  151.2229  145.7176  159.3951 H   0  0  0  0  0  0  0  0  0  0  0  0
  152.7099  145.4718  160.3087 H   0  0  0  0  0  0  0  0  0  0  0  0
  151.1398  145.1697  161.0686 H   0  0  0  0  0  0  0  0  0  0  0  0
  1  2  1  0  0  0  0
  1 23  1  0  0  0  0
  1 24  1  0  0  0  0
  1 25  1  0  0  0  0
  2 21  1  0  0  0  0
  2  3  2  0  0  0  0
  3  4  1  0  0  0  0
  3 26  1  0  0  0  0
  4 19  2  0  0  0  0
  4  5  1  0  0  0  0
  5  6  2  0  0  0  0
  6  7  1  0  0  0  0
  6 27  1  0  0  0  0
  7  8  1  0  0  0  0
  7 19  1  0  0  0  0
  8  9  1  0  0  0  0
  8 28  1  0  0  0  0
  8 29  1  0  0  0  0
  9 10  1  0  0  0  0
  9 11  1  0  0  0  0
  9 30  1  0  0  0  0
 10 31  1  0  0  0  0
 11 12  1  0  0  0  0
 11 32  1  0  0  0  0
 11 33  1  0  0  0  0
 12 13  1  0  0  0  0
 13 14  1  0  0  0  0
 13 34  1  0  0  0  0
 13 35  1  0  0  0  0
 14 18  1  0  0  0  0
 14 15  2  0  0  0  0
 15 16  1  0  0  0  0
 15 36  1  0  0  0  0
 16 17  2  0  0  0  0
 16 37  1  0  0  0  0
 17 18  1  0  0  0  0
 17 38  1  0  0  0  0
 19 20  1  0  0  0  0
 20 21  2  0  0  0  0
 20 39  1  0  0  0  0
 21 22  1  0  0  0  0
 22 40  1  0  0  0  0
 22 41  1  0  0  0  0
 22 42  1  0  0  0  0
M  END
> <s_m_source_file>
AV-unprocessed.smi

> <i_m_source_file_index>
473

> <i_lp_mmshare_version>
43012

> <i_f3d_flags>
0

> <s_epik_input>
W0NIM11jKFtjSF0xKWMoW0NIM10pW2NIXWMoYzEyKW4oW2NIXW4yKVtDSDJdW0NASF0oW09IXSlbQ0gyXU9bQ0gyXWMzW2NIXVtjSF1bY0hdbzM=

> <s_epik_cmdline>
J2VwaWtfcHl0aG9uJywgJy1waCcsICc3LjAnLCAnLXRuJywgJzgnLCAnLW1hJywgJzIwMCcsICctbWV0YWxfYmluZGluZycsICctaW1hZScsICc8aW5maWxlLm1hZT4nLCAnLW9tYWUnLCAnPG91dGZpbGUubWFlPic=

> <r_epik_Ionization_Penalty>
0.112477

> <r_epik_Ionization_Penalty_Charging>
0

> <r_epik_Ionization_Penalty_Neutral>
0.112477

> <r_epik_State_Penalty>
0.102177

> <r_epik_Charging_Adjusted_Penalty>
0.102177

> <i_epik_Tot_Q>
0

> <i_epik_Tot_abs_Q>
0

> <r_epik_Metal_State_Penalty>
0.000111506

> <b_epik_Metal_Only>
0

> <s_lp_Force_Field>
OPLS_2005

> <r_lp_Energy>
9.85232

> <b_lp_Chiralities_Consistent>
1

> <s_lp_Variant>
AV-unprocessed.smi:473-1

> <Gold.Version>
5.8.1

> <Gold.Id.Protein>
6NUR|6NUR_protein|mol2

> <Gold.PLP.Fitness>
54.7897

> <Gold.PLP.PLP>
-51.6809

> <Gold.PLP.part.hbond>
-3.0000

> <Gold.PLP.part.metal>
0.0000

> <Gold.PLP.part.buried>
-6.9899

> <Gold.PLP.part.nonpolar>
-42.2899

> <Gold.PLP.part.repulsive>
0.2891

> <Gold.PLP.ligand.clash>
0.0000

> <Gold.PLP.ligand.torsion>
1.1148

> <Gold.PLP.Chemscore.Hbond>
1.7456

> <Gold.PLP.Chemscore.CHOScore>
0.0000

> <Gold.PLP.Chemscore.Metal>
0.0000

> <Gold.Chemscore.Hbonds>
donor molecule, donor type, donor heavy atom, donor atom, acceptor molecule, acceptor atom, score
      L1  H    10    31       P1  7957  0.56
      P1  H  7989  7998       L1    10  0.21
      P1  H  8011  8017       L1    10  1.00

> <Gold.PLP.Chemscore.Internal.Correction>
0.1016

> <Gold.Rescore>
     Score         DG    S(hbond)    S(metal)    S(lipo)     H(rot)  DE(clash)    DE(int)     intcor
     18.37     -19.55       1.28        0.00     136.38       2.41       0.18       0.99       ----

> <Gold.Chemscore.Fitness>
18.3742

> <Gold.Chemscore.DG>
-19.5480

> <Gold.Chemscore.ZeroCoef>
-5.4800

> <Gold.Chemscore.Hbond>
1.2804

> <Gold.Chemscore.Metal>
0.0000

> <Gold.Chemscore.Lipo>
136.3828

> <Gold.Chemscore.Internal_Hbond>
0.0000

> <Gold.Chemscore.DEClash>
0.1807

> <Gold.Chemscore.DEInternal>
0.9931

> <Gold.Chemscore.Rot>
2.4083

> <Gold.Chemscore.Internal.Correction>
   9.000000E+99

> <Gold.Chemscore.Hbonds>
donor molecule, donor type, donor heavy atom, donor atom, acceptor molecule, acceptor atom, score
      L1  H    10    31       P1  7957  0.56
      P1  H  7989  7998       L1    10  0.01
      P1  H  8011  8017       L1    10  0.48

> <Gold.Chemscore.Hbond.Weighted>
-4.2765

> <Gold.Chemscore.Metal.Weighted>
-0.0000

> <Gold.Chemscore.Lipo.Weighted>
-15.9568

> <Gold.Chemscore.Internal_Hbond.Weighted>
0.0000

> <Gold.Chemscore.DEClash.Weighted>
0.1807

> <Gold.Chemscore.DEInternal.Weighted>
0.9931

> <Gold.Chemscore.Rot.Weighted>
6.1653

> <Gold.Chemscore.Internal.Correction.Weighted>
   9.000000E+99

> <Gold.Protein.RotatedTorsions>
[ 6907 6896 6895 6894 ] final  -99.60 input  -60.11 | X-H torsion
[ 7974 7965 7964 7962 ] final -120.71 input  175.53 | X-H torsion
[ 8008 7997 7996 7995 ] final   65.03 input   59.86 | X-H torsion
[ 10167 10162 10161 10158 ] final  130.88 input  -65.29 | X-H torsion
[ 10718 10713 10712 10709 ] final  159.04 input   66.30 | X-H torsion
[ 10763 10752 10751 10750 ] final -150.80 input  -60.55 | X-H torsion
[ 11005 11000 10999 10996 ] final -102.11 input  -57.11 | X-H torsion

> <Gold.Protein.ActiveResidues>
 VAL166  LYS551  ARG553  GLY616  TRP617  ASP618  TYR619  PRO620  LYS621  CYS622 
 ASP623  PHE694  ASN695  SER759  ASP760  ASP761  ALA762  ILE779  LEU786  VAL792 
 PHE793  MET794  SER795  GLU796  ALA797  LYS798  CYS799  TRP800  GLU811  SER814 

> <Gold.Protein.RotatedAtoms>
  150.7086  134.1015  159.3967 H   0  0  0  0  0  0  0  0  0  0  0  0  # atno 6907 bound_to 6896
  151.9001  135.0379  160.0515 H   0  0  0  0  0  0  0  0  0  0  0  0  # atno 6908 bound_to 6896
  152.2421  133.5108  159.5313 H   0  0  0  0  0  0  0  0  0  0  0  0  # atno 6909 bound_to 6896
  145.0484  140.8199  143.4224 H   0  0  0  0  0  0  0  0  0  0  0  0  # atno 7974 bound_to 7965
  155.6554  140.3497  155.4763 H   0  0  0  0  0  0  0  0  0  0  0  0  # atno 8008 bound_to 7997
  155.9813  140.1175  157.0747 H   0  0  0  0  0  0  0  0  0  0  0  0  # atno 8009 bound_to 7997
  154.4192  140.1137  156.5425 H   0  0  0  0  0  0  0  0  0  0  0  0  # atno 8010 bound_to 7997
  139.5409  144.6729  151.4628 H   0  0  0  0  0  0  0  0  0  0  0  0  # atno 10167 bound_to 10162
  157.1696  131.0607  151.2190 H   0  0  0  0  0  0  0  0  0  0  0  0  # atno 10718 bound_to 10713
  154.8097  135.3275  154.7338 H   0  0  0  0  0  0  0  0  0  0  0  0  # atno 10763 bound_to 10752
  153.7990  135.6905  153.4863 H   0  0  0  0  0  0  0  0  0  0  0  0  # atno 10764 bound_to 10752
  153.1866  135.4566  155.0043 H   0  0  0  0  0  0  0  0  0  0  0  0  # atno 10765 bound_to 10752
  141.1203  133.8532  157.1318 H   0  0  0  0  0  0  0  0  0  0  0  0  # atno 11005 bound_to 11000
  145.1559  139.2487  143.5417 LP  0  0  0  0  0  0  0  0  0  0  0  0  # atno 17320 bound_to 7965
  146.3516  140.1273  142.8598 LP  0  0  0  0  0  0  0  0  0  0  0  0  # atno 17321 bound_to 7965
  140.6639  143.8441  150.6919 LP  0  0  0  0  0  0  0  0  0  0  0  0  # atno 17342 bound_to 10162
  140.1844  143.4088  152.1910 LP  0  0  0  0  0  0  0  0  0  0  0  0  # atno 17343 bound_to 10162
  157.4056  130.7357  149.6800 LP  0  0  0  0  0  0  0  0  0  0  0  0  # atno 17370 bound_to 10713
  155.9740  130.4109  150.3954 LP  0  0  0  0  0  0  0  0  0  0  0  0  # atno 17371 bound_to 10713
  140.0155  134.9969  157.0485 LP  0  0  0  0  0  0  0  0  0  0  0  0  # atno 17394 bound_to 11000
  140.4527  134.1566  155.7183 LP  0  0  0  0  0  0  0  0  0  0  0  0  # atno 17395 bound_to 11000

$$$$
