AV-unprocessed.smi:671|AV-procd|sdf|3280|dock4
  -GOLD-   22720 0243D 1   1.00000     0.00000
 Structure written by MMmdl.
 49 50  0  0  0  0  0  0  0  0  1 V2000
  146.8045  140.3171  157.5646 C   0  0  0  0  0  0  0  0  0  0  0  0
  146.2298  141.3451  156.6326 C   0  0  0  0  0  0  0  0  0  0  0  0
  145.1558  142.0237  157.0009 N   0  0  0  0  0  0  0  0  0  0  0  0
  144.8973  142.8488  155.9666 N   0  0  0  0  0  0  0  0  0  0  0  0
  143.7618  143.7475  156.0436 C   0  0  0  0  0  0  0  0  0  0  0  0
  145.8067  142.6868  154.9395 C   0  0  0  0  0  0  0  0  0  0  0  0
  145.7352  143.4819  153.6754 C   0  0  0  0  0  0  0  0  0  0  0  0
  146.6917  141.7206  155.3369 C   0  0  0  0  0  0  0  0  0  0  0  0
  147.8788  141.1746  154.5862 C   0  0  0  0  0  0  0  0  0  0  0  0
  149.0545  140.8218  155.5242 C   0  0  1  0  0  0  0  0  0  0  0  0
  150.1750  140.0577  154.8015 C   0  0  0  0  0  0  0  0  0  0  0  0
  149.6187  142.0350  156.1211 N   0  0  0  0  0  0  0  0  0  0  0  0
  150.7043  142.1468  156.9088 C   0  0  0  0  0  0  0  0  0  0  0  0
  151.3866  141.1713  157.2162 O   0  0  0  0  0  0  0  0  0  0  0  0
  150.9791  143.4001  157.3069 N   0  0  0  0  0  0  0  0  0  0  0  0
  152.0931  143.7970  158.1621 C   0  0  1  0  0  0  0  0  0  0  0  0
  151.8845  145.2378  158.6627 C   0  0  0  0  0  0  0  0  0  0  0  0
  151.4995  145.1163  160.1361 C   0  0  0  0  0  0  0  0  0  0  0  0
  152.2547  143.8787  160.6081 C   0  0  0  0  0  0  0  0  0  0  0  0
  152.1720  142.9075  159.4249 C   0  0  2  0  0  0  0  0  0  0  0  0
  153.3226  141.8925  159.3940 C   0  0  0  0  0  0  0  0  0  0  0  0
  146.4937  139.3136  157.2746 H   0  0  0  0  0  0  0  0  0  0  0  0
  146.4824  140.4811  158.5934 H   0  0  0  0  0  0  0  0  0  0  0  0
  147.8939  140.3429  157.5548 H   0  0  0  0  0  0  0  0  0  0  0  0
  142.9400  143.3484  155.4493 H   0  0  0  0  0  0  0  0  0  0  0  0
  144.0378  144.7288  155.6575 H   0  0  0  0  0  0  0  0  0  0  0  0
  143.4316  143.8599  157.0772 H   0  0  0  0  0  0  0  0  0  0  0  0
  146.4600  143.1265  152.9440 H   0  0  0  0  0  0  0  0  0  0  0  0
  145.9445  144.5341  153.8682 H   0  0  0  0  0  0  0  0  0  0  0  0
  144.7452  143.4093  153.2248 H   0  0  0  0  0  0  0  0  0  0  0  0
  147.6015  140.2915  154.0096 H   0  0  0  0  0  0  0  0  0  0  0  0
  148.2050  141.9040  153.8444 H   0  0  0  0  0  0  0  0  0  0  0  0
  148.6913  140.1758  156.3254 H   0  0  0  0  0  0  0  0  0  0  0  0
  149.8169  139.1095  154.4001 H   0  0  0  0  0  0  0  0  0  0  0  0
  150.9964  139.8305  155.4820 H   0  0  0  0  0  0  0  0  0  0  0  0
  150.5812  140.6380  153.9722 H   0  0  0  0  0  0  0  0  0  0  0  0
  149.1603  142.8985  155.8679 H   0  0  0  0  0  0  0  0  0  0  0  0
  150.3626  144.1368  156.9968 H   0  0  0  0  0  0  0  0  0  0  0  0
  153.0267  143.7605  157.5974 H   0  0  0  0  0  0  0  0  0  0  0  0
  152.8263  145.7825  158.5851 H   0  0  0  0  0  0  0  0  0  0  0  0
  151.1457  145.7970  158.0870 H   0  0  0  0  0  0  0  0  0  0  0  0
  151.7505  146.0079  160.7110 H   0  0  0  0  0  0  0  0  0  0  0  0
  150.4252  144.9501  160.2256 H   0  0  0  0  0  0  0  0  0  0  0  0
  153.2940  144.1436  160.8076 H   0  0  0  0  0  0  0  0  0  0  0  0
  151.8382  143.4585  161.5239 H   0  0  0  0  0  0  0  0  0  0  0  0
  151.2361  142.3553  159.5294 H   0  0  0  0  0  0  0  0  0  0  0  0
  154.2883  142.3895  159.3014 H   0  0  0  0  0  0  0  0  0  0  0  0
  153.2174  141.2095  158.5510 H   0  0  0  0  0  0  0  0  0  0  0  0
  153.3408  141.2941  160.3053 H   0  0  0  0  0  0  0  0  0  0  0  0
  1  2  1  0  0  0  0
  1 22  1  0  0  0  0
  1 23  1  0  0  0  0
  1 24  1  0  0  0  0
  2  8  1  0  0  0  0
  2  3  2  0  0  0  0
  3  4  1  0  0  0  0
  4  5  1  0  0  0  0
  4  6  1  0  0  0  0
  5 25  1  0  0  0  0
  5 26  1  0  0  0  0
  5 27  1  0  0  0  0
  6  7  1  0  0  0  0
  6  8  2  0  0  0  0
  7 28  1  0  0  0  0
  7 29  1  0  0  0  0
  7 30  1  0  0  0  0
  8  9  1  0  0  0  0
  9 10  1  0  0  0  0
  9 31  1  0  0  0  0
  9 32  1  0  0  0  0
 10 11  1  0  0  0  0
 10 12  1  0  0  0  0
 10 33  1  0  0  0  0
 11 34  1  0  0  0  0
 11 35  1  0  0  0  0
 11 36  1  0  0  0  0
 12 13  1  0  0  0  0
 12 37  1  0  0  0  0
 13 14  2  0  0  0  0
 13 15  1  0  0  0  0
 15 16  1  0  0  0  0
 15 38  1  0  0  0  0
 16 20  1  0  0  0  0
 16 17  1  0  0  0  0
 16 39  1  0  0  0  0
 17 18  1  0  0  0  0
 17 40  1  0  0  0  0
 17 41  1  0  0  0  0
 18 19  1  0  0  0  0
 18 42  1  0  0  0  0
 18 43  1  0  0  0  0
 19 20  1  0  0  0  0
 19 44  1  0  0  0  0
 19 45  1  0  0  0  0
 20 21  1  0  0  0  0
 20 46  1  0  0  0  0
 21 47  1  0  0  0  0
 21 48  1  0  0  0  0
 21 49  1  0  0  0  0
M  END
> <s_m_source_file>
AV-unprocessed.smi

> <i_m_source_file_index>
671

> <i_lp_mmshare_version>
43012

> <i_f3d_flags>
0

> <s_epik_input>
W0NIM11jMW5uKFtDSDNdKWMoW0NIM10pYzFbQ0gyXVtDQEhdKFtDSDNdKVtOSF1DKD1PKVtOSF1bQ0BASF0yW0NIMl1bQ0gyXVtDSDJdW0NASF0yW0NIM10=

> <s_epik_cmdline>
J2VwaWtfcHl0aG9uJywgJy1waCcsICc3LjAnLCAnLXRuJywgJzgnLCAnLW1hJywgJzIwMCcsICctbWV0YWxfYmluZGluZycsICctaW1hZScsICc8aW5maWxlLm1hZT4nLCAnLW9tYWUnLCAnPG91dGZpbGUubWFlPic=

> <r_lp_tautomer_probability>
1

> <r_epik_Ionization_Penalty>
0.0126855

> <r_epik_Ionization_Penalty_Charging>
0

> <r_epik_Ionization_Penalty_Neutral>
0.0126855

> <r_epik_State_Penalty>
0.00977547

> <r_epik_Charging_Adjusted_Penalty>
0.00977547

> <i_epik_Tot_Q>
0

> <i_epik_Tot_abs_Q>
0

> <r_epik_Metal_State_Penalty>
0.00957132

> <b_epik_Metal_Only>
0

> <s_lp_Force_Field>
OPLS_2005

> <r_lp_Energy>
22.0213

> <b_lp_Chiralities_Consistent>
1

> <s_lp_Variant>
AV-unprocessed.smi:671-8

> <Gold.Version>
5.8.1

> <Gold.Id.Protein>
6NUR|6NUR_protein|mol2

> <Gold.PLP.Fitness>
51.6434

> <Gold.PLP.PLP>
-46.7772

> <Gold.PLP.part.hbond>
-2.0000

> <Gold.PLP.part.metal>
0.0000

> <Gold.PLP.part.buried>
-7.4008

> <Gold.PLP.part.nonpolar>
-37.9693

> <Gold.PLP.part.repulsive>
0.1524

> <Gold.PLP.ligand.clash>
0.0000

> <Gold.PLP.ligand.torsion>
0.5680

> <Gold.PLP.Chemscore.Hbond>
1.9833

> <Gold.PLP.Chemscore.CHOScore>
0.0000

> <Gold.PLP.Chemscore.Metal>
0.0000

> <Gold.Chemscore.Hbonds>
donor molecule, donor type, donor heavy atom, donor atom, acceptor molecule, acceptor atom, score
      L1  H    12    37       P1  8028  1.00
      L1  H    15    38       P1  8028  0.90

> <Gold.PLP.Chemscore.Internal.Correction>
0.0523

> <Gold.Rescore>
     Score         DG    S(hbond)    S(metal)    S(lipo)     H(rot)  DE(clash)    DE(int)     intcor
     16.93     -21.28       1.94        0.00     111.48       1.45       0.04       4.31       ----

> <Gold.Chemscore.Fitness>
16.9292

> <Gold.Chemscore.DG>
-21.2782

> <Gold.Chemscore.ZeroCoef>
-5.4800

> <Gold.Chemscore.Hbond>
1.9362

> <Gold.Chemscore.Metal>
0.0000

> <Gold.Chemscore.Lipo>
111.4798

> <Gold.Chemscore.Internal_Hbond>
0.0000

> <Gold.Chemscore.DEClash>
0.0439

> <Gold.Chemscore.DEInternal>
4.3051

> <Gold.Chemscore.Rot>
1.4499

> <Gold.Chemscore.Internal.Correction>
   9.000000E+99

> <Gold.Chemscore.Hbonds>
donor molecule, donor type, donor heavy atom, donor atom, acceptor molecule, acceptor atom, score
      L1  H    12    37       P1  8028  1.00
      L1  H    15    38       P1  8028  0.79

> <Gold.Chemscore.Hbond.Weighted>
-6.4669

> <Gold.Chemscore.Metal.Weighted>
-0.0000

> <Gold.Chemscore.Lipo.Weighted>
-13.0431

> <Gold.Chemscore.Internal_Hbond.Weighted>
0.0000

> <Gold.Chemscore.DEClash.Weighted>
0.0439

> <Gold.Chemscore.DEInternal.Weighted>
4.3051

> <Gold.Chemscore.Rot.Weighted>
3.7118

> <Gold.Chemscore.Internal.Correction.Weighted>
   9.000000E+99

> <Gold.Protein.RotatedTorsions>
[ 6907 6896 6895 6894 ] final   37.72 input  -60.11 | X-H torsion
[ 7974 7965 7964 7962 ] final  -61.62 input  175.53 | X-H torsion
[ 8008 7997 7996 7995 ] final  -17.55 input   59.86 | X-H torsion
[ 10167 10162 10161 10158 ] final  -60.19 input  -65.29 | X-H torsion
[ 10718 10713 10712 10709 ] final   86.22 input   66.30 | X-H torsion
[ 10763 10752 10751 10750 ] final  117.64 input  -60.55 | X-H torsion
[ 11005 11000 10999 10996 ] final   66.34 input  -57.11 | X-H torsion

> <Gold.Protein.ActiveResidues>
 VAL166  LYS551  ARG553  GLY616  TRP617  ASP618  TYR619  PRO620  LYS621  CYS622 
 ASP623  PHE694  ASN695  SER759  ASP760  ASP761  ALA762  ILE779  LEU786  VAL792 
 PHE793  MET794  SER795  GLU796  ALA797  LYS798  CYS799  TRP800  GLU811  SER814 

> <Gold.Protein.RotatedAtoms>
  152.1470  134.9018  160.0550 H   0  0  0  0  0  0  0  0  0  0  0  0  # atno 6907 bound_to 6896
  152.0064  133.3840  159.4210 H   0  0  0  0  0  0  0  0  0  0  0  0  # atno 6908 bound_to 6896
  150.6871  134.3699  159.5031 H   0  0  0  0  0  0  0  0  0  0  0  0  # atno 6909 bound_to 6896
  145.8012  140.8654  143.0230 H   0  0  0  0  0  0  0  0  0  0  0  0  # atno 7974 bound_to 7965
  154.4970  140.2140  155.9425 H   0  0  0  0  0  0  0  0  0  0  0  0  # atno 8008 bound_to 7997
  156.1384  140.3184  155.8424 H   0  0  0  0  0  0  0  0  0  0  0  0  # atno 8009 bound_to 7997
  155.4167  140.0494  157.3019 H   0  0  0  0  0  0  0  0  0  0  0  0  # atno 8010 bound_to 7997
  140.6087  143.2381  151.5760 H   0  0  0  0  0  0  0  0  0  0  0  0  # atno 10167 bound_to 10162
  157.6926  131.0206  150.2939 H   0  0  0  0  0  0  0  0  0  0  0  0  # atno 10718 bound_to 10713
  153.5554  135.3531  155.2777 H   0  0  0  0  0  0  0  0  0  0  0  0  # atno 10763 bound_to 10752
  154.8701  135.4124  154.2890 H   0  0  0  0  0  0  0  0  0  0  0  0  # atno 10764 bound_to 10752
  153.3625  135.7060  153.6770 H   0  0  0  0  0  0  0  0  0  0  0  0  # atno 10765 bound_to 10752
  139.9838  134.6701  156.0214 H   0  0  0  0  0  0  0  0  0  0  0  0  # atno 11005 bound_to 11000
  144.6768  140.0262  143.7483 LP  0  0  0  0  0  0  0  0  0  0  0  0  # atno 17320 bound_to 7965
  145.9876  139.2989  143.1004 LP  0  0  0  0  0  0  0  0  0  0  0  0  # atno 17321 bound_to 7965
  139.5345  144.2821  152.1220 LP  0  0  0  0  0  0  0  0  0  0  0  0  # atno 17342 bound_to 10162
  140.2016  144.4652  150.6428 LP  0  0  0  0  0  0  0  0  0  0  0  0  # atno 17343 bound_to 10162
  156.3466  130.3824  149.7364 LP  0  0  0  0  0  0  0  0  0  0  0  0  # atno 17370 bound_to 10713
  156.4856  130.8061  151.3073 LP  0  0  0  0  0  0  0  0  0  0  0  0  # atno 17371 bound_to 10713
  141.1506  133.6549  156.4002 LP  0  0  0  0  0  0  0  0  0  0  0  0  # atno 17394 bound_to 11000
  140.5043  134.6455  157.5260 LP  0  0  0  0  0  0  0  0  0  0  0  0  # atno 17395 bound_to 11000

$$$$
