AV-unprocessed.smi:165|AV-procd|sdf|1387|dock9
  -GOLD-   2262019123D 1   1.00000     0.00000
 Structure written by MMmdl.
 55 59  0  0  0  0  0  0  0  0  1 V2000
  142.8010  132.4556  149.3244 O   0  0  0  0  0  0  0  0  0  0  0  0
  143.1768  132.5764  150.6809 C   0  0  0  0  0  0  0  0  0  0  0  0
  144.4603  133.4078  150.8542 C   0  0  0  0  0  0  0  0  0  0  0  0
  144.2744  134.7835  150.1799 C   0  0  0  0  0  0  0  0  0  0  0  0
  145.0312  135.7972  150.8090 O   0  0  0  0  0  0  0  0  0  0  0  0
  144.9677  133.4941  152.3122 C   0  0  0  0  0  0  0  0  0  0  0  0
  146.4031  133.3142  151.8155 C   0  0  0  0  0  0  0  0  0  0  0  0
  147.3874  132.6293  152.6068 N   0  0  0  0  0  0  0  0  0  0  0  0
  148.5648  133.1619  153.0833 C   0  0  0  0  0  0  0  0  0  0  0  0
  149.3027  132.3468  153.7856 N   0  0  0  0  0  0  0  0  0  0  0  0
  148.5783  131.1610  153.8007 C   0  0  0  0  0  0  0  0  0  0  0  0
  148.7965  129.8774  154.3757 C   0  0  0  0  0  0  0  0  0  0  0  0
  149.8936  129.5895  155.1197 N   0  0  0  0  0  0  0  0  0  0  0  0
  150.0416  130.2393  156.4165 C   0  0  0  0  0  0  0  0  0  0  0  0
  151.1411  129.5382  157.2264 C   0  0  0  0  0  0  0  0  0  0  0  0
  152.3482  129.4773  156.4680 O   0  0  0  0  0  0  0  0  0  0  0  0
  152.2516  128.8315  155.1906 C   0  0  1  0  0  0  0  0  0  0  0  0
  153.6102  129.0287  154.4927 C   0  0  0  0  0  0  0  0  0  0  0  0
  154.7105  128.2202  155.1901 C   0  0  0  0  0  0  0  0  0  0  0  0
  154.2925  126.7492  155.3172 C   0  0  0  0  0  0  0  0  0  0  0  0
  153.0530  126.6599  156.0086 O   0  0  0  0  0  0  0  0  0  0  0  0
  151.9819  127.3097  155.3308 C   0  0  0  0  0  0  0  0  0  0  0  0
  151.1437  129.5297  154.3703 C   0  0  0  0  0  0  0  0  0  0  0  0
  147.8517  128.9240  154.1576 N   0  0  0  0  0  0  0  0  0  0  0  0
  146.7619  129.2081  153.4387 C   0  0  0  0  0  0  0  0  0  0  0  0
  146.4249  130.3591  152.8543 N   0  0  0  0  0  0  0  0  0  0  0  0
  147.3734  131.3183  153.0585 C   0  0  0  0  0  0  0  0  0  0  0  0
  145.7923  132.6757  150.5674 C   0  0  0  0  0  0  0  0  0  0  0  0
  142.0871  133.0513  149.1560 H   0  0  0  0  0  0  0  0  0  0  0  0
  142.3465  133.0062  151.2422 H   0  0  0  0  0  0  0  0  0  0  0  0
  143.3166  131.5664  151.0676 H   0  0  0  0  0  0  0  0  0  0  0  0
  144.5506  134.7443  149.1257 H   0  0  0  0  0  0  0  0  0  0  0  0
  143.2297  135.0947  150.2059 H   0  0  0  0  0  0  0  0  0  0  0  0
  144.7222  136.6364  150.5043 H   0  0  0  0  0  0  0  0  0  0  0  0
  144.7802  134.4473  152.8075 H   0  0  0  0  0  0  0  0  0  0  0  0
  144.6300  132.6645  152.9348 H   0  0  0  0  0  0  0  0  0  0  0  0
  146.8320  134.2849  151.5598 H   0  0  0  0  0  0  0  0  0  0  0  0
  148.8647  134.1823  152.8936 H   0  0  0  0  0  0  0  0  0  0  0  0
  150.2997  131.2887  156.2684 H   0  0  0  0  0  0  0  0  0  0  0  0
  149.1013  130.2075  156.9685 H   0  0  0  0  0  0  0  0  0  0  0  0
  151.3354  130.0927  158.1443 H   0  0  0  0  0  0  0  0  0  0  0  0
  150.8253  128.5416  157.5335 H   0  0  0  0  0  0  0  0  0  0  0  0
  153.5386  128.7060  153.4531 H   0  0  0  0  0  0  0  0  0  0  0  0
  153.8785  130.0857  154.4697 H   0  0  0  0  0  0  0  0  0  0  0  0
  155.6439  128.2984  154.6323 H   0  0  0  0  0  0  0  0  0  0  0  0
  154.9027  128.6330  156.1812 H   0  0  0  0  0  0  0  0  0  0  0  0
  154.2084  126.2809  154.3354 H   0  0  0  0  0  0  0  0  0  0  0  0
  155.0469  126.1919  155.8727 H   0  0  0  0  0  0  0  0  0  0  0  0
  151.0534  127.1079  155.8629 H   0  0  0  0  0  0  0  0  0  0  0  0
  151.8593  126.8579  154.3451 H   0  0  0  0  0  0  0  0  0  0  0  0
  151.0165  129.0199  153.4158 H   0  0  0  0  0  0  0  0  0  0  0  0
  151.4447  130.5516  154.1348 H   0  0  0  0  0  0  0  0  0  0  0  0
  146.0590  128.3975  153.3151 H   0  0  0  0  0  0  0  0  0  0  0  0
  145.7005  131.5912  150.6415 H   0  0  0  0  0  0  0  0  0  0  0  0
  146.2821  132.9575  149.6349 H   0  0  0  0  0  0  0  0  0  0  0  0
  1  2  1  0  0  0  0
  1 29  1  0  0  0  0
  2  3  1  0  0  0  0
  2 30  1  0  0  0  0
  2 31  1  0  0  0  0
  3 28  1  0  0  0  0
  3  4  1  0  0  0  0
  3  6  1  0  0  0  0
  4  5  1  0  0  0  0
  4 32  1  0  0  0  0
  4 33  1  0  0  0  0
  5 34  1  0  0  0  0
  6  7  1  0  0  0  0
  6 35  1  0  0  0  0
  6 36  1  0  0  0  0
  7  8  1  0  0  0  0
  7 28  1  0  0  0  0
  7 37  1  0  0  0  0
  8 27  1  0  0  0  0
  8  9  1  0  0  0  0
  9 10  2  0  0  0  0
  9 38  1  0  0  0  0
 10 11  1  0  0  0  0
 11 27  2  0  0  0  0
 11 12  1  0  0  0  0
 12 13  1  0  0  0  0
 12 24  2  0  0  0  0
 13 23  1  0  0  0  0
 13 14  1  0  0  0  0
 14 15  1  0  0  0  0
 14 39  1  0  0  0  0
 14 40  1  0  0  0  0
 15 16  1  0  0  0  0
 15 41  1  0  0  0  0
 15 42  1  0  0  0  0
 16 17  1  0  0  0  0
 17 22  1  0  0  0  0
 17 18  1  0  0  0  0
 17 23  1  0  0  0  0
 18 19  1  0  0  0  0
 18 43  1  0  0  0  0
 18 44  1  0  0  0  0
 19 20  1  0  0  0  0
 19 45  1  0  0  0  0
 19 46  1  0  0  0  0
 20 21  1  0  0  0  0
 20 47  1  0  0  0  0
 20 48  1  0  0  0  0
 21 22  1  0  0  0  0
 22 49  1  0  0  0  0
 22 50  1  0  0  0  0
 23 51  1  0  0  0  0
 23 52  1  0  0  0  0
 24 25  1  0  0  0  0
 25 26  2  0  0  0  0
 25 53  1  0  0  0  0
 26 27  1  0  0  0  0
 28 54  1  0  0  0  0
 28 55  1  0  0  0  0
M  END
> <s_m_source_file>
AV-unprocessed.smi

> <i_m_source_file_index>
165

> <i_lp_mmshare_version>
43012

> <i_f3d_flags>
0

> <s_epik_input>
W09IXVtDSDJdQzEoW0NIMl1bT0hdKVtDSDJdW0NIXShbQ0gyXTEpbihbY0hdbjIpYyhjMjMpbltjSF1uYzNOKFtDSDJdNClbQ0gyXVtDSDJdT1tDQEBdNDVbQ0gyXVtDSDJdW0NIMl1PW0NIMl01

> <s_epik_cmdline>
J2VwaWtfcHl0aG9uJywgJy1waCcsICc3LjAnLCAnLXRuJywgJzgnLCAnLW1hJywgJzIwMCcsICctbWV0YWxfYmluZGluZycsICctaW1hZScsICc8aW5maWxlLm1hZT4nLCAnLW9tYWUnLCAnPG91dGZpbGUubWFlPic=

> <r_lp_tautomer_probability>
1

> <r_epik_Ionization_Penalty>
0.00466923

> <r_epik_Ionization_Penalty_Charging>
0

> <r_epik_Ionization_Penalty_Neutral>
0.00466923

> <r_epik_State_Penalty>
0.0032353

> <r_epik_Charging_Adjusted_Penalty>
0.0032353

> <i_epik_Tot_Q>
0

> <i_epik_Tot_abs_Q>
0

> <r_epik_Metal_State_Penalty>
-0

> <b_epik_Metal_Only>
0

> <s_lp_Force_Field>
OPLS_2005

> <r_lp_Energy>
53.1571

> <b_lp_Chiralities_Consistent>
1

> <s_lp_Variant>
AV-unprocessed.smi:165-2

> <Gold.Version>
5.8.1

> <Gold.Id.Protein>
6NUR|6NUR_protein|mol2

> <Gold.PLP.Fitness>
47.4571

> <Gold.PLP.PLP>
-40.6686

> <Gold.PLP.part.hbond>
-2.9264

> <Gold.PLP.part.metal>
0.0000

> <Gold.PLP.part.buried>
-4.9136

> <Gold.PLP.part.nonpolar>
-33.5610

> <Gold.PLP.part.repulsive>
0.3734

> <Gold.PLP.ligand.clash>
0.0000

> <Gold.PLP.ligand.torsion>
0.9191

> <Gold.PLP.Chemscore.Hbond>
1.9175

> <Gold.PLP.Chemscore.CHOScore>
0.7138

> <Gold.PLP.Chemscore.Metal>
0.0000

> <Gold.Chemscore.Hbonds>
donor molecule, donor type, donor heavy atom, donor atom, acceptor molecule, acceptor atom, score
      L1  H     1    29       P1 10186  1.00
      L1  H     5    34       P1 10171  0.50
      P1  H 10785 10796       L1     1  0.03
      L1  C     9    38       P1  7948  0.41

> <Gold.PLP.Chemscore.Internal.Correction>
0.7329

> <Gold.Rescore>
     Score         DG    S(hbond)    S(metal)    S(lipo)     H(rot)  DE(clash)    DE(int)     intcor
     10.34     -12.75       1.65        0.00      83.64       3.14       0.40       2.00       ----

> <Gold.Chemscore.Fitness>
10.3437

> <Gold.Chemscore.DG>
-12.7458

> <Gold.Chemscore.ZeroCoef>
-5.4800

> <Gold.Chemscore.Hbond>
1.6486

> <Gold.Chemscore.Metal>
0.0000

> <Gold.Chemscore.Lipo>
83.6362

> <Gold.Chemscore.Internal_Hbond>
0.0000

> <Gold.Chemscore.DEClash>
0.3977

> <Gold.Chemscore.DEInternal>
2.0044

> <Gold.Chemscore.Rot>
3.1351

> <Gold.Chemscore.Internal.Correction>
   9.000000E+99

> <Gold.Chemscore.Hbonds>
donor molecule, donor type, donor heavy atom, donor atom, acceptor molecule, acceptor atom, score
      L1  H     1    29       P1 10186  0.98
      L1  H     5    34       P1 10171  0.50
      P1  H 10785 10796       L1     1  0.05

> <Gold.Chemscore.Hbond.Weighted>
-5.5064

> <Gold.Chemscore.Metal.Weighted>
-0.0000

> <Gold.Chemscore.Lipo.Weighted>
-9.7854

> <Gold.Chemscore.Internal_Hbond.Weighted>
0.0000

> <Gold.Chemscore.DEClash.Weighted>
0.3977

> <Gold.Chemscore.DEInternal.Weighted>
2.0044

> <Gold.Chemscore.Rot.Weighted>
8.0260

> <Gold.Chemscore.Internal.Correction.Weighted>
   9.000000E+99

> <Gold.Protein.RotatedTorsions>
[ 6907 6896 6895 6894 ] final  152.00 input  -60.11 | X-H torsion
[ 7974 7965 7964 7962 ] final  -17.79 input  175.53 | X-H torsion
[ 8008 7997 7996 7995 ] final -148.53 input   59.86 | X-H torsion
[ 10167 10162 10161 10158 ] final   80.22 input  -65.29 | X-H torsion
[ 10718 10713 10712 10709 ] final  174.34 input   66.30 | X-H torsion
[ 10763 10752 10751 10750 ] final  140.65 input  -60.55 | X-H torsion
[ 11005 11000 10999 10996 ] final   36.77 input  -57.11 | X-H torsion

> <Gold.Protein.ActiveResidues>
 VAL166  LYS551  ARG553  GLY616  TRP617  ASP618  TYR619  PRO620  LYS621  CYS622 
 ASP623  PHE694  ASN695  SER759  ASP760  ASP761  ALA762  ILE779  LEU786  VAL792 
 PHE793  MET794  SER795  GLU796  ALA797  LYS798  CYS799  TRP800  GLU811  SER814 

> <Gold.Protein.RotatedAtoms>
  152.0928  133.4209  159.4551 H   0  0  0  0  0  0  0  0  0  0  0  0  # atno 6907 bound_to 6896
  150.6862  134.2851  159.4653 H   0  0  0  0  0  0  0  0  0  0  0  0  # atno 6908 bound_to 6896
  152.0704  134.9536  160.0625 H   0  0  0  0  0  0  0  0  0  0  0  0  # atno 6909 bound_to 6896
  146.1924  140.3830  142.8453 H   0  0  0  0  0  0  0  0  0  0  0  0  # atno 7974 bound_to 7965
  155.5931  140.0654  157.2753 H   0  0  0  0  0  0  0  0  0  0  0  0  # atno 8008 bound_to 7997
  154.4299  140.1831  156.1142 H   0  0  0  0  0  0  0  0  0  0  0  0  # atno 8009 bound_to 7997
  156.0217  140.3316  155.7049 H   0  0  0  0  0  0  0  0  0  0  0  0  # atno 8010 bound_to 7997
  139.9521  144.6019  150.8151 H   0  0  0  0  0  0  0  0  0  0  0  0  # atno 10167 bound_to 10162
  156.9510  131.0031  151.2948 H   0  0  0  0  0  0  0  0  0  0  0  0  # atno 10718 bound_to 10713
  153.9263  135.2995  155.3447 H   0  0  0  0  0  0  0  0  0  0  0  0  # atno 10763 bound_to 10752
  154.7550  135.4962  153.9361 H   0  0  0  0  0  0  0  0  0  0  0  0  # atno 10764 bound_to 10752
  153.1115  135.6760  153.9596 H   0  0  0  0  0  0  0  0  0  0  0  0  # atno 10765 bound_to 10752
  140.2292  134.3547  155.7971 H   0  0  0  0  0  0  0  0  0  0  0  0  # atno 11005 bound_to 11000
  144.8512  140.7004  143.6167 LP  0  0  0  0  0  0  0  0  0  0  0  0  # atno 17320 bound_to 7965
  145.3752  139.1649  143.4310 LP  0  0  0  0  0  0  0  0  0  0  0  0  # atno 17321 bound_to 7965
  140.7579  143.3097  151.2875 LP  0  0  0  0  0  0  0  0  0  0  0  0  # atno 17342 bound_to 10162
  139.6620  144.0172  152.2699 LP  0  0  0  0  0  0  0  0  0  0  0  0  # atno 17343 bound_to 10162
  157.5722  130.8318  149.8407 LP  0  0  0  0  0  0  0  0  0  0  0  0  # atno 17370 bound_to 10713
  156.0363  130.3750  150.1552 LP  0  0  0  0  0  0  0  0  0  0  0  0  # atno 17371 bound_to 10713
  141.2219  133.7236  156.8704 LP  0  0  0  0  0  0  0  0  0  0  0  0  # atno 17394 bound_to 11000
  140.1768  134.9061  157.2900 LP  0  0  0  0  0  0  0  0  0  0  0  0  # atno 17395 bound_to 11000

$$$$
