AV-unprocessed.smi:888|AV-procd|sdf|4054|dock8
  -GOLD-   22720 1543D 1   1.00000     0.00000
 Structure written by MMmdl.
 45 46  0  0  0  0  0  0  0  0  1 V2000
  149.4495  141.4451  157.9740 C   0  0  0  0  0  0  0  0  0  0  0  0
  148.4508  140.7330  157.0534 C   0  0  0  0  0  0  0  0  0  0  0  0
  149.1072  140.1143  155.8548 C   0  0  0  0  0  0  0  0  0  0  0  0
  150.4262  140.1972  155.6373 N   0  0  0  0  0  0  0  0  0  0  0  0
  150.6579  139.5182  154.4598 N   0  0  0  0  0  0  0  0  0  0  0  0
  149.4576  139.0801  154.0869 C   0  0  0  0  0  0  0  0  0  0  0  0
  148.4478  139.4064  154.9084 N   0  0  0  0  0  0  0  0  0  0  0  0
  147.0458  139.0452  154.7636 C   0  0  0  0  0  0  0  0  0  0  0  0
  146.6380  138.8159  153.2953 C   0  0  0  0  0  0  0  0  0  0  0  0
  146.8433  137.4355  152.8560 N   0  0  0  0  0  0  0  0  0  0  0  0
  145.9338  136.4479  152.7773 C   0  0  0  0  0  0  0  0  0  0  0  0
  144.7606  136.6190  153.1020 O   0  0  0  0  0  0  0  0  0  0  0  0
  146.4183  135.2755  152.3350 N   0  0  0  0  0  0  0  0  0  0  0  0
  145.6509  134.0394  152.1916 C   0  0  2  0  0  0  0  0  0  0  0  0
  146.5103  132.9609  151.5029 C   0  0  0  0  0  0  0  0  0  0  0  0
  145.8136  132.6320  150.1854 C   0  0  0  0  0  0  0  0  0  0  0  0
  144.3441  132.9329  150.4594 C   0  0  0  0  0  0  0  0  0  0  0  0
  144.3472  134.1922  151.3459 C   0  0  0  0  0  0  0  0  0  0  0  0
  143.0993  134.2274  152.2481 C   0  0  0  0  0  0  0  0  0  0  0  0
  144.3379  135.4472  150.4391 C   0  0  0  0  0  0  0  0  0  0  0  0
  148.9375  141.9074  158.8181 H   0  0  0  0  0  0  0  0  0  0  0  0
  149.9917  142.2275  157.4436 H   0  0  0  0  0  0  0  0  0  0  0  0
  150.1846  140.7464  158.3741 H   0  0  0  0  0  0  0  0  0  0  0  0
  147.9403  139.9458  157.6089 H   0  0  0  0  0  0  0  0  0  0  0  0
  147.6783  141.4364  156.7495 H   0  0  0  0  0  0  0  0  0  0  0  0
  149.3107  138.4969  153.1895 H   0  0  0  0  0  0  0  0  0  0  0  0
  146.8870  138.1213  155.3210 H   0  0  0  0  0  0  0  0  0  0  0  0
  146.4151  139.7885  155.2486 H   0  0  0  0  0  0  0  0  0  0  0  0
  145.5840  139.0608  153.1615 H   0  0  0  0  0  0  0  0  0  0  0  0
  147.1867  139.4973  152.6431 H   0  0  0  0  0  0  0  0  0  0  0  0
  147.7913  137.1930  152.6053 H   0  0  0  0  0  0  0  0  0  0  0  0
  147.3961  135.2330  152.0878 H   0  0  0  0  0  0  0  0  0  0  0  0
  145.4069  133.6612  153.1865 H   0  0  0  0  0  0  0  0  0  0  0  0
  147.5450  133.2675  151.3428 H   0  0  0  0  0  0  0  0  0  0  0  0
  146.5373  132.0683  152.1295 H   0  0  0  0  0  0  0  0  0  0  0  0
  146.1862  133.2842  149.3947 H   0  0  0  0  0  0  0  0  0  0  0  0
  145.9787  131.6012  149.8707 H   0  0  0  0  0  0  0  0  0  0  0  0
  143.7666  133.0533  149.5421 H   0  0  0  0  0  0  0  0  0  0  0  0
  143.9105  132.0912  151.0017 H   0  0  0  0  0  0  0  0  0  0  0  0
  142.1844  134.2621  151.6559 H   0  0  0  0  0  0  0  0  0  0  0  0
  143.1062  135.1036  152.8970 H   0  0  0  0  0  0  0  0  0  0  0  0
  143.0420  133.3465  152.8886 H   0  0  0  0  0  0  0  0  0  0  0  0
  143.4610  135.4568  149.7907 H   0  0  0  0  0  0  0  0  0  0  0  0
  145.2174  135.4915  149.7962 H   0  0  0  0  0  0  0  0  0  0  0  0
  144.3081  136.3674  151.0237 H   0  0  0  0  0  0  0  0  0  0  0  0
  1  2  1  0  0  0  0
  1 21  1  0  0  0  0
  1 22  1  0  0  0  0
  1 23  1  0  0  0  0
  2  3  1  0  0  0  0
  2 24  1  0  0  0  0
  2 25  1  0  0  0  0
  3  7  1  0  0  0  0
  3  4  2  0  0  0  0
  4  5  1  0  0  0  0
  5  6  2  0  0  0  0
  6  7  1  0  0  0  0
  6 26  1  0  0  0  0
  7  8  1  0  0  0  0
  8  9  1  0  0  0  0
  8 27  1  0  0  0  0
  8 28  1  0  0  0  0
  9 10  1  0  0  0  0
  9 29  1  0  0  0  0
  9 30  1  0  0  0  0
 10 11  1  0  0  0  0
 10 31  1  0  0  0  0
 11 12  2  0  0  0  0
 11 13  1  0  0  0  0
 13 14  1  0  0  0  0
 13 32  1  0  0  0  0
 14 18  1  0  0  0  0
 14 15  1  0  0  0  0
 14 33  1  0  0  0  0
 15 16  1  0  0  0  0
 15 34  1  0  0  0  0
 15 35  1  0  0  0  0
 16 17  1  0  0  0  0
 16 36  1  0  0  0  0
 16 37  1  0  0  0  0
 17 18  1  0  0  0  0
 17 38  1  0  0  0  0
 17 39  1  0  0  0  0
 18 19  1  0  0  0  0
 18 20  1  0  0  0  0
 19 40  1  0  0  0  0
 19 41  1  0  0  0  0
 19 42  1  0  0  0  0
 20 43  1  0  0  0  0
 20 44  1  0  0  0  0
 20 45  1  0  0  0  0
M  END
> <s_m_source_file>
AV-unprocessed.smi

> <i_m_source_file_index>
888

> <i_lp_mmshare_version>
43012

> <i_f3d_flags>
0

> <s_epik_input>
W0NIM11bQ0gyXWMxbm5bY0hdbjFbQ0gyXVtDSDJdW05IXUMoPU8pW05IXVtDQEBIXShDMihbQ0gzXSlbQ0gzXSlbQ0gyXVtDSDJdW0NIMl0y

> <s_epik_cmdline>
J2VwaWtfcHl0aG9uJywgJy1waCcsICc3LjAnLCAnLXRuJywgJzgnLCAnLW1hJywgJzIwMCcsICctbWV0YWxfYmluZGluZycsICctaW1hZScsICc8aW5maWxlLm1hZT4nLCAnLW9tYWUnLCAnPG91dGZpbGUubWFlPic=

> <r_lp_tautomer_probability>
1

> <r_epik_Ionization_Penalty>
0.000379534

> <r_epik_Ionization_Penalty_Charging>
0

> <r_epik_Ionization_Penalty_Neutral>
0.000379534

> <r_epik_State_Penalty>
-0

> <r_epik_Charging_Adjusted_Penalty>
0

> <i_epik_Tot_Q>
0

> <i_epik_Tot_abs_Q>
0

> <r_epik_Metal_State_Penalty>
-0

> <b_epik_Metal_Only>
0

> <s_lp_Force_Field>
OPLS_2005

> <r_lp_Energy>
31.9266

> <b_lp_Chiralities_Consistent>
1

> <s_lp_Variant>
AV-unprocessed.smi:888-1

> <Gold.Version>
5.8.1

> <Gold.Id.Protein>
6NUR|6NUR_protein|mol2

> <Gold.PLP.Fitness>
40.2019

> <Gold.PLP.PLP>
-28.9189

> <Gold.PLP.part.hbond>
-3.0000

> <Gold.PLP.part.metal>
0.0000

> <Gold.PLP.part.buried>
-4.0169

> <Gold.PLP.part.nonpolar>
-22.6352

> <Gold.PLP.part.repulsive>
0.3812

> <Gold.PLP.ligand.clash>
0.0000

> <Gold.PLP.ligand.torsion>
0.7382

> <Gold.PLP.Chemscore.Hbond>
2.9120

> <Gold.PLP.Chemscore.CHOScore>
1.3389

> <Gold.PLP.Chemscore.Metal>
0.0000

> <Gold.Chemscore.Hbonds>
donor molecule, donor type, donor heavy atom, donor atom, acceptor molecule, acceptor atom, score
      L1  H    10    31       P1  7948  1.00
      L1  H    13    32       P1  7948  0.93
      P1  H  7989  7998       L1     5  1.00
      L1  C     6    26       P1  7948  0.79
      L1  C     6    26       P1  7957  0.55

> <Gold.PLP.Chemscore.Internal.Correction>
0.0067

> <Gold.Rescore>
     Score         DG    S(hbond)    S(metal)    S(lipo)     H(rot)  DE(clash)    DE(int)     intcor
     14.71     -16.60       2.82        0.00      58.99       2.03       0.60       1.29       ----

> <Gold.Chemscore.Fitness>
14.7134

> <Gold.Chemscore.DG>
-16.5996

> <Gold.Chemscore.ZeroCoef>
-5.4800

> <Gold.Chemscore.Hbond>
2.8181

> <Gold.Chemscore.Metal>
0.0000

> <Gold.Chemscore.Lipo>
58.9925

> <Gold.Chemscore.Internal_Hbond>
0.0000

> <Gold.Chemscore.DEClash>
0.5966

> <Gold.Chemscore.DEInternal>
1.2895

> <Gold.Chemscore.Rot>
2.0293

> <Gold.Chemscore.Internal.Correction>
   9.000000E+99

> <Gold.Chemscore.Hbonds>
donor molecule, donor type, donor heavy atom, donor atom, acceptor molecule, acceptor atom, score
      L1  H    10    31       P1  7948  0.97
      L1  H    13    32       P1  7948  0.89
      P1  H  7989  7998       L1     5  0.25

> <Gold.Chemscore.Hbond.Weighted>
-9.4125

> <Gold.Chemscore.Metal.Weighted>
-0.0000

> <Gold.Chemscore.Lipo.Weighted>
-6.9021

> <Gold.Chemscore.Internal_Hbond.Weighted>
0.0000

> <Gold.Chemscore.DEClash.Weighted>
0.5966

> <Gold.Chemscore.DEInternal.Weighted>
1.2895

> <Gold.Chemscore.Rot.Weighted>
5.1950

> <Gold.Chemscore.Internal.Correction.Weighted>
   9.000000E+99

> <Gold.Protein.RotatedTorsions>
[ 6907 6896 6895 6894 ] final -138.33 input  -60.11 | X-H torsion
[ 7974 7965 7964 7962 ] final   49.79 input  175.53 | X-H torsion
[ 8008 7997 7996 7995 ] final   22.00 input   59.86 | X-H torsion
[ 10167 10162 10161 10158 ] final  -78.91 input  -65.29 | X-H torsion
[ 10718 10713 10712 10709 ] final  162.69 input   66.30 | X-H torsion
[ 10763 10752 10751 10750 ] final   11.65 input  -60.55 | X-H torsion
[ 11005 11000 10999 10996 ] final  -50.45 input  -57.11 | X-H torsion

> <Gold.Protein.ActiveResidues>
 VAL166  LYS551  ARG553  GLY616  TRP617  ASP618  TYR619  PRO620  LYS621  CYS622 
 ASP623  PHE694  ASN695  SER759  ASP760  ASP761  ALA762  ILE779  LEU786  VAL792 
 PHE793  MET794  SER795  GLU796  ALA797  LYS798  CYS799  TRP800  GLU811  SER814 

> <Gold.Protein.RotatedAtoms>
  151.0337  133.5767  159.2657 H   0  0  0  0  0  0  0  0  0  0  0  0  # atno 6907 bound_to 6896
  151.2839  135.0721  159.9189 H   0  0  0  0  0  0  0  0  0  0  0  0  # atno 6908 bound_to 6896
  152.5350  134.0047  159.7965 H   0  0  0  0  0  0  0  0  0  0  0  0  # atno 6909 bound_to 6896
  146.0075  139.4506  142.9977 H   0  0  0  0  0  0  0  0  0  0  0  0  # atno 7974 bound_to 7965
  154.9590  140.3075  155.5039 H   0  0  0  0  0  0  0  0  0  0  0  0  # atno 8008 bound_to 7997
  156.2979  140.2305  156.4613 H   0  0  0  0  0  0  0  0  0  0  0  0  # atno 8009 bound_to 7997
  154.7982  140.0435  157.1241 H   0  0  0  0  0  0  0  0  0  0  0  0  # atno 8010 bound_to 7997
  140.4640  143.2445  151.8306 H   0  0  0  0  0  0  0  0  0  0  0  0  # atno 10167 bound_to 10162
  157.1189  131.0487  151.2424 H   0  0  0  0  0  0  0  0  0  0  0  0  # atno 10718 bound_to 10713
  153.1904  135.6841  153.8360 H   0  0  0  0  0  0  0  0  0  0  0  0  # atno 10763 bound_to 10752
  153.7662  135.3202  155.3346 H   0  0  0  0  0  0  0  0  0  0  0  0  # atno 10764 bound_to 10752
  154.8114  135.4715  154.0623 H   0  0  0  0  0  0  0  0  0  0  0  0  # atno 10765 bound_to 10752
  141.0816  133.6652  156.3732 H   0  0  0  0  0  0  0  0  0  0  0  0  # atno 11005 bound_to 11000
  145.7393  141.0014  143.1309 LP  0  0  0  0  0  0  0  0  0  0  0  0  # atno 17320 bound_to 7965
  144.6941  139.9080  143.7462 LP  0  0  0  0  0  0  0  0  0  0  0  0  # atno 17321 bound_to 7965
  139.4809  144.4973  151.9107 LP  0  0  0  0  0  0  0  0  0  0  0  0  # atno 17342 bound_to 10162
  140.4059  144.2433  150.5891 LP  0  0  0  0  0  0  0  0  0  0  0  0  # atno 17343 bound_to 10162
  157.4494  130.7589  149.7137 LP  0  0  0  0  0  0  0  0  0  0  0  0  # atno 17370 bound_to 10713
  155.9833  130.4002  150.3371 LP  0  0  0  0  0  0  0  0  0  0  0  0  # atno 17371 bound_to 10713
  140.5455  134.6078  157.5392 LP  0  0  0  0  0  0  0  0  0  0  0  0  # atno 17394 bound_to 11000
  139.9631  134.7419  156.0196 LP  0  0  0  0  0  0  0  0  0  0  0  0  # atno 17395 bound_to 11000

$$$$
