AV-unprocessed.smi:249|AV-procd|sdf|1905|dock10
  -GOLD-   2262020583D 1   1.00000     0.00000
 Structure written by MMmdl.
 64 67  0  0  0  0  0  0  0  0  2 V2000
  151.3343  145.2958  159.8691 C   0  0  0  0  0  0  0  0  0  0  0  0
  152.2852  144.8614  158.7437 C   0  0  0  0  0  0  0  0  0  0  0  0
  152.3700  143.3846  158.5843 N   0  3  1  0  0  0  0  0  0  0  0  0
  152.7108  142.6984  159.8597 C   0  0  0  0  0  0  0  0  0  0  0  0
  153.0408  141.2154  159.6270 C   0  0  0  0  0  0  0  0  0  0  0  0
  151.8815  140.5003  158.9048 C   0  0  2  0  0  0  0  0  0  0  0  0
  152.1002  139.0611  158.7072 N   0  0  0  0  0  0  0  0  0  0  0  0
  152.9673  138.3567  159.6434 C   0  0  0  0  0  0  0  0  0  0  0  0
  152.0747  138.4973  157.4735 C   0  0  0  0  0  0  0  0  0  0  0  0
  152.7713  139.0555  156.4491 N   0  0  0  0  0  0  0  0  0  0  0  0
  152.7589  138.4903  155.2380 C   0  0  0  0  0  0  0  0  0  0  0  0
  152.1281  137.3839  154.8403 N   0  0  0  0  0  0  0  0  0  0  0  0
  151.4314  136.8175  155.8664 C   0  0  0  0  0  0  0  0  0  0  0  0
  151.3545  137.3014  157.2024 C   0  0  0  0  0  0  0  0  0  0  0  0
  150.5488  136.4637  157.9644 N   0  0  0  0  0  0  0  0  0  0  0  0
  150.1712  135.5364  157.1265 C   0  0  0  0  0  0  0  0  0  0  0  0
  150.6587  135.6710  155.8461 N   0  0  0  0  0  0  0  0  0  0  0  0
  150.4028  134.7940  154.7176 C   0  0  0  0  0  0  0  0  0  0  0  0
  149.3401  133.7089  155.0191 C   0  0  1  0  0  0  0  0  0  0  0  0
  148.0236  133.9300  154.2352 C   0  0  0  0  0  0  0  0  0  0  0  0
  148.1001  133.3887  152.9322 O   0  0  0  0  0  0  0  0  0  0  0  0
  149.9144  132.2830  154.8238 C   0  0  2  0  0  0  0  0  0  0  0  0
  149.0129  131.1586  155.3019 C   0  0  0  0  0  0  0  0  0  0  0  0
  149.9909  129.9964  155.4218 C   0  0  0  0  0  0  0  0  0  0  0  0
  151.2203  130.5798  155.8358 O   0  0  0  0  0  0  0  0  0  0  0  0
  151.1815  131.9900  155.6361 C   0  0  0  0  0  0  0  0  0  0  0  0
  151.5191  141.2552  157.6073 C   0  0  0  0  0  0  0  0  0  0  0  0
  151.2226  142.7463  157.8662 C   0  0  1  0  0  0  0  0  0  0  0  0
  149.8582  142.9625  158.5561 C   0  0  0  0  0  0  0  0  0  0  0  0
  151.1983  146.3773  159.8578 H   0  0  0  0  0  0  0  0  0  0  0  0
  151.7188  145.0333  160.8543 H   0  0  0  0  0  0  0  0  0  0  0  0
  150.3509  144.8386  159.7541 H   0  0  0  0  0  0  0  0  0  0  0  0
  151.9068  145.2861  157.8130 H   0  0  0  0  0  0  0  0  0  0  0  0
  153.2755  145.2930  158.8877 H   0  0  0  0  0  0  0  0  0  0  0  0
  153.5773  143.1806  160.3136 H   0  0  0  0  0  0  0  0  0  0  0  0
  151.8930  142.8009  160.5735 H   0  0  0  0  0  0  0  0  0  0  0  0
  153.9612  141.1496  159.0485 H   0  0  0  0  0  0  0  0  0  0  0  0
  153.2449  140.7353  160.5844 H   0  0  0  0  0  0  0  0  0  0  0  0
  151.0114  140.5635  159.5588 H   0  0  0  0  0  0  0  0  0  0  0  0
  152.5257  137.4045  159.9376 H   0  0  0  0  0  0  0  0  0  0  0  0
  153.1248  138.9427  160.5492 H   0  0  0  0  0  0  0  0  0  0  0  0
  153.9430  138.1604  159.1966 H   0  0  0  0  0  0  0  0  0  0  0  0
  153.3394  138.9947  154.4797 H   0  0  0  0  0  0  0  0  0  0  0  0
  149.5267  134.7208  157.4217 H   0  0  0  0  0  0  0  0  0  0  0  0
  150.0923  135.4039  153.8683 H   0  0  0  0  0  0  0  0  0  0  0  0
  151.3513  134.3363  154.4360 H   0  0  0  0  0  0  0  0  0  0  0  0
  149.0833  133.8049  156.0752 H   0  0  0  0  0  0  0  0  0  0  0  0
  147.1812  133.4740  154.7545 H   0  0  0  0  0  0  0  0  0  0  0  0
  147.7860  134.9912  154.1604 H   0  0  0  0  0  0  0  0  0  0  0  0
  148.1973  134.0995  152.3168 H   0  0  0  0  0  0  0  0  0  0  0  0
  150.1375  132.1196  153.7679 H   0  0  0  0  0  0  0  0  0  0  0  0
  148.5911  131.3954  156.2797 H   0  0  0  0  0  0  0  0  0  0  0  0
  148.1925  130.9418  154.6173 H   0  0  0  0  0  0  0  0  0  0  0  0
  149.6521  129.2337  156.1230 H   0  0  0  0  0  0  0  0  0  0  0  0
  150.1396  129.5235  154.4502 H   0  0  0  0  0  0  0  0  0  0  0  0
  152.0851  132.3379  155.1351 H   0  0  0  0  0  0  0  0  0  0  0  0
  151.1345  132.4690  156.6150 H   0  0  0  0  0  0  0  0  0  0  0  0
  152.3374  141.1948  156.8901 H   0  0  0  0  0  0  0  0  0  0  0  0
  150.6623  140.7819  157.1260 H   0  0  0  0  0  0  0  0  0  0  0  0
  151.1517  143.2052  156.8808 H   0  0  0  0  0  0  0  0  0  0  0  0
  149.0650  142.4608  158.0012 H   0  0  0  0  0  0  0  0  0  0  0  0
  149.5889  144.0173  158.5990 H   0  0  0  0  0  0  0  0  0  0  0  0
  149.8369  142.5720  159.5728 H   0  0  0  0  0  0  0  0  0  0  0  0
  153.1708  143.2331  157.9876 H   0  0  0  0  0  0  0  0  0  0  0  0
  1  2  1  0  0  0  0
  1 30  1  0  0  0  0
  1 31  1  0  0  0  0
  1 32  1  0  0  0  0
  2  3  1  0  0  0  0
  2 33  1  0  0  0  0
  2 34  1  0  0  0  0
  3 28  1  0  0  0  0
  3  4  1  0  0  0  0
  3 64  1  0  0  0  0
  4  5  1  0  0  0  0
  4 35  1  0  0  0  0
  4 36  1  0  0  0  0
  5  6  1  0  0  0  0
  5 37  1  0  0  0  0
  5 38  1  0  0  0  0
  6  7  1  0  0  0  0
  6 27  1  0  0  0  0
  6 39  1  0  0  0  0
  7  8  1  0  0  0  0
  7  9  1  0  0  0  0
  8 40  1  0  0  0  0
  8 41  1  0  0  0  0
  8 42  1  0  0  0  0
  9 14  1  0  0  0  0
  9 10  2  0  0  0  0
 10 11  1  0  0  0  0
 11 12  2  0  0  0  0
 11 43  1  0  0  0  0
 12 13  1  0  0  0  0
 13 17  1  0  0  0  0
 13 14  2  0  0  0  0
 14 15  1  0  0  0  0
 15 16  2  0  0  0  0
 16 17  1  0  0  0  0
 16 44  1  0  0  0  0
 17 18  1  0  0  0  0
 18 19  1  0  0  0  0
 18 45  1  0  0  0  0
 18 46  1  0  0  0  0
 19 20  1  0  0  0  0
 19 22  1  0  0  0  0
 19 47  1  0  0  0  0
 20 21  1  0  0  0  0
 20 48  1  0  0  0  0
 20 49  1  0  0  0  0
 21 50  1  0  0  0  0
 22 26  1  0  0  0  0
 22 23  1  0  0  0  0
 22 51  1  0  0  0  0
 23 24  1  0  0  0  0
 23 52  1  0  0  0  0
 23 53  1  0  0  0  0
 24 25  1  0  0  0  0
 24 54  1  0  0  0  0
 24 55  1  0  0  0  0
 25 26  1  0  0  0  0
 26 56  1  0  0  0  0
 26 57  1  0  0  0  0
 27 28  1  0  0  0  0
 27 58  1  0  0  0  0
 27 59  1  0  0  0  0
 28 29  1  0  0  0  0
 28 60  1  0  0  0  0
 29 61  1  0  0  0  0
 29 62  1  0  0  0  0
 29 63  1  0  0  0  0
M  CHG  1   3   1
M  END
> <s_m_source_file>
AV-unprocessed.smi

> <i_m_source_file_index>
249

> <i_lp_mmshare_version>
43012

> <i_f3d_flags>
0

> <s_epik_input>
W0NIM11bQ0gyXU4xW0NIMl1bQ0gyXVtDQEhdKFtDSDJdW0NASF0xW0NIM10pTihbQ0gzXSljKG5bY0hdbjIpYyhjMjMpbltjSF1uM1tDSDJdW0NASF0oW0NIMl1bT0hdKVtDQEBIXTRbQ0gyXVtDSDJdT1tDSDJdNA==

> <s_epik_cmdline>
J2VwaWtfcHl0aG9uJywgJy1waCcsICc3LjAnLCAnLXRuJywgJzgnLCAnLW1hJywgJzIwMCcsICctbWV0YWxfYmluZGluZycsICctaW1hZScsICc8aW5maWxlLm1hZT4nLCAnLW9tYWUnLCAnPG91dGZpbGUubWFlPic=

> <r_lp_tautomer_probability>
1

> <r_epik_Ionization_Penalty>
0.00294688

> <r_epik_Ionization_Penalty_Charging>
0.00169971

> <r_epik_Ionization_Penalty_Neutral>
0.00124717

> <r_epik_State_Penalty>
-0

> <r_epik_Charging_Adjusted_Penalty>
0.00169971

> <i_epik_Tot_Q>
1

> <i_epik_Tot_abs_Q>
1

> <r_epik_Metal_State_Penalty>
-0

> <b_epik_Metal_Only>
0

> <s_lp_Force_Field>
OPLS_2005

> <r_lp_Energy>
52.9117

> <b_lp_Chiralities_Consistent>
1

> <s_lp_Variant>
AV-unprocessed.smi:249-8

> <Gold.Version>
5.8.1

> <Gold.Id.Protein>
6NUR|6NUR_protein|mol2

> <Gold.PLP.Fitness>
54.8617

> <Gold.PLP.PLP>
-52.0808

> <Gold.PLP.part.hbond>
-3.1010

> <Gold.PLP.part.metal>
0.0000

> <Gold.PLP.part.buried>
-8.6438

> <Gold.PLP.part.nonpolar>
-40.3541

> <Gold.PLP.part.repulsive>
0.1045

> <Gold.PLP.ligand.clash>
0.0000

> <Gold.PLP.ligand.torsion>
2.5879

> <Gold.PLP.Chemscore.Hbond>
2.2266

> <Gold.PLP.Chemscore.CHOScore>
0.0000

> <Gold.PLP.Chemscore.Metal>
0.0000

> <Gold.Chemscore.Hbonds>
donor molecule, donor type, donor heavy atom, donor atom, acceptor molecule, acceptor atom, score
      L1  H    21    50       P1  7948  0.29
      P1  H  7997  8010       L1    10  1.00
      P1  H 10752 10765       L1    12  0.62

> <Gold.PLP.Chemscore.Internal.Correction>
1.2770

> <Gold.Rescore>
     Score         DG    S(hbond)    S(metal)    S(lipo)     H(rot)  DE(clash)    DE(int)     intcor
     12.36     -16.60       1.24        0.00     117.69       2.65       0.11       4.13       ----

> <Gold.Chemscore.Fitness>
12.3586

> <Gold.Chemscore.DG>
-16.5973

> <Gold.Chemscore.ZeroCoef>
-5.4800

> <Gold.Chemscore.Hbond>
1.2380

> <Gold.Chemscore.Metal>
0.0000

> <Gold.Chemscore.Lipo>
117.6948

> <Gold.Chemscore.Internal_Hbond>
0.0000

> <Gold.Chemscore.DEClash>
0.1103

> <Gold.Chemscore.DEInternal>
4.1285

> <Gold.Chemscore.Rot>
2.6515

> <Gold.Chemscore.Internal.Correction>
   9.000000E+99

> <Gold.Chemscore.Hbonds>
donor molecule, donor type, donor heavy atom, donor atom, acceptor molecule, acceptor atom, score
      L1  H    21    50       P1  7948  0.02
      P1  H  7997  8010       L1    10  0.35
      P1  H 10752 10765       L1    12  0.13

> <Gold.Chemscore.Hbond.Weighted>
-4.1350

> <Gold.Chemscore.Metal.Weighted>
-0.0000

> <Gold.Chemscore.Lipo.Weighted>
-13.7703

> <Gold.Chemscore.Internal_Hbond.Weighted>
0.0000

> <Gold.Chemscore.DEClash.Weighted>
0.1103

> <Gold.Chemscore.DEInternal.Weighted>
4.1285

> <Gold.Chemscore.Rot.Weighted>
6.7880

> <Gold.Chemscore.Internal.Correction.Weighted>
   9.000000E+99

> <Gold.Protein.RotatedTorsions>
[ 6907 6896 6895 6894 ] final  -87.35 input  -60.11 | X-H torsion
[ 7974 7965 7964 7962 ] final -173.94 input  175.53 | X-H torsion
[ 8008 7997 7996 7995 ] final   74.50 input   59.86 | X-H torsion
[ 10167 10162 10161 10158 ] final -102.39 input  -65.29 | X-H torsion
[ 10718 10713 10712 10709 ] final   51.07 input   66.30 | X-H torsion
[ 10763 10752 10751 10750 ] final  149.84 input  -60.55 | X-H torsion
[ 11005 11000 10999 10996 ] final  -37.40 input  -57.11 | X-H torsion

> <Gold.Protein.ActiveResidues>
 VAL166  LYS551  ARG553  GLY616  TRP617  ASP618  TYR619  PRO620  LYS621  CYS622 
 ASP623  PHE694  ASN695  SER759  ASP760  ASP761  ALA762  ILE779  LEU786  VAL792 
 PHE793  MET794  SER795  GLU796  ALA797  LYS798  CYS799  TRP800  GLU811  SER814 

> <Gold.Protein.RotatedAtoms>
  150.6866  134.2910  159.4666 H   0  0  0  0  0  0  0  0  0  0  0  0  # atno 6907 bound_to 6896
  152.0815  134.9465  160.0582 H   0  0  0  0  0  0  0  0  0  0  0  0  # atno 6908 bound_to 6896
  152.0816  133.4121  159.4541 H   0  0  0  0  0  0  0  0  0  0  0  0  # atno 6909 bound_to 6896
  144.7134  140.1546  143.6381 H   0  0  0  0  0  0  0  0  0  0  0  0  # atno 7974 bound_to 7965
  155.7993  140.3477  155.5393 H   0  0  0  0  0  0  0  0  0  0  0  0  # atno 8008 bound_to 7997
  155.8555  140.0963  157.1668 H   0  0  0  0  0  0  0  0  0  0  0  0  # atno 8009 bound_to 7997
  154.4009  140.1368  156.3883 H   0  0  0  0  0  0  0  0  0  0  0  0  # atno 8010 bound_to 7997
  140.2311  143.3606  152.0885 H   0  0  0  0  0  0  0  0  0  0  0  0  # atno 10167 bound_to 10162
  157.4945  130.8397  149.8242 H   0  0  0  0  0  0  0  0  0  0  0  0  # atno 10718 bound_to 10713
  154.0777  135.2862  155.3296 H   0  0  0  0  0  0  0  0  0  0  0  0  # atno 10763 bound_to 10752
  154.6704  135.5301  153.8135 H   0  0  0  0  0  0  0  0  0  0  0  0  # atno 10764 bound_to 10752
  153.0461  135.6556  154.0954 H   0  0  0  0  0  0  0  0  0  0  0  0  # atno 10765 bound_to 10752
  140.9949  133.6985  156.1916 H   0  0  0  0  0  0  0  0  0  0  0  0  # atno 11005 bound_to 11000
  145.9085  139.2473  143.1451 LP  0  0  0  0  0  0  0  0  0  0  0  0  # atno 17320 bound_to 7965
  145.9739  140.8737  143.0148 LP  0  0  0  0  0  0  0  0  0  0  0  0  # atno 17321 bound_to 7965
  139.5109  144.6893  151.5804 LP  0  0  0  0  0  0  0  0  0  0  0  0  # atno 17342 bound_to 10162
  140.6184  143.9305  150.6506 LP  0  0  0  0  0  0  0  0  0  0  0  0  # atno 17343 bound_to 10162
  156.0193  130.3802  150.2013 LP  0  0  0  0  0  0  0  0  0  0  0  0  # atno 17370 bound_to 10713
  157.0202  130.9977  151.3342 LP  0  0  0  0  0  0  0  0  0  0  0  0  # atno 17371 bound_to 10713
  140.6982  134.4593  157.5587 LP  0  0  0  0  0  0  0  0  0  0  0  0  # atno 17394 bound_to 11000
  139.9010  134.8557  156.1898 LP  0  0  0  0  0  0  0  0  0  0  0  0  # atno 17395 bound_to 11000

$$$$
