AV-unprocessed.smi:2560|AV-procd|sdf|10038|dock1
  -GOLD-   2272014 83D 1   1.00000     0.00000
 Structure written by MMmdl.
 31 32  0  0  0  0  0  0  0  0  1 V2000
  149.9999  134.0553  156.2052 C   0  0  0  0  0  0  0  0  0  0  0  0
  149.1018  135.4738  155.5185 S   0  0  0  0  0  0  0  0  0  0  0  0
  150.2423  136.8189  155.5279 C   0  0  0  0  0  0  0  0  0  0  0  0
  151.4361  136.7105  154.9170 N   0  0  0  0  0  0  0  0  0  0  0  0
  152.2756  138.1650  155.1142 S   0  0  0  0  0  0  0  0  0  0  0  0
  150.9531  138.8412  156.0191 C   0  0  0  0  0  0  0  0  0  0  0  0
  150.9833  140.1645  156.5477 N   0  0  0  0  0  0  0  0  0  0  0  0
  151.8432  140.7605  157.4017 C   0  0  0  0  0  0  0  0  0  0  0  0
  152.8032  140.1487  157.8666 O   0  0  0  0  0  0  0  0  0  0  0  0
  151.5829  142.0433  157.7035 N   0  0  0  0  0  0  0  0  0  0  0  0
  152.3681  142.8938  158.5895 C   0  0  2  0  0  0  0  0  0  0  0  0
  152.5997  142.1588  159.9007 C   0  0  0  0  0  0  0  0  0  0  0  0
  152.4588  142.7238  161.1119 C   0  0  0  0  0  0  0  0  0  0  0  0
  152.0672  144.1748  161.3172 C   0  0  0  0  0  0  0  0  0  0  0  0
  152.2213  145.0016  160.0290 C   0  0  0  0  0  0  0  0  0  0  0  0
  151.6664  144.2554  158.8061 C   0  0  0  0  0  0  0  0  0  0  0  0
  149.9458  137.9771  156.1428 N   0  0  0  0  0  0  0  0  0  0  0  0
  149.3544  133.1776  156.2299 H   0  0  0  0  0  0  0  0  0  0  0  0
  150.3315  134.2695  157.2214 H   0  0  0  0  0  0  0  0  0  0  0  0
  150.8738  133.8248  155.5954 H   0  0  0  0  0  0  0  0  0  0  0  0
  150.2324  140.7590  156.2278 H   0  0  0  0  0  0  0  0  0  0  0  0
  150.7718  142.4660  157.2745 H   0  0  0  0  0  0  0  0  0  0  0  0
  153.3524  143.0573  158.1478 H   0  0  0  0  0  0  0  0  0  0  0  0
  152.8893  141.1202  159.8314 H   0  0  0  0  0  0  0  0  0  0  0  0
  152.6168  142.1320  162.0014 H   0  0  0  0  0  0  0  0  0  0  0  0
  151.0333  144.2012  161.6626 H   0  0  0  0  0  0  0  0  0  0  0  0
  152.6796  144.6047  162.1100 H   0  0  0  0  0  0  0  0  0  0  0  0
  151.7233  145.9646  160.1436 H   0  0  0  0  0  0  0  0  0  0  0  0
  153.2772  145.2190  159.8625 H   0  0  0  0  0  0  0  0  0  0  0  0
  151.7657  144.8744  157.9138 H   0  0  0  0  0  0  0  0  0  0  0  0
  150.5963  144.0996  158.9524 H   0  0  0  0  0  0  0  0  0  0  0  0
  1  2  1  0  0  0  0
  1 18  1  0  0  0  0
  1 19  1  0  0  0  0
  1 20  1  0  0  0  0
  2  3  1  0  0  0  0
  3 17  1  0  0  0  0
  3  4  2  0  0  0  0
  4  5  1  0  0  0  0
  5  6  1  0  0  0  0
  6  7  1  0  0  0  0
  6 17  2  0  0  0  0
  7  8  1  0  0  0  0
  7 21  1  0  0  0  0
  8  9  2  0  0  0  0
  8 10  1  0  0  0  0
 10 11  1  0  0  0  0
 10 22  1  0  0  0  0
 11 16  1  0  0  0  0
 11 12  1  0  0  0  0
 11 23  1  0  0  0  0
 12 13  2  0  0  0  0
 12 24  1  0  0  0  0
 13 14  1  0  0  0  0
 13 25  1  0  0  0  0
 14 15  1  0  0  0  0
 14 26  1  0  0  0  0
 14 27  1  0  0  0  0
 15 16  1  0  0  0  0
 15 28  1  0  0  0  0
 15 29  1  0  0  0  0
 16 30  1  0  0  0  0
 16 31  1  0  0  0  0
M  END
> <s_m_source_file>
AV-unprocessed.smi

> <i_m_source_file_index>
2560

> <i_lp_mmshare_version>
43012

> <i_f3d_flags>
0

> <s_epik_input>
W0NIM11TYzFuc2MobjEpW05IXUMoPU8pW05IXVtDQEBIXTJbQ0hdPVtDSF1bQ0gyXVtDSDJdW0NIMl0y

> <s_epik_cmdline>
J2VwaWtfcHl0aG9uJywgJy1waCcsICc3LjAnLCAnLXRuJywgJzgnLCAnLW1hJywgJzIwMCcsICctbWV0YWxfYmluZGluZycsICctaW1hZScsICc8aW5maWxlLm1hZT4nLCAnLW9tYWUnLCAnPG91dGZpbGUubWFlPic=

> <r_lp_tautomer_probability>
1

> <r_epik_Ionization_Penalty>
2.65559e-05

> <r_epik_Ionization_Penalty_Charging>
0

> <r_epik_Ionization_Penalty_Neutral>
2.65559e-05

> <r_epik_State_Penalty>
-0

> <r_epik_Charging_Adjusted_Penalty>
0

> <i_epik_Tot_Q>
0

> <i_epik_Tot_abs_Q>
0

> <r_epik_Metal_State_Penalty>
-0

> <b_epik_Metal_Only>
0

> <s_lp_Force_Field>
OPLS_2005

> <r_lp_Energy>
8.21818

> <b_lp_Chiralities_Consistent>
1

> <s_lp_Variant>
AV-unprocessed.smi:2560-1

> <Gold.Version>
5.8.1

> <Gold.Id.Protein>
6NUR|6NUR_protein|mol2

> <Gold.PLP.Fitness>
39.9965

> <Gold.PLP.PLP>
-35.4474

> <Gold.PLP.part.hbond>
-2.0000

> <Gold.PLP.part.metal>
0.0000

> <Gold.PLP.part.buried>
-3.2055

> <Gold.PLP.part.nonpolar>
-29.3086

> <Gold.PLP.part.repulsive>
0.3242

> <Gold.PLP.ligand.clash>
0.0000

> <Gold.PLP.ligand.torsion>
0.6207

> <Gold.PLP.Chemscore.Hbond>
1.9280

> <Gold.PLP.Chemscore.CHOScore>
0.0000

> <Gold.PLP.Chemscore.Metal>
0.0000

> <Gold.Chemscore.Hbonds>
donor molecule, donor type, donor heavy atom, donor atom, acceptor molecule, acceptor atom, score
      P1  H  7997  8010       L1     9  0.94
      P1  H 10752 10765       L1     4  0.85

> <Gold.PLP.Chemscore.Internal.Correction>
0.0065

> <Gold.Rescore>
     Score         DG    S(hbond)    S(metal)    S(lipo)     H(rot)  DE(clash)    DE(int)     intcor
     16.33     -17.91       1.77        0.00      83.20       1.25       0.03       1.55       ----

> <Gold.Chemscore.Fitness>
16.3319

> <Gold.Chemscore.DG>
-17.9094

> <Gold.Chemscore.ZeroCoef>
-5.4800

> <Gold.Chemscore.Hbond>
1.7669

> <Gold.Chemscore.Metal>
0.0000

> <Gold.Chemscore.Lipo>
83.1978

> <Gold.Chemscore.Internal_Hbond>
0.0000

> <Gold.Chemscore.DEClash>
0.0279

> <Gold.Chemscore.DEInternal>
1.5496

> <Gold.Chemscore.Rot>
1.2524

> <Gold.Chemscore.Internal.Correction>
   9.000000E+99

> <Gold.Chemscore.Hbonds>
donor molecule, donor type, donor heavy atom, donor atom, acceptor molecule, acceptor atom, score
      P1  H  7997  8010       L1     9  0.81
      P1  H 10752 10765       L1     4  0.15

> <Gold.Chemscore.Hbond.Weighted>
-5.9014

> <Gold.Chemscore.Metal.Weighted>
-0.0000

> <Gold.Chemscore.Lipo.Weighted>
-9.7341

> <Gold.Chemscore.Internal_Hbond.Weighted>
0.0000

> <Gold.Chemscore.DEClash.Weighted>
0.0279

> <Gold.Chemscore.DEInternal.Weighted>
1.5496

> <Gold.Chemscore.Rot.Weighted>
3.2062

> <Gold.Chemscore.Internal.Correction.Weighted>
   9.000000E+99

> <Gold.Protein.RotatedTorsions>
[ 6907 6896 6895 6894 ] final   94.95 input  -60.11 | X-H torsion
[ 7974 7965 7964 7962 ] final  177.60 input  175.53 | X-H torsion
[ 8008 7997 7996 7995 ] final   56.98 input   59.86 | X-H torsion
[ 10167 10162 10161 10158 ] final  131.82 input  -65.29 | X-H torsion
[ 10718 10713 10712 10709 ] final  -48.02 input   66.30 | X-H torsion
[ 10763 10752 10751 10750 ] final  172.66 input  -60.55 | X-H torsion
[ 11005 11000 10999 10996 ] final   72.77 input  -57.11 | X-H torsion

> <Gold.Protein.ActiveResidues>
 VAL166  LYS551  ARG553  GLY616  TRP617  ASP618  TYR619  PRO620  LYS621  CYS622 
 ASP623  PHE694  ASN695  SER759  ASP760  ASP761  ALA762  ILE779  LEU786  VAL792 
 PHE793  MET794  SER795  GLU796  ALA797  LYS798  CYS799  TRP800  GLU811  SER814 

> <Gold.Protein.RotatedAtoms>
  152.5447  134.1114  159.8359 H   0  0  0  0  0  0  0  0  0  0  0  0  # atno 6907 bound_to 6896
  151.1180  133.5117  159.2610 H   0  0  0  0  0  0  0  0  0  0  0  0  # atno 6908 bound_to 6896
  151.1810  135.0370  159.8847 H   0  0  0  0  0  0  0  0  0  0  0  0  # atno 6909 bound_to 6896
  144.7167  140.0271  143.6439 H   0  0  0  0  0  0  0  0  0  0  0  0  # atno 7974 bound_to 7965
  155.5263  140.3481  155.4417 H   0  0  0  0  0  0  0  0  0  0  0  0  # atno 8008 bound_to 7997
  156.0749  140.1372  156.9810 H   0  0  0  0  0  0  0  0  0  0  0  0  # atno 8009 bound_to 7997
  154.4548  140.0958  156.6700 H   0  0  0  0  0  0  0  0  0  0  0  0  # atno 8010 bound_to 7997
  139.5367  144.6689  151.4763 H   0  0  0  0  0  0  0  0  0  0  0  0  # atno 10167 bound_to 10162
  156.2028  130.4157  149.9218 H   0  0  0  0  0  0  0  0  0  0  0  0  # atno 10718 bound_to 10713
  154.4292  135.2759  155.1924 H   0  0  0  0  0  0  0  0  0  0  0  0  # atno 10763 bound_to 10752
  154.3837  135.6082  153.5808 H   0  0  0  0  0  0  0  0  0  0  0  0  # atno 10764 bound_to 10752
  152.9835  135.5886  154.4600 H   0  0  0  0  0  0  0  0  0  0  0  0  # atno 10765 bound_to 10752
  139.9474  134.7289  156.0946 H   0  0  0  0  0  0  0  0  0  0  0  0  # atno 11005 bound_to 11000
  146.0133  139.3188  143.0857 LP  0  0  0  0  0  0  0  0  0  0  0  0  # atno 17320 bound_to 7965
  145.8656  140.9450  143.0677 LP  0  0  0  0  0  0  0  0  0  0  0  0  # atno 17321 bound_to 7965
  140.6577  143.8565  150.6853 LP  0  0  0  0  0  0  0  0  0  0  0  0  # atno 17342 bound_to 10162
  140.1950  143.4006  152.1835 LP  0  0  0  0  0  0  0  0  0  0  0  0  # atno 17343 bound_to 10162
  156.6922  130.8900  151.3589 LP  0  0  0  0  0  0  0  0  0  0  0  0  # atno 17370 bound_to 10713
  157.6995  130.9318  150.0743 LP  0  0  0  0  0  0  0  0  0  0  0  0  # atno 17371 bound_to 10713
  141.1128  133.6637  156.3020 LP  0  0  0  0  0  0  0  0  0  0  0  0  # atno 17394 bound_to 11000
  140.5802  134.5753  157.5478 LP  0  0  0  0  0  0  0  0  0  0  0  0  # atno 17395 bound_to 11000

$$$$
