AV-unprocessed.smi:3322|AV-procd|sdf|12775|dock2
  -GOLD-   2272019123D 1   1.00000     0.00000
 Structure written by MMmdl.
 38 39  0  0  0  0  0  0  0  0  1 V2000
  147.3230  141.2492  156.0009 C   0  0  0  0  0  0  0  0  0  0  0  0
  148.8081  140.9347  156.2597 C   0  0  2  0  0  0  0  0  0  0  0  0
  149.4927  142.1110  156.8286 N   0  0  0  0  0  0  0  0  0  0  0  0
  150.9206  141.9032  157.0476 C   0  0  0  0  0  0  0  0  0  0  0  0
  151.6417  143.2218  157.3982 C   0  0  0  0  0  0  0  0  0  0  0  0
  151.9809  143.3339  158.8060 N   0  0  0  0  0  0  0  0  0  0  0  0
  151.7046  144.3691  159.6739 C   0  0  0  0  0  0  0  0  0  0  0  0
  152.1908  144.0126  160.8993 C   0  0  0  0  0  0  0  0  0  0  0  0
  152.7595  142.7275  160.6769 C   0  0  0  0  0  0  0  0  0  0  0  0
  152.6363  142.3257  159.4224 N   0  0  0  0  0  0  0  0  0  0  0  0
  149.4932  140.4744  154.9555 C   0  0  0  0  0  0  0  0  0  0  0  0
  149.6310  141.2971  154.0476 O   0  0  0  0  0  0  0  0  0  0  0  0
  149.9389  139.1978  154.8330 N   0  0  0  0  0  0  0  0  0  0  0  0
  149.7467  138.1883  155.8804 C   0  0  0  0  0  0  0  0  0  0  0  0
  151.1245  137.7517  156.4059 C   0  0  0  0  0  0  0  0  0  0  0  0
  151.9008  137.2358  155.3286 O   0  0  0  0  0  0  0  0  0  0  0  0
  152.0922  138.1824  154.2815 C   0  0  0  0  0  0  0  0  0  0  0  0
  150.7291  138.6377  153.7288 C   0  0  0  0  0  0  0  0  0  0  0  0
  146.8003  140.3933  155.5737 H   0  0  0  0  0  0  0  0  0  0  0  0
  147.2091  142.0838  155.3075 H   0  0  0  0  0  0  0  0  0  0  0  0
  146.8036  141.5140  156.9217 H   0  0  0  0  0  0  0  0  0  0  0  0
  148.8829  140.1291  156.9842 H   0  0  0  0  0  0  0  0  0  0  0  0
  149.3737  142.9260  156.2431 H   0  0  0  0  0  0  0  0  0  0  0  0
  151.0146  141.2309  157.9006 H   0  0  0  0  0  0  0  0  0  0  0  0
  151.3980  141.3952  156.2089 H   0  0  0  0  0  0  0  0  0  0  0  0
  152.5482  143.3322  156.8006 H   0  0  0  0  0  0  0  0  0  0  0  0
  151.0011  144.0665  157.1419 H   0  0  0  0  0  0  0  0  0  0  0  0
  151.1830  145.2586  159.3524 H   0  0  0  0  0  0  0  0  0  0  0  0
  152.1454  144.5820  161.8158 H   0  0  0  0  0  0  0  0  0  0  0  0
  153.2536  142.0788  161.3847 H   0  0  0  0  0  0  0  0  0  0  0  0
  149.1333  138.5406  156.7105 H   0  0  0  0  0  0  0  0  0  0  0  0
  149.2169  137.3318  155.4609 H   0  0  0  0  0  0  0  0  0  0  0  0
  151.6447  138.5872  156.8773 H   0  0  0  0  0  0  0  0  0  0  0  0
  151.0121  136.9758  157.1629 H   0  0  0  0  0  0  0  0  0  0  0  0
  152.6652  139.0344  154.6508 H   0  0  0  0  0  0  0  0  0  0  0  0
  152.6835  137.7190  153.4919 H   0  0  0  0  0  0  0  0  0  0  0  0
  150.1939  137.7897  153.2992 H   0  0  0  0  0  0  0  0  0  0  0  0
  150.9091  139.3247  152.9061 H   0  0  0  0  0  0  0  0  0  0  0  0
  1  2  1  0  0  0  0
  1 19  1  0  0  0  0
  1 20  1  0  0  0  0
  1 21  1  0  0  0  0
  2  3  1  0  0  0  0
  2 11  1  0  0  0  0
  2 22  1  0  0  0  0
  3  4  1  0  0  0  0
  3 23  1  0  0  0  0
  4  5  1  0  0  0  0
  4 24  1  0  0  0  0
  4 25  1  0  0  0  0
  5  6  1  0  0  0  0
  5 26  1  0  0  0  0
  5 27  1  0  0  0  0
  6 10  1  0  0  0  0
  6  7  1  0  0  0  0
  7  8  2  0  0  0  0
  7 28  1  0  0  0  0
  8  9  1  0  0  0  0
  8 29  1  0  0  0  0
  9 10  2  0  0  0  0
  9 30  1  0  0  0  0
 11 12  2  0  0  0  0
 11 13  1  0  0  0  0
 13 18  1  0  0  0  0
 13 14  1  0  0  0  0
 14 15  1  0  0  0  0
 14 31  1  0  0  0  0
 14 32  1  0  0  0  0
 15 16  1  0  0  0  0
 15 33  1  0  0  0  0
 15 34  1  0  0  0  0
 16 17  1  0  0  0  0
 17 18  1  0  0  0  0
 17 35  1  0  0  0  0
 17 36  1  0  0  0  0
 18 37  1  0  0  0  0
 18 38  1  0  0  0  0
M  END
> <s_m_source_file>
AV-unprocessed.smi

> <i_m_source_file_index>
3322

> <i_lp_mmshare_version>
43012

> <i_f3d_flags>
0

> <s_epik_input>
W0NIMl0xW0NIMl1PW0NIMl1bQ0gyXU4xQyg9TylbQ0BIXShbQ0gzXSlbTkhdW0NIMl1bQ0gyXW4yW2NIXVtjSF1bY0hdbjI=

> <s_epik_cmdline>
J2VwaWtfcHl0aG9uJywgJy1waCcsICc3LjAnLCAnLXRuJywgJzgnLCAnLW1hJywgJzIwMCcsICctbWV0YWxfYmluZGluZycsICctaW1hZScsICc8aW5maWxlLm1hZT4nLCAnLW9tYWUnLCAnPG91dGZpbGUubWFlPic=

> <r_lp_tautomer_probability>
1

> <r_epik_Ionization_Penalty>
0.511228

> <r_epik_Ionization_Penalty_Charging>
0

> <r_epik_Ionization_Penalty_Neutral>
0.511228

> <r_epik_State_Penalty>
0.51753

> <r_epik_Charging_Adjusted_Penalty>
0.51753

> <i_epik_Tot_Q>
0

> <i_epik_Tot_abs_Q>
0

> <r_epik_Metal_State_Penalty>
0.517012

> <b_epik_Metal_Only>
0

> <s_lp_Force_Field>
OPLS_2005

> <r_lp_Energy>
29.3693

> <b_lp_Chiralities_Consistent>
1

> <s_lp_Variant>
AV-unprocessed.smi:3322-3

> <Gold.Version>
5.8.1

> <Gold.Id.Protein>
6NUR|6NUR_protein|mol2

> <Gold.PLP.Fitness>
43.4324

> <Gold.PLP.PLP>
-35.2125

> <Gold.PLP.part.hbond>
-4.0000

> <Gold.PLP.part.metal>
0.0000

> <Gold.PLP.part.buried>
-6.1070

> <Gold.PLP.part.nonpolar>
-25.9799

> <Gold.PLP.part.repulsive>
1.1668

> <Gold.PLP.ligand.clash>
0.0000

> <Gold.PLP.ligand.torsion>
0.5061

> <Gold.PLP.Chemscore.Hbond>
3.0321

> <Gold.PLP.Chemscore.CHOScore>
0.0000

> <Gold.PLP.Chemscore.Metal>
0.0000

> <Gold.Chemscore.Hbonds>
donor molecule, donor type, donor heavy atom, donor atom, acceptor molecule, acceptor atom, score
      L1  H     3    23       P1  8028  1.00
      P1  H  7989  7998       L1    12  0.28
      P1  H  8011  8017       L1    12  0.69
      P1  H 10752 10763       L1    16  0.81

> <Gold.PLP.Chemscore.Internal.Correction>
0.1358

> <Gold.Rescore>
     Score         DG    S(hbond)    S(metal)    S(lipo)     H(rot)  DE(clash)    DE(int)     intcor
     16.63     -17.89       2.11        0.00      86.16       1.84       0.76       0.50       ----

> <Gold.Chemscore.Fitness>
16.6281

> <Gold.Chemscore.DG>
-17.8937

> <Gold.Chemscore.ZeroCoef>
-5.4800

> <Gold.Chemscore.Hbond>
2.1119

> <Gold.Chemscore.Metal>
0.0000

> <Gold.Chemscore.Lipo>
86.1619

> <Gold.Chemscore.Internal_Hbond>
0.0000

> <Gold.Chemscore.DEClash>
0.7615

> <Gold.Chemscore.DEInternal>
0.5041

> <Gold.Chemscore.Rot>
1.8442

> <Gold.Chemscore.Internal.Correction>
   9.000000E+99

> <Gold.Chemscore.Hbonds>
donor molecule, donor type, donor heavy atom, donor atom, acceptor molecule, acceptor atom, score
      L1  H     3    23       P1  8028  0.99
      P1  H  7989  7998       L1    12  0.08
      P1  H  8011  8017       L1    12  0.66
      P1  H 10752 10763       L1    16  0.42

> <Gold.Chemscore.Hbond.Weighted>
-7.0539

> <Gold.Chemscore.Metal.Weighted>
-0.0000

> <Gold.Chemscore.Lipo.Weighted>
-10.0809

> <Gold.Chemscore.Internal_Hbond.Weighted>
0.0000

> <Gold.Chemscore.DEClash.Weighted>
0.7615

> <Gold.Chemscore.DEInternal.Weighted>
0.5041

> <Gold.Chemscore.Rot.Weighted>
4.7212

> <Gold.Chemscore.Internal.Correction.Weighted>
   9.000000E+99

> <Gold.Protein.RotatedTorsions>
[ 6907 6896 6895 6894 ] final -177.40 input  -60.11 | X-H torsion
[ 7974 7965 7964 7962 ] final  -18.44 input  175.53 | X-H torsion
[ 8008 7997 7996 7995 ] final  -96.42 input   59.86 | X-H torsion
[ 10167 10162 10161 10158 ] final  -20.75 input  -65.29 | X-H torsion
[ 10718 10713 10712 10709 ] final -170.96 input   66.30 | X-H torsion
[ 10763 10752 10751 10750 ] final   73.36 input  -60.55 | X-H torsion
[ 11005 11000 10999 10996 ] final  -79.64 input  -57.11 | X-H torsion

> <Gold.Protein.ActiveResidues>
 VAL166  LYS551  ARG553  GLY616  TRP617  ASP618  TYR619  PRO620  LYS621  CYS622 
 ASP623  PHE694  ASN695  SER759  ASP760  ASP761  ALA762  ILE779  LEU786  VAL792 
 PHE793  MET794  SER795  GLU796  ALA797  LYS798  CYS799  TRP800  GLU811  SER814 

> <Gold.Protein.RotatedAtoms>
  151.6204  133.3339  159.3086 H   0  0  0  0  0  0  0  0  0  0  0  0  # atno 6907 bound_to 6896
  150.8109  134.7267  159.6698 H   0  0  0  0  0  0  0  0  0  0  0  0  # atno 6908 bound_to 6896
  152.4205  134.5968  160.0040 H   0  0  0  0  0  0  0  0  0  0  0  0  # atno 6909 bound_to 6896
  146.1892  140.3921  142.8464 H   0  0  0  0  0  0  0  0  0  0  0  0  # atno 7974 bound_to 7965
  154.7743  140.0471  157.1076 H   0  0  0  0  0  0  0  0  0  0  0  0  # atno 8008 bound_to 7997
  154.9783  140.3098  155.4938 H   0  0  0  0  0  0  0  0  0  0  0  0  # atno 8009 bound_to 7997
  156.2926  140.2240  156.4880 H   0  0  0  0  0  0  0  0  0  0  0  0  # atno 8010 bound_to 7997
  140.7278  143.4692  151.0270 H   0  0  0  0  0  0  0  0  0  0  0  0  # atno 10167 bound_to 10162
  156.7339  130.9317  151.3106 H   0  0  0  0  0  0  0  0  0  0  0  0  # atno 10718 bound_to 10713
  153.0516  135.5066  154.7882 H   0  0  0  0  0  0  0  0  0  0  0  0  # atno 10763 bound_to 10752
  154.6739  135.2957  154.9707 H   0  0  0  0  0  0  0  0  0  0  0  0  # atno 10764 bound_to 10752
  154.0516  135.6703  153.4853 H   0  0  0  0  0  0  0  0  0  0  0  0  # atno 10765 bound_to 10752
  141.1667  133.7115  156.8153 H   0  0  0  0  0  0  0  0  0  0  0  0  # atno 11005 bound_to 11000
  144.8454  140.6921  143.6202 LP  0  0  0  0  0  0  0  0  0  0  0  0  # atno 17320 bound_to 7965
  145.3845  139.1629  143.4262 LP  0  0  0  0  0  0  0  0  0  0  0  0  # atno 17321 bound_to 7965
  139.8383  143.7598  152.3180 LP  0  0  0  0  0  0  0  0  0  0  0  0  # atno 17342 bound_to 10162
  139.7738  144.7468  151.0187 LP  0  0  0  0  0  0  0  0  0  0  0  0  # atno 17343 bound_to 10162
  157.6847  130.9174  150.0356 LP  0  0  0  0  0  0  0  0  0  0  0  0  # atno 17370 bound_to 10713
  156.1510  130.3642  149.9438 LP  0  0  0  0  0  0  0  0  0  0  0  0  # atno 17371 bound_to 10713
  140.2158  134.8794  157.3324 LP  0  0  0  0  0  0  0  0  0  0  0  0  # atno 17394 bound_to 11000
  140.2039  134.4221  155.7648 LP  0  0  0  0  0  0  0  0  0  0  0  0  # atno 17395 bound_to 11000

$$$$
