AV-unprocessed.smi:1893|AV-procd|sdf|7672|dock3
  -GOLD-   22720 9413D 1   1.00000     0.00000
 Structure written by MMmdl.
 43 44  0  0  0  0  0  0  0  0  2 V2000
  146.4130  131.9605  152.5055 C   0  0  0  0  0  0  0  0  0  0  0  0
  147.1578  133.1608  151.8815 C   0  0  1  0  0  0  0  0  0  0  0  0
  146.3519  133.8265  150.7459 C   0  0  0  0  0  0  0  0  0  0  0  0
  145.1620  134.6376  151.2799 C   0  0  0  0  0  0  0  0  0  0  0  0
  145.6430  135.6495  152.3270 C   0  0  0  0  0  0  0  0  0  0  0  0
  146.4399  134.9568  153.4442 C   0  0  0  0  0  0  0  0  0  0  0  0
  147.5822  134.1829  152.8846 N   0  3  1  0  0  0  0  0  0  0  0  0
  148.5072  133.6577  153.9212 C   0  0  0  0  0  0  0  0  0  0  0  0
  148.8038  134.7018  155.0147 C   0  0  0  0  0  0  0  0  0  0  0  0
  149.4347  135.8952  154.4640 N   0  0  0  0  0  0  0  0  0  0  0  0
  149.9310  136.9074  155.1934 C   0  0  0  0  0  0  0  0  0  0  0  0
  149.9277  136.9092  156.4250 O   0  0  0  0  0  0  0  0  0  0  0  0
  150.5102  138.0941  154.4081 C   0  0  2  0  0  0  0  0  0  0  0  0
  152.0474  138.1733  154.5053 C   0  0  0  0  0  0  0  0  0  0  0  0
  149.8625  139.3323  154.8248 N   0  0  0  0  0  0  0  0  0  0  0  0
  148.9289  139.5401  155.7561 C   0  0  0  0  0  0  0  0  0  0  0  0
  148.5985  140.8139  155.9143 N   0  0  0  0  0  0  0  0  0  0  0  0
  149.4318  141.3814  154.9925 C   0  0  0  0  0  0  0  0  0  0  0  0
  150.2195  140.5407  154.3223 N   0  0  0  0  0  0  0  0  0  0  0  0
  146.1481  131.2324  151.7386 H   0  0  0  0  0  0  0  0  0  0  0  0
  145.4892  132.2556  153.0018 H   0  0  0  0  0  0  0  0  0  0  0  0
  147.0288  131.4383  153.2375 H   0  0  0  0  0  0  0  0  0  0  0  0
  148.0674  132.7661  151.4266 H   0  0  0  0  0  0  0  0  0  0  0  0
  147.0089  134.4917  150.1835 H   0  0  0  0  0  0  0  0  0  0  0  0
  146.0042  133.0751  150.0361 H   0  0  0  0  0  0  0  0  0  0  0  0
  144.6635  135.1552  150.4596 H   0  0  0  0  0  0  0  0  0  0  0  0
  144.4195  133.9717  151.7204 H   0  0  0  0  0  0  0  0  0  0  0  0
  146.2690  136.4025  151.8460 H   0  0  0  0  0  0  0  0  0  0  0  0
  144.7906  136.1814  152.7510 H   0  0  0  0  0  0  0  0  0  0  0  0
  146.8026  135.7171  154.1349 H   0  0  0  0  0  0  0  0  0  0  0  0
  145.7900  134.3021  154.0252 H   0  0  0  0  0  0  0  0  0  0  0  0
  148.0935  132.7438  154.3505 H   0  0  0  0  0  0  0  0  0  0  0  0
  149.4545  133.3800  153.4563 H   0  0  0  0  0  0  0  0  0  0  0  0
  147.8752  135.0044  155.4997 H   0  0  0  0  0  0  0  0  0  0  0  0
  149.4418  134.2917  155.7981 H   0  0  0  0  0  0  0  0  0  0  0  0
  149.4749  135.9700  153.4576 H   0  0  0  0  0  0  0  0  0  0  0  0
  150.2634  137.9440  153.3557 H   0  0  0  0  0  0  0  0  0  0  0  0
  152.5112  137.2540  154.1466 H   0  0  0  0  0  0  0  0  0  0  0  0
  152.3884  138.3362  155.5286 H   0  0  0  0  0  0  0  0  0  0  0  0
  152.4321  138.9916  153.8960 H   0  0  0  0  0  0  0  0  0  0  0  0
  148.4854  138.7433  156.3351 H   0  0  0  0  0  0  0  0  0  0  0  0
  149.4651  142.4464  154.8164 H   0  0  0  0  0  0  0  0  0  0  0  0
  148.1284  134.8481  152.3562 H   0  0  0  0  0  0  0  0  0  0  0  0
  1  2  1  0  0  0  0
  1 20  1  0  0  0  0
  1 21  1  0  0  0  0
  1 22  1  0  0  0  0
  2  7  1  0  0  0  0
  2  3  1  0  0  0  0
  2 23  1  0  0  0  0
  3  4  1  0  0  0  0
  3 24  1  0  0  0  0
  3 25  1  0  0  0  0
  4  5  1  0  0  0  0
  4 26  1  0  0  0  0
  4 27  1  0  0  0  0
  5  6  1  0  0  0  0
  5 28  1  0  0  0  0
  5 29  1  0  0  0  0
  6  7  1  0  0  0  0
  6 30  1  0  0  0  0
  6 31  1  0  0  0  0
  7  8  1  0  0  0  0
  7 43  1  0  0  0  0
  8  9  1  0  0  0  0
  8 32  1  0  0  0  0
  8 33  1  0  0  0  0
  9 10  1  0  0  0  0
  9 34  1  0  0  0  0
  9 35  1  0  0  0  0
 10 11  1  0  0  0  0
 10 36  1  0  0  0  0
 11 12  2  0  0  0  0
 11 13  1  0  0  0  0
 13 14  1  0  0  0  0
 13 15  1  0  0  0  0
 13 37  1  0  0  0  0
 14 38  1  0  0  0  0
 14 39  1  0  0  0  0
 14 40  1  0  0  0  0
 15 19  1  0  0  0  0
 15 16  1  0  0  0  0
 16 17  2  0  0  0  0
 16 41  1  0  0  0  0
 17 18  1  0  0  0  0
 18 19  2  0  0  0  0
 18 42  1  0  0  0  0
M  CHG  1   7   1
M  END
> <s_m_source_file>
AV-unprocessed.smi

> <i_m_source_file_index>
1893

> <i_lp_mmshare_version>
43012

> <i_f3d_flags>
0

> <s_epik_input>
W0NIM11bQ0BASF0xW0NIMl1bQ0gyXVtDSDJdW0NIMl1OMVtDSDJdW0NIMl1bTkhdQyg9TylbQ0BIXShbQ0gzXSluMltjSF1uW2NIXW4y

> <s_epik_cmdline>
J2VwaWtfcHl0aG9uJywgJy1waCcsICc3LjAnLCAnLXRuJywgJzgnLCAnLW1hJywgJzIwMCcsICctbWV0YWxfYmluZGluZycsICctaW1hZScsICc8aW5maWxlLm1hZT4nLCAnLW9tYWUnLCAnPG91dGZpbGUubWFlPic=

> <r_lp_tautomer_probability>
1

> <r_epik_Ionization_Penalty>
0.00266409

> <r_epik_Ionization_Penalty_Charging>
0.00265606

> <r_epik_Ionization_Penalty_Neutral>
8.02794e-06

> <r_epik_State_Penalty>
0.00184955

> <r_epik_Charging_Adjusted_Penalty>
0.00450561

> <i_epik_Tot_Q>
1

> <i_epik_Tot_abs_Q>
1

> <r_epik_Metal_State_Penalty>
-0

> <b_epik_Metal_Only>
0

> <s_lp_Force_Field>
OPLS_2005

> <r_lp_Energy>
25.286

> <b_lp_Chiralities_Consistent>
1

> <s_lp_Variant>
AV-unprocessed.smi:1893-2

> <Gold.Version>
5.8.1

> <Gold.Id.Protein>
6NUR|6NUR_protein|mol2

> <Gold.PLP.Fitness>
45.3141

> <Gold.PLP.PLP>
-31.0067

> <Gold.PLP.part.hbond>
-3.0000

> <Gold.PLP.part.metal>
0.0000

> <Gold.PLP.part.buried>
-3.9918

> <Gold.PLP.part.nonpolar>
-24.5632

> <Gold.PLP.part.repulsive>
0.2205

> <Gold.PLP.ligand.clash>
0.0000

> <Gold.PLP.ligand.torsion>
0.2882

> <Gold.PLP.Chemscore.Hbond>
3.9280

> <Gold.PLP.Chemscore.CHOScore>
0.9759

> <Gold.PLP.Chemscore.Metal>
0.0000

> <Gold.Chemscore.Hbonds>
donor molecule, donor type, donor heavy atom, donor atom, acceptor molecule, acceptor atom, score
      L1  H     7    43       P1  7948  2.00
      L1  H    10    36       P1  7948  1.00
      P1  H  7989  7998       L1    19  0.86
      L1  C    18    42       P1  8028  1.00

> <Gold.PLP.Chemscore.Internal.Correction>
0.1720

> <Gold.Rescore>
     Score         DG    S(hbond)    S(metal)    S(lipo)     H(rot)  DE(clash)    DE(int)     intcor
     13.04     -14.46       2.90        0.00      49.56       2.54       0.01       1.41       ----

> <Gold.Chemscore.Fitness>
13.0416

> <Gold.Chemscore.DG>
-14.4608

> <Gold.Chemscore.ZeroCoef>
-5.4800

> <Gold.Chemscore.Hbond>
2.8978

> <Gold.Chemscore.Metal>
0.0000

> <Gold.Chemscore.Lipo>
49.5627

> <Gold.Chemscore.Internal_Hbond>
0.0000

> <Gold.Chemscore.DEClash>
0.0106

> <Gold.Chemscore.DEInternal>
1.4085

> <Gold.Chemscore.Rot>
2.5377

> <Gold.Chemscore.Internal.Correction>
   9.000000E+99

> <Gold.Chemscore.Hbonds>
donor molecule, donor type, donor heavy atom, donor atom, acceptor molecule, acceptor atom, score
      L1  H     7    43       P1  7948  0.55
      L1  H    10    36       P1  7948  0.39
      P1  H  7989  7998       L1    19  0.85

> <Gold.Chemscore.Hbond.Weighted>
-9.6786

> <Gold.Chemscore.Metal.Weighted>
-0.0000

> <Gold.Chemscore.Lipo.Weighted>
-5.7988

> <Gold.Chemscore.Internal_Hbond.Weighted>
0.0000

> <Gold.Chemscore.DEClash.Weighted>
0.0106

> <Gold.Chemscore.DEInternal.Weighted>
1.4085

> <Gold.Chemscore.Rot.Weighted>
6.4966

> <Gold.Chemscore.Internal.Correction.Weighted>
   9.000000E+99

> <Gold.Protein.RotatedTorsions>
[ 6907 6896 6895 6894 ] final -176.26 input  -60.11 | X-H torsion
[ 7974 7965 7964 7962 ] final   70.80 input  175.53 | X-H torsion
[ 8008 7997 7996 7995 ] final  -60.67 input   59.86 | X-H torsion
[ 10167 10162 10161 10158 ] final  124.98 input  -65.29 | X-H torsion
[ 10718 10713 10712 10709 ] final   -0.34 input   66.30 | X-H torsion
[ 10763 10752 10751 10750 ] final  144.05 input  -60.55 | X-H torsion
[ 11005 11000 10999 10996 ] final   47.80 input  -57.11 | X-H torsion

> <Gold.Protein.ActiveResidues>
 VAL166  LYS551  ARG553  GLY616  TRP617  ASP618  TYR619  PRO620  LYS621  CYS622 
 ASP623  PHE694  ASN695  SER759  ASP760  ASP761  ALA762  ILE779  LEU786  VAL792 
 PHE793  MET794  SER795  GLU796  ALA797  LYS798  CYS799  TRP800  GLU811  SER814 

> <Gold.Protein.RotatedAtoms>
  151.6019  133.3355  159.3048 H   0  0  0  0  0  0  0  0  0  0  0  0  # atno 6907 bound_to 6896
  150.8203  134.7411  159.6778 H   0  0  0  0  0  0  0  0  0  0  0  0  # atno 6908 bound_to 6896
  152.4297  134.5807  159.9998 H   0  0  0  0  0  0  0  0  0  0  0  0  # atno 6909 bound_to 6896
  145.7737  139.2855  143.1306 H   0  0  0  0  0  0  0  0  0  0  0  0  # atno 7974 bound_to 7965
  154.4410  140.1034  156.6310 H   0  0  0  0  0  0  0  0  0  0  0  0  # atno 8008 bound_to 7997
  155.5605  140.3487  155.4471 H   0  0  0  0  0  0  0  0  0  0  0  0  # atno 8009 bound_to 7997
  156.0463  140.1293  157.0089 H   0  0  0  0  0  0  0  0  0  0  0  0  # atno 8010 bound_to 7997
  139.5711  144.6939  151.3776 H   0  0  0  0  0  0  0  0  0  0  0  0  # atno 10167 bound_to 10162
  156.8219  130.5459  149.5696 H   0  0  0  0  0  0  0  0  0  0  0  0  # atno 10718 bound_to 10713
  153.9825  135.2940  155.3419 H   0  0  0  0  0  0  0  0  0  0  0  0  # atno 10763 bound_to 10752
  154.7260  135.5088  153.8891 H   0  0  0  0  0  0  0  0  0  0  0  0  # atno 10764 bound_to 10752
  153.0847  135.6690  154.0087 H   0  0  0  0  0  0  0  0  0  0  0  0  # atno 10765 bound_to 10752
  140.1247  134.4784  155.8569 H   0  0  0  0  0  0  0  0  0  0  0  0  # atno 11005 bound_to 11000
  146.0144  140.8405  142.9954 LP  0  0  0  0  0  0  0  0  0  0  0  0  # atno 17320 bound_to 7965
  144.6808  140.2537  143.7328 LP  0  0  0  0  0  0  0  0  0  0  0  0  # atno 17321 bound_to 7965
  140.6995  143.7666  150.7380 LP  0  0  0  0  0  0  0  0  0  0  0  0  # atno 17342 bound_to 10162
  140.1173  143.4644  152.2334 LP  0  0  0  0  0  0  0  0  0  0  0  0  # atno 17343 bound_to 10162
  156.0984  130.5950  150.9852 LP  0  0  0  0  0  0  0  0  0  0  0  0  # atno 17370 bound_to 10713
  157.6452  131.0905  150.8168 LP  0  0  0  0  0  0  0  0  0  0  0  0  # atno 17371 bound_to 10713
  141.2159  133.6773  156.6955 LP  0  0  0  0  0  0  0  0  0  0  0  0  # atno 17394 bound_to 11000
  140.2919  134.8233  157.4024 LP  0  0  0  0  0  0  0  0  0  0  0  0  # atno 17395 bound_to 11000

$$$$
