AV-unprocessed.smi:2026|AV-procd|sdf|8207|dock3
  -GOLD-   2272010463D 1   1.00000     0.00000
 Structure written by MMmdl.
 46 48  0  0  0  0  0  0  0  0  3 V2000
  152.7001  144.3227  159.6020 C   0  0  0  0  0  0  0  0  0  0  0  0
  152.0342  143.1418  158.9170 C   0  0  0  0  0  0  0  0  0  0  0  0
  151.2123  143.3888  157.7933 C   0  0  0  0  0  0  0  0  0  0  0  0
  150.6163  142.2877  157.1890 C   0  0  0  0  0  0  0  0  0  0  0  0
  149.7673  142.1937  156.0832 N   0  3  0  0  0  0  0  0  0  0  0  0
  149.4421  140.8879  155.8688 C   0  0  0  0  0  0  0  0  0  0  0  0
  150.0713  140.1492  156.8215 N   0  0  0  0  0  0  0  0  0  0  0  0
  150.0745  138.7011  157.0571 C   0  0  0  0  0  0  0  0  0  0  0  0
  149.1329  138.2945  158.2097 C   0  0  2  0  0  0  0  0  0  0  0  0
  149.8991  138.0401  159.3697 O   0  0  0  0  0  0  0  0  0  0  0  0
  148.2734  137.0516  157.9023 C   0  0  0  0  0  0  0  0  0  0  0  0
  147.9654  136.2734  159.1096 N   0  0  0  0  0  0  0  0  0  0  0  0
  148.4161  135.0318  159.3740 C   0  0  0  0  0  0  0  0  0  0  0  0
  149.1554  134.4213  158.6028 O   0  0  0  0  0  0  0  0  0  0  0  0
  147.9379  134.5831  160.5584 N   0  5  0  0  0  0  0  0  0  0  0  0
  147.0933  135.6060  161.1409 C   0  0  0  0  0  0  0  0  0  0  0  0
  145.6555  135.0768  161.3023 C   0  0  0  0  0  0  0  0  0  0  0  0
  147.6772  136.0761  162.4865 C   0  0  0  0  0  0  0  0  0  0  0  0
  147.1685  136.7029  160.0943 C   0  0  0  0  0  0  0  0  0  0  0  0
  146.5754  137.7799  160.1660 O   0  0  0  0  0  0  0  0  0  0  0  0
  150.8148  140.9785  157.6664 C   0  0  0  0  0  0  0  0  0  0  0  0
  151.6226  140.7165  158.7694 C   0  0  0  0  0  0  0  0  0  0  0  0
  152.2380  141.8218  159.3978 C   0  0  0  0  0  0  0  0  0  0  0  0
  153.1258  141.5652  160.6036 C   0  0  0  0  0  0  0  0  0  0  0  0
  152.4174  145.2668  159.1352 H   0  0  0  0  0  0  0  0  0  0  0  0
  153.7852  144.2343  159.5455 H   0  0  0  0  0  0  0  0  0  0  0  0
  152.4099  144.3707  160.6519 H   0  0  0  0  0  0  0  0  0  0  0  0
  151.0553  144.3906  157.4203 H   0  0  0  0  0  0  0  0  0  0  0  0
  148.8046  140.5072  155.0839 H   0  0  0  0  0  0  0  0  0  0  0  0
  149.7969  138.2151  156.1215 H   0  0  0  0  0  0  0  0  0  0  0  0
  151.0995  138.3947  157.2704 H   0  0  0  0  0  0  0  0  0  0  0  0
  148.4712  139.1276  158.4475 H   0  0  0  0  0  0  0  0  0  0  0  0
  149.5411  138.5486  160.0811 H   0  0  0  0  0  0  0  0  0  0  0  0
  147.3586  137.3502  157.3881 H   0  0  0  0  0  0  0  0  0  0  0  0
  148.8024  136.4035  157.2012 H   0  0  0  0  0  0  0  0  0  0  0  0
  144.9921  135.8459  161.6994 H   0  0  0  0  0  0  0  0  0  0  0  0
  145.6233  134.2317  161.9907 H   0  0  0  0  0  0  0  0  0  0  0  0
  145.2390  134.7385  160.3529 H   0  0  0  0  0  0  0  0  0  0  0  0
  147.0556  136.8504  162.9377 H   0  0  0  0  0  0  0  0  0  0  0  0
  148.6816  136.4867  162.3718 H   0  0  0  0  0  0  0  0  0  0  0  0
  147.7393  135.2518  163.1978 H   0  0  0  0  0  0  0  0  0  0  0  0
  151.7783  139.7104  159.1302 H   0  0  0  0  0  0  0  0  0  0  0  0
  153.2208  140.4987  160.8091 H   0  0  0  0  0  0  0  0  0  0  0  0
  152.7102  142.0405  161.4922 H   0  0  0  0  0  0  0  0  0  0  0  0
  154.1281  141.9594  160.4348 H   0  0  0  0  0  0  0  0  0  0  0  0
  149.4344  142.9612  155.5140 H   0  0  0  0  0  0  0  0  0  0  0  0
  1  2  1  0  0  0  0
  1 25  1  0  0  0  0
  1 26  1  0  0  0  0
  1 27  1  0  0  0  0
  2 23  1  0  0  0  0
  2  3  2  0  0  0  0
  3  4  1  0  0  0  0
  3 28  1  0  0  0  0
  4 21  2  0  0  0  0
  4  5  1  0  0  0  0
  5  6  2  0  0  0  0
  5 46  1  0  0  0  0
  6  7  1  0  0  0  0
  6 29  1  0  0  0  0
  7  8  1  0  0  0  0
  7 21  1  0  0  0  0
  8  9  1  0  0  0  0
  8 30  1  0  0  0  0
  8 31  1  0  0  0  0
  9 10  1  0  0  0  0
  9 11  1  0  0  0  0
  9 32  1  0  0  0  0
 10 33  1  0  0  0  0
 11 12  1  0  0  0  0
 11 34  1  0  0  0  0
 11 35  1  0  0  0  0
 12 19  1  0  0  0  0
 12 13  1  0  0  0  0
 13 14  2  0  0  0  0
 13 15  1  0  0  0  0
 15 16  1  0  0  0  0
 16 17  1  0  0  0  0
 16 18  1  0  0  0  0
 16 19  1  0  0  0  0
 17 36  1  0  0  0  0
 17 37  1  0  0  0  0
 17 38  1  0  0  0  0
 18 39  1  0  0  0  0
 18 40  1  0  0  0  0
 18 41  1  0  0  0  0
 19 20  2  0  0  0  0
 21 22  1  0  0  0  0
 22 23  2  0  0  0  0
 22 42  1  0  0  0  0
 23 24  1  0  0  0  0
 24 43  1  0  0  0  0
 24 44  1  0  0  0  0
 24 45  1  0  0  0  0
M  CHG  1   5   1
M  CHG  1  15  -1
M  END
> <s_m_source_file>
AV-unprocessed.smi

> <i_m_source_file_index>
2026

> <i_lp_mmshare_version>
43012

> <i_f3d_flags>
0

> <s_epik_input>
W0NIM11jKFtjSF0xKWMoW0NIM10pW2NIXWMoYzEyKW4oW2NIXW4yKVtDSDJdW0NASF0oW09IXSlbQ0gyXU4oQzM9TylDKD1PKVtOSF1DMyhbQ0gzXSlbQ0gzXQ==

> <s_epik_cmdline>
J2VwaWtfcHl0aG9uJywgJy1waCcsICc3LjAnLCAnLXRuJywgJzgnLCAnLW1hJywgJzIwMCcsICctbWV0YWxfYmluZGluZycsICctaW1hZScsICc8aW5maWxlLm1hZT4nLCAnLW9tYWUnLCAnPG91dGZpbGUubWFlPic=

> <r_lp_tautomer_probability>
1

> <r_epik_Ionization_Penalty>
6.70784

> <r_epik_Ionization_Penalty_Charging>
6.70784

> <r_epik_Ionization_Penalty_Neutral>
1.13852e-06

> <r_epik_State_Penalty>
6.78089

> <r_epik_Charging_Adjusted_Penalty>
13.4887

> <i_epik_Tot_Q>
0

> <i_epik_Tot_abs_Q>
2

> <r_epik_Metal_State_Penalty>
2.84685

> <b_epik_Metal_Only>
1

> <s_lp_Force_Field>
OPLS_2005

> <r_lp_Energy>
17.8482

> <b_lp_Chiralities_Consistent>
1

> <s_lp_Variant>
AV-unprocessed.smi:2026-7

> <Gold.Version>
5.8.1

> <Gold.Id.Protein>
6NUR|6NUR_protein|mol2

> <Gold.PLP.Fitness>
48.1450

> <Gold.PLP.PLP>
-39.5063

> <Gold.PLP.part.hbond>
-3.9089

> <Gold.PLP.part.metal>
0.0000

> <Gold.PLP.part.buried>
-6.4160

> <Gold.PLP.part.nonpolar>
-30.1387

> <Gold.PLP.part.repulsive>
0.1027

> <Gold.PLP.ligand.clash>
0.0000

> <Gold.PLP.ligand.torsion>
1.3346

> <Gold.PLP.Chemscore.Hbond>
3.7600

> <Gold.PLP.Chemscore.CHOScore>
0.0000

> <Gold.PLP.Chemscore.Metal>
0.0000

> <Gold.Chemscore.Hbonds>
donor molecule, donor type, donor heavy atom, donor atom, acceptor molecule, acceptor atom, score
      L1  H     5    46       P1  8028  1.66
      P1  H  6896  6907       L1    14  1.00
      P1  H  6934  6947       L1    20  1.00

> <Gold.PLP.Chemscore.Internal.Correction>
0.0279

> <Gold.Rescore>
     Score         DG    S(hbond)    S(metal)    S(lipo)     H(rot)  DE(clash)    DE(int)     intcor
     18.84     -20.38       2.74        0.00     102.54       2.44       0.13       1.40       ----

> <Gold.Chemscore.Fitness>
18.8443

> <Gold.Chemscore.DG>
-20.3803

> <Gold.Chemscore.ZeroCoef>
-5.4800

> <Gold.Chemscore.Hbond>
2.7361

> <Gold.Chemscore.Metal>
0.0000

> <Gold.Chemscore.Lipo>
102.5390

> <Gold.Chemscore.Internal_Hbond>
0.0000

> <Gold.Chemscore.DEClash>
0.1334

> <Gold.Chemscore.DEInternal>
1.4026

> <Gold.Chemscore.Rot>
2.4357

> <Gold.Chemscore.Internal.Correction>
   9.000000E+99

> <Gold.Chemscore.Hbonds>
donor molecule, donor type, donor heavy atom, donor atom, acceptor molecule, acceptor atom, score
      L1  H     5    46       P1  8028  0.81
      P1  H  6896  6907       L1    14  0.85
      P1  H  6934  6947       L1    20  0.95

> <Gold.Chemscore.Hbond.Weighted>
-9.1385

> <Gold.Chemscore.Metal.Weighted>
-0.0000

> <Gold.Chemscore.Lipo.Weighted>
-11.9971

> <Gold.Chemscore.Internal_Hbond.Weighted>
0.0000

> <Gold.Chemscore.DEClash.Weighted>
0.1334

> <Gold.Chemscore.DEInternal.Weighted>
1.4026

> <Gold.Chemscore.Rot.Weighted>
6.2353

> <Gold.Chemscore.Internal.Correction.Weighted>
   9.000000E+99

> <Gold.Protein.RotatedTorsions>
[ 6907 6896 6895 6894 ] final -109.86 input  -60.11 | X-H torsion
[ 7974 7965 7964 7962 ] final  -79.98 input  175.53 | X-H torsion
[ 8008 7997 7996 7995 ] final   -4.00 input   59.86 | X-H torsion
[ 10167 10162 10161 10158 ] final  -93.05 input  -65.29 | X-H torsion
[ 10718 10713 10712 10709 ] final -102.68 input   66.30 | X-H torsion
[ 10763 10752 10751 10750 ] final  173.34 input  -60.55 | X-H torsion
[ 11005 11000 10999 10996 ] final   51.91 input  -57.11 | X-H torsion

> <Gold.Protein.ActiveResidues>
 VAL166  LYS551  ARG553  GLY616  TRP617  ASP618  TYR619  PRO620  LYS621  CYS622 
 ASP623  PHE694  ASN695  SER759  ASP760  ASP761  ALA762  ILE779  LEU786  VAL792 
 PHE793  MET794  SER795  GLU796  ALA797  LYS798  CYS799  TRP800  GLU811  SER814 

> <Gold.Protein.RotatedAtoms>
  150.7588  133.9467  159.3472 H   0  0  0  0  0  0  0  0  0  0  0  0  # atno 6907 bound_to 6896
  151.7380  135.0858  160.0320 H   0  0  0  0  0  0  0  0  0  0  0  0  # atno 6908 bound_to 6896
  152.3547  133.6184  159.6006 H   0  0  0  0  0  0  0  0  0  0  0  0  # atno 6909 bound_to 6896
  145.5660  140.9474  143.1421 H   0  0  0  0  0  0  0  0  0  0  0  0  # atno 7974 bound_to 7965
  154.6189  140.2495  155.7574 H   0  0  0  0  0  0  0  0  0  0  0  0  # atno 8008 bound_to 7997
  156.2415  140.2931  156.0407 H   0  0  0  0  0  0  0  0  0  0  0  0  # atno 8009 bound_to 7997
  155.1929  140.0392  157.2894 H   0  0  0  0  0  0  0  0  0  0  0  0  # atno 8010 bound_to 7997
  140.3286  143.3007  151.9967 H   0  0  0  0  0  0  0  0  0  0  0  0  # atno 10167 bound_to 10162
  156.0237  130.5431  150.7143 H   0  0  0  0  0  0  0  0  0  0  0  0  # atno 10718 bound_to 10713
  154.4387  135.2761  155.1862 H   0  0  0  0  0  0  0  0  0  0  0  0  # atno 10763 bound_to 10752
  154.3738  135.6103  153.5757 H   0  0  0  0  0  0  0  0  0  0  0  0  # atno 10764 bound_to 10752
  152.9839  135.5863  154.4711 H   0  0  0  0  0  0  0  0  0  0  0  0  # atno 10765 bound_to 10752
  140.0893  134.5231  155.8868 H   0  0  0  0  0  0  0  0  0  0  0  0  # atno 11005 bound_to 11000
  144.7460  139.7318  143.7292 LP  0  0  0  0  0  0  0  0  0  0  0  0  # atno 17320 bound_to 7965
  146.1818  139.5014  142.9861 LP  0  0  0  0  0  0  0  0  0  0  0  0  # atno 17321 bound_to 7965
  139.4860  144.6253  151.7176 LP  0  0  0  0  0  0  0  0  0  0  0  0  # atno 17342 bound_to 10162
  140.5418  144.0567  150.6091 LP  0  0  0  0  0  0  0  0  0  0  0  0  # atno 17343 bound_to 10162
  157.4774  131.0899  151.0575 LP  0  0  0  0  0  0  0  0  0  0  0  0  # atno 17370 bound_to 10713
  157.1018  130.5985  149.5462 LP  0  0  0  0  0  0  0  0  0  0  0  0  # atno 17371 bound_to 10713
  141.2072  133.6662  156.6294 LP  0  0  0  0  0  0  0  0  0  0  0  0  # atno 17394 bound_to 11000
  140.3375  134.7877  157.4373 LP  0  0  0  0  0  0  0  0  0  0  0  0  # atno 17395 bound_to 11000

$$$$
