AV-unprocessed.smi:2168|AV-procd|sdf|8818|dock5
  -GOLD-   2272012 13D 1   1.00000     0.00000
 Structure written by MMmdl.
 46 47  0  0  0  0  0  0  0  0  1 V2000
  145.7890  143.6068  153.6983 C   0  0  0  0  0  0  0  0  0  0  0  0
  146.4619  142.7877  154.8099 C   0  0  0  0  0  0  0  0  0  0  0  0
  146.5344  141.3536  154.4765 N   0  0  0  0  0  0  0  0  0  0  0  0
  147.7617  140.9330  153.7724 C   0  0  0  0  0  0  0  0  0  0  0  0
  149.0073  141.1870  154.6329 C   0  0  0  0  0  0  0  0  0  0  0  0
  145.7946  140.2371  155.5813 S   0  0  0  0  0  0  0  0  0  0  0  0
  146.7951  139.2372  155.9848 O   0  0  0  0  0  0  0  0  0  0  0  0
  145.0354  140.9903  156.5915 O   0  0  0  0  0  0  0  0  0  0  0  0
  144.6676  139.4795  154.5232 N   0  0  0  0  0  0  0  0  0  0  0  0
  143.8726  138.3383  154.9641 C   0  0  0  0  0  0  0  0  0  0  0  0
  144.0503  137.1404  154.0541 C   0  0  0  0  0  0  0  0  0  0  0  0
  144.2748  135.8573  154.5884 C   0  0  0  0  0  0  0  0  0  0  0  0
  144.4560  134.7747  153.7071 C   0  0  0  0  0  0  0  0  0  0  0  0
  144.4110  135.0045  152.3108 C   0  0  0  0  0  0  0  0  0  0  0  0
  144.6001  133.9352  151.4077 N   0  0  0  0  0  0  0  0  0  0  0  0
  143.4893  132.9919  151.3003 C   0  0  0  0  0  0  0  0  0  0  0  0
  143.6835  132.0700  150.0840 C   0  0  0  0  0  0  0  0  0  0  0  0
  144.9500  131.4252  150.1646 O   0  0  0  0  0  0  0  0  0  0  0  0
  146.0215  132.3621  150.1520 C   0  0  0  0  0  0  0  0  0  0  0  0
  145.9118  133.2903  151.3732 C   0  0  0  0  0  0  0  0  0  0  0  0
  144.1840  136.2422  151.8034 N   0  0  0  0  0  0  0  0  0  0  0  0
  144.0119  137.2773  152.6525 C   0  0  0  0  0  0  0  0  0  0  0  0
  145.6804  144.6480  154.0021 H   0  0  0  0  0  0  0  0  0  0  0  0
  144.7935  143.2220  153.4756 H   0  0  0  0  0  0  0  0  0  0  0  0
  146.3686  143.5981  152.7754 H   0  0  0  0  0  0  0  0  0  0  0  0
  147.4645  143.1641  155.0158 H   0  0  0  0  0  0  0  0  0  0  0  0
  145.8899  142.9167  155.7286 H   0  0  0  0  0  0  0  0  0  0  0  0
  147.7035  139.8788  153.4994 H   0  0  0  0  0  0  0  0  0  0  0  0
  147.8473  141.4790  152.8325 H   0  0  0  0  0  0  0  0  0  0  0  0
  149.9084  140.8701  154.1077 H   0  0  0  0  0  0  0  0  0  0  0  0
  148.9619  140.6351  155.5715 H   0  0  0  0  0  0  0  0  0  0  0  0
  149.1237  142.2431  154.8744 H   0  0  0  0  0  0  0  0  0  0  0  0
  144.2402  140.0875  153.8253 H   0  0  0  0  0  0  0  0  0  0  0  0
  144.1562  138.0763  155.9838 H   0  0  0  0  0  0  0  0  0  0  0  0
  142.8203  138.6241  154.9898 H   0  0  0  0  0  0  0  0  0  0  0  0
  144.3097  135.7035  155.6571 H   0  0  0  0  0  0  0  0  0  0  0  0
  144.6145  133.7861  154.1109 H   0  0  0  0  0  0  0  0  0  0  0  0
  143.4436  132.3981  152.2141 H   0  0  0  0  0  0  0  0  0  0  0  0
  142.5317  133.5017  151.2063 H   0  0  0  0  0  0  0  0  0  0  0  0
  142.9007  131.3119  150.0590 H   0  0  0  0  0  0  0  0  0  0  0  0
  143.6093  132.6345  149.1530 H   0  0  0  0  0  0  0  0  0  0  0  0
  146.9671  131.8206  150.1761 H   0  0  0  0  0  0  0  0  0  0  0  0
  146.0063  132.9364  149.2243 H   0  0  0  0  0  0  0  0  0  0  0  0
  146.7016  134.0413  151.3268 H   0  0  0  0  0  0  0  0  0  0  0  0
  146.0578  132.7183  152.2908 H   0  0  0  0  0  0  0  0  0  0  0  0
  143.8456  138.2426  152.1972 H   0  0  0  0  0  0  0  0  0  0  0  0
  1  2  1  0  0  0  0
  1 23  1  0  0  0  0
  1 24  1  0  0  0  0
  1 25  1  0  0  0  0
  2  3  1  0  0  0  0
  2 26  1  0  0  0  0
  2 27  1  0  0  0  0
  3  4  1  0  0  0  0
  3  6  1  0  0  0  0
  4  5  1  0  0  0  0
  4 28  1  0  0  0  0
  4 29  1  0  0  0  0
  5 30  1  0  0  0  0
  5 31  1  0  0  0  0
  5 32  1  0  0  0  0
  6  7  2  0  0  0  0
  6  8  2  0  0  0  0
  6  9  1  0  0  0  0
  9 10  1  0  0  0  0
  9 33  1  0  0  0  0
 10 11  1  0  0  0  0
 10 34  1  0  0  0  0
 10 35  1  0  0  0  0
 11 22  1  0  0  0  0
 11 12  2  0  0  0  0
 12 13  1  0  0  0  0
 12 36  1  0  0  0  0
 13 14  2  0  0  0  0
 13 37  1  0  0  0  0
 14 15  1  0  0  0  0
 14 21  1  0  0  0  0
 15 20  1  0  0  0  0
 15 16  1  0  0  0  0
 16 17  1  0  0  0  0
 16 38  1  0  0  0  0
 16 39  1  0  0  0  0
 17 18  1  0  0  0  0
 17 40  1  0  0  0  0
 17 41  1  0  0  0  0
 18 19  1  0  0  0  0
 19 20  1  0  0  0  0
 19 42  1  0  0  0  0
 19 43  1  0  0  0  0
 20 44  1  0  0  0  0
 20 45  1  0  0  0  0
 21 22  2  0  0  0  0
 22 46  1  0  0  0  0
M  END
> <s_m_source_file>
AV-unprocessed.smi

> <i_m_source_file_index>
2168

> <i_lp_mmshare_version>
43012

> <i_f3d_flags>
0

> <s_epik_input>
W0NIM11bQ0gyXU4oW0NIMl1bQ0gzXSlTKD1PKSg9TylbTkhdW0NIMl1jMVtjSF1bY0hdYyhuW2NIXTEpTjJbQ0gyXVtDSDJdT1tDSDJdW0NIMl0y

> <s_epik_cmdline>
J2VwaWtfcHl0aG9uJywgJy1waCcsICc3LjAnLCAnLXRuJywgJzgnLCAnLW1hJywgJzIwMCcsICctbWV0YWxfYmluZGluZycsICctaW1hZScsICc8aW5maWxlLm1hZT4nLCAnLW9tYWUnLCAnPG91dGZpbGUubWFlPic=

> <r_lp_tautomer_probability>
1

> <r_epik_Ionization_Penalty>
0.0173889

> <r_epik_Ionization_Penalty_Charging>
0

> <r_epik_Ionization_Penalty_Neutral>
0.0173889

> <r_epik_State_Penalty>
0.0135122

> <r_epik_Charging_Adjusted_Penalty>
0.0135122

> <i_epik_Tot_Q>
0

> <i_epik_Tot_abs_Q>
0

> <r_epik_Metal_State_Penalty>
0.283451

> <b_epik_Metal_Only>
0

> <s_lp_Force_Field>
OPLS_2005

> <r_lp_Energy>
21.8709

> <b_lp_Chiralities_Consistent>
1

> <s_lp_Variant>
AV-unprocessed.smi:2168-1

> <Gold.Version>
5.8.1

> <Gold.Id.Protein>
6NUR|6NUR_protein|mol2

> <Gold.PLP.Fitness>
40.0891

> <Gold.PLP.PLP>
-32.3505

> <Gold.PLP.part.hbond>
-1.3532

> <Gold.PLP.part.metal>
0.0000

> <Gold.PLP.part.buried>
-3.0606

> <Gold.PLP.part.nonpolar>
-28.6712

> <Gold.PLP.part.repulsive>
0.6499

> <Gold.PLP.ligand.clash>
0.0000

> <Gold.PLP.ligand.torsion>
2.3757

> <Gold.PLP.Chemscore.Hbond>
1.0000

> <Gold.PLP.Chemscore.CHOScore>
1.8307

> <Gold.PLP.Chemscore.Metal>
0.0000

> <Gold.Chemscore.Hbonds>
donor molecule, donor type, donor heavy atom, donor atom, acceptor molecule, acceptor atom, score
      L1  H     9    33       P1 10175  0.93
      L1  C    22    46       P1 10171  0.87
      L1  C    22    46       P1 10175  1.00

> <Gold.PLP.Chemscore.Internal.Correction>
3.9979

> <Gold.Rescore>
     Score         DG    S(hbond)    S(metal)    S(lipo)     H(rot)  DE(clash)    DE(int)     intcor
     10.65     -13.03       1.00        0.00      73.63       1.72       0.02       2.37       ----

> <Gold.Chemscore.Fitness>
10.6451

> <Gold.Chemscore.DG>
-13.0329

> <Gold.Chemscore.ZeroCoef>
-5.4800

> <Gold.Chemscore.Hbond>
0.9986

> <Gold.Chemscore.Metal>
0.0000

> <Gold.Chemscore.Lipo>
73.6314

> <Gold.Chemscore.Internal_Hbond>
0.0000

> <Gold.Chemscore.DEClash>
0.0195

> <Gold.Chemscore.DEInternal>
2.3682

> <Gold.Chemscore.Rot>
1.7177

> <Gold.Chemscore.Internal.Correction>
   9.000000E+99

> <Gold.Chemscore.Hbonds>
donor molecule, donor type, donor heavy atom, donor atom, acceptor molecule, acceptor atom, score
      L1  H     9    33       P1 10175  0.88

> <Gold.Chemscore.Hbond.Weighted>
-3.3353

> <Gold.Chemscore.Metal.Weighted>
-0.0000

> <Gold.Chemscore.Lipo.Weighted>
-8.6149

> <Gold.Chemscore.Internal_Hbond.Weighted>
0.0000

> <Gold.Chemscore.DEClash.Weighted>
0.0195

> <Gold.Chemscore.DEInternal.Weighted>
2.3682

> <Gold.Chemscore.Rot.Weighted>
4.3974

> <Gold.Chemscore.Internal.Correction.Weighted>
   9.000000E+99

> <Gold.Protein.RotatedTorsions>
[ 6907 6896 6895 6894 ] final  175.68 input  -60.11 | X-H torsion
[ 7974 7965 7964 7962 ] final   47.01 input  175.53 | X-H torsion
[ 8008 7997 7996 7995 ] final  123.63 input   59.86 | X-H torsion
[ 10167 10162 10161 10158 ] final   21.31 input  -65.29 | X-H torsion
[ 10718 10713 10712 10709 ] final -119.97 input   66.30 | X-H torsion
[ 10763 10752 10751 10750 ] final  103.19 input  -60.55 | X-H torsion
[ 11005 11000 10999 10996 ] final  -26.87 input  -57.11 | X-H torsion

> <Gold.Protein.ActiveResidues>
 VAL166  LYS551  ARG553  GLY616  TRP617  ASP618  TYR619  PRO620  LYS621  CYS622 
 ASP623  PHE694  ASN695  SER759  ASP760  ASP761  ALA762  ILE779  LEU786  VAL792 
 PHE793  MET794  SER795  GLU796  ALA797  LYS798  CYS799  TRP800  GLU811  SER814 

> <Gold.Protein.RotatedAtoms>
  151.7323  133.3318  159.3343 H   0  0  0  0  0  0  0  0  0  0  0  0  # atno 6907 bound_to 6896
  150.7607  134.6352  159.6217 H   0  0  0  0  0  0  0  0  0  0  0  0  # atno 6908 bound_to 6896
  152.3583  134.6910  160.0266 H   0  0  0  0  0  0  0  0  0  0  0  0  # atno 6909 bound_to 6896
  146.0337  139.4795  142.9821 H   0  0  0  0  0  0  0  0  0  0  0  0  # atno 7974 bound_to 7965
  156.2773  140.2758  156.1658 H   0  0  0  0  0  0  0  0  0  0  0  0  # atno 8008 bound_to 7997
  155.0706  140.0387  157.2625 H   0  0  0  0  0  0  0  0  0  0  0  0  # atno 8009 bound_to 7997
  154.7043  140.2655  155.6695 H   0  0  0  0  0  0  0  0  0  0  0  0  # atno 8010 bound_to 7997
  140.5437  143.9633  150.6534 H   0  0  0  0  0  0  0  0  0  0  0  0  # atno 10167 bound_to 10162
  156.1222  130.6332  150.9482 H   0  0  0  0  0  0  0  0  0  0  0  0  # atno 10718 bound_to 10713
  153.3494  135.3985  155.1634 H   0  0  0  0  0  0  0  0  0  0  0  0  # atno 10763 bound_to 10752
  154.8659  135.3653  154.5242 H   0  0  0  0  0  0  0  0  0  0  0  0  # atno 10764 bound_to 10752
  153.5692  135.7079  153.5572 H   0  0  0  0  0  0  0  0  0  0  0  0  # atno 10765 bound_to 10752
  140.9068  133.7487  156.0617 H   0  0  0  0  0  0  0  0  0  0  0  0  # atno 11005 bound_to 11000
  145.6998  141.0139  143.1510 LP  0  0  0  0  0  0  0  0  0  0  0  0  # atno 17320 bound_to 7965
  144.7042  139.8631  143.7435 LP  0  0  0  0  0  0  0  0  0  0  0  0  # atno 17321 bound_to 7965
  140.3040  143.3241  152.0944 LP  0  0  0  0  0  0  0  0  0  0  0  0  # atno 17342 bound_to 10162
  139.4998  144.6679  151.6313 LP  0  0  0  0  0  0  0  0  0  0  0  0  # atno 17343 bound_to 10162
  157.6405  131.0911  150.8261 LP  0  0  0  0  0  0  0  0  0  0  0  0  # atno 17370 bound_to 10713
  156.8356  130.5030  149.5326 LP  0  0  0  0  0  0  0  0  0  0  0  0  # atno 17371 bound_to 10713
  140.8161  134.3344  157.5397 LP  0  0  0  0  0  0  0  0  0  0  0  0  # atno 17394 bound_to 11000
  139.8751  134.9282  156.3444 LP  0  0  0  0  0  0  0  0  0  0  0  0  # atno 17395 bound_to 11000

$$$$
