AV-unprocessed.smi:91|AV-procd|sdf|837|dock10
  -GOLD-   2262017263D 1   1.00000     0.00000
 Structure written by MMmdl.
 60 63  0  0  0  0  0  0  0  0  1 V2000
  144.3957  131.8221  150.6888 C   0  0  0  0  0  0  0  0  0  0  0  0
  145.1986  131.4468  151.7940 O   0  0  0  0  0  0  0  0  0  0  0  0
  146.3621  132.2495  151.9174 C   0  0  0  0  0  0  0  0  0  0  0  0
  147.1804  131.8089  153.1389 C   0  0  2  0  0  0  0  0  0  0  0  0
  148.3120  132.7908  153.4911 C   0  0  0  0  0  0  0  0  0  0  0  0
  149.1084  132.2508  154.5865 N   0  0  0  0  0  0  0  0  0  0  0  0
  149.9527  133.0829  155.2456 C   0  0  0  0  0  0  0  0  0  0  0  0
  151.0382  132.5798  155.8922 N   0  0  0  0  0  0  0  0  0  0  0  0
  151.8706  133.3947  156.5473 C   0  0  0  0  0  0  0  0  0  0  0  0
  151.8098  134.7212  156.6772 N   0  0  0  0  0  0  0  0  0  0  0  0
  150.7292  135.2332  156.0220 C   0  0  0  0  0  0  0  0  0  0  0  0
  149.7590  134.4924  155.2894 C   0  0  0  0  0  0  0  0  0  0  0  0
  148.8131  135.3561  154.7491 N   0  0  0  0  0  0  0  0  0  0  0  0
  149.1980  136.5385  155.1447 C   0  0  0  0  0  0  0  0  0  0  0  0
  150.3428  136.5575  155.9076 N   0  0  0  0  0  0  0  0  0  0  0  0
  150.9884  137.7342  156.4633 C   0  0  0  0  0  0  0  0  0  0  0  0
  151.2952  138.8139  155.3960 C   0  0  2  0  0  0  0  0  0  0  0  0
  152.4124  138.3775  154.4170 C   0  0  0  0  0  0  0  0  0  0  0  0
  152.1643  137.0895  153.8911 O   0  0  0  0  0  0  0  0  0  0  0  0
  151.5806  140.1929  156.0428 C   0  0  1  0  0  0  0  0  0  0  0  0
  150.3514  141.0491  156.2932 C   0  0  0  0  0  0  0  0  0  0  0  0
  150.8656  142.0547  157.3161 C   0  0  0  0  0  0  0  0  0  0  0  0
  151.8087  141.3414  158.1068 O   0  0  0  0  0  0  0  0  0  0  0  0
  152.1667  140.1246  157.4583 C   0  0  0  0  0  0  0  0  0  0  0  0
  149.6393  130.9225  154.3016 C   0  0  0  0  0  0  0  0  0  0  0  0
  148.5045  129.9409  153.9341 C   0  0  0  0  0  0  0  0  0  0  0  0
  149.1023  128.6542  153.3450 C   0  0  0  0  0  0  0  0  0  0  0  0
  147.6383  129.5825  155.1605 C   0  0  0  0  0  0  0  0  0  0  0  0
  147.7081  130.5058  152.8860 O   0  0  0  0  0  0  0  0  0  0  0  0
  143.5180  131.1781  150.6377 H   0  0  0  0  0  0  0  0  0  0  0  0
  144.9435  131.7199  149.7511 H   0  0  0  0  0  0  0  0  0  0  0  0
  144.0519  132.8529  150.7829 H   0  0  0  0  0  0  0  0  0  0  0  0
  146.9692  132.1534  151.0160 H   0  0  0  0  0  0  0  0  0  0  0  0
  146.0879  133.3011  152.0137 H   0  0  0  0  0  0  0  0  0  0  0  0
  146.4902  131.7489  153.9805 H   0  0  0  0  0  0  0  0  0  0  0  0
  148.9582  132.9556  152.6276 H   0  0  0  0  0  0  0  0  0  0  0  0
  147.8873  133.7559  153.7703 H   0  0  0  0  0  0  0  0  0  0  0  0
  152.7050  132.9146  157.0368 H   0  0  0  0  0  0  0  0  0  0  0  0
  148.6582  137.4372  154.8836 H   0  0  0  0  0  0  0  0  0  0  0  0
  150.3298  138.1321  157.2352 H   0  0  0  0  0  0  0  0  0  0  0  0
  151.9036  137.4278  156.9710 H   0  0  0  0  0  0  0  0  0  0  0  0
  150.3918  138.9271  154.7947 H   0  0  0  0  0  0  0  0  0  0  0  0
  152.5058  139.0808  153.5896 H   0  0  0  0  0  0  0  0  0  0  0  0
  153.3829  138.3709  154.9125 H   0  0  0  0  0  0  0  0  0  0  0  0
  151.8882  137.1790  152.9916 H   0  0  0  0  0  0  0  0  0  0  0  0
  152.2697  140.7576  155.4126 H   0  0  0  0  0  0  0  0  0  0  0  0
  149.9707  141.5314  155.3925 H   0  0  0  0  0  0  0  0  0  0  0  0
  149.5492  140.4505  156.7273 H   0  0  0  0  0  0  0  0  0  0  0  0
  151.3809  142.8758  156.8162 H   0  0  0  0  0  0  0  0  0  0  0  0
  150.0670  142.4759  157.9270 H   0  0  0  0  0  0  0  0  0  0  0  0
  151.7284  139.2995  158.0213 H   0  0  0  0  0  0  0  0  0  0  0  0
  153.2487  139.9902  157.4535 H   0  0  0  0  0  0  0  0  0  0  0  0
  150.3366  131.0120  153.4673 H   0  0  0  0  0  0  0  0  0  0  0  0
  150.2119  130.5271  155.1400 H   0  0  0  0  0  0  0  0  0  0  0  0
  149.7458  128.1486  154.0658 H   0  0  0  0  0  0  0  0  0  0  0  0
  149.7017  128.8666  152.4590 H   0  0  0  0  0  0  0  0  0  0  0  0
  148.3197  127.9544  153.0508 H   0  0  0  0  0  0  0  0  0  0  0  0
  148.2242  129.0438  155.9060 H   0  0  0  0  0  0  0  0  0  0  0  0
  146.7998  128.9457  154.8770 H   0  0  0  0  0  0  0  0  0  0  0  0
  147.2322  130.4633  155.6567 H   0  0  0  0  0  0  0  0  0  0  0  0
  1  2  1  0  0  0  0
  1 30  1  0  0  0  0
  1 31  1  0  0  0  0
  1 32  1  0  0  0  0
  2  3  1  0  0  0  0
  3  4  1  0  0  0  0
  3 33  1  0  0  0  0
  3 34  1  0  0  0  0
  4 29  1  0  0  0  0
  4  5  1  0  0  0  0
  4 35  1  0  0  0  0
  5  6  1  0  0  0  0
  5 36  1  0  0  0  0
  5 37  1  0  0  0  0
  6  7  1  0  0  0  0
  6 25  1  0  0  0  0
  7 12  1  0  0  0  0
  7  8  2  0  0  0  0
  8  9  1  0  0  0  0
  9 10  2  0  0  0  0
  9 38  1  0  0  0  0
 10 11  1  0  0  0  0
 11 15  1  0  0  0  0
 11 12  2  0  0  0  0
 12 13  1  0  0  0  0
 13 14  2  0  0  0  0
 14 15  1  0  0  0  0
 14 39  1  0  0  0  0
 15 16  1  0  0  0  0
 16 17  1  0  0  0  0
 16 40  1  0  0  0  0
 16 41  1  0  0  0  0
 17 18  1  0  0  0  0
 17 20  1  0  0  0  0
 17 42  1  0  0  0  0
 18 19  1  0  0  0  0
 18 43  1  0  0  0  0
 18 44  1  0  0  0  0
 19 45  1  0  0  0  0
 20 24  1  0  0  0  0
 20 21  1  0  0  0  0
 20 46  1  0  0  0  0
 21 22  1  0  0  0  0
 21 47  1  0  0  0  0
 21 48  1  0  0  0  0
 22 23  1  0  0  0  0
 22 49  1  0  0  0  0
 22 50  1  0  0  0  0
 23 24  1  0  0  0  0
 24 51  1  0  0  0  0
 24 52  1  0  0  0  0
 25 26  1  0  0  0  0
 25 53  1  0  0  0  0
 25 54  1  0  0  0  0
 26 27  1  0  0  0  0
 26 28  1  0  0  0  0
 26 29  1  0  0  0  0
 27 55  1  0  0  0  0
 27 56  1  0  0  0  0
 27 57  1  0  0  0  0
 28 58  1  0  0  0  0
 28 59  1  0  0  0  0
 28 60  1  0  0  0  0
M  END
> <s_m_source_file>
AV-unprocessed.smi

> <i_m_source_file_index>
91

> <i_lp_mmshare_version>
43012

> <i_f3d_flags>
0

> <s_epik_input>
W0NIM11PW0NIMl1bQ0BASF0oTzEpW0NIMl1OKFtDSDJdQzEoW0NIM10pW0NIM10pYyhuW2NIXW4yKWMoYzIzKW5bY0hdbjNbQ0gyXVtDQEhdKFtDSDJdW09IXSlbQ0BASF00W0NIMl1bQ0gyXU9bQ0gyXTQ=

> <s_epik_cmdline>
J2VwaWtfcHl0aG9uJywgJy1waCcsICc3LjAnLCAnLXRuJywgJzgnLCAnLW1hJywgJzIwMCcsICctbWV0YWxfYmluZGluZycsICctaW1hZScsICc8aW5maWxlLm1hZT4nLCAnLW9tYWUnLCAnPG91dGZpbGUubWFlPic=

> <r_lp_tautomer_probability>
1

> <r_epik_Ionization_Penalty>
8.63591e-05

> <r_epik_Ionization_Penalty_Charging>
0

> <r_epik_Ionization_Penalty_Neutral>
8.63591e-05

> <r_epik_State_Penalty>
-0

> <r_epik_Charging_Adjusted_Penalty>
0

> <i_epik_Tot_Q>
0

> <i_epik_Tot_abs_Q>
0

> <r_epik_Metal_State_Penalty>
-0

> <b_epik_Metal_Only>
0

> <s_lp_Force_Field>
OPLS_2005

> <r_lp_Energy>
47.5582

> <b_lp_Chiralities_Consistent>
1

> <s_lp_Variant>
AV-unprocessed.smi:91-5

> <Gold.Version>
5.8.1

> <Gold.Id.Protein>
6NUR|6NUR_protein|mol2

> <Gold.PLP.Fitness>
45.5855

> <Gold.PLP.PLP>
-42.9462

> <Gold.PLP.part.hbond>
-2.7160

> <Gold.PLP.part.metal>
0.0000

> <Gold.PLP.part.buried>
-8.7062

> <Gold.PLP.part.nonpolar>
-34.7511

> <Gold.PLP.part.repulsive>
2.8804

> <Gold.PLP.ligand.clash>
0.0000

> <Gold.PLP.ligand.torsion>
1.6575

> <Gold.PLP.Chemscore.Hbond>
1.8089

> <Gold.PLP.Chemscore.CHOScore>
0.0000

> <Gold.PLP.Chemscore.Metal>
0.0000

> <Gold.Chemscore.Hbonds>
donor molecule, donor type, donor heavy atom, donor atom, acceptor molecule, acceptor atom, score
      L1  H    19    45       P1  7949  0.75
      P1  H 10752 10764       L1    19  1.00

> <Gold.PLP.Chemscore.Internal.Correction>
0.5278

> <Gold.Rescore>
     Score         DG    S(hbond)    S(metal)    S(lipo)     H(rot)  DE(clash)    DE(int)     intcor
     10.27     -14.15       1.78        0.00      89.58       3.03       0.07       3.81       ----

> <Gold.Chemscore.Fitness>
10.2672

> <Gold.Chemscore.DG>
-14.1467

> <Gold.Chemscore.ZeroCoef>
-5.4800

> <Gold.Chemscore.Hbond>
1.7779

> <Gold.Chemscore.Metal>
0.0000

> <Gold.Chemscore.Lipo>
89.5830

> <Gold.Chemscore.Internal_Hbond>
0.0000

> <Gold.Chemscore.DEClash>
0.0675

> <Gold.Chemscore.DEInternal>
3.8120

> <Gold.Chemscore.Rot>
3.0284

> <Gold.Chemscore.Internal.Correction>
   9.000000E+99

> <Gold.Chemscore.Hbonds>
donor molecule, donor type, donor heavy atom, donor atom, acceptor molecule, acceptor atom, score
      L1  H    19    45       P1  7949  0.69
      P1  H 10752 10764       L1    19  0.66

> <Gold.Chemscore.Hbond.Weighted>
-5.9383

> <Gold.Chemscore.Metal.Weighted>
-0.0000

> <Gold.Chemscore.Lipo.Weighted>
-10.4812

> <Gold.Chemscore.Internal_Hbond.Weighted>
0.0000

> <Gold.Chemscore.DEClash.Weighted>
0.0675

> <Gold.Chemscore.DEInternal.Weighted>
3.8120

> <Gold.Chemscore.Rot.Weighted>
7.7528

> <Gold.Chemscore.Internal.Correction.Weighted>
   9.000000E+99

> <Gold.Protein.RotatedTorsions>
[ 6907 6896 6895 6894 ] final -153.43 input  -60.11 | X-H torsion
[ 7974 7965 7964 7962 ] final  -42.39 input  175.53 | X-H torsion
[ 8008 7997 7996 7995 ] final  -64.69 input   59.86 | X-H torsion
[ 10167 10162 10161 10158 ] final  -42.36 input  -65.29 | X-H torsion
[ 10718 10713 10712 10709 ] final   99.21 input   66.30 | X-H torsion
[ 10763 10752 10751 10750 ] final  -91.53 input  -60.55 | X-H torsion
[ 11005 11000 10999 10996 ] final   84.52 input  -57.11 | X-H torsion

> <Gold.Protein.ActiveResidues>
 VAL166  LYS551  ARG553  GLY616  TRP617  ASP618  TYR619  PRO620  LYS621  CYS622 
 ASP623  PHE694  ASN695  SER759  ASP760  ASP761  ALA762  ILE779  LEU786  VAL792 
 PHE793  MET794  SER795  GLU796  ALA797  LYS798  CYS799  TRP800  GLU811  SER814 

> <Gold.Protein.RotatedAtoms>
  151.2425  133.4392  159.2607 H   0  0  0  0  0  0  0  0  0  0  0  0  # atno 6907 bound_to 6896
  151.0692  134.9787  159.8310 H   0  0  0  0  0  0  0  0  0  0  0  0  # atno 6908 bound_to 6896
  152.5410  134.2371  159.8900 H   0  0  0  0  0  0  0  0  0  0  0  0  # atno 6909 bound_to 6896
  146.0120  140.6952  142.9219 H   0  0  0  0  0  0  0  0  0  0  0  0  # atno 7974 bound_to 7965
  154.4627  140.0948  156.6936 H   0  0  0  0  0  0  0  0  0  0  0  0  # atno 8008 bound_to 7997
  155.4948  140.3472  155.4342 H   0  0  0  0  0  0  0  0  0  0  0  0  # atno 8009 bound_to 7997
  156.0900  140.1395  156.9593 H   0  0  0  0  0  0  0  0  0  0  0  0  # atno 8010 bound_to 7997
  140.6972  143.3042  151.3198 H   0  0  0  0  0  0  0  0  0  0  0  0  # atno 10167 bound_to 10162
  157.6880  131.0663  150.4914 H   0  0  0  0  0  0  0  0  0  0  0  0  # atno 10718 bound_to 10713
  154.6770  135.5264  153.8212 H   0  0  0  0  0  0  0  0  0  0  0  0  # atno 10763 bound_to 10752
  153.0539  135.6543  154.0636 H   0  0  0  0  0  0  0  0  0  0  0  0  # atno 10764 bound_to 10752
  154.0528  135.2968  155.3317 H   0  0  0  0  0  0  0  0  0  0  0  0  # atno 10765 bound_to 10752
  139.8998  134.8222  156.2457 H   0  0  0  0  0  0  0  0  0  0  0  0  # atno 11005 bound_to 11000
  144.6957  140.3416  143.7198 LP  0  0  0  0  0  0  0  0  0  0  0  0  # atno 17320 bound_to 7965
  145.7326  139.1741  143.2421 LP  0  0  0  0  0  0  0  0  0  0  0  0  # atno 17321 bound_to 7965
  139.6441  144.0483  152.2577 LP  0  0  0  0  0  0  0  0  0  0  0  0  # atno 17342 bound_to 10162
  139.9998  144.6301  150.7740 LP  0  0  0  0  0  0  0  0  0  0  0  0  # atno 17343 bound_to 10162
  156.5240  130.4169  149.6235 LP  0  0  0  0  0  0  0  0  0  0  0  0  # atno 17370 bound_to 10713
  156.3128  130.7238  151.2134 LP  0  0  0  0  0  0  0  0  0  0  0  0  # atno 17371 bound_to 10713
  141.0256  133.7017  156.1342 LP  0  0  0  0  0  0  0  0  0  0  0  0  # atno 17394 bound_to 11000
  140.7171  134.4399  157.5577 LP  0  0  0  0  0  0  0  0  0  0  0  0  # atno 17395 bound_to 11000

$$$$
