AV-unprocessed.smi:3028|AV-procd|sdf|11521|dock5
  -GOLD-   2272016463D 1   1.00000     0.00000
 Structure written by MMmdl.
 47 48  0  0  0  0  0  0  0  0  1 V2000
  151.4158  142.0193  158.1414 C   0  0  0  0  0  0  0  0  0  0  0  0
  150.8677  141.4383  156.8701 C   0  0  0  0  0  0  0  0  0  0  0  0
  151.4610  140.4537  156.0304 C   0  0  0  0  0  0  0  0  0  0  0  0
  150.7168  140.1593  154.9774 N   0  0  0  0  0  0  0  0  0  0  0  0
  149.6227  140.9415  155.1040 N   0  0  0  0  0  0  0  0  0  0  0  0
  148.5685  140.8834  154.0986 C   0  0  2  0  0  0  0  0  0  0  0  0
  147.4127  141.8139  154.5131 C   0  0  0  0  0  0  0  0  0  0  0  0
  148.1013  139.4268  153.8314 C   0  0  2  0  0  0  0  0  0  0  0  0
  146.7492  139.3531  153.0878 C   0  0  0  0  0  0  0  0  0  0  0  0
  147.9840  138.7459  155.1188 N   0  0  0  0  0  0  0  0  0  0  0  0
  148.0556  137.2805  155.0199 C   0  0  0  0  0  0  0  0  0  0  0  0
  146.7839  136.6596  154.4201 C   0  0  0  0  0  0  0  0  0  0  0  0
  145.6962  136.8118  154.9750 O   0  0  0  0  0  0  0  0  0  0  0  0
  146.8759  135.9559  153.2789 N   0  0  0  0  0  0  0  0  0  0  0  0
  145.7976  135.2905  152.5505 C   0  0  0  0  0  0  0  0  0  0  0  0
  146.1976  133.8386  152.2472 C   0  0  0  0  0  0  0  0  0  0  0  0
  145.1493  133.1615  151.3489 C   0  0  0  0  0  0  0  0  0  0  0  0
  144.9760  133.9117  150.1514 O   0  0  0  0  0  0  0  0  0  0  0  0
  144.4894  135.2287  150.3872 C   0  0  0  0  0  0  0  0  0  0  0  0
  145.5024  136.0208  151.2294 C   0  0  0  0  0  0  0  0  0  0  0  0
  149.6900  141.7239  156.2396 C   0  0  0  0  0  0  0  0  0  0  0  0
  152.2903  141.4719  158.4937 H   0  0  0  0  0  0  0  0  0  0  0  0
  150.6790  141.9981  158.9447 H   0  0  0  0  0  0  0  0  0  0  0  0
  151.7189  143.0581  158.0094 H   0  0  0  0  0  0  0  0  0  0  0  0
  152.4072  139.9474  156.1541 H   0  0  0  0  0  0  0  0  0  0  0  0
  148.9873  141.2774  153.1699 H   0  0  0  0  0  0  0  0  0  0  0  0
  146.6564  141.8873  153.7316 H   0  0  0  0  0  0  0  0  0  0  0  0
  147.7757  142.8238  154.7060 H   0  0  0  0  0  0  0  0  0  0  0  0
  146.9190  141.4593  155.4184 H   0  0  0  0  0  0  0  0  0  0  0  0
  148.8632  138.9322  153.2267 H   0  0  0  0  0  0  0  0  0  0  0  0
  146.7990  139.8362  152.1121 H   0  0  0  0  0  0  0  0  0  0  0  0
  145.9584  139.8429  153.6569 H   0  0  0  0  0  0  0  0  0  0  0  0
  146.4377  138.3259  152.9025 H   0  0  0  0  0  0  0  0  0  0  0  0
  147.1479  139.0522  155.5958 H   0  0  0  0  0  0  0  0  0  0  0  0
  148.9011  136.9938  154.3959 H   0  0  0  0  0  0  0  0  0  0  0  0
  148.2176  136.8617  156.0135 H   0  0  0  0  0  0  0  0  0  0  0  0
  147.7965  135.8746  152.8718 H   0  0  0  0  0  0  0  0  0  0  0  0
  144.8891  135.2634  153.1532 H   0  0  0  0  0  0  0  0  0  0  0  0
  147.1658  133.8161  151.7448 H   0  0  0  0  0  0  0  0  0  0  0  0
  146.3138  133.2766  153.1745 H   0  0  0  0  0  0  0  0  0  0  0  0
  145.4741  132.1539  151.0889 H   0  0  0  0  0  0  0  0  0  0  0  0
  144.1955  133.0631  151.8697 H   0  0  0  0  0  0  0  0  0  0  0  0
  144.3319  135.7227  149.4283 H   0  0  0  0  0  0  0  0  0  0  0  0
  143.5196  135.1857  150.8855 H   0  0  0  0  0  0  0  0  0  0  0  0
  145.1216  137.0243  151.4207 H   0  0  0  0  0  0  0  0  0  0  0  0
  146.4242  136.1422  150.6586 H   0  0  0  0  0  0  0  0  0  0  0  0
  148.9012  142.4136  156.5020 H   0  0  0  0  0  0  0  0  0  0  0  0
  1  2  1  0  0  0  0
  1 22  1  0  0  0  0
  1 23  1  0  0  0  0
  1 24  1  0  0  0  0
  2 21  2  0  0  0  0
  2  3  1  0  0  0  0
  3  4  2  0  0  0  0
  3 25  1  0  0  0  0
  4  5  1  0  0  0  0
  5  6  1  0  0  0  0
  5 21  1  0  0  0  0
  6  7  1  0  0  0  0
  6  8  1  0  0  0  0
  6 26  1  0  0  0  0
  7 27  1  0  0  0  0
  7 28  1  0  0  0  0
  7 29  1  0  0  0  0
  8  9  1  0  0  0  0
  8 10  1  0  0  0  0
  8 30  1  0  0  0  0
  9 31  1  0  0  0  0
  9 32  1  0  0  0  0
  9 33  1  0  0  0  0
 10 11  1  0  0  0  0
 10 34  1  0  0  0  0
 11 12  1  0  0  0  0
 11 35  1  0  0  0  0
 11 36  1  0  0  0  0
 12 13  2  0  0  0  0
 12 14  1  0  0  0  0
 14 15  1  0  0  0  0
 14 37  1  0  0  0  0
 15 20  1  0  0  0  0
 15 16  1  0  0  0  0
 15 38  1  0  0  0  0
 16 17  1  0  0  0  0
 16 39  1  0  0  0  0
 16 40  1  0  0  0  0
 17 18  1  0  0  0  0
 17 41  1  0  0  0  0
 17 42  1  0  0  0  0
 18 19  1  0  0  0  0
 19 20  1  0  0  0  0
 19 43  1  0  0  0  0
 19 44  1  0  0  0  0
 20 45  1  0  0  0  0
 20 46  1  0  0  0  0
 21 47  1  0  0  0  0
M  END
> <s_m_source_file>
AV-unprocessed.smi

> <i_m_source_file_index>
3028

> <i_lp_mmshare_version>
43012

> <i_f3d_flags>
0

> <s_epik_input>
W0NIM11jMVtjSF1ubihbY0hdMSlbQ0BIXShbQ0gzXSlbQ0BIXShbQ0gzXSlbTkhdW0NIMl1DKD1PKVtOSF1bQ0hdMltDSDJdW0NIMl1PW0NIMl1bQ0gyXTI=

> <s_epik_cmdline>
J2VwaWtfcHl0aG9uJywgJy1waCcsICc3LjAnLCAnLXRuJywgJzgnLCAnLW1hJywgJzIwMCcsICctbWV0YWxfYmluZGluZycsICctaW1hZScsICc8aW5maWxlLm1hZT4nLCAnLW9tYWUnLCAnPG91dGZpbGUubWFlPic=

> <r_lp_tautomer_probability>
1

> <r_epik_Ionization_Penalty>
0.88617

> <r_epik_Ionization_Penalty_Charging>
0

> <r_epik_Ionization_Penalty_Neutral>
0.88617

> <r_epik_State_Penalty>
0.921066

> <r_epik_Charging_Adjusted_Penalty>
0.921066

> <i_epik_Tot_Q>
0

> <i_epik_Tot_abs_Q>
0

> <r_epik_Metal_State_Penalty>
0.917309

> <b_epik_Metal_Only>
0

> <s_lp_Force_Field>
OPLS_2005

> <r_lp_Energy>
19.247

> <b_lp_Chiralities_Consistent>
1

> <s_lp_Variant>
AV-unprocessed.smi:3028-5

> <Gold.Version>
5.8.1

> <Gold.Id.Protein>
6NUR|6NUR_protein|mol2

> <Gold.PLP.Fitness>
43.1838

> <Gold.PLP.PLP>
-35.7390

> <Gold.PLP.part.hbond>
-1.9457

> <Gold.PLP.part.metal>
0.0000

> <Gold.PLP.part.buried>
-2.3215

> <Gold.PLP.part.nonpolar>
-31.4998

> <Gold.PLP.part.repulsive>
0.8160

> <Gold.PLP.ligand.clash>
0.0000

> <Gold.PLP.ligand.torsion>
0.7372

> <Gold.PLP.Chemscore.Hbond>
2.0000

> <Gold.PLP.Chemscore.CHOScore>
0.9471

> <Gold.PLP.Chemscore.Metal>
0.0000

> <Gold.Chemscore.Hbonds>
donor molecule, donor type, donor heavy atom, donor atom, acceptor molecule, acceptor atom, score
      L1  H    14    37       P1  7948  1.00
      P1  H  7989  7998       L1     4  1.00
      L1  C    21    47       P1  8028  0.84

> <Gold.PLP.Chemscore.Internal.Correction>
0.0779

> <Gold.Rescore>
     Score         DG    S(hbond)    S(metal)    S(lipo)     H(rot)  DE(clash)    DE(int)     intcor
     13.36     -15.35       1.69        0.00      78.22       1.92       0.17       1.81       ----

> <Gold.Chemscore.Fitness>
13.3617

> <Gold.Chemscore.DG>
-15.3476

> <Gold.Chemscore.ZeroCoef>
-5.4800

> <Gold.Chemscore.Hbond>
1.6883

> <Gold.Chemscore.Metal>
0.0000

> <Gold.Chemscore.Lipo>
78.2244

> <Gold.Chemscore.Internal_Hbond>
0.0000

> <Gold.Chemscore.DEClash>
0.1739

> <Gold.Chemscore.DEInternal>
1.8120

> <Gold.Chemscore.Rot>
1.9233

> <Gold.Chemscore.Internal.Correction>
   9.000000E+99

> <Gold.Chemscore.Hbonds>
donor molecule, donor type, donor heavy atom, donor atom, acceptor molecule, acceptor atom, score
      L1  H    14    37       P1  7948  0.95
      P1  H  7989  7998       L1     4  0.22

> <Gold.Chemscore.Hbond.Weighted>
-5.6389

> <Gold.Chemscore.Metal.Weighted>
-0.0000

> <Gold.Chemscore.Lipo.Weighted>
-9.1523

> <Gold.Chemscore.Internal_Hbond.Weighted>
0.0000

> <Gold.Chemscore.DEClash.Weighted>
0.1739

> <Gold.Chemscore.DEInternal.Weighted>
1.8120

> <Gold.Chemscore.Rot.Weighted>
4.9235

> <Gold.Chemscore.Internal.Correction.Weighted>
   9.000000E+99

> <Gold.Protein.RotatedTorsions>
[ 6907 6896 6895 6894 ] final   29.74 input  -60.11 | X-H torsion
[ 7974 7965 7964 7962 ] final   86.02 input  175.53 | X-H torsion
[ 8008 7997 7996 7995 ] final  178.22 input   59.86 | X-H torsion
[ 10167 10162 10161 10158 ] final  149.55 input  -65.29 | X-H torsion
[ 10718 10713 10712 10709 ] final  103.05 input   66.30 | X-H torsion
[ 10763 10752 10751 10750 ] final  -54.16 input  -60.55 | X-H torsion
[ 11005 11000 10999 10996 ] final -162.70 input  -57.11 | X-H torsion

> <Gold.Protein.ActiveResidues>
 VAL166  LYS551  ARG553  GLY616  TRP617  ASP618  TYR619  PRO620  LYS621  CYS622 
 ASP623  PHE694  ASN695  SER759  ASP760  ASP761  ALA762  ILE779  LEU786  VAL792 
 PHE793  MET794  SER795  GLU796  ALA797  LYS798  CYS799  TRP800  GLU811  SER814 

> <Gold.Protein.RotatedAtoms>
  152.0358  134.9741  160.0573 H   0  0  0  0  0  0  0  0  0  0  0  0  # atno 6907 bound_to 6896
  152.1199  133.4342  159.4679 H   0  0  0  0  0  0  0  0  0  0  0  0  # atno 6908 bound_to 6896
  150.6848  134.2466  159.4537 H   0  0  0  0  0  0  0  0  0  0  0  0  # atno 6909 bound_to 6896
  145.5777  139.2321  143.2370 H   0  0  0  0  0  0  0  0  0  0  0  0  # atno 7974 bound_to 7965
  156.0571  140.1339  156.9984 H   0  0  0  0  0  0  0  0  0  0  0  0  # atno 8008 bound_to 7997
  154.4463  140.0999  156.6532 H   0  0  0  0  0  0  0  0  0  0  0  0  # atno 8009 bound_to 7997
  155.5435  140.3461  155.4454 H   0  0  0  0  0  0  0  0  0  0  0  0  # atno 8010 bound_to 7997
  139.4860  144.5593  151.7261 H   0  0  0  0  0  0  0  0  0  0  0  0  # atno 10167 bound_to 10162
  157.6784  131.0769  150.5497 H   0  0  0  0  0  0  0  0  0  0  0  0  # atno 10718 bound_to 10713
  154.1704  135.6460  153.5008 H   0  0  0  0  0  0  0  0  0  0  0  0  # atno 10763 bound_to 10752
  153.0086  135.5382  154.6618 H   0  0  0  0  0  0  0  0  0  0  0  0  # atno 10764 bound_to 10752
  154.5956  135.2938  155.0562 H   0  0  0  0  0  0  0  0  0  0  0  0  # atno 10765 bound_to 10752
  140.6063  134.4895  157.5211 H   0  0  0  0  0  0  0  0  0  0  0  0  # atno 11005 bound_to 11000
  146.1738  140.6604  142.9220 LP  0  0  0  0  0  0  0  0  0  0  0  0  # atno 17320 bound_to 7965
  144.7408  140.4937  143.6870 LP  0  0  0  0  0  0  0  0  0  0  0  0  # atno 17321 bound_to 7965
  140.5160  144.0953  150.6008 LP  0  0  0  0  0  0  0  0  0  0  0  0  # atno 17342 bound_to 10162
  140.3894  143.2760  152.0077 LP  0  0  0  0  0  0  0  0  0  0  0  0  # atno 17343 bound_to 10162
  156.5802  130.4302  149.5981 LP  0  0  0  0  0  0  0  0  0  0  0  0  # atno 17370 bound_to 10713
  156.2668  130.6994  151.1779 LP  0  0  0  0  0  0  0  0  0  0  0  0  # atno 17371 bound_to 10713
  139.9211  134.8148  156.1210 LP  0  0  0  0  0  0  0  0  0  0  0  0  # atno 17394 bound_to 11000
  141.0838  133.6743  156.2392 LP  0  0  0  0  0  0  0  0  0  0  0  0  # atno 17395 bound_to 11000

$$$$
