AV-unprocessed.smi:3201|AV-procd|sdf|12240|dock1
  -GOLD-   2272018 73D 1   1.00000     0.00000
 Structure written by MMmdl.
 41 43  0  0  0  0  0  0  0  0  2 V2000
  153.0448  141.6247  160.0277 C   0  0  0  0  0  0  0  0  0  0  0  0
  151.9468  142.4901  159.4973 C   0  0  0  0  0  0  0  0  0  0  0  0
  151.0771  142.2858  158.4592 C   0  0  0  0  0  0  0  0  0  0  0  0
  150.9695  141.1098  157.5275 C   0  0  0  0  0  0  0  0  0  0  0  0
  150.9101  141.5565  156.0612 C   0  0  0  0  0  0  0  0  0  0  0  0
  149.5446  141.9824  155.6944 N   0  3  0  0  0  0  0  0  0  0  0  0
  149.0248  141.3854  154.4447 C   0  0  1  0  0  0  0  0  0  0  0  0
  148.8684  139.8497  154.4946 C   0  0  0  0  0  0  0  0  0  0  0  0
  147.4085  139.6432  154.0451 C   0  0  1  0  0  0  0  0  0  0  0  0
  146.4710  140.0350  155.2003 C   0  0  0  0  0  0  0  0  0  0  0  0
  146.6016  141.5687  155.2323 C   0  0  0  0  0  0  0  0  0  0  0  0
  147.5982  141.8571  154.0881 C   0  0  2  0  0  0  0  0  0  0  0  0
  147.1959  140.7963  153.0682 C   0  0  0  0  0  0  0  0  0  0  0  0
  150.2735  143.4605  158.4557 C   0  0  0  0  0  0  0  0  0  0  0  0
  150.6125  144.3165  159.4021 N   0  0  0  0  0  0  0  0  0  0  0  0
  151.6413  143.7251  160.0425 N   0  0  0  0  0  0  0  0  0  0  0  0
  152.2550  144.4209  161.1577 C   0  0  0  0  0  0  0  0  0  0  0  0
  153.0898  140.6722  159.5001 H   0  0  0  0  0  0  0  0  0  0  0  0
  152.8933  141.4104  161.0858 H   0  0  0  0  0  0  0  0  0  0  0  0
  154.0122  142.1145  159.9151 H   0  0  0  0  0  0  0  0  0  0  0  0
  151.8190  140.4394  157.6644 H   0  0  0  0  0  0  0  0  0  0  0  0
  150.0867  140.5140  157.7616 H   0  0  0  0  0  0  0  0  0  0  0  0
  151.5999  142.3852  155.8950 H   0  0  0  0  0  0  0  0  0  0  0  0
  151.2253  140.7388  155.4120 H   0  0  0  0  0  0  0  0  0  0  0  0
  148.9132  141.7515  156.4483 H   0  0  0  0  0  0  0  0  0  0  0  0
  149.6946  141.6589  153.6272 H   0  0  0  0  0  0  0  0  0  0  0  0
  149.5624  139.3739  153.8006 H   0  0  0  0  0  0  0  0  0  0  0  0
  149.0487  139.4276  155.4843 H   0  0  0  0  0  0  0  0  0  0  0  0
  147.2098  138.6504  153.6401 H   0  0  0  0  0  0  0  0  0  0  0  0
  145.4427  139.7425  154.9828 H   0  0  0  0  0  0  0  0  0  0  0  0
  146.7569  139.5711  156.1451 H   0  0  0  0  0  0  0  0  0  0  0  0
  145.6369  142.0338  155.0255 H   0  0  0  0  0  0  0  0  0  0  0  0
  146.9399  141.9388  156.2000 H   0  0  0  0  0  0  0  0  0  0  0  0
  147.5560  142.8825  153.7194 H   0  0  0  0  0  0  0  0  0  0  0  0
  147.8543  140.7540  152.1989 H   0  0  0  0  0  0  0  0  0  0  0  0
  146.1625  140.8905  152.7287 H   0  0  0  0  0  0  0  0  0  0  0  0
  149.4566  143.7136  157.7961 H   0  0  0  0  0  0  0  0  0  0  0  0
  153.1328  143.8839  161.5161 H   0  0  0  0  0  0  0  0  0  0  0  0
  151.5379  144.5083  161.9741 H   0  0  0  0  0  0  0  0  0  0  0  0
  152.5618  145.4197  160.8452 H   0  0  0  0  0  0  0  0  0  0  0  0
  149.5547  142.9858  155.5801 H   0  0  0  0  0  0  0  0  0  0  0  0
  1  2  1  0  0  0  0
  1 18  1  0  0  0  0
  1 19  1  0  0  0  0
  1 20  1  0  0  0  0
  2 16  1  0  0  0  0
  2  3  2  0  0  0  0
  3  4  1  0  0  0  0
  3 14  1  0  0  0  0
  4  5  1  0  0  0  0
  4 21  1  0  0  0  0
  4 22  1  0  0  0  0
  5  6  1  0  0  0  0
  5 23  1  0  0  0  0
  5 24  1  0  0  0  0
  6  7  1  0  0  0  0
  6 25  1  0  0  0  0
  6 41  1  0  0  0  0
  7 12  1  0  0  0  0
  7  8  1  0  0  0  0
  7 26  1  0  0  0  0
  8  9  1  0  0  0  0
  8 27  1  0  0  0  0
  8 28  1  0  0  0  0
  9 13  1  0  0  0  0
  9 10  1  0  0  0  0
  9 29  1  0  0  0  0
 10 11  1  0  0  0  0
 10 30  1  0  0  0  0
 10 31  1  0  0  0  0
 11 12  1  0  0  0  0
 11 32  1  0  0  0  0
 11 33  1  0  0  0  0
 12 13  1  0  0  0  0
 12 34  1  0  0  0  0
 13 35  1  0  0  0  0
 13 36  1  0  0  0  0
 14 15  2  0  0  0  0
 14 37  1  0  0  0  0
 15 16  1  0  0  0  0
 16 17  1  0  0  0  0
 17 38  1  0  0  0  0
 17 39  1  0  0  0  0
 17 40  1  0  0  0  0
M  CHG  1   6   1
M  END
> <s_m_source_file>
AV-unprocessed.smi

> <i_m_source_file_index>
3201

> <i_lp_mmshare_version>
43012

> <i_f3d_flags>
0

> <s_epik_input>
W0NIM11uMW5bY0hdYyhjMVtDSDNdKVtDSDJdW0NIMl1bTkhdW0NASF0oW0NIMl1bQ0BIXTIzKVtDQEhdKFtDSDJdMylbQ0gyXVtDSDJdMg==

> <s_epik_cmdline>
J2VwaWtfcHl0aG9uJywgJy1waCcsICc3LjAnLCAnLXRuJywgJzgnLCAnLW1hJywgJzIwMCcsICctbWV0YWxfYmluZGluZycsICctaW1hZScsICc8aW5maWxlLm1hZT4nLCAnLW9tYWUnLCAnPG91dGZpbGUubWFlPic=

> <r_lp_tautomer_probability>
1

> <r_epik_Ionization_Penalty>
0.000331174

> <r_epik_Ionization_Penalty_Charging>
0.000242709

> <r_epik_Ionization_Penalty_Neutral>
8.84659e-05

> <r_epik_State_Penalty>
-0

> <r_epik_Charging_Adjusted_Penalty>
0.000242709

> <i_epik_Tot_Q>
1

> <i_epik_Tot_abs_Q>
1

> <r_epik_Metal_State_Penalty>
-0

> <b_epik_Metal_Only>
0

> <s_lp_Force_Field>
OPLS_2005

> <r_lp_Energy>
51.1066

> <b_lp_Chiralities_Consistent>
1

> <s_lp_Variant>
AV-unprocessed.smi:3201-4

> <Gold.Version>
5.8.1

> <Gold.Id.Protein>
6NUR|6NUR_protein|mol2

> <Gold.PLP.Fitness>
44.7958

> <Gold.PLP.PLP>
-36.5818

> <Gold.PLP.part.hbond>
-1.0000

> <Gold.PLP.part.metal>
0.0000

> <Gold.PLP.part.buried>
-4.8243

> <Gold.PLP.part.nonpolar>
-30.5125

> <Gold.PLP.part.repulsive>
0.2771

> <Gold.PLP.ligand.clash>
0.0000

> <Gold.PLP.ligand.torsion>
0.5601

> <Gold.PLP.Chemscore.Hbond>
2.0000

> <Gold.PLP.Chemscore.CHOScore>
1.1048

> <Gold.PLP.Chemscore.Metal>
0.0000

> <Gold.Chemscore.Hbonds>
donor molecule, donor type, donor heavy atom, donor atom, acceptor molecule, acceptor atom, score
      L1  H     6    41       P1  8028  2.00
      L1  C    14    37       P1  8028  1.00
      L1  C    14    37       P1  8029  0.09

> <Gold.PLP.Chemscore.Internal.Correction>
0.0197

> <Gold.Rescore>
     Score         DG    S(hbond)    S(metal)    S(lipo)     H(rot)  DE(clash)    DE(int)     intcor
     16.59     -17.46       1.00        0.00     103.67       1.36       0.18       0.69       ----

> <Gold.Chemscore.Fitness>
16.5882

> <Gold.Chemscore.DG>
-17.4607

> <Gold.Chemscore.ZeroCoef>
-5.4800

> <Gold.Chemscore.Hbond>
0.9968

> <Gold.Chemscore.Metal>
0.0000

> <Gold.Chemscore.Lipo>
103.6741

> <Gold.Chemscore.Internal_Hbond>
0.0000

> <Gold.Chemscore.DEClash>
0.1843

> <Gold.Chemscore.DEInternal>
0.6882

> <Gold.Chemscore.Rot>
1.3588

> <Gold.Chemscore.Internal.Correction>
   9.000000E+99

> <Gold.Chemscore.Hbonds>
donor molecule, donor type, donor heavy atom, donor atom, acceptor molecule, acceptor atom, score
      L1  H     6    41       P1  8028  0.99

> <Gold.Chemscore.Hbond.Weighted>
-3.3294

> <Gold.Chemscore.Metal.Weighted>
-0.0000

> <Gold.Chemscore.Lipo.Weighted>
-12.1299

> <Gold.Chemscore.Internal_Hbond.Weighted>
0.0000

> <Gold.Chemscore.DEClash.Weighted>
0.1843

> <Gold.Chemscore.DEInternal.Weighted>
0.6882

> <Gold.Chemscore.Rot.Weighted>
3.4786

> <Gold.Chemscore.Internal.Correction.Weighted>
   9.000000E+99

> <Gold.Protein.RotatedTorsions>
[ 6907 6896 6895 6894 ] final  -13.92 input  -60.11 | X-H torsion
[ 7974 7965 7964 7962 ] final  133.57 input  175.53 | X-H torsion
[ 8008 7997 7996 7995 ] final   67.83 input   59.86 | X-H torsion
[ 10167 10162 10161 10158 ] final  -25.73 input  -65.29 | X-H torsion
[ 10718 10713 10712 10709 ] final  162.49 input   66.30 | X-H torsion
[ 10763 10752 10751 10750 ] final   42.43 input  -60.55 | X-H torsion
[ 11005 11000 10999 10996 ] final   46.36 input  -57.11 | X-H torsion

> <Gold.Protein.ActiveResidues>
 VAL166  LYS551  ARG553  GLY616  TRP617  ASP618  TYR619  PRO620  LYS621  CYS622 
 ASP623  PHE694  ASN695  SER759  ASP760  ASP761  ALA762  ILE779  LEU786  VAL792 
 PHE793  MET794  SER795  GLU796  ALA797  LYS798  CYS799  TRP800  GLU811  SER814 

> <Gold.Protein.RotatedAtoms>
  151.3475  135.0877  159.9391 H   0  0  0  0  0  0  0  0  0  0  0  0  # atno 6907 bound_to 6896
  152.5196  133.9386  159.7626 H   0  0  0  0  0  0  0  0  0  0  0  0  # atno 6908 bound_to 6896
  150.9755  133.6246  159.2760 H   0  0  0  0  0  0  0  0  0  0  0  0  # atno 6909 bound_to 6896
  144.9851  139.4464  143.5367 H   0  0  0  0  0  0  0  0  0  0  0  0  # atno 7974 bound_to 7965
  155.6989  140.3495  155.4924 H   0  0  0  0  0  0  0  0  0  0  0  0  # atno 8008 bound_to 7997
  155.9458  140.1110  157.1040 H   0  0  0  0  0  0  0  0  0  0  0  0  # atno 8009 bound_to 7997
  154.4112  140.1204  156.4973 H   0  0  0  0  0  0  0  0  0  0  0  0  # atno 8010 bound_to 7997
  140.7285  143.4240  151.0906 H   0  0  0  0  0  0  0  0  0  0  0  0  # atno 10167 bound_to 10162
  157.1218  131.0494  151.2411 H   0  0  0  0  0  0  0  0  0  0  0  0  # atno 10718 bound_to 10713
  152.9883  135.6132  154.2948 H   0  0  0  0  0  0  0  0  0  0  0  0  # atno 10763 bound_to 10752
  154.2672  135.2780  155.2755 H   0  0  0  0  0  0  0  0  0  0  0  0  # atno 10764 bound_to 10752
  154.5154  135.5829  153.6695 H   0  0  0  0  0  0  0  0  0  0  0  0  # atno 10765 bound_to 10752
  140.1376  134.4624  155.8473 H   0  0  0  0  0  0  0  0  0  0  0  0  # atno 11005 bound_to 11000
  146.3418  139.9148  142.8775 LP  0  0  0  0  0  0  0  0  0  0  0  0  # atno 17320 bound_to 7965
  145.2365  140.9993  143.3960 LP  0  0  0  0  0  0  0  0  0  0  0  0  # atno 17321 bound_to 7965
  139.7889  143.8247  152.3149 LP  0  0  0  0  0  0  0  0  0  0  0  0  # atno 17342 bound_to 10162
  139.8224  144.7290  150.9555 LP  0  0  0  0  0  0  0  0  0  0  0  0  # atno 17343 bound_to 10162
  157.4470  130.7576  149.7118 LP  0  0  0  0  0  0  0  0  0  0  0  0  # atno 17370 bound_to 10713
  155.9827  130.4007  150.3403 LP  0  0  0  0  0  0  0  0  0  0  0  0  # atno 17371 bound_to 10713
  141.2181  133.6820  156.7187 LP  0  0  0  0  0  0  0  0  0  0  0  0  # atno 17394 bound_to 11000
  140.2762  134.8353  157.3892 LP  0  0  0  0  0  0  0  0  0  0  0  0  # atno 17395 bound_to 11000

$$$$
