AV-unprocessed.smi:2916|AV-procd|sdf|11189|dock4
  -GOLD-   2272016 83D 1   1.00000     0.00000
 Structure written by MMmdl.
 37 38  0  0  0  0  0  0  0  0  1 V2000
  149.5529  138.9921  154.6189 N   0  0  0  0  0  0  0  0  0  0  0  0
  150.1699  140.1048  155.0296 C   0  0  0  0  0  0  0  0  0  0  0  0
  151.3971  140.1787  155.0557 O   0  0  0  0  0  0  0  0  0  0  0  0
  149.2740  141.3063  155.4421 C   0  0  0  0  0  0  0  0  0  0  0  0
  150.0747  142.4516  155.8981 N   0  0  0  0  0  0  0  0  0  0  0  0
  150.7953  142.3088  157.1633 C   0  0  0  0  0  0  0  0  0  0  0  0
  151.5477  143.6104  157.4837 C   0  0  0  0  0  0  0  0  0  0  0  0
  151.8742  143.7171  158.8951 N   0  0  0  0  0  0  0  0  0  0  0  0
  151.5822  144.7469  159.7643 C   0  0  0  0  0  0  0  0  0  0  0  0
  152.1019  144.4113  160.9815 C   0  0  0  0  0  0  0  0  0  0  0  0
  152.7000  143.1403  160.7546 C   0  0  0  0  0  0  0  0  0  0  0  0
  152.5625  142.7275  159.5049 N   0  0  0  0  0  0  0  0  0  0  0  0
  148.4595  141.8342  154.2274 C   0  0  0  0  0  0  0  0  0  0  0  0
  147.3406  140.8770  153.7795 C   0  0  0  0  0  0  0  0  0  0  0  0
  146.3716  140.5930  154.9342 C   0  0  0  0  0  0  0  0  0  0  0  0
  147.1186  140.0293  156.1498 C   0  0  0  0  0  0  0  0  0  0  0  0
  148.2746  140.9524  156.5876 C   0  0  0  0  0  0  0  0  0  0  0  0
  150.0970  138.1905  154.3354 H   0  0  0  0  0  0  0  0  0  0  0  0
  148.5441  138.9631  154.5885 H   0  0  0  0  0  0  0  0  0  0  0  0
  149.4765  143.2643  155.9506 H   0  0  0  0  0  0  0  0  0  0  0  0
  150.1167  142.0751  157.9833 H   0  0  0  0  0  0  0  0  0  0  0  0
  151.5092  141.4879  157.0937 H   0  0  0  0  0  0  0  0  0  0  0  0
  152.4809  143.6438  156.9203 H   0  0  0  0  0  0  0  0  0  0  0  0
  150.9678  144.4825  157.1763 H   0  0  0  0  0  0  0  0  0  0  0  0
  151.0393  145.6248  159.4461 H   0  0  0  0  0  0  0  0  0  0  0  0
  152.0619  144.9864  161.8945 H   0  0  0  0  0  0  0  0  0  0  0  0
  153.2273  142.5103  161.4558 H   0  0  0  0  0  0  0  0  0  0  0  0
  148.0013  142.7917  154.4825 H   0  0  0  0  0  0  0  0  0  0  0  0
  149.1138  142.0464  153.3806 H   0  0  0  0  0  0  0  0  0  0  0  0
  146.7963  141.3136  152.9415 H   0  0  0  0  0  0  0  0  0  0  0  0
  147.7667  139.9422  153.4139 H   0  0  0  0  0  0  0  0  0  0  0  0
  145.8566  141.5126  155.2151 H   0  0  0  0  0  0  0  0  0  0  0  0
  145.6010  139.8919  154.6124 H   0  0  0  0  0  0  0  0  0  0  0  0
  146.4225  139.8968  156.9783 H   0  0  0  0  0  0  0  0  0  0  0  0
  147.4954  139.0343  155.9138 H   0  0  0  0  0  0  0  0  0  0  0  0
  148.7904  140.4895  157.4294 H   0  0  0  0  0  0  0  0  0  0  0  0
  147.8393  141.8718  156.9834 H   0  0  0  0  0  0  0  0  0  0  0  0
  1  2  1  0  0  0  0
  1 18  1  0  0  0  0
  1 19  1  0  0  0  0
  2  3  2  0  0  0  0
  2  4  1  0  0  0  0
  4 17  1  0  0  0  0
  4  5  1  0  0  0  0
  4 13  1  0  0  0  0
  5  6  1  0  0  0  0
  5 20  1  0  0  0  0
  6  7  1  0  0  0  0
  6 21  1  0  0  0  0
  6 22  1  0  0  0  0
  7  8  1  0  0  0  0
  7 23  1  0  0  0  0
  7 24  1  0  0  0  0
  8 12  1  0  0  0  0
  8  9  1  0  0  0  0
  9 10  2  0  0  0  0
  9 25  1  0  0  0  0
 10 11  1  0  0  0  0
 10 26  1  0  0  0  0
 11 12  2  0  0  0  0
 11 27  1  0  0  0  0
 13 14  1  0  0  0  0
 13 28  1  0  0  0  0
 13 29  1  0  0  0  0
 14 15  1  0  0  0  0
 14 30  1  0  0  0  0
 14 31  1  0  0  0  0
 15 16  1  0  0  0  0
 15 32  1  0  0  0  0
 15 33  1  0  0  0  0
 16 17  1  0  0  0  0
 16 34  1  0  0  0  0
 16 35  1  0  0  0  0
 17 36  1  0  0  0  0
 17 37  1  0  0  0  0
M  END
> <s_m_source_file>
AV-unprocessed.smi

> <i_m_source_file_index>
2916

> <i_lp_mmshare_version>
43012

> <i_f3d_flags>
0

> <s_epik_input>
W0NIMl0xW0NIMl1bQ0gyXVtDSDJdW0NIMl1DMShDKD1PKVtOSDJdKVtOSF1bQ0gyXVtDSDJdbjJbY0hdW2NIXVtjSF1uMg==

> <s_epik_cmdline>
J2VwaWtfcHl0aG9uJywgJy1waCcsICc3LjAnLCAnLXRuJywgJzgnLCAnLW1hJywgJzIwMCcsICctbWV0YWxfYmluZGluZycsICctaW1hZScsICc8aW5maWxlLm1hZT4nLCAnLW9tYWUnLCAnPG91dGZpbGUubWFlPic=

> <r_lp_tautomer_probability>
1

> <r_epik_Ionization_Penalty>
0.895772

> <r_epik_Ionization_Penalty_Charging>
0

> <r_epik_Ionization_Penalty_Neutral>
0.895772

> <r_epik_State_Penalty>
0.934109

> <r_epik_Charging_Adjusted_Penalty>
0.934109

> <i_epik_Tot_Q>
0

> <i_epik_Tot_abs_Q>
0

> <r_epik_Metal_State_Penalty>
0.933276

> <b_epik_Metal_Only>
0

> <s_lp_Force_Field>
OPLS_2005

> <r_lp_Energy>
12.2075

> <b_lp_Chiralities_Consistent>
1

> <s_lp_Variant>
AV-unprocessed.smi:2916-2

> <Gold.Version>
5.8.1

> <Gold.Id.Protein>
6NUR|6NUR_protein|mol2

> <Gold.PLP.Fitness>
42.2079

> <Gold.PLP.PLP>
-36.6081

> <Gold.PLP.part.hbond>
-2.0000

> <Gold.PLP.part.metal>
0.0000

> <Gold.PLP.part.buried>
-4.1517

> <Gold.PLP.part.nonpolar>
-29.7356

> <Gold.PLP.part.repulsive>
0.1032

> <Gold.PLP.ligand.clash>
0.0000

> <Gold.PLP.ligand.torsion>
0.2116

> <Gold.PLP.Chemscore.Hbond>
2.0000

> <Gold.PLP.Chemscore.CHOScore>
0.0000

> <Gold.PLP.Chemscore.Metal>
0.0000

> <Gold.Chemscore.Hbonds>
donor molecule, donor type, donor heavy atom, donor atom, acceptor molecule, acceptor atom, score
      L1  H     5    20       P1  8028  1.00
      P1  H  7989  7998       L1     3  0.95

> <Gold.PLP.Chemscore.Internal.Correction>
0.0228

> <Gold.Rescore>
     Score         DG    S(hbond)    S(metal)    S(lipo)     H(rot)  DE(clash)    DE(int)     intcor
     14.34     -15.89       1.95        0.00      81.34       2.20       0.06       1.49       ----

> <Gold.Chemscore.Fitness>
14.3439

> <Gold.Chemscore.DG>
-15.8852

> <Gold.Chemscore.ZeroCoef>
-5.4800

> <Gold.Chemscore.Hbond>
1.9529

> <Gold.Chemscore.Metal>
0.0000

> <Gold.Chemscore.Lipo>
81.3446

> <Gold.Chemscore.Internal_Hbond>
0.0000

> <Gold.Chemscore.DEClash>
0.0551

> <Gold.Chemscore.DEInternal>
1.4861

> <Gold.Chemscore.Rot>
2.2011

> <Gold.Chemscore.Internal.Correction>
   9.000000E+99

> <Gold.Chemscore.Hbonds>
donor molecule, donor type, donor heavy atom, donor atom, acceptor molecule, acceptor atom, score
      L1  H     5    20       P1  8028  0.98
      P1  H  7989  7998       L1     3  0.21

> <Gold.Chemscore.Hbond.Weighted>
-6.5226

> <Gold.Chemscore.Metal.Weighted>
-0.0000

> <Gold.Chemscore.Lipo.Weighted>
-9.5173

> <Gold.Chemscore.Internal_Hbond.Weighted>
0.0000

> <Gold.Chemscore.DEClash.Weighted>
0.0551

> <Gold.Chemscore.DEInternal.Weighted>
1.4861

> <Gold.Chemscore.Rot.Weighted>
5.6348

> <Gold.Chemscore.Internal.Correction.Weighted>
   9.000000E+99

> <Gold.Protein.RotatedTorsions>
[ 6907 6896 6895 6894 ] final  128.74 input  -60.11 | X-H torsion
[ 7974 7965 7964 7962 ] final -151.69 input  175.53 | X-H torsion
[ 8008 7997 7996 7995 ] final   18.86 input   59.86 | X-H torsion
[ 10167 10162 10161 10158 ] final   36.85 input  -65.29 | X-H torsion
[ 10718 10713 10712 10709 ] final  158.28 input   66.30 | X-H torsion
[ 10763 10752 10751 10750 ] final   67.44 input  -60.55 | X-H torsion
[ 11005 11000 10999 10996 ] final  -11.47 input  -57.11 | X-H torsion

> <Gold.Protein.ActiveResidues>
 VAL166  LYS551  ARG553  GLY616  TRP617  ASP618  TYR619  PRO620  LYS621  CYS622 
 ASP623  PHE694  ASN695  SER759  ASP760  ASP761  ALA762  ILE779  LEU786  VAL792 
 PHE793  MET794  SER795  GLU796  ALA797  LYS798  CYS799  TRP800  GLU811  SER814 

> <Gold.Protein.RotatedAtoms>
  152.3691  133.6395  159.6072 H   0  0  0  0  0  0  0  0  0  0  0  0  # atno 6907 bound_to 6896
  150.7655  133.9300  159.3433 H   0  0  0  0  0  0  0  0  0  0  0  0  # atno 6908 bound_to 6896
  151.7125  135.0911  160.0321 H   0  0  0  0  0  0  0  0  0  0  0  0  # atno 6909 bound_to 6896
  144.7835  140.4763  143.5822 H   0  0  0  0  0  0  0  0  0  0  0  0  # atno 7974 bound_to 7965
  154.9122  140.3015  155.5260 H   0  0  0  0  0  0  0  0  0  0  0  0  # atno 8008 bound_to 7997
  156.3014  140.2387  156.4098 H   0  0  0  0  0  0  0  0  0  0  0  0  # atno 8009 bound_to 7997
  154.8414  140.0413  157.1532 H   0  0  0  0  0  0  0  0  0  0  0  0  # atno 8010 bound_to 7997
  140.4088  144.1621  150.6138 H   0  0  0  0  0  0  0  0  0  0  0  0  # atno 10167 bound_to 10162
  157.1800  131.0630  151.2137 H   0  0  0  0  0  0  0  0  0  0  0  0  # atno 10718 bound_to 10713
  153.0186  135.5284  154.6980 H   0  0  0  0  0  0  0  0  0  0  0  0  # atno 10763 bound_to 10752
  154.6097  135.2877  155.0448 H   0  0  0  0  0  0  0  0  0  0  0  0  # atno 10764 bound_to 10752
  154.1474  135.6568  153.5008 H   0  0  0  0  0  0  0  0  0  0  0  0  # atno 10765 bound_to 10752
  140.7556  133.8556  155.9081 H   0  0  0  0  0  0  0  0  0  0  0  0  # atno 11005 bound_to 11000
  145.5984  139.1501  143.3143 LP  0  0  0  0  0  0  0  0  0  0  0  0  # atno 17320 bound_to 7965
  146.2056  140.6107  142.9083 LP  0  0  0  0  0  0  0  0  0  0  0  0  # atno 17321 bound_to 7965
  140.4660  143.2430  151.9154 LP  0  0  0  0  0  0  0  0  0  0  0  0  # atno 17342 bound_to 10162
  139.4783  144.5418  151.8516 LP  0  0  0  0  0  0  0  0  0  0  0  0  # atno 17343 bound_to 10162
  157.3961  130.7308  149.6733 LP  0  0  0  0  0  0  0  0  0  0  0  0  # atno 17370 bound_to 10713
  155.9725  130.4133  150.4076 LP  0  0  0  0  0  0  0  0  0  0  0  0  # atno 17371 bound_to 10713
  140.9710  134.1531  157.4576 LP  0  0  0  0  0  0  0  0  0  0  0  0  # atno 17394 bound_to 11000
  139.8779  134.9978  156.5869 LP  0  0  0  0  0  0  0  0  0  0  0  0  # atno 17395 bound_to 11000

$$$$
