AV-unprocessed.smi:2911|AV-procd|sdf|11180|dock4
  -GOLD-   2272016 73D 1   1.00000     0.00000
 Structure written by MMmdl.
 41 42  0  0  0  0  0  0  0  0  1 V2000
  144.9026  137.5025  162.3328 C   0  0  0  0  0  0  0  0  0  0  0  0
  145.8681  137.0536  161.2896 C   0  0  0  0  0  0  0  0  0  0  0  0
  145.4827  136.2830  160.2796 N   0  0  0  0  0  0  0  0  0  0  0  0
  146.6639  136.0953  159.5474 O   0  0  0  0  0  0  0  0  0  0  0  0
  147.6193  136.7995  160.2006 C   0  0  0  0  0  0  0  0  0  0  0  0
  149.0193  136.7629  159.6871 C   0  0  0  0  0  0  0  0  0  0  0  0
  149.1291  137.2867  158.2463 C   0  0  0  0  0  0  0  0  0  0  0  0
  150.2863  138.1585  158.0797 N   0  0  0  0  0  0  0  0  0  0  0  0
  150.2559  139.5016  158.1154 C   0  0  0  0  0  0  0  0  0  0  0  0
  149.2043  140.1298  158.2383 O   0  0  0  0  0  0  0  0  0  0  0  0
  151.4638  140.0783  157.8884 N   0  0  0  0  0  0  0  0  0  0  0  0
  152.7000  139.4885  158.4327 C   0  0  0  0  0  0  0  0  0  0  0  0
  152.9933  140.1199  159.8076 C   0  0  0  0  0  0  0  0  0  0  0  0
  153.1000  141.6570  159.7112 C   0  0  2  0  0  0  0  0  0  0  0  0
  153.2694  142.3019  161.0936 C   0  0  0  0  0  0  0  0  0  0  0  0
  151.8972  142.2527  158.9470 C   0  0  0  0  0  0  0  0  0  0  0  0
  151.6694  141.5168  157.6103 C   0  0  2  0  0  0  0  0  0  0  0  0
  150.5802  142.1865  156.7454 C   0  0  0  0  0  0  0  0  0  0  0  0
  147.1836  137.4033  161.3038 N   0  0  0  0  0  0  0  0  0  0  0  0
  144.0667  136.8065  162.4115 H   0  0  0  0  0  0  0  0  0  0  0  0
  144.5111  138.4884  162.0819 H   0  0  0  0  0  0  0  0  0  0  0  0
  145.3920  137.5614  163.3054 H   0  0  0  0  0  0  0  0  0  0  0  0
  149.6465  137.3530  160.3564 H   0  0  0  0  0  0  0  0  0  0  0  0
  149.3834  135.7362  159.7420 H   0  0  0  0  0  0  0  0  0  0  0  0
  149.2334  136.4503  157.5547 H   0  0  0  0  0  0  0  0  0  0  0  0
  148.2178  137.8148  157.9606 H   0  0  0  0  0  0  0  0  0  0  0  0
  151.1783  137.7101  157.9287 H   0  0  0  0  0  0  0  0  0  0  0  0
  152.6529  138.4039  158.5350 H   0  0  0  0  0  0  0  0  0  0  0  0
  153.5292  139.6758  157.7490 H   0  0  0  0  0  0  0  0  0  0  0  0
  152.2009  139.8477  160.5065 H   0  0  0  0  0  0  0  0  0  0  0  0
  153.9170  139.7070  160.2145 H   0  0  0  0  0  0  0  0  0  0  0  0
  153.9970  141.8840  159.1331 H   0  0  0  0  0  0  0  0  0  0  0  0
  152.4019  142.1148  161.7271 H   0  0  0  0  0  0  0  0  0  0  0  0
  153.3940  143.3818  161.0100 H   0  0  0  0  0  0  0  0  0  0  0  0
  154.1473  141.9073  161.6059 H   0  0  0  0  0  0  0  0  0  0  0  0
  150.9968  142.1874  159.5599 H   0  0  0  0  0  0  0  0  0  0  0  0
  152.0687  143.3142  158.7640 H   0  0  0  0  0  0  0  0  0  0  0  0
  152.5864  141.5991  157.0242 H   0  0  0  0  0  0  0  0  0  0  0  0
  150.9123  143.1694  156.4104 H   0  0  0  0  0  0  0  0  0  0  0  0
  149.6488  142.3408  157.2895 H   0  0  0  0  0  0  0  0  0  0  0  0
  150.3627  141.5961  155.8549 H   0  0  0  0  0  0  0  0  0  0  0  0
  1  2  1  0  0  0  0
  1 20  1  0  0  0  0
  1 21  1  0  0  0  0
  1 22  1  0  0  0  0
  2 19  1  0  0  0  0
  2  3  2  0  0  0  0
  3  4  1  0  0  0  0
  4  5  1  0  0  0  0
  5  6  1  0  0  0  0
  5 19  2  0  0  0  0
  6  7  1  0  0  0  0
  6 23  1  0  0  0  0
  6 24  1  0  0  0  0
  7  8  1  0  0  0  0
  7 25  1  0  0  0  0
  7 26  1  0  0  0  0
  8  9  1  0  0  0  0
  8 27  1  0  0  0  0
  9 10  2  0  0  0  0
  9 11  1  0  0  0  0
 11 17  1  0  0  0  0
 11 12  1  0  0  0  0
 12 13  1  0  0  0  0
 12 28  1  0  0  0  0
 12 29  1  0  0  0  0
 13 14  1  0  0  0  0
 13 30  1  0  0  0  0
 13 31  1  0  0  0  0
 14 15  1  0  0  0  0
 14 16  1  0  0  0  0
 14 32  1  0  0  0  0
 15 33  1  0  0  0  0
 15 34  1  0  0  0  0
 15 35  1  0  0  0  0
 16 17  1  0  0  0  0
 16 36  1  0  0  0  0
 16 37  1  0  0  0  0
 17 18  1  0  0  0  0
 17 38  1  0  0  0  0
 18 39  1  0  0  0  0
 18 40  1  0  0  0  0
 18 41  1  0  0  0  0
M  END
> <s_m_source_file>
AV-unprocessed.smi

> <i_m_source_file_index>
2911

> <i_lp_mmshare_version>
43012

> <i_f3d_flags>
0

> <s_epik_input>
W0NIM11jMW5vYyhuMSlbQ0gyXVtDSDJdW05IXUMoPU8pTjJbQ0gyXVtDSDJdW0NAQEhdKFtDSDNdKVtDSDJdW0NASF0yW0NIM10=

> <s_epik_cmdline>
J2VwaWtfcHl0aG9uJywgJy1waCcsICc3LjAnLCAnLXRuJywgJzgnLCAnLW1hJywgJzIwMCcsICctbWV0YWxfYmluZGluZycsICctaW1hZScsICc8aW5maWxlLm1hZT4nLCAnLW9tYWUnLCAnPG91dGZpbGUubWFlPic=

> <r_lp_tautomer_probability>
1

> <r_epik_Ionization_Penalty>
6.61671e-05

> <r_epik_Ionization_Penalty_Charging>
0

> <r_epik_Ionization_Penalty_Neutral>
6.61671e-05

> <r_epik_State_Penalty>
-0

> <r_epik_Charging_Adjusted_Penalty>
0

> <i_epik_Tot_Q>
0

> <i_epik_Tot_abs_Q>
0

> <r_epik_Metal_State_Penalty>
-0

> <b_epik_Metal_Only>
0

> <s_lp_Force_Field>
OPLS_2005

> <r_lp_Energy>
29.3819

> <b_lp_Chiralities_Consistent>
1

> <s_lp_Variant>
AV-unprocessed.smi:2911-4

> <Gold.Version>
5.8.1

> <Gold.Id.Protein>
6NUR|6NUR_protein|mol2

> <Gold.PLP.Fitness>
36.3130

> <Gold.PLP.PLP>
-31.7733

> <Gold.PLP.part.hbond>
-2.2175

> <Gold.PLP.part.metal>
0.0000

> <Gold.PLP.part.buried>
-4.4931

> <Gold.PLP.part.nonpolar>
-25.3560

> <Gold.PLP.part.repulsive>
0.0965

> <Gold.PLP.ligand.clash>
0.0000

> <Gold.PLP.ligand.torsion>
0.7529

> <Gold.PLP.Chemscore.Hbond>
1.8720

> <Gold.PLP.Chemscore.CHOScore>
0.0000

> <Gold.PLP.Chemscore.Metal>
0.0000

> <Gold.Chemscore.Hbonds>
donor molecule, donor type, donor heavy atom, donor atom, acceptor molecule, acceptor atom, score
      P1  H  6931  6943       L1    19  0.53
      P1  H  6934  6947       L1    19  1.00

> <Gold.PLP.Chemscore.Internal.Correction>
0.4294

> <Gold.Rescore>
     Score         DG    S(hbond)    S(metal)    S(lipo)     H(rot)  DE(clash)    DE(int)     intcor
     10.94     -12.96       0.98        0.00      71.20       1.61       0.01       2.01       ----

> <Gold.Chemscore.Fitness>
10.9357

> <Gold.Chemscore.DG>
-12.9589

> <Gold.Chemscore.ZeroCoef>
-5.4800

> <Gold.Chemscore.Hbond>
0.9782

> <Gold.Chemscore.Metal>
0.0000

> <Gold.Chemscore.Lipo>
71.1985

> <Gold.Chemscore.Internal_Hbond>
0.0000

> <Gold.Chemscore.DEClash>
0.0110

> <Gold.Chemscore.DEInternal>
2.0122

> <Gold.Chemscore.Rot>
1.6088

> <Gold.Chemscore.Internal.Correction>
   9.000000E+99

> <Gold.Chemscore.Hbonds>
donor molecule, donor type, donor heavy atom, donor atom, acceptor molecule, acceptor atom, score
      P1  H  6931  6943       L1    19  0.10
      P1  H  6934  6947       L1    19  0.22

> <Gold.Chemscore.Hbond.Weighted>
-3.2673

> <Gold.Chemscore.Metal.Weighted>
-0.0000

> <Gold.Chemscore.Lipo.Weighted>
-8.3302

> <Gold.Chemscore.Internal_Hbond.Weighted>
0.0000

> <Gold.Chemscore.DEClash.Weighted>
0.0110

> <Gold.Chemscore.DEInternal.Weighted>
2.0122

> <Gold.Chemscore.Rot.Weighted>
4.1186

> <Gold.Chemscore.Internal.Correction.Weighted>
   9.000000E+99

> <Gold.Protein.RotatedTorsions>
[ 6907 6896 6895 6894 ] final   85.84 input  -60.11 | X-H torsion
[ 7974 7965 7964 7962 ] final  125.40 input  175.53 | X-H torsion
[ 8008 7997 7996 7995 ] final  -20.93 input   59.86 | X-H torsion
[ 10167 10162 10161 10158 ] final   -2.28 input  -65.29 | X-H torsion
[ 10718 10713 10712 10709 ] final  125.47 input   66.30 | X-H torsion
[ 10763 10752 10751 10750 ] final  130.46 input  -60.55 | X-H torsion
[ 11005 11000 10999 10996 ] final -152.42 input  -57.11 | X-H torsion

> <Gold.Protein.ActiveResidues>
 VAL166  LYS551  ARG553  GLY616  TRP617  ASP618  TYR619  PRO620  LYS621  CYS622 
 ASP623  PHE694  ASN695  SER759  ASP760  ASP761  ALA762  ILE779  LEU786  VAL792 
 PHE793  MET794  SER795  GLU796  ALA797  LYS798  CYS799  TRP800  GLU811  SER814 

> <Gold.Protein.RotatedAtoms>
  152.5383  134.2523  159.8903 H   0  0  0  0  0  0  0  0  0  0  0  0  # atno 6907 bound_to 6896
  151.2486  133.4355  159.2618 H   0  0  0  0  0  0  0  0  0  0  0  0  # atno 6908 bound_to 6896
  151.0560  134.9719  159.8292 H   0  0  0  0  0  0  0  0  0  0  0  0  # atno 6909 bound_to 6896
  145.0734  139.3712  143.4946 H   0  0  0  0  0  0  0  0  0  0  0  0  # atno 7974 bound_to 7965
  154.4738  140.2048  155.9929 H   0  0  0  0  0  0  0  0  0  0  0  0  # atno 8008 bound_to 7997
  156.1055  140.3237  155.7970 H   0  0  0  0  0  0  0  0  0  0  0  0  # atno 8009 bound_to 7997
  155.4725  140.0532  157.2968 H   0  0  0  0  0  0  0  0  0  0  0  0  # atno 8010 bound_to 7997
  140.6844  143.6676  150.8213 H   0  0  0  0  0  0  0  0  0  0  0  0  # atno 10167 bound_to 10162
  157.5501  131.1094  150.8717 H   0  0  0  0  0  0  0  0  0  0  0  0  # atno 10718 bound_to 10713
  153.7583  135.3199  155.3333 H   0  0  0  0  0  0  0  0  0  0  0  0  # atno 10763 bound_to 10752
  154.8239  135.4584  154.0863 H   0  0  0  0  0  0  0  0  0  0  0  0  # atno 10764 bound_to 10752
  153.2086  135.6932  153.8225 H   0  0  0  0  0  0  0  0  0  0  0  0  # atno 10765 bound_to 10752
  140.7191  134.3747  157.5186 H   0  0  0  0  0  0  0  0  0  0  0  0  # atno 11005 bound_to 11000
  146.3529  140.0490  142.8637 LP  0  0  0  0  0  0  0  0  0  0  0  0  # atno 17320 bound_to 7965
  145.1264  140.9493  143.4570 LP  0  0  0  0  0  0  0  0  0  0  0  0  # atno 17321 bound_to 7965
  140.0381  143.5374  152.2730 LP  0  0  0  0  0  0  0  0  0  0  0  0  # atno 17342 bound_to 10162
  139.6192  144.7625  151.2779 LP  0  0  0  0  0  0  0  0  0  0  0  0  # atno 17343 bound_to 10162
  156.9244  130.5327  149.5279 LP  0  0  0  0  0  0  0  0  0  0  0  0  # atno 17370 bound_to 10713
  156.0569  130.5629  150.9110 LP  0  0  0  0  0  0  0  0  0  0  0  0  # atno 17371 bound_to 10713
  139.8852  134.8942  156.2654 LP  0  0  0  0  0  0  0  0  0  0  0  0  # atno 17394 bound_to 11000
  141.0019  133.7146  156.0974 LP  0  0  0  0  0  0  0  0  0  0  0  0  # atno 17395 bound_to 11000

$$$$
