AV-unprocessed.smi:2264|AV-procd|sdf|9141|dock4
  -GOLD-   2272012343D 1   1.00000     0.00000
 Structure written by MMmdl.
 44 45  0  0  0  0  0  0  0  0  1 V2000
  153.4102  143.8340  163.9830 C   0  0  0  0  0  0  0  0  0  0  0  0
  153.1645  143.2344  162.6137 C   0  0  0  0  0  0  0  0  0  0  0  0
  153.6328  141.9428  162.3056 C   0  0  0  0  0  0  0  0  0  0  0  0
  153.4058  141.3924  161.0299 C   0  0  0  0  0  0  0  0  0  0  0  0
  152.7067  142.1292  160.0403 C   0  0  0  0  0  0  0  0  0  0  0  0
  152.4511  141.6561  158.7702 O   0  0  0  0  0  0  0  0  0  0  0  0
  152.6389  140.2710  158.5084 C   0  0  0  0  0  0  0  0  0  0  0  0
  151.4986  139.7487  157.6180 C   0  0  2  0  0  0  0  0  0  0  0  0
  151.6685  138.3528  157.4738 O   0  0  0  0  0  0  0  0  0  0  0  0
  151.4512  140.4326  156.2328 C   0  0  0  0  0  0  0  0  0  0  0  0
  150.0838  140.8208  155.8502 N   0  0  0  0  0  0  0  0  0  0  0  0
  149.4091  141.6774  156.7351 C   0  0  0  0  0  0  0  0  0  0  0  0
  148.2058  142.0871  156.4985 N   0  0  0  0  0  0  0  0  0  0  0  0
  147.5453  141.6771  155.3368 C   0  0  0  0  0  0  0  0  0  0  0  0
  146.1368  142.2155  155.1577 C   0  0  0  0  0  0  0  0  0  0  0  0
  148.1448  140.8501  154.4371 C   0  0  0  0  0  0  0  0  0  0  0  0
  147.4760  140.3712  153.1548 C   0  0  0  0  0  0  0  0  0  0  0  0
  149.5155  140.3783  154.6912 C   0  0  0  0  0  0  0  0  0  0  0  0
  150.1222  139.6373  153.9153 O   0  0  0  0  0  0  0  0  0  0  0  0
  152.2392  143.4255  160.3575 C   0  0  0  0  0  0  0  0  0  0  0  0
  151.4883  144.2369  159.3184 C   0  0  0  0  0  0  0  0  0  0  0  0
  152.4680  143.9724  161.6376 C   0  0  0  0  0  0  0  0  0  0  0  0
  153.7825  143.0854  164.6831 H   0  0  0  0  0  0  0  0  0  0  0  0
  152.4868  144.2478  164.3891 H   0  0  0  0  0  0  0  0  0  0  0  0
  154.1464  144.6352  163.9158 H   0  0  0  0  0  0  0  0  0  0  0  0
  154.1695  141.3674  163.0458 H   0  0  0  0  0  0  0  0  0  0  0  0
  153.7822  140.3999  160.8354 H   0  0  0  0  0  0  0  0  0  0  0  0
  153.6061  140.0844  158.0379 H   0  0  0  0  0  0  0  0  0  0  0  0
  152.6197  139.7271  159.4543 H   0  0  0  0  0  0  0  0  0  0  0  0
  150.5617  139.9078  158.1529 H   0  0  0  0  0  0  0  0  0  0  0  0
  150.8641  137.9841  157.1423 H   0  0  0  0  0  0  0  0  0  0  0  0
  152.0694  141.3323  156.2544 H   0  0  0  0  0  0  0  0  0  0  0  0
  151.9266  139.8012  155.4788 H   0  0  0  0  0  0  0  0  0  0  0  0
  149.9697  141.9714  157.6242 H   0  0  0  0  0  0  0  0  0  0  0  0
  145.4181  141.3971  155.1112 H   0  0  0  0  0  0  0  0  0  0  0  0
  146.0640  142.7967  154.2380 H   0  0  0  0  0  0  0  0  0  0  0  0
  145.8507  142.8647  155.9864 H   0  0  0  0  0  0  0  0  0  0  0  0
  148.0565  140.6871  152.2872 H   0  0  0  0  0  0  0  0  0  0  0  0
  146.4640  140.7527  153.0293 H   0  0  0  0  0  0  0  0  0  0  0  0
  147.4195  139.2823  153.1453 H   0  0  0  0  0  0  0  0  0  0  0  0
  151.1764  145.2039  159.7142 H   0  0  0  0  0  0  0  0  0  0  0  0
  150.5969  143.7015  158.9907 H   0  0  0  0  0  0  0  0  0  0  0  0
  152.1215  144.4144  158.4487 H   0  0  0  0  0  0  0  0  0  0  0  0
  152.1099  144.9639  161.8735 H   0  0  0  0  0  0  0  0  0  0  0  0
  1  2  1  0  0  0  0
  1 23  1  0  0  0  0
  1 24  1  0  0  0  0
  1 25  1  0  0  0  0
  2 22  1  0  0  0  0
  2  3  2  0  0  0  0
  3  4  1  0  0  0  0
  3 26  1  0  0  0  0
  4  5  2  0  0  0  0
  4 27  1  0  0  0  0
  5  6  1  0  0  0  0
  5 20  1  0  0  0  0
  6  7  1  0  0  0  0
  7  8  1  0  0  0  0
  7 28  1  0  0  0  0
  7 29  1  0  0  0  0
  8  9  1  0  0  0  0
  8 10  1  0  0  0  0
  8 30  1  0  0  0  0
  9 31  1  0  0  0  0
 10 11  1  0  0  0  0
 10 32  1  0  0  0  0
 10 33  1  0  0  0  0
 11 18  1  0  0  0  0
 11 12  1  0  0  0  0
 12 13  2  0  0  0  0
 12 34  1  0  0  0  0
 13 14  1  0  0  0  0
 14 15  1  0  0  0  0
 14 16  2  0  0  0  0
 15 35  1  0  0  0  0
 15 36  1  0  0  0  0
 15 37  1  0  0  0  0
 16 17  1  0  0  0  0
 16 18  1  0  0  0  0
 17 38  1  0  0  0  0
 17 39  1  0  0  0  0
 17 40  1  0  0  0  0
 18 19  2  0  0  0  0
 20 21  1  0  0  0  0
 20 22  2  0  0  0  0
 21 41  1  0  0  0  0
 21 42  1  0  0  0  0
 21 43  1  0  0  0  0
 22 44  1  0  0  0  0
M  END
> <s_m_source_file>
AV-unprocessed.smi

> <i_m_source_file_index>
2264

> <i_lp_mmshare_version>
43012

> <i_f3d_flags>
0

> <s_epik_input>
W0NIM11jMVtjSF1bY0hdYyhjKFtDSDNdKVtjSF0xKU9bQ0gyXVtDQEhdKFtPSF0pW0NIMl1uMltjSF1uYyhbQ0gzXSljKFtDSDNdKWMyPU8=

> <s_epik_cmdline>
J2VwaWtfcHl0aG9uJywgJy1waCcsICc3LjAnLCAnLXRuJywgJzgnLCAnLW1hJywgJzIwMCcsICctbWV0YWxfYmluZGluZycsICctaW1hZScsICc8aW5maWxlLm1hZT4nLCAnLW9tYWUnLCAnPG91dGZpbGUubWFlPic=

> <r_lp_tautomer_probability>
1

> <r_epik_Ionization_Penalty>
3.7476e-05

> <r_epik_Ionization_Penalty_Charging>
8.44705e-08

> <r_epik_Ionization_Penalty_Neutral>
3.73915e-05

> <r_epik_State_Penalty>
-0

> <r_epik_Charging_Adjusted_Penalty>
8.44705e-08

> <i_epik_Tot_Q>
0

> <i_epik_Tot_abs_Q>
0

> <r_epik_Metal_State_Penalty>
-0

> <b_epik_Metal_Only>
0

> <s_lp_Force_Field>
OPLS_2005

> <r_lp_Energy>
23.9382

> <b_lp_Chiralities_Consistent>
1

> <s_lp_Variant>
AV-unprocessed.smi:2264-1

> <Gold.Version>
5.8.1

> <Gold.Id.Protein>
6NUR|6NUR_protein|mol2

> <Gold.PLP.Fitness>
46.5240

> <Gold.PLP.PLP>
-45.9705

> <Gold.PLP.part.hbond>
-1.0000

> <Gold.PLP.part.metal>
0.0000

> <Gold.PLP.part.buried>
-5.2361

> <Gold.PLP.part.nonpolar>
-43.7186

> <Gold.PLP.part.repulsive>
4.2189

> <Gold.PLP.ligand.clash>
0.0000

> <Gold.PLP.ligand.torsion>
1.1012

> <Gold.PLP.Chemscore.Hbond>
0.8928

> <Gold.PLP.Chemscore.CHOScore>
0.0000

> <Gold.PLP.Chemscore.Metal>
0.0000

> <Gold.Chemscore.Hbonds>
donor molecule, donor type, donor heavy atom, donor atom, acceptor molecule, acceptor atom, score
      P1  H  7989  7998       L1    19  0.88

> <Gold.PLP.Chemscore.Internal.Correction>
0.0776

> <Gold.Rescore>
     Score         DG    S(hbond)    S(metal)    S(lipo)     H(rot)  DE(clash)    DE(int)     intcor
     12.12     -14.93       0.00        0.00     131.54       2.32       1.68       1.13       ----

> <Gold.Chemscore.Fitness>
12.1231

> <Gold.Chemscore.DG>
-14.9281

> <Gold.Chemscore.ZeroCoef>
-5.4800

> <Gold.Chemscore.Hbond>
0.0018

> <Gold.Chemscore.Metal>
0.0000

> <Gold.Chemscore.Lipo>
131.5425

> <Gold.Chemscore.Internal_Hbond>
0.0000

> <Gold.Chemscore.DEClash>
1.6796

> <Gold.Chemscore.DEInternal>
1.1254

> <Gold.Chemscore.Rot>
2.3236

> <Gold.Chemscore.Internal.Correction>
   9.000000E+99

> <Gold.Chemscore.Hbonds>
donor molecule, donor type, donor heavy atom, donor atom, acceptor molecule, acceptor atom, score
      P1  H  7989  7998       L1    19  0.16

> <Gold.Chemscore.Hbond.Weighted>
-0.0061

> <Gold.Chemscore.Metal.Weighted>
-0.0000

> <Gold.Chemscore.Lipo.Weighted>
-15.3905

> <Gold.Chemscore.Internal_Hbond.Weighted>
0.0000

> <Gold.Chemscore.DEClash.Weighted>
1.6796

> <Gold.Chemscore.DEInternal.Weighted>
1.1254

> <Gold.Chemscore.Rot.Weighted>
5.9484

> <Gold.Chemscore.Internal.Correction.Weighted>
   9.000000E+99

> <Gold.Protein.RotatedTorsions>
[ 6907 6896 6895 6894 ] final  142.11 input  -60.11 | X-H torsion
[ 7974 7965 7964 7962 ] final  -87.39 input  175.53 | X-H torsion
[ 8008 7997 7996 7995 ] final   48.59 input   59.86 | X-H torsion
[ 10167 10162 10161 10158 ] final  -53.71 input  -65.29 | X-H torsion
[ 10718 10713 10712 10709 ] final   32.25 input   66.30 | X-H torsion
[ 10763 10752 10751 10750 ] final  102.05 input  -60.55 | X-H torsion
[ 11005 11000 10999 10996 ] final  172.98 input  -57.11 | X-H torsion

> <Gold.Protein.ActiveResidues>
 VAL166  LYS551  ARG553  GLY616  TRP617  ASP618  TYR619  PRO620  LYS621  CYS622 
 ASP623  PHE694  ASN695  SER759  ASP760  ASP761  ALA762  ILE779  LEU786  VAL792 
 PHE793  MET794  SER795  GLU796  ALA797  LYS798  CYS799  TRP800  GLU811  SER814 

> <Gold.Protein.RotatedAtoms>
  152.2227  133.4996  159.5171 H   0  0  0  0  0  0  0  0  0  0  0  0  # atno 6907 bound_to 6896
  150.7017  134.1320  159.4082 H   0  0  0  0  0  0  0  0  0  0  0  0  # atno 6908 bound_to 6896
  151.9241  135.0285  160.0575 H   0  0  0  0  0  0  0  0  0  0  0  0  # atno 6909 bound_to 6896
  145.4671  140.9560  143.1937 H   0  0  0  0  0  0  0  0  0  0  0  0  # atno 7974 bound_to 7965
  155.3881  140.3432  155.4250 H   0  0  0  0  0  0  0  0  0  0  0  0  # atno 8008 bound_to 7997
  156.1573  140.1589  156.8705 H   0  0  0  0  0  0  0  0  0  0  0  0  # atno 8009 bound_to 7997
  154.5106  140.0791  156.7964 H   0  0  0  0  0  0  0  0  0  0  0  0  # atno 8010 bound_to 7997
  140.6470  143.2541  151.4831 H   0  0  0  0  0  0  0  0  0  0  0  0  # atno 10167 bound_to 10162
  157.2829  130.7264  149.6566 H   0  0  0  0  0  0  0  0  0  0  0  0  # atno 10718 bound_to 10713
  153.3346  135.4023  155.1523 H   0  0  0  0  0  0  0  0  0  0  0  0  # atno 10763 bound_to 10752
  154.8630  135.3618  154.5426 H   0  0  0  0  0  0  0  0  0  0  0  0  # atno 10764 bound_to 10752
  153.5867  135.7075  153.5500 H   0  0  0  0  0  0  0  0  0  0  0  0  # atno 10765 bound_to 10752
  140.3355  134.7321  157.4165 H   0  0  0  0  0  0  0  0  0  0  0  0  # atno 11005 bound_to 11000
  144.7967  139.6220  143.7089 LP  0  0  0  0  0  0  0  0  0  0  0  0  # atno 17320 bound_to 7965
  146.2418  139.6016  142.9486 LP  0  0  0  0  0  0  0  0  0  0  0  0  # atno 17321 bound_to 7965
  139.5681  144.1993  152.1796 LP  0  0  0  0  0  0  0  0  0  0  0  0  # atno 17342 bound_to 10162
  140.1281  144.5313  150.6820 LP  0  0  0  0  0  0  0  0  0  0  0  0  # atno 17343 bound_to 10162
  155.9665  130.4332  150.4999 LP  0  0  0  0  0  0  0  0  0  0  0  0  # atno 17370 bound_to 10713
  157.2946  131.0633  151.2110 LP  0  0  0  0  0  0  0  0  0  0  0  0  # atno 17371 bound_to 10713
  140.0824  134.5712  155.8526 LP  0  0  0  0  0  0  0  0  0  0  0  0  # atno 17394 bound_to 11000
  141.2052  133.6645  156.6167 LP  0  0  0  0  0  0  0  0  0  0  0  0  # atno 17395 bound_to 11000

$$$$
