AV-unprocessed.smi:21|AV-procd|sdf|154|dock9
  -GOLD-   2262015383D 1   1.00000     0.00000
 Structure written by MMmdl.
 61 64  0  0  0  0  0  0  0  0  1 V2000
  151.5638  145.5775  160.1285 C   0  0  0  0  0  0  0  0  0  0  0  0
  151.6917  144.1893  160.3910 O   0  0  0  0  0  0  0  0  0  0  0  0
  152.3678  143.4814  159.3619 C   0  0  2  0  0  0  0  0  0  0  0  0
  151.6556  143.5719  157.9994 C   0  0  0  0  0  0  0  0  0  0  0  0
  151.3214  142.1156  157.6371 C   0  0  1  0  0  0  0  0  0  0  0  0
  151.3100  141.8445  156.1161 C   0  0  0  0  0  0  0  0  0  0  0  0
  151.0703  140.4399  155.7843 N   0  0  0  0  0  0  0  0  0  0  0  0
  152.2329  139.5835  155.5547 C   0  0  0  0  0  0  0  0  0  0  0  0
  149.8494  140.0311  155.3272 C   0  0  0  0  0  0  0  0  0  0  0  0
  148.9421  140.9827  154.9737 N   0  0  0  0  0  0  0  0  0  0  0  0
  147.7280  140.6481  154.5310 C   0  0  0  0  0  0  0  0  0  0  0  0
  147.2111  139.4325  154.3592 N   0  0  0  0  0  0  0  0  0  0  0  0
  148.1084  138.4655  154.7001 C   0  0  0  0  0  0  0  0  0  0  0  0
  149.4344  138.6691  155.1855 C   0  0  0  0  0  0  0  0  0  0  0  0
  150.0329  137.4318  155.4075 N   0  0  0  0  0  0  0  0  0  0  0  0
  149.1216  136.5583  155.0815 C   0  0  0  0  0  0  0  0  0  0  0  0
  147.9356  137.0938  154.6406 N   0  0  0  0  0  0  0  0  0  0  0  0
  146.7616  136.3562  154.2096 C   0  0  0  0  0  0  0  0  0  0  0  0
  146.5401  136.3671  152.6740 C   0  0  2  0  0  0  0  0  0  0  0  0
  146.0845  137.7539  152.1507 C   0  0  0  0  0  0  0  0  0  0  0  0
  146.5100  137.9810  150.8224 O   0  0  0  0  0  0  0  0  0  0  0  0
  145.5313  135.2623  152.2650 C   0  0  2  0  0  0  0  0  0  0  0  0
  146.0736  133.8434  152.3176 C   0  0  0  0  0  0  0  0  0  0  0  0
  145.0806  133.0892  151.4439 C   0  0  0  0  0  0  0  0  0  0  0  0
  144.7379  133.9994  150.4083 O   0  0  0  0  0  0  0  0  0  0  0  0
  145.0589  135.3301  150.8051 C   0  0  0  0  0  0  0  0  0  0  0  0
  152.2762  141.3146  158.3859 N   0  0  0  0  0  0  0  0  0  0  0  0
  151.8923  139.9152  158.5171 C   0  0  0  0  0  0  0  0  0  0  0  0
  152.3542  141.9822  159.6699 C   0  0  0  0  0  0  0  0  0  0  0  0
  153.4022  143.8179  159.2710 H   0  0  0  0  0  0  0  0  0  0  0  0
  150.3274  141.9081  158.0371 H   0  0  0  0  0  0  0  0  0  0  0  0
  151.0425  146.0583  160.9558 H   0  0  0  0  0  0  0  0  0  0  0  0
  150.9924  145.7657  159.2190 H   0  0  0  0  0  0  0  0  0  0  0  0
  152.5420  146.0498  160.0293 H   0  0  0  0  0  0  0  0  0  0  0  0
  150.7513  144.1807  158.0329 H   0  0  0  0  0  0  0  0  0  0  0  0
  152.3280  144.0175  157.2654 H   0  0  0  0  0  0  0  0  0  0  0  0
  150.5344  142.4564  155.6542 H   0  0  0  0  0  0  0  0  0  0  0  0
  152.2318  142.1755  155.6431 H   0  0  0  0  0  0  0  0  0  0  0  0
  152.0648  138.5870  155.9648 H   0  0  0  0  0  0  0  0  0  0  0  0
  153.1239  139.9882  156.0349 H   0  0  0  0  0  0  0  0  0  0  0  0
  152.4409  139.4905  154.4881 H   0  0  0  0  0  0  0  0  0  0  0  0
  147.0777  141.4730  154.2806 H   0  0  0  0  0  0  0  0  0  0  0  0
  149.2928  135.4937  155.1458 H   0  0  0  0  0  0  0  0  0  0  0  0
  146.8743  135.3353  154.5741 H   0  0  0  0  0  0  0  0  0  0  0  0
  145.8878  136.7668  154.7167 H   0  0  0  0  0  0  0  0  0  0  0  0
  147.4914  136.1250  152.1968 H   0  0  0  0  0  0  0  0  0  0  0  0
  144.9989  137.8388  152.1417 H   0  0  0  0  0  0  0  0  0  0  0  0
  146.4531  138.5521  152.7958 H   0  0  0  0  0  0  0  0  0  0  0  0
  145.8060  138.3954  150.3469 H   0  0  0  0  0  0  0  0  0  0  0  0
  144.6561  135.3152  152.9149 H   0  0  0  0  0  0  0  0  0  0  0  0
  147.0707  133.7964  151.8773 H   0  0  0  0  0  0  0  0  0  0  0  0
  146.1249  133.4371  153.3281 H   0  0  0  0  0  0  0  0  0  0  0  0
  145.4909  132.1614  151.0444 H   0  0  0  0  0  0  0  0  0  0  0  0
  144.1807  132.8476  152.0109 H   0  0  0  0  0  0  0  0  0  0  0  0
  144.1960  135.9845  150.6807 H   0  0  0  0  0  0  0  0  0  0  0  0
  145.8534  135.6950  150.1529 H   0  0  0  0  0  0  0  0  0  0  0  0
  152.6113  139.3772  159.1358 H   0  0  0  0  0  0  0  0  0  0  0  0
  151.8638  139.4239  157.5448 H   0  0  0  0  0  0  0  0  0  0  0  0
  150.9083  139.8157  158.9772 H   0  0  0  0  0  0  0  0  0  0  0  0
  153.2306  141.6666  160.2368 H   0  0  0  0  0  0  0  0  0  0  0  0
  151.4709  141.7422  160.2647 H   0  0  0  0  0  0  0  0  0  0  0  0
  1  2  1  0  0  0  0
  1 32  1  0  0  0  0
  1 33  1  0  0  0  0
  1 34  1  0  0  0  0
  2  3  1  0  0  0  0
  3 30  1  0  0  0  0
  3 29  1  0  0  0  0
  3  4  1  0  0  0  0
  4  5  1  0  0  0  0
  4 35  1  0  0  0  0
  4 36  1  0  0  0  0
  5 31  1  0  0  0  0
  5  6  1  0  0  0  0
  5 27  1  0  0  0  0
  6  7  1  0  0  0  0
  6 37  1  0  0  0  0
  6 38  1  0  0  0  0
  7  8  1  0  0  0  0
  7  9  1  0  0  0  0
  8 39  1  0  0  0  0
  8 40  1  0  0  0  0
  8 41  1  0  0  0  0
  9 14  1  0  0  0  0
  9 10  2  0  0  0  0
 10 11  1  0  0  0  0
 11 12  2  0  0  0  0
 11 42  1  0  0  0  0
 12 13  1  0  0  0  0
 13 17  1  0  0  0  0
 13 14  2  0  0  0  0
 14 15  1  0  0  0  0
 15 16  2  0  0  0  0
 16 17  1  0  0  0  0
 16 43  1  0  0  0  0
 17 18  1  0  0  0  0
 18 19  1  0  0  0  0
 18 44  1  0  0  0  0
 18 45  1  0  0  0  0
 19 20  1  0  0  0  0
 19 22  1  0  0  0  0
 19 46  1  0  0  0  0
 20 21  1  0  0  0  0
 20 47  1  0  0  0  0
 20 48  1  0  0  0  0
 21 49  1  0  0  0  0
 22 26  1  0  0  0  0
 22 23  1  0  0  0  0
 22 50  1  0  0  0  0
 23 24  1  0  0  0  0
 23 51  1  0  0  0  0
 23 52  1  0  0  0  0
 24 25  1  0  0  0  0
 24 53  1  0  0  0  0
 24 54  1  0  0  0  0
 25 26  1  0  0  0  0
 26 55  1  0  0  0  0
 26 56  1  0  0  0  0
 27 28  1  0  0  0  0
 27 29  1  0  0  0  0
 28 57  1  0  0  0  0
 28 58  1  0  0  0  0
 28 59  1  0  0  0  0
 29 60  1  0  0  0  0
 29 61  1  0  0  0  0
M  END
> <s_m_source_file>
AV-unprocessed.smi

> <i_m_source_file_index>
21

> <i_lp_mmshare_version>
43012

> <i_f3d_flags>
0

> <s_epik_input>
W0NIM11PW0NASF0xW0NIMl1bQ0BIXShOKFtDSDNdKVtDSDJdMSlbQ0gyXU4oW0NIM10pYyhuW2NIXW4yKWMoYzIzKW5bY0hdbjNbQ0gyXVtDQEhdKFtDSDJdW09IXSlbQ0BASF00W0NIMl1bQ0gyXU9bQ0gyXTQ=

> <s_epik_cmdline>
J2VwaWtfcHl0aG9uJywgJy1waCcsICc3LjAnLCAnLXRuJywgJzgnLCAnLW1hJywgJzIwMCcsICctbWV0YWxfYmluZGluZycsICctaW1hZScsICc8aW5maWxlLm1hZT4nLCAnLW9tYWUnLCAnPG91dGZpbGUubWFlPic=

> <r_lp_tautomer_probability>
1

> <r_epik_Ionization_Penalty>
2.17574

> <r_epik_Ionization_Penalty_Charging>
0

> <r_epik_Ionization_Penalty_Neutral>
2.17574

> <r_epik_State_Penalty>
2.31336

> <r_epik_Charging_Adjusted_Penalty>
2.31336

> <i_epik_Tot_Q>
0

> <i_epik_Tot_abs_Q>
0

> <r_epik_Metal_State_Penalty>
2.31025

> <b_epik_Metal_Only>
0

> <s_lp_Force_Field>
OPLS_2005

> <r_lp_Energy>
69.0307

> <b_lp_Chiralities_Consistent>
1

> <s_lp_Variant>
AV-unprocessed.smi:21-34

> <Gold.Version>
5.8.1

> <Gold.Id.Protein>
6NUR|6NUR_protein|mol2

> <Gold.PLP.Fitness>
47.8446

> <Gold.PLP.PLP>
-44.1696

> <Gold.PLP.part.hbond>
-2.6010

> <Gold.PLP.part.metal>
0.0000

> <Gold.PLP.part.buried>
-6.0518

> <Gold.PLP.part.nonpolar>
-37.4512

> <Gold.PLP.part.repulsive>
0.5979

> <Gold.PLP.ligand.clash>
0.0000

> <Gold.PLP.ligand.torsion>
1.3056

> <Gold.PLP.Chemscore.Hbond>
1.9760

> <Gold.PLP.Chemscore.CHOScore>
0.0000

> <Gold.PLP.Chemscore.Metal>
0.0000

> <Gold.Chemscore.Hbonds>
donor molecule, donor type, donor heavy atom, donor atom, acceptor molecule, acceptor atom, score
      L1  H    21    49       P1 10171  1.00
      P1  H  7954  7966       L1    21  1.00

> <Gold.PLP.Chemscore.Internal.Correction>
0.3583

> <Gold.Rescore>
     Score         DG    S(hbond)    S(metal)    S(lipo)     H(rot)  DE(clash)    DE(int)     intcor
     11.68     -16.15       1.79        0.00     105.82       3.00       1.58       2.90       ----

> <Gold.Chemscore.Fitness>
11.6800

> <Gold.Chemscore.DG>
-16.1520

> <Gold.Chemscore.ZeroCoef>
-5.4800

> <Gold.Chemscore.Hbond>
1.7903

> <Gold.Chemscore.Metal>
0.0000

> <Gold.Chemscore.Lipo>
105.8154

> <Gold.Chemscore.Internal_Hbond>
0.0000

> <Gold.Chemscore.DEClash>
1.5755

> <Gold.Chemscore.DEInternal>
2.8965

> <Gold.Chemscore.Rot>
3.0031

> <Gold.Chemscore.Internal.Correction>
   9.000000E+99

> <Gold.Chemscore.Hbonds>
donor molecule, donor type, donor heavy atom, donor atom, acceptor molecule, acceptor atom, score
      L1  H    21    49       P1 10171  0.94
      P1  H  7954  7966       L1    21  0.89

> <Gold.Chemscore.Hbond.Weighted>
-5.9796

> <Gold.Chemscore.Metal.Weighted>
-0.0000

> <Gold.Chemscore.Lipo.Weighted>
-12.3804

> <Gold.Chemscore.Internal_Hbond.Weighted>
0.0000

> <Gold.Chemscore.DEClash.Weighted>
1.5755

> <Gold.Chemscore.DEInternal.Weighted>
2.8965

> <Gold.Chemscore.Rot.Weighted>
7.6880

> <Gold.Chemscore.Internal.Correction.Weighted>
   9.000000E+99

> <Gold.Protein.RotatedTorsions>
[ 6907 6896 6895 6894 ] final   -1.88 input  -60.11 | X-H torsion
[ 7974 7965 7964 7962 ] final   11.18 input  175.53 | X-H torsion
[ 8008 7997 7996 7995 ] final  -37.90 input   59.86 | X-H torsion
[ 10167 10162 10161 10158 ] final  136.05 input  -65.29 | X-H torsion
[ 10718 10713 10712 10709 ] final   88.14 input   66.30 | X-H torsion
[ 10763 10752 10751 10750 ] final -179.61 input  -60.55 | X-H torsion
[ 11005 11000 10999 10996 ] final -103.12 input  -57.11 | X-H torsion

> <Gold.Protein.ActiveResidues>
 VAL166  LYS551  ARG553  GLY616  TRP617  ASP618  TYR619  PRO620  LYS621  CYS622 
 ASP623  PHE694  ASN695  SER759  ASP760  ASP761  ALA762  ILE779  LEU786  VAL792 
 PHE793  MET794  SER795  GLU796  ALA797  LYS798  CYS799  TRP800  GLU811  SER814 

> <Gold.Protein.RotatedAtoms>
  151.5389  135.1068  159.9921 H   0  0  0  0  0  0  0  0  0  0  0  0  # atno 6907 bound_to 6896
  152.4544  133.7690  159.6799 H   0  0  0  0  0  0  0  0  0  0  0  0  # atno 6908 bound_to 6896
  150.8483  133.7761  159.3059 H   0  0  0  0  0  0  0  0  0  0  0  0  # atno 6909 bound_to 6896
  146.2375  139.9523  142.8469 H   0  0  0  0  0  0  0  0  0  0  0  0  # atno 7974 bound_to 7965
  154.4045  140.1592  156.2612 H   0  0  0  0  0  0  0  0  0  0  0  0  # atno 8008 bound_to 7997
  155.9035  140.3431  155.6022 H   0  0  0  0  0  0  0  0  0  0  0  0  # atno 8009 bound_to 7997
  155.7420  140.0794  157.2232 H   0  0  0  0  0  0  0  0  0  0  0  0  # atno 8010 bound_to 7997
  139.5194  144.6485  151.5371 H   0  0  0  0  0  0  0  0  0  0  0  0  # atno 10167 bound_to 10162
  157.6946  131.0283  150.3230 H   0  0  0  0  0  0  0  0  0  0  0  0  # atno 10718 bound_to 10713
  154.5329  135.2801  155.1164 H   0  0  0  0  0  0  0  0  0  0  0  0  # atno 10763 bound_to 10752
  154.2677  135.6309  153.5302 H   0  0  0  0  0  0  0  0  0  0  0  0  # atno 10764 bound_to 10752
  152.9961  135.5621  154.5847 H   0  0  0  0  0  0  0  0  0  0  0  0  # atno 10765 bound_to 10752
  141.1160  133.8614  157.1446 H   0  0  0  0  0  0  0  0  0  0  0  0  # atno 11005 bound_to 11000
  145.1849  140.9785  143.4244 LP  0  0  0  0  0  0  0  0  0  0  0  0  # atno 17320 bound_to 7965
  144.9908  139.3691  143.6215 LP  0  0  0  0  0  0  0  0  0  0  0  0  # atno 17321 bound_to 7965
  140.6279  143.9132  150.6580 LP  0  0  0  0  0  0  0  0  0  0  0  0  # atno 17342 bound_to 10162
  140.2427  143.3652  152.1473 LP  0  0  0  0  0  0  0  0  0  0  0  0  # atno 17343 bound_to 10162
  156.3714  130.3864  149.7172 LP  0  0  0  0  0  0  0  0  0  0  0  0  # atno 17370 bound_to 10713
  156.4585  130.7940  151.2961 LP  0  0  0  0  0  0  0  0  0  0  0  0  # atno 17371 bound_to 10713
  140.0082  134.9999  157.0338 LP  0  0  0  0  0  0  0  0  0  0  0  0  # atno 17394 bound_to 11000
  140.4645  134.1450  155.7195 LP  0  0  0  0  0  0  0  0  0  0  0  0  # atno 17395 bound_to 11000

$$$$
