AV-unprocessed.smi:502|AV-procd|sdf|2744|dock10
  -GOLD-   2262023203D 1   1.00000     0.00000
 Structure written by MMmdl.
 48 50  0  0  0  0  0  0  0  0  1 V2000
  155.3279  137.3230  159.8513 C   0  0  0  0  0  0  0  0  0  0  0  0
  153.8106  137.1988  159.9274 C   0  0  0  0  0  0  0  0  0  0  0  0
  153.2958  136.1796  160.3861 O   0  0  0  0  0  0  0  0  0  0  0  0
  153.1062  138.2410  159.4630 N   0  0  0  0  0  0  0  0  0  0  0  0
  151.6490  138.3193  159.4341 C   0  0  0  0  0  0  0  0  0  0  0  0
  151.1293  139.4020  158.4689 C   0  0  0  0  0  0  0  0  0  0  0  0
  151.3106  140.8042  158.9772 C   0  0  0  0  0  0  0  0  0  0  0  0
  152.0882  141.0638  160.0295 N   0  0  0  0  0  0  0  0  0  0  0  0
  151.9698  142.4322  160.1684 C   0  0  0  0  0  0  0  0  0  0  0  0
  152.5495  143.3136  161.1089 C   0  0  0  0  0  0  0  0  0  0  0  0
  152.2718  144.6954  161.0580 C   0  0  0  0  0  0  0  0  0  0  0  0
  151.4136  145.2147  160.0673 C   0  0  0  0  0  0  0  0  0  0  0  0
  150.8277  144.3539  159.1194 C   0  0  0  0  0  0  0  0  0  0  0  0
  151.1082  142.9751  159.1744 C   0  0  0  0  0  0  0  0  0  0  0  0
  150.7004  141.8807  158.4171 N   0  0  0  0  0  0  0  0  0  0  0  0
  149.7885  141.9236  157.2824 C   0  0  0  0  0  0  0  0  0  0  0  0
  150.5277  141.7680  155.9460 C   0  0  0  0  0  0  0  0  0  0  0  0
  150.1971  140.5071  155.3799 O   0  0  0  0  0  0  0  0  0  0  0  0
  148.9564  140.3468  154.8013 C   0  0  0  0  0  0  0  0  0  0  0  0
  148.0678  141.4195  154.5359 C   0  0  0  0  0  0  0  0  0  0  0  0
  146.8128  141.1782  153.9452 C   0  0  0  0  0  0  0  0  0  0  0  0
  146.4295  139.8664  153.6135 C   0  0  0  0  0  0  0  0  0  0  0  0
  147.3034  138.7949  153.8721 C   0  0  0  0  0  0  0  0  0  0  0  0
  148.5624  139.0312  154.4632 C   0  0  0  0  0  0  0  0  0  0  0  0
  149.4980  137.8663  154.7295 C   0  0  0  0  0  0  0  0  0  0  0  0
  155.6741  138.1471  160.4758 H   0  0  0  0  0  0  0  0  0  0  0  0
  155.6430  137.5097  158.8243 H   0  0  0  0  0  0  0  0  0  0  0  0
  155.8098  136.4071  160.1951 H   0  0  0  0  0  0  0  0  0  0  0  0
  153.6135  139.0349  159.0994 H   0  0  0  0  0  0  0  0  0  0  0  0
  151.2214  137.3489  159.1772 H   0  0  0  0  0  0  0  0  0  0  0  0
  151.3109  138.5415  160.4464 H   0  0  0  0  0  0  0  0  0  0  0  0
  151.6006  139.2863  157.4941 H   0  0  0  0  0  0  0  0  0  0  0  0
  150.0647  139.2421  158.2943 H   0  0  0  0  0  0  0  0  0  0  0  0
  153.2067  142.9253  161.8727 H   0  0  0  0  0  0  0  0  0  0  0  0
  152.7182  145.3599  161.7830 H   0  0  0  0  0  0  0  0  0  0  0  0
  151.2039  146.2738  160.0362 H   0  0  0  0  0  0  0  0  0  0  0  0
  150.1648  144.7483  158.3637 H   0  0  0  0  0  0  0  0  0  0  0  0
  149.0581  141.1220  157.3959 H   0  0  0  0  0  0  0  0  0  0  0  0
  149.2200  142.8514  157.3012 H   0  0  0  0  0  0  0  0  0  0  0  0
  150.2380  142.5750  155.2719 H   0  0  0  0  0  0  0  0  0  0  0  0
  151.6041  141.8348  156.1110 H   0  0  0  0  0  0  0  0  0  0  0  0
  148.3246  142.4389  154.7798 H   0  0  0  0  0  0  0  0  0  0  0  0
  146.1428  142.0020  153.7475 H   0  0  0  0  0  0  0  0  0  0  0  0
  145.4662  139.6824  153.1610 H   0  0  0  0  0  0  0  0  0  0  0  0
  147.0032  137.7899  153.6134 H   0  0  0  0  0  0  0  0  0  0  0  0
  149.0672  136.9223  154.3946 H   0  0  0  0  0  0  0  0  0  0  0  0
  149.7074  137.7849  155.7963 H   0  0  0  0  0  0  0  0  0  0  0  0
  150.4430  138.0116  154.2048 H   0  0  0  0  0  0  0  0  0  0  0  0
  1  2  1  0  0  0  0
  1 26  1  0  0  0  0
  1 27  1  0  0  0  0
  1 28  1  0  0  0  0
  2  3  2  0  0  0  0
  2  4  1  0  0  0  0
  4  5  1  0  0  0  0
  4 29  1  0  0  0  0
  5  6  1  0  0  0  0
  5 30  1  0  0  0  0
  5 31  1  0  0  0  0
  6  7  1  0  0  0  0
  6 32  1  0  0  0  0
  6 33  1  0  0  0  0
  7 15  1  0  0  0  0
  7  8  2  0  0  0  0
  8  9  1  0  0  0  0
  9 14  2  0  0  0  0
  9 10  1  0  0  0  0
 10 11  2  0  0  0  0
 10 34  1  0  0  0  0
 11 12  1  0  0  0  0
 11 35  1  0  0  0  0
 12 13  2  0  0  0  0
 12 36  1  0  0  0  0
 13 14  1  0  0  0  0
 13 37  1  0  0  0  0
 14 15  1  0  0  0  0
 15 16  1  0  0  0  0
 16 17  1  0  0  0  0
 16 38  1  0  0  0  0
 16 39  1  0  0  0  0
 17 18  1  0  0  0  0
 17 40  1  0  0  0  0
 17 41  1  0  0  0  0
 18 19  1  0  0  0  0
 19 24  1  0  0  0  0
 19 20  2  0  0  0  0
 20 21  1  0  0  0  0
 20 42  1  0  0  0  0
 21 22  2  0  0  0  0
 21 43  1  0  0  0  0
 22 23  1  0  0  0  0
 22 44  1  0  0  0  0
 23 24  2  0  0  0  0
 23 45  1  0  0  0  0
 24 25  1  0  0  0  0
 25 46  1  0  0  0  0
 25 47  1  0  0  0  0
 25 48  1  0  0  0  0
M  END
> <s_m_source_file>
AV-unprocessed.smi

> <i_m_source_file_index>
502

> <i_lp_mmshare_version>
43012

> <i_f3d_flags>
0

> <s_epik_input>
W0NIM11DKD1PKVtOSF1bQ0gyXVtDSDJdYyhuMSluKGMoYzEyKVtjSF1bY0hdW2NIXVtjSF0yKVtDSDJdW0NIMl1PYzNbY0hdW2NIXVtjSF1bY0hdYzNbQ0gzXQ==

> <s_epik_cmdline>
J2VwaWtfcHl0aG9uJywgJy1waCcsICc3LjAnLCAnLXRuJywgJzgnLCAnLW1hJywgJzIwMCcsICctbWV0YWxfYmluZGluZycsICctaW1hZScsICc8aW5maWxlLm1hZT4nLCAnLW9tYWUnLCAnPG91dGZpbGUubWFlPic=

> <r_lp_tautomer_probability>
1

> <r_epik_Ionization_Penalty>
0.0991824

> <r_epik_Ionization_Penalty_Charging>
0

> <r_epik_Ionization_Penalty_Neutral>
0.0991824

> <r_epik_State_Penalty>
0.0892428

> <r_epik_Charging_Adjusted_Penalty>
0.0892428

> <i_epik_Tot_Q>
0

> <i_epik_Tot_abs_Q>
0

> <r_epik_Metal_State_Penalty>
0.076345

> <b_epik_Metal_Only>
0

> <s_lp_Force_Field>
OPLS_2005

> <r_lp_Energy>
12.9543

> <b_lp_Chiralities_Consistent>
1

> <s_lp_Variant>
AV-unprocessed.smi:502-1

> <Gold.Version>
5.8.1

> <Gold.Id.Protein>
6NUR|6NUR_protein|mol2

> <Gold.PLP.Fitness>
50.5230

> <Gold.PLP.PLP>
-47.1185

> <Gold.PLP.part.hbond>
-2.0000

> <Gold.PLP.part.metal>
0.0000

> <Gold.PLP.part.buried>
-5.1063

> <Gold.PLP.part.nonpolar>
-40.7093

> <Gold.PLP.part.repulsive>
0.1515

> <Gold.PLP.ligand.clash>
0.0000

> <Gold.PLP.ligand.torsion>
1.0361

> <Gold.PLP.Chemscore.Hbond>
1.7920

> <Gold.PLP.Chemscore.CHOScore>
0.0000

> <Gold.PLP.Chemscore.Metal>
0.0000

> <Gold.Chemscore.Hbonds>
donor molecule, donor type, donor heavy atom, donor atom, acceptor molecule, acceptor atom, score
      P1  H  6896  6909       L1     3  1.00
      P1  H  7989  7998       L1    18  0.06

> <Gold.PLP.Chemscore.Internal.Correction>
0.1005

> <Gold.Rescore>
     Score         DG    S(hbond)    S(metal)    S(lipo)     H(rot)  DE(clash)    DE(int)     intcor
     18.46     -19.95       1.23        0.00     134.67       2.11       0.43       1.07       ----

> <Gold.Chemscore.Fitness>
18.4573

> <Gold.Chemscore.DG>
-19.9491

> <Gold.Chemscore.ZeroCoef>
-5.4800

> <Gold.Chemscore.Hbond>
1.2301

> <Gold.Chemscore.Metal>
0.0000

> <Gold.Chemscore.Lipo>
134.6707

> <Gold.Chemscore.Internal_Hbond>
0.0000

> <Gold.Chemscore.DEClash>
0.4262

> <Gold.Chemscore.DEInternal>
1.0656

> <Gold.Chemscore.Rot>
2.1078

> <Gold.Chemscore.Internal.Correction>
   9.000000E+99

> <Gold.Chemscore.Hbonds>
donor molecule, donor type, donor heavy atom, donor atom, acceptor molecule, acceptor atom, score
      P1  H  6896  6909       L1     3  1.00

> <Gold.Chemscore.Hbond.Weighted>
-4.1086

> <Gold.Chemscore.Metal.Weighted>
-0.0000

> <Gold.Chemscore.Lipo.Weighted>
-15.7565

> <Gold.Chemscore.Internal_Hbond.Weighted>
0.0000

> <Gold.Chemscore.DEClash.Weighted>
0.4262

> <Gold.Chemscore.DEInternal.Weighted>
1.0656

> <Gold.Chemscore.Rot.Weighted>
5.3961

> <Gold.Chemscore.Internal.Correction.Weighted>
   9.000000E+99

> <Gold.Protein.RotatedTorsions>
[ 6907 6896 6895 6894 ] final  169.80 input  -60.11 | X-H torsion
[ 7974 7965 7964 7962 ] final  -93.91 input  175.53 | X-H torsion
[ 8008 7997 7996 7995 ] final    0.09 input   59.86 | X-H torsion
[ 10167 10162 10161 10158 ] final  -43.69 input  -65.29 | X-H torsion
[ 10718 10713 10712 10709 ] final -151.17 input   66.30 | X-H torsion
[ 10763 10752 10751 10750 ] final  -33.02 input  -60.55 | X-H torsion
[ 11005 11000 10999 10996 ] final    4.35 input  -57.11 | X-H torsion

> <Gold.Protein.ActiveResidues>
 VAL166  LYS551  ARG553  GLY616  TRP617  ASP618  TYR619  PRO620  LYS621  CYS622 
 ASP623  PHE694  ASN695  SER759  ASP760  ASP761  ALA762  ILE779  LEU786  VAL792 
 PHE793  MET794  SER795  GLU796  ALA797  LYS798  CYS799  TRP800  GLU811  SER814 

> <Gold.Protein.RotatedAtoms>
  151.8261  133.3401  159.3598 H   0  0  0  0  0  0  0  0  0  0  0  0  # atno 6907 bound_to 6896
  150.7279  134.5527  159.5812 H   0  0  0  0  0  0  0  0  0  0  0  0  # atno 6908 bound_to 6896
  152.2970  134.7656  160.0417 H   0  0  0  0  0  0  0  0  0  0  0  0  # atno 6909 bound_to 6896
  145.3802  140.9516  143.2398 H   0  0  0  0  0  0  0  0  0  0  0  0  # atno 7974 bound_to 7965
  154.6641  140.2597  155.7077 H   0  0  0  0  0  0  0  0  0  0  0  0  # atno 8008 bound_to 7997
  156.2631  140.2842  156.1046 H   0  0  0  0  0  0  0  0  0  0  0  0  # atno 8009 bound_to 7997
  155.1265  140.0378  157.2754 H   0  0  0  0  0  0  0  0  0  0  0  0  # atno 8010 bound_to 7997
  140.6925  143.2970  151.3387 H   0  0  0  0  0  0  0  0  0  0  0  0  # atno 10167 bound_to 10162
  156.4557  130.8189  151.2420 H   0  0  0  0  0  0  0  0  0  0  0  0  # atno 10718 bound_to 10713
  153.8233  135.6872  153.4824 H   0  0  0  0  0  0  0  0  0  0  0  0  # atno 10763 bound_to 10752
  153.1555  135.4600  154.9697 H   0  0  0  0  0  0  0  0  0  0  0  0  # atno 10764 bound_to 10752
  154.7918  135.3304  154.7704 H   0  0  0  0  0  0  0  0  0  0  0  0  # atno 10765 bound_to 10752
  140.5830  133.9995  155.8055 H   0  0  0  0  0  0  0  0  0  0  0  0  # atno 11005 bound_to 11000
  144.8513  139.5318  143.6855 LP  0  0  0  0  0  0  0  0  0  0  0  0  # atno 17320 bound_to 7965
  146.2845  139.6967  142.9205 LP  0  0  0  0  0  0  0  0  0  0  0  0  # atno 17321 bound_to 7965
  139.6342  144.0662  152.2502 LP  0  0  0  0  0  0  0  0  0  0  0  0  # atno 17342 bound_to 10162
  140.0146  144.6198  150.7618 LP  0  0  0  0  0  0  0  0  0  0  0  0  # atno 17343 bound_to 10162
  157.7500  131.0123  150.3381 LP  0  0  0  0  0  0  0  0  0  0  0  0  # atno 17370 bound_to 10713
  156.3769  130.3873  149.7132 LP  0  0  0  0  0  0  0  0  0  0  0  0  # atno 17371 bound_to 10713
  141.0984  133.9807  157.3120 LP  0  0  0  0  0  0  0  0  0  0  0  0  # atno 17394 bound_to 11000
  139.9309  135.0200  156.8395 LP  0  0  0  0  0  0  0  0  0  0  0  0  # atno 17395 bound_to 11000

$$$$
