AV-unprocessed.smi:697|AV-procd|sdf|3396|dock7
  -GOLD-   22720 0373D 1   1.00000     0.00000
 Structure written by MMmdl.
 43 44  0  0  0  0  0  0  0  0  2 V2000
  156.8107  135.4887  164.9128 C   0  0  0  0  0  0  0  0  0  0  0  0
  157.1013  135.8079  163.5582 O   0  0  0  0  0  0  0  0  0  0  0  0
  156.0151  135.7049  162.6360 C   0  0  2  0  0  0  0  0  0  0  0  0
  155.4976  134.2587  162.5922 C   0  0  0  0  0  0  0  0  0  0  0  0
  156.3231  136.4008  161.2978 C   0  0  0  0  0  0  0  0  0  0  0  0
  154.9102  136.9749  161.3708 C   0  0  2  0  0  0  0  0  0  0  0  0
  154.8304  138.3387  160.8590 N   0  0  0  0  0  0  0  0  0  0  0  0
  153.7265  138.8881  160.3355 C   0  0  0  0  0  0  0  0  0  0  0  0
  152.6668  138.2748  160.2097 O   0  0  0  0  0  0  0  0  0  0  0  0
  153.9526  140.1660  159.9807 N   0  0  0  0  0  0  0  0  0  0  0  0
  153.0718  141.1197  159.4412 C   0  0  0  0  0  0  0  0  0  0  0  0
  152.7851  142.3270  160.0033 C   0  0  0  0  0  0  0  0  0  0  0  0
  151.8721  143.2792  159.3841 C   0  0  0  0  0  0  0  0  0  0  0  0
  151.4589  144.5903  160.0290 C   0  0  0  0  0  0  0  0  0  0  0  0
  150.1317  144.6935  160.1008 F   0  0  0  0  0  0  0  0  0  0  0  0
  151.9563  144.6939  161.2615 F   0  0  0  0  0  0  0  0  0  0  0  0
  151.9168  145.6133  159.3092 F   0  0  0  0  0  0  0  0  0  0  0  0
  151.3449  142.8053  158.1985 C   0  0  0  0  0  0  0  0  0  0  0  0
  151.5936  141.6396  157.5629 N   0  5  0  0  0  0  0  0  0  0  0  0
  152.4519  140.7580  158.1492 C   0  0  0  0  0  0  0  0  0  0  0  0
  152.7193  139.6758  157.6257 O   0  0  0  0  0  0  0  0  0  0  0  0
  155.0018  136.8625  162.9145 C   0  0  0  0  0  0  0  0  0  0  0  0
  153.7024  136.4854  163.6336 C   0  0  0  0  0  0  0  0  0  0  0  0
  155.5600  138.0863  163.6694 C   0  0  0  0  0  0  0  0  0  0  0  0
  157.7364  135.5004  165.4878 H   0  0  0  0  0  0  0  0  0  0  0  0
  156.3728  134.4956  165.0144 H   0  0  0  0  0  0  0  0  0  0  0  0
  156.1393  136.2170  165.3666 H   0  0  0  0  0  0  0  0  0  0  0  0
  154.5810  134.1727  162.0092 H   0  0  0  0  0  0  0  0  0  0  0  0
  155.2842  133.8836  163.5933 H   0  0  0  0  0  0  0  0  0  0  0  0
  156.2178  133.5834  162.1311 H   0  0  0  0  0  0  0  0  0  0  0  0
  157.1084  137.1563  161.3662 H   0  0  0  0  0  0  0  0  0  0  0  0
  156.4924  135.7248  160.4593 H   0  0  0  0  0  0  0  0  0  0  0  0
  154.1741  136.2957  160.9349 H   0  0  0  0  0  0  0  0  0  0  0  0
  155.6638  138.9045  160.9237 H   0  0  0  0  0  0  0  0  0  0  0  0
  154.8965  140.5025  160.1036 H   0  0  0  0  0  0  0  0  0  0  0  0
  153.2423  142.6335  160.9289 H   0  0  0  0  0  0  0  0  0  0  0  0
  150.6099  143.4606  157.6843 H   0  0  0  0  0  0  0  0  0  0  0  0
  153.0339  137.3418  163.7299 H   0  0  0  0  0  0  0  0  0  0  0  0
  153.8977  136.1056  164.6367 H   0  0  0  0  0  0  0  0  0  0  0  0
  153.1468  135.7171  163.0966 H   0  0  0  0  0  0  0  0  0  0  0  0
  154.8597  138.9221  163.6556 H   0  0  0  0  0  0  0  0  0  0  0  0
  156.4945  138.4471  163.2401 H   0  0  0  0  0  0  0  0  0  0  0  0
  155.7590  137.8517  164.7155 H   0  0  0  0  0  0  0  0  0  0  0  0
  1  2  1  0  0  0  0
  1 25  1  0  0  0  0
  1 26  1  0  0  0  0
  1 27  1  0  0  0  0
  2  3  1  0  0  0  0
  3 22  1  0  0  0  0
  3  4  1  0  0  0  0
  3  5  1  0  0  0  0
  4 28  1  0  0  0  0
  4 29  1  0  0  0  0
  4 30  1  0  0  0  0
  5  6  1  0  0  0  0
  5 31  1  0  0  0  0
  5 32  1  0  0  0  0
  6  7  1  0  0  0  0
  6 22  1  0  0  0  0
  6 33  1  0  0  0  0
  7  8  1  0  0  0  0
  7 34  1  0  0  0  0
  8  9  2  0  0  0  0
  8 10  1  0  0  0  0
 10 11  1  0  0  0  0
 10 35  1  0  0  0  0
 11 20  1  0  0  0  0
 11 12  2  0  0  0  0
 12 13  1  0  0  0  0
 12 36  1  0  0  0  0
 13 14  1  0  0  0  0
 13 18  2  0  0  0  0
 14 15  1  0  0  0  0
 14 16  1  0  0  0  0
 14 17  1  0  0  0  0
 18 19  1  0  0  0  0
 18 37  1  0  0  0  0
 19 20  1  0  0  0  0
 20 21  2  0  0  0  0
 22 23  1  0  0  0  0
 22 24  1  0  0  0  0
 23 38  1  0  0  0  0
 23 39  1  0  0  0  0
 23 40  1  0  0  0  0
 24 41  1  0  0  0  0
 24 42  1  0  0  0  0
 24 43  1  0  0  0  0
M  CHG  1  19  -1
M  END
> <s_m_source_file>
AV-unprocessed.smi

> <i_m_source_file_index>
697

> <i_lp_mmshare_version>
43012

> <i_f3d_flags>
0

> <s_epik_input>
W0NIM11PW0NAQF0xKFtDSDNdKVtDSDJdW0NASF0oQzEoW0NIM10pW0NIM10pW05IXUMoPU8pW05IXWMyW2NIXWMoQyhGKShGKUYpW2NIXVtuSF1jMj1P

> <s_epik_cmdline>
J2VwaWtfcHl0aG9uJywgJy1waCcsICc3LjAnLCAnLXRuJywgJzgnLCAnLW1hJywgJzIwMCcsICctbWV0YWxfYmluZGluZycsICctaW1hZScsICc8aW5maWxlLm1hZT4nLCAnLW9tYWUnLCAnPG91dGZpbGUubWFlPic=

> <r_lp_tautomer_probability>
1

> <r_epik_Ionization_Penalty>
3.20094

> <r_epik_Ionization_Penalty_Charging>
0.180017

> <r_epik_Ionization_Penalty_Neutral>
3.02092

> <r_epik_State_Penalty>
3.01726

> <r_epik_Charging_Adjusted_Penalty>
3.19727

> <i_epik_Tot_Q>
-1

> <i_epik_Tot_abs_Q>
1

> <r_epik_Metal_State_Penalty>
0.455096

> <b_epik_Metal_Only>
1

> <s_lp_Force_Field>
OPLS_2005

> <r_lp_Energy>
36.1222

> <b_lp_Chiralities_Consistent>
1

> <s_lp_Variant>
AV-unprocessed.smi:697-8

> <Gold.Version>
5.8.1

> <Gold.Id.Protein>
6NUR|6NUR_protein|mol2

> <Gold.PLP.Fitness>
39.8516

> <Gold.PLP.PLP>
-38.5977

> <Gold.PLP.part.hbond>
-1.0000

> <Gold.PLP.part.metal>
0.0000

> <Gold.PLP.part.buried>
-1.5610

> <Gold.PLP.part.nonpolar>
-34.9953

> <Gold.PLP.part.repulsive>
0.0911

> <Gold.PLP.ligand.clash>
0.0000

> <Gold.PLP.ligand.torsion>
1.0824

> <Gold.PLP.Chemscore.Hbond>
1.0000

> <Gold.PLP.Chemscore.CHOScore>
0.0000

> <Gold.PLP.Chemscore.Metal>
0.0000

> <Gold.Chemscore.Hbonds>
donor molecule, donor type, donor heavy atom, donor atom, acceptor molecule, acceptor atom, score
      P1  H  7997  8010       L1    21  1.00

> <Gold.PLP.Chemscore.Internal.Correction>
0.4188

> <Gold.Rescore>
     Score         DG    S(hbond)    S(metal)    S(lipo)     H(rot)  DE(clash)    DE(int)     intcor
     11.90     -15.67       0.87        0.00      90.74       1.30       0.81       2.96       ----

> <Gold.Chemscore.Fitness>
11.8977

> <Gold.Chemscore.DG>
-15.6658

> <Gold.Chemscore.ZeroCoef>
-5.4800

> <Gold.Chemscore.Hbond>
0.8654

> <Gold.Chemscore.Metal>
0.0000

> <Gold.Chemscore.Lipo>
90.7388

> <Gold.Chemscore.Internal_Hbond>
0.0000

> <Gold.Chemscore.DEClash>
0.8084

> <Gold.Chemscore.DEInternal>
2.9597

> <Gold.Chemscore.Rot>
1.2973

> <Gold.Chemscore.Internal.Correction>
   9.000000E+99

> <Gold.Chemscore.Hbonds>
donor molecule, donor type, donor heavy atom, donor atom, acceptor molecule, acceptor atom, score
      P1  H  7997  8010       L1    21  0.24

> <Gold.Chemscore.Hbond.Weighted>
-2.8903

> <Gold.Chemscore.Metal.Weighted>
-0.0000

> <Gold.Chemscore.Lipo.Weighted>
-10.6164

> <Gold.Chemscore.Internal_Hbond.Weighted>
0.0000

> <Gold.Chemscore.DEClash.Weighted>
0.8084

> <Gold.Chemscore.DEInternal.Weighted>
2.9597

> <Gold.Chemscore.Rot.Weighted>
3.3210

> <Gold.Chemscore.Internal.Correction.Weighted>
   9.000000E+99

> <Gold.Protein.RotatedTorsions>
[ 6907 6896 6895 6894 ] final  129.81 input  -60.11 | X-H torsion
[ 7974 7965 7964 7962 ] final  152.69 input  175.53 | X-H torsion
[ 8008 7997 7996 7995 ] final   36.04 input   59.86 | X-H torsion
[ 10167 10162 10161 10158 ] final -148.72 input  -65.29 | X-H torsion
[ 10718 10713 10712 10709 ] final   35.17 input   66.30 | X-H torsion
[ 10763 10752 10751 10750 ] final  106.47 input  -60.55 | X-H torsion
[ 11005 11000 10999 10996 ] final  173.77 input  -57.11 | X-H torsion

> <Gold.Protein.ActiveResidues>
 VAL166  LYS551  ARG553  GLY616  TRP617  ASP618  TYR619  PRO620  LYS621  CYS622 
 ASP623  PHE694  ASN695  SER759  ASP760  ASP761  ALA762  ILE779  LEU786  VAL792 
 PHE793  MET794  SER795  GLU796  ALA797  LYS798  CYS799  TRP800  GLU811  SER814 

> <Gold.Protein.RotatedAtoms>
  152.3588  133.6270  159.5998 H   0  0  0  0  0  0  0  0  0  0  0  0  # atno 6907 bound_to 6896
  150.7586  133.9457  159.3479 H   0  0  0  0  0  0  0  0  0  0  0  0  # atno 6908 bound_to 6896
  151.7299  135.0878  160.0349 H   0  0  0  0  0  0  0  0  0  0  0  0  # atno 6909 bound_to 6896
  144.8205  139.6702  143.6102 H   0  0  0  0  0  0  0  0  0  0  0  0  # atno 7974 bound_to 7965
  155.1809  140.3300  155.4375 H   0  0  0  0  0  0  0  0  0  0  0  0  # atno 8008 bound_to 7997
  156.2477  140.1927  156.6858 H   0  0  0  0  0  0  0  0  0  0  0  0  # atno 8009 bound_to 7997
  154.6272  140.0587  156.9673 H   0  0  0  0  0  0  0  0  0  0  0  0  # atno 8010 bound_to 7997
  139.7506  143.8524  152.2585 H   0  0  0  0  0  0  0  0  0  0  0  0  # atno 10167 bound_to 10162
  157.3194  130.7440  149.6775 H   0  0  0  0  0  0  0  0  0  0  0  0  # atno 10718 bound_to 10713
  153.3934  135.3876  155.1939 H   0  0  0  0  0  0  0  0  0  0  0  0  # atno 10763 bound_to 10752
  154.8722  135.3754  154.4708 H   0  0  0  0  0  0  0  0  0  0  0  0  # atno 10764 bound_to 10752
  153.5198  135.7087  153.5799 H   0  0  0  0  0  0  0  0  0  0  0  0  # atno 10765 bound_to 10752
  140.3441  134.7251  157.4223 H   0  0  0  0  0  0  0  0  0  0  0  0  # atno 11005 bound_to 11000
  146.2510  139.6200  142.9427 LP  0  0  0  0  0  0  0  0  0  0  0  0  # atno 17320 bound_to 7965
  145.5116  141.0435  143.2484 LP  0  0  0  0  0  0  0  0  0  0  0  0  # atno 17321 bound_to 7965
  139.8501  144.7168  150.9225 LP  0  0  0  0  0  0  0  0  0  0  0  0  # atno 17342 bound_to 10162
  140.7797  143.3907  151.1315 LP  0  0  0  0  0  0  0  0  0  0  0  0  # atno 17343 bound_to 10162
  155.9684  130.4227  150.4530 LP  0  0  0  0  0  0  0  0  0  0  0  0  # atno 17370 bound_to 10713
  157.2543  131.0553  151.2360 LP  0  0  0  0  0  0  0  0  0  0  0  0  # atno 17371 bound_to 10713
  140.0756  134.5801  155.8594 LP  0  0  0  0  0  0  0  0  0  0  0  0  # atno 17394 bound_to 11000
  141.2030  133.6629  156.6040 LP  0  0  0  0  0  0  0  0  0  0  0  0  # atno 17395 bound_to 11000

$$$$
