AV-unprocessed.smi:2644|AV-procd|sdf|10277|dock10
  -GOLD-   2272014293D 1   1.00000     0.00000
 Structure written by MMmdl.
 42 44  0  0  0  0  0  0  0  0  1 V2000
  149.1272  140.8191  154.4063 C   0  0  0  0  0  0  0  0  0  0  0  0
  150.4907  140.7436  154.7963 O   0  0  0  0  0  0  0  0  0  0  0  0
  150.9683  139.5319  155.2474 C   0  0  0  0  0  0  0  0  0  0  0  0
  152.1412  139.5546  156.0287 C   0  0  0  0  0  0  0  0  0  0  0  0
  152.7077  138.3599  156.5108 C   0  0  0  0  0  0  0  0  0  0  0  0
  152.1049  137.1242  156.2134 C   0  0  0  0  0  0  0  0  0  0  0  0
  150.9262  137.0804  155.4391 C   0  0  0  0  0  0  0  0  0  0  0  0
  150.2972  135.7459  155.0551 C   0  0  2  0  0  0  0  0  0  0  0  0
  149.0057  135.8954  154.5010 O   0  0  0  0  0  0  0  0  0  0  0  0
  150.2102  134.7663  156.2497 C   0  0  0  0  0  0  0  0  0  0  0  0
  150.1355  133.3628  155.8211 N   0  0  0  0  0  0  0  0  0  0  0  0
  149.1973  133.1222  154.8325 N   0  0  0  0  0  0  0  0  0  0  0  0
  148.9476  131.9218  154.4232 C   0  0  0  0  0  0  0  0  0  0  0  0
  147.8977  131.7826  153.4303 C   0  0  0  0  0  0  0  0  0  0  0  0
  147.2328  130.5948  153.2538 C   0  0  0  0  0  0  0  0  0  0  0  0
  146.2351  130.6929  152.2380 C   0  0  0  0  0  0  0  0  0  0  0  0
  146.1544  131.9403  151.6680 C   0  0  0  0  0  0  0  0  0  0  0  0
  145.2304  132.3903  150.5877 C   0  0  0  0  0  0  0  0  0  0  0  0
  147.3134  133.0407  152.3719 S   0  0  0  0  0  0  0  0  0  0  0  0
  149.7054  130.8079  154.9751 C   0  0  0  0  0  0  0  0  0  0  0  0
  150.6295  131.0507  155.9296 C   0  0  0  0  0  0  0  0  0  0  0  0
  150.8882  132.3999  156.4279 C   0  0  0  0  0  0  0  0  0  0  0  0
  151.6956  132.6457  157.3236 O   0  0  0  0  0  0  0  0  0  0  0  0
  150.3595  138.2835  154.9654 C   0  0  0  0  0  0  0  0  0  0  0  0
  148.9128  141.8225  154.0386 H   0  0  0  0  0  0  0  0  0  0  0  0
  148.4607  140.6275  155.2483 H   0  0  0  0  0  0  0  0  0  0  0  0
  148.9037  140.1183  153.6004 H   0  0  0  0  0  0  0  0  0  0  0  0
  152.6168  140.4978  156.2539 H   0  0  0  0  0  0  0  0  0  0  0  0
  153.6117  138.3914  157.1007 H   0  0  0  0  0  0  0  0  0  0  0  0
  152.5582  136.2108  156.5696 H   0  0  0  0  0  0  0  0  0  0  0  0
  150.9121  135.2935  154.2761 H   0  0  0  0  0  0  0  0  0  0  0  0
  149.0672  135.7783  153.5652 H   0  0  0  0  0  0  0  0  0  0  0  0
  151.0851  134.8978  156.8897 H   0  0  0  0  0  0  0  0  0  0  0  0
  149.3547  135.0152  156.8805 H   0  0  0  0  0  0  0  0  0  0  0  0
  147.4020  129.6711  153.7857 H   0  0  0  0  0  0  0  0  0  0  0  0
  145.6153  129.8521  151.9633 H   0  0  0  0  0  0  0  0  0  0  0  0
  144.6437  131.5573  150.1998 H   0  0  0  0  0  0  0  0  0  0  0  0
  145.7877  132.8240  149.7573 H   0  0  0  0  0  0  0  0  0  0  0  0
  144.5381  133.1450  150.9613 H   0  0  0  0  0  0  0  0  0  0  0  0
  149.5407  129.7972  154.6370 H   0  0  0  0  0  0  0  0  0  0  0  0
  151.1916  130.2249  156.3407 H   0  0  0  0  0  0  0  0  0  0  0  0
  149.4668  138.2226  154.3616 H   0  0  0  0  0  0  0  0  0  0  0  0
  1  2  1  0  0  0  0
  1 25  1  0  0  0  0
  1 26  1  0  0  0  0
  1 27  1  0  0  0  0
  2  3  1  0  0  0  0
  3 24  1  0  0  0  0
  3  4  2  0  0  0  0
  4  5  1  0  0  0  0
  4 28  1  0  0  0  0
  5  6  2  0  0  0  0
  5 29  1  0  0  0  0
  6  7  1  0  0  0  0
  6 30  1  0  0  0  0
  7  8  1  0  0  0  0
  7 24  2  0  0  0  0
  8  9  1  0  0  0  0
  8 10  1  0  0  0  0
  8 31  1  0  0  0  0
  9 32  1  0  0  0  0
 10 11  1  0  0  0  0
 10 33  1  0  0  0  0
 10 34  1  0  0  0  0
 11 22  1  0  0  0  0
 11 12  1  0  0  0  0
 12 13  2  0  0  0  0
 13 14  1  0  0  0  0
 13 20  1  0  0  0  0
 14 19  1  0  0  0  0
 14 15  2  0  0  0  0
 15 16  1  0  0  0  0
 15 35  1  0  0  0  0
 16 17  2  0  0  0  0
 16 36  1  0  0  0  0
 17 18  1  0  0  0  0
 17 19  1  0  0  0  0
 18 37  1  0  0  0  0
 18 38  1  0  0  0  0
 18 39  1  0  0  0  0
 20 21  2  0  0  0  0
 20 40  1  0  0  0  0
 21 22  1  0  0  0  0
 21 41  1  0  0  0  0
 22 23  2  0  0  0  0
 24 42  1  0  0  0  0
M  END
> <s_m_source_file>
AV-unprocessed.smi

> <i_m_source_file_index>
2644

> <i_lp_mmshare_version>
43012

> <i_f3d_flags>
0

> <s_epik_input>
W0NIM11PYzFbY0hdW2NIXVtjSF1jKFtjSF0xKVtDQEhdKFtPSF0pW0NIMl1uMm5jKFtjSF1bY0hdYzI9TyktYzNbY0hdW2NIXWMoczMpW0NIM10=

> <s_epik_cmdline>
J2VwaWtfcHl0aG9uJywgJy1waCcsICc3LjAnLCAnLXRuJywgJzgnLCAnLW1hJywgJzIwMCcsICctbWV0YWxfYmluZGluZycsICctaW1hZScsICc8aW5maWxlLm1hZT4nLCAnLW9tYWUnLCAnPG91dGZpbGUubWFlPic=

> <r_lp_tautomer_probability>
1

> <r_epik_Ionization_Penalty>
1.30631e-07

> <r_epik_Ionization_Penalty_Charging>
5.89185e-08

> <r_epik_Ionization_Penalty_Neutral>
7.1713e-08

> <r_epik_State_Penalty>
-0

> <r_epik_Charging_Adjusted_Penalty>
5.89185e-08

> <i_epik_Tot_Q>
0

> <i_epik_Tot_abs_Q>
0

> <r_epik_Metal_State_Penalty>
-0

> <b_epik_Metal_Only>
0

> <s_lp_Force_Field>
OPLS_2005

> <r_lp_Energy>
28.4714

> <b_lp_Chiralities_Consistent>
1

> <s_lp_Variant>
AV-unprocessed.smi:2644-1

> <Gold.Version>
5.8.1

> <Gold.Id.Protein>
6NUR|6NUR_protein|mol2

> <Gold.PLP.Fitness>
47.7772

> <Gold.PLP.PLP>
-41.8391

> <Gold.PLP.part.hbond>
-3.0000

> <Gold.PLP.part.metal>
0.0000

> <Gold.PLP.part.buried>
-3.7447

> <Gold.PLP.part.nonpolar>
-36.6348

> <Gold.PLP.part.repulsive>
0.1468

> <Gold.PLP.ligand.clash>
0.0000

> <Gold.PLP.ligand.torsion>
1.1862

> <Gold.PLP.Chemscore.Hbond>
2.7480

> <Gold.PLP.Chemscore.CHOScore>
0.0000

> <Gold.PLP.Chemscore.Metal>
0.0000

> <Gold.Chemscore.Hbonds>
donor molecule, donor type, donor heavy atom, donor atom, acceptor molecule, acceptor atom, score
      L1  H     9    32       P1  7948  1.00
      P1  H  6896  6908       L1    23  0.98
      P1  H  7989  7998       L1     2  0.69

> <Gold.PLP.Chemscore.Internal.Correction>
0.0664

> <Gold.Rescore>
     Score         DG    S(hbond)    S(metal)    S(lipo)     H(rot)  DE(clash)    DE(int)     intcor
     17.17     -19.90       1.94        0.00     111.14       1.98       0.08       2.65       ----

> <Gold.Chemscore.Fitness>
17.1681

> <Gold.Chemscore.DG>
-19.8991

> <Gold.Chemscore.ZeroCoef>
-5.4800

> <Gold.Chemscore.Hbond>
1.9397

> <Gold.Chemscore.Metal>
0.0000

> <Gold.Chemscore.Lipo>
111.1402

> <Gold.Chemscore.Internal_Hbond>
0.0000

> <Gold.Chemscore.DEClash>
0.0765

> <Gold.Chemscore.DEInternal>
2.6545

> <Gold.Chemscore.Rot>
1.9777

> <Gold.Chemscore.Internal.Correction>
   9.000000E+99

> <Gold.Chemscore.Hbonds>
donor molecule, donor type, donor heavy atom, donor atom, acceptor molecule, acceptor atom, score
      L1  H     9    32       P1  7948  0.85
      P1  H  6896  6908       L1    23  0.87
      P1  H  7989  7998       L1     2  0.09

> <Gold.Chemscore.Hbond.Weighted>
-6.4786

> <Gold.Chemscore.Metal.Weighted>
-0.0000

> <Gold.Chemscore.Lipo.Weighted>
-13.0034

> <Gold.Chemscore.Internal_Hbond.Weighted>
0.0000

> <Gold.Chemscore.DEClash.Weighted>
0.0765

> <Gold.Chemscore.DEInternal.Weighted>
2.6545

> <Gold.Chemscore.Rot.Weighted>
5.0629

> <Gold.Chemscore.Internal.Correction.Weighted>
   9.000000E+99

> <Gold.Protein.RotatedTorsions>
[ 6907 6896 6895 6894 ] final   62.28 input  -60.11 | X-H torsion
[ 7974 7965 7964 7962 ] final  -51.69 input  175.53 | X-H torsion
[ 8008 7997 7996 7995 ] final  -89.48 input   59.86 | X-H torsion
[ 10167 10162 10161 10158 ] final  -72.69 input  -65.29 | X-H torsion
[ 10718 10713 10712 10709 ] final   68.95 input   66.30 | X-H torsion
[ 10763 10752 10751 10750 ] final  -36.00 input  -60.55 | X-H torsion
[ 11005 11000 10999 10996 ] final  -41.93 input  -57.11 | X-H torsion

> <Gold.Protein.ActiveResidues>
 VAL166  LYS551  ARG553  GLY616  TRP617  ASP618  TYR619  PRO620  LYS621  CYS622 
 ASP623  PHE694  ASN695  SER759  ASP760  ASP761  ALA762  ILE779  LEU786  VAL792 
 PHE793  MET794  SER795  GLU796  ALA797  LYS798  CYS799  TRP800  GLU811  SER814 

> <Gold.Protein.RotatedAtoms>
  152.4159  134.6042  160.0008 H   0  0  0  0  0  0  0  0  0  0  0  0  # atno 6907 bound_to 6896
  151.6206  133.3334  159.3095 H   0  0  0  0  0  0  0  0  0  0  0  0  # atno 6908 bound_to 6896
  150.8048  134.7205  159.6700 H   0  0  0  0  0  0  0  0  0  0  0  0  # atno 6909 bound_to 6896
  145.9161  140.7873  142.9670 H   0  0  0  0  0  0  0  0  0  0  0  0  # atno 7974 bound_to 7965
  154.6871  140.0541  157.0325 H   0  0  0  0  0  0  0  0  0  0  0  0  # atno 8008 bound_to 7997
  155.0869  140.3215  155.4566 H   0  0  0  0  0  0  0  0  0  0  0  0  # atno 8009 bound_to 7997
  156.2715  140.2055  156.5997 H   0  0  0  0  0  0  0  0  0  0  0  0  # atno 8010 bound_to 7997
  140.5171  143.2336  151.7494 H   0  0  0  0  0  0  0  0  0  0  0  0  # atno 10167 bound_to 10162
  157.6319  130.9400  150.0447 H   0  0  0  0  0  0  0  0  0  0  0  0  # atno 10718 bound_to 10713
  153.8725  135.6829  153.4773 H   0  0  0  0  0  0  0  0  0  0  0  0  # atno 10763 bound_to 10752
  153.1279  135.4711  154.9299 H   0  0  0  0  0  0  0  0  0  0  0  0  # atno 10764 bound_to 10752
  154.7707  135.3238  154.8146 H   0  0  0  0  0  0  0  0  0  0  0  0  # atno 10765 bound_to 10752
  141.0280  133.6832  156.2525 H   0  0  0  0  0  0  0  0  0  0  0  0  # atno 11005 bound_to 11000
  144.6748  140.1902  143.7397 LP  0  0  0  0  0  0  0  0  0  0  0  0  # atno 17320 bound_to 7965
  145.8609  139.2222  143.1717 LP  0  0  0  0  0  0  0  0  0  0  0  0  # atno 17321 bound_to 7965
  139.4912  144.4308  151.9874 LP  0  0  0  0  0  0  0  0  0  0  0  0  # atno 17342 bound_to 10162
  140.3403  144.3212  150.5969 LP  0  0  0  0  0  0  0  0  0  0  0  0  # atno 17343 bound_to 10162
  156.1528  130.3642  149.9413 LP  0  0  0  0  0  0  0  0  0  0  0  0  # atno 17370 bound_to 10713
  156.7429  130.9086  151.3633 LP  0  0  0  0  0  0  0  0  0  0  0  0  # atno 17371 bound_to 10713
  140.6456  134.5120  157.5573 LP  0  0  0  0  0  0  0  0  0  0  0  0  # atno 17394 bound_to 11000
  139.9189  134.8189  156.1275 LP  0  0  0  0  0  0  0  0  0  0  0  0  # atno 17395 bound_to 11000

$$$$
