AV-unprocessed.smi:287|AV-procd|sdf|2185|dock3
  -GOLD-   2262021563D 1   1.00000     0.00000
 Structure written by MMmdl.
 55 58  0  0  0  0  0  0  0  0  1 V2000
  153.9443  138.0344  154.6744 C   0  0  0  0  0  0  0  0  0  0  0  0
  152.6991  138.7639  155.0461 C   0  0  0  0  0  0  0  0  0  0  0  0
  151.4510  138.8430  154.4999 C   0  0  0  0  0  0  0  0  0  0  0  0
  150.6823  139.7243  155.3184 C   0  0  0  0  0  0  0  0  0  0  0  0
  149.2252  140.1157  155.1091 C   0  0  1  0  0  0  0  0  0  0  0  0
  149.1195  141.6383  154.9263 C   0  0  0  0  0  0  0  0  0  0  0  0
  148.6761  139.5545  153.9322 O   0  0  0  0  0  0  0  0  0  0  0  0
  148.3031  139.6555  156.2623 C   0  0  0  0  0  0  0  0  0  0  0  0
  146.9435  140.1726  156.1467 N   0  0  0  0  0  0  0  0  0  0  0  0
  145.9488  139.3742  155.7066 C   0  0  0  0  0  0  0  0  0  0  0  0
  144.6457  139.7029  155.9066 N   0  0  0  0  0  0  0  0  0  0  0  0
  143.6784  138.8993  155.4540 C   0  0  0  0  0  0  0  0  0  0  0  0
  143.7938  137.7457  154.7924 N   0  0  0  0  0  0  0  0  0  0  0  0
  145.1013  137.4093  154.5934 C   0  0  0  0  0  0  0  0  0  0  0  0
  146.2286  138.1663  155.0175 C   0  0  0  0  0  0  0  0  0  0  0  0
  147.3989  137.5202  154.6419 N   0  0  0  0  0  0  0  0  0  0  0  0
  146.9823  136.4452  154.0281 C   0  0  0  0  0  0  0  0  0  0  0  0
  145.6146  136.2987  153.9555 N   0  0  0  0  0  0  0  0  0  0  0  0
  144.8504  135.1861  153.3171 C   0  0  2  0  0  0  0  0  0  0  0  0
  145.7569  134.3665  152.6504 O   0  0  0  0  0  0  0  0  0  0  0  0
  145.1244  133.8448  151.4925 C   0  0  2  0  0  0  0  0  0  0  0  0
  146.1567  133.2603  150.5118 C   0  0  0  0  0  0  0  0  0  0  0  0
  146.7696  132.1174  151.0696 O   0  0  0  0  0  0  0  0  0  0  0  0
  144.2632  135.0151  150.9923 C   0  0  2  0  0  0  0  0  0  0  0  0
  145.0036  135.8932  150.1659 O   0  0  0  0  0  0  0  0  0  0  0  0
  143.8435  135.7213  152.2811 C   0  0  1  0  0  0  0  0  0  0  0  0
  142.5236  135.3422  152.6164 O   0  0  0  0  0  0  0  0  0  0  0  0
  151.5370  140.0985  156.3271 C   0  0  0  0  0  0  0  0  0  0  0  0
  151.3981  140.9699  157.5315 C   0  0  0  0  0  0  0  0  0  0  0  0
  152.7632  139.5276  156.1652 O   0  0  0  0  0  0  0  0  0  0  0  0
  144.3859  134.6468  154.1444 H   0  0  0  0  0  0  0  0  0  0  0  0
  144.4626  133.0448  151.8302 H   0  0  0  0  0  0  0  0  0  0  0  0
  143.4115  134.6594  150.4105 H   0  0  0  0  0  0  0  0  0  0  0  0
  143.8946  136.8084  152.1982 H   0  0  0  0  0  0  0  0  0  0  0  0
  153.7986  137.4533  153.7636 H   0  0  0  0  0  0  0  0  0  0  0  0
  154.2427  137.3496  155.4683 H   0  0  0  0  0  0  0  0  0  0  0  0
  154.7644  138.7318  154.5025 H   0  0  0  0  0  0  0  0  0  0  0  0
  151.1259  138.3302  153.6068 H   0  0  0  0  0  0  0  0  0  0  0  0
  149.4922  142.1672  155.8044 H   0  0  0  0  0  0  0  0  0  0  0  0
  148.0869  141.9525  154.7692 H   0  0  0  0  0  0  0  0  0  0  0  0
  149.7022  141.9767  154.0685 H   0  0  0  0  0  0  0  0  0  0  0  0
  149.1417  139.9044  153.1882 H   0  0  0  0  0  0  0  0  0  0  0  0
  148.2314  138.5671  156.2422 H   0  0  0  0  0  0  0  0  0  0  0  0
  148.7333  139.9212  157.2295 H   0  0  0  0  0  0  0  0  0  0  0  0
  146.8208  141.1515  156.3642 H   0  0  0  0  0  0  0  0  0  0  0  0
  142.6681  139.2289  155.6471 H   0  0  0  0  0  0  0  0  0  0  0  0
  147.6682  135.7237  153.6089 H   0  0  0  0  0  0  0  0  0  0  0  0
  145.7053  133.0087  149.5519 H   0  0  0  0  0  0  0  0  0  0  0  0
  146.9335  133.9982  150.3101 H   0  0  0  0  0  0  0  0  0  0  0  0
  147.6072  131.9910  150.6505 H   0  0  0  0  0  0  0  0  0  0  0  0
  145.4548  135.3788  149.5128 H   0  0  0  0  0  0  0  0  0  0  0  0
  142.5039  134.4059  152.7430 H   0  0  0  0  0  0  0  0  0  0  0  0
  150.5097  140.7005  158.1028 H   0  0  0  0  0  0  0  0  0  0  0  0
  151.3113  142.0173  157.2428 H   0  0  0  0  0  0  0  0  0  0  0  0
  152.2613  140.8727  158.1905 H   0  0  0  0  0  0  0  0  0  0  0  0
  1  2  1  0  0  0  0
  1 35  1  0  0  0  0
  1 36  1  0  0  0  0
  1 37  1  0  0  0  0
  2 30  1  0  0  0  0
  2  3  2  0  0  0  0
  3  4  1  0  0  0  0
  3 38  1  0  0  0  0
  4  5  1  0  0  0  0
  4 28  2  0  0  0  0
  5  6  1  0  0  0  0
  5  7  1  0  0  0  0
  5  8  1  0  0  0  0
  6 39  1  0  0  0  0
  6 40  1  0  0  0  0
  6 41  1  0  0  0  0
  7 42  1  0  0  0  0
  8  9  1  0  0  0  0
  8 43  1  0  0  0  0
  8 44  1  0  0  0  0
  9 10  1  0  0  0  0
  9 45  1  0  0  0  0
 10 15  1  0  0  0  0
 10 11  2  0  0  0  0
 11 12  1  0  0  0  0
 12 13  2  0  0  0  0
 12 46  1  0  0  0  0
 13 14  1  0  0  0  0
 14 18  1  0  0  0  0
 14 15  2  0  0  0  0
 15 16  1  0  0  0  0
 16 17  2  0  0  0  0
 17 18  1  0  0  0  0
 17 47  1  0  0  0  0
 18 19  1  0  0  0  0
 19 31  1  0  0  0  0
 19 26  1  0  0  0  0
 19 20  1  0  0  0  0
 20 21  1  0  0  0  0
 21 32  1  0  0  0  0
 21 22  1  0  0  0  0
 21 24  1  0  0  0  0
 22 23  1  0  0  0  0
 22 48  1  0  0  0  0
 22 49  1  0  0  0  0
 23 50  1  0  0  0  0
 24 33  1  0  0  0  0
 24 25  1  0  0  0  0
 24 26  1  0  0  0  0
 25 51  1  0  0  0  0
 26 34  1  0  0  0  0
 26 27  1  0  0  0  0
 27 52  1  0  0  0  0
 28 29  1  0  0  0  0
 28 30  1  0  0  0  0
 29 53  1  0  0  0  0
 29 54  1  0  0  0  0
 29 55  1  0  0  0  0
M  END
> <s_m_source_file>
AV-unprocessed.smi

> <i_m_source_file_index>
287

> <i_lp_mmshare_version>
43012

> <i_f3d_flags>
0

> <s_epik_input>
W0NIM11jMVtjSF1jKGMobzEpW0NIM10pW0NAQF0oW0NIM10pKFtPSF0pW0NIMl1bTkhdYyhuW2NIXW4yKWMoYzIzKW5bY0hdbjNbQ0BASF00T1tDQEhdKFtDSDJdW09IXSlbQ0BASF0oW09IXSlbQ0BIXTRbT0hd

> <s_epik_cmdline>
J2VwaWtfcHl0aG9uJywgJy1waCcsICc3LjAnLCAnLXRuJywgJzgnLCAnLW1hJywgJzIwMCcsICctbWV0YWxfYmluZGluZycsICctaW1hZScsICc8aW5maWxlLm1hZT4nLCAnLW9tYWUnLCAnPG91dGZpbGUubWFlPic=

> <r_lp_tautomer_probability>
1

> <r_epik_Ionization_Penalty>
0.000992612

> <r_epik_Ionization_Penalty_Charging>
0

> <r_epik_Ionization_Penalty_Neutral>
0.000992612

> <r_epik_State_Penalty>
-0

> <r_epik_Charging_Adjusted_Penalty>
0

> <i_epik_Tot_Q>
0

> <i_epik_Tot_abs_Q>
0

> <r_epik_Metal_State_Penalty>
-0

> <b_epik_Metal_Only>
0

> <s_epik_Chemistry_Notes>
This compound contains an acetal/aminal-like group ( X-CH(R)-Y where X, Y are N, S, or O) that may be acid/base labile, releasing an aldehyde.

> <s_lp_Force_Field>
OPLS_2005

> <r_lp_Energy>
37.4731

> <b_lp_Chiralities_Consistent>
1

> <s_lp_Variant>
AV-unprocessed.smi:287-9

> <Gold.Version>
5.8.1

> <Gold.Id.Protein>
6NUR|6NUR_protein|mol2

> <Gold.PLP.Fitness>
47.8693

> <Gold.PLP.PLP>
-33.9114

> <Gold.PLP.part.hbond>
-5.0000

> <Gold.PLP.part.metal>
0.0000

> <Gold.PLP.part.buried>
1.1659

> <Gold.PLP.part.nonpolar>
-29.5593

> <Gold.PLP.part.repulsive>
0.3451

> <Gold.PLP.ligand.clash>
0.0000

> <Gold.PLP.ligand.torsion>
0.3378

> <Gold.PLP.Chemscore.Hbond>
4.0000

> <Gold.PLP.Chemscore.CHOScore>
0.8216

> <Gold.PLP.Chemscore.Metal>
0.0000

> <Gold.Chemscore.Hbonds>
donor molecule, donor type, donor heavy atom, donor atom, acceptor molecule, acceptor atom, score
      L1  H     7    42       P1  7957  0.86
      L1  H    23    50       P1 10747  0.96
      L1  H    25    51       P1  7921  0.91
      P1  H  7997  8009       L1    30  1.00
      L1  C    17    47       P1  7948  0.84

> <Gold.PLP.Chemscore.Internal.Correction>
0.1687

> <Gold.Rescore>
     Score         DG    S(hbond)    S(metal)    S(lipo)     H(rot)  DE(clash)    DE(int)     intcor
      8.99     -14.86       3.85        0.00      85.61       5.27       2.65       3.22       ----

> <Gold.Chemscore.Fitness>
8.9863

> <Gold.Chemscore.DG>
-14.8575

> <Gold.Chemscore.ZeroCoef>
-5.4800

> <Gold.Chemscore.Hbond>
3.8459

> <Gold.Chemscore.Metal>
0.0000

> <Gold.Chemscore.Lipo>
85.6070

> <Gold.Chemscore.Internal_Hbond>
0.0000

> <Gold.Chemscore.DEClash>
2.6463

> <Gold.Chemscore.DEInternal>
3.2249

> <Gold.Chemscore.Rot>
5.2672

> <Gold.Chemscore.Internal.Correction>
   9.000000E+99

> <Gold.Chemscore.Hbonds>
donor molecule, donor type, donor heavy atom, donor atom, acceptor molecule, acceptor atom, score
      L1  H     7    42       P1  7957  0.82
      L1  H    23    50       P1 10747  0.92
      L1  H    25    51       P1  7921  0.86
      P1  H  7997  8009       L1    30  0.74

> <Gold.Chemscore.Hbond.Weighted>
-12.8454

> <Gold.Chemscore.Metal.Weighted>
-0.0000

> <Gold.Chemscore.Lipo.Weighted>
-10.0160

> <Gold.Chemscore.Internal_Hbond.Weighted>
0.0000

> <Gold.Chemscore.DEClash.Weighted>
2.6463

> <Gold.Chemscore.DEInternal.Weighted>
3.2249

> <Gold.Chemscore.Rot.Weighted>
13.4839

> <Gold.Chemscore.Internal.Correction.Weighted>
   9.000000E+99

> <Gold.Protein.RotatedTorsions>
[ 6907 6896 6895 6894 ] final -177.10 input  -60.11 | X-H torsion
[ 7974 7965 7964 7962 ] final   58.17 input  175.53 | X-H torsion
[ 8008 7997 7996 7995 ] final -165.67 input   59.86 | X-H torsion
[ 10167 10162 10161 10158 ] final  -62.40 input  -65.29 | X-H torsion
[ 10718 10713 10712 10709 ] final  111.74 input   66.30 | X-H torsion
[ 10763 10752 10751 10750 ] final  120.65 input  -60.55 | X-H torsion
[ 11005 11000 10999 10996 ] final   53.68 input  -57.11 | X-H torsion

> <Gold.Protein.ActiveResidues>
 VAL166  LYS551  ARG553  GLY616  TRP617  ASP618  TYR619  PRO620  LYS621  CYS622 
 ASP623  PHE694  ASN695  SER759  ASP760  ASP761  ALA762  ILE779  LEU786  VAL792 
 PHE793  MET794  SER795  GLU796  ALA797  LYS798  CYS799  TRP800  GLU811  SER814 

> <Gold.Protein.RotatedAtoms>
  151.6156  133.3343  159.3076 H   0  0  0  0  0  0  0  0  0  0  0  0  # atno 6907 bound_to 6896
  150.8133  134.7304  159.6719 H   0  0  0  0  0  0  0  0  0  0  0  0  # atno 6908 bound_to 6896
  152.4230  134.5926  160.0030 H   0  0  0  0  0  0  0  0  0  0  0  0  # atno 6909 bound_to 6896
  145.9211  139.3730  143.0478 H   0  0  0  0  0  0  0  0  0  0  0  0  # atno 7974 bound_to 7965
  155.8531  140.0966  157.1662 H   0  0  0  0  0  0  0  0  0  0  0  0  # atno 8008 bound_to 7997
  154.3986  140.1379  156.3930 H   0  0  0  0  0  0  0  0  0  0  0  0  # atno 8009 bound_to 7997
  155.7940  140.3455  155.5367 H   0  0  0  0  0  0  0  0  0  0  0  0  # atno 8010 bound_to 7997
  140.5942  143.2347  151.6073 H   0  0  0  0  0  0  0  0  0  0  0  0  # atno 10167 bound_to 10162
  157.6429  131.0956  150.6792 H   0  0  0  0  0  0  0  0  0  0  0  0  # atno 10718 bound_to 10713
  153.6018  135.3446  155.2948 H   0  0  0  0  0  0  0  0  0  0  0  0  # atno 10763 bound_to 10752
  154.8635  135.4229  154.2405 H   0  0  0  0  0  0  0  0  0  0  0  0  # atno 10764 bound_to 10752
  153.3235  135.7039  153.7081 H   0  0  0  0  0  0  0  0  0  0  0  0  # atno 10765 bound_to 10752
  140.0748  134.5420  155.9008 H   0  0  0  0  0  0  0  0  0  0  0  0  # atno 11005 bound_to 11000
  145.8549  140.9508  143.0730 LP  0  0  0  0  0  0  0  0  0  0  0  0  # atno 17320 bound_to 7965
  144.6753  140.0455  143.7480 LP  0  0  0  0  0  0  0  0  0  0  0  0  # atno 17321 bound_to 7965
  139.5247  144.3096  152.1004 LP  0  0  0  0  0  0  0  0  0  0  0  0  # atno 17342 bound_to 10162
  140.2266  144.4412  150.6318 LP  0  0  0  0  0  0  0  0  0  0  0  0  # atno 17343 bound_to 10162
  156.7114  130.4653  149.5546 LP  0  0  0  0  0  0  0  0  0  0  0  0  # atno 17370 bound_to 10713
  156.1727  130.6448  151.0857 LP  0  0  0  0  0  0  0  0  0  0  0  0  # atno 17371 bound_to 10713
  141.2025  133.6625  156.6011 LP  0  0  0  0  0  0  0  0  0  0  0  0  # atno 17394 bound_to 11000
  140.3574  134.7717  157.4510 LP  0  0  0  0  0  0  0  0  0  0  0  0  # atno 17395 bound_to 11000

$$$$
