AV-unprocessed.smi:1669|AV-procd|sdf|6683|dock10
  -GOLD-   22720 7403D 1   1.00000     0.00000
 Structure written by MMmdl.
 48 50  0  0  0  0  0  0  0  0  2 V2000
  145.5923  139.6863  154.6591 C   0  0  0  0  0  0  0  0  0  0  0  0
  146.3977  139.3377  153.4654 N   0  3  1  0  0  0  0  0  0  0  0  0
  147.5418  140.2627  153.2549 C   0  0  0  0  0  0  0  0  0  0  0  0
  148.5474  140.1877  154.3891 C   0  0  0  0  0  0  0  0  0  0  0  0
  148.6698  141.2641  155.2926 C   0  0  0  0  0  0  0  0  0  0  0  0
  149.5984  141.1983  156.3496 C   0  0  0  0  0  0  0  0  0  0  0  0
  150.4091  140.0574  156.5055 C   0  0  0  0  0  0  0  0  0  0  0  0
  150.2922  138.9825  155.6032 C   0  0  0  0  0  0  0  0  0  0  0  0
  149.3639  139.0473  154.5461 C   0  0  0  0  0  0  0  0  0  0  0  0
  146.8058  137.9106  153.4640 C   0  0  0  0  0  0  0  0  0  0  0  0
  145.8542  137.0407  152.6130 C   0  0  2  0  0  0  0  0  0  0  0  0
  145.3506  137.8231  151.5496 O   0  0  0  0  0  0  0  0  0  0  0  0
  144.6554  136.4749  153.3999 C   0  0  0  0  0  0  0  0  0  0  0  0
  143.9110  135.4806  152.6379 N   0  0  0  0  0  0  0  0  0  0  0  0
  142.5724  135.4032  152.4224 C   0  0  0  0  0  0  0  0  0  0  0  0
  141.6091  136.4095  152.9730 C   0  0  0  0  0  0  0  0  0  0  0  0
  140.2640  136.0833  152.6972 O   0  0  0  0  0  0  0  0  0  0  0  0
  142.1623  134.3660  151.6920 N   0  0  0  0  0  0  0  0  0  0  0  0
  143.3437  133.7162  151.3939 C   0  0  0  0  0  0  0  0  0  0  0  0
  143.5826  132.5411  150.6463 C   0  0  0  0  0  0  0  0  0  0  0  0
  144.8969  132.0592  150.4754 C   0  0  0  0  0  0  0  0  0  0  0  0
  145.9888  132.7447  151.0460 C   0  0  0  0  0  0  0  0  0  0  0  0
  145.7726  133.9174  151.7945 C   0  0  0  0  0  0  0  0  0  0  0  0
  144.4584  134.3919  151.9660 C   0  0  0  0  0  0  0  0  0  0  0  0
  146.1834  139.5902  155.5709 H   0  0  0  0  0  0  0  0  0  0  0  0
  144.7244  139.0315  154.7436 H   0  0  0  0  0  0  0  0  0  0  0  0
  145.2178  140.7081  154.5996 H   0  0  0  0  0  0  0  0  0  0  0  0
  148.0259  140.0473  152.3007 H   0  0  0  0  0  0  0  0  0  0  0  0
  147.1974  141.2949  153.1901 H   0  0  0  0  0  0  0  0  0  0  0  0
  148.0503  142.1420  155.1788 H   0  0  0  0  0  0  0  0  0  0  0  0
  149.6885  142.0229  157.0412 H   0  0  0  0  0  0  0  0  0  0  0  0
  151.1212  140.0072  157.3163 H   0  0  0  0  0  0  0  0  0  0  0  0
  150.9146  138.1076  155.7221 H   0  0  0  0  0  0  0  0  0  0  0  0
  149.2795  138.2179  153.8591 H   0  0  0  0  0  0  0  0  0  0  0  0
  147.8336  137.8499  153.1045 H   0  0  0  0  0  0  0  0  0  0  0  0
  146.8211  137.5155  154.4811 H   0  0  0  0  0  0  0  0  0  0  0  0
  146.3994  136.2073  152.1719 H   0  0  0  0  0  0  0  0  0  0  0  0
  145.2172  138.7067  151.8584 H   0  0  0  0  0  0  0  0  0  0  0  0
  144.9891  136.0450  154.3435 H   0  0  0  0  0  0  0  0  0  0  0  0
  143.9669  137.2798  153.6615 H   0  0  0  0  0  0  0  0  0  0  0  0
  141.7354  136.4763  154.0542 H   0  0  0  0  0  0  0  0  0  0  0  0
  141.8361  137.3964  152.5697 H   0  0  0  0  0  0  0  0  0  0  0  0
  140.0952  136.2490  151.7821 H   0  0  0  0  0  0  0  0  0  0  0  0
  142.7538  132.0096  150.2026 H   0  0  0  0  0  0  0  0  0  0  0  0
  145.0683  131.1601  149.9014 H   0  0  0  0  0  0  0  0  0  0  0  0
  146.9925  132.3702  150.9072 H   0  0  0  0  0  0  0  0  0  0  0  0
  146.6083  134.4457  152.2293 H   0  0  0  0  0  0  0  0  0  0  0  0
  145.7839  139.4469  152.6701 H   0  0  0  0  0  0  0  0  0  0  0  0
  1  2  1  0  0  0  0
  1 25  1  0  0  0  0
  1 26  1  0  0  0  0
  1 27  1  0  0  0  0
  2  3  1  0  0  0  0
  2 10  1  0  0  0  0
  2 48  1  0  0  0  0
  3  4  1  0  0  0  0
  3 28  1  0  0  0  0
  3 29  1  0  0  0  0
  4  9  1  0  0  0  0
  4  5  2  0  0  0  0
  5  6  1  0  0  0  0
  5 30  1  0  0  0  0
  6  7  2  0  0  0  0
  6 31  1  0  0  0  0
  7  8  1  0  0  0  0
  7 32  1  0  0  0  0
  8  9  2  0  0  0  0
  8 33  1  0  0  0  0
  9 34  1  0  0  0  0
 10 11  1  0  0  0  0
 10 35  1  0  0  0  0
 10 36  1  0  0  0  0
 11 12  1  0  0  0  0
 11 13  1  0  0  0  0
 11 37  1  0  0  0  0
 12 38  1  0  0  0  0
 13 14  1  0  0  0  0
 13 39  1  0  0  0  0
 13 40  1  0  0  0  0
 14 24  1  0  0  0  0
 14 15  1  0  0  0  0
 15 16  1  0  0  0  0
 15 18  2  0  0  0  0
 16 17  1  0  0  0  0
 16 41  1  0  0  0  0
 16 42  1  0  0  0  0
 17 43  1  0  0  0  0
 18 19  1  0  0  0  0
 19 24  2  0  0  0  0
 19 20  1  0  0  0  0
 20 21  2  0  0  0  0
 20 44  1  0  0  0  0
 21 22  1  0  0  0  0
 21 45  1  0  0  0  0
 22 23  2  0  0  0  0
 22 46  1  0  0  0  0
 23 24  1  0  0  0  0
 23 47  1  0  0  0  0
M  CHG  1   2   1
M  END
> <s_m_source_file>
AV-unprocessed.smi

> <i_m_source_file_index>
1669

> <i_lp_mmshare_version>
43012

> <i_f3d_flags>
0

> <s_epik_input>
W2NIXTFbY0hdW2NIXVtjSF1bY0hdYzFbQ0gyXU4oW0NIM10pW0NIMl1bQ0BIXShbT0hdKVtDSDJdbihjKG4yKVtDSDJdW09IXSljKGMyMylbY0hdW2NIXVtjSF1bY0hdMw==

> <s_epik_cmdline>
J2VwaWtfcHl0aG9uJywgJy1waCcsICc3LjAnLCAnLXRuJywgJzgnLCAnLW1hJywgJzIwMCcsICctbWV0YWxfYmluZGluZycsICctaW1hZScsICc8aW5maWxlLm1hZT4nLCAnLW9tYWUnLCAnPG91dGZpbGUubWFlPic=

> <r_epik_Ionization_Penalty>
0.0949884

> <r_epik_Ionization_Penalty_Charging>
0.0475377

> <r_epik_Ionization_Penalty_Neutral>
0.0474507

> <r_epik_State_Penalty>
0.078247

> <r_epik_Charging_Adjusted_Penalty>
0.125785

> <i_epik_Tot_Q>
1

> <i_epik_Tot_abs_Q>
1

> <r_epik_Metal_State_Penalty>
0.0403451

> <b_epik_Metal_Only>
0

> <s_lp_Force_Field>
OPLS_2005

> <r_lp_Energy>
16.111

> <b_lp_Chiralities_Consistent>
1

> <s_lp_Variant>
AV-unprocessed.smi:1669-1

> <Gold.Version>
5.8.1

> <Gold.Id.Protein>
6NUR|6NUR_protein|mol2

> <Gold.PLP.Fitness>
54.1954

> <Gold.PLP.PLP>
-44.5761

> <Gold.PLP.part.hbond>
-4.2186

> <Gold.PLP.part.metal>
0.0000

> <Gold.PLP.part.buried>
-3.8156

> <Gold.PLP.part.nonpolar>
-37.3070

> <Gold.PLP.part.repulsive>
0.3571

> <Gold.PLP.ligand.clash>
0.0000

> <Gold.PLP.ligand.torsion>
1.2043

> <Gold.PLP.Chemscore.Hbond>
3.9840

> <Gold.PLP.Chemscore.CHOScore>
0.0000

> <Gold.PLP.Chemscore.Metal>
0.0000

> <Gold.Chemscore.Hbonds>
donor molecule, donor type, donor heavy atom, donor atom, acceptor molecule, acceptor atom, score
      L1  H     2    48       P1 10175  0.27
      L1  H    12    38       P1 10175  0.08

> <Gold.PLP.Chemscore.Internal.Correction>
0.0759

> <Gold.Rescore>
     Score         DG    S(hbond)    S(metal)    S(lipo)     H(rot)  DE(clash)    DE(int)     intcor
     17.84     -18.95       2.89        0.00     102.00       3.17       0.15       0.95       ----

> <Gold.Chemscore.Fitness>
17.8414

> <Gold.Chemscore.DG>
-18.9456

> <Gold.Chemscore.ZeroCoef>
-5.4800

> <Gold.Chemscore.Hbond>
2.8905

> <Gold.Chemscore.Metal>
0.0000

> <Gold.Chemscore.Lipo>
102.0042

> <Gold.Chemscore.Internal_Hbond>
0.0000

> <Gold.Chemscore.DEClash>
0.1549

> <Gold.Chemscore.DEInternal>
0.9493

> <Gold.Chemscore.Rot>
3.1731

> <Gold.Chemscore.Internal.Correction>
   9.000000E+99

> <Gold.Chemscore.Hbonds>
donor molecule, donor type, donor heavy atom, donor atom, acceptor molecule, acceptor atom, score
      L1  H     2    48       P1 10175  0.15
      L1  H    12    38       P1 10175  0.10

> <Gold.Chemscore.Hbond.Weighted>
-9.6542

> <Gold.Chemscore.Metal.Weighted>
-0.0000

> <Gold.Chemscore.Lipo.Weighted>
-11.9345

> <Gold.Chemscore.Internal_Hbond.Weighted>
0.0000

> <Gold.Chemscore.DEClash.Weighted>
0.1549

> <Gold.Chemscore.DEInternal.Weighted>
0.9493

> <Gold.Chemscore.Rot.Weighted>
8.1230

> <Gold.Chemscore.Internal.Correction.Weighted>
   9.000000E+99

> <Gold.Protein.RotatedTorsions>
[ 6907 6896 6895 6894 ] final  133.11 input  -60.11 | X-H torsion
[ 7974 7965 7964 7962 ] final  140.61 input  175.53 | X-H torsion
[ 8008 7997 7996 7995 ] final   91.19 input   59.86 | X-H torsion
[ 10167 10162 10161 10158 ] final -125.03 input  -65.29 | X-H torsion
[ 10718 10713 10712 10709 ] final  118.87 input   66.30 | X-H torsion
[ 10763 10752 10751 10750 ] final  179.45 input  -60.55 | X-H torsion
[ 11005 11000 10999 10996 ] final   45.81 input  -57.11 | X-H torsion

> <Gold.Protein.ActiveResidues>
 VAL166  LYS551  ARG553  GLY616  TRP617  ASP618  TYR619  PRO620  LYS621  CYS622 
 ASP623  PHE694  ASN695  SER759  ASP760  ASP761  ALA762  ILE779  LEU786  VAL792 
 PHE793  MET794  SER795  GLU796  ALA797  LYS798  CYS799  TRP800  GLU811  SER814 

> <Gold.Protein.RotatedAtoms>
  152.3254  133.5899  159.5772 H   0  0  0  0  0  0  0  0  0  0  0  0  # atno 6907 bound_to 6896
  150.7394  133.9948  159.3627 H   0  0  0  0  0  0  0  0  0  0  0  0  # atno 6908 bound_to 6896
  151.7828  135.0757  160.0427 H   0  0  0  0  0  0  0  0  0  0  0  0  # atno 6909 bound_to 6896
  144.9171  139.5216  143.5681 H   0  0  0  0  0  0  0  0  0  0  0  0  # atno 7974 bound_to 7965
  156.0208  140.3340  155.7037 H   0  0  0  0  0  0  0  0  0  0  0  0  # atno 8008 bound_to 7997
  155.6025  140.0657  157.2747 H   0  0  0  0  0  0  0  0  0  0  0  0  # atno 8009 bound_to 7997
  154.4315  140.1808  156.1175 H   0  0  0  0  0  0  0  0  0  0  0  0  # atno 8010 bound_to 7997
  139.9865  143.5687  152.2358 H   0  0  0  0  0  0  0  0  0  0  0  0  # atno 10167 bound_to 10162
  157.6000  131.1052  150.7817 H   0  0  0  0  0  0  0  0  0  0  0  0  # atno 10718 bound_to 10713
  154.5208  135.2794  155.1264 H   0  0  0  0  0  0  0  0  0  0  0  0  # atno 10763 bound_to 10752
  154.2822  135.6283  153.5355 H   0  0  0  0  0  0  0  0  0  0  0  0  # atno 10764 bound_to 10752
  152.9936  135.5654  154.5696 H   0  0  0  0  0  0  0  0  0  0  0  0  # atno 10765 bound_to 10752
  140.1425  134.4564  155.8439 H   0  0  0  0  0  0  0  0  0  0  0  0  # atno 11005 bound_to 11000
  146.3187  139.8022  142.8963 LP  0  0  0  0  0  0  0  0  0  0  0  0  # atno 17320 bound_to 7965
  145.3357  141.0276  143.3421 LP  0  0  0  0  0  0  0  0  0  0  0  0  # atno 17321 bound_to 7965
  139.6371  144.7651  151.2414 LP  0  0  0  0  0  0  0  0  0  0  0  0  # atno 17342 bound_to 10162
  140.7470  143.6379  150.8362 LP  0  0  0  0  0  0  0  0  0  0  0  0  # atno 17343 bound_to 10162
  156.8218  130.4986  149.5342 LP  0  0  0  0  0  0  0  0  0  0  0  0  # atno 17370 bound_to 10713
  156.1072  130.6013  150.9989 LP  0  0  0  0  0  0  0  0  0  0  0  0  # atno 17371 bound_to 10713
  141.2188  133.6839  156.7274 LP  0  0  0  0  0  0  0  0  0  0  0  0  # atno 17394 bound_to 11000
  140.2704  134.8397  157.3842 LP  0  0  0  0  0  0  0  0  0  0  0  0  # atno 17395 bound_to 11000

$$$$
