AV-unprocessed.smi:33|AV-procd|sdf|199|dock7
  -GOLD-   2262015473D 1   1.00000     0.00000
 Structure written by MMmdl.
 67 72  0  0  0  0  0  0  0  0  1 V2000
  149.5496  128.6854  154.1113 O   0  0  0  0  0  0  0  0  0  0  0  0
  150.1283  129.7034  154.4964 C   0  0  0  0  0  0  0  0  0  0  0  0
  149.5604  130.9234  154.5099 O   0  0  0  0  0  0  0  0  0  0  0  0
  148.3656  131.1627  153.7849 C   0  0  0  0  0  0  0  0  0  0  0  0
  147.9694  132.6297  153.9769 C   0  0  2  0  0  0  0  0  0  0  0  0
  147.8245  132.9433  155.3556 O   0  0  0  0  0  0  0  0  0  0  0  0
  147.1048  134.1335  155.4747 C   0  0  1  0  0  0  0  0  0  0  0  0
  148.0785  135.2565  155.6798 N   0  0  0  0  0  0  0  0  0  0  0  0
  149.3350  135.4411  155.1390 C   0  0  0  0  0  0  0  0  0  0  0  0
  149.9514  136.5285  155.5172 N   0  0  0  0  0  0  0  0  0  0  0  0
  149.0587  137.1332  156.3921 C   0  0  0  0  0  0  0  0  0  0  0  0
  149.0799  138.3281  157.1599 C   0  0  0  0  0  0  0  0  0  0  0  0
  150.1229  139.1905  157.1463 N   0  0  0  0  0  0  0  0  0  0  0  0
  151.0017  139.1931  158.3250 C   0  0  0  0  0  0  0  0  0  0  0  0
  151.0877  138.1803  159.0220 O   0  0  0  0  0  0  0  0  0  0  0  0
  151.8266  140.4040  158.6570 C   0  0  0  0  0  0  0  0  0  0  0  0
  152.9586  140.2818  159.4924 C   0  0  0  0  0  0  0  0  0  0  0  0
  153.7259  141.4169  159.8187 C   0  0  0  0  0  0  0  0  0  0  0  0
  153.3559  142.6831  159.3269 C   0  0  0  0  0  0  0  0  0  0  0  0
  152.2118  142.8162  158.5175 C   0  0  0  0  0  0  0  0  0  0  0  0
  151.4440  141.6819  158.1907 C   0  0  0  0  0  0  0  0  0  0  0  0
  150.2791  140.0443  155.9596 C   0  0  0  0  0  0  0  0  0  0  0  0
  151.3912  140.4940  155.6766 O   0  0  0  0  0  0  0  0  0  0  0  0
  149.1070  140.3244  155.0624 C   0  0  0  0  0  0  0  0  0  0  0  0
  148.4949  139.2697  154.3502 C   0  0  0  0  0  0  0  0  0  0  0  0
  147.4033  139.5277  153.4987 C   0  0  0  0  0  0  0  0  0  0  0  0
  146.9298  140.8437  153.3386 C   0  0  0  0  0  0  0  0  0  0  0  0
  147.5538  141.9037  154.0236 C   0  0  0  0  0  0  0  0  0  0  0  0
  148.6440  141.6465  154.8769 C   0  0  0  0  0  0  0  0  0  0  0  0
  147.9998  138.6065  157.9357 N   0  0  0  0  0  0  0  0  0  0  0  0
  146.9612  137.7653  157.9548 C   0  0  0  0  0  0  0  0  0  0  0  0
  146.8013  136.6192  157.2878 N   0  0  0  0  0  0  0  0  0  0  0  0
  147.8870  136.3386  156.5103 C   0  0  0  0  0  0  0  0  0  0  0  0
  146.2768  134.2904  154.1730 C   0  0  1  0  0  0  0  0  0  0  0  0
  146.6188  135.4141  153.3798 O   0  0  0  0  0  0  0  0  0  0  0  0
  146.5984  133.0064  153.4201 C   0  0  2  0  0  0  0  0  0  0  0  0
  145.6958  132.0722  153.7271 F   0  0  0  0  0  0  0  0  0  0  0  0
  151.5331  129.7138  154.9976 C   0  0  0  0  0  0  0  0  0  0  0  0
  152.3595  128.5892  154.7677 C   0  0  0  0  0  0  0  0  0  0  0  0
  153.6899  128.5703  155.2297 C   0  0  0  0  0  0  0  0  0  0  0  0
  154.2102  129.6756  155.9276 C   0  0  0  0  0  0  0  0  0  0  0  0
  153.3981  130.8001  156.1635 C   0  0  0  0  0  0  0  0  0  0  0  0
  152.0675  130.8213  155.7019 C   0  0  0  0  0  0  0  0  0  0  0  0
  148.5435  130.9599  152.7280 H   0  0  0  0  0  0  0  0  0  0  0  0
  147.5684  130.4991  154.1228 H   0  0  0  0  0  0  0  0  0  0  0  0
  148.7223  133.2791  153.5271 H   0  0  0  0  0  0  0  0  0  0  0  0
  146.5020  134.1256  156.3835 H   0  0  0  0  0  0  0  0  0  0  0  0
  149.7912  134.7440  154.4514 H   0  0  0  0  0  0  0  0  0  0  0  0
  153.2514  139.3151  159.8758 H   0  0  0  0  0  0  0  0  0  0  0  0
  154.5981  141.3160  160.4476 H   0  0  0  0  0  0  0  0  0  0  0  0
  153.9451  143.5532  159.5766 H   0  0  0  0  0  0  0  0  0  0  0  0
  151.9213  143.7888  158.1487 H   0  0  0  0  0  0  0  0  0  0  0  0
  150.5641  141.7967  157.5738 H   0  0  0  0  0  0  0  0  0  0  0  0
  148.8496  138.2556  154.4662 H   0  0  0  0  0  0  0  0  0  0  0  0
  146.9296  138.7150  152.9681 H   0  0  0  0  0  0  0  0  0  0  0  0
  146.0923  141.0409  152.6858 H   0  0  0  0  0  0  0  0  0  0  0  0
  147.1974  142.9149  153.8942 H   0  0  0  0  0  0  0  0  0  0  0  0
  149.1176  142.4685  155.3944 H   0  0  0  0  0  0  0  0  0  0  0  0
  146.1400  138.0523  158.5949 H   0  0  0  0  0  0  0  0  0  0  0  0
  145.2169  134.3527  154.4223 H   0  0  0  0  0  0  0  0  0  0  0  0
  147.4740  135.2652  153.0053 H   0  0  0  0  0  0  0  0  0  0  0  0
  146.5898  133.1167  152.3349 H   0  0  0  0  0  0  0  0  0  0  0  0
  151.9819  127.7284  154.2348 H   0  0  0  0  0  0  0  0  0  0  0  0
  154.3113  127.7059  155.0479 H   0  0  0  0  0  0  0  0  0  0  0  0
  155.2303  129.6609  156.2819 H   0  0  0  0  0  0  0  0  0  0  0  0
  153.7959  131.6490  156.6997 H   0  0  0  0  0  0  0  0  0  0  0  0
  151.4718  131.7003  155.9004 H   0  0  0  0  0  0  0  0  0  0  0  0
  1  2  2  0  0  0  0
  2  3  1  0  0  0  0
  2 38  1  0  0  0  0
  3  4  1  0  0  0  0
  4  5  1  0  0  0  0
  4 44  1  0  0  0  0
  4 45  1  0  0  0  0
  5 36  1  0  0  0  0
  5  6  1  0  0  0  0
  5 46  1  0  0  0  0
  6  7  1  0  0  0  0
  7  8  1  0  0  0  0
  7 34  1  0  0  0  0
  7 47  1  0  0  0  0
  8 33  1  0  0  0  0
  8  9  1  0  0  0  0
  9 10  2  0  0  0  0
  9 48  1  0  0  0  0
 10 11  1  0  0  0  0
 11 33  2  0  0  0  0
 11 12  1  0  0  0  0
 12 13  1  0  0  0  0
 12 30  2  0  0  0  0
 13 14  1  0  0  0  0
 13 22  1  0  0  0  0
 14 15  2  0  0  0  0
 14 16  1  0  0  0  0
 16 21  1  0  0  0  0
 16 17  2  0  0  0  0
 17 18  1  0  0  0  0
 17 49  1  0  0  0  0
 18 19  2  0  0  0  0
 18 50  1  0  0  0  0
 19 20  1  0  0  0  0
 19 51  1  0  0  0  0
 20 21  2  0  0  0  0
 20 52  1  0  0  0  0
 21 53  1  0  0  0  0
 22 23  2  0  0  0  0
 22 24  1  0  0  0  0
 24 29  1  0  0  0  0
 24 25  2  0  0  0  0
 25 26  1  0  0  0  0
 25 54  1  0  0  0  0
 26 27  2  0  0  0  0
 26 55  1  0  0  0  0
 27 28  1  0  0  0  0
 27 56  1  0  0  0  0
 28 29  2  0  0  0  0
 28 57  1  0  0  0  0
 29 58  1  0  0  0  0
 30 31  1  0  0  0  0
 31 32  2  0  0  0  0
 31 59  1  0  0  0  0
 32 33  1  0  0  0  0
 34 35  1  0  0  0  0
 34 36  1  0  0  0  0
 34 60  1  0  0  0  0
 35 61  1  0  0  0  0
 36 37  1  0  0  0  0
 36 62  1  0  0  0  0
 38 43  1  0  0  0  0
 38 39  2  0  0  0  0
 39 40  1  0  0  0  0
 39 63  1  0  0  0  0
 40 41  2  0  0  0  0
 40 64  1  0  0  0  0
 41 42  1  0  0  0  0
 41 65  1  0  0  0  0
 42 43  2  0  0  0  0
 42 66  1  0  0  0  0
 43 67  1  0  0  0  0
M  END
> <s_m_source_file>
AV-unprocessed.smi

> <i_m_source_file_index>
33

> <i_lp_mmshare_version>
43012

> <i_f3d_flags>
0

> <s_epik_input>
W2NIXTFbY0hdW2NIXVtjSF1bY0hdYzFDKD1PKU9bQ0gyXVtDQEBIXTJPW0NASF0oW0NAQEhdKFtPSF0pW0NAQEhdMkYpbihbY0hdbjMpYyhjMzQpbltjSF1uYzROKEMoPU8pYzVbY0hdW2NIXVtjSF1bY0hdW2NIXTUpQyg9TyljNltjSF1bY0hdW2NIXVtjSF1bY0hdNg==

> <s_epik_cmdline>
J2VwaWtfcHl0aG9uJywgJy1waCcsICc3LjAnLCAnLXRuJywgJzgnLCAnLW1hJywgJzIwMCcsICctbWV0YWxfYmluZGluZycsICctaW1hZScsICc8aW5maWxlLm1hZT4nLCAnLW9tYWUnLCAnPG91dGZpbGUubWFlPic=

> <r_lp_tautomer_probability>
1

> <r_epik_Ionization_Penalty>
0.00067664

> <r_epik_Ionization_Penalty_Charging>
0

> <r_epik_Ionization_Penalty_Neutral>
0.00067664

> <r_epik_State_Penalty>
0.000428095

> <r_epik_Charging_Adjusted_Penalty>
0.000428095

> <i_epik_Tot_Q>
0

> <i_epik_Tot_abs_Q>
0

> <r_epik_Metal_State_Penalty>
-0

> <b_epik_Metal_Only>
0

> <s_epik_Chemistry_Notes>
This compound has an ester and may undergo hydrolysis at high or low pH. This compound contains an acetal/aminal-like group ( X-CH(R)-Y where X, Y are N, S, or O) that may be acid/base labile, releasing an aldehyde.

> <s_lp_Force_Field>
OPLS_2005

> <r_lp_Energy>
71.8737

> <b_lp_Chiralities_Consistent>
1

> <s_lp_Variant>
AV-unprocessed.smi:33-1

> <Gold.Version>
5.8.1

> <Gold.Id.Protein>
6NUR|6NUR_protein|mol2

> <Gold.PLP.Fitness>
60.6041

> <Gold.PLP.PLP>
-59.7241

> <Gold.PLP.part.hbond>
-1.9570

> <Gold.PLP.part.metal>
0.0000

> <Gold.PLP.part.buried>
-6.7914

> <Gold.PLP.part.nonpolar>
-50.8333

> <Gold.PLP.part.repulsive>
0.9446

> <Gold.PLP.ligand.clash>
0.0000

> <Gold.PLP.ligand.torsion>
4.2027

> <Gold.PLP.Chemscore.Hbond>
1.3478

> <Gold.PLP.Chemscore.CHOScore>
0.0000

> <Gold.PLP.Chemscore.Metal>
0.0000

> <Gold.Chemscore.Hbonds>
donor molecule, donor type, donor heavy atom, donor atom, acceptor molecule, acceptor atom, score
      L1  H    35    61       P1  7948  0.73
      P1  H  7989  7998       L1    23  0.45

> <Gold.PLP.Chemscore.Internal.Correction>
5.2420

> <Gold.Rescore>
     Score         DG    S(hbond)    S(metal)    S(lipo)     H(rot)  DE(clash)    DE(int)     intcor
     12.38     -19.14       1.05        0.00     141.89       2.52       0.04       6.71       ----

> <Gold.Chemscore.Fitness>
12.3826

> <Gold.Chemscore.DG>
-19.1410

> <Gold.Chemscore.ZeroCoef>
-5.4800

> <Gold.Chemscore.Hbond>
1.0547

> <Gold.Chemscore.Metal>
0.0000

> <Gold.Chemscore.Lipo>
141.8926

> <Gold.Chemscore.Internal_Hbond>
0.0000

> <Gold.Chemscore.DEClash>
0.0434

> <Gold.Chemscore.DEInternal>
6.7149

> <Gold.Chemscore.Rot>
2.5247

> <Gold.Chemscore.Internal.Correction>
   9.000000E+99

> <Gold.Chemscore.Hbonds>
donor molecule, donor type, donor heavy atom, donor atom, acceptor molecule, acceptor atom, score
      L1  H    35    61       P1  7948  0.70
      P1  H  7989  7998       L1    23  0.38

> <Gold.Chemscore.Hbond.Weighted>
-3.5228

> <Gold.Chemscore.Metal.Weighted>
-0.0000

> <Gold.Chemscore.Lipo.Weighted>
-16.6014

> <Gold.Chemscore.Internal_Hbond.Weighted>
0.0000

> <Gold.Chemscore.DEClash.Weighted>
0.0434

> <Gold.Chemscore.DEInternal.Weighted>
6.7149

> <Gold.Chemscore.Rot.Weighted>
6.4633

> <Gold.Chemscore.Internal.Correction.Weighted>
   9.000000E+99

> <Gold.Protein.RotatedTorsions>
[ 6907 6896 6895 6894 ] final  -99.07 input  -60.11 | X-H torsion
[ 7974 7965 7964 7962 ] final  169.68 input  175.53 | X-H torsion
[ 8008 7997 7996 7995 ] final  -24.75 input   59.86 | X-H torsion
[ 10167 10162 10161 10158 ] final  110.49 input  -65.29 | X-H torsion
[ 10718 10713 10712 10709 ] final -122.48 input   66.30 | X-H torsion
[ 10763 10752 10751 10750 ] final  -28.80 input  -60.55 | X-H torsion
[ 11005 11000 10999 10996 ] final -106.81 input  -57.11 | X-H torsion

> <Gold.Protein.ActiveResidues>
 VAL166  LYS551  ARG553  GLY616  TRP617  ASP618  TYR619  PRO620  LYS621  CYS622 
 ASP623  PHE694  ASN695  SER759  ASP760  ASP761  ALA762  ILE779  LEU786  VAL792 
 PHE793  MET794  SER795  GLU796  ALA797  LYS798  CYS799  TRP800  GLU811  SER814 

> <Gold.Protein.RotatedAtoms>
  150.7067  134.1097  159.3995 H   0  0  0  0  0  0  0  0  0  0  0  0  # atno 6907 bound_to 6896
  151.9083  135.0347  160.0521 H   0  0  0  0  0  0  0  0  0  0  0  0  # atno 6908 bound_to 6896
  152.2357  133.5059  159.5278 H   0  0  0  0  0  0  0  0  0  0  0  0  # atno 6909 bound_to 6896
  144.7347  139.9090  143.6414 H   0  0  0  0  0  0  0  0  0  0  0  0  # atno 7974 bound_to 7965
  154.4512  140.1945  156.0513 H   0  0  0  0  0  0  0  0  0  0  0  0  # atno 8008 bound_to 7997
  156.0652  140.3291  155.7482 H   0  0  0  0  0  0  0  0  0  0  0  0  # atno 8009 bound_to 7997
  155.5350  140.0581  157.2872 H   0  0  0  0  0  0  0  0  0  0  0  0  # atno 8010 bound_to 7997
  139.6684  144.7126  151.1734 H   0  0  0  0  0  0  0  0  0  0  0  0  # atno 10167 bound_to 10162
  156.1422  130.6474  150.9788 H   0  0  0  0  0  0  0  0  0  0  0  0  # atno 10718 bound_to 10713
  153.7543  135.6924  153.4939 H   0  0  0  0  0  0  0  0  0  0  0  0  # atno 10763 bound_to 10752
  153.1982  135.4446  155.0232 H   0  0  0  0  0  0  0  0  0  0  0  0  # atno 10764 bound_to 10752
  154.8176  135.3406  154.7062 H   0  0  0  0  0  0  0  0  0  0  0  0  # atno 10765 bound_to 10752
  141.0986  133.8926  157.1901 H   0  0  0  0  0  0  0  0  0  0  0  0  # atno 11005 bound_to 11000
  146.1015  139.4011  143.0344 LP  0  0  0  0  0  0  0  0  0  0  0  0  # atno 17320 bound_to 7965
  145.7572  140.9949  143.1219 LP  0  0  0  0  0  0  0  0  0  0  0  0  # atno 17321 bound_to 7965
  140.7608  143.5883  150.8823 LP  0  0  0  0  0  0  0  0  0  0  0  0  # atno 17342 bound_to 10162
  139.9546  143.6232  152.3019 LP  0  0  0  0  0  0  0  0  0  0  0  0  # atno 17343 bound_to 10162
  157.6585  131.0885  150.7891 LP  0  0  0  0  0  0  0  0  0  0  0  0  # atno 17370 bound_to 10713
  156.7966  130.4907  149.5376 LP  0  0  0  0  0  0  0  0  0  0  0  0  # atno 17371 bound_to 10713
  139.9830  135.0092  156.9795 LP  0  0  0  0  0  0  0  0  0  0  0  0  # atno 17394 bound_to 11000
  140.5079  134.1031  155.7264 LP  0  0  0  0  0  0  0  0  0  0  0  0  # atno 17395 bound_to 11000

$$$$
