AV-unprocessed.smi:3116|AV-procd|sdf|11875|dock8
  -GOLD-   2272017263D 1   1.00000     0.00000
 Structure written by MMmdl.
 33 33  0  0  0  0  0  0  0  0  1 V2000
  148.2808  141.6736  153.9829 C   0  0  0  0  0  0  0  0  0  0  0  0
  149.3726  140.8094  154.6321 C   0  0  1  0  0  0  0  0  0  0  0  0
  149.4579  141.1165  156.0711 N   0  0  0  0  0  0  0  0  0  0  0  0
  150.8171  141.2362  156.6034 C   0  0  2  0  0  0  0  0  0  0  0  0
  151.5455  139.9350  156.2258 C   0  0  0  0  0  0  0  0  0  0  0  0
  150.7571  141.4779  158.1374 C   0  0  1  0  0  0  0  0  0  0  0  0
  151.2583  140.2735  158.9582 C   0  0  0  0  0  0  0  0  0  0  0  0
  151.4873  142.6816  158.5214 N   0  0  0  0  0  0  0  0  0  0  0  0
  151.6278  143.8545  157.8081 C   0  0  0  0  0  0  0  0  0  0  0  0
  152.4211  144.6882  158.5427 C   0  0  0  0  0  0  0  0  0  0  0  0
  152.7238  143.9279  159.7062 C   0  0  0  0  0  0  0  0  0  0  0  0
  152.1672  142.7278  159.6904 N   0  0  0  0  0  0  0  0  0  0  0  0
  149.1182  139.3185  154.3555 C   0  0  0  0  0  0  0  0  0  0  0  0
  149.0150  138.9446  153.0779 N   0  0  0  0  0  0  0  0  0  0  0  0
  149.0336  138.5132  155.2809 O   0  0  0  0  0  0  0  0  0  0  0  0
  148.1974  141.4706  152.9144 H   0  0  0  0  0  0  0  0  0  0  0  0
  148.5070  142.7345  154.0947 H   0  0  0  0  0  0  0  0  0  0  0  0
  147.3034  141.4949  154.4334 H   0  0  0  0  0  0  0  0  0  0  0  0
  150.3169  141.0905  154.1647 H   0  0  0  0  0  0  0  0  0  0  0  0
  148.9261  141.9400  156.3128 H   0  0  0  0  0  0  0  0  0  0  0  0
  151.3537  142.0635  156.1377 H   0  0  0  0  0  0  0  0  0  0  0  0
  152.5993  139.9704  156.5004 H   0  0  0  0  0  0  0  0  0  0  0  0
  151.5063  139.7620  155.1495 H   0  0  0  0  0  0  0  0  0  0  0  0
  151.1000  139.0697  156.7177 H   0  0  0  0  0  0  0  0  0  0  0  0
  149.7142  141.6412  158.4146 H   0  0  0  0  0  0  0  0  0  0  0  0
  150.6142  139.4039  158.8308 H   0  0  0  0  0  0  0  0  0  0  0  0
  151.2710  140.5056  160.0237 H   0  0  0  0  0  0  0  0  0  0  0  0
  152.2693  139.9841  158.6696 H   0  0  0  0  0  0  0  0  0  0  0  0
  151.1606  143.9953  156.8444 H   0  0  0  0  0  0  0  0  0  0  0  0
  152.7386  145.6879  158.2863 H   0  0  0  0  0  0  0  0  0  0  0  0
  153.3297  144.2093  160.5547 H   0  0  0  0  0  0  0  0  0  0  0  0
  148.8428  137.9765  152.8483 H   0  0  0  0  0  0  0  0  0  0  0  0
  149.1046  139.6343  152.3461 H   0  0  0  0  0  0  0  0  0  0  0  0
  1  2  1  0  0  0  0
  1 16  1  0  0  0  0
  1 17  1  0  0  0  0
  1 18  1  0  0  0  0
  2  3  1  0  0  0  0
  2 13  1  0  0  0  0
  2 19  1  0  0  0  0
  3  4  1  0  0  0  0
  3 20  1  0  0  0  0
  4  5  1  0  0  0  0
  4  6  1  0  0  0  0
  4 21  1  0  0  0  0
  5 22  1  0  0  0  0
  5 23  1  0  0  0  0
  5 24  1  0  0  0  0
  6  7  1  0  0  0  0
  6  8  1  0  0  0  0
  6 25  1  0  0  0  0
  7 26  1  0  0  0  0
  7 27  1  0  0  0  0
  7 28  1  0  0  0  0
  8 12  1  0  0  0  0
  8  9  1  0  0  0  0
  9 10  2  0  0  0  0
  9 29  1  0  0  0  0
 10 11  1  0  0  0  0
 10 30  1  0  0  0  0
 11 12  2  0  0  0  0
 11 31  1  0  0  0  0
 13 14  1  0  0  0  0
 13 15  2  0  0  0  0
 14 32  1  0  0  0  0
 14 33  1  0  0  0  0
M  END
> <s_m_source_file>
AV-unprocessed.smi

> <i_m_source_file_index>
3116

> <i_lp_mmshare_version>
43012

> <i_f3d_flags>
0

> <s_epik_input>
W05IMl1DKD1PKVtDQEhdKFtDSDNdKVtOSF1bQ0BIXShbQ0gzXSlbQ0BIXShbQ0gzXSluMVtjSF1bY0hdW2NIXW4x

> <s_epik_cmdline>
J2VwaWtfcHl0aG9uJywgJy1waCcsICc3LjAnLCAnLXRuJywgJzgnLCAnLW1hJywgJzIwMCcsICctbWV0YWxfYmluZGluZycsICctaW1hZScsICc8aW5maWxlLm1hZT4nLCAnLW9tYWUnLCAnPG91dGZpbGUubWFlPic=

> <r_lp_tautomer_probability>
1

> <r_epik_Ionization_Penalty>
0.865977

> <r_epik_Ionization_Penalty_Charging>
0

> <r_epik_Ionization_Penalty_Neutral>
0.865977

> <r_epik_State_Penalty>
0.901888

> <r_epik_Charging_Adjusted_Penalty>
0.901888

> <i_epik_Tot_Q>
0

> <i_epik_Tot_abs_Q>
0

> <r_epik_Metal_State_Penalty>
0.901181

> <b_epik_Metal_Only>
0

> <s_lp_Force_Field>
OPLS_2005

> <r_lp_Energy>
8.89759

> <b_lp_Chiralities_Consistent>
1

> <s_lp_Variant>
AV-unprocessed.smi:3116-14

> <Gold.Version>
5.8.1

> <Gold.Id.Protein>
6NUR|6NUR_protein|mol2

> <Gold.PLP.Fitness>
38.6276

> <Gold.PLP.PLP>
-34.8572

> <Gold.PLP.part.hbond>
-1.9468

> <Gold.PLP.part.metal>
0.0000

> <Gold.PLP.part.buried>
-5.1768

> <Gold.PLP.part.nonpolar>
-28.5655

> <Gold.PLP.part.repulsive>
0.1642

> <Gold.PLP.ligand.clash>
0.0000

> <Gold.PLP.ligand.torsion>
2.6784

> <Gold.PLP.Chemscore.Hbond>
2.0000

> <Gold.PLP.Chemscore.CHOScore>
1.0000

> <Gold.PLP.Chemscore.Metal>
0.0000

> <Gold.Chemscore.Hbonds>
donor molecule, donor type, donor heavy atom, donor atom, acceptor molecule, acceptor atom, score
      L1  H    14    32       P1  7948  1.00
      L1  H    14    33       P1  7957  0.54
      L1  C     9    29       P1  8028  0.72

> <Gold.PLP.Chemscore.Internal.Correction>
0.1273

> <Gold.Rescore>
     Score         DG    S(hbond)    S(metal)    S(lipo)     H(rot)  DE(clash)    DE(int)     intcor
     13.21     -15.16       1.96        0.00      78.82       2.38       0.01       1.93       ----

> <Gold.Chemscore.Fitness>
13.2119

> <Gold.Chemscore.DG>
-15.1562

> <Gold.Chemscore.ZeroCoef>
-5.4800

> <Gold.Chemscore.Hbond>
1.9631

> <Gold.Chemscore.Metal>
0.0000

> <Gold.Chemscore.Lipo>
78.8157

> <Gold.Chemscore.Internal_Hbond>
0.0000

> <Gold.Chemscore.DEClash>
0.0093

> <Gold.Chemscore.DEInternal>
1.9350

> <Gold.Chemscore.Rot>
2.3836

> <Gold.Chemscore.Internal.Correction>
   9.000000E+99

> <Gold.Chemscore.Hbonds>
donor molecule, donor type, donor heavy atom, donor atom, acceptor molecule, acceptor atom, score
      L1  H    14    32       P1  7948  0.96
      L1  H    14    33       P1  7957  0.51

> <Gold.Chemscore.Hbond.Weighted>
-6.5567

> <Gold.Chemscore.Metal.Weighted>
-0.0000

> <Gold.Chemscore.Lipo.Weighted>
-9.2214

> <Gold.Chemscore.Internal_Hbond.Weighted>
0.0000

> <Gold.Chemscore.DEClash.Weighted>
0.0093

> <Gold.Chemscore.DEInternal.Weighted>
1.9350

> <Gold.Chemscore.Rot.Weighted>
6.1020

> <Gold.Chemscore.Internal.Correction.Weighted>
   9.000000E+99

> <Gold.Protein.RotatedTorsions>
[ 6907 6896 6895 6894 ] final   55.66 input  -60.11 | X-H torsion
[ 7974 7965 7964 7962 ] final  -93.67 input  175.53 | X-H torsion
[ 8008 7997 7996 7995 ] final   46.50 input   59.86 | X-H torsion
[ 10167 10162 10161 10158 ] final -128.33 input  -65.29 | X-H torsion
[ 10718 10713 10712 10709 ] final   26.41 input   66.30 | X-H torsion
[ 10763 10752 10751 10750 ] final   79.91 input  -60.55 | X-H torsion
[ 11005 11000 10999 10996 ] final   28.61 input  -57.11 | X-H torsion

> <Gold.Protein.ActiveResidues>
 VAL166  LYS551  ARG553  GLY616  TRP617  ASP618  TYR619  PRO620  LYS621  CYS622 
 ASP623  PHE694  ASN695  SER759  ASP760  ASP761  ALA762  ILE779  LEU786  VAL792 
 PHE793  MET794  SER795  GLU796  ALA797  LYS798  CYS799  TRP800  GLU811  SER814 

> <Gold.Protein.RotatedAtoms>
  152.3561  134.6938  160.0221 H   0  0  0  0  0  0  0  0  0  0  0  0  # atno 6907 bound_to 6896
  151.7277  133.3311  159.3340 H   0  0  0  0  0  0  0  0  0  0  0  0  # atno 6908 bound_to 6896
  150.7572  134.6325  159.6238 H   0  0  0  0  0  0  0  0  0  0  0  0  # atno 6909 bound_to 6896
  145.3835  140.9520  143.2380 H   0  0  0  0  0  0  0  0  0  0  0  0  # atno 7974 bound_to 7965
  155.3536  140.3415  155.4239 H   0  0  0  0  0  0  0  0  0  0  0  0  # atno 8008 bound_to 7997
  156.1751  140.1645  156.8412 H   0  0  0  0  0  0  0  0  0  0  0  0  # atno 8009 bound_to 7997
  154.5273  140.0753  156.8265 H   0  0  0  0  0  0  0  0  0  0  0  0  # atno 8010 bound_to 7997
  139.9514  143.6051  152.2474 H   0  0  0  0  0  0  0  0  0  0  0  0  # atno 10167 bound_to 10162
  157.2064  130.6914  149.6210 H   0  0  0  0  0  0  0  0  0  0  0  0  # atno 10718 bound_to 10713
  153.0991  135.4822  154.8833 H   0  0  0  0  0  0  0  0  0  0  0  0  # atno 10763 bound_to 10752
  154.7358  135.3070  154.8816 H   0  0  0  0  0  0  0  0  0  0  0  0  # atno 10764 bound_to 10752
  153.9438  135.6831  153.4797 H   0  0  0  0  0  0  0  0  0  0  0  0  # atno 10765 bound_to 10752
  140.3137  134.2621  155.7729 H   0  0  0  0  0  0  0  0  0  0  0  0  # atno 11005 bound_to 11000
  144.8491  139.5350  143.6865 LP  0  0  0  0  0  0  0  0  0  0  0  0  # atno 17320 bound_to 7965
  146.2831  139.6931  142.9215 LP  0  0  0  0  0  0  0  0  0  0  0  0  # atno 17321 bound_to 7965
  139.6625  144.7662  151.1935 LP  0  0  0  0  0  0  0  0  0  0  0  0  # atno 17342 bound_to 10162
  140.7581  143.5988  150.8721 LP  0  0  0  0  0  0  0  0  0  0  0  0  # atno 17343 bound_to 10162
  155.9695  130.4565  150.5929 LP  0  0  0  0  0  0  0  0  0  0  0  0  # atno 17370 bound_to 10713
  157.3716  131.0766  151.1553 LP  0  0  0  0  0  0  0  0  0  0  0  0  # atno 17371 bound_to 10713
  141.2102  133.7725  156.9945 LP  0  0  0  0  0  0  0  0  0  0  0  0  # atno 17394 bound_to 11000
  140.1002  134.9540  157.1911 LP  0  0  0  0  0  0  0  0  0  0  0  0  # atno 17395 bound_to 11000

$$$$
