AV-unprocessed.smi:2438|AV-procd|sdf|9597|dock5
  -GOLD-   2272013233D 1   1.00000     0.00000
 Structure written by MMmdl.
 43 44  0  0  0  0  0  0  0  0  1 V2000
  152.3460  139.8004  159.1595 C   0  0  0  0  0  0  0  0  0  0  0  0
  151.6998  140.0559  157.8783 N   0  0  0  0  0  0  0  0  0  0  0  0
  150.4346  140.7756  157.9326 C   0  0  0  0  0  0  0  0  0  0  0  0
  151.6944  138.9903  156.9557 C   0  0  0  0  0  0  0  0  0  0  0  0
  152.4199  139.1286  155.8192 N   0  0  0  0  0  0  0  0  0  0  0  0
  152.4298  138.1049  154.9640 C   0  0  0  0  0  0  0  0  0  0  0  0
  151.7905  136.9435  155.1036 N   0  0  0  0  0  0  0  0  0  0  0  0
  151.0597  136.7845  156.2265 C   0  0  0  0  0  0  0  0  0  0  0  0
  150.9762  137.7940  157.2164 C   0  0  0  0  0  0  0  0  0  0  0  0
  150.1660  137.6740  158.3784 N   0  0  0  0  0  0  0  0  0  0  0  0
  149.1976  136.7737  158.6108 C   0  0  0  0  0  0  0  0  0  0  0  0
  148.8693  135.8739  157.8375 O   0  0  0  0  0  0  0  0  0  0  0  0
  148.6447  136.9595  159.8174 N   0  0  0  0  0  0  0  0  0  0  0  0
  147.6015  136.1275  160.4092 C   0  0  2  0  0  0  0  0  0  0  0  0
  147.2567  136.6559  161.8127 C   0  0  0  0  0  0  0  0  0  0  0  0
  146.2201  135.7605  162.5065 C   0  0  0  0  0  0  0  0  0  0  0  0
  146.7000  134.3025  162.5725 C   0  0  0  0  0  0  0  0  0  0  0  0
  147.0334  133.7494  161.1710 C   0  0  2  0  0  0  0  0  0  0  0  0
  147.5020  132.2805  161.2268 C   0  0  0  0  0  0  0  0  0  0  0  0
  146.5292  131.4890  161.6800 F   0  0  0  0  0  0  0  0  0  0  0  0
  147.8609  131.8687  160.0108 F   0  0  0  0  0  0  0  0  0  0  0  0
  148.5582  132.1683  162.0320 F   0  0  0  0  0  0  0  0  0  0  0  0
  148.0671  134.6586  160.4720 C   0  0  0  0  0  0  0  0  0  0  0  0
  153.3099  139.3096  159.0187 H   0  0  0  0  0  0  0  0  0  0  0  0
  151.7220  139.1677  159.7920 H   0  0  0  0  0  0  0  0  0  0  0  0
  152.5224  140.7387  159.6858 H   0  0  0  0  0  0  0  0  0  0  0  0
  150.0890  141.0693  156.9415 H   0  0  0  0  0  0  0  0  0  0  0  0
  150.5395  141.6814  158.5303 H   0  0  0  0  0  0  0  0  0  0  0  0
  149.6640  140.1540  158.3902 H   0  0  0  0  0  0  0  0  0  0  0  0
  153.0132  138.2315  154.0641 H   0  0  0  0  0  0  0  0  0  0  0  0
  150.5204  135.8529  156.3080 H   0  0  0  0  0  0  0  0  0  0  0  0
  150.4106  138.2837  159.1453 H   0  0  0  0  0  0  0  0  0  0  0  0
  148.9836  137.7266  160.3793 H   0  0  0  0  0  0  0  0  0  0  0  0
  146.6987  136.1849  159.7977 H   0  0  0  0  0  0  0  0  0  0  0  0
  148.1591  136.7027  162.4242 H   0  0  0  0  0  0  0  0  0  0  0  0
  146.8752  137.6755  161.7455 H   0  0  0  0  0  0  0  0  0  0  0  0
  146.0229  136.1328  163.5122 H   0  0  0  0  0  0  0  0  0  0  0  0
  145.2730  135.8104  161.9675 H   0  0  0  0  0  0  0  0  0  0  0  0
  147.5794  134.2394  163.2145 H   0  0  0  0  0  0  0  0  0  0  0  0
  145.9308  133.6909  163.0444 H   0  0  0  0  0  0  0  0  0  0  0  0
  146.1172  133.7763  160.5788 H   0  0  0  0  0  0  0  0  0  0  0  0
  148.2557  134.2933  159.4620 H   0  0  0  0  0  0  0  0  0  0  0  0
  149.0192  134.5998  161.0012 H   0  0  0  0  0  0  0  0  0  0  0  0
  1  2  1  0  0  0  0
  1 24  1  0  0  0  0
  1 25  1  0  0  0  0
  1 26  1  0  0  0  0
  2  3  1  0  0  0  0
  2  4  1  0  0  0  0
  3 27  1  0  0  0  0
  3 28  1  0  0  0  0
  3 29  1  0  0  0  0
  4  9  1  0  0  0  0
  4  5  2  0  0  0  0
  5  6  1  0  0  0  0
  6  7  2  0  0  0  0
  6 30  1  0  0  0  0
  7  8  1  0  0  0  0
  8  9  2  0  0  0  0
  8 31  1  0  0  0  0
  9 10  1  0  0  0  0
 10 11  1  0  0  0  0
 10 32  1  0  0  0  0
 11 12  2  0  0  0  0
 11 13  1  0  0  0  0
 13 14  1  0  0  0  0
 13 33  1  0  0  0  0
 14 23  1  0  0  0  0
 14 15  1  0  0  0  0
 14 34  1  0  0  0  0
 15 16  1  0  0  0  0
 15 35  1  0  0  0  0
 15 36  1  0  0  0  0
 16 17  1  0  0  0  0
 16 37  1  0  0  0  0
 16 38  1  0  0  0  0
 17 18  1  0  0  0  0
 17 39  1  0  0  0  0
 17 40  1  0  0  0  0
 18 19  1  0  0  0  0
 18 23  1  0  0  0  0
 18 41  1  0  0  0  0
 19 20  1  0  0  0  0
 19 21  1  0  0  0  0
 19 22  1  0  0  0  0
 23 42  1  0  0  0  0
 23 43  1  0  0  0  0
M  END
> <s_m_source_file>
AV-unprocessed.smi

> <i_m_source_file_index>
2438

> <i_lp_mmshare_version>
43012

> <i_f3d_flags>
0

> <s_epik_input>
W0NIM11OKFtDSDNdKWMxbltjSF1uW2NIXWMxW05IXUMoPU8pW05IXVtDQEBIXTJbQ0gyXVtDSDJdW0NIMl1bQ0BASF0oQyhGKShGKUYpW0NIMl0y

> <s_epik_cmdline>
J2VwaWtfcHl0aG9uJywgJy1waCcsICc3LjAnLCAnLXRuJywgJzgnLCAnLW1hJywgJzIwMCcsICctbWV0YWxfYmluZGluZycsICctaW1hZScsICc8aW5maWxlLm1hZT4nLCAnLW9tYWUnLCAnPG91dGZpbGUubWFlPic=

> <r_lp_tautomer_probability>
1

> <r_epik_Ionization_Penalty>
0.01759

> <r_epik_Ionization_Penalty_Charging>
0

> <r_epik_Ionization_Penalty_Neutral>
0.01759

> <r_epik_State_Penalty>
0.0133536

> <r_epik_Charging_Adjusted_Penalty>
0.0133536

> <i_epik_Tot_Q>
0

> <i_epik_Tot_abs_Q>
0

> <r_epik_Metal_State_Penalty>
0.0129828

> <b_epik_Metal_Only>
0

> <s_lp_Force_Field>
OPLS_2005

> <r_lp_Energy>
11.5061

> <b_lp_Chiralities_Consistent>
1

> <s_lp_Variant>
AV-unprocessed.smi:2438-3

> <Gold.Version>
5.8.1

> <Gold.Id.Protein>
6NUR|6NUR_protein|mol2

> <Gold.PLP.Fitness>
39.4666

> <Gold.PLP.PLP>
-33.7156

> <Gold.PLP.part.hbond>
-2.0000

> <Gold.PLP.part.metal>
0.0000

> <Gold.PLP.part.buried>
-5.7768

> <Gold.PLP.part.nonpolar>
-27.4512

> <Gold.PLP.part.repulsive>
1.0955

> <Gold.PLP.ligand.clash>
0.0000

> <Gold.PLP.ligand.torsion>
0.2824

> <Gold.PLP.Chemscore.Hbond>
1.9920

> <Gold.PLP.Chemscore.CHOScore>
0.0000

> <Gold.PLP.Chemscore.Metal>
0.0000

> <Gold.Chemscore.Hbonds>
donor molecule, donor type, donor heavy atom, donor atom, acceptor molecule, acceptor atom, score
      P1  H  7997  8009       L1     5  0.52
      P1  H 10752 10764       L1     7  1.00

> <Gold.PLP.Chemscore.Internal.Correction>
0.3398

> <Gold.Rescore>
     Score         DG    S(hbond)    S(metal)    S(lipo)     H(rot)  DE(clash)    DE(int)     intcor
     14.01     -15.69       1.67        0.00      68.07       1.30       0.05       1.62       ----

> <Gold.Chemscore.Fitness>
14.0108

> <Gold.Chemscore.DG>
-15.6855

> <Gold.Chemscore.ZeroCoef>
-5.4800

> <Gold.Chemscore.Hbond>
1.6664

> <Gold.Chemscore.Metal>
0.0000

> <Gold.Chemscore.Lipo>
68.0721

> <Gold.Chemscore.Internal_Hbond>
0.0000

> <Gold.Chemscore.DEClash>
0.0529

> <Gold.Chemscore.DEInternal>
1.6217

> <Gold.Chemscore.Rot>
1.2987

> <Gold.Chemscore.Internal.Correction>
   9.000000E+99

> <Gold.Chemscore.Hbonds>
donor molecule, donor type, donor heavy atom, donor atom, acceptor molecule, acceptor atom, score
      P1  H  7997  8009       L1     5  0.42
      P1  H 10752 10764       L1     7  0.60

> <Gold.Chemscore.Hbond.Weighted>
-5.5656

> <Gold.Chemscore.Metal.Weighted>
-0.0000

> <Gold.Chemscore.Lipo.Weighted>
-7.9644

> <Gold.Chemscore.Internal_Hbond.Weighted>
0.0000

> <Gold.Chemscore.DEClash.Weighted>
0.0529

> <Gold.Chemscore.DEInternal.Weighted>
1.6217

> <Gold.Chemscore.Rot.Weighted>
3.3246

> <Gold.Chemscore.Internal.Correction.Weighted>
   9.000000E+99

> <Gold.Protein.RotatedTorsions>
[ 6907 6896 6895 6894 ] final   57.45 input  -60.11 | X-H torsion
[ 7974 7965 7964 7962 ] final  -44.91 input  175.53 | X-H torsion
[ 8008 7997 7996 7995 ] final -148.32 input   59.86 | X-H torsion
[ 10167 10162 10161 10158 ] final  -83.64 input  -65.29 | X-H torsion
[ 10718 10713 10712 10709 ] final -133.71 input   66.30 | X-H torsion
[ 10763 10752 10751 10750 ] final  -55.60 input  -60.55 | X-H torsion
[ 11005 11000 10999 10996 ] final  124.96 input  -57.11 | X-H torsion

> <Gold.Protein.ActiveResidues>
 VAL166  LYS551  ARG553  GLY616  TRP617  ASP618  TYR619  PRO620  LYS621  CYS622 
 ASP623  PHE694  ASN695  SER759  ASP760  ASP761  ALA762  ILE779  LEU786  VAL792 
 PHE793  MET794  SER795  GLU796  ALA797  LYS798  CYS799  TRP800  GLU811  SER814 

> <Gold.Protein.RotatedAtoms>
  152.3733  134.6702  160.0168 H   0  0  0  0  0  0  0  0  0  0  0  0  # atno 6907 bound_to 6896
  151.6988  133.3305  159.3269 H   0  0  0  0  0  0  0  0  0  0  0  0  # atno 6908 bound_to 6896
  150.7690  134.6569  159.6363 H   0  0  0  0  0  0  0  0  0  0  0  0  # atno 6909 bound_to 6896
  145.9873  140.7219  142.9334 H   0  0  0  0  0  0  0  0  0  0  0  0  # atno 7974 bound_to 7965
  155.5897  140.0651  157.2762 H   0  0  0  0  0  0  0  0  0  0  0  0  # atno 8008 bound_to 7997
  154.4308  140.1837  156.1109 H   0  0  0  0  0  0  0  0  0  0  0  0  # atno 8009 bound_to 7997
  156.0242  140.3313  155.7074 H   0  0  0  0  0  0  0  0  0  0  0  0  # atno 8010 bound_to 7997
  140.4207  143.2586  151.8894 H   0  0  0  0  0  0  0  0  0  0  0  0  # atno 10167 bound_to 10162
  156.2478  130.7135  151.1022 H   0  0  0  0  0  0  0  0  0  0  0  0  # atno 10718 bound_to 10713
  154.1934  135.6423  153.5066 H   0  0  0  0  0  0  0  0  0  0  0  0  # atno 10763 bound_to 10752
  153.0029  135.5434  154.6391 H   0  0  0  0  0  0  0  0  0  0  0  0  # atno 10764 bound_to 10752
  154.5786  135.2923  155.0729 H   0  0  0  0  0  0  0  0  0  0  0  0  # atno 10765 bound_to 10752
  139.9383  134.9638  156.8487 H   0  0  0  0  0  0  0  0  0  0  0  0  # atno 11005 bound_to 11000
  144.6878  140.3010  143.7263 LP  0  0  0  0  0  0  0  0  0  0  0  0  # atno 17320 bound_to 7965
  145.7682  139.1848  143.2228 LP  0  0  0  0  0  0  0  0  0  0  0  0  # atno 17321 bound_to 7965
  139.4782  144.5440  151.8485 LP  0  0  0  0  0  0  0  0  0  0  0  0  # atno 17342 bound_to 10162
  140.4537  144.1820  150.5899 LP  0  0  0  0  0  0  0  0  0  0  0  0  # atno 17343 bound_to 10162
  157.7202  131.0686  150.6166 LP  0  0  0  0  0  0  0  0  0  0  0  0  # atno 17370 bound_to 10713
  156.6244  130.4414  149.5810 LP  0  0  0  0  0  0  0  0  0  0  0  0  # atno 17371 bound_to 10713
  140.6017  134.0166  155.7540 LP  0  0  0  0  0  0  0  0  0  0  0  0  # atno 17394 bound_to 11000
  141.1007  133.9772  157.3083 LP  0  0  0  0  0  0  0  0  0  0  0  0  # atno 17395 bound_to 11000

$$$$
