AV-unprocessed.smi:1533|AV-procd|sdf|6165|dock8
  -GOLD-   22720 6313D 1   1.00000     0.00000
 Structure written by MMmdl.
 37 39  0  0  0  0  0  0  0  0  1 V2000
  147.1339  135.7863  161.7580 C   0  0  0  0  0  0  0  0  0  0  0  0
  147.9213  136.1308  160.5400 C   0  0  0  0  0  0  0  0  0  0  0  0
  147.5213  135.7615  159.3293 N   0  0  0  0  0  0  0  0  0  0  0  0
  148.5166  136.2796  158.4879 O   0  0  0  0  0  0  0  0  0  0  0  0
  149.4100  136.8884  159.3042 C   0  0  0  0  0  0  0  0  0  0  0  0
  150.5810  137.5878  158.6999 C   0  0  0  0  0  0  0  0  0  0  0  0
  150.1668  138.8120  157.8678 C   0  0  0  0  0  0  0  0  0  0  0  0
  150.4947  140.0601  158.5477 N   0  0  0  0  0  0  0  0  0  0  0  0
  151.0624  141.1274  157.9643 C   0  0  0  0  0  0  0  0  0  0  0  0
  151.3689  141.1527  156.7719 O   0  0  0  0  0  0  0  0  0  0  0  0
  151.3161  142.3446  158.8714 C   0  0  1  0  0  0  0  0  0  0  0  0
  152.8083  142.7530  158.9459 C   0  0  0  0  0  0  0  0  0  0  0  0
  152.7895  144.2382  158.5331 C   0  0  2  0  0  0  0  0  0  0  0  0
  152.1067  145.0689  159.6364 C   0  0  0  0  0  0  0  0  0  0  0  0
  150.6229  144.6800  159.4853 C   0  0  0  0  0  0  0  0  0  0  0  0
  150.6611  143.6466  158.3431 C   0  0  1  0  0  0  0  0  0  0  0  0
  151.7339  144.2496  157.4364 C   0  0  0  0  0  0  0  0  0  0  0  0
  149.0795  136.8435  160.5925 N   0  0  0  0  0  0  0  0  0  0  0  0
  146.3741  135.0372  161.5324 H   0  0  0  0  0  0  0  0  0  0  0  0
  146.6385  136.6755  162.1486 H   0  0  0  0  0  0  0  0  0  0  0  0
  147.7904  135.3872  162.5315 H   0  0  0  0  0  0  0  0  0  0  0  0
  151.2563  137.8844  159.5037 H   0  0  0  0  0  0  0  0  0  0  0  0
  151.1280  136.8776  158.0789 H   0  0  0  0  0  0  0  0  0  0  0  0
  150.6850  138.8016  156.9083 H   0  0  0  0  0  0  0  0  0  0  0  0
  149.0989  138.7778  157.6438 H   0  0  0  0  0  0  0  0  0  0  0  0
  150.2759  140.1164  159.5320 H   0  0  0  0  0  0  0  0  0  0  0  0
  150.9396  142.1180  159.8707 H   0  0  0  0  0  0  0  0  0  0  0  0
  153.2204  142.6139  159.9459 H   0  0  0  0  0  0  0  0  0  0  0  0
  153.4298  142.1777  158.2573 H   0  0  0  0  0  0  0  0  0  0  0  0
  153.7662  144.6220  158.2371 H   0  0  0  0  0  0  0  0  0  0  0  0
  152.4987  144.8397  160.6281 H   0  0  0  0  0  0  0  0  0  0  0  0
  152.2426  146.1369  159.4608 H   0  0  0  0  0  0  0  0  0  0  0  0
  150.2003  144.2747  160.4053 H   0  0  0  0  0  0  0  0  0  0  0  0
  150.0276  145.5487  159.2005 H   0  0  0  0  0  0  0  0  0  0  0  0
  149.6931  143.4968  157.8627 H   0  0  0  0  0  0  0  0  0  0  0  0
  151.4879  145.2532  157.0845 H   0  0  0  0  0  0  0  0  0  0  0  0
  151.9965  143.6325  156.5770 H   0  0  0  0  0  0  0  0  0  0  0  0
  1  2  1  0  0  0  0
  1 19  1  0  0  0  0
  1 20  1  0  0  0  0
  1 21  1  0  0  0  0
  2 18  1  0  0  0  0
  2  3  2  0  0  0  0
  3  4  1  0  0  0  0
  4  5  1  0  0  0  0
  5  6  1  0  0  0  0
  5 18  2  0  0  0  0
  6  7  1  0  0  0  0
  6 22  1  0  0  0  0
  6 23  1  0  0  0  0
  7  8  1  0  0  0  0
  7 24  1  0  0  0  0
  7 25  1  0  0  0  0
  8  9  1  0  0  0  0
  8 26  1  0  0  0  0
  9 10  2  0  0  0  0
  9 11  1  0  0  0  0
 11 16  1  0  0  0  0
 11 12  1  0  0  0  0
 11 27  1  0  0  0  0
 12 13  1  0  0  0  0
 12 28  1  0  0  0  0
 12 29  1  0  0  0  0
 13 17  1  0  0  0  0
 13 14  1  0  0  0  0
 13 30  1  0  0  0  0
 14 15  1  0  0  0  0
 14 31  1  0  0  0  0
 14 32  1  0  0  0  0
 15 16  1  0  0  0  0
 15 33  1  0  0  0  0
 15 34  1  0  0  0  0
 16 17  1  0  0  0  0
 16 35  1  0  0  0  0
 17 36  1  0  0  0  0
 17 37  1  0  0  0  0
M  END
> <s_m_source_file>
AV-unprocessed.smi

> <i_m_source_file_index>
1533

> <i_lp_mmshare_version>
43012

> <i_f3d_flags>
0

> <s_epik_input>
W0NIM11jMW5vYyhuMSlbQ0gyXVtDSDJdW05IXUMoPU8pW0NASF0oW0NIMl1bQ0BASF0yMylbQ0BASF0oW0NIMl0zKVtDSDJdW0NIMl0y

> <s_epik_cmdline>
J2VwaWtfcHl0aG9uJywgJy1waCcsICc3LjAnLCAnLXRuJywgJzgnLCAnLW1hJywgJzIwMCcsICctbWV0YWxfYmluZGluZycsICctaW1hZScsICc8aW5maWxlLm1hZT4nLCAnLW9tYWUnLCAnPG91dGZpbGUubWFlPic=

> <r_lp_tautomer_probability>
1

> <r_epik_Ionization_Penalty>
1.90116e-08

> <r_epik_Ionization_Penalty_Charging>
0

> <r_epik_Ionization_Penalty_Neutral>
1.90116e-08

> <r_epik_State_Penalty>
-0

> <r_epik_Charging_Adjusted_Penalty>
0

> <i_epik_Tot_Q>
0

> <i_epik_Tot_abs_Q>
0

> <r_epik_Metal_State_Penalty>
-0

> <b_epik_Metal_Only>
0

> <s_lp_Force_Field>
OPLS_2005

> <r_lp_Energy>
42.7172

> <b_lp_Chiralities_Consistent>
1

> <s_lp_Variant>
AV-unprocessed.smi:1533-4

> <Gold.Version>
5.8.1

> <Gold.Id.Protein>
6NUR|6NUR_protein|mol2

> <Gold.PLP.Fitness>
38.4366

> <Gold.PLP.PLP>
-37.0265

> <Gold.PLP.part.hbond>
-1.0000

> <Gold.PLP.part.metal>
0.0000

> <Gold.PLP.part.buried>
-6.1173

> <Gold.PLP.part.nonpolar>
-31.2854

> <Gold.PLP.part.repulsive>
0.2316

> <Gold.PLP.ligand.clash>
0.0000

> <Gold.PLP.ligand.torsion>
0.5135

> <Gold.PLP.Chemscore.Hbond>
0.8000

> <Gold.PLP.Chemscore.CHOScore>
0.0000

> <Gold.PLP.Chemscore.Metal>
0.0000

> <Gold.Chemscore.Hbonds>
donor molecule, donor type, donor heavy atom, donor atom, acceptor molecule, acceptor atom, score
      P1  H  6931  6943       L1    18  0.75

> <Gold.PLP.Chemscore.Internal.Correction>
0.0372

> <Gold.Rescore>
     Score         DG    S(hbond)    S(metal)    S(lipo)     H(rot)  DE(clash)    DE(int)     intcor
     14.53     -15.01       0.89        0.00      96.47       1.85       0.00       0.48       ----

> <Gold.Chemscore.Fitness>
14.5302

> <Gold.Chemscore.DG>
-15.0122

> <Gold.Chemscore.ZeroCoef>
-5.4800

> <Gold.Chemscore.Hbond>
0.8919

> <Gold.Chemscore.Metal>
0.0000

> <Gold.Chemscore.Lipo>
96.4654

> <Gold.Chemscore.Internal_Hbond>
0.0000

> <Gold.Chemscore.DEClash>
0.0000

> <Gold.Chemscore.DEInternal>
0.4820

> <Gold.Chemscore.Rot>
1.8490

> <Gold.Chemscore.Internal.Correction>
   9.000000E+99

> <Gold.Chemscore.Hbonds>
donor molecule, donor type, donor heavy atom, donor atom, acceptor molecule, acceptor atom, score
      P1  H  6931  6943       L1    18  0.67

> <Gold.Chemscore.Hbond.Weighted>
-2.9791

> <Gold.Chemscore.Metal.Weighted>
-0.0000

> <Gold.Chemscore.Lipo.Weighted>
-11.2865

> <Gold.Chemscore.Internal_Hbond.Weighted>
0.0000

> <Gold.Chemscore.DEClash.Weighted>
0.0000

> <Gold.Chemscore.DEInternal.Weighted>
0.4820

> <Gold.Chemscore.Rot.Weighted>
4.7334

> <Gold.Chemscore.Internal.Correction.Weighted>
   9.000000E+99

> <Gold.Protein.RotatedTorsions>
[ 6907 6896 6895 6894 ] final   73.86 input  -60.11 | X-H torsion
[ 7974 7965 7964 7962 ] final  -46.67 input  175.53 | X-H torsion
[ 8008 7997 7996 7995 ] final  -84.63 input   59.86 | X-H torsion
[ 10167 10162 10161 10158 ] final  -32.66 input  -65.29 | X-H torsion
[ 10718 10713 10712 10709 ] final  178.00 input   66.30 | X-H torsion
[ 10763 10752 10751 10750 ] final  -87.13 input  -60.55 | X-H torsion
[ 11005 11000 10999 10996 ] final -173.57 input  -57.11 | X-H torsion

> <Gold.Protein.ActiveResidues>
 VAL166  LYS551  ARG553  GLY616  TRP617  ASP618  TYR619  PRO620  LYS621  CYS622 
 ASP623  PHE694  ASN695  SER759  ASP760  ASP761  ALA762  ILE779  LEU786  VAL792 
 PHE793  MET794  SER795  GLU796  ALA797  LYS798  CYS799  TRP800  GLU811  SER814 

> <Gold.Protein.RotatedAtoms>
  152.4946  134.4358  159.9527 H   0  0  0  0  0  0  0  0  0  0  0  0  # atno 6907 bound_to 6896
  151.4339  133.3656  159.2780 H   0  0  0  0  0  0  0  0  0  0  0  0  # atno 6908 bound_to 6896
  150.9135  134.8575  159.7501 H   0  0  0  0  0  0  0  0  0  0  0  0  # atno 6909 bound_to 6896
  145.9695  140.7398  142.9417 H   0  0  0  0  0  0  0  0  0  0  0  0  # atno 7974 bound_to 7965
  154.6319  140.0602  156.9742 H   0  0  0  0  0  0  0  0  0  0  0  0  # atno 8008 bound_to 7997
  155.1652  140.3286  155.4385 H   0  0  0  0  0  0  0  0  0  0  0  0  # atno 8009 bound_to 7997
  156.2487  140.1924  156.6757 H   0  0  0  0  0  0  0  0  0  0  0  0  # atno 8010 bound_to 7997
  140.7217  143.3678  151.1836 H   0  0  0  0  0  0  0  0  0  0  0  0  # atno 10167 bound_to 10162
  156.8971  130.9866  151.3041 H   0  0  0  0  0  0  0  0  0  0  0  0  # atno 10718 bound_to 10713
  154.6302  135.5424  153.7672 H   0  0  0  0  0  0  0  0  0  0  0  0  # atno 10763 bound_to 10752
  153.0281  135.6434  154.1312 H   0  0  0  0  0  0  0  0  0  0  0  0  # atno 10764 bound_to 10752
  154.1242  135.2918  155.3181 H   0  0  0  0  0  0  0  0  0  0  0  0  # atno 10765 bound_to 10752
  140.4842  134.6046  157.4931 H   0  0  0  0  0  0  0  0  0  0  0  0  # atno 11005 bound_to 11000
  144.6833  140.2724  143.7304 LP  0  0  0  0  0  0  0  0  0  0  0  0  # atno 17320 bound_to 7965
  145.7927  139.1933  143.2094 LP  0  0  0  0  0  0  0  0  0  0  0  0  # atno 17321 bound_to 7965
  139.7243  143.9173  152.2997 LP  0  0  0  0  0  0  0  0  0  0  0  0  # atno 17342 bound_to 10162
  139.8940  144.6949  150.8738 LP  0  0  0  0  0  0  0  0  0  0  0  0  # atno 17343 bound_to 10162
  157.6049  130.8539  149.8859 LP  0  0  0  0  0  0  0  0  0  0  0  0  # atno 17370 bound_to 10713
  156.0600  130.3701  150.1003 LP  0  0  0  0  0  0  0  0  0  0  0  0  # atno 17371 bound_to 10713
  139.9808  134.7141  155.9864 LP  0  0  0  0  0  0  0  0  0  0  0  0  # atno 17394 bound_to 11000
  141.1516  133.6548  156.4031 LP  0  0  0  0  0  0  0  0  0  0  0  0  # atno 17395 bound_to 11000

$$$$
