AV-unprocessed.smi:752|AV-procd|sdf|3596|dock10
  -GOLD-   22720 0593D 1   1.00000     0.00000
 Structure written by MMmdl.
 41 42  0  0  0  0  0  0  0  0  1 V2000
  154.3330  140.5378  160.6751 C   0  0  0  0  0  0  0  0  0  0  0  0
  153.9130  141.5968  161.6998 C   0  0  0  0  0  0  0  0  0  0  0  0
  152.9146  142.5607  161.1519 C   0  0  0  0  0  0  0  0  0  0  0  0
  152.4554  142.5117  159.8990 N   0  0  0  0  0  0  0  0  0  0  0  0
  151.5484  143.5380  159.6155 C   0  0  0  0  0  0  0  0  0  0  0  0
  150.9221  143.6280  158.2531 C   0  0  0  0  0  0  0  0  0  0  0  0
  150.8059  142.2432  157.6078 C   0  0  0  0  0  0  0  0  0  0  0  0
  151.0809  141.2295  158.2511 O   0  0  0  0  0  0  0  0  0  0  0  0
  150.4089  142.2172  156.3256 N   0  0  0  0  0  0  0  0  0  0  0  0
  150.2302  141.0163  155.5142 C   0  0  0  0  0  0  0  0  0  0  0  0
  148.8051  140.9009  154.9319 C   0  0  1  0  0  0  0  0  0  0  0  0
  148.2846  142.2318  154.3421 C   0  0  0  0  0  0  0  0  0  0  0  0
  146.8775  142.0835  153.7406 C   0  0  0  0  0  0  0  0  0  0  0  0
  146.8347  140.9702  152.6841 C   0  0  0  0  0  0  0  0  0  0  0  0
  147.3328  139.6405  153.2726 C   0  0  1  0  0  0  0  0  0  0  0  0
  147.3459  138.6534  152.2630 O   0  0  0  0  0  0  0  0  0  0  0  0
  148.7461  139.7906  153.8624 C   0  0  0  0  0  0  0  0  0  0  0  0
  151.3458  144.3871  160.6759 C   0  0  0  0  0  0  0  0  0  0  0  0
  152.2769  143.9183  162.0717 S   0  0  0  0  0  0  0  0  0  0  0  0
  155.0649  139.8525  161.1028 H   0  0  0  0  0  0  0  0  0  0  0  0
  154.7820  140.9991  159.7950 H   0  0  0  0  0  0  0  0  0  0  0  0
  153.4772  139.9479  160.3457 H   0  0  0  0  0  0  0  0  0  0  0  0
  153.4900  141.1143  162.5817 H   0  0  0  0  0  0  0  0  0  0  0  0
  154.7869  142.1541  162.0378 H   0  0  0  0  0  0  0  0  0  0  0  0
  149.9369  144.0911  158.3240 H   0  0  0  0  0  0  0  0  0  0  0  0
  151.5138  144.2645  157.5940 H   0  0  0  0  0  0  0  0  0  0  0  0
  150.2101  143.0997  155.8767 H   0  0  0  0  0  0  0  0  0  0  0  0
  150.9729  140.9672  154.7161 H   0  0  0  0  0  0  0  0  0  0  0  0
  150.4292  140.1613  156.1610 H   0  0  0  0  0  0  0  0  0  0  0  0
  148.1368  140.6116  155.7447 H   0  0  0  0  0  0  0  0  0  0  0  0
  148.2543  143.0037  155.1106 H   0  0  0  0  0  0  0  0  0  0  0  0
  148.9736  142.5880  153.5750 H   0  0  0  0  0  0  0  0  0  0  0  0
  146.1631  141.8617  154.5344 H   0  0  0  0  0  0  0  0  0  0  0  0
  146.5627  143.0284  153.2968 H   0  0  0  0  0  0  0  0  0  0  0  0
  145.8178  140.8579  152.3062 H   0  0  0  0  0  0  0  0  0  0  0  0
  147.4539  141.2558  151.8321 H   0  0  0  0  0  0  0  0  0  0  0  0
  146.6475  139.3112  154.0547 H   0  0  0  0  0  0  0  0  0  0  0  0
  148.1118  138.7837  151.7249 H   0  0  0  0  0  0  0  0  0  0  0  0
  149.4560  140.0153  153.0647 H   0  0  0  0  0  0  0  0  0  0  0  0
  149.0621  138.8414  154.2974 H   0  0  0  0  0  0  0  0  0  0  0  0
  150.7057  145.2555  160.7205 H   0  0  0  0  0  0  0  0  0  0  0  0
  1  2  1  0  0  0  0
  1 20  1  0  0  0  0
  1 21  1  0  0  0  0
  1 22  1  0  0  0  0
  2  3  1  0  0  0  0
  2 23  1  0  0  0  0
  2 24  1  0  0  0  0
  3 19  1  0  0  0  0
  3  4  2  0  0  0  0
  4  5  1  0  0  0  0
  5  6  1  0  0  0  0
  5 18  2  0  0  0  0
  6  7  1  0  0  0  0
  6 25  1  0  0  0  0
  6 26  1  0  0  0  0
  7  8  2  0  0  0  0
  7  9  1  0  0  0  0
  9 10  1  0  0  0  0
  9 27  1  0  0  0  0
 10 11  1  0  0  0  0
 10 28  1  0  0  0  0
 10 29  1  0  0  0  0
 11 17  1  0  0  0  0
 11 12  1  0  0  0  0
 11 30  1  0  0  0  0
 12 13  1  0  0  0  0
 12 31  1  0  0  0  0
 12 32  1  0  0  0  0
 13 14  1  0  0  0  0
 13 33  1  0  0  0  0
 13 34  1  0  0  0  0
 14 15  1  0  0  0  0
 14 35  1  0  0  0  0
 14 36  1  0  0  0  0
 15 16  1  0  0  0  0
 15 17  1  0  0  0  0
 15 37  1  0  0  0  0
 16 38  1  0  0  0  0
 17 39  1  0  0  0  0
 17 40  1  0  0  0  0
 18 19  1  0  0  0  0
 18 41  1  0  0  0  0
M  END
> <s_m_source_file>
AV-unprocessed.smi

> <i_m_source_file_index>
752

> <i_lp_mmshare_version>
43012

> <i_f3d_flags>
0

> <s_epik_input>
W0NIM11bQ0gyXWMxbmMoW2NIXXMxKVtDSDJdQyg9TylbTkhdW0NIMl1bQ0BASF0yW0NIMl1bQ0gyXVtDSDJdW0NAQEhdKFtPSF0pW0NIMl0y

> <s_epik_cmdline>
J2VwaWtfcHl0aG9uJywgJy1waCcsICc3LjAnLCAnLXRuJywgJzgnLCAnLW1hJywgJzIwMCcsICctbWV0YWxfYmluZGluZycsICctaW1hZScsICc8aW5maWxlLm1hZT4nLCAnLW9tYWUnLCAnPG91dGZpbGUubWFlPic=

> <r_lp_tautomer_probability>
1

> <r_epik_Ionization_Penalty>
5.44903e-05

> <r_epik_Ionization_Penalty_Charging>
0

> <r_epik_Ionization_Penalty_Neutral>
5.44903e-05

> <r_epik_State_Penalty>
-0

> <r_epik_Charging_Adjusted_Penalty>
0

> <i_epik_Tot_Q>
0

> <i_epik_Tot_abs_Q>
0

> <r_epik_Metal_State_Penalty>
-0

> <b_epik_Metal_Only>
0

> <s_lp_Force_Field>
OPLS_2005

> <r_lp_Energy>
4.53549

> <b_lp_Chiralities_Consistent>
1

> <s_lp_Variant>
AV-unprocessed.smi:752-2

> <Gold.Version>
5.8.1

> <Gold.Id.Protein>
6NUR|6NUR_protein|mol2

> <Gold.PLP.Fitness>
45.5850

> <Gold.PLP.PLP>
-40.8218

> <Gold.PLP.part.hbond>
-3.0000

> <Gold.PLP.part.metal>
0.0000

> <Gold.PLP.part.buried>
2.5522

> <Gold.PLP.part.nonpolar>
-39.4522

> <Gold.PLP.part.repulsive>
0.0914

> <Gold.PLP.ligand.clash>
0.0110

> <Gold.PLP.ligand.torsion>
0.5248

> <Gold.PLP.Chemscore.Hbond>
1.9345

> <Gold.PLP.Chemscore.CHOScore>
0.0000

> <Gold.PLP.Chemscore.Metal>
0.0000

> <Gold.Chemscore.Hbonds>
donor molecule, donor type, donor heavy atom, donor atom, acceptor molecule, acceptor atom, score
      L1  H     9    27       P1  8028  0.80
      L1  H    16    38       P1  7957  0.96

> <Gold.PLP.Chemscore.Internal.Correction>
0.0203

> <Gold.Rescore>
     Score         DG    S(hbond)    S(metal)    S(lipo)     H(rot)  DE(clash)    DE(int)     intcor
     16.34     -21.18       1.90        0.00     125.50       2.08       2.40       2.43       ----

> <Gold.Chemscore.Fitness>
16.3410

> <Gold.Chemscore.DG>
-21.1751

> <Gold.Chemscore.ZeroCoef>
-5.4800

> <Gold.Chemscore.Hbond>
1.9002

> <Gold.Chemscore.Metal>
0.0000

> <Gold.Chemscore.Lipo>
125.4991

> <Gold.Chemscore.Internal_Hbond>
0.0000

> <Gold.Chemscore.DEClash>
2.3998

> <Gold.Chemscore.DEInternal>
2.4343

> <Gold.Chemscore.Rot>
2.0840

> <Gold.Chemscore.Internal.Correction>
   9.000000E+99

> <Gold.Chemscore.Hbonds>
donor molecule, donor type, donor heavy atom, donor atom, acceptor molecule, acceptor atom, score
      L1  H     9    27       P1  8028  0.74
      L1  H    16    38       P1  7957  0.70

> <Gold.Chemscore.Hbond.Weighted>
-6.3466

> <Gold.Chemscore.Metal.Weighted>
-0.0000

> <Gold.Chemscore.Lipo.Weighted>
-14.6834

> <Gold.Chemscore.Internal_Hbond.Weighted>
0.0000

> <Gold.Chemscore.DEClash.Weighted>
2.3998

> <Gold.Chemscore.DEInternal.Weighted>
2.4343

> <Gold.Chemscore.Rot.Weighted>
5.3350

> <Gold.Chemscore.Internal.Correction.Weighted>
   9.000000E+99

> <Gold.Protein.RotatedTorsions>
[ 6907 6896 6895 6894 ] final  -36.28 input  -60.11 | X-H torsion
[ 7974 7965 7964 7962 ] final  167.86 input  175.53 | X-H torsion
[ 8008 7997 7996 7995 ] final -130.11 input   59.86 | X-H torsion
[ 10167 10162 10161 10158 ] final -114.94 input  -65.29 | X-H torsion
[ 10718 10713 10712 10709 ] final   42.43 input   66.30 | X-H torsion
[ 10763 10752 10751 10750 ] final -126.47 input  -60.55 | X-H torsion
[ 11005 11000 10999 10996 ] final -100.04 input  -57.11 | X-H torsion

> <Gold.Protein.ActiveResidues>
 VAL166  LYS551  ARG553  GLY616  TRP617  ASP618  TYR619  PRO620  LYS621  CYS622 
 ASP623  PHE694  ASN695  SER759  ASP760  ASP761  ALA762  ILE779  LEU786  VAL792 
 PHE793  MET794  SER795  GLU796  ALA797  LYS798  CYS799  TRP800  GLU811  SER814 

> <Gold.Protein.RotatedAtoms>
  151.0291  134.9526  159.8101 H   0  0  0  0  0  0  0  0  0  0  0  0  # atno 6907 bound_to 6896
  152.5342  134.2803  159.9015 H   0  0  0  0  0  0  0  0  0  0  0  0  # atno 6908 bound_to 6896
  151.2812  133.4166  159.2661 H   0  0  0  0  0  0  0  0  0  0  0  0  # atno 6909 bound_to 6896
  144.7409  139.8823  143.6397 H   0  0  0  0  0  0  0  0  0  0  0  0  # atno 7974 bound_to 7965
  155.2904  140.0448  157.3022 H   0  0  0  0  0  0  0  0  0  0  0  0  # atno 8008 bound_to 7997
  154.5545  140.2327  155.8400 H   0  0  0  0  0  0  0  0  0  0  0  0  # atno 8009 bound_to 7997
  156.1995  140.3029  155.9504 H   0  0  0  0  0  0  0  0  0  0  0  0  # atno 8010 bound_to 7997
  140.0955  143.4660  152.1844 H   0  0  0  0  0  0  0  0  0  0  0  0  # atno 10167 bound_to 10162
  157.4047  130.7880  149.7379 H   0  0  0  0  0  0  0  0  0  0  0  0  # atno 10718 bound_to 10713
  154.8746  135.3994  154.3436 H   0  0  0  0  0  0  0  0  0  0  0  0  # atno 10763 bound_to 10752
  153.4232  135.7023  153.6285 H   0  0  0  0  0  0  0  0  0  0  0  0  # atno 10764 bound_to 10752
  153.4938  135.3742  155.2475 H   0  0  0  0  0  0  0  0  0  0  0  0  # atno 10765 bound_to 10752
  141.1286  133.8368  157.1050 H   0  0  0  0  0  0  0  0  0  0  0  0  # atno 11005 bound_to 11000
  146.1202  139.4219  143.0233 LP  0  0  0  0  0  0  0  0  0  0  0  0  # atno 17320 bound_to 7965
  145.7316  141.0040  143.1349 LP  0  0  0  0  0  0  0  0  0  0  0  0  # atno 17321 bound_to 7965
  139.5700  144.7457  151.3916 LP  0  0  0  0  0  0  0  0  0  0  0  0  # atno 17342 bound_to 10162
  140.7006  143.7641  150.7396 LP  0  0  0  0  0  0  0  0  0  0  0  0  # atno 17343 bound_to 10162
  155.9833  130.4001  150.3370 LP  0  0  0  0  0  0  0  0  0  0  0  0  # atno 17370 bound_to 10713
  157.1502  131.0319  151.2888 LP  0  0  0  0  0  0  0  0  0  0  0  0  # atno 17371 bound_to 10713
  140.0310  134.9901  157.0780 LP  0  0  0  0  0  0  0  0  0  0  0  0  # atno 17394 bound_to 11000
  140.4286  134.1805  155.7167 LP  0  0  0  0  0  0  0  0  0  0  0  0  # atno 17395 bound_to 11000

$$$$
