AV-unprocessed.smi:2843|AV-procd|sdf|10938|dock6
  -GOLD-   2272015383D 1   1.00000     0.00000
 Structure written by MMmdl.
 28 28  0  0  0  0  0  0  0  0  2 V2000
  153.3930  142.2962  161.3922 C   0  0  0  0  0  0  0  0  0  0  0  0
  152.7797  141.8583  160.1064 C   0  0  0  0  0  0  0  0  0  0  0  0
  152.1128  142.5268  159.1201 C   0  0  0  0  0  0  0  0  0  0  0  0
  151.8117  141.5126  158.1691 C   0  0  0  0  0  0  0  0  0  0  0  0
  151.0834  141.6439  156.8593 C   0  0  0  0  0  0  0  0  0  0  0  0
  151.1259  140.0505  155.9249 S   0  0  0  0  0  0  0  0  0  0  0  0
  152.5469  139.7908  155.6421 O   0  0  0  0  0  0  0  0  0  0  0  0
  150.4153  139.0602  156.7513 O   0  0  0  0  0  0  0  0  0  0  0  0
  150.3029  140.4597  154.5896 N   0  5  0  0  0  0  0  0  0  0  0  0
  149.2724  141.4803  154.6689 C   0  0  0  0  0  0  0  0  0  0  0  0
  147.9867  140.9921  153.9705 C   0  0  0  0  0  0  0  0  0  0  0  0
  146.7406  141.8703  154.2150 C   0  0  0  0  0  0  0  0  0  0  0  0
  147.0860  143.2334  154.0796 O   0  0  0  0  0  0  0  0  0  0  0  0
  152.2478  140.3270  158.5650 N   0  0  0  0  0  0  0  0  0  0  0  0
  152.8732  140.5391  159.7985 O   0  0  0  0  0  0  0  0  0  0  0  0
  152.8039  143.0904  161.8511 H   0  0  0  0  0  0  0  0  0  0  0  0
  154.4015  142.6751  161.2273 H   0  0  0  0  0  0  0  0  0  0  0  0
  153.4531  141.4690  162.0997 H   0  0  0  0  0  0  0  0  0  0  0  0
  151.8847  143.5815  159.0772 H   0  0  0  0  0  0  0  0  0  0  0  0
  150.0437  141.9427  156.9944 H   0  0  0  0  0  0  0  0  0  0  0  0
  151.5624  142.4007  156.2392 H   0  0  0  0  0  0  0  0  0  0  0  0
  149.0376  141.7225  155.7058 H   0  0  0  0  0  0  0  0  0  0  0  0
  149.5871  142.4181  154.2099 H   0  0  0  0  0  0  0  0  0  0  0  0
  148.1666  140.8986  152.8983 H   0  0  0  0  0  0  0  0  0  0  0  0
  147.7723  139.9831  154.3244 H   0  0  0  0  0  0  0  0  0  0  0  0
  145.9444  141.6475  153.5022 H   0  0  0  0  0  0  0  0  0  0  0  0
  146.3331  141.7215  155.2168 H   0  0  0  0  0  0  0  0  0  0  0  0
  147.7293  143.4448  154.7386 H   0  0  0  0  0  0  0  0  0  0  0  0
  1  2  1  0  0  0  0
  1 16  1  0  0  0  0
  1 17  1  0  0  0  0
  1 18  1  0  0  0  0
  2 15  1  0  0  0  0
  2  3  2  0  0  0  0
  3  4  1  0  0  0  0
  3 19  1  0  0  0  0
  4  5  1  0  0  0  0
  4 14  2  0  0  0  0
  5  6  1  0  0  0  0
  5 20  1  0  0  0  0
  5 21  1  0  0  0  0
  6  7  2  0  0  0  0
  6  8  2  0  0  0  0
  6  9  1  0  0  0  0
  9 10  1  0  0  0  0
 10 11  1  0  0  0  0
 10 22  1  0  0  0  0
 10 23  1  0  0  0  0
 11 12  1  0  0  0  0
 11 24  1  0  0  0  0
 11 25  1  0  0  0  0
 12 13  1  0  0  0  0
 12 26  1  0  0  0  0
 12 27  1  0  0  0  0
 13 28  1  0  0  0  0
 14 15  1  0  0  0  0
M  CHG  1   9  -1
M  END
> <s_m_source_file>
AV-unprocessed.smi

> <i_m_source_file_index>
2843

> <i_lp_mmshare_version>
43012

> <i_f3d_flags>
0

> <s_epik_input>
W0NIM11jMVtjSF1jKG5vMSlbQ0gyXVMoPU8pKD1PKVtOSF1bQ0gyXVtDSDJdW0NIMl1bT0hd

> <s_epik_cmdline>
J2VwaWtfcHl0aG9uJywgJy1waCcsICc3LjAnLCAnLXRuJywgJzgnLCAnLW1hJywgJzIwMCcsICctbWV0YWxfYmluZGluZycsICctaW1hZScsICc8aW5maWxlLm1hZT4nLCAnLW9tYWUnLCAnPG91dGZpbGUubWFlPic=

> <r_lp_tautomer_probability>
1

> <r_epik_Ionization_Penalty>
4.89444

> <r_epik_Ionization_Penalty_Charging>
4.89444

> <r_epik_Ionization_Penalty_Neutral>
8.7324e-07

> <r_epik_State_Penalty>
4.89429

> <r_epik_Charging_Adjusted_Penalty>
9.78873

> <i_epik_Tot_Q>
-1

> <i_epik_Tot_abs_Q>
1

> <r_epik_Metal_State_Penalty>
1.04833

> <b_epik_Metal_Only>
1

> <s_lp_Force_Field>
OPLS_2005

> <r_lp_Energy>
1.63452

> <b_lp_Chiralities_Consistent>
1

> <s_lp_Variant>
AV-unprocessed.smi:2843-2

> <Gold.Version>
5.8.1

> <Gold.Id.Protein>
6NUR|6NUR_protein|mol2

> <Gold.PLP.Fitness>
40.2119

> <Gold.PLP.PLP>
-31.8965

> <Gold.PLP.part.hbond>
-4.1735

> <Gold.PLP.part.metal>
0.0000

> <Gold.PLP.part.buried>
-2.8269

> <Gold.PLP.part.nonpolar>
-24.5660

> <Gold.PLP.part.repulsive>
0.1055

> <Gold.PLP.ligand.clash>
0.0000

> <Gold.PLP.ligand.torsion>
0.8084

> <Gold.PLP.Chemscore.Hbond>
2.9680

> <Gold.PLP.Chemscore.CHOScore>
0.0000

> <Gold.PLP.Chemscore.Metal>
0.0000

> <Gold.Chemscore.Hbonds>
donor molecule, donor type, donor heavy atom, donor atom, acceptor molecule, acceptor atom, score
      L1  H    13    28       P1  8028  0.99
      P1  H  7989  7998       L1     9  0.98
      P1  H  7997  8008       L1     7  1.00

> <Gold.PLP.Chemscore.Internal.Correction>
1.0282

> <Gold.Rescore>
     Score         DG    S(hbond)    S(metal)    S(lipo)     H(rot)  DE(clash)    DE(int)     intcor
     11.41     -13.89       2.18        0.00      68.65       2.69       0.18       2.30       ----

> <Gold.Chemscore.Fitness>
11.4109

> <Gold.Chemscore.DG>
-13.8871

> <Gold.Chemscore.ZeroCoef>
-5.4800

> <Gold.Chemscore.Hbond>
2.1764

> <Gold.Chemscore.Metal>
0.0000

> <Gold.Chemscore.Lipo>
68.6518

> <Gold.Chemscore.Internal_Hbond>
0.0000

> <Gold.Chemscore.DEClash>
0.1799

> <Gold.Chemscore.DEInternal>
2.2963

> <Gold.Chemscore.Rot>
2.6932

> <Gold.Chemscore.Internal.Correction>
   9.000000E+99

> <Gold.Chemscore.Hbonds>
donor molecule, donor type, donor heavy atom, donor atom, acceptor molecule, acceptor atom, score
      L1  H    13    28       P1  8028  0.42
      P1  H  7989  7998       L1     9  0.24
      P1  H  7997  8008       L1     7  0.97

> <Gold.Chemscore.Hbond.Weighted>
-7.2693

> <Gold.Chemscore.Metal.Weighted>
-0.0000

> <Gold.Chemscore.Lipo.Weighted>
-8.0323

> <Gold.Chemscore.Internal_Hbond.Weighted>
0.0000

> <Gold.Chemscore.DEClash.Weighted>
0.1799

> <Gold.Chemscore.DEInternal.Weighted>
2.2963

> <Gold.Chemscore.Rot.Weighted>
6.8945

> <Gold.Chemscore.Internal.Correction.Weighted>
   9.000000E+99

> <Gold.Protein.RotatedTorsions>
[ 6907 6896 6895 6894 ] final  -49.23 input  -60.11 | X-H torsion
[ 7974 7965 7964 7962 ] final  116.99 input  175.53 | X-H torsion
[ 8008 7997 7996 7995 ] final  -15.28 input   59.86 | X-H torsion
[ 10167 10162 10161 10158 ] final  -82.01 input  -65.29 | X-H torsion
[ 10718 10713 10712 10709 ] final -166.11 input   66.30 | X-H torsion
[ 10763 10752 10751 10750 ] final -110.58 input  -60.55 | X-H torsion
[ 11005 11000 10999 10996 ] final -111.81 input  -57.11 | X-H torsion

> <Gold.Protein.ActiveResidues>
 VAL166  LYS551  ARG553  GLY616  TRP617  ASP618  TYR619  PRO620  LYS621  CYS622 
 ASP623  PHE694  ASN695  SER759  ASP760  ASP761  ALA762  ILE779  LEU786  VAL792 
 PHE793  MET794  SER795  GLU796  ALA797  LYS798  CYS799  TRP800  GLU811  SER814 

> <Gold.Protein.RotatedAtoms>
  150.8826  134.8219  159.7235 H   0  0  0  0  0  0  0  0  0  0  0  0  # atno 6907 bound_to 6896
  152.4787  134.4773  159.9664 H   0  0  0  0  0  0  0  0  0  0  0  0  # atno 6908 bound_to 6896
  151.4846  133.3500  159.2879 H   0  0  0  0  0  0  0  0  0  0  0  0  # atno 6909 bound_to 6896
  145.1729  139.3092  143.4458 H   0  0  0  0  0  0  0  0  0  0  0  0  # atno 7974 bound_to 7965
  154.5143  140.2200  155.9097 H   0  0  0  0  0  0  0  0  0  0  0  0  # atno 8008 bound_to 7997
  156.1589  140.3146  155.8738 H   0  0  0  0  0  0  0  0  0  0  0  0  # atno 8009 bound_to 7997
  155.3792  140.0471  157.3034 H   0  0  0  0  0  0  0  0  0  0  0  0  # atno 8010 bound_to 7997
  140.4359  143.2531  151.8694 H   0  0  0  0  0  0  0  0  0  0  0  0  # atno 10167 bound_to 10162
  156.6631  130.9054  151.3032 H   0  0  0  0  0  0  0  0  0  0  0  0  # atno 10718 bound_to 10713
  154.8256  135.4559  154.0908 H   0  0  0  0  0  0  0  0  0  0  0  0  # atno 10763 bound_to 10752
  153.2225  135.6896  153.7990 H   0  0  0  0  0  0  0  0  0  0  0  0  # atno 10764 bound_to 10752
  153.7402  135.3313  155.3279 H   0  0  0  0  0  0  0  0  0  0  0  0  # atno 10765 bound_to 10752
  141.0712  133.9376  157.2480 H   0  0  0  0  0  0  0  0  0  0  0  0  # atno 11005 bound_to 11000
  146.3466  140.1880  142.8589 LP  0  0  0  0  0  0  0  0  0  0  0  0  # atno 17320 bound_to 7965
  145.0215  140.8797  143.5164 LP  0  0  0  0  0  0  0  0  0  0  0  0  # atno 17321 bound_to 7965
  139.4787  144.5283  151.8704 LP  0  0  0  0  0  0  0  0  0  0  0  0  # atno 17342 bound_to 10162
  140.4374  144.2034  150.5890 LP  0  0  0  0  0  0  0  0  0  0  0  0  # atno 17343 bound_to 10162
  157.7103  130.9432  150.1066 LP  0  0  0  0  0  0  0  0  0  0  0  0  # atno 17370 bound_to 10713
  156.1996  130.3659  149.8805 LP  0  0  0  0  0  0  0  0  0  0  0  0  # atno 17371 bound_to 10713
  139.9526  135.0172  156.9036 LP  0  0  0  0  0  0  0  0  0  0  0  0  # atno 17394 bound_to 11000
  140.5668  134.0481  155.7417 LP  0  0  0  0  0  0  0  0  0  0  0  0  # atno 17395 bound_to 11000

$$$$
