AV-unprocessed.smi:1399|AV-procd|sdf|5683|dock3
  -GOLD-   22720 5303D 1   1.00000     0.00000
 Structure written by MMmdl.
 38 39  0  0  0  0  0  0  0  0  2 V2000
  140.9766  133.3785  152.0481 N   0  0  0  0  0  0  0  0  0  0  0  0
  141.6931  134.1799  152.8394 C   0  0  0  0  0  0  0  0  0  0  0  0
  141.2252  134.6826  153.8594 O   0  0  0  0  0  0  0  0  0  0  0  0
  143.1353  134.4670  152.4094 C   0  0  0  0  0  0  0  0  0  0  0  0
  144.1388  134.0497  153.4227 N   0  3  2  0  0  0  0  0  0  0  0  0
  144.4265  135.1221  154.4091 C   0  0  0  0  0  0  0  0  0  0  0  0
  145.3469  134.6120  155.5327 C   0  0  0  0  0  0  0  0  0  0  0  0
  146.6513  134.0084  154.9838 C   0  0  2  0  0  0  0  0  0  0  0  0
  147.5206  135.0574  154.4491 N   0  0  0  0  0  0  0  0  0  0  0  0
  148.1593  135.9938  155.1661 C   0  0  0  0  0  0  0  0  0  0  0  0
  148.0917  136.0827  156.3915 O   0  0  0  0  0  0  0  0  0  0  0  0
  148.8729  136.8079  154.3718 N   0  0  0  0  0  0  0  0  0  0  0  0
  149.6625  137.9166  154.7670 C   0  0  0  0  0  0  0  0  0  0  0  0
  149.9320  139.1290  154.0662 C   0  0  0  0  0  0  0  0  0  0  0  0
  150.7231  139.9246  154.7721 N   0  0  0  0  0  0  0  0  0  0  0  0
  150.9613  139.2350  155.9104 N   0  0  0  0  0  0  0  0  0  0  0  0
  150.3360  138.0086  155.9485 C   0  0  0  0  0  0  0  0  0  0  0  0
  146.3335  132.9601  153.9032 C   0  0  0  0  0  0  0  0  0  0  0  0
  145.3889  133.5129  152.8209 C   0  0  0  0  0  0  0  0  0  0  0  0
  151.5462  139.6110  156.6431 H   0  0  0  0  0  0  0  0  0  0  0  0
  140.0186  133.1657  152.2883 H   0  0  0  0  0  0  0  0  0  0  0  0
  141.3853  132.9904  151.2101 H   0  0  0  0  0  0  0  0  0  0  0  0
  143.3521  133.9932  151.4505 H   0  0  0  0  0  0  0  0  0  0  0  0
  143.2018  135.5439  152.2490 H   0  0  0  0  0  0  0  0  0  0  0  0
  144.8808  135.9741  153.9006 H   0  0  0  0  0  0  0  0  0  0  0  0
  143.4943  135.4783  154.8487 H   0  0  0  0  0  0  0  0  0  0  0  0
  145.5686  135.4187  156.2328 H   0  0  0  0  0  0  0  0  0  0  0  0
  144.8164  133.8513  156.1073 H   0  0  0  0  0  0  0  0  0  0  0  0
  147.1557  133.4991  155.8064 H   0  0  0  0  0  0  0  0  0  0  0  0
  147.6443  135.0748  153.4477 H   0  0  0  0  0  0  0  0  0  0  0  0
  148.8474  136.6177  153.3809 H   0  0  0  0  0  0  0  0  0  0  0  0
  149.5956  139.4583  153.0944 H   0  0  0  0  0  0  0  0  0  0  0  0
  150.4237  137.3327  156.7864 H   0  0  0  0  0  0  0  0  0  0  0  0
  147.2551  132.5954  153.4473 H   0  0  0  0  0  0  0  0  0  0  0  0
  145.8653  132.0938  154.3725 H   0  0  0  0  0  0  0  0  0  0  0  0
  145.1550  132.7154  152.1153 H   0  0  0  0  0  0  0  0  0  0  0  0
  145.8861  134.2983  152.2496 H   0  0  0  0  0  0  0  0  0  0  0  0
  143.7129  133.2941  153.9411 H   0  0  0  0  0  0  0  0  0  0  0  0
  1  2  1  0  0  0  0
  1 21  1  0  0  0  0
  1 22  1  0  0  0  0
  2  3  2  0  0  0  0
  2  4  1  0  0  0  0
  4  5  1  0  0  0  0
  4 23  1  0  0  0  0
  4 24  1  0  0  0  0
  5 19  1  0  0  0  0
  5  6  1  0  0  0  0
  5 38  1  0  0  0  0
  6  7  1  0  0  0  0
  6 25  1  0  0  0  0
  6 26  1  0  0  0  0
  7  8  1  0  0  0  0
  7 27  1  0  0  0  0
  7 28  1  0  0  0  0
  8  9  1  0  0  0  0
  8 18  1  0  0  0  0
  8 29  1  0  0  0  0
  9 10  1  0  0  0  0
  9 30  1  0  0  0  0
 10 11  2  0  0  0  0
 10 12  1  0  0  0  0
 12 13  1  0  0  0  0
 12 31  1  0  0  0  0
 13 17  2  0  0  0  0
 13 14  1  0  0  0  0
 14 15  2  0  0  0  0
 14 32  1  0  0  0  0
 15 16  1  0  0  0  0
 16 20  1  0  0  0  0
 16 17  1  0  0  0  0
 17 33  1  0  0  0  0
 18 19  1  0  0  0  0
 18 34  1  0  0  0  0
 18 35  1  0  0  0  0
 19 36  1  0  0  0  0
 19 37  1  0  0  0  0
M  CHG  1   5   1
M  END
> <s_m_source_file>
AV-unprocessed.smi

> <i_m_source_file_index>
1399

> <i_lp_mmshare_version>
43012

> <i_f3d_flags>
0

> <s_epik_input>
W05IMl1DKD1PKVtDSDJdTjFbQ0gyXVtDSDJdW0NIXShbQ0gyXVtDSDJdMSlbTkhdQyg9TylbTkhdYzJbY0hdbltuSF1bY0hdMg==

> <s_epik_cmdline>
J2VwaWtfcHl0aG9uJywgJy1waCcsICc3LjAnLCAnLXRuJywgJzgnLCAnLW1hJywgJzIwMCcsICctbWV0YWxfYmluZGluZycsICctaW1hZScsICc8aW5maWxlLm1hZT4nLCAnLW9tYWUnLCAnPG91dGZpbGUubWFlPic=

> <r_lp_tautomer_probability>
0.5

> <r_epik_Ionization_Penalty>
0.838927

> <r_epik_Ionization_Penalty_Charging>
0.838844

> <r_epik_Ionization_Penalty_Neutral>
8.28742e-05

> <r_epik_State_Penalty>
0.8734

> <r_epik_Charging_Adjusted_Penalty>
1.71224

> <i_epik_Tot_Q>
1

> <i_epik_Tot_abs_Q>
1

> <r_epik_Metal_State_Penalty>
0.890702

> <b_epik_Metal_Only>
0

> <s_lp_Force_Field>
OPLS_2005

> <r_lp_Energy>
14.6422

> <b_lp_Chiralities_Consistent>
1

> <s_lp_Variant>
AV-unprocessed.smi:1399-3

> <Gold.Version>
5.8.1

> <Gold.Id.Protein>
6NUR|6NUR_protein|mol2

> <Gold.PLP.Fitness>
37.2595

> <Gold.PLP.PLP>
-19.4228

> <Gold.PLP.part.hbond>
-6.7427

> <Gold.PLP.part.metal>
0.0000

> <Gold.PLP.part.buried>
-2.2814

> <Gold.PLP.part.nonpolar>
-11.5494

> <Gold.PLP.part.repulsive>
0.5548

> <Gold.PLP.ligand.clash>
0.0000

> <Gold.PLP.ligand.torsion>
0.7313

> <Gold.PLP.Chemscore.Hbond>
5.4236

> <Gold.PLP.Chemscore.CHOScore>
1.0000

> <Gold.PLP.Chemscore.Metal>
0.0000

> <Gold.Chemscore.Hbonds>
donor molecule, donor type, donor heavy atom, donor atom, acceptor molecule, acceptor atom, score
      L1  H     1    22       P1 10186  0.07
      L1  H     5    38       P1 10957  1.98
      L1  H     9    30       P1  7948  0.17
      L1  H    12    31       P1  7948  1.00
      P1  H  7989  7998       L1    15  1.00
      P1  H 11000 11005       L1     3  0.91
      L1  C    14    32       P1  7957  0.96

> <Gold.PLP.Chemscore.Internal.Correction>
0.0286

> <Gold.Rescore>
     Score         DG    S(hbond)    S(metal)    S(lipo)     H(rot)  DE(clash)    DE(int)     intcor
     13.55     -16.33       3.74        0.00      31.55       2.09       0.98       1.80       ----

> <Gold.Chemscore.Fitness>
13.5463

> <Gold.Chemscore.DG>
-16.3292

> <Gold.Chemscore.ZeroCoef>
-5.4800

> <Gold.Chemscore.Hbond>
3.7424

> <Gold.Chemscore.Metal>
0.0000

> <Gold.Chemscore.Lipo>
31.5486

> <Gold.Chemscore.Internal_Hbond>
0.0000

> <Gold.Chemscore.DEClash>
0.9813

> <Gold.Chemscore.DEInternal>
1.8016

> <Gold.Chemscore.Rot>
2.0865

> <Gold.Chemscore.Internal.Correction>
   9.000000E+99

> <Gold.Chemscore.Hbonds>
donor molecule, donor type, donor heavy atom, donor atom, acceptor molecule, acceptor atom, score
      L1  H     1    22       P1 10186  0.04
      L1  H     5    38       P1 10957  0.92
      L1  H     9    30       P1  7948  0.18
      L1  H    12    31       P1  7948  0.96
      P1  H  7989  7998       L1    15  0.45
      P1  H 11000 11005       L1     3  0.87

> <Gold.Chemscore.Hbond.Weighted>
-12.4995

> <Gold.Chemscore.Metal.Weighted>
-0.0000

> <Gold.Chemscore.Lipo.Weighted>
-3.6912

> <Gold.Chemscore.Internal_Hbond.Weighted>
0.0000

> <Gold.Chemscore.DEClash.Weighted>
0.9813

> <Gold.Chemscore.DEInternal.Weighted>
1.8016

> <Gold.Chemscore.Rot.Weighted>
5.3415

> <Gold.Chemscore.Internal.Correction.Weighted>
   9.000000E+99

> <Gold.Protein.RotatedTorsions>
[ 6907 6896 6895 6894 ] final -178.00 input  -60.11 | X-H torsion
[ 7974 7965 7964 7962 ] final -120.96 input  175.53 | X-H torsion
[ 8008 7997 7996 7995 ] final -127.27 input   59.86 | X-H torsion
[ 10167 10162 10161 10158 ] final   58.19 input  -65.29 | X-H torsion
[ 10718 10713 10712 10709 ] final  126.10 input   66.30 | X-H torsion
[ 10763 10752 10751 10750 ] final  175.31 input  -60.55 | X-H torsion
[ 11005 11000 10999 10996 ] final   14.67 input  -57.11 | X-H torsion

> <Gold.Protein.ActiveResidues>
 VAL166  LYS551  ARG553  GLY616  TRP617  ASP618  TYR619  PRO620  LYS621  CYS622 
 ASP623  PHE694  ASN695  SER759  ASP760  ASP761  ALA762  ILE779  LEU786  VAL792 
 PHE793  MET794  SER795  GLU796  ALA797  LYS798  CYS799  TRP800  GLU811  SER814 

> <Gold.Protein.RotatedAtoms>
  151.6301  133.3332  159.3106 H   0  0  0  0  0  0  0  0  0  0  0  0  # atno 6907 bound_to 6896
  150.8061  134.7191  159.6657 H   0  0  0  0  0  0  0  0  0  0  0  0  # atno 6908 bound_to 6896
  152.4156  134.6051  160.0062 H   0  0  0  0  0  0  0  0  0  0  0  0  # atno 6909 bound_to 6896
  145.0456  140.8179  143.4240 H   0  0  0  0  0  0  0  0  0  0  0  0  # atno 7974 bound_to 7965
  155.2434  140.0429  157.2978 H   0  0  0  0  0  0  0  0  0  0  0  0  # atno 8008 bound_to 7997
  154.5814  140.2401  155.8019 H   0  0  0  0  0  0  0  0  0  0  0  0  # atno 8009 bound_to 7997
  156.2195  140.2974  155.9927 H   0  0  0  0  0  0  0  0  0  0  0  0  # atno 8010 bound_to 7997
  140.1899  144.4096  150.6576 H   0  0  0  0  0  0  0  0  0  0  0  0  # atno 10167 bound_to 10162
  157.5448  131.1096  150.8800 H   0  0  0  0  0  0  0  0  0  0  0  0  # atno 10718 bound_to 10713
  154.4658  135.2769  155.1679 H   0  0  0  0  0  0  0  0  0  0  0  0  # atno 10763 bound_to 10752
  154.3448  135.6162  153.5617 H   0  0  0  0  0  0  0  0  0  0  0  0  # atno 10764 bound_to 10752
  152.9859  135.5797  154.5030 H   0  0  0  0  0  0  0  0  0  0  0  0  # atno 10765 bound_to 10752
  140.4669  134.1070  155.7726 H   0  0  0  0  0  0  0  0  0  0  0  0  # atno 11005 bound_to 11000
  145.1591  139.2469  143.5401 LP  0  0  0  0  0  0  0  0  0  0  0  0  # atno 17320 bound_to 7965
  146.3513  140.1314  142.8597 LP  0  0  0  0  0  0  0  0  0  0  0  0  # atno 17321 bound_to 7965
  140.6463  143.2214  151.6178 LP  0  0  0  0  0  0  0  0  0  0  0  0  # atno 17342 bound_to 10162
  139.5260  144.3057  152.1036 LP  0  0  0  0  0  0  0  0  0  0  0  0  # atno 17343 bound_to 10162
  156.9343  130.5361  149.5279 LP  0  0  0  0  0  0  0  0  0  0  0  0  # atno 17370 bound_to 10713
  156.0526  130.5593  150.9022 LP  0  0  0  0  0  0  0  0  0  0  0  0  # atno 17371 bound_to 10713
  141.1595  133.8819  157.1886 LP  0  0  0  0  0  0  0  0  0  0  0  0  # atno 17394 bound_to 11000
  139.9910  135.0065  156.9974 LP  0  0  0  0  0  0  0  0  0  0  0  0  # atno 17395 bound_to 11000

$$$$
