AV-unprocessed.smi:2439|AV-procd|sdf|9608|dock9
  -GOLD-   2272013243D 1   1.00000     0.00000
 Structure written by MMmdl.
 41 43  0  0  0  0  0  0  0  0  2 V2000
  152.6973  136.8210  160.0169 N   0  0  0  0  0  0  0  0  0  0  0  0
  152.6788  137.9594  159.8117 C   0  0  0  0  0  0  0  0  0  0  0  0
  152.6553  139.3937  159.5518 C   0  0  0  0  0  0  0  0  0  0  0  0
  152.9372  140.2834  160.6098 C   0  0  0  0  0  0  0  0  0  0  0  0
  152.9138  141.6686  160.3656 C   0  0  0  0  0  0  0  0  0  0  0  0
  152.6090  142.1106  159.0657 C   0  0  0  0  0  0  0  0  0  0  0  0
  152.3370  141.2707  158.0452 N   0  0  0  0  0  0  0  0  0  0  0  0
  152.3569  139.9340  158.2717 C   0  0  0  0  0  0  0  0  0  0  0  0
  152.0716  139.0823  157.1878 N   0  0  0  0  0  0  0  0  0  0  0  0
  151.7351  139.5965  155.8653 C   0  0  0  0  0  0  0  0  0  0  0  0
  150.2925  140.1255  155.7883 C   0  0  1  0  0  0  0  0  0  0  0  0
  150.2368  141.6480  156.0424 C   0  0  0  0  0  0  0  0  0  0  0  0
  148.8679  142.1846  155.8481 N   0  3  2  0  0  0  0  0  0  0  0  0
  147.9522  141.8988  156.9864 C   0  0  0  0  0  0  0  0  0  0  0  0
  146.5730  142.5370  156.7664 C   0  0  0  0  0  0  0  0  0  0  0  0
  145.9566  142.0510  155.4501 C   0  0  0  0  0  0  0  0  0  0  0  0
  146.9101  142.3519  154.2857 C   0  0  0  0  0  0  0  0  0  0  0  0
  148.3278  141.7867  154.5184 C   0  0  2  0  0  0  0  0  0  0  0  0
  148.4334  140.2599  154.3218 C   0  0  0  0  0  0  0  0  0  0  0  0
  149.7900  139.8603  154.4816 O   0  0  0  0  0  0  0  0  0  0  0  0
  153.1691  139.9138  161.5984 H   0  0  0  0  0  0  0  0  0  0  0  0
  153.1259  142.3742  161.1553 H   0  0  0  0  0  0  0  0  0  0  0  0
  152.5816  143.1661  158.8387 H   0  0  0  0  0  0  0  0  0  0  0  0
  152.0105  138.0862  157.3447 H   0  0  0  0  0  0  0  0  0  0  0  0
  152.4423  140.3808  155.5928 H   0  0  0  0  0  0  0  0  0  0  0  0
  151.8772  138.7974  155.1372 H   0  0  0  0  0  0  0  0  0  0  0  0
  149.6784  139.6074  156.5256 H   0  0  0  0  0  0  0  0  0  0  0  0
  150.5947  141.8869  157.0448 H   0  0  0  0  0  0  0  0  0  0  0  0
  150.9046  142.1583  155.3469 H   0  0  0  0  0  0  0  0  0  0  0  0
  147.8370  140.8243  157.1279 H   0  0  0  0  0  0  0  0  0  0  0  0
  148.3889  142.2895  157.9062 H   0  0  0  0  0  0  0  0  0  0  0  0
  145.9125  142.2937  157.5994 H   0  0  0  0  0  0  0  0  0  0  0  0
  146.6668  143.6236  156.7523 H   0  0  0  0  0  0  0  0  0  0  0  0
  145.7557  140.9806  155.5052 H   0  0  0  0  0  0  0  0  0  0  0  0
  144.9959  142.5392  155.2830 H   0  0  0  0  0  0  0  0  0  0  0  0
  146.4973  141.9661  153.3529 H   0  0  0  0  0  0  0  0  0  0  0  0
  146.9774  143.4336  154.1603 H   0  0  0  0  0  0  0  0  0  0  0  0
  148.9750  142.2440  153.7682 H   0  0  0  0  0  0  0  0  0  0  0  0
  147.7949  139.7122  155.0160 H   0  0  0  0  0  0  0  0  0  0  0  0
  148.1103  139.9881  153.3166 H   0  0  0  0  0  0  0  0  0  0  0  0
  148.9580  143.1905  155.8267 H   0  0  0  0  0  0  0  0  0  0  0  0
  1  2  3  0  0  0  0
  2  3  1  0  0  0  0
  3  8  1  0  0  0  0
  3  4  2  0  0  0  0
  4  5  1  0  0  0  0
  4 21  1  0  0  0  0
  5  6  2  0  0  0  0
  5 22  1  0  0  0  0
  6  7  1  0  0  0  0
  6 23  1  0  0  0  0
  7  8  2  0  0  0  0
  8  9  1  0  0  0  0
  9 10  1  0  0  0  0
  9 24  1  0  0  0  0
 10 11  1  0  0  0  0
 10 25  1  0  0  0  0
 10 26  1  0  0  0  0
 11 20  1  0  0  0  0
 11 12  1  0  0  0  0
 11 27  1  0  0  0  0
 12 13  1  0  0  0  0
 12 28  1  0  0  0  0
 12 29  1  0  0  0  0
 13 18  1  0  0  0  0
 13 14  1  0  0  0  0
 13 41  1  0  0  0  0
 14 15  1  0  0  0  0
 14 30  1  0  0  0  0
 14 31  1  0  0  0  0
 15 16  1  0  0  0  0
 15 32  1  0  0  0  0
 15 33  1  0  0  0  0
 16 17  1  0  0  0  0
 16 34  1  0  0  0  0
 16 35  1  0  0  0  0
 17 18  1  0  0  0  0
 17 36  1  0  0  0  0
 17 37  1  0  0  0  0
 18 19  1  0  0  0  0
 18 38  1  0  0  0  0
 19 20  1  0  0  0  0
 19 39  1  0  0  0  0
 19 40  1  0  0  0  0
M  CHG  1  13   1
M  END
> <s_m_source_file>
AV-unprocessed.smi

> <i_m_source_file_index>
2439

> <i_lp_mmshare_version>
43012

> <i_f3d_flags>
0

> <s_epik_input>
TiNDYzFbY0hdW2NIXVtjSF1uYzFbTkhdW0NIMl1bQ0BIXShbQ0gyXTIpT1tDSDJdW0NAQEhdKE4yMylbQ0gyXVtDSDJdW0NIMl1bQ0gyXTM=

> <s_epik_cmdline>
J2VwaWtfcHl0aG9uJywgJy1waCcsICc3LjAnLCAnLXRuJywgJzgnLCAnLW1hJywgJzIwMCcsICctbWV0YWxfYmluZGluZycsICctaW1hZScsICc8aW5maWxlLm1hZT4nLCAnLW9tYWUnLCAnPG91dGZpbGUubWFlPic=

> <r_epik_Ionization_Penalty>
0.0803594

> <r_epik_Ionization_Penalty_Charging>
0.0803403

> <r_epik_Ionization_Penalty_Neutral>
1.90988e-05

> <r_epik_State_Penalty>
0.0711481

> <r_epik_Charging_Adjusted_Penalty>
0.151488

> <i_epik_Tot_Q>
1

> <i_epik_Tot_abs_Q>
1

> <r_epik_Metal_State_Penalty>
0.0711482

> <b_epik_Metal_Only>
0

> <s_lp_Force_Field>
OPLS_2005

> <r_lp_Energy>
31.3602

> <b_lp_Chiralities_Consistent>
1

> <s_lp_Variant>
AV-unprocessed.smi:2439-6

> <Gold.Version>
5.8.1

> <Gold.Id.Protein>
6NUR|6NUR_protein|mol2

> <Gold.PLP.Fitness>
45.2538

> <Gold.PLP.PLP>
-34.9841

> <Gold.PLP.part.hbond>
-3.1163

> <Gold.PLP.part.metal>
0.0000

> <Gold.PLP.part.buried>
-1.0045

> <Gold.PLP.part.nonpolar>
-30.7072

> <Gold.PLP.part.repulsive>
0.3347

> <Gold.PLP.ligand.clash>
0.0000

> <Gold.PLP.ligand.torsion>
0.5657

> <Gold.PLP.Chemscore.Hbond>
3.8000

> <Gold.PLP.Chemscore.CHOScore>
0.0000

> <Gold.PLP.Chemscore.Metal>
0.0000

> <Gold.Chemscore.Hbonds>
donor molecule, donor type, donor heavy atom, donor atom, acceptor molecule, acceptor atom, score
      L1  H    13    41       P1  8028  2.00
      P1  H  6896  6907       L1     1  1.00
      P1  H  7989  7998       L1    20  0.18

> <Gold.PLP.Chemscore.Internal.Correction>
0.0012

> <Gold.Rescore>
     Score         DG    S(hbond)    S(metal)    S(lipo)     H(rot)  DE(clash)    DE(int)     intcor
     17.21     -19.55       2.21        0.00      84.90       1.27       0.72       1.63       ----

> <Gold.Chemscore.Fitness>
17.2077

> <Gold.Chemscore.DG>
-19.5549

> <Gold.Chemscore.ZeroCoef>
-5.4800

> <Gold.Chemscore.Hbond>
2.2104

> <Gold.Chemscore.Metal>
0.0000

> <Gold.Chemscore.Lipo>
84.8956

> <Gold.Chemscore.Internal_Hbond>
0.0000

> <Gold.Chemscore.DEClash>
0.7160

> <Gold.Chemscore.DEInternal>
1.6311

> <Gold.Chemscore.Rot>
1.2659

> <Gold.Chemscore.Internal.Correction>
   9.000000E+99

> <Gold.Chemscore.Hbonds>
donor molecule, donor type, donor heavy atom, donor atom, acceptor molecule, acceptor atom, score
      L1  H    13    41       P1  8028  0.93
      P1  H  6896  6907       L1     1  1.00
      P1  H  7989  7998       L1    20  0.01

> <Gold.Chemscore.Hbond.Weighted>
-7.3828

> <Gold.Chemscore.Metal.Weighted>
-0.0000

> <Gold.Chemscore.Lipo.Weighted>
-9.9328

> <Gold.Chemscore.Internal_Hbond.Weighted>
0.0000

> <Gold.Chemscore.DEClash.Weighted>
0.7160

> <Gold.Chemscore.DEInternal.Weighted>
1.6311

> <Gold.Chemscore.Rot.Weighted>
3.2408

> <Gold.Chemscore.Internal.Correction.Weighted>
   9.000000E+99

> <Gold.Protein.RotatedTorsions>
[ 6907 6896 6895 6894 ] final   30.18 input  -60.11 | X-H torsion
[ 7974 7965 7964 7962 ] final -108.43 input  175.53 | X-H torsion
[ 8008 7997 7996 7995 ] final   34.65 input   59.86 | X-H torsion
[ 10167 10162 10161 10158 ] final -143.28 input  -65.29 | X-H torsion
[ 10718 10713 10712 10709 ] final -167.82 input   66.30 | X-H torsion
[ 10763 10752 10751 10750 ] final  117.96 input  -60.55 | X-H torsion
[ 11005 11000 10999 10996 ] final  140.48 input  -57.11 | X-H torsion

> <Gold.Protein.ActiveResidues>
 VAL166  LYS551  ARG553  GLY616  TRP617  ASP618  TYR619  PRO620  LYS621  CYS622 
 ASP623  PHE694  ASN695  SER759  ASP760  ASP761  ALA762  ILE779  LEU786  VAL792 
 PHE793  MET794  SER795  GLU796  ALA797  LYS798  CYS799  TRP800  GLU811  SER814 

> <Gold.Protein.RotatedAtoms>
  152.0423  134.9704  160.0573 H   0  0  0  0  0  0  0  0  0  0  0  0  # atno 6907 bound_to 6896
  152.1137  133.4310  159.4651 H   0  0  0  0  0  0  0  0  0  0  0  0  # atno 6908 bound_to 6896
  150.6845  134.2536  159.4564 H   0  0  0  0  0  0  0  0  0  0  0  0  # atno 6909 bound_to 6896
  145.1929  140.9023  143.3414 H   0  0  0  0  0  0  0  0  0  0  0  0  # atno 7974 bound_to 7965
  155.1582  140.3281  155.4417 H   0  0  0  0  0  0  0  0  0  0  0  0  # atno 8008 bound_to 7997
  156.2551  140.1965  156.6642 H   0  0  0  0  0  0  0  0  0  0  0  0  # atno 8009 bound_to 7997
  154.6423  140.0568  156.9847 H   0  0  0  0  0  0  0  0  0  0  0  0  # atno 8010 bound_to 7997
  139.8009  143.7835  152.2658 H   0  0  0  0  0  0  0  0  0  0  0  0  # atno 10167 bound_to 10162
  156.6879  130.9148  151.3065 H   0  0  0  0  0  0  0  0  0  0  0  0  # atno 10718 bound_to 10713
  153.5604  135.3522  155.2797 H   0  0  0  0  0  0  0  0  0  0  0  0  # atno 10763 bound_to 10752
  154.8695  135.4135  154.2837 H   0  0  0  0  0  0  0  0  0  0  0  0  # atno 10764 bound_to 10752
  153.3582  135.7058  153.6803 H   0  0  0  0  0  0  0  0  0  0  0  0  # atno 10765 bound_to 10752
  140.0330  134.9342  157.0700 H   0  0  0  0  0  0  0  0  0  0  0  0  # atno 11005 bound_to 11000
  145.0023  139.3587  143.6161 LP  0  0  0  0  0  0  0  0  0  0  0  0  # atno 17320 bound_to 7965
  146.3432  139.9251  142.8761 LP  0  0  0  0  0  0  0  0  0  0  0  0  # atno 17321 bound_to 7965
  139.7955  144.7394  150.9896 LP  0  0  0  0  0  0  0  0  0  0  0  0  # atno 17342 bound_to 10162
  140.7820  143.4398  151.0568 LP  0  0  0  0  0  0  0  0  0  0  0  0  # atno 17343 bound_to 10162
  157.7019  130.9343  150.0813 LP  0  0  0  0  0  0  0  0  0  0  0  0  # atno 17370 bound_to 10713
  156.1819  130.3650  149.9024 LP  0  0  0  0  0  0  0  0  0  0  0  0  # atno 17371 bound_to 10713
  140.4193  134.1897  155.7164 LP  0  0  0  0  0  0  0  0  0  0  0  0  # atno 17394 bound_to 11000
  141.1842  133.8349  157.1149 LP  0  0  0  0  0  0  0  0  0  0  0  0  # atno 17395 bound_to 11000

$$$$
