AV-unprocessed.smi:2344|AV-procd|sdf|9359|dock2
  -GOLD-   2272012583D 1   1.00000     0.00000
 Structure written by MMmdl.
 35 36  0  0  0  0  0  0  0  0  1 V2000
  153.9314  141.6012  160.5234 C   0  0  0  0  0  0  0  0  0  0  0  0
  152.8386  141.8614  159.5080 C   0  0  0  0  0  0  0  0  0  0  0  0
  152.5113  143.1738  159.1189 C   0  0  0  0  0  0  0  0  0  0  0  0
  151.4855  143.3655  158.1735 C   0  0  0  0  0  0  0  0  0  0  0  0
  150.8114  142.2437  157.6407 C   0  0  0  0  0  0  0  0  0  0  0  0
  149.7960  142.5469  156.6949 N   0  0  0  0  0  0  0  0  0  0  0  0
  148.9973  141.6943  156.0293 C   0  0  0  0  0  0  0  0  0  0  0  0
  149.0116  140.4680  156.1411 O   0  0  0  0  0  0  0  0  0  0  0  0
  148.1626  142.3507  155.2108 N   0  0  0  0  0  0  0  0  0  0  0  0
  147.1649  141.7174  154.3559 C   0  0  2  0  0  0  0  0  0  0  0  0
  146.2238  140.8770  155.1743 C   0  0  0  0  0  0  0  0  0  0  0  0
  146.2310  139.5962  154.8124 C   0  0  0  0  0  0  0  0  0  0  0  0
  147.1979  139.3081  153.6941 C   0  0  1  0  0  0  0  0  0  0  0  0
  146.5144  138.6155  152.5038 C   0  0  0  0  0  0  0  0  0  0  0  0
  147.3624  138.6361  151.3752 O   0  0  0  0  0  0  0  0  0  0  0  0
  147.7848  140.7042  153.3581 C   0  0  0  0  0  0  0  0  0  0  0  0
  151.1332  140.9828  158.0230 N   0  0  0  0  0  0  0  0  0  0  0  0
  152.1162  140.7996  158.9294 C   0  0  0  0  0  0  0  0  0  0  0  0
  146.5830  142.4757  153.8288 H   0  0  0  0  0  0  0  0  0  0  0  0
  147.9793  138.6626  154.0975 H   0  0  0  0  0  0  0  0  0  0  0  0
  154.7684  142.2832  160.3710 H   0  0  0  0  0  0  0  0  0  0  0  0
  154.3065  140.5807  160.4407 H   0  0  0  0  0  0  0  0  0  0  0  0
  153.5479  141.7461  161.5335 H   0  0  0  0  0  0  0  0  0  0  0  0
  153.0353  144.0211  159.5363 H   0  0  0  0  0  0  0  0  0  0  0  0
  151.2226  144.3666  157.8636 H   0  0  0  0  0  0  0  0  0  0  0  0
  149.6644  143.5282  156.5002 H   0  0  0  0  0  0  0  0  0  0  0  0
  148.2158  143.3582  155.1799 H   0  0  0  0  0  0  0  0  0  0  0  0
  145.6099  141.2975  155.9572 H   0  0  0  0  0  0  0  0  0  0  0  0
  145.6311  138.8212  155.2662 H   0  0  0  0  0  0  0  0  0  0  0  0
  146.2896  137.5764  152.7462 H   0  0  0  0  0  0  0  0  0  0  0  0
  145.5700  139.1023  152.2570 H   0  0  0  0  0  0  0  0  0  0  0  0
  148.0091  139.3142  151.4974 H   0  0  0  0  0  0  0  0  0  0  0  0
  147.5373  141.0000  152.3378 H   0  0  0  0  0  0  0  0  0  0  0  0
  148.8740  140.6823  153.4171 H   0  0  0  0  0  0  0  0  0  0  0  0
  152.3296  139.7757  159.1988 H   0  0  0  0  0  0  0  0  0  0  0  0
  1  2  1  0  0  0  0
  1 21  1  0  0  0  0
  1 22  1  0  0  0  0
  1 23  1  0  0  0  0
  2 18  1  0  0  0  0
  2  3  2  0  0  0  0
  3  4  1  0  0  0  0
  3 24  1  0  0  0  0
  4  5  2  0  0  0  0
  4 25  1  0  0  0  0
  5  6  1  0  0  0  0
  5 17  1  0  0  0  0
  6  7  1  0  0  0  0
  6 26  1  0  0  0  0
  7  8  2  0  0  0  0
  7  9  1  0  0  0  0
  9 10  1  0  0  0  0
  9 27  1  0  0  0  0
 10 19  1  0  0  0  0
 10 16  1  0  0  0  0
 10 11  1  0  0  0  0
 11 12  2  0  0  0  0
 11 28  1  0  0  0  0
 12 13  1  0  0  0  0
 12 29  1  0  0  0  0
 13 20  1  0  0  0  0
 13 14  1  0  0  0  0
 13 16  1  0  0  0  0
 14 15  1  0  0  0  0
 14 30  1  0  0  0  0
 14 31  1  0  0  0  0
 15 32  1  0  0  0  0
 16 33  1  0  0  0  0
 16 34  1  0  0  0  0
 17 18  2  0  0  0  0
 18 35  1  0  0  0  0
M  END
> <s_m_source_file>
AV-unprocessed.smi

> <i_m_source_file_index>
2344

> <i_lp_mmshare_version>
43012

> <i_f3d_flags>
0

> <s_epik_input>
W0NIM11jMVtjSF1bY0hdYyhuW2NIXTEpW05IXUMoPU8pW05IXVtDQEBIXTJbQ0hdPVtDSF1bQ0BASF0oW0NIMl0yKVtDSDJdW09IXQ==

> <s_epik_cmdline>
J2VwaWtfcHl0aG9uJywgJy1waCcsICc3LjAnLCAnLXRuJywgJzgnLCAnLW1hJywgJzIwMCcsICctbWV0YWxfYmluZGluZycsICctaW1hZScsICc8aW5maWxlLm1hZT4nLCAnLW9tYWUnLCAnPG91dGZpbGUubWFlPic=

> <r_lp_tautomer_probability>
1

> <r_epik_Ionization_Penalty>
5.7643e-05

> <r_epik_Ionization_Penalty_Charging>
0

> <r_epik_Ionization_Penalty_Neutral>
5.7643e-05

> <r_epik_State_Penalty>
-0

> <r_epik_Charging_Adjusted_Penalty>
0

> <i_epik_Tot_Q>
0

> <i_epik_Tot_abs_Q>
0

> <r_epik_Metal_State_Penalty>
-0

> <b_epik_Metal_Only>
0

> <s_lp_Force_Field>
OPLS_2005

> <r_lp_Energy>
17.7036

> <b_lp_Chiralities_Consistent>
1

> <s_lp_Variant>
AV-unprocessed.smi:2344-3

> <Gold.Version>
5.8.1

> <Gold.Id.Protein>
6NUR|6NUR_protein|mol2

> <Gold.PLP.Fitness>
46.3182

> <Gold.PLP.PLP>
-35.0553

> <Gold.PLP.part.hbond>
-4.9119

> <Gold.PLP.part.metal>
0.0000

> <Gold.PLP.part.buried>
-1.4401

> <Gold.PLP.part.nonpolar>
-29.2932

> <Gold.PLP.part.repulsive>
0.2217

> <Gold.PLP.ligand.clash>
0.0000

> <Gold.PLP.ligand.torsion>
0.0756

> <Gold.PLP.Chemscore.Hbond>
3.8000

> <Gold.PLP.Chemscore.CHOScore>
0.0000

> <Gold.PLP.Chemscore.Metal>
0.0000

> <Gold.Chemscore.Hbonds>
donor molecule, donor type, donor heavy atom, donor atom, acceptor molecule, acceptor atom, score
      L1  H     6    26       P1  8028  1.00
      L1  H     9    27       P1  8028  1.00
      L1  H    15    32       P1  7957  1.00
      P1  H  7954  7966       L1    15  0.75

> <Gold.PLP.Chemscore.Internal.Correction>
0.0140

> <Gold.Rescore>
     Score         DG    S(hbond)    S(metal)    S(lipo)     H(rot)  DE(clash)    DE(int)     intcor
     16.58     -20.12       2.94        0.00      81.13       1.82       0.24       3.31       ----

> <Gold.Chemscore.Fitness>
16.5764

> <Gold.Chemscore.DG>
-20.1236

> <Gold.Chemscore.ZeroCoef>
-5.4800

> <Gold.Chemscore.Hbond>
2.9360

> <Gold.Chemscore.Metal>
0.0000

> <Gold.Chemscore.Lipo>
81.1303

> <Gold.Chemscore.Internal_Hbond>
0.0000

> <Gold.Chemscore.DEClash>
0.2362

> <Gold.Chemscore.DEInternal>
3.3110

> <Gold.Chemscore.Rot>
1.8184

> <Gold.Chemscore.Internal.Correction>
   9.000000E+99

> <Gold.Chemscore.Hbonds>
donor molecule, donor type, donor heavy atom, donor atom, acceptor molecule, acceptor atom, score
      L1  H     6    26       P1  8028  0.94
      L1  H     9    27       P1  8028  0.86
      L1  H    15    32       P1  7957  0.89
      P1  H  7954  7966       L1    15  0.09

> <Gold.Chemscore.Hbond.Weighted>
-9.8064

> <Gold.Chemscore.Metal.Weighted>
-0.0000

> <Gold.Chemscore.Lipo.Weighted>
-9.4922

> <Gold.Chemscore.Internal_Hbond.Weighted>
0.0000

> <Gold.Chemscore.DEClash.Weighted>
0.2362

> <Gold.Chemscore.DEInternal.Weighted>
3.3110

> <Gold.Chemscore.Rot.Weighted>
4.6551

> <Gold.Chemscore.Internal.Correction.Weighted>
   9.000000E+99

> <Gold.Protein.RotatedTorsions>
[ 6907 6896 6895 6894 ] final -115.21 input  -60.11 | X-H torsion
[ 7974 7965 7964 7962 ] final  176.93 input  175.53 | X-H torsion
[ 8008 7997 7996 7995 ] final  -21.36 input   59.86 | X-H torsion
[ 10167 10162 10161 10158 ] final   84.54 input  -65.29 | X-H torsion
[ 10718 10713 10712 10709 ] final  -37.22 input   66.30 | X-H torsion
[ 10763 10752 10751 10750 ] final  163.29 input  -60.55 | X-H torsion
[ 11005 11000 10999 10996 ] final  107.79 input  -57.11 | X-H torsion

> <Gold.Protein.ActiveResidues>
 VAL166  LYS551  ARG553  GLY616  TRP617  ASP618  TYR619  PRO620  LYS621  CYS622 
 ASP623  PHE694  ASN695  SER759  ASP760  ASP761  ALA762  ILE779  LEU786  VAL792 
 PHE793  MET794  SER795  GLU796  ALA797  LYS798  CYS799  TRP800  GLU811  SER814 

> <Gold.Protein.RotatedAtoms>
  150.7960  133.8691  159.3253 H   0  0  0  0  0  0  0  0  0  0  0  0  # atno 6907 bound_to 6896
  151.6516  135.0999  160.0171 H   0  0  0  0  0  0  0  0  0  0  0  0  # atno 6908 bound_to 6896
  152.4042  133.6825  159.6377 H   0  0  0  0  0  0  0  0  0  0  0  0  # atno 6909 bound_to 6896
  144.7176  140.0171  143.6440 H   0  0  0  0  0  0  0  0  0  0  0  0  # atno 7974 bound_to 7965
  154.4710  140.2037  155.9995 H   0  0  0  0  0  0  0  0  0  0  0  0  # atno 8008 bound_to 7997
  156.1011  140.3244  155.7913 H   0  0  0  0  0  0  0  0  0  0  0  0  # atno 8009 bound_to 7997
  155.4796  140.0537  157.2959 H   0  0  0  0  0  0  0  0  0  0  0  0  # atno 8010 bound_to 7997
  139.9069  144.6295  150.8578 H   0  0  0  0  0  0  0  0  0  0  0  0  # atno 10167 bound_to 10162
  156.3178  130.4261  149.7989 H   0  0  0  0  0  0  0  0  0  0  0  0  # atno 10718 bound_to 10713
  154.2914  135.2761  155.2653 H   0  0  0  0  0  0  0  0  0  0  0  0  # atno 10763 bound_to 10752
  154.5130  135.5777  153.6623 H   0  0  0  0  0  0  0  0  0  0  0  0  # atno 10764 bound_to 10752
  152.9913  135.6185  154.3079 H   0  0  0  0  0  0  0  0  0  0  0  0  # atno 10765 bound_to 10752
  139.8833  134.9411  156.5874 H   0  0  0  0  0  0  0  0  0  0  0  0  # atno 11005 bound_to 11000
  146.0211  139.3252  143.0812 LP  0  0  0  0  0  0  0  0  0  0  0  0  # atno 17320 bound_to 7965
  145.8567  140.9498  143.0721 LP  0  0  0  0  0  0  0  0  0  0  0  0  # atno 17321 bound_to 7965
  140.7694  143.3394  151.2239 LP  0  0  0  0  0  0  0  0  0  0  0  0  # atno 17342 bound_to 10162
  139.6976  143.9587  152.2890 LP  0  0  0  0  0  0  0  0  0  0  0  0  # atno 17343 bound_to 10162
  156.5308  130.8257  151.3236 LP  0  0  0  0  0  0  0  0  0  0  0  0  # atno 17370 bound_to 10713
  157.7405  130.9852  150.2384 LP  0  0  0  0  0  0  0  0  0  0  0  0  # atno 17371 bound_to 10713
  140.7981  133.8527  155.8703 LP  0  0  0  0  0  0  0  0  0  0  0  0  # atno 17394 bound_to 11000
  140.9617  134.1647  157.4649 LP  0  0  0  0  0  0  0  0  0  0  0  0  # atno 17395 bound_to 11000

$$$$
