AV-unprocessed.smi:164|AV-procd|sdf|1384|dock1
  -GOLD-   2262019113D 1   1.00000     0.00000
 Structure written by MMmdl.
 53 55  0  0  0  0  0  0  0  0  1 V2000
  152.2041  144.7990  159.2055 C   0  0  0  0  0  0  0  0  0  0  0  0
  151.9260  143.3667  158.7829 C   0  0  0  0  0  0  0  0  0  0  0  0
  152.1028  142.3314  159.7233 C   0  0  0  0  0  0  0  0  0  0  0  0
  151.8598  140.9942  159.3644 C   0  0  0  0  0  0  0  0  0  0  0  0
  151.4260  140.6786  158.0624 C   0  0  0  0  0  0  0  0  0  0  0  0
  151.1758  139.2303  157.6855 C   0  0  0  0  0  0  0  0  0  0  0  0
  151.2275  141.7114  157.1173 C   0  0  0  0  0  0  0  0  0  0  0  0
  150.7903  141.3920  155.8576 O   0  0  0  0  0  0  0  0  0  0  0  0
  149.3763  141.4291  155.7225 C   0  0  0  0  0  0  0  0  0  0  0  0
  148.9430  140.3825  154.6862 C   0  0  2  0  0  0  0  0  0  0  0  0
  150.0218  140.2133  153.7892 O   0  0  0  0  0  0  0  0  0  0  0  0
  147.6953  140.8361  153.8957 C   0  0  0  0  0  0  0  0  0  0  0  0
  146.5978  141.2659  154.7463 N   0  0  0  0  0  0  0  0  0  0  0  0
  146.0118  140.3106  155.6114 C   0  0  0  0  0  0  0  0  0  0  0  0
  146.3823  139.1358  155.6429 O   0  0  0  0  0  0  0  0  0  0  0  0
  144.9551  140.8395  156.4654 C   0  0  0  0  0  0  0  0  0  0  0  0
  144.3505  140.0306  157.3519 F   0  0  0  0  0  0  0  0  0  0  0  0
  144.5827  142.1357  156.3950 C   0  0  0  0  0  0  0  0  0  0  0  0
  145.1495  143.0447  155.5129 N   0  0  0  0  0  0  0  0  0  0  0  0
  144.7813  144.5211  155.5047 C   0  0  1  0  0  0  0  0  0  0  0  0
  144.1421  145.0067  154.1970 C   0  0  0  0  0  0  0  0  0  0  0  0
  142.6458  144.9375  154.4905 C   0  0  0  0  0  0  0  0  0  0  0  0
  142.5534  144.4543  155.9419 C   0  0  0  0  0  0  0  0  0  0  0  0
  143.8297  144.7440  156.4955 O   0  0  0  0  0  0  0  0  0  0  0  0
  146.2202  142.6287  154.6898 C   0  0  0  0  0  0  0  0  0  0  0  0
  146.8034  143.4302  153.9554 O   0  0  0  0  0  0  0  0  0  0  0  0
  151.4970  143.0585  157.4675 C   0  0  0  0  0  0  0  0  0  0  0  0
  151.3266  144.1671  156.4373 C   0  0  0  0  0  0  0  0  0  0  0  0
  152.3648  144.8713  160.2817 H   0  0  0  0  0  0  0  0  0  0  0  0
  151.3648  145.4471  158.9515 H   0  0  0  0  0  0  0  0  0  0  0  0
  153.0975  145.1750  158.7067 H   0  0  0  0  0  0  0  0  0  0  0  0
  152.4322  142.5581  160.7267 H   0  0  0  0  0  0  0  0  0  0  0  0
  152.0075  140.2120  160.0946 H   0  0  0  0  0  0  0  0  0  0  0  0
  151.6802  138.9867  156.7503 H   0  0  0  0  0  0  0  0  0  0  0  0
  150.1086  139.0485  157.5591 H   0  0  0  0  0  0  0  0  0  0  0  0
  151.5475  138.5509  158.4528 H   0  0  0  0  0  0  0  0  0  0  0  0
  148.8868  141.2411  156.6798 H   0  0  0  0  0  0  0  0  0  0  0  0
  149.0739  142.4257  155.3971 H   0  0  0  0  0  0  0  0  0  0  0  0
  148.7637  139.4349  155.1957 H   0  0  0  0  0  0  0  0  0  0  0  0
  149.6727  140.0612  152.9243 H   0  0  0  0  0  0  0  0  0  0  0  0
  147.9229  141.6868  153.2516 H   0  0  0  0  0  0  0  0  0  0  0  0
  147.3374  140.0706  153.2054 H   0  0  0  0  0  0  0  0  0  0  0  0
  143.8138  142.4570  157.0794 H   0  0  0  0  0  0  0  0  0  0  0  0
  145.7114  145.0525  155.7132 H   0  0  0  0  0  0  0  0  0  0  0  0
  144.4356  146.0455  154.0419 H   0  0  0  0  0  0  0  0  0  0  0  0
  144.4728  144.4385  153.3277 H   0  0  0  0  0  0  0  0  0  0  0  0
  142.1985  145.9266  154.3859 H   0  0  0  0  0  0  0  0  0  0  0  0
  142.1217  144.2627  153.8131 H   0  0  0  0  0  0  0  0  0  0  0  0
  141.7588  144.9518  156.4978 H   0  0  0  0  0  0  0  0  0  0  0  0
  142.3695  143.3801  155.9845 H   0  0  0  0  0  0  0  0  0  0  0  0
  151.2661  143.7791  155.4208 H   0  0  0  0  0  0  0  0  0  0  0  0
  152.1701  144.8568  156.4633 H   0  0  0  0  0  0  0  0  0  0  0  0
  150.4155  144.7302  156.6398 H   0  0  0  0  0  0  0  0  0  0  0  0
  1  2  1  0  0  0  0
  1 29  1  0  0  0  0
  1 30  1  0  0  0  0
  1 31  1  0  0  0  0
  2 27  1  0  0  0  0
  2  3  2  0  0  0  0
  3  4  1  0  0  0  0
  3 32  1  0  0  0  0
  4  5  2  0  0  0  0
  4 33  1  0  0  0  0
  5  6  1  0  0  0  0
  5  7  1  0  0  0  0
  6 34  1  0  0  0  0
  6 35  1  0  0  0  0
  6 36  1  0  0  0  0
  7  8  1  0  0  0  0
  7 27  2  0  0  0  0
  8  9  1  0  0  0  0
  9 10  1  0  0  0  0
  9 37  1  0  0  0  0
  9 38  1  0  0  0  0
 10 11  1  0  0  0  0
 10 12  1  0  0  0  0
 10 39  1  0  0  0  0
 11 40  1  0  0  0  0
 12 13  1  0  0  0  0
 12 41  1  0  0  0  0
 12 42  1  0  0  0  0
 13 25  1  0  0  0  0
 13 14  1  0  0  0  0
 14 15  2  0  0  0  0
 14 16  1  0  0  0  0
 16 17  1  0  0  0  0
 16 18  2  0  0  0  0
 18 19  1  0  0  0  0
 18 43  1  0  0  0  0
 19 20  1  0  0  0  0
 19 25  1  0  0  0  0
 20 24  1  0  0  0  0
 20 21  1  0  0  0  0
 20 44  1  0  0  0  0
 21 22  1  0  0  0  0
 21 45  1  0  0  0  0
 21 46  1  0  0  0  0
 22 23  1  0  0  0  0
 22 47  1  0  0  0  0
 22 48  1  0  0  0  0
 23 24  1  0  0  0  0
 23 49  1  0  0  0  0
 23 50  1  0  0  0  0
 25 26  2  0  0  0  0
 27 28  1  0  0  0  0
 28 51  1  0  0  0  0
 28 52  1  0  0  0  0
 28 53  1  0  0  0  0
M  END
> <s_m_source_file>
AV-unprocessed.smi

> <i_m_source_file_index>
164

> <i_lp_mmshare_version>
43012

> <i_f3d_flags>
0

> <s_epik_input>
W0NIM11jMVtjSF1bY0hdYyhbQ0gzXSljKGMxW0NIM10pT1tDSDJdW0NASF0oW09IXSlbQ0gyXW4yYyg9TyljKEYpW2NIXW4oYzI9TylbQ0BASF0zW0NIMl1bQ0gyXVtDSDJdTzM=

> <s_epik_cmdline>
J2VwaWtfcHl0aG9uJywgJy1waCcsICc3LjAnLCAnLXRuJywgJzgnLCAnLW1hJywgJzIwMCcsICctbWV0YWxfYmluZGluZycsICctaW1hZScsICc8aW5maWxlLm1hZT4nLCAnLW9tYWUnLCAnPG91dGZpbGUubWFlPic=

> <r_lp_tautomer_probability>
1

> <r_epik_Ionization_Penalty>
1.45842e-07

> <r_epik_Ionization_Penalty_Charging>
2.86622e-08

> <r_epik_Ionization_Penalty_Neutral>
1.1718e-07

> <r_epik_State_Penalty>
-0

> <r_epik_Charging_Adjusted_Penalty>
2.86622e-08

> <i_epik_Tot_Q>
0

> <i_epik_Tot_abs_Q>
0

> <r_epik_Metal_State_Penalty>
-0

> <b_epik_Metal_Only>
0

> <s_epik_Chemistry_Notes>
This compound contains an acetal/aminal-like group ( X-CH(R)-Y where X, Y are N, S, or O) that may be acid/base labile, releasing an aldehyde.

> <s_lp_Force_Field>
OPLS_2005

> <r_lp_Energy>
42.2677

> <b_lp_Chiralities_Consistent>
1

> <s_lp_Variant>
AV-unprocessed.smi:164-3

> <Gold.Version>
5.8.1

> <Gold.Id.Protein>
6NUR|6NUR_protein|mol2

> <Gold.PLP.Fitness>
45.0222

> <Gold.PLP.PLP>
-41.3639

> <Gold.PLP.part.hbond>
-3.3819

> <Gold.PLP.part.metal>
0.0000

> <Gold.PLP.part.buried>
-1.8259

> <Gold.PLP.part.nonpolar>
-37.5891

> <Gold.PLP.part.repulsive>
1.1649

> <Gold.PLP.ligand.clash>
0.0000

> <Gold.PLP.ligand.torsion>
1.1409

> <Gold.PLP.Chemscore.Hbond>
1.8990

> <Gold.PLP.Chemscore.CHOScore>
0.0000

> <Gold.PLP.Chemscore.Metal>
0.0000

> <Gold.Chemscore.Hbonds>
donor molecule, donor type, donor heavy atom, donor atom, acceptor molecule, acceptor atom, score
      L1  H    11    40       P1  7957  1.00
      P1  H  7989  7998       L1    11  0.75
      P1  H  8022  8030       L1    26  0.16

> <Gold.PLP.Chemscore.Internal.Correction>
0.2429

> <Gold.Rescore>
     Score         DG    S(hbond)    S(metal)    S(lipo)     H(rot)  DE(clash)    DE(int)     intcor
     13.45     -17.09       1.43        0.00     118.20       2.73       1.68       1.96       ----

> <Gold.Chemscore.Fitness>
13.4493

> <Gold.Chemscore.DG>
-17.0890

> <Gold.Chemscore.ZeroCoef>
-5.4800

> <Gold.Chemscore.Hbond>
1.4289

> <Gold.Chemscore.Metal>
0.0000

> <Gold.Chemscore.Lipo>
118.1964

> <Gold.Chemscore.Internal_Hbond>
0.0000

> <Gold.Chemscore.DEClash>
1.6763

> <Gold.Chemscore.DEInternal>
1.9635

> <Gold.Chemscore.Rot>
2.7315

> <Gold.Chemscore.Internal.Correction>
   9.000000E+99

> <Gold.Chemscore.Hbonds>
donor molecule, donor type, donor heavy atom, donor atom, acceptor molecule, acceptor atom, score
      L1  H    11    40       P1  7957  0.99
      P1  H  7989  7998       L1    11  0.30
      P1  H  8022  8030       L1    26  0.16

> <Gold.Chemscore.Hbond.Weighted>
-4.7726

> <Gold.Chemscore.Metal.Weighted>
-0.0000

> <Gold.Chemscore.Lipo.Weighted>
-13.8290

> <Gold.Chemscore.Internal_Hbond.Weighted>
0.0000

> <Gold.Chemscore.DEClash.Weighted>
1.6763

> <Gold.Chemscore.DEInternal.Weighted>
1.9635

> <Gold.Chemscore.Rot.Weighted>
6.9925

> <Gold.Chemscore.Internal.Correction.Weighted>
   9.000000E+99

> <Gold.Protein.RotatedTorsions>
[ 6907 6896 6895 6894 ] final -159.76 input  -60.11 | X-H torsion
[ 7974 7965 7964 7962 ] final -162.23 input  175.53 | X-H torsion
[ 8008 7997 7996 7995 ] final   31.42 input   59.86 | X-H torsion
[ 10167 10162 10161 10158 ] final  144.57 input  -65.29 | X-H torsion
[ 10718 10713 10712 10709 ] final  -40.77 input   66.30 | X-H torsion
[ 10763 10752 10751 10750 ] final  -19.78 input  -60.55 | X-H torsion
[ 11005 11000 10999 10996 ] final  -18.91 input  -57.11 | X-H torsion

> <Gold.Protein.ActiveResidues>
 VAL166  LYS551  ARG553  GLY616  TRP617  ASP618  TYR619  PRO620  LYS621  CYS622 
 ASP623  PHE694  ASN695  SER759  ASP760  ASP761  ALA762  ILE779  LEU786  VAL792 
 PHE793  MET794  SER795  GLU796  ALA797  LYS798  CYS799  TRP800  GLU811  SER814 

> <Gold.Protein.RotatedAtoms>
  151.3386  133.3971  159.2668 H   0  0  0  0  0  0  0  0  0  0  0  0  # atno 6907 bound_to 6896
  150.9896  134.9235  159.7902 H   0  0  0  0  0  0  0  0  0  0  0  0  # atno 6908 bound_to 6896
  152.5243  134.3351  159.9249 H   0  0  0  0  0  0  0  0  0  0  0  0  # atno 6909 bound_to 6896
  144.7364  140.3282  143.6158 H   0  0  0  0  0  0  0  0  0  0  0  0  # atno 7974 bound_to 7965
  155.1061  140.3234  155.4534 H   0  0  0  0  0  0  0  0  0  0  0  0  # atno 8008 bound_to 7997
  156.2703  140.2052  156.6134 H   0  0  0  0  0  0  0  0  0  0  0  0  # atno 8009 bound_to 7997
  154.6792  140.0528  157.0234 H   0  0  0  0  0  0  0  0  0  0  0  0  # atno 8010 bound_to 7997
  139.4944  144.5963  151.6576 H   0  0  0  0  0  0  0  0  0  0  0  0  # atno 10167 bound_to 10162
  156.2776  130.4213  149.8371 H   0  0  0  0  0  0  0  0  0  0  0  0  # atno 10718 bound_to 10713
  153.6101  135.6996  153.5350 H   0  0  0  0  0  0  0  0  0  0  0  0  # atno 10763 bound_to 10752
  153.3023  135.4125  155.1263 H   0  0  0  0  0  0  0  0  0  0  0  0  # atno 10764 bound_to 10752
  154.8565  135.3652  154.5640 H   0  0  0  0  0  0  0  0  0  0  0  0  # atno 10765 bound_to 10752
  140.8315  133.7993  155.9764 H   0  0  0  0  0  0  0  0  0  0  0  0  # atno 11005 bound_to 11000
  145.7499  139.1790  143.2328 LP  0  0  0  0  0  0  0  0  0  0  0  0  # atno 17320 bound_to 7965
  146.1069  140.7476  142.9522 LP  0  0  0  0  0  0  0  0  0  0  0  0  # atno 17321 bound_to 7965
  140.5601  144.0282  150.6166 LP  0  0  0  0  0  0  0  0  0  0  0  0  # atno 17342 bound_to 10162
  140.3365  143.3045  152.0633 LP  0  0  0  0  0  0  0  0  0  0  0  0  # atno 17343 bound_to 10162
  156.5829  130.8473  151.3388 LP  0  0  0  0  0  0  0  0  0  0  0  0  # atno 17370 bound_to 10713
  157.7304  130.9685  150.1832 LP  0  0  0  0  0  0  0  0  0  0  0  0  # atno 17371 bound_to 10713
  140.8993  134.2398  157.5051 LP  0  0  0  0  0  0  0  0  0  0  0  0  # atno 17394 bound_to 11000
  139.8705  134.9699  156.4681 LP  0  0  0  0  0  0  0  0  0  0  0  0  # atno 17395 bound_to 11000

$$$$
