AV-unprocessed.smi:1648|AV-procd|sdf|6628|dock2
  -GOLD-   22720 7323D 1   1.00000     0.00000
 Structure written by MMmdl.
 42 42  0  0  0  0  0  0  0  0  2 V2000
  147.4682  142.1307  154.3288 C   0  0  0  0  0  0  0  0  0  0  0  0
  148.9155  141.6389  154.2636 C   0  0  0  0  0  0  0  0  0  0  0  0
  149.5400  141.7391  153.2102 O   0  0  0  0  0  0  0  0  0  0  0  0
  149.4813  141.1069  155.3611 N   0  0  0  0  0  0  0  0  0  0  0  0
  150.8437  140.5833  155.5000 C   0  0  1  0  0  0  0  0  0  0  0  0
  151.3983  141.0068  156.8750 C   0  0  0  0  0  0  0  0  0  0  0  0
  152.2673  140.3357  157.4338 O   0  0  0  0  0  0  0  0  0  0  0  0
  150.8857  142.1306  157.4011 N   0  0  0  0  0  0  0  0  0  0  0  0
  151.1973  142.6840  158.7182 C   0  0  2  0  0  0  0  0  0  0  0  0
  150.6392  144.1119  158.7892 C   0  0  0  0  0  0  0  0  0  0  0  0
  152.7165  142.6662  158.9991 C   0  0  0  0  0  0  0  0  0  0  0  0
  153.0462  142.3756  160.3996 N   0  0  0  0  0  0  0  0  0  0  0  0
  152.5918  143.0343  161.5141 C   0  0  0  0  0  0  0  0  0  0  0  0
  153.1697  142.4201  162.5950 C   0  0  0  0  0  0  0  0  0  0  0  0
  153.9646  141.4241  162.0952 N   0  3  0  0  0  0  0  0  0  0  0  0
  153.8964  141.4055  160.7601 C   0  0  0  0  0  0  0  0  0  0  0  0
  150.7988  139.0294  155.4022 C   0  0  0  0  0  0  0  0  0  0  0  0
  152.2026  138.3912  155.3768 C   0  0  0  0  0  0  0  0  0  0  0  0
  150.0116  138.5462  154.1673 C   0  0  0  0  0  0  0  0  0  0  0  0
  146.7923  141.3192  154.5984 H   0  0  0  0  0  0  0  0  0  0  0  0
  147.1526  142.5194  153.3600 H   0  0  0  0  0  0  0  0  0  0  0  0
  147.3649  142.9327  155.0598 H   0  0  0  0  0  0  0  0  0  0  0  0
  148.9111  141.0741  156.1937 H   0  0  0  0  0  0  0  0  0  0  0  0
  151.4776  140.9727  154.7013 H   0  0  0  0  0  0  0  0  0  0  0  0
  150.1834  142.6183  156.8635 H   0  0  0  0  0  0  0  0  0  0  0  0
  150.6826  142.1037  159.4862 H   0  0  0  0  0  0  0  0  0  0  0  0
  150.8120  144.5533  159.7712 H   0  0  0  0  0  0  0  0  0  0  0  0
  149.5632  144.1231  158.6105 H   0  0  0  0  0  0  0  0  0  0  0  0
  151.1070  144.7599  158.0469 H   0  0  0  0  0  0  0  0  0  0  0  0
  153.2216  141.9423  158.3573 H   0  0  0  0  0  0  0  0  0  0  0  0
  153.1506  143.6414  158.7753 H   0  0  0  0  0  0  0  0  0  0  0  0
  151.9012  143.8633  161.4577 H   0  0  0  0  0  0  0  0  0  0  0  0
  153.0798  142.6143  163.6538 H   0  0  0  0  0  0  0  0  0  0  0  0
  154.4216  140.7334  160.1051 H   0  0  0  0  0  0  0  0  0  0  0  0
  150.2808  138.6414  156.2813 H   0  0  0  0  0  0  0  0  0  0  0  0
  152.7860  138.7576  154.5316 H   0  0  0  0  0  0  0  0  0  0  0  0
  152.1384  137.3063  155.2879 H   0  0  0  0  0  0  0  0  0  0  0  0
  152.7666  138.5996  156.2839 H   0  0  0  0  0  0  0  0  0  0  0  0
  150.4495  138.9298  153.2452 H   0  0  0  0  0  0  0  0  0  0  0  0
  148.9684  138.8602  154.1960 H   0  0  0  0  0  0  0  0  0  0  0  0
  150.0100  137.4576  154.1040 H   0  0  0  0  0  0  0  0  0  0  0  0
  154.5268  140.7938  162.6535 H   0  0  0  0  0  0  0  0  0  0  0  0
  1  2  1  0  0  0  0
  1 20  1  0  0  0  0
  1 21  1  0  0  0  0
  1 22  1  0  0  0  0
  2  3  2  0  0  0  0
  2  4  1  0  0  0  0
  4  5  1  0  0  0  0
  4 23  1  0  0  0  0
  5  6  1  0  0  0  0
  5 17  1  0  0  0  0
  5 24  1  0  0  0  0
  6  7  2  0  0  0  0
  6  8  1  0  0  0  0
  8  9  1  0  0  0  0
  8 25  1  0  0  0  0
  9 10  1  0  0  0  0
  9 11  1  0  0  0  0
  9 26  1  0  0  0  0
 10 27  1  0  0  0  0
 10 28  1  0  0  0  0
 10 29  1  0  0  0  0
 11 12  1  0  0  0  0
 11 30  1  0  0  0  0
 11 31  1  0  0  0  0
 12 16  1  0  0  0  0
 12 13  1  0  0  0  0
 13 14  2  0  0  0  0
 13 32  1  0  0  0  0
 14 15  1  0  0  0  0
 14 33  1  0  0  0  0
 15 16  2  0  0  0  0
 15 42  1  0  0  0  0
 16 34  1  0  0  0  0
 17 18  1  0  0  0  0
 17 19  1  0  0  0  0
 17 35  1  0  0  0  0
 18 36  1  0  0  0  0
 18 37  1  0  0  0  0
 18 38  1  0  0  0  0
 19 39  1  0  0  0  0
 19 40  1  0  0  0  0
 19 41  1  0  0  0  0
M  CHG  1  15   1
M  END
> <s_m_source_file>
AV-unprocessed.smi

> <i_m_source_file_index>
1648

> <i_lp_mmshare_version>
43012

> <i_f3d_flags>
0

> <s_epik_input>
W0NIM11DKD1PKVtOSF1bQ0BASF0oW0NIXShbQ0gzXSlbQ0gzXSlDKD1PKVtOSF1bQ0BIXShbQ0gzXSlbQ0gyXW4xW2NIXVtjSF1uW2NIXTE=

> <s_epik_cmdline>
J2VwaWtfcHl0aG9uJywgJy1waCcsICc3LjAnLCAnLXRuJywgJzgnLCAnLW1hJywgJzIwMCcsICctbWV0YWxfYmluZGluZycsICctaW1hZScsICc8aW5maWxlLm1hZT4nLCAnLW9tYWUnLCAnPG91dGZpbGUubWFlPic=

> <r_lp_tautomer_probability>
1

> <r_epik_Ionization_Penalty>
0.251562

> <r_epik_Ionization_Penalty_Charging>
0

> <r_epik_Ionization_Penalty_Neutral>
0.251562

> <r_epik_State_Penalty>
0.242926

> <r_epik_Charging_Adjusted_Penalty>
0.242926

> <i_epik_Tot_Q>
1

> <i_epik_Tot_abs_Q>
1

> <r_epik_Metal_State_Penalty>
0.53388

> <b_epik_Metal_Only>
0

> <s_lp_Force_Field>
OPLS_2005

> <r_lp_Energy>
11.0591

> <b_lp_Chiralities_Consistent>
1

> <s_lp_Variant>
AV-unprocessed.smi:1648-2

> <Gold.Version>
5.8.1

> <Gold.Id.Protein>
6NUR|6NUR_protein|mol2

> <Gold.PLP.Fitness>
44.8129

> <Gold.PLP.PLP>
-42.9638

> <Gold.PLP.part.hbond>
-3.8579

> <Gold.PLP.part.metal>
0.0000

> <Gold.PLP.part.buried>
-2.3693

> <Gold.PLP.part.nonpolar>
-37.6147

> <Gold.PLP.part.repulsive>
2.4370

> <Gold.PLP.ligand.clash>
0.0000

> <Gold.PLP.ligand.torsion>
1.7678

> <Gold.PLP.Chemscore.Hbond>
1.7600

> <Gold.PLP.Chemscore.CHOScore>
0.0000

> <Gold.PLP.Chemscore.Metal>
0.0000

> <Gold.Chemscore.Hbonds>
donor molecule, donor type, donor heavy atom, donor atom, acceptor molecule, acceptor atom, score
      P1  H  7997  8010       L1     7  0.41
      P1  H  8011  8017       L1     3  0.01

> <Gold.PLP.Chemscore.Internal.Correction>
0.1047

> <Gold.Rescore>
     Score         DG    S(hbond)    S(metal)    S(lipo)     H(rot)  DE(clash)    DE(int)     intcor
      7.44     -12.93       1.59        0.00      75.36       2.61       1.92       3.57       ----

> <Gold.Chemscore.Fitness>
7.4377

> <Gold.Chemscore.DG>
-12.9273

> <Gold.Chemscore.ZeroCoef>
-5.4800

> <Gold.Chemscore.Hbond>
1.5931

> <Gold.Chemscore.Metal>
0.0000

> <Gold.Chemscore.Lipo>
75.3596

> <Gold.Chemscore.Internal_Hbond>
0.0000

> <Gold.Chemscore.DEClash>
1.9204

> <Gold.Chemscore.DEInternal>
3.5692

> <Gold.Chemscore.Rot>
2.6135

> <Gold.Chemscore.Internal.Correction>
   9.000000E+99

> <Gold.Chemscore.Hbonds>
donor molecule, donor type, donor heavy atom, donor atom, acceptor molecule, acceptor atom, score
      P1  H  7989  7998       L1     3  0.01
      P1  H  7997  8010       L1     7  0.38
      P1  H  8011  8017       L1     3  0.06

> <Gold.Chemscore.Hbond.Weighted>
-5.3208

> <Gold.Chemscore.Metal.Weighted>
-0.0000

> <Gold.Chemscore.Lipo.Weighted>
-8.8171

> <Gold.Chemscore.Internal_Hbond.Weighted>
0.0000

> <Gold.Chemscore.DEClash.Weighted>
1.9204

> <Gold.Chemscore.DEInternal.Weighted>
3.5692

> <Gold.Chemscore.Rot.Weighted>
6.6906

> <Gold.Chemscore.Internal.Correction.Weighted>
   9.000000E+99

> <Gold.Protein.RotatedTorsions>
[ 6907 6896 6895 6894 ] final -101.09 input  -60.11 | X-H torsion
[ 7974 7965 7964 7962 ] final  -89.86 input  175.53 | X-H torsion
[ 8008 7997 7996 7995 ] final   62.12 input   59.86 | X-H torsion
[ 10167 10162 10161 10158 ] final -112.59 input  -65.29 | X-H torsion
[ 10718 10713 10712 10709 ] final  119.73 input   66.30 | X-H torsion
[ 10763 10752 10751 10750 ] final   51.27 input  -60.55 | X-H torsion
[ 11005 11000 10999 10996 ] final  -15.08 input  -57.11 | X-H torsion

> <Gold.Protein.ActiveResidues>
 VAL166  LYS551  ARG553  GLY616  TRP617  ASP618  TYR619  PRO620  LYS621  CYS622 
 ASP623  PHE694  ASN695  SER759  ASP760  ASP761  ALA762  ILE779  LEU786  VAL792 
 PHE793  MET794  SER795  GLU796  ALA797  LYS798  CYS799  TRP800  GLU811  SER814 

> <Gold.Protein.RotatedAtoms>
  150.7141  134.0788  159.3890 H   0  0  0  0  0  0  0  0  0  0  0  0  # atno 6907 bound_to 6896
  151.8772  135.0465  160.0494 H   0  0  0  0  0  0  0  0  0  0  0  0  # atno 6908 bound_to 6896
  152.2597  133.5251  159.5411 H   0  0  0  0  0  0  0  0  0  0  0  0  # atno 6909 bound_to 6896
  145.4341  140.9557  143.2111 H   0  0  0  0  0  0  0  0  0  0  0  0  # atno 7974 bound_to 7965
  155.6093  140.3495  155.4617 H   0  0  0  0  0  0  0  0  0  0  0  0  # atno 8008 bound_to 7997
  156.0167  140.1245  157.0424 H   0  0  0  0  0  0  0  0  0  0  0  0  # atno 8009 bound_to 7997
  154.4300  140.1071  156.5891 H   0  0  0  0  0  0  0  0  0  0  0  0  # atno 8010 bound_to 7997
  140.1211  143.4442  152.1690 H   0  0  0  0  0  0  0  0  0  0  0  0  # atno 10167 bound_to 10162
  157.5941  131.1060  150.7936 H   0  0  0  0  0  0  0  0  0  0  0  0  # atno 10718 bound_to 10713
  152.9785  135.5851  154.4387 H   0  0  0  0  0  0  0  0  0  0  0  0  # atno 10763 bound_to 10752
  154.3991  135.2768  155.2109 H   0  0  0  0  0  0  0  0  0  0  0  0  # atno 10764 bound_to 10752
  154.3948  135.6117  153.5918 H   0  0  0  0  0  0  0  0  0  0  0  0  # atno 10765 bound_to 10752
  140.7930  133.8273  155.9398 H   0  0  0  0  0  0  0  0  0  0  0  0  # atno 11005 bound_to 11000
  144.8163  139.5870  143.7007 LP  0  0  0  0  0  0  0  0  0  0  0  0  # atno 17320 bound_to 7965
  146.2591  139.6370  142.9374 LP  0  0  0  0  0  0  0  0  0  0  0  0  # atno 17321 bound_to 7965
  139.5568  144.7378  151.4270 LP  0  0  0  0  0  0  0  0  0  0  0  0  # atno 17342 bound_to 10162
  140.6871  143.7948  150.7202 LP  0  0  0  0  0  0  0  0  0  0  0  0  # atno 17343 bound_to 10162
  156.8351  130.5029  149.5327 LP  0  0  0  0  0  0  0  0  0  0  0  0  # atno 17370 bound_to 10713
  156.1001  130.5962  150.9879 LP  0  0  0  0  0  0  0  0  0  0  0  0  # atno 17371 bound_to 10713
  140.9370  134.1949  157.4824 LP  0  0  0  0  0  0  0  0  0  0  0  0  # atno 17394 bound_to 11000
  139.8729  134.9856  156.5290 LP  0  0  0  0  0  0  0  0  0  0  0  0  # atno 17395 bound_to 11000

$$$$
