AV-unprocessed.smi:3028|AV-procd|sdf|11522|dock7
  -GOLD-   2272016463D 1   1.00000     0.00000
 Structure written by MMmdl.
 47 48  0  0  0  0  0  0  0  0  1 V2000
  152.4667  144.8758  158.3125 C   0  0  0  0  0  0  0  0  0  0  0  0
  152.0286  143.4460  158.1826 C   0  0  0  0  0  0  0  0  0  0  0  0
  152.5194  142.3128  158.8907 C   0  0  0  0  0  0  0  0  0  0  0  0
  151.9218  141.1871  158.5378 N   0  0  0  0  0  0  0  0  0  0  0  0
  151.0255  141.5569  157.5975 N   0  0  0  0  0  0  0  0  0  0  0  0
  150.1734  140.5525  156.9711 C   0  0  1  0  0  0  0  0  0  0  0  0
  149.2104  141.2496  155.9914 C   0  0  0  0  0  0  0  0  0  0  0  0
  151.0085  139.4172  156.3122 C   0  0  2  0  0  0  0  0  0  0  0  0
  151.9366  139.9237  155.1943 C   0  0  0  0  0  0  0  0  0  0  0  0
  150.1247  138.4390  155.6812 N   0  0  0  0  0  0  0  0  0  0  0  0
  150.8571  137.3821  154.9702 C   0  0  0  0  0  0  0  0  0  0  0  0
  150.4306  135.9707  155.4026 C   0  0  0  0  0  0  0  0  0  0  0  0
  150.6455  135.5849  156.5511 O   0  0  0  0  0  0  0  0  0  0  0  0
  149.8094  135.1712  154.5185 N   0  0  0  0  0  0  0  0  0  0  0  0
  149.3285  133.8079  154.7311 C   0  0  0  0  0  0  0  0  0  0  0  0
  150.4919  132.9074  155.1724 C   0  0  0  0  0  0  0  0  0  0  0  0
  150.0407  131.4400  155.2538 C   0  0  0  0  0  0  0  0  0  0  0  0
  149.5102  131.0215  154.0005 O   0  0  0  0  0  0  0  0  0  0  0  0
  148.3568  131.7594  153.6119 C   0  0  0  0  0  0  0  0  0  0  0  0
  148.7167  133.2432  153.4381 C   0  0  0  0  0  0  0  0  0  0  0  0
  151.0711  142.9172  157.3646 C   0  0  0  0  0  0  0  0  0  0  0  0
  153.4633  144.9553  158.7468 H   0  0  0  0  0  0  0  0  0  0  0  0
  151.7914  145.4462  158.9500 H   0  0  0  0  0  0  0  0  0  0  0  0
  152.4991  145.3776  157.3452 H   0  0  0  0  0  0  0  0  0  0  0  0
  153.2920  142.2753  159.6445 H   0  0  0  0  0  0  0  0  0  0  0  0
  149.5569  140.1072  157.7547 H   0  0  0  0  0  0  0  0  0  0  0  0
  148.4329  140.5716  155.6401 H   0  0  0  0  0  0  0  0  0  0  0  0
  149.7378  141.6359  155.1187 H   0  0  0  0  0  0  0  0  0  0  0  0
  148.7045  142.0876  156.4720 H   0  0  0  0  0  0  0  0  0  0  0  0
  151.6373  138.9379  157.0647 H   0  0  0  0  0  0  0  0  0  0  0  0
  152.7167  140.5764  155.5857 H   0  0  0  0  0  0  0  0  0  0  0  0
  151.3835  140.4799  154.4363 H   0  0  0  0  0  0  0  0  0  0  0  0
  152.4425  139.0957  154.6960 H   0  0  0  0  0  0  0  0  0  0  0  0
  149.4973  138.9216  155.0536 H   0  0  0  0  0  0  0  0  0  0  0  0
  150.6848  137.4776  153.8975 H   0  0  0  0  0  0  0  0  0  0  0  0
  151.9237  137.5074  155.1427 H   0  0  0  0  0  0  0  0  0  0  0  0
  149.6489  135.5554  153.5985 H   0  0  0  0  0  0  0  0  0  0  0  0
  148.5784  133.7892  155.5229 H   0  0  0  0  0  0  0  0  0  0  0  0
  151.3166  132.9886  154.4627 H   0  0  0  0  0  0  0  0  0  0  0  0
  150.8775  133.2333  156.1388 H   0  0  0  0  0  0  0  0  0  0  0  0
  150.8871  130.8019  155.5080 H   0  0  0  0  0  0  0  0  0  0  0  0
  149.2946  131.3061  156.0387 H   0  0  0  0  0  0  0  0  0  0  0  0
  147.9782  131.3539  152.6736 H   0  0  0  0  0  0  0  0  0  0  0  0
  147.5667  131.6360  154.3538 H   0  0  0  0  0  0  0  0  0  0  0  0
  147.8313  133.8097  153.1523 H   0  0  0  0  0  0  0  0  0  0  0  0
  149.4269  133.3445  152.6161 H   0  0  0  0  0  0  0  0  0  0  0  0
  150.4258  143.3912  156.6398 H   0  0  0  0  0  0  0  0  0  0  0  0
  1  2  1  0  0  0  0
  1 22  1  0  0  0  0
  1 23  1  0  0  0  0
  1 24  1  0  0  0  0
  2 21  2  0  0  0  0
  2  3  1  0  0  0  0
  3  4  2  0  0  0  0
  3 25  1  0  0  0  0
  4  5  1  0  0  0  0
  5  6  1  0  0  0  0
  5 21  1  0  0  0  0
  6  7  1  0  0  0  0
  6  8  1  0  0  0  0
  6 26  1  0  0  0  0
  7 27  1  0  0  0  0
  7 28  1  0  0  0  0
  7 29  1  0  0  0  0
  8  9  1  0  0  0  0
  8 10  1  0  0  0  0
  8 30  1  0  0  0  0
  9 31  1  0  0  0  0
  9 32  1  0  0  0  0
  9 33  1  0  0  0  0
 10 11  1  0  0  0  0
 10 34  1  0  0  0  0
 11 12  1  0  0  0  0
 11 35  1  0  0  0  0
 11 36  1  0  0  0  0
 12 13  2  0  0  0  0
 12 14  1  0  0  0  0
 14 15  1  0  0  0  0
 14 37  1  0  0  0  0
 15 20  1  0  0  0  0
 15 16  1  0  0  0  0
 15 38  1  0  0  0  0
 16 17  1  0  0  0  0
 16 39  1  0  0  0  0
 16 40  1  0  0  0  0
 17 18  1  0  0  0  0
 17 41  1  0  0  0  0
 17 42  1  0  0  0  0
 18 19  1  0  0  0  0
 19 20  1  0  0  0  0
 19 43  1  0  0  0  0
 19 44  1  0  0  0  0
 20 45  1  0  0  0  0
 20 46  1  0  0  0  0
 21 47  1  0  0  0  0
M  END
> <s_m_source_file>
AV-unprocessed.smi

> <i_m_source_file_index>
3028

> <i_lp_mmshare_version>
43012

> <i_f3d_flags>
0

> <s_epik_input>
W0NIM11jMVtjSF1ubihbY0hdMSlbQ0BIXShbQ0gzXSlbQ0BIXShbQ0gzXSlbTkhdW0NIMl1DKD1PKVtOSF1bQ0hdMltDSDJdW0NIMl1PW0NIMl1bQ0gyXTI=

> <s_epik_cmdline>
J2VwaWtfcHl0aG9uJywgJy1waCcsICc3LjAnLCAnLXRuJywgJzgnLCAnLW1hJywgJzIwMCcsICctbWV0YWxfYmluZGluZycsICctaW1hZScsICc8aW5maWxlLm1hZT4nLCAnLW9tYWUnLCAnPG91dGZpbGUubWFlPic=

> <r_lp_tautomer_probability>
1

> <r_epik_Ionization_Penalty>
0.88617

> <r_epik_Ionization_Penalty_Charging>
0

> <r_epik_Ionization_Penalty_Neutral>
0.88617

> <r_epik_State_Penalty>
0.921066

> <r_epik_Charging_Adjusted_Penalty>
0.921066

> <i_epik_Tot_Q>
0

> <i_epik_Tot_abs_Q>
0

> <r_epik_Metal_State_Penalty>
0.917309

> <b_epik_Metal_Only>
0

> <s_lp_Force_Field>
OPLS_2005

> <r_lp_Energy>
17.6671

> <b_lp_Chiralities_Consistent>
1

> <s_lp_Variant>
AV-unprocessed.smi:3028-6

> <Gold.Version>
5.8.1

> <Gold.Id.Protein>
6NUR|6NUR_protein|mol2

> <Gold.PLP.Fitness>
43.6300

> <Gold.PLP.PLP>
-39.1749

> <Gold.PLP.part.hbond>
-1.0000

> <Gold.PLP.part.metal>
0.0000

> <Gold.PLP.part.buried>
-2.9200

> <Gold.PLP.part.nonpolar>
-35.8550

> <Gold.PLP.part.repulsive>
0.1276

> <Gold.PLP.ligand.clash>
0.0000

> <Gold.PLP.ligand.torsion>
0.4386

> <Gold.PLP.Chemscore.Hbond>
0.7500

> <Gold.PLP.Chemscore.CHOScore>
1.0000

> <Gold.PLP.Chemscore.Metal>
0.0000

> <Gold.Chemscore.Hbonds>
donor molecule, donor type, donor heavy atom, donor atom, acceptor molecule, acceptor atom, score
      L1  H    14    37       P1  7948  0.75
      L1  C    21    47       P1  8028  1.00

> <Gold.PLP.Chemscore.Internal.Correction>
0.0823

> <Gold.Rescore>
     Score         DG    S(hbond)    S(metal)    S(lipo)     H(rot)  DE(clash)    DE(int)     intcor
     14.53     -15.22       0.97        0.00      97.78       1.92       0.19       0.50       ----

> <Gold.Chemscore.Fitness>
14.5321

> <Gold.Chemscore.DG>
-15.2223

> <Gold.Chemscore.ZeroCoef>
-5.4800

> <Gold.Chemscore.Hbond>
0.9656

> <Gold.Chemscore.Metal>
0.0000

> <Gold.Chemscore.Lipo>
97.7848

> <Gold.Chemscore.Internal_Hbond>
0.0000

> <Gold.Chemscore.DEClash>
0.1885

> <Gold.Chemscore.DEInternal>
0.5017

> <Gold.Chemscore.Rot>
1.9233

> <Gold.Chemscore.Internal.Correction>
   9.000000E+99

> <Gold.Chemscore.Hbonds>
donor molecule, donor type, donor heavy atom, donor atom, acceptor molecule, acceptor atom, score
      L1  H    14    37       P1  7948  0.09

> <Gold.Chemscore.Hbond.Weighted>
-3.2251

> <Gold.Chemscore.Metal.Weighted>
-0.0000

> <Gold.Chemscore.Lipo.Weighted>
-11.4408

> <Gold.Chemscore.Internal_Hbond.Weighted>
0.0000

> <Gold.Chemscore.DEClash.Weighted>
0.1885

> <Gold.Chemscore.DEInternal.Weighted>
0.5017

> <Gold.Chemscore.Rot.Weighted>
4.9235

> <Gold.Chemscore.Internal.Correction.Weighted>
   9.000000E+99

> <Gold.Protein.RotatedTorsions>
[ 6907 6896 6895 6894 ] final  -21.33 input  -60.11 | X-H torsion
[ 7974 7965 7964 7962 ] final  172.93 input  175.53 | X-H torsion
[ 8008 7997 7996 7995 ] final  114.62 input   59.86 | X-H torsion
[ 10167 10162 10161 10158 ] final  -16.11 input  -65.29 | X-H torsion
[ 10718 10713 10712 10709 ] final   79.00 input   66.30 | X-H torsion
[ 10763 10752 10751 10750 ] final  -14.14 input  -60.55 | X-H torsion
[ 11005 11000 10999 10996 ] final  138.01 input  -57.11 | X-H torsion

> <Gold.Protein.ActiveResidues>
 VAL166  LYS551  ARG553  GLY616  TRP617  ASP618  TYR619  PRO620  LYS621  CYS622 
 ASP623  PHE694  ASN695  SER759  ASP760  ASP761  ALA762  ILE779  LEU786  VAL792 
 PHE793  MET794  SER795  GLU796  ALA797  LYS798  CYS799  TRP800  GLU811  SER814 

> <Gold.Protein.RotatedAtoms>
  151.2349  135.0568  159.9002 H   0  0  0  0  0  0  0  0  0  0  0  0  # atno 6907 bound_to 6896
  152.5400  134.0497  159.8114 H   0  0  0  0  0  0  0  0  0  0  0  0  # atno 6908 bound_to 6896
  151.0682  133.5439  159.2660 H   0  0  0  0  0  0  0  0  0  0  0  0  # atno 6909 bound_to 6896
  144.7256  139.9571  143.6434 H   0  0  0  0  0  0  0  0  0  0  0  0  # atno 7974 bound_to 7965
  156.2332  140.2955  156.0244 H   0  0  0  0  0  0  0  0  0  0  0  0  # atno 8008 bound_to 7997
  155.2165  140.0414  157.2959 H   0  0  0  0  0  0  0  0  0  0  0  0  # atno 8009 bound_to 7997
  154.6033  140.2432  155.7771 H   0  0  0  0  0  0  0  0  0  0  0  0  # atno 8010 bound_to 7997
  140.7229  143.5149  150.9704 H   0  0  0  0  0  0  0  0  0  0  0  0  # atno 10167 bound_to 10162
  157.6763  130.9894  150.1868 H   0  0  0  0  0  0  0  0  0  0  0  0  # atno 10718 bound_to 10713
  153.5239  135.7015  153.5717 H   0  0  0  0  0  0  0  0  0  0  0  0  # atno 10763 bound_to 10752
  153.3755  135.3934  155.1819 H   0  0  0  0  0  0  0  0  0  0  0  0  # atno 10764 bound_to 10752
  154.8692  135.3822  154.4730 H   0  0  0  0  0  0  0  0  0  0  0  0  # atno 10765 bound_to 10752
  140.0154  134.9420  157.0365 H   0  0  0  0  0  0  0  0  0  0  0  0  # atno 11005 bound_to 11000
  146.0666  139.3656  143.0549 LP  0  0  0  0  0  0  0  0  0  0  0  0  # atno 17320 bound_to 7965
  145.8023  140.9765  143.0992 LP  0  0  0  0  0  0  0  0  0  0  0  0  # atno 17321 bound_to 7965
  139.8865  143.7007  152.3151 LP  0  0  0  0  0  0  0  0  0  0  0  0  # atno 17342 bound_to 10162
  139.7307  144.7583  151.0806 LP  0  0  0  0  0  0  0  0  0  0  0  0  # atno 17343 bound_to 10162
  156.2588  130.3708  149.8153 LP  0  0  0  0  0  0  0  0  0  0  0  0  # atno 17370 bound_to 10713
  156.5904  130.8504  151.3406 LP  0  0  0  0  0  0  0  0  0  0  0  0  # atno 17371 bound_to 10713
  140.4480  134.1611  155.7179 LP  0  0  0  0  0  0  0  0  0  0  0  0  # atno 17394 bound_to 11000
  141.1739  133.8553  157.1483 LP  0  0  0  0  0  0  0  0  0  0  0  0  # atno 17395 bound_to 11000

$$$$
