AV-unprocessed.smi:753|AV-procd|sdf|3599|dock4
  -GOLD-   22720 0593D 1   1.00000     0.00000
 Structure written by MMmdl.
 43 45  0  0  0  0  0  0  0  0  1 V2000
  143.9690  144.8455  155.8863 C   0  0  0  0  0  0  0  0  0  0  0  0
  145.0138  143.9403  155.2676 C   0  0  0  0  0  0  0  0  0  0  0  0
  145.6354  144.2804  154.0474 C   0  0  0  0  0  0  0  0  0  0  0  0
  146.5959  143.3989  153.5154 C   0  0  0  0  0  0  0  0  0  0  0  0
  146.8980  142.2165  154.2213 C   0  0  0  0  0  0  0  0  0  0  0  0
  147.9176  141.2308  153.6861 C   0  0  0  0  0  0  0  0  0  0  0  0
  148.9530  140.8387  154.7520 C   0  0  0  0  0  0  0  0  0  0  0  0
  149.2473  141.9518  155.6453 N   0  0  0  0  0  0  0  0  0  0  0  0
  149.7460  141.8348  156.8874 C   0  0  0  0  0  0  0  0  0  0  0  0
  150.0041  140.7548  157.4156 O   0  0  0  0  0  0  0  0  0  0  0  0
  149.9504  143.0024  157.5222 N   0  0  0  0  0  0  0  0  0  0  0  0
  150.4785  143.2114  158.8721 C   0  0  2  0  0  0  0  0  0  0  0  0
  150.4466  144.6941  159.3126 C   0  0  0  0  0  0  0  0  0  0  0  0
  151.9241  144.9897  159.6301 C   0  0  1  0  0  0  0  0  0  0  0  0
  152.3430  144.2198  160.8975 C   0  0  0  0  0  0  0  0  0  0  0  0
  152.4106  142.7604  160.4051 C   0  0  0  0  0  0  0  0  0  0  0  0
  151.9869  142.8845  158.9297 C   0  0  2  0  0  0  0  0  0  0  0  0
  152.6380  144.2075  158.5363 C   0  0  0  0  0  0  0  0  0  0  0  0
  146.2199  141.9702  155.4338 C   0  0  0  0  0  0  0  0  0  0  0  0
  145.2967  142.8091  155.9511 N   0  0  0  0  0  0  0  0  0  0  0  0
  143.8379  145.7563  155.3014 H   0  0  0  0  0  0  0  0  0  0  0  0
  144.2628  145.1306  156.8968 H   0  0  0  0  0  0  0  0  0  0  0  0
  143.0078  144.3335  155.9387 H   0  0  0  0  0  0  0  0  0  0  0  0
  145.3829  145.1929  153.5275 H   0  0  0  0  0  0  0  0  0  0  0  0
  147.0881  143.6272  152.5814 H   0  0  0  0  0  0  0  0  0  0  0  0
  147.3963  140.3447  153.3209 H   0  0  0  0  0  0  0  0  0  0  0  0
  148.4166  141.6718  152.8221 H   0  0  0  0  0  0  0  0  0  0  0  0
  148.5719  140.0143  155.3556 H   0  0  0  0  0  0  0  0  0  0  0  0
  149.8709  140.4814  154.2819 H   0  0  0  0  0  0  0  0  0  0  0  0
  149.0663  142.8805  155.2931 H   0  0  0  0  0  0  0  0  0  0  0  0
  149.7097  143.8398  157.0120 H   0  0  0  0  0  0  0  0  0  0  0  0
  149.9323  142.5768  159.5727 H   0  0  0  0  0  0  0  0  0  0  0  0
  150.0948  145.3449  158.5103 H   0  0  0  0  0  0  0  0  0  0  0  0
  149.7981  144.8549  160.1747 H   0  0  0  0  0  0  0  0  0  0  0  0
  152.1594  146.0538  159.6652 H   0  0  0  0  0  0  0  0  0  0  0  0
  153.3209  144.5511  161.2493 H   0  0  0  0  0  0  0  0  0  0  0  0
  151.6314  144.3514  161.7135 H   0  0  0  0  0  0  0  0  0  0  0  0
  153.4288  142.3771  160.4845 H   0  0  0  0  0  0  0  0  0  0  0  0
  151.7592  142.0962  160.9741 H   0  0  0  0  0  0  0  0  0  0  0  0
  152.2808  142.0258  158.3243 H   0  0  0  0  0  0  0  0  0  0  0  0
  152.3795  144.5375  157.5285 H   0  0  0  0  0  0  0  0  0  0  0  0
  153.7242  144.2048  158.6441 H   0  0  0  0  0  0  0  0  0  0  0  0
  146.4198  141.0734  156.0020 H   0  0  0  0  0  0  0  0  0  0  0  0
  1  2  1  0  0  0  0
  1 21  1  0  0  0  0
  1 22  1  0  0  0  0
  1 23  1  0  0  0  0
  2 20  1  0  0  0  0
  2  3  2  0  0  0  0
  3  4  1  0  0  0  0
  3 24  1  0  0  0  0
  4  5  2  0  0  0  0
  4 25  1  0  0  0  0
  5  6  1  0  0  0  0
  5 19  1  0  0  0  0
  6  7  1  0  0  0  0
  6 26  1  0  0  0  0
  6 27  1  0  0  0  0
  7  8  1  0  0  0  0
  7 28  1  0  0  0  0
  7 29  1  0  0  0  0
  8  9  1  0  0  0  0
  8 30  1  0  0  0  0
  9 10  2  0  0  0  0
  9 11  1  0  0  0  0
 11 12  1  0  0  0  0
 11 31  1  0  0  0  0
 12 17  1  0  0  0  0
 12 13  1  0  0  0  0
 12 32  1  0  0  0  0
 13 14  1  0  0  0  0
 13 33  1  0  0  0  0
 13 34  1  0  0  0  0
 14 18  1  0  0  0  0
 14 15  1  0  0  0  0
 14 35  1  0  0  0  0
 15 16  1  0  0  0  0
 15 36  1  0  0  0  0
 15 37  1  0  0  0  0
 16 17  1  0  0  0  0
 16 38  1  0  0  0  0
 16 39  1  0  0  0  0
 17 18  1  0  0  0  0
 17 40  1  0  0  0  0
 18 41  1  0  0  0  0
 18 42  1  0  0  0  0
 19 20  2  0  0  0  0
 19 43  1  0  0  0  0
M  END
> <s_m_source_file>
AV-unprocessed.smi

> <i_m_source_file_index>
753

> <i_lp_mmshare_version>
43012

> <i_f3d_flags>
0

> <s_epik_input>
W0NIM11jMVtjSF1bY0hdYyhbY0hdbjEpW0NIMl1bQ0gyXVtOSF1DKD1PKVtOSF1bQ0BIXShbQ0gyXVtDQEBIXTIzKVtDQEBIXShbQ0gyXTMpW0NIMl1bQ0gyXTI=

> <s_epik_cmdline>
J2VwaWtfcHl0aG9uJywgJy1waCcsICc3LjAnLCAnLXRuJywgJzgnLCAnLW1hJywgJzIwMCcsICctbWV0YWxfYmluZGluZycsICctaW1hZScsICc8aW5maWxlLm1hZT4nLCAnLW9tYWUnLCAnPG91dGZpbGUubWFlPic=

> <r_epik_Ionization_Penalty>
0.0569047

> <r_epik_Ionization_Penalty_Charging>
0

> <r_epik_Ionization_Penalty_Neutral>
0.0569047

> <r_epik_State_Penalty>
0.0490541

> <r_epik_Charging_Adjusted_Penalty>
0.0490541

> <i_epik_Tot_Q>
0

> <i_epik_Tot_abs_Q>
0

> <r_epik_Metal_State_Penalty>
0.0447357

> <b_epik_Metal_Only>
0

> <s_lp_Force_Field>
OPLS_2005

> <r_lp_Energy>
50.812

> <b_lp_Chiralities_Consistent>
1

> <s_lp_Variant>
AV-unprocessed.smi:753-1

> <Gold.Version>
5.8.1

> <Gold.Id.Protein>
6NUR|6NUR_protein|mol2

> <Gold.PLP.Fitness>
52.4530

> <Gold.PLP.PLP>
-47.5074

> <Gold.PLP.part.hbond>
-2.0000

> <Gold.PLP.part.metal>
0.0000

> <Gold.PLP.part.buried>
-6.4130

> <Gold.PLP.part.nonpolar>
-39.1541

> <Gold.PLP.part.repulsive>
0.2796

> <Gold.PLP.ligand.clash>
0.0000

> <Gold.PLP.ligand.torsion>
0.4756

> <Gold.PLP.Chemscore.Hbond>
1.9520

> <Gold.PLP.Chemscore.CHOScore>
0.0000

> <Gold.PLP.Chemscore.Metal>
0.0000

> <Gold.Chemscore.Hbonds>
donor molecule, donor type, donor heavy atom, donor atom, acceptor molecule, acceptor atom, score
      L1  H     8    30       P1  8028  0.98
      L1  H    11    31       P1  8028  1.00

> <Gold.PLP.Chemscore.Internal.Correction>
0.0409

> <Gold.Rescore>
     Score         DG    S(hbond)    S(metal)    S(lipo)     H(rot)  DE(clash)    DE(int)     intcor
     21.20     -21.63       1.73        0.00     119.81       1.43       0.07       0.36       ----

> <Gold.Chemscore.Fitness>
21.1955

> <Gold.Chemscore.DG>
-21.6305

> <Gold.Chemscore.ZeroCoef>
-5.4800

> <Gold.Chemscore.Hbond>
1.7340

> <Gold.Chemscore.Metal>
0.0000

> <Gold.Chemscore.Lipo>
119.8079

> <Gold.Chemscore.Internal_Hbond>
0.0000

> <Gold.Chemscore.DEClash>
0.0718

> <Gold.Chemscore.DEInternal>
0.3632

> <Gold.Chemscore.Rot>
1.4291

> <Gold.Chemscore.Internal.Correction>
   9.000000E+99

> <Gold.Chemscore.Hbonds>
donor molecule, donor type, donor heavy atom, donor atom, acceptor molecule, acceptor atom, score
      L1  H     8    30       P1  8028  0.93
      L1  H    11    31       P1  8028  0.88

> <Gold.Chemscore.Hbond.Weighted>
-5.7915

> <Gold.Chemscore.Metal.Weighted>
-0.0000

> <Gold.Chemscore.Lipo.Weighted>
-14.0175

> <Gold.Chemscore.Internal_Hbond.Weighted>
0.0000

> <Gold.Chemscore.DEClash.Weighted>
0.0718

> <Gold.Chemscore.DEInternal.Weighted>
0.3632

> <Gold.Chemscore.Rot.Weighted>
3.6585

> <Gold.Chemscore.Internal.Correction.Weighted>
   9.000000E+99

> <Gold.Protein.RotatedTorsions>
[ 6907 6896 6895 6894 ] final  146.53 input  -60.11 | X-H torsion
[ 7974 7965 7964 7962 ] final  -69.64 input  175.53 | X-H torsion
[ 8008 7997 7996 7995 ] final  -19.82 input   59.86 | X-H torsion
[ 10167 10162 10161 10158 ] final -171.56 input  -65.29 | X-H torsion
[ 10718 10713 10712 10709 ] final -123.09 input   66.30 | X-H torsion
[ 10763 10752 10751 10750 ] final -165.01 input  -60.55 | X-H torsion
[ 11005 11000 10999 10996 ] final  -90.60 input  -57.11 | X-H torsion

> <Gold.Protein.ActiveResidues>
 VAL166  LYS551  ARG553  GLY616  TRP617  ASP618  TYR619  PRO620  LYS621  CYS622 
 ASP623  PHE694  ASN695  SER759  ASP760  ASP761  ALA762  ILE779  LEU786  VAL792 
 PHE793  MET794  SER795  GLU796  ALA797  LYS798  CYS799  TRP800  GLU811  SER814 

> <Gold.Protein.RotatedAtoms>
  152.1667  133.4617  159.4888 H   0  0  0  0  0  0  0  0  0  0  0  0  # atno 6907 bound_to 6896
  150.6914  134.2004  159.4329 H   0  0  0  0  0  0  0  0  0  0  0  0  # atno 6908 bound_to 6896
  151.9909  134.9979  160.0612 H   0  0  0  0  0  0  0  0  0  0  0  0  # atno 6909 bound_to 6896
  145.7012  140.9116  143.0730 H   0  0  0  0  0  0  0  0  0  0  0  0  # atno 7974 bound_to 7965
  154.4811  140.2078  155.9762 H   0  0  0  0  0  0  0  0  0  0  0  0  # atno 8008 bound_to 7997
  156.1166  140.3220  155.8118 H   0  0  0  0  0  0  0  0  0  0  0  0  # atno 8009 bound_to 7997
  155.4542  140.0519  157.2989 H   0  0  0  0  0  0  0  0  0  0  0  0  # atno 8010 bound_to 7997
  139.5795  144.1455  152.1496 H   0  0  0  0  0  0  0  0  0  0  0  0  # atno 10167 bound_to 10162
  156.1473  130.6509  150.9861 H   0  0  0  0  0  0  0  0  0  0  0  0  # atno 10718 bound_to 10713
  154.6973  135.2981  154.9393 H   0  0  0  0  0  0  0  0  0  0  0  0  # atno 10763 bound_to 10752
  154.0336  135.6667  153.4787 H   0  0  0  0  0  0  0  0  0  0  0  0  # atno 10764 bound_to 10752
  153.0655  135.5091  154.8097 H   0  0  0  0  0  0  0  0  0  0  0  0  # atno 10765 bound_to 10752
  141.1562  133.7702  156.9761 H   0  0  0  0  0  0  0  0  0  0  0  0  # atno 11005 bound_to 11000
  144.6968  139.8950  143.7455 LP  0  0  0  0  0  0  0  0  0  0  0  0  # atno 17320 bound_to 7965
  146.0796  139.3784  143.0472 LP  0  0  0  0  0  0  0  0  0  0  0  0  # atno 17321 bound_to 7965
  140.1005  144.5543  150.6992 LP  0  0  0  0  0  0  0  0  0  0  0  0  # atno 17342 bound_to 10162
  140.7075  143.2479  151.4682 LP  0  0  0  0  0  0  0  0  0  0  0  0  # atno 17343 bound_to 10162
  157.6627  131.0878  150.7801 LP  0  0  0  0  0  0  0  0  0  0  0  0  # atno 17370 bound_to 10713
  156.7871  130.4878  149.5391 LP  0  0  0  0  0  0  0  0  0  0  0  0  # atno 17371 bound_to 10713
  140.1097  134.9484  157.2047 LP  0  0  0  0  0  0  0  0  0  0  0  0  # atno 17394 bound_to 11000
  140.3210  134.2916  155.7246 LP  0  0  0  0  0  0  0  0  0  0  0  0  # atno 17395 bound_to 11000

$$$$
