AV-unprocessed.smi:193|AV-procd|sdf|1508|dock2
  -GOLD-   2262019343D 1   1.00000     0.00000
 Structure written by MMmdl.
 62 66  0  0  0  0  0  0  0  0  2 V2000
  150.3036  133.2717  154.8947 C   0  0  0  0  0  0  0  0  0  0  0  0
  149.5466  134.5743  154.5880 C   0  0  2  0  0  0  0  0  0  0  0  0
  149.7956  135.5898  155.7238 C   0  0  0  0  0  0  0  0  0  0  0  0
  149.5608  136.9873  155.3545 N   0  0  0  0  0  0  0  0  0  0  0  0
  150.4621  137.9149  155.7742 C   0  0  0  0  0  0  0  0  0  0  0  0
  151.6663  137.4952  156.2466 N   0  0  0  0  0  0  0  0  0  0  0  0
  152.5716  138.3787  156.6768 C   0  0  0  0  0  0  0  0  0  0  0  0
  152.4834  139.7086  156.7200 N   0  0  0  0  0  0  0  0  0  0  0  0
  151.2827  140.1402  156.2397 C   0  0  0  0  0  0  0  0  0  0  0  0
  150.2251  139.3210  155.7510 C   0  0  0  0  0  0  0  0  0  0  0  0
  149.1668  140.1220  155.3351 N   0  0  0  0  0  0  0  0  0  0  0  0
  149.5704  141.3395  155.5752 C   0  0  0  0  0  0  0  0  0  0  0  0
  150.8325  141.4425  156.1137 N   0  0  0  0  0  0  0  0  0  0  0  0
  151.5294  142.6678  156.4744 C   0  0  0  0  0  0  0  0  0  0  0  0
  151.5084  142.9786  157.9915 C   0  0  0  0  0  0  0  0  0  0  0  0
  150.1608  142.9074  158.4248 O   0  0  0  0  0  0  0  0  0  0  0  0
  152.3257  141.9258  158.7664 C   0  0  0  0  0  0  0  0  0  0  0  0
  152.4735  142.2851  160.2556 C   0  0  0  0  0  0  0  0  0  0  0  0
  153.0401  143.5828  160.3901 O   0  0  0  0  0  0  0  0  0  0  0  0
  152.2180  144.6025  159.8357 C   0  0  0  0  0  0  0  0  0  0  0  0
  152.0539  144.3856  158.3208 C   0  0  0  0  0  0  0  0  0  0  0  0
  148.5707  137.3797  154.3514 C   0  0  0  0  0  0  0  0  0  0  0  0
  147.2490  136.6095  154.4674 C   0  0  0  0  0  0  0  0  0  0  0  0
  147.2949  135.3387  153.7071 N   0  3  2  0  0  0  0  0  0  0  0  0
  145.9411  134.8841  153.3164 C   0  0  1  0  0  0  0  0  0  0  0  0
  145.3965  135.5877  152.0944 C   0  0  0  0  0  0  0  0  0  0  0  0
  145.8976  134.1636  151.9863 C   0  0  2  0  0  0  0  0  0  0  0  0
  144.9245  133.0279  151.7567 C   0  0  0  0  0  0  0  0  0  0  0  0
  148.0452  134.2640  154.4010 C   0  0  0  0  0  0  0  0  0  0  0  0
  149.9524  132.8173  155.8218 H   0  0  0  0  0  0  0  0  0  0  0  0
  151.3744  133.4518  154.9976 H   0  0  0  0  0  0  0  0  0  0  0  0
  150.1753  132.5405  154.0959 H   0  0  0  0  0  0  0  0  0  0  0  0
  149.9580  134.9625  153.6549 H   0  0  0  0  0  0  0  0  0  0  0  0
  149.1928  135.3425  156.5983 H   0  0  0  0  0  0  0  0  0  0  0  0
  150.8364  135.4869  156.0339 H   0  0  0  0  0  0  0  0  0  0  0  0
  153.4995  137.9603  157.0384 H   0  0  0  0  0  0  0  0  0  0  0  0
  148.9580  142.2029  155.3583 H   0  0  0  0  0  0  0  0  0  0  0  0
  152.5569  142.5948  156.1153 H   0  0  0  0  0  0  0  0  0  0  0  0
  151.0745  143.4895  155.9199 H   0  0  0  0  0  0  0  0  0  0  0  0
  150.1528  142.8101  159.3647 H   0  0  0  0  0  0  0  0  0  0  0  0
  151.8755  140.9377  158.6622 H   0  0  0  0  0  0  0  0  0  0  0  0
  153.3233  141.8530  158.3312 H   0  0  0  0  0  0  0  0  0  0  0  0
  151.5123  142.2398  160.7696 H   0  0  0  0  0  0  0  0  0  0  0  0
  153.1276  141.5656  160.7480 H   0  0  0  0  0  0  0  0  0  0  0  0
  151.2498  144.6179  160.3383 H   0  0  0  0  0  0  0  0  0  0  0  0
  152.6848  145.5694  160.0243 H   0  0  0  0  0  0  0  0  0  0  0  0
  153.0272  144.5131  157.8457 H   0  0  0  0  0  0  0  0  0  0  0  0
  151.4079  145.1617  157.9086 H   0  0  0  0  0  0  0  0  0  0  0  0
  148.3404  138.4370  154.4908 H   0  0  0  0  0  0  0  0  0  0  0  0
  148.9930  137.2866  153.3501 H   0  0  0  0  0  0  0  0  0  0  0  0
  146.9560  136.4474  155.5060 H   0  0  0  0  0  0  0  0  0  0  0  0
  146.4728  137.2383  154.0291 H   0  0  0  0  0  0  0  0  0  0  0  0
  145.2758  134.5951  154.1284 H   0  0  0  0  0  0  0  0  0  0  0  0
  144.3213  135.7485  152.0474 H   0  0  0  0  0  0  0  0  0  0  0  0
  146.0013  136.3678  151.6354 H   0  0  0  0  0  0  0  0  0  0  0  0
  146.8460  134.0335  151.4672 H   0  0  0  0  0  0  0  0  0  0  0  0
  143.9906  133.2034  152.2919 H   0  0  0  0  0  0  0  0  0  0  0  0
  145.3551  132.0898  152.1078 H   0  0  0  0  0  0  0  0  0  0  0  0
  144.7033  132.9331  150.6933 H   0  0  0  0  0  0  0  0  0  0  0  0
  147.9515  133.3597  153.7980 H   0  0  0  0  0  0  0  0  0  0  0  0
  147.5744  134.0374  155.3589 H   0  0  0  0  0  0  0  0  0  0  0  0
  147.7839  135.5324  152.8448 H   0  0  0  0  0  0  0  0  0  0  0  0
  1  2  1  0  0  0  0
  1 30  1  0  0  0  0
  1 31  1  0  0  0  0
  1 32  1  0  0  0  0
  2 29  1  0  0  0  0
  2  3  1  0  0  0  0
  2 33  1  0  0  0  0
  3  4  1  0  0  0  0
  3 34  1  0  0  0  0
  3 35  1  0  0  0  0
  4  5  1  0  0  0  0
  4 22  1  0  0  0  0
  5 10  1  0  0  0  0
  5  6  2  0  0  0  0
  6  7  1  0  0  0  0
  7  8  2  0  0  0  0
  7 36  1  0  0  0  0
  8  9  1  0  0  0  0
  9 13  1  0  0  0  0
  9 10  2  0  0  0  0
 10 11  1  0  0  0  0
 11 12  2  0  0  0  0
 12 13  1  0  0  0  0
 12 37  1  0  0  0  0
 13 14  1  0  0  0  0
 14 15  1  0  0  0  0
 14 38  1  0  0  0  0
 14 39  1  0  0  0  0
 15 21  1  0  0  0  0
 15 16  1  0  0  0  0
 15 17  1  0  0  0  0
 16 40  1  0  0  0  0
 17 18  1  0  0  0  0
 17 41  1  0  0  0  0
 17 42  1  0  0  0  0
 18 19  1  0  0  0  0
 18 43  1  0  0  0  0
 18 44  1  0  0  0  0
 19 20  1  0  0  0  0
 20 21  1  0  0  0  0
 20 45  1  0  0  0  0
 20 46  1  0  0  0  0
 21 47  1  0  0  0  0
 21 48  1  0  0  0  0
 22 23  1  0  0  0  0
 22 49  1  0  0  0  0
 22 50  1  0  0  0  0
 23 24  1  0  0  0  0
 23 51  1  0  0  0  0
 23 52  1  0  0  0  0
 24 25  1  0  0  0  0
 24 29  1  0  0  0  0
 24 62  1  0  0  0  0
 25 27  1  0  0  0  0
 25 26  1  0  0  0  0
 25 53  1  0  0  0  0
 26 27  1  0  0  0  0
 26 54  1  0  0  0  0
 26 55  1  0  0  0  0
 27 28  1  0  0  0  0
 27 56  1  0  0  0  0
 28 57  1  0  0  0  0
 28 58  1  0  0  0  0
 28 59  1  0  0  0  0
 29 60  1  0  0  0  0
 29 61  1  0  0  0  0
M  CHG  1  24   1
M  END
> <s_m_source_file>
AV-unprocessed.smi

> <i_m_source_file_index>
193

> <i_lp_mmshare_version>
43012

> <i_f3d_flags>
0

> <s_epik_input>
W0NIM11bQ0BASF0xW0NIMl1bQ0BIXTFOKFtDSDJdMilbQ0gyXVtDSDJdTihbQ0gyXVtDQEhdMltDSDNdKWMobltjSF1uMyljKGMzNCluW2NIXW40W0NIMl1DNShbT0hdKVtDSDJdW0NIMl1PW0NIMl1bQ0gyXTU=

> <s_epik_cmdline>
J2VwaWtfcHl0aG9uJywgJy1waCcsICc3LjAnLCAnLXRuJywgJzgnLCAnLW1hJywgJzIwMCcsICctbWV0YWxfYmluZGluZycsICctaW1hZScsICc8aW5maWxlLm1hZT4nLCAnLW9tYWUnLCAnPG91dGZpbGUubWFlPic=

> <r_lp_tautomer_probability>
1

> <r_epik_Ionization_Penalty>
0.0540825

> <r_epik_Ionization_Penalty_Charging>
0.0538476

> <r_epik_Ionization_Penalty_Neutral>
0.000234891

> <r_epik_State_Penalty>
0.0200719

> <r_epik_Charging_Adjusted_Penalty>
0.0739194

> <i_epik_Tot_Q>
1

> <i_epik_Tot_abs_Q>
1

> <r_epik_Metal_State_Penalty>
0.0199414

> <b_epik_Metal_Only>
0

> <s_lp_Force_Field>
OPLS_2005

> <r_lp_Energy>
53.0882

> <b_lp_Chiralities_Consistent>
1

> <s_lp_Variant>
AV-unprocessed.smi:193-13

> <Gold.Version>
5.8.1

> <Gold.Id.Protein>
6NUR|6NUR_protein|mol2

> <Gold.PLP.Fitness>
50.4545

> <Gold.PLP.PLP>
-39.4353

> <Gold.PLP.part.hbond>
-2.0000

> <Gold.PLP.part.metal>
0.0000

> <Gold.PLP.part.buried>
-2.3232

> <Gold.PLP.part.nonpolar>
-35.0198

> <Gold.PLP.part.repulsive>
0.0667

> <Gold.PLP.ligand.clash>
0.0000

> <Gold.PLP.ligand.torsion>
1.1343

> <Gold.PLP.Chemscore.Hbond>
3.0000

> <Gold.PLP.Chemscore.CHOScore>
0.9744

> <Gold.PLP.Chemscore.Metal>
0.0000

> <Gold.Chemscore.Hbonds>
donor molecule, donor type, donor heavy atom, donor atom, acceptor molecule, acceptor atom, score
      L1  H    24    62       P1  7948  2.00
      P1  H  7997  8008       L1     8  0.95
      L1  C    12    37       P1  8028  1.00

> <Gold.PLP.Chemscore.Internal.Correction>
1.3647

> <Gold.Rescore>
     Score         DG    S(hbond)    S(metal)    S(lipo)     H(rot)  DE(clash)    DE(int)     intcor
     14.37     -19.14       1.79        0.00     107.70       1.93       2.42       2.35       ----

> <Gold.Chemscore.Fitness>
14.3694

> <Gold.Chemscore.DG>
-19.1375

> <Gold.Chemscore.ZeroCoef>
-5.4800

> <Gold.Chemscore.Hbond>
1.7949

> <Gold.Chemscore.Metal>
0.0000

> <Gold.Chemscore.Lipo>
107.6999

> <Gold.Chemscore.Internal_Hbond>
0.0000

> <Gold.Chemscore.DEClash>
2.4164

> <Gold.Chemscore.DEInternal>
2.3518

> <Gold.Chemscore.Rot>
1.9290

> <Gold.Chemscore.Internal.Correction>
   9.000000E+99

> <Gold.Chemscore.Hbonds>
donor molecule, donor type, donor heavy atom, donor atom, acceptor molecule, acceptor atom, score
      L1  H    24    62       P1  7948  0.99
      P1  H  7997  8008       L1     8  0.20

> <Gold.Chemscore.Hbond.Weighted>
-5.9949

> <Gold.Chemscore.Metal.Weighted>
-0.0000

> <Gold.Chemscore.Lipo.Weighted>
-12.6009

> <Gold.Chemscore.Internal_Hbond.Weighted>
0.0000

> <Gold.Chemscore.DEClash.Weighted>
2.4164

> <Gold.Chemscore.DEInternal.Weighted>
2.3518

> <Gold.Chemscore.Rot.Weighted>
4.9383

> <Gold.Chemscore.Internal.Correction.Weighted>
   9.000000E+99

> <Gold.Protein.RotatedTorsions>
[ 6907 6896 6895 6894 ] final -153.33 input  -60.11 | X-H torsion
[ 7974 7965 7964 7962 ] final   -0.59 input  175.53 | X-H torsion
[ 8008 7997 7996 7995 ] final  -35.27 input   59.86 | X-H torsion
[ 10167 10162 10161 10158 ] final  153.25 input  -65.29 | X-H torsion
[ 10718 10713 10712 10709 ] final -145.27 input   66.30 | X-H torsion
[ 10763 10752 10751 10750 ] final -153.10 input  -60.55 | X-H torsion
[ 11005 11000 10999 10996 ] final   27.40 input  -57.11 | X-H torsion

> <Gold.Protein.ActiveResidues>
 VAL166  LYS551  ARG553  GLY616  TRP617  ASP618  TYR619  PRO620  LYS621  CYS622 
 ASP623  PHE694  ASN695  SER759  ASP760  ASP761  ALA762  ILE779  LEU786  VAL792 
 PHE793  MET794  SER795  GLU796  ALA797  LYS798  CYS799  TRP800  GLU811  SER814 

> <Gold.Protein.RotatedAtoms>
  151.2410  133.4399  159.2607 H   0  0  0  0  0  0  0  0  0  0  0  0  # atno 6907 bound_to 6896
  151.0705  134.9795  159.8316 H   0  0  0  0  0  0  0  0  0  0  0  0  # atno 6908 bound_to 6896
  152.5411  134.2355  159.8894 H   0  0  0  0  0  0  0  0  0  0  0  0  # atno 6909 bound_to 6896
  146.2426  140.1293  142.8338 H   0  0  0  0  0  0  0  0  0  0  0  0  # atno 7974 bound_to 7965
  154.4100  140.1662  156.2184 H   0  0  0  0  0  0  0  0  0  0  0  0  # atno 8008 bound_to 7997
  155.9385  140.3410  155.6284 H   0  0  0  0  0  0  0  0  0  0  0  0  # atno 8009 bound_to 7997
  155.7019  140.0746  157.2397 H   0  0  0  0  0  0  0  0  0  0  0  0  # atno 8010 bound_to 7997
  139.4828  144.5289  151.7756 H   0  0  0  0  0  0  0  0  0  0  0  0  # atno 10167 bound_to 10162
  156.3803  130.7834  151.2025 H   0  0  0  0  0  0  0  0  0  0  0  0  # atno 10718 bound_to 10713
  154.7950  135.3220  154.7688 H   0  0  0  0  0  0  0  0  0  0  0  0  # atno 10763 bound_to 10752
  153.8369  135.6874  153.4812 H   0  0  0  0  0  0  0  0  0  0  0  0  # atno 10764 bound_to 10752
  153.1637  135.4650  154.9749 H   0  0  0  0  0  0  0  0  0  0  0  0  # atno 10765 bound_to 10752
  140.3266  134.2484  155.7708 H   0  0  0  0  0  0  0  0  0  0  0  0  # atno 11005 bound_to 11000
  145.0340  140.8893  143.5092 LP  0  0  0  0  0  0  0  0  0  0  0  0  # atno 17320 bound_to 7965
  145.1362  139.2601  143.5514 LP  0  0  0  0  0  0  0  0  0  0  0  0  # atno 17321 bound_to 7965
  140.4812  144.1447  150.5933 LP  0  0  0  0  0  0  0  0  0  0  0  0  # atno 17342 bound_to 10162
  140.4275  143.2583  151.9637 LP  0  0  0  0  0  0  0  0  0  0  0  0  # atno 17343 bound_to 10162
  157.7492  131.0346  150.4324 LP  0  0  0  0  0  0  0  0  0  0  0  0  # atno 17370 bound_to 10713
  156.4567  130.4023  149.6602 LP  0  0  0  0  0  0  0  0  0  0  0  0  # atno 17371 bound_to 10713
  141.2073  133.7808  157.0123 LP  0  0  0  0  0  0  0  0  0  0  0  0  # atno 17394 bound_to 11000
  140.0896  134.9600  157.1755 LP  0  0  0  0  0  0  0  0  0  0  0  0  # atno 17395 bound_to 11000

$$$$
