AV-unprocessed.smi:3025|AV-procd|sdf|11507|dock9
  -GOLD-   2272016443D 1   1.00000     0.00000
 Structure written by MMmdl.
 42 43  0  0  0  0  0  0  0  0  2 V2000
  152.0789  143.3599  158.3209 C   0  0  0  0  0  0  0  0  0  0  0  0
  151.2839  142.9281  157.0837 C   0  0  0  0  0  0  0  0  0  0  0  0
  151.2096  141.3988  156.9369 C   0  0  0  0  0  0  0  0  0  0  0  0
  150.5623  140.9208  155.6207 C   0  0  2  0  0  0  0  0  0  0  0  0
  149.0589  141.2607  155.5417 C   0  0  0  0  0  0  0  0  0  0  0  0
  148.4234  140.7540  154.2366 C   0  0  0  0  0  0  0  0  0  0  0  0
  148.6337  139.2372  154.0520 C   0  0  1  0  0  0  0  0  0  0  0  0
  148.0750  138.7614  152.7668 N   0  3  0  0  0  0  0  0  0  0  0  0
  146.6037  138.6287  152.7294 C   0  0  0  0  0  0  0  0  0  0  0  0
  146.1636  137.2381  153.2054 C   0  0  0  0  0  0  0  0  0  0  0  0
  145.4496  136.4816  152.1348 C   0  0  0  0  0  0  0  0  0  0  0  0
  145.9300  136.4282  150.8916 N   0  0  0  0  0  0  0  0  0  0  0  0
  145.0300  135.6317  150.2754 N   0  0  0  0  0  0  0  0  0  0  0  0
  144.1091  135.2587  151.1627 C   0  0  0  0  0  0  0  0  0  0  0  0
  144.3163  135.7542  152.3758 N   0  0  0  0  0  0  0  0  0  0  0  0
  150.1340  138.9024  154.1230 C   0  0  0  0  0  0  0  0  0  0  0  0
  150.7632  139.4036  155.4325 C   0  0  0  0  0  0  0  0  0  0  0  0
  152.1197  144.4465  158.3964 H   0  0  0  0  0  0  0  0  0  0  0  0
  153.1043  142.9912  158.2799 H   0  0  0  0  0  0  0  0  0  0  0  0
  151.6218  142.9801  159.2349 H   0  0  0  0  0  0  0  0  0  0  0  0
  150.2815  143.3505  157.1494 H   0  0  0  0  0  0  0  0  0  0  0  0
  151.7447  143.3596  156.1943 H   0  0  0  0  0  0  0  0  0  0  0  0
  152.2249  141.0036  156.9913 H   0  0  0  0  0  0  0  0  0  0  0  0
  150.6758  140.9723  157.7871 H   0  0  0  0  0  0  0  0  0  0  0  0
  151.0698  141.4246  154.7963 H   0  0  0  0  0  0  0  0  0  0  0  0
  148.5367  140.8229  156.3935 H   0  0  0  0  0  0  0  0  0  0  0  0
  148.9073  142.3376  155.6080 H   0  0  0  0  0  0  0  0  0  0  0  0
  147.3612  140.9979  154.2477 H   0  0  0  0  0  0  0  0  0  0  0  0
  148.8548  141.2925  153.3917 H   0  0  0  0  0  0  0  0  0  0  0  0
  148.1306  138.7045  154.8609 H   0  0  0  0  0  0  0  0  0  0  0  0
  148.3729  139.3861  152.0309 H   0  0  0  0  0  0  0  0  0  0  0  0
  146.1572  139.3955  153.3641 H   0  0  0  0  0  0  0  0  0  0  0  0
  146.2413  138.7971  151.7154 H   0  0  0  0  0  0  0  0  0  0  0  0
  147.0314  136.6601  153.5265 H   0  0  0  0  0  0  0  0  0  0  0  0
  145.5111  137.3264  154.0754 H   0  0  0  0  0  0  0  0  0  0  0  0
  143.2788  134.6115  150.9196 H   0  0  0  0  0  0  0  0  0  0  0  0
  150.2804  137.8248  154.0391 H   0  0  0  0  0  0  0  0  0  0  0  0
  150.6559  139.3515  153.2768 H   0  0  0  0  0  0  0  0  0  0  0  0
  151.8272  139.1648  155.4358 H   0  0  0  0  0  0  0  0  0  0  0  0
  150.3253  138.8665  156.2753 H   0  0  0  0  0  0  0  0  0  0  0  0
  148.4625  137.8465  152.5857 H   0  0  0  0  0  0  0  0  0  0  0  0
  145.0876  135.3799  149.2987 H   0  0  0  0  0  0  0  0  0  0  0  0
  1  2  1  0  0  0  0
  1 18  1  0  0  0  0
  1 19  1  0  0  0  0
  1 20  1  0  0  0  0
  2  3  1  0  0  0  0
  2 21  1  0  0  0  0
  2 22  1  0  0  0  0
  3  4  1  0  0  0  0
  3 23  1  0  0  0  0
  3 24  1  0  0  0  0
  4 17  1  0  0  0  0
  4  5  1  0  0  0  0
  4 25  1  0  0  0  0
  5  6  1  0  0  0  0
  5 26  1  0  0  0  0
  5 27  1  0  0  0  0
  6  7  1  0  0  0  0
  6 28  1  0  0  0  0
  6 29  1  0  0  0  0
  7  8  1  0  0  0  0
  7 16  1  0  0  0  0
  7 30  1  0  0  0  0
  8  9  1  0  0  0  0
  8 31  1  0  0  0  0
  8 41  1  0  0  0  0
  9 10  1  0  0  0  0
  9 32  1  0  0  0  0
  9 33  1  0  0  0  0
 10 34  1  0  0  0  0
 10 35  1  0  0  0  0
 10 11  1  0  0  0  0
 11 15  1  0  0  0  0
 11 12  2  0  0  0  0
 12 13  1  0  0  0  0
 13 14  1  0  0  0  0
 13 42  1  0  0  0  0
 14 15  2  0  0  0  0
 14 36  1  0  0  0  0
 16 17  1  0  0  0  0
 16 37  1  0  0  0  0
 16 38  1  0  0  0  0
 17 39  1  0  0  0  0
 17 40  1  0  0  0  0
M  CHG  1   8   1
M  END
> <s_m_source_file>
AV-unprocessed.smi

> <i_m_source_file_index>
3025

> <i_lp_mmshare_version>
43012

> <i_f3d_flags>
0

> <s_epik_input>
W0NIM11bQ0gyXVtDSDJdW0NAQEhdMVtDSDJdW0NIMl1bQ0BIXShbQ0gyXVtDSDJdMSlbTkhdW0NIMl1bQ0gyXWMybm5bY0hdW25IXTI=

> <s_epik_cmdline>
J2VwaWtfcHl0aG9uJywgJy1waCcsICc3LjAnLCAnLXRuJywgJzgnLCAnLW1hJywgJzIwMCcsICctbWV0YWxfYmluZGluZycsICctaW1hZScsICc8aW5maWxlLm1hZT4nLCAnLW9tYWUnLCAnPG91dGZpbGUubWFlPic=

> <r_epik_Ionization_Penalty>
0.00995411

> <r_epik_Ionization_Penalty_Charging>
0.000442289

> <r_epik_Ionization_Penalty_Neutral>
0.00951182

> <r_epik_State_Penalty>
0.448541

> <r_epik_Charging_Adjusted_Penalty>
0.448983

> <i_epik_Tot_Q>
1

> <i_epik_Tot_abs_Q>
1

> <r_epik_Metal_State_Penalty>
0.682245

> <b_epik_Metal_Only>
0

> <s_lp_Force_Field>
OPLS_2005

> <r_lp_Energy>
10.682

> <b_lp_Chiralities_Consistent>
1

> <s_lp_Variant>
AV-unprocessed.smi:3025-3

> <Gold.Version>
5.8.1

> <Gold.Id.Protein>
6NUR|6NUR_protein|mol2

> <Gold.PLP.Fitness>
47.0652

> <Gold.PLP.PLP>
-34.0065

> <Gold.PLP.part.hbond>
-3.6914

> <Gold.PLP.part.metal>
0.0000

> <Gold.PLP.part.buried>
-3.8898

> <Gold.PLP.part.nonpolar>
-28.0098

> <Gold.PLP.part.repulsive>
1.0208

> <Gold.PLP.ligand.clash>
0.0000

> <Gold.PLP.ligand.torsion>
0.9396

> <Gold.PLP.Chemscore.Hbond>
4.0000

> <Gold.PLP.Chemscore.CHOScore>
0.9653

> <Gold.PLP.Chemscore.Metal>
0.0000

> <Gold.Chemscore.Hbonds>
donor molecule, donor type, donor heavy atom, donor atom, acceptor molecule, acceptor atom, score
      L1  H     8    31       P1  7957  0.99
      L1  H     8    41       P1  7948  2.00
      L1  H    13    42       P1  7921  0.98
      L1  C    14    36       P1 10186  0.71

> <Gold.PLP.Chemscore.Internal.Correction>
0.0421

> <Gold.Rescore>
     Score         DG    S(hbond)    S(metal)    S(lipo)     H(rot)  DE(clash)    DE(int)     intcor
     16.74     -17.81       2.93        0.00      77.86       2.56       0.28       0.79       ----

> <Gold.Chemscore.Fitness>
16.7414

> <Gold.Chemscore.DG>
-17.8106

> <Gold.Chemscore.ZeroCoef>
-5.4800

> <Gold.Chemscore.Hbond>
2.9268

> <Gold.Chemscore.Metal>
0.0000

> <Gold.Chemscore.Lipo>
77.8570

> <Gold.Chemscore.Internal_Hbond>
0.0000

> <Gold.Chemscore.DEClash>
0.2789

> <Gold.Chemscore.DEInternal>
0.7904

> <Gold.Chemscore.Rot>
2.5602

> <Gold.Chemscore.Internal.Correction>
   9.000000E+99

> <Gold.Chemscore.Hbonds>
donor molecule, donor type, donor heavy atom, donor atom, acceptor molecule, acceptor atom, score
      L1  H     8    31       P1  7957  0.93
      L1  H     8    41       P1  7948  1.00
      L1  H    13    42       P1  7921  0.88

> <Gold.Chemscore.Hbond.Weighted>
-9.7756

> <Gold.Chemscore.Metal.Weighted>
-0.0000

> <Gold.Chemscore.Lipo.Weighted>
-9.1093

> <Gold.Chemscore.Internal_Hbond.Weighted>
0.0000

> <Gold.Chemscore.DEClash.Weighted>
0.2789

> <Gold.Chemscore.DEInternal.Weighted>
0.7904

> <Gold.Chemscore.Rot.Weighted>
6.5542

> <Gold.Chemscore.Internal.Correction.Weighted>
   9.000000E+99

> <Gold.Protein.RotatedTorsions>
[ 6907 6896 6895 6894 ] final  159.57 input  -60.11 | X-H torsion
[ 7974 7965 7964 7962 ] final -164.59 input  175.53 | X-H torsion
[ 8008 7997 7996 7995 ] final -152.94 input   59.86 | X-H torsion
[ 10167 10162 10161 10158 ] final  -11.18 input  -65.29 | X-H torsion
[ 10718 10713 10712 10709 ] final   51.28 input   66.30 | X-H torsion
[ 10763 10752 10751 10750 ] final  116.50 input  -60.55 | X-H torsion
[ 11005 11000 10999 10996 ] final   28.71 input  -57.11 | X-H torsion

> <Gold.Protein.ActiveResidues>
 VAL166  LYS551  ARG553  GLY616  TRP617  ASP618  TYR619  PRO620  LYS621  CYS622 
 ASP623  PHE694  ASN695  SER759  ASP760  ASP761  ALA762  ILE779  LEU786  VAL792 
 PHE793  MET794  SER795  GLU796  ALA797  LYS798  CYS799  TRP800  GLU811  SER814 

> <Gold.Protein.RotatedAtoms>
  151.9835  133.3766  159.4116 H   0  0  0  0  0  0  0  0  0  0  0  0  # atno 6907 bound_to 6896
  150.6931  134.4013  159.5129 H   0  0  0  0  0  0  0  0  0  0  0  0  # atno 6908 bound_to 6896
  152.1735  134.8814  160.0583 H   0  0  0  0  0  0  0  0  0  0  0  0  # atno 6909 bound_to 6896
  144.7293  140.2939  143.6216 H   0  0  0  0  0  0  0  0  0  0  0  0  # atno 7974 bound_to 7965
  155.6630  140.0725  157.2547 H   0  0  0  0  0  0  0  0  0  0  0  0  # atno 8008 bound_to 7997
  154.4138  140.1713  156.1848 H   0  0  0  0  0  0  0  0  0  0  0  0  # atno 8009 bound_to 7997
  155.9681  140.3364  155.6554 H   0  0  0  0  0  0  0  0  0  0  0  0  # atno 8010 bound_to 7997
  140.7132  143.5667  150.9136 H   0  0  0  0  0  0  0  0  0  0  0  0  # atno 10167 bound_to 10162
  157.4966  130.8410  149.8266 H   0  0  0  0  0  0  0  0  0  0  0  0  # atno 10718 bound_to 10713
  153.5382  135.3564  155.2706 H   0  0  0  0  0  0  0  0  0  0  0  0  # atno 10763 bound_to 10752
  154.8720  135.4084  154.3074 H   0  0  0  0  0  0  0  0  0  0  0  0  # atno 10764 bound_to 10752
  153.3776  135.7067  153.6658 H   0  0  0  0  0  0  0  0  0  0  0  0  # atno 10765 bound_to 10752
  140.3127  134.2632  155.7731 H   0  0  0  0  0  0  0  0  0  0  0  0  # atno 11005 bound_to 11000
  145.7828  139.1897  143.2148 LP  0  0  0  0  0  0  0  0  0  0  0  0  # atno 17320 bound_to 7965
  146.0820  140.7753  142.9637 LP  0  0  0  0  0  0  0  0  0  0  0  0  # atno 17321 bound_to 7965
  139.9393  143.6401  152.3057 LP  0  0  0  0  0  0  0  0  0  0  0  0  # atno 17342 bound_to 10162
  139.6880  144.7650  151.1490 LP  0  0  0  0  0  0  0  0  0  0  0  0  # atno 17343 bound_to 10162
  156.0204  130.3797  150.1979 LP  0  0  0  0  0  0  0  0  0  0  0  0  # atno 17370 bound_to 10713
  157.0169  130.9967  151.3350 LP  0  0  0  0  0  0  0  0  0  0  0  0  # atno 17371 bound_to 10713
  141.2104  133.7719  156.9930 LP  0  0  0  0  0  0  0  0  0  0  0  0  # atno 17394 bound_to 11000
  140.1011  134.9535  157.1924 LP  0  0  0  0  0  0  0  0  0  0  0  0  # atno 17395 bound_to 11000

$$$$
