AV-unprocessed.smi:1701|AV-procd|sdf|6844|dock2
  -GOLD-   22720 8 23D 1   1.00000     0.00000
 Structure written by MMmdl.
 54 56  0  0  0  0  0  0  0  0  4 V2000
  153.6781  142.1198  159.7620 C   0  0  0  0  0  0  0  0  0  0  0  0
  152.2656  142.7070  159.6238 C   0  0  0  0  0  0  0  0  0  0  0  0
  151.8880  142.9508  158.2314 N   0  0  0  0  0  0  0  0  0  0  0  0
  151.7468  144.3485  157.8152 C   0  0  0  0  0  0  0  0  0  0  0  0
  151.6720  145.3203  159.0034 C   0  0  0  0  0  0  0  0  0  0  0  0
  151.0811  141.9664  157.6111 C   0  0  0  0  0  0  0  0  0  0  0  0
  151.2718  140.5781  157.8178 C   0  0  0  0  0  0  0  0  0  0  0  0
  150.4272  139.6482  157.1781 C   0  0  0  0  0  0  0  0  0  0  0  0
  149.3874  140.1043  156.3431 C   0  0  0  0  0  0  0  0  0  0  0  0
  148.5740  139.1309  155.7031 N   0  0  0  0  0  0  0  0  0  0  0  0
  148.9027  137.8892  155.2680 C   0  0  0  0  0  0  0  0  0  0  0  0
  150.0668  137.5081  155.3748 O   0  0  0  0  0  0  0  0  0  0  0  0
  147.9477  137.0949  154.6950 N   0  5  0  0  0  0  0  0  0  0  0  0
  146.5171  137.3728  154.4740 C   0  0  1  0  0  0  0  0  0  0  0  0
  146.3568  138.5678  153.5146 C   0  0  0  0  0  0  0  0  0  0  0  0
  146.2320  137.9646  152.1045 C   0  0  0  0  0  0  0  0  0  0  0  0
  146.2722  136.4986  152.2870 N   0  3  2  0  0  0  0  0  0  0  0  0
  145.6172  135.6748  151.2389 C   0  0  0  0  0  0  0  0  0  0  0  0
  144.0900  135.6091  151.4062 C   0  0  0  0  0  0  0  0  0  0  0  0
  143.7203  135.1595  152.8238 C   0  0  0  0  0  0  0  0  0  0  0  0
  144.3348  136.1265  153.8426 C   0  0  0  0  0  0  0  0  0  0  0  0
  145.8797  136.2106  153.6864 C   0  0  2  0  0  0  0  0  0  0  0  0
  149.2464  141.4981  156.1512 C   0  0  0  0  0  0  0  0  0  0  0  0
  150.0790  142.3532  156.7830 N   0  3  0  0  0  0  0  0  0  0  0  0
  153.9116  141.9222  160.8085 H   0  0  0  0  0  0  0  0  0  0  0  0
  154.4344  142.8062  159.3800 H   0  0  0  0  0  0  0  0  0  0  0  0
  153.7733  141.1788  159.2195 H   0  0  0  0  0  0  0  0  0  0  0  0
  151.5479  142.0096  160.0566 H   0  0  0  0  0  0  0  0  0  0  0  0
  152.1746  143.6116  160.2224 H   0  0  0  0  0  0  0  0  0  0  0  0
  152.5670  144.6247  157.1514 H   0  0  0  0  0  0  0  0  0  0  0  0
  150.8386  144.4561  157.2212 H   0  0  0  0  0  0  0  0  0  0  0  0
  151.5328  146.3433  158.6537 H   0  0  0  0  0  0  0  0  0  0  0  0
  152.5776  145.3031  159.6092 H   0  0  0  0  0  0  0  0  0  0  0  0
  150.8310  145.0776  159.6539 H   0  0  0  0  0  0  0  0  0  0  0  0
  152.0648  140.2055  158.4475 H   0  0  0  0  0  0  0  0  0  0  0  0
  150.5778  138.5898  157.3333 H   0  0  0  0  0  0  0  0  0  0  0  0
  147.6304  139.4242  155.4966 H   0  0  0  0  0  0  0  0  0  0  0  0
  145.9839  137.5468  155.4095 H   0  0  0  0  0  0  0  0  0  0  0  0
  145.4424  139.1105  153.7565 H   0  0  0  0  0  0  0  0  0  0  0  0
  147.1759  139.2853  153.5842 H   0  0  0  0  0  0  0  0  0  0  0  0
  145.2949  138.2782  151.6421 H   0  0  0  0  0  0  0  0  0  0  0  0
  147.0472  138.2788  151.4518 H   0  0  0  0  0  0  0  0  0  0  0  0
  145.8841  136.0524  150.2514 H   0  0  0  0  0  0  0  0  0  0  0  0
  146.0271  134.6665  151.3061 H   0  0  0  0  0  0  0  0  0  0  0  0
  143.6477  136.5848  151.2012 H   0  0  0  0  0  0  0  0  0  0  0  0
  143.6668  134.9203  150.6746 H   0  0  0  0  0  0  0  0  0  0  0  0
  142.6363  135.1313  152.9389 H   0  0  0  0  0  0  0  0  0  0  0  0
  144.0825  134.1464  153.0026 H   0  0  0  0  0  0  0  0  0  0  0  0
  143.8594  137.1009  153.7066 H   0  0  0  0  0  0  0  0  0  0  0  0
  144.0742  135.8005  154.8512 H   0  0  0  0  0  0  0  0  0  0  0  0
  146.3050  135.2506  153.9852 H   0  0  0  0  0  0  0  0  0  0  0  0
  148.5127  141.9648  155.5112 H   0  0  0  0  0  0  0  0  0  0  0  0
  147.2566  136.2732  152.2529 H   0  0  0  0  0  0  0  0  0  0  0  0
  149.9455  143.3517  156.6241 H   0  0  0  0  0  0  0  0  0  0  0  0
  1  2  1  0  0  0  0
  1 25  1  0  0  0  0
  1 26  1  0  0  0  0
  1 27  1  0  0  0  0
  2  3  1  0  0  0  0
  2 28  1  0  0  0  0
  2 29  1  0  0  0  0
  3  4  1  0  0  0  0
  3  6  1  0  0  0  0
  4  5  1  0  0  0  0
  4 30  1  0  0  0  0
  4 31  1  0  0  0  0
  5 32  1  0  0  0  0
  5 33  1  0  0  0  0
  5 34  1  0  0  0  0
  6 24  1  0  0  0  0
  6  7  2  0  0  0  0
  7  8  1  0  0  0  0
  7 35  1  0  0  0  0
  8  9  2  0  0  0  0
  8 36  1  0  0  0  0
  9 10  1  0  0  0  0
  9 23  1  0  0  0  0
 10 11  1  0  0  0  0
 10 37  1  0  0  0  0
 11 12  2  0  0  0  0
 11 13  1  0  0  0  0
 13 14  1  0  0  0  0
 14 22  1  0  0  0  0
 14 15  1  0  0  0  0
 14 38  1  0  0  0  0
 15 16  1  0  0  0  0
 15 39  1  0  0  0  0
 15 40  1  0  0  0  0
 16 17  1  0  0  0  0
 16 41  1  0  0  0  0
 16 42  1  0  0  0  0
 17 22  1  0  0  0  0
 17 18  1  0  0  0  0
 17 53  1  0  0  0  0
 18 19  1  0  0  0  0
 18 43  1  0  0  0  0
 18 44  1  0  0  0  0
 19 20  1  0  0  0  0
 19 45  1  0  0  0  0
 19 46  1  0  0  0  0
 20 21  1  0  0  0  0
 20 47  1  0  0  0  0
 20 48  1  0  0  0  0
 21 22  1  0  0  0  0
 21 49  1  0  0  0  0
 21 50  1  0  0  0  0
 22 51  1  0  0  0  0
 23 24  2  0  0  0  0
 23 52  1  0  0  0  0
 24 54  1  0  0  0  0
M  CHG  1  13  -1
M  CHG  1  17   1
M  CHG  1  24   1
M  END
> <s_m_source_file>
AV-unprocessed.smi

> <i_m_source_file_index>
1701

> <i_lp_mmshare_version>
43012

> <i_f3d_flags>
0

> <s_epik_input>
W0NIM11bQ0gyXU4oW0NIMl1bQ0gzXSljMVtjSF1bY0hdYyhbY0hdbjEpW05IXUMoPU8pW05IXVtDQEhdKFtDSDJdW0NIMl0yKVtDQEBIXShOMjMpW0NIMl1bQ0gyXVtDSDJdW0NIMl0z

> <s_epik_cmdline>
J2VwaWtfcHl0aG9uJywgJy1waCcsICc3LjAnLCAnLXRuJywgJzgnLCAnLW1hJywgJzIwMCcsICctbWV0YWxfYmluZGluZycsICctaW1hZScsICc8aW5maWxlLm1hZT4nLCAnLW9tYWUnLCAnPG91dGZpbGUubWFlPic=

> <r_lp_tautomer_probability>
0.999994

> <r_epik_Ionization_Penalty>
7.37095

> <r_epik_Ionization_Penalty_Charging>
7.37095

> <r_epik_Ionization_Penalty_Neutral>
3.78969e-06

> <r_epik_State_Penalty>
6.83842

> <r_epik_Charging_Adjusted_Penalty>
14.2094

> <i_epik_Tot_Q>
1

> <i_epik_Tot_abs_Q>
3

> <r_epik_Metal_State_Penalty>
2.78552

> <b_epik_Metal_Only>
1

> <s_lp_Force_Field>
OPLS_2005

> <r_lp_Energy>
52.2686

> <b_lp_Chiralities_Consistent>
1

> <s_lp_Variant>
AV-unprocessed.smi:1701-24

> <Gold.Version>
5.8.1

> <Gold.Id.Protein>
6NUR|6NUR_protein|mol2

> <Gold.PLP.Fitness>
50.7566

> <Gold.PLP.PLP>
-40.1294

> <Gold.PLP.part.hbond>
-2.0000

> <Gold.PLP.part.metal>
0.0000

> <Gold.PLP.part.buried>
-5.6380

> <Gold.PLP.part.nonpolar>
-34.3568

> <Gold.PLP.part.repulsive>
0.4228

> <Gold.PLP.ligand.clash>
0.0000

> <Gold.PLP.ligand.torsion>
0.9224

> <Gold.PLP.Chemscore.Hbond>
3.8240

> <Gold.PLP.Chemscore.CHOScore>
0.0000

> <Gold.PLP.Chemscore.Metal>
0.0000

> <Gold.Chemscore.Hbonds>
donor molecule, donor type, donor heavy atom, donor atom, acceptor molecule, acceptor atom, score
      L1  H    17    53       P1  7948  2.00
      L1  H    24    54       P1  8028  1.86

> <Gold.PLP.Chemscore.Internal.Correction>
1.0000

> <Gold.Rescore>
     Score         DG    S(hbond)    S(metal)    S(lipo)     H(rot)  DE(clash)    DE(int)     intcor
     17.99     -20.32       1.92        0.00     100.22       1.28       0.06       2.27       ----

> <Gold.Chemscore.Fitness>
17.9864

> <Gold.Chemscore.DG>
-20.3218

> <Gold.Chemscore.ZeroCoef>
-5.4800

> <Gold.Chemscore.Hbond>
1.9168

> <Gold.Chemscore.Metal>
0.0000

> <Gold.Chemscore.Lipo>
100.2228

> <Gold.Chemscore.Internal_Hbond>
0.0000

> <Gold.Chemscore.DEClash>
0.0650

> <Gold.Chemscore.DEInternal>
2.2704

> <Gold.Chemscore.Rot>
1.2838

> <Gold.Chemscore.Internal.Correction>
   9.000000E+99

> <Gold.Chemscore.Hbonds>
donor molecule, donor type, donor heavy atom, donor atom, acceptor molecule, acceptor atom, score
      L1  H    17    53       P1  7948  1.00
      L1  H    24    54       P1  8028  0.88

> <Gold.Chemscore.Hbond.Weighted>
-6.4022

> <Gold.Chemscore.Metal.Weighted>
-0.0000

> <Gold.Chemscore.Lipo.Weighted>
-11.7261

> <Gold.Chemscore.Internal_Hbond.Weighted>
0.0000

> <Gold.Chemscore.DEClash.Weighted>
0.0650

> <Gold.Chemscore.DEInternal.Weighted>
2.2704

> <Gold.Chemscore.Rot.Weighted>
3.2865

> <Gold.Chemscore.Internal.Correction.Weighted>
   9.000000E+99

> <Gold.Protein.RotatedTorsions>
[ 6907 6896 6895 6894 ] final  -27.09 input  -60.11 | X-H torsion
[ 7974 7965 7964 7962 ] final  -37.09 input  175.53 | X-H torsion
[ 8008 7997 7996 7995 ] final  -55.64 input   59.86 | X-H torsion
[ 10167 10162 10161 10158 ] final   98.19 input  -65.29 | X-H torsion
[ 10718 10713 10712 10709 ] final -153.48 input   66.30 | X-H torsion
[ 10763 10752 10751 10750 ] final   97.94 input  -60.55 | X-H torsion
[ 11005 11000 10999 10996 ] final  -76.72 input  -57.11 | X-H torsion

> <Gold.Protein.ActiveResidues>
 VAL166  LYS551  ARG553  GLY616  TRP617  ASP618  TYR619  PRO620  LYS621  CYS622 
 ASP623  PHE694  ASN695  SER759  ASP760  ASP761  ALA762  ILE779  LEU786  VAL792 
 PHE793  MET794  SER795  GLU796  ALA797  LYS798  CYS799  TRP800  GLU811  SER814 

> <Gold.Protein.RotatedAtoms>
  151.1517  135.0230  159.8671 H   0  0  0  0  0  0  0  0  0  0  0  0  # atno 6907 bound_to 6896
  152.5452  134.1381  159.8477 H   0  0  0  0  0  0  0  0  0  0  0  0  # atno 6908 bound_to 6896
  151.1467  133.4889  159.2628 H   0  0  0  0  0  0  0  0  0  0  0  0  # atno 6909 bound_to 6896
  146.0605  140.6355  142.8999 H   0  0  0  0  0  0  0  0  0  0  0  0  # atno 7974 bound_to 7965
  154.4202  140.1148  156.5510 H   0  0  0  0  0  0  0  0  0  0  0  0  # atno 8008 bound_to 7997
  155.6410  140.3496  155.4696 H   0  0  0  0  0  0  0  0  0  0  0  0  # atno 8009 bound_to 7997
  155.9871  140.1172  157.0663 H   0  0  0  0  0  0  0  0  0  0  0  0  # atno 8010 bound_to 7997
  139.7731  144.6915  151.0127 H   0  0  0  0  0  0  0  0  0  0  0  0  # atno 10167 bound_to 10162
  156.4863  130.8327  151.2552 H   0  0  0  0  0  0  0  0  0  0  0  0  # atno 10718 bound_to 10713
  153.2829  135.4166  155.1096 H   0  0  0  0  0  0  0  0  0  0  0  0  # atno 10763 bound_to 10752
  154.8495  135.3499  154.6087 H   0  0  0  0  0  0  0  0  0  0  0  0  # atno 10764 bound_to 10752
  153.6508  135.7053  153.5267 H   0  0  0  0  0  0  0  0  0  0  0  0  # atno 10765 bound_to 10752
  141.1656  133.6994  156.7711 H   0  0  0  0  0  0  0  0  0  0  0  0  # atno 11005 bound_to 11000
  144.7172  140.4251  143.7035 LP  0  0  0  0  0  0  0  0  0  0  0  0  # atno 17320 bound_to 7965
  145.6568  139.1574  143.2831 LP  0  0  0  0  0  0  0  0  0  0  0  0  # atno 17321 bound_to 7965
  140.7815  143.4566  151.0337 LP  0  0  0  0  0  0  0  0  0  0  0  0  # atno 17342 bound_to 10162
  139.8249  143.7770  152.3178 LP  0  0  0  0  0  0  0  0  0  0  0  0  # atno 17343 bound_to 10162
  157.7478  131.0028  150.3014 LP  0  0  0  0  0  0  0  0  0  0  0  0  # atno 17370 bound_to 10713
  156.3471  130.3825  149.7360 LP  0  0  0  0  0  0  0  0  0  0  0  0  # atno 17371 bound_to 10713
  140.2463  134.8575  157.3624 LP  0  0  0  0  0  0  0  0  0  0  0  0  # atno 17394 bound_to 11000
  140.1746  134.4566  155.7810 LP  0  0  0  0  0  0  0  0  0  0  0  0  # atno 17395 bound_to 11000

$$$$
