AV-unprocessed.smi:2429|AV-procd|sdf|9582|dock8
  -GOLD-   2272013213D 1   1.00000     0.00000
 Structure written by MMmdl.
 34 35  0  0  0  0  0  0  0  0  1 V2000
  150.3301  132.9135  155.0332 C   0  0  0  0  0  0  0  0  0  0  0  0
  149.5845  134.2650  154.9980 C   0  0  0  0  0  0  0  0  0  0  0  0
  148.7364  134.3395  153.7985 N   0  0  0  0  0  0  0  0  0  0  0  0
  147.7799  133.4867  153.3944 C   0  0  0  0  0  0  0  0  0  0  0  0
  147.4606  132.4693  154.0084 O   0  0  0  0  0  0  0  0  0  0  0  0
  147.2168  133.9097  152.2500 N   0  0  0  0  0  0  0  0  0  0  0  0
  146.1852  133.3006  151.4844 C   0  0  0  0  0  0  0  0  0  0  0  0
  146.0434  131.9026  151.3092 C   0  0  0  0  0  0  0  0  0  0  0  0
  144.9851  131.4269  150.5091 C   0  0  0  0  0  0  0  0  0  0  0  0
  144.0986  132.2351  149.8898 N   0  0  0  0  0  0  0  0  0  0  0  0
  144.2460  133.5675  150.0471 C   0  0  0  0  0  0  0  0  0  0  0  0
  145.2687  134.1465  150.8249 C   0  0  0  0  0  0  0  0  0  0  0  0
  145.3627  135.4937  150.9368 F   0  0  0  0  0  0  0  0  0  0  0  0
  148.7645  134.4736  156.2947 C   0  0  0  0  0  0  0  0  0  0  0  0
  148.1913  135.8989  156.3909 C   0  0  0  0  0  0  0  0  0  0  0  0
  149.2474  136.8495  156.3193 O   0  0  0  0  0  0  0  0  0  0  0  0
  149.9605  136.7949  155.0894 C   0  0  0  0  0  0  0  0  0  0  0  0
  150.6159  135.4113  154.9180 C   0  0  0  0  0  0  0  0  0  0  0  0
  151.0311  132.8711  155.8674 H   0  0  0  0  0  0  0  0  0  0  0  0
  150.9015  132.7520  154.1184 H   0  0  0  0  0  0  0  0  0  0  0  0
  149.6479  132.0714  155.1496 H   0  0  0  0  0  0  0  0  0  0  0  0
  148.8989  135.1425  153.2086 H   0  0  0  0  0  0  0  0  0  0  0  0
  147.5272  134.8080  151.9096 H   0  0  0  0  0  0  0  0  0  0  0  0
  146.7224  131.1926  151.7553 H   0  0  0  0  0  0  0  0  0  0  0  0
  144.8512  130.3662  150.3570 H   0  0  0  0  0  0  0  0  0  0  0  0
  143.5283  134.1923  149.5363 H   0  0  0  0  0  0  0  0  0  0  0  0
  147.9613  133.7424  156.3820 H   0  0  0  0  0  0  0  0  0  0  0  0
  149.4093  134.3050  157.1585 H   0  0  0  0  0  0  0  0  0  0  0  0
  147.4610  136.0861  155.6024 H   0  0  0  0  0  0  0  0  0  0  0  0
  147.6703  136.0269  157.3398 H   0  0  0  0  0  0  0  0  0  0  0  0
  149.2907  137.0217  154.2587 H   0  0  0  0  0  0  0  0  0  0  0  0
  150.7264  137.5707  155.0948 H   0  0  0  0  0  0  0  0  0  0  0  0
  151.3648  135.2855  155.7014 H   0  0  0  0  0  0  0  0  0  0  0  0
  151.1586  135.3723  153.9724 H   0  0  0  0  0  0  0  0  0  0  0  0
  1  2  1  0  0  0  0
  1 19  1  0  0  0  0
  1 20  1  0  0  0  0
  1 21  1  0  0  0  0
  2 18  1  0  0  0  0
  2  3  1  0  0  0  0
  2 14  1  0  0  0  0
  3  4  1  0  0  0  0
  3 22  1  0  0  0  0
  4  5  2  0  0  0  0
  4  6  1  0  0  0  0
  6  7  1  0  0  0  0
  6 23  1  0  0  0  0
  7 12  1  0  0  0  0
  7  8  2  0  0  0  0
  8  9  1  0  0  0  0
  8 24  1  0  0  0  0
  9 10  2  0  0  0  0
  9 25  1  0  0  0  0
 10 11  1  0  0  0  0
 11 12  2  0  0  0  0
 11 26  1  0  0  0  0
 12 13  1  0  0  0  0
 14 15  1  0  0  0  0
 14 27  1  0  0  0  0
 14 28  1  0  0  0  0
 15 16  1  0  0  0  0
 15 29  1  0  0  0  0
 15 30  1  0  0  0  0
 16 17  1  0  0  0  0
 17 18  1  0  0  0  0
 17 31  1  0  0  0  0
 17 32  1  0  0  0  0
 18 33  1  0  0  0  0
 18 34  1  0  0  0  0
M  END
> <s_m_source_file>
AV-unprocessed.smi

> <i_m_source_file_index>
2429

> <i_lp_mmshare_version>
43012

> <i_f3d_flags>
0

> <s_epik_input>
W0NIMl0xW0NIMl1PW0NIMl1bQ0gyXUMxKFtDSDNdKVtOSF1DKD1PKVtOSF1jMltjSF1bY0hdbltjSF1jMkY=

> <s_epik_cmdline>
J2VwaWtfcHl0aG9uJywgJy1waCcsICc3LjAnLCAnLXRuJywgJzgnLCAnLW1hJywgJzIwMCcsICctbWV0YWxfYmluZGluZycsICctaW1hZScsICc8aW5maWxlLm1hZT4nLCAnLW9tYWUnLCAnPG91dGZpbGUubWFlPic=

> <r_epik_Ionization_Penalty>
0.00367474

> <r_epik_Ionization_Penalty_Charging>
0

> <r_epik_Ionization_Penalty_Neutral>
0.00367474

> <r_epik_State_Penalty>
0.00258877

> <r_epik_Charging_Adjusted_Penalty>
0.00258877

> <i_epik_Tot_Q>
0

> <i_epik_Tot_abs_Q>
0

> <r_epik_Metal_State_Penalty>
-0

> <b_epik_Metal_Only>
0

> <s_lp_Force_Field>
OPLS_2005

> <r_lp_Energy>
14.8008

> <b_lp_Chiralities_Consistent>
1

> <s_lp_Variant>
AV-unprocessed.smi:2429-1

> <Gold.Version>
5.8.1

> <Gold.Id.Protein>
6NUR|6NUR_protein|mol2

> <Gold.PLP.Fitness>
36.2600

> <Gold.PLP.PLP>
-27.8847

> <Gold.PLP.part.hbond>
-2.0000

> <Gold.PLP.part.metal>
0.0000

> <Gold.PLP.part.buried>
-4.6686

> <Gold.PLP.part.nonpolar>
-21.8235

> <Gold.PLP.part.repulsive>
0.2916

> <Gold.PLP.ligand.clash>
0.0000

> <Gold.PLP.ligand.torsion>
0.3160

> <Gold.PLP.Chemscore.Hbond>
2.0000

> <Gold.PLP.Chemscore.CHOScore>
1.0000

> <Gold.PLP.Chemscore.Metal>
0.0000

> <Gold.Chemscore.Hbonds>
donor molecule, donor type, donor heavy atom, donor atom, acceptor molecule, acceptor atom, score
      L1  H     3    22       P1  7948  1.00
      L1  H     6    23       P1  7948  0.98
      L1  C    11    26       P1 10186  1.00

> <Gold.PLP.Chemscore.Internal.Correction>
0.0074

> <Gold.Rescore>
     Score         DG    S(hbond)    S(metal)    S(lipo)     H(rot)  DE(clash)    DE(int)     intcor
     14.95     -15.25       1.70        0.00      56.86       1.00       0.02       0.28       ----

> <Gold.Chemscore.Fitness>
14.9519

> <Gold.Chemscore.DG>
-15.2537

> <Gold.Chemscore.ZeroCoef>
-5.4800

> <Gold.Chemscore.Hbond>
1.7010

> <Gold.Chemscore.Metal>
0.0000

> <Gold.Chemscore.Lipo>
56.8563

> <Gold.Chemscore.Internal_Hbond>
0.0000

> <Gold.Chemscore.DEClash>
0.0243

> <Gold.Chemscore.DEInternal>
0.2774

> <Gold.Chemscore.Rot>
1.0000

> <Gold.Chemscore.Internal.Correction>
   9.000000E+99

> <Gold.Chemscore.Hbonds>
donor molecule, donor type, donor heavy atom, donor atom, acceptor molecule, acceptor atom, score
      L1  H     3    22       P1  7948  0.40
      L1  H     6    23       P1  7948  0.64

> <Gold.Chemscore.Hbond.Weighted>
-5.6815

> <Gold.Chemscore.Metal.Weighted>
-0.0000

> <Gold.Chemscore.Lipo.Weighted>
-6.6522

> <Gold.Chemscore.Internal_Hbond.Weighted>
0.0000

> <Gold.Chemscore.DEClash.Weighted>
0.0243

> <Gold.Chemscore.DEInternal.Weighted>
0.2774

> <Gold.Chemscore.Rot.Weighted>
2.5600

> <Gold.Chemscore.Internal.Correction.Weighted>
   9.000000E+99

> <Gold.Protein.RotatedTorsions>
[ 6907 6896 6895 6894 ] final  172.93 input  -60.11 | X-H torsion
[ 7974 7965 7964 7962 ] final   52.34 input  175.53 | X-H torsion
[ 8008 7997 7996 7995 ] final  -71.80 input   59.86 | X-H torsion
[ 10167 10162 10161 10158 ] final  -53.64 input  -65.29 | X-H torsion
[ 10718 10713 10712 10709 ] final  127.45 input   66.30 | X-H torsion
[ 10763 10752 10751 10750 ] final  135.65 input  -60.55 | X-H torsion
[ 11005 11000 10999 10996 ] final  -25.54 input  -57.11 | X-H torsion

> <Gold.Protein.ActiveResidues>
 VAL166  LYS551  ARG553  GLY616  TRP617  ASP618  TYR619  PRO620  LYS621  CYS622 
 ASP623  PHE694  ASN695  SER759  ASP760  ASP761  ALA762  ILE779  LEU786  VAL792 
 PHE793  MET794  SER795  GLU796  ALA797  LYS798  CYS799  TRP800  GLU811  SER814 

> <Gold.Protein.RotatedAtoms>
  151.7764  133.3345  159.3458 H   0  0  0  0  0  0  0  0  0  0  0  0  # atno 6907 bound_to 6896
  150.7442  134.5971  159.6027 H   0  0  0  0  0  0  0  0  0  0  0  0  # atno 6908 bound_to 6896
  152.3306  134.7266  160.0342 H   0  0  0  0  0  0  0  0  0  0  0  0  # atno 6909 bound_to 6896
  145.9823  139.4255  143.0124 H   0  0  0  0  0  0  0  0  0  0  0  0  # atno 7974 bound_to 7965
  154.5116  140.0809  156.8001 H   0  0  0  0  0  0  0  0  0  0  0  0  # atno 8008 bound_to 7997
  155.3772  140.3426  155.4227 H   0  0  0  0  0  0  0  0  0  0  0  0  # atno 8009 bound_to 7997
  156.1580  140.1579  156.8648 H   0  0  0  0  0  0  0  0  0  0  0  0  # atno 8010 bound_to 7997
  140.6473  143.2543  151.4822 H   0  0  0  0  0  0  0  0  0  0  0  0  # atno 10167 bound_to 10162
  157.5332  131.1098  150.8976 H   0  0  0  0  0  0  0  0  0  0  0  0  # atno 10718 bound_to 10713
  153.8436  135.3088  155.3428 H   0  0  0  0  0  0  0  0  0  0  0  0  # atno 10763 bound_to 10752
  154.7922  135.4776  154.0081 H   0  0  0  0  0  0  0  0  0  0  0  0  # atno 10764 bound_to 10752
  153.1561  135.6852  153.8903 H   0  0  0  0  0  0  0  0  0  0  0  0  # atno 10765 bound_to 10752
  140.8947  133.7564  156.0466 H   0  0  0  0  0  0  0  0  0  0  0  0  # atno 11005 bound_to 11000
  145.7751  140.9880  143.1129 LP  0  0  0  0  0  0  0  0  0  0  0  0  # atno 17320 bound_to 7965
  144.6865  139.9495  143.7477 LP  0  0  0  0  0  0  0  0  0  0  0  0  # atno 17321 bound_to 7965
  139.5685  144.1984  152.1801 LP  0  0  0  0  0  0  0  0  0  0  0  0  # atno 17342 bound_to 10162
  140.1273  144.5319  150.6824 LP  0  0  0  0  0  0  0  0  0  0  0  0  # atno 17343 bound_to 10162
  156.9551  130.5434  149.5284 LP  0  0  0  0  0  0  0  0  0  0  0  0  # atno 17370 bound_to 10713
  156.0438  130.5517  150.8834 LP  0  0  0  0  0  0  0  0  0  0  0  0  # atno 17371 bound_to 10713
  140.8304  134.3185  157.5351 LP  0  0  0  0  0  0  0  0  0  0  0  0  # atno 17394 bound_to 11000
  139.8734  134.9360  156.3648 LP  0  0  0  0  0  0  0  0  0  0  0  0  # atno 17395 bound_to 11000

$$$$
