AV-unprocessed.smi:809|AV-procd|sdf|3807|dock5
  -GOLD-   22720 1243D 1   1.00000     0.00000
 Structure written by MMmdl.
 39 40  0  0  0  0  0  0  0  0  3 V2000
  152.4492  143.6638  160.5070 C   0  0  0  0  0  0  0  0  0  0  0  0
  152.1145  142.6394  159.4686 C   0  0  0  0  0  0  0  0  0  0  0  0
  152.8937  141.5819  159.0784 C   0  0  0  0  0  0  0  0  0  0  0  0
  152.1195  140.6350  157.8403 S   0  0  0  0  0  0  0  0  0  0  0  0
  150.7358  141.7300  157.8838 C   0  0  0  0  0  0  0  0  0  0  0  0
  149.6337  141.6102  157.1260 N   0  5  0  0  0  0  0  0  0  0  0  0
  149.7311  141.1434  155.8608 C   0  0  0  0  0  0  0  0  0  0  0  0
  150.7606  140.7670  155.2965 O   0  0  0  0  0  0  0  0  0  0  0  0
  148.5612  141.1204  155.2080 N   0  0  0  0  0  0  0  0  0  0  0  0
  148.3578  140.7216  153.8176 C   0  0  0  0  0  0  0  0  0  0  0  0
  147.2744  139.6242  153.6328 C   0  0  1  0  0  0  0  0  0  0  0  0
  146.0407  140.1809  154.0512 O   0  0  0  0  0  0  0  0  0  0  0  0
  147.1267  139.2802  152.1333 C   0  0  0  0  0  0  0  0  0  0  0  0
  146.1390  138.1273  151.8776 C   0  0  0  0  0  0  0  0  0  0  0  0
  146.5139  136.9226  152.6562 N   0  3  2  0  0  0  0  0  0  0  0  0
  145.6642  135.7563  152.3327 C   0  0  0  0  0  0  0  0  0  0  0  0
  146.5609  137.2005  154.1115 C   0  0  0  0  0  0  0  0  0  0  0  0
  147.5590  138.3277  154.4303 C   0  0  0  0  0  0  0  0  0  0  0  0
  150.8967  142.7041  158.7866 N   0  0  0  0  0  0  0  0  0  0  0  0
  152.5752  143.2016  161.4860 H   0  0  0  0  0  0  0  0  0  0  0  0
  151.6667  144.4181  160.5975 H   0  0  0  0  0  0  0  0  0  0  0  0
  153.3774  144.1804  160.2626 H   0  0  0  0  0  0  0  0  0  0  0  0
  153.8707  141.3019  159.4423 H   0  0  0  0  0  0  0  0  0  0  0  0
  147.7464  141.4296  155.7171 H   0  0  0  0  0  0  0  0  0  0  0  0
  148.1622  141.5890  153.1841 H   0  0  0  0  0  0  0  0  0  0  0  0
  149.3222  140.3331  153.4896 H   0  0  0  0  0  0  0  0  0  0  0  0
  145.4811  140.2921  153.2989 H   0  0  0  0  0  0  0  0  0  0  0  0
  146.8185  140.1627  151.5704 H   0  0  0  0  0  0  0  0  0  0  0  0
  148.0994  138.9930  151.7314 H   0  0  0  0  0  0  0  0  0  0  0  0
  145.1229  138.4304  152.1352 H   0  0  0  0  0  0  0  0  0  0  0  0
  146.1344  137.8860  150.8138 H   0  0  0  0  0  0  0  0  0  0  0  0
  144.6234  135.9446  152.5990 H   0  0  0  0  0  0  0  0  0  0  0  0
  146.0016  134.8719  152.8737 H   0  0  0  0  0  0  0  0  0  0  0  0
  145.7097  135.5306  151.2667 H   0  0  0  0  0  0  0  0  0  0  0  0
  145.5638  137.4642  154.4673 H   0  0  0  0  0  0  0  0  0  0  0  0
  146.8562  136.2966  154.6458 H   0  0  0  0  0  0  0  0  0  0  0  0
  148.5680  137.9806  154.2037 H   0  0  0  0  0  0  0  0  0  0  0  0
  147.5379  138.5220  155.5036 H   0  0  0  0  0  0  0  0  0  0  0  0
  147.4541  136.6784  152.3792 H   0  0  0  0  0  0  0  0  0  0  0  0
  1  2  1  0  0  0  0
  1 20  1  0  0  0  0
  1 21  1  0  0  0  0
  1 22  1  0  0  0  0
  2 19  1  0  0  0  0
  2  3  2  0  0  0  0
  3  4  1  0  0  0  0
  3 23  1  0  0  0  0
  4  5  1  0  0  0  0
  5  6  1  0  0  0  0
  5 19  2  0  0  0  0
  6  7  1  0  0  0  0
  7  8  2  0  0  0  0
  7  9  1  0  0  0  0
  9 10  1  0  0  0  0
  9 24  1  0  0  0  0
 10 11  1  0  0  0  0
 10 25  1  0  0  0  0
 10 26  1  0  0  0  0
 11 18  1  0  0  0  0
 11 12  1  0  0  0  0
 11 13  1  0  0  0  0
 12 27  1  0  0  0  0
 13 14  1  0  0  0  0
 13 28  1  0  0  0  0
 13 29  1  0  0  0  0
 14 15  1  0  0  0  0
 14 30  1  0  0  0  0
 14 31  1  0  0  0  0
 15 16  1  0  0  0  0
 15 17  1  0  0  0  0
 15 39  1  0  0  0  0
 16 32  1  0  0  0  0
 16 33  1  0  0  0  0
 16 34  1  0  0  0  0
 17 18  1  0  0  0  0
 17 35  1  0  0  0  0
 17 36  1  0  0  0  0
 18 37  1  0  0  0  0
 18 38  1  0  0  0  0
M  CHG  1   6  -1
M  CHG  1  15   1
M  END
> <s_m_source_file>
AV-unprocessed.smi

> <i_m_source_file_index>
809

> <i_lp_mmshare_version>
43012

> <i_f3d_flags>
0

> <s_epik_input>
W0NIM11jMVtjSF1zYyhuMSlbTkhdQyg9TylbTkhdW0NIMl1DMihbT0hdKVtDSDJdW0NIMl1OKFtDSDNdKVtDSDJdW0NIMl0y

> <s_epik_cmdline>
J2VwaWtfcHl0aG9uJywgJy1waCcsICc3LjAnLCAnLXRuJywgJzgnLCAnLW1hJywgJzIwMCcsICctbWV0YWxfYmluZGluZycsICctaW1hZScsICc8aW5maWxlLm1hZT4nLCAnLW9tYWUnLCAnPG91dGZpbGUubWFlPic=

> <r_lp_tautomer_probability>
0.999

> <r_epik_Ionization_Penalty>
8.50704

> <r_epik_Ionization_Penalty_Charging>
6.65046

> <r_epik_Ionization_Penalty_Neutral>
1.85657

> <r_epik_State_Penalty>
6.64992

> <r_epik_Charging_Adjusted_Penalty>
13.3004

> <i_epik_Tot_Q>
0

> <i_epik_Tot_abs_Q>
2

> <r_epik_Metal_State_Penalty>
2.57297

> <b_epik_Metal_Only>
1

> <s_lp_Force_Field>
OPLS_2005

> <r_lp_Energy>
10.5193

> <b_lp_Chiralities_Consistent>
1

> <s_lp_Variant>
AV-unprocessed.smi:809-3

> <Gold.Version>
5.8.1

> <Gold.Id.Protein>
6NUR|6NUR_protein|mol2

> <Gold.PLP.Fitness>
40.3515

> <Gold.PLP.PLP>
-29.3315

> <Gold.PLP.part.hbond>
-3.0000

> <Gold.PLP.part.metal>
0.0000

> <Gold.PLP.part.buried>
0.5896

> <Gold.PLP.part.nonpolar>
-27.6378

> <Gold.PLP.part.repulsive>
0.3229

> <Gold.PLP.ligand.clash>
0.0000

> <Gold.PLP.ligand.torsion>
0.2687

> <Gold.PLP.Chemscore.Hbond>
3.8480

> <Gold.PLP.Chemscore.CHOScore>
0.0000

> <Gold.PLP.Chemscore.Metal>
0.0000

> <Gold.Chemscore.Hbonds>
donor molecule, donor type, donor heavy atom, donor atom, acceptor molecule, acceptor atom, score
      L1  H    12    27       P1 10175  1.00
      L1  H    15    39       P1  7948  2.00
      P1  H  7989  7998       L1     8  0.85

> <Gold.PLP.Chemscore.Internal.Correction>
0.0134

> <Gold.Rescore>
     Score         DG    S(hbond)    S(metal)    S(lipo)     H(rot)  DE(clash)    DE(int)     intcor
     17.56     -18.89       2.79        0.00      74.90       1.82       0.08       1.25       ----

> <Gold.Chemscore.Fitness>
17.5609

> <Gold.Chemscore.DG>
-18.8899

> <Gold.Chemscore.ZeroCoef>
-5.4800

> <Gold.Chemscore.Hbond>
2.7850

> <Gold.Chemscore.Metal>
0.0000

> <Gold.Chemscore.Lipo>
74.9035

> <Gold.Chemscore.Internal_Hbond>
0.0000

> <Gold.Chemscore.DEClash>
0.0788

> <Gold.Chemscore.DEInternal>
1.2502

> <Gold.Chemscore.Rot>
1.8186

> <Gold.Chemscore.Internal.Correction>
   9.000000E+99

> <Gold.Chemscore.Hbonds>
donor molecule, donor type, donor heavy atom, donor atom, acceptor molecule, acceptor atom, score
      L1  H    12    27       P1 10175  0.93
      L1  H    15    39       P1  7948  1.00
      P1  H  7989  7998       L1     8  0.80

> <Gold.Chemscore.Hbond.Weighted>
-9.3020

> <Gold.Chemscore.Metal.Weighted>
-0.0000

> <Gold.Chemscore.Lipo.Weighted>
-8.7637

> <Gold.Chemscore.Internal_Hbond.Weighted>
0.0000

> <Gold.Chemscore.DEClash.Weighted>
0.0788

> <Gold.Chemscore.DEInternal.Weighted>
1.2502

> <Gold.Chemscore.Rot.Weighted>
4.6557

> <Gold.Chemscore.Internal.Correction.Weighted>
   9.000000E+99

> <Gold.Protein.RotatedTorsions>
[ 6907 6896 6895 6894 ] final  143.36 input  -60.11 | X-H torsion
[ 7974 7965 7964 7962 ] final -132.72 input  175.53 | X-H torsion
[ 8008 7997 7996 7995 ] final -116.91 input   59.86 | X-H torsion
[ 10167 10162 10161 10158 ] final -110.72 input  -65.29 | X-H torsion
[ 10718 10713 10712 10709 ] final    0.97 input   66.30 | X-H torsion
[ 10763 10752 10751 10750 ] final -115.18 input  -60.55 | X-H torsion
[ 11005 11000 10999 10996 ] final  -48.71 input  -57.11 | X-H torsion

> <Gold.Protein.ActiveResidues>
 VAL166  LYS551  ARG553  GLY616  TRP617  ASP618  TYR619  PRO620  LYS621  CYS622 
 ASP623  PHE694  ASN695  SER759  ASP760  ASP761  ALA762  ILE779  LEU786  VAL792 
 PHE793  MET794  SER795  GLU796  ALA797  LYS798  CYS799  TRP800  GLU811  SER814 

> <Gold.Protein.RotatedAtoms>
  152.2072  133.4884  159.5090 H   0  0  0  0  0  0  0  0  0  0  0  0  # atno 6907 bound_to 6896
  150.6982  134.1514  159.4151 H   0  0  0  0  0  0  0  0  0  0  0  0  # atno 6908 bound_to 6896
  151.9433  135.0203  160.0588 H   0  0  0  0  0  0  0  0  0  0  0  0  # atno 6909 bound_to 6896
  144.9259  140.7071  143.4936 H   0  0  0  0  0  0  0  0  0  0  0  0  # atno 7974 bound_to 7965
  155.0754  140.0394  157.2622 H   0  0  0  0  0  0  0  0  0  0  0  0  # atno 8008 bound_to 7997
  154.6949  140.2661  155.6751 H   0  0  0  0  0  0  0  0  0  0  0  0  # atno 8009 bound_to 7997
  156.2741  140.2752  156.1540 H   0  0  0  0  0  0  0  0  0  0  0  0  # atno 8010 bound_to 7997
  140.1414  143.4276  152.1559 H   0  0  0  0  0  0  0  0  0  0  0  0  # atno 10167 bound_to 10162
  156.8412  130.5521  149.5677 H   0  0  0  0  0  0  0  0  0  0  0  0  # atno 10718 bound_to 10713
  154.8470  135.4391  154.1622 H   0  0  0  0  0  0  0  0  0  0  0  0  # atno 10763 bound_to 10752
  153.2756  135.6949  153.7443 H   0  0  0  0  0  0  0  0  0  0  0  0  # atno 10764 bound_to 10752
  153.6667  135.3426  155.3117 H   0  0  0  0  0  0  0  0  0  0  0  0  # atno 10765 bound_to 10752
  141.0717  133.6677  156.3480 H   0  0  0  0  0  0  0  0  0  0  0  0  # atno 11005 bound_to 11000
  145.3220  139.1785  143.4583 LP  0  0  0  0  0  0  0  0  0  0  0  0  # atno 17320 bound_to 7965
  146.3226  140.3239  142.8635 LP  0  0  0  0  0  0  0  0  0  0  0  0  # atno 17321 bound_to 7965
  139.5470  144.7306  151.4552 LP  0  0  0  0  0  0  0  0  0  0  0  0  # atno 17342 bound_to 10162
  140.6758  143.8193  150.7056 LP  0  0  0  0  0  0  0  0  0  0  0  0  # atno 17343 bound_to 10162
  156.0879  130.5873  150.9682 LP  0  0  0  0  0  0  0  0  0  0  0  0  # atno 17370 bound_to 10713
  157.6354  131.0916  150.8358 LP  0  0  0  0  0  0  0  0  0  0  0  0  # atno 17371 bound_to 10713
  140.5660  134.5887  157.5446 LP  0  0  0  0  0  0  0  0  0  0  0  0  # atno 17394 bound_to 11000
  139.9530  134.7584  156.0406 LP  0  0  0  0  0  0  0  0  0  0  0  0  # atno 17395 bound_to 11000

$$$$
