AV-unprocessed.smi:603|AV-procd|sdf|3036|dock10
  -GOLD-   2262023553D 1   1.00000     0.00000
 Structure written by MMmdl.
 35 36  0  0  0  0  0  0  0  0  1 V2000
  150.8910  135.7365  156.5214 O   0  0  0  0  0  0  0  0  0  0  0  0
  150.6774  136.1373  155.3754 C   0  0  0  0  0  0  0  0  0  0  0  0
  151.4610  137.3491  154.8591 C   0  0  0  0  0  0  0  0  0  0  0  0
  151.5656  138.4012  155.8792 N   0  0  0  0  0  0  0  0  0  0  0  0
  152.0611  137.9592  157.0938 N   0  0  0  0  0  0  0  0  0  0  0  0
  152.2048  138.7954  158.0634 C   0  0  0  0  0  0  0  0  0  0  0  0
  151.8616  140.1939  157.9314 C   0  0  0  0  0  0  0  0  0  0  0  0
  152.0768  141.2694  159.2670 Cl  0  0  0  0  0  0  0  0  0  0  0  0
  151.3722  140.6163  156.7386 C   0  0  0  0  0  0  0  0  0  0  0  0
  150.9390  142.2751  156.5043 Cl  0  0  0  0  0  0  0  0  0  0  0  0
  151.1942  139.6909  155.6108 C   0  0  0  0  0  0  0  0  0  0  0  0
  150.7530  140.0360  154.5140 O   0  0  0  0  0  0  0  0  0  0  0  0
  149.8004  135.5976  154.4973 N   0  0  0  0  0  0  0  0  0  0  0  0
  148.9677  134.5361  154.6095 C   0  0  0  0  0  0  0  0  0  0  0  0
  148.9266  133.8805  155.6494 O   0  0  0  0  0  0  0  0  0  0  0  0
  148.2024  134.2403  153.5419 N   0  0  0  0  0  0  0  0  0  0  0  0
  147.0444  133.3509  153.5484 C   0  0  0  0  0  0  0  0  0  0  0  0
  147.2509  132.1484  152.6058 C   0  0  0  0  0  0  0  0  0  0  0  0
  146.3414  132.3971  151.4027 C   0  0  0  0  0  0  0  0  0  0  0  0
  145.1621  133.1714  151.9828 C   0  0  0  0  0  0  0  0  0  0  0  0
  145.7903  134.0857  153.0362 C   0  0  0  0  0  0  0  0  0  0  0  0
  152.4490  137.0385  154.5138 H   0  0  0  0  0  0  0  0  0  0  0  0
  150.9569  137.7357  153.9712 H   0  0  0  0  0  0  0  0  0  0  0  0
  152.5931  138.4927  159.0361 H   0  0  0  0  0  0  0  0  0  0  0  0
  149.7644  136.0610  153.6008 H   0  0  0  0  0  0  0  0  0  0  0  0
  148.4435  134.6669  152.6584 H   0  0  0  0  0  0  0  0  0  0  0  0
  146.8653  132.9918  154.5636 H   0  0  0  0  0  0  0  0  0  0  0  0
  148.2899  132.0001  152.3082 H   0  0  0  0  0  0  0  0  0  0  0  0
  146.9321  131.2375  153.1141 H   0  0  0  0  0  0  0  0  0  0  0  0
  146.8614  133.0152  150.6694 H   0  0  0  0  0  0  0  0  0  0  0  0
  146.0374  131.4744  150.9078 H   0  0  0  0  0  0  0  0  0  0  0  0
  144.6073  133.7239  151.2241 H   0  0  0  0  0  0  0  0  0  0  0  0
  144.4702  132.4781  152.4630 H   0  0  0  0  0  0  0  0  0  0  0  0
  145.0918  134.3167  153.8411 H   0  0  0  0  0  0  0  0  0  0  0  0
  146.0627  135.0324  152.5666 H   0  0  0  0  0  0  0  0  0  0  0  0
  1  2  2  0  0  0  0
  2  3  1  0  0  0  0
  2 13  1  0  0  0  0
  3  4  1  0  0  0  0
  3 22  1  0  0  0  0
  3 23  1  0  0  0  0
  4 11  1  0  0  0  0
  4  5  1  0  0  0  0
  5  6  2  0  0  0  0
  6  7  1  0  0  0  0
  6 24  1  0  0  0  0
  7  8  1  0  0  0  0
  7  9  2  0  0  0  0
  9 10  1  0  0  0  0
  9 11  1  0  0  0  0
 11 12  2  0  0  0  0
 13 14  1  0  0  0  0
 13 25  1  0  0  0  0
 14 15  2  0  0  0  0
 14 16  1  0  0  0  0
 16 17  1  0  0  0  0
 16 26  1  0  0  0  0
 17 21  1  0  0  0  0
 17 18  1  0  0  0  0
 17 27  1  0  0  0  0
 18 19  1  0  0  0  0
 18 28  1  0  0  0  0
 18 29  1  0  0  0  0
 19 20  1  0  0  0  0
 19 30  1  0  0  0  0
 19 31  1  0  0  0  0
 20 21  1  0  0  0  0
 20 32  1  0  0  0  0
 20 33  1  0  0  0  0
 21 34  1  0  0  0  0
 21 35  1  0  0  0  0
M  END
> <s_m_source_file>
AV-unprocessed.smi

> <i_m_source_file_index>
603

> <i_lp_mmshare_version>
43012

> <i_f3d_flags>
0

> <s_epik_input>
W0NIMl0xW0NIMl1bQ0gyXVtDSDJdW0NIXTFbTkhdQyg9TylbTkhdQyg9TylbQ0gyXW4ybltjSF1jKENsKWMoQ2wpYzI9Tw==

> <s_epik_cmdline>
J2VwaWtfcHl0aG9uJywgJy1waCcsICc3LjAnLCAnLXRuJywgJzgnLCAnLW1hJywgJzIwMCcsICctbWV0YWxfYmluZGluZycsICctaW1hZScsICc8aW5maWxlLm1hZT4nLCAnLW9tYWUnLCAnPG91dGZpbGUubWFlPic=

> <r_lp_tautomer_probability>
1

> <r_epik_Ionization_Penalty>
3.28905e-05

> <r_epik_Ionization_Penalty_Charging>
2.24292e-11

> <r_epik_Ionization_Penalty_Neutral>
3.28905e-05

> <r_epik_State_Penalty>
-0

> <r_epik_Charging_Adjusted_Penalty>
2.24292e-11

> <i_epik_Tot_Q>
0

> <i_epik_Tot_abs_Q>
0

> <r_epik_Metal_State_Penalty>
-0

> <b_epik_Metal_Only>
0

> <s_lp_Force_Field>
OPLS_2005

> <r_lp_Energy>
36.9935

> <b_lp_Chiralities_Consistent>
1

> <s_lp_Variant>
AV-unprocessed.smi:603-1

> <Gold.Version>
5.8.1

> <Gold.Id.Protein>
6NUR|6NUR_protein|mol2

> <Gold.PLP.Fitness>
38.6589

> <Gold.PLP.PLP>
-30.5768

> <Gold.PLP.part.hbond>
-3.0080

> <Gold.PLP.part.metal>
0.0000

> <Gold.PLP.part.buried>
-4.0348

> <Gold.PLP.part.nonpolar>
-23.7635

> <Gold.PLP.part.repulsive>
0.1690

> <Gold.PLP.ligand.clash>
0.0000

> <Gold.PLP.ligand.torsion>
0.3469

> <Gold.PLP.Chemscore.Hbond>
2.9200

> <Gold.PLP.Chemscore.CHOScore>
0.0000

> <Gold.PLP.Chemscore.Metal>
0.0000

> <Gold.Chemscore.Hbonds>
donor molecule, donor type, donor heavy atom, donor atom, acceptor molecule, acceptor atom, score
      L1  H    13    25       P1  7948  0.89
      L1  H    16    26       P1  7948  0.87
      P1  H  7989  7998       L1    12  1.00

> <Gold.PLP.Chemscore.Internal.Correction>
0.0159

> <Gold.Rescore>
     Score         DG    S(hbond)    S(metal)    S(lipo)     H(rot)  DE(clash)    DE(int)     intcor
     13.81     -17.14       2.71        0.00      58.39       1.65       0.00       3.33       ----

> <Gold.Chemscore.Fitness>
13.8096

> <Gold.Chemscore.DG>
-17.1401

> <Gold.Chemscore.ZeroCoef>
-5.4800

> <Gold.Chemscore.Hbond>
2.7137

> <Gold.Chemscore.Metal>
0.0000

> <Gold.Chemscore.Lipo>
58.3869

> <Gold.Chemscore.Internal_Hbond>
0.0000

> <Gold.Chemscore.DEClash>
0.0048

> <Gold.Chemscore.DEInternal>
3.3257

> <Gold.Chemscore.Rot>
1.6543

> <Gold.Chemscore.Internal.Correction>
   9.000000E+99

> <Gold.Chemscore.Hbonds>
donor molecule, donor type, donor heavy atom, donor atom, acceptor molecule, acceptor atom, score
      L1  H    13    25       P1  7948  0.17
      L1  H    16    26       P1  7948  0.19
      P1  H  7989  7998       L1    12  0.96

> <Gold.Chemscore.Hbond.Weighted>
-9.0637

> <Gold.Chemscore.Metal.Weighted>
-0.0000

> <Gold.Chemscore.Lipo.Weighted>
-6.8313

> <Gold.Chemscore.Internal_Hbond.Weighted>
0.0000

> <Gold.Chemscore.DEClash.Weighted>
0.0048

> <Gold.Chemscore.DEInternal.Weighted>
3.3257

> <Gold.Chemscore.Rot.Weighted>
4.2349

> <Gold.Chemscore.Internal.Correction.Weighted>
   9.000000E+99

> <Gold.Protein.RotatedTorsions>
[ 6907 6896 6895 6894 ] final -104.87 input  -60.11 | X-H torsion
[ 7974 7965 7964 7962 ] final   83.41 input  175.53 | X-H torsion
[ 8008 7997 7996 7995 ] final  156.58 input   59.86 | X-H torsion
[ 10167 10162 10161 10158 ] final  -10.51 input  -65.29 | X-H torsion
[ 10718 10713 10712 10709 ] final   53.95 input   66.30 | X-H torsion
[ 10763 10752 10751 10750 ] final   -2.06 input  -60.55 | X-H torsion
[ 11005 11000 10999 10996 ] final -168.65 input  -57.11 | X-H torsion

> <Gold.Protein.ActiveResidues>
 VAL166  LYS551  ARG553  GLY616  TRP617  ASP618  TYR619  PRO620  LYS621  CYS622 
 ASP623  PHE694  ASN695  SER759  ASP760  ASP761  ALA762  ILE779  LEU786  VAL792 
 PHE793  MET794  SER795  GLU796  ALA797  LYS798  CYS799  TRP800  GLU811  SER814 

> <Gold.Protein.RotatedAtoms>
  150.7308  134.0212  159.3701 H   0  0  0  0  0  0  0  0  0  0  0  0  # atno 6907 bound_to 6896
  151.8177  135.0659  160.0430 H   0  0  0  0  0  0  0  0  0  0  0  0  # atno 6908 bound_to 6896
  152.3026  133.5635  159.5665 H   0  0  0  0  0  0  0  0  0  0  0  0  # atno 6909 bound_to 6896
  145.6123  139.2370  143.2185 H   0  0  0  0  0  0  0  0  0  0  0  0  # atno 7974 bound_to 7965
  156.2414  140.1908  156.6977 H   0  0  0  0  0  0  0  0  0  0  0  0  # atno 8008 bound_to 7997
  154.6205  140.0609  156.9635 H   0  0  0  0  0  0  0  0  0  0  0  0  # atno 8009 bound_to 7997
  155.1870  140.3281  155.4368 H   0  0  0  0  0  0  0  0  0  0  0  0  # atno 8010 bound_to 7997
  140.7115  143.5740  150.9062 H   0  0  0  0  0  0  0  0  0  0  0  0  # atno 10167 bound_to 10162
  157.5213  130.8567  149.8562 H   0  0  0  0  0  0  0  0  0  0  0  0  # atno 10718 bound_to 10713
  153.3530  135.6986  153.6773 H   0  0  0  0  0  0  0  0  0  0  0  0  # atno 10763 bound_to 10752
  153.5492  135.3557  155.2753 H   0  0  0  0  0  0  0  0  0  0  0  0  # atno 10764 bound_to 10752
  154.8656  135.4222  154.2770 H   0  0  0  0  0  0  0  0  0  0  0  0  # atno 10765 bound_to 10752
  140.5396  134.5536  157.5096 H   0  0  0  0  0  0  0  0  0  0  0  0  # atno 11005 bound_to 11000
  146.1494  140.6946  142.9329 LP  0  0  0  0  0  0  0  0  0  0  0  0  # atno 17320 bound_to 7965
  144.7264  140.4539  143.6969 LP  0  0  0  0  0  0  0  0  0  0  0  0  # atno 17321 bound_to 7965
  139.9466  143.6320  152.3040 LP  0  0  0  0  0  0  0  0  0  0  0  0  # atno 17342 bound_to 10162
  139.6824  144.7654  151.1585 LP  0  0  0  0  0  0  0  0  0  0  0  0  # atno 17343 bound_to 10162
  156.0355  130.3752  150.1571 LP  0  0  0  0  0  0  0  0  0  0  0  0  # atno 17370 bound_to 10713
  156.9759  130.9849  151.3448 LP  0  0  0  0  0  0  0  0  0  0  0  0  # atno 17371 bound_to 10713
  139.9511  134.7616  156.0447 LP  0  0  0  0  0  0  0  0  0  0  0  0  # atno 17394 bound_to 11000
  141.1235  133.6606  156.3275 LP  0  0  0  0  0  0  0  0  0  0  0  0  # atno 17395 bound_to 11000

$$$$
