AV-unprocessed.smi:1570|AV-procd|sdf|6325|dock7
  -GOLD-   22720 6533D 1   1.00000     0.00000
 Structure written by MMmdl.
 52 54  0  0  0  0  0  0  0  0  2 V2000
  152.4977  143.5984  158.6515 C   0  0  0  0  0  0  0  0  0  0  0  0
  151.2044  142.8802  158.2471 C   0  0  0  0  0  0  0  0  0  0  0  0
  151.4783  141.5310  157.7594 N   0  0  0  0  0  0  0  0  0  0  0  0
  152.2298  140.5880  158.3743 C   0  0  0  0  0  0  0  0  0  0  0  0
  152.8044  140.7097  159.4564 O   0  0  0  0  0  0  0  0  0  0  0  0
  152.2234  139.4757  157.6021 N   0  0  0  0  0  0  0  0  0  0  0  0
  152.8969  138.2129  157.8973 C   0  0  0  0  0  0  0  0  0  0  0  0
  152.8301  137.8723  159.4005 C   0  0  1  0  0  0  0  0  0  0  0  0
  151.6176  137.1852  159.6419 O   0  0  0  0  0  0  0  0  0  0  0  0
  153.9868  136.9456  159.8272 C   0  0  0  0  0  0  0  0  0  0  0  0
  154.8878  137.5778  160.8292 N   0  3  1  0  0  0  0  0  0  0  0  0
  154.2657  137.7437  162.1651 C   0  0  0  0  0  0  0  0  0  0  0  0
  154.2490  136.4129  162.9448 C   0  0  2  0  0  0  0  0  0  0  0  0
  153.6896  136.5832  164.3613 C   0  0  0  0  0  0  0  0  0  0  0  0
  155.5819  135.9249  163.0521 O   0  0  0  0  0  0  0  0  0  0  0  0
  156.1735  135.6485  161.7870 C   0  0  2  0  0  0  0  0  0  0  0  0
  157.5697  135.0661  162.0319 C   0  0  0  0  0  0  0  0  0  0  0  0
  156.2280  136.9490  160.9567 C   0  0  0  0  0  0  0  0  0  0  0  0
  151.4204  139.7032  156.4755 C   0  0  0  0  0  0  0  0  0  0  0  0
  151.0743  138.8662  155.4003 C   0  0  0  0  0  0  0  0  0  0  0  0
  150.2166  139.4043  154.4122 C   0  0  0  0  0  0  0  0  0  0  0  0
  149.7325  140.7340  154.5156 C   0  0  0  0  0  0  0  0  0  0  0  0
  150.0958  141.5547  155.6090 C   0  0  0  0  0  0  0  0  0  0  0  0
  150.9505  140.9962  156.5754 C   0  0  0  0  0  0  0  0  0  0  0  0
  152.2847  144.6033  159.0160 H   0  0  0  0  0  0  0  0  0  0  0  0
  153.1800  143.6893  157.8058 H   0  0  0  0  0  0  0  0  0  0  0  0
  153.0163  143.0601  159.4455 H   0  0  0  0  0  0  0  0  0  0  0  0
  150.5222  142.8308  159.0964 H   0  0  0  0  0  0  0  0  0  0  0  0
  150.6860  143.4546  157.4774 H   0  0  0  0  0  0  0  0  0  0  0  0
  152.5001  137.4033  157.2834 H   0  0  0  0  0  0  0  0  0  0  0  0
  153.9384  138.3214  157.5901 H   0  0  0  0  0  0  0  0  0  0  0  0
  152.8449  138.7889  159.9892 H   0  0  0  0  0  0  0  0  0  0  0  0
  150.9098  137.6705  159.2458 H   0  0  0  0  0  0  0  0  0  0  0  0
  153.5601  136.0308  160.2417 H   0  0  0  0  0  0  0  0  0  0  0  0
  154.5641  136.6372  158.9556 H   0  0  0  0  0  0  0  0  0  0  0  0
  154.8442  138.4837  162.7200 H   0  0  0  0  0  0  0  0  0  0  0  0
  153.2595  138.1533  162.0697 H   0  0  0  0  0  0  0  0  0  0  0  0
  153.6369  135.6775  162.4200 H   0  0  0  0  0  0  0  0  0  0  0  0
  152.6628  136.9489  164.3367 H   0  0  0  0  0  0  0  0  0  0  0  0
  154.2840  137.2921  164.9385 H   0  0  0  0  0  0  0  0  0  0  0  0
  153.6906  135.6339  164.8973 H   0  0  0  0  0  0  0  0  0  0  0  0
  155.5786  134.8940  161.2712 H   0  0  0  0  0  0  0  0  0  0  0  0
  158.0643  134.8234  161.0910 H   0  0  0  0  0  0  0  0  0  0  0  0
  157.5123  134.1511  162.6220 H   0  0  0  0  0  0  0  0  0  0  0  0
  158.2040  135.7703  162.5714 H   0  0  0  0  0  0  0  0  0  0  0  0
  156.6729  136.7622  159.9804 H   0  0  0  0  0  0  0  0  0  0  0  0
  156.8844  137.6650  161.4535 H   0  0  0  0  0  0  0  0  0  0  0  0
  151.4407  137.8530  155.3283 H   0  0  0  0  0  0  0  0  0  0  0  0
  149.9245  138.7940  153.5701 H   0  0  0  0  0  0  0  0  0  0  0  0
  149.0764  141.1239  153.7512 H   0  0  0  0  0  0  0  0  0  0  0  0
  149.7261  142.5658  155.6953 H   0  0  0  0  0  0  0  0  0  0  0  0
  155.0419  138.5132  160.4794 H   0  0  0  0  0  0  0  0  0  0  0  0
  1  2  1  0  0  0  0
  1 25  1  0  0  0  0
  1 26  1  0  0  0  0
  1 27  1  0  0  0  0
  2  3  1  0  0  0  0
  2 28  1  0  0  0  0
  2 29  1  0  0  0  0
  3 24  1  0  0  0  0
  3  4  1  0  0  0  0
  4  5  2  0  0  0  0
  4  6  1  0  0  0  0
  6  7  1  0  0  0  0
  6 19  1  0  0  0  0
  7  8  1  0  0  0  0
  7 30  1  0  0  0  0
  7 31  1  0  0  0  0
  8  9  1  0  0  0  0
  8 10  1  0  0  0  0
  8 32  1  0  0  0  0
  9 33  1  0  0  0  0
 10 11  1  0  0  0  0
 10 34  1  0  0  0  0
 10 35  1  0  0  0  0
 11 18  1  0  0  0  0
 11 12  1  0  0  0  0
 11 52  1  0  0  0  0
 12 13  1  0  0  0  0
 12 36  1  0  0  0  0
 12 37  1  0  0  0  0
 13 14  1  0  0  0  0
 13 15  1  0  0  0  0
 13 38  1  0  0  0  0
 14 39  1  0  0  0  0
 14 40  1  0  0  0  0
 14 41  1  0  0  0  0
 15 16  1  0  0  0  0
 16 17  1  0  0  0  0
 16 18  1  0  0  0  0
 16 42  1  0  0  0  0
 17 43  1  0  0  0  0
 17 44  1  0  0  0  0
 17 45  1  0  0  0  0
 18 46  1  0  0  0  0
 18 47  1  0  0  0  0
 19 24  2  0  0  0  0
 19 20  1  0  0  0  0
 20 21  2  0  0  0  0
 20 48  1  0  0  0  0
 21 22  1  0  0  0  0
 21 49  1  0  0  0  0
 22 23  2  0  0  0  0
 22 50  1  0  0  0  0
 23 24  1  0  0  0  0
 23 51  1  0  0  0  0
M  CHG  1  11   1
M  END
> <s_m_source_file>
AV-unprocessed.smi

> <i_m_source_file_index>
1570

> <i_lp_mmshare_version>
43012

> <i_f3d_flags>
0

> <s_epik_input>
W2NIXTFbY0hdW2NIXVtjSF1jKGMxMiluKFtDSDJdW0NIM10pYyg9TyluMltDSDJdW0NASF0oW09IXSlbQ0gyXU4zW0NIMl1bQ0BASF0oW0NIM10pT1tDQEBIXShbQ0gzXSlbQ0gyXTM=

> <s_epik_cmdline>
J2VwaWtfcHl0aG9uJywgJy1waCcsICc3LjAnLCAnLXRuJywgJzgnLCAnLW1hJywgJzIwMCcsICctbWV0YWxfYmluZGluZycsICctaW1hZScsICc8aW5maWxlLm1hZT4nLCAnLW9tYWUnLCAnPG91dGZpbGUubWFlPic=

> <r_epik_Ionization_Penalty>
0.706332

> <r_epik_Ionization_Penalty_Charging>
0.706318

> <r_epik_Ionization_Penalty_Neutral>
1.42224e-05

> <r_epik_State_Penalty>
0.729493

> <r_epik_Charging_Adjusted_Penalty>
1.43581

> <i_epik_Tot_Q>
1

> <i_epik_Tot_abs_Q>
1

> <r_epik_Metal_State_Penalty>
0.729493

> <b_epik_Metal_Only>
0

> <s_lp_Force_Field>
OPLS_2005

> <r_lp_Energy>
54.0737

> <b_lp_Chiralities_Consistent>
1

> <s_lp_Variant>
AV-unprocessed.smi:1570-14

> <Gold.Version>
5.8.1

> <Gold.Id.Protein>
6NUR|6NUR_protein|mol2

> <Gold.PLP.Fitness>
40.5502

> <Gold.PLP.PLP>
-40.5913

> <Gold.PLP.part.hbond>
-0.9905

> <Gold.PLP.part.metal>
0.0000

> <Gold.PLP.part.buried>
-2.9926

> <Gold.PLP.part.nonpolar>
-36.6797

> <Gold.PLP.part.repulsive>
0.0115

> <Gold.PLP.ligand.clash>
0.0000

> <Gold.PLP.ligand.torsion>
1.5457

> <Gold.PLP.Chemscore.Hbond>
0.9913

> <Gold.PLP.Chemscore.CHOScore>
0.0000

> <Gold.PLP.Chemscore.Metal>
0.0000

> <Gold.Chemscore.Hbonds>
donor molecule, donor type, donor heavy atom, donor atom, acceptor molecule, acceptor atom, score
      P1  H  6896  6909       L1     9  0.98

> <Gold.PLP.Chemscore.Internal.Correction>
0.0766

> <Gold.Rescore>
     Score         DG    S(hbond)    S(metal)    S(lipo)     H(rot)  DE(clash)    DE(int)     intcor
     11.78     -15.61       0.97        0.00     105.58       2.13       0.01       3.82       ----

> <Gold.Chemscore.Fitness>
11.7793

> <Gold.Chemscore.DG>
-15.6078

> <Gold.Chemscore.ZeroCoef>
-5.4800

> <Gold.Chemscore.Hbond>
0.9666

> <Gold.Chemscore.Metal>
0.0000

> <Gold.Chemscore.Lipo>
105.5805

> <Gold.Chemscore.Internal_Hbond>
0.0000

> <Gold.Chemscore.DEClash>
0.0060

> <Gold.Chemscore.DEInternal>
3.8225

> <Gold.Chemscore.Rot>
2.1303

> <Gold.Chemscore.Internal.Correction>
   9.000000E+99

> <Gold.Chemscore.Hbonds>
donor molecule, donor type, donor heavy atom, donor atom, acceptor molecule, acceptor atom, score
      P1  H  6896  6909       L1     9  0.90

> <Gold.Chemscore.Hbond.Weighted>
-3.2284

> <Gold.Chemscore.Metal.Weighted>
-0.0000

> <Gold.Chemscore.Lipo.Weighted>
-12.3529

> <Gold.Chemscore.Internal_Hbond.Weighted>
0.0000

> <Gold.Chemscore.DEClash.Weighted>
0.0060

> <Gold.Chemscore.DEInternal.Weighted>
3.8225

> <Gold.Chemscore.Rot.Weighted>
5.4535

> <Gold.Chemscore.Internal.Correction.Weighted>
   9.000000E+99

> <Gold.Protein.RotatedTorsions>
[ 6907 6896 6895 6894 ] final  117.62 input  -60.11 | X-H torsion
[ 7974 7965 7964 7962 ] final   81.06 input  175.53 | X-H torsion
[ 8008 7997 7996 7995 ] final  106.03 input   59.86 | X-H torsion
[ 10167 10162 10161 10158 ] final   44.32 input  -65.29 | X-H torsion
[ 10718 10713 10712 10709 ] final   80.10 input   66.30 | X-H torsion
[ 10763 10752 10751 10750 ] final  158.78 input  -60.55 | X-H torsion
[ 11005 11000 10999 10996 ] final -160.16 input  -57.11 | X-H torsion

> <Gold.Protein.ActiveResidues>
 VAL166  LYS551  ARG553  GLY616  TRP617  ASP618  TYR619  PRO620  LYS621  CYS622 
 ASP623  PHE694  ASN695  SER759  ASP760  ASP761  ALA762  ILE779  LEU786  VAL792 
 PHE793  MET794  SER795  GLU796  ALA797  LYS798  CYS799  TRP800  GLU811  SER814 

> <Gold.Protein.RotatedAtoms>
  152.4599  133.7800  159.6845 H   0  0  0  0  0  0  0  0  0  0  0  0  # atno 6907 bound_to 6896
  150.8539  133.7735  159.3022 H   0  0  0  0  0  0  0  0  0  0  0  0  # atno 6908 bound_to 6896
  151.5322  135.1071  159.9957 H   0  0  0  0  0  0  0  0  0  0  0  0  # atno 6909 bound_to 6896
  145.6430  139.2430  143.2020 H   0  0  0  0  0  0  0  0  0  0  0  0  # atno 7974 bound_to 7965
  156.1709  140.3120  155.8971 H   0  0  0  0  0  0  0  0  0  0  0  0  # atno 8008 bound_to 7997
  155.3589  140.0475  157.3063 H   0  0  0  0  0  0  0  0  0  0  0  0  # atno 8009 bound_to 7997
  154.5240  140.2208  155.8935 H   0  0  0  0  0  0  0  0  0  0  0  0  # atno 8010 bound_to 7997
  140.3354  144.2536  150.6162 H   0  0  0  0  0  0  0  0  0  0  0  0  # atno 10167 bound_to 10162
  157.6796  130.9944  150.2030 H   0  0  0  0  0  0  0  0  0  0  0  0  # atno 10718 bound_to 10713
  154.2215  135.2782  155.2923 H   0  0  0  0  0  0  0  0  0  0  0  0  # atno 10763 bound_to 10752
  154.5698  135.5622  153.7087 H   0  0  0  0  0  0  0  0  0  0  0  0  # atno 10764 bound_to 10752
  153.0040  135.6318  154.2355 H   0  0  0  0  0  0  0  0  0  0  0  0  # atno 10765 bound_to 10752
  140.6345  134.4616  157.5231 H   0  0  0  0  0  0  0  0  0  0  0  0  # atno 11005 bound_to 11000
  146.1265  140.7241  142.9432 LP  0  0  0  0  0  0  0  0  0  0  0  0  # atno 17320 bound_to 7965
  144.7150  140.4178  143.7051 LP  0  0  0  0  0  0  0  0  0  0  0  0  # atno 17321 bound_to 7965
  140.5358  143.2233  151.8165 LP  0  0  0  0  0  0  0  0  0  0  0  0  # atno 17342 bound_to 10162
  139.4849  144.4663  151.9480 LP  0  0  0  0  0  0  0  0  0  0  0  0  # atno 17343 bound_to 10162
  156.2717  130.3722  149.8025 LP  0  0  0  0  0  0  0  0  0  0  0  0  # atno 17370 bound_to 10713
  156.5740  130.8437  151.3364 LP  0  0  0  0  0  0  0  0  0  0  0  0  # atno 17371 bound_to 10713
  139.9103  134.8359  156.1552 LP  0  0  0  0  0  0  0  0  0  0  0  0  # atno 17394 bound_to 11000
  141.0651  133.6823  156.2029 LP  0  0  0  0  0  0  0  0  0  0  0  0  # atno 17395 bound_to 11000

$$$$
