AV-unprocessed.smi:2791|AV-procd|sdf|10771|dock9
  -GOLD-   2272015203D 1   1.00000     0.00000
 Structure written by MMmdl.
 35 36  0  0  0  0  0  0  0  0  1 V2000
  143.6056  134.9354  152.7090 C   0  0  0  0  0  0  0  0  0  0  0  0
  144.8320  134.2369  152.8794 O   0  0  0  0  0  0  0  0  0  0  0  0
  145.2530  133.4334  151.7763 C   0  0  0  0  0  0  0  0  0  0  0  0
  146.5827  132.7213  152.0606 C   0  0  0  0  0  0  0  0  0  0  0  0
  147.5401  133.6386  152.6639 N   0  0  0  0  0  0  0  0  0  0  0  0
  148.3040  133.3458  153.7236 C   0  0  0  0  0  0  0  0  0  0  0  0
  148.2729  132.2579  154.2992 O   0  0  0  0  0  0  0  0  0  0  0  0
  149.0857  134.3865  154.0604 N   0  0  0  0  0  0  0  0  0  0  0  0
  149.9876  134.4785  155.0736 C   0  0  0  0  0  0  0  0  0  0  0  0
  150.4273  133.5021  155.9255 C   0  0  0  0  0  0  0  0  0  0  0  0
  151.3557  134.2047  156.7461 C   0  0  0  0  0  0  0  0  0  0  0  0
  151.4710  135.4864  156.4211 N   0  0  0  0  0  0  0  0  0  0  0  0
  150.6243  135.6607  155.3829 N   0  0  0  0  0  0  0  0  0  0  0  0
  150.4929  136.9656  154.7645 C   0  0  0  0  0  0  0  0  0  0  0  0
  144.0575  132.5680  151.3347 C   0  0  0  0  0  0  0  0  0  0  0  0
  144.3648  132.9506  149.8859 C   0  0  0  0  0  0  0  0  0  0  0  0
  145.0833  134.1824  150.4391 C   0  0  0  0  0  0  0  0  0  0  0  0
  143.3337  135.4144  153.6493 H   0  0  0  0  0  0  0  0  0  0  0  0
  142.7902  134.2679  152.4299 H   0  0  0  0  0  0  0  0  0  0  0  0
  143.6884  135.7207  151.9580 H   0  0  0  0  0  0  0  0  0  0  0  0
  146.4237  131.8845  152.7425 H   0  0  0  0  0  0  0  0  0  0  0  0
  147.0056  132.2910  151.1523 H   0  0  0  0  0  0  0  0  0  0  0  0
  147.6250  134.5518  152.2418 H   0  0  0  0  0  0  0  0  0  0  0  0
  148.9854  135.2178  153.4967 H   0  0  0  0  0  0  0  0  0  0  0  0
  150.1488  132.4602  155.9705 H   0  0  0  0  0  0  0  0  0  0  0  0
  151.9487  133.8231  157.5640 H   0  0  0  0  0  0  0  0  0  0  0  0
  149.4490  137.2794  154.7896 H   0  0  0  0  0  0  0  0  0  0  0  0
  150.8246  136.9139  153.7274 H   0  0  0  0  0  0  0  0  0  0  0  0
  151.0963  137.7045  155.2934 H   0  0  0  0  0  0  0  0  0  0  0  0
  144.1540  131.5033  151.5493 H   0  0  0  0  0  0  0  0  0  0  0  0
  143.0953  132.9567  151.6735 H   0  0  0  0  0  0  0  0  0  0  0  0
  145.0409  132.2484  149.3951 H   0  0  0  0  0  0  0  0  0  0  0  0
  143.4888  133.1677  149.2740 H   0  0  0  0  0  0  0  0  0  0  0  0
  144.4245  135.0500  150.5085 H   0  0  0  0  0  0  0  0  0  0  0  0
  146.0161  134.4276  149.9302 H   0  0  0  0  0  0  0  0  0  0  0  0
  1  2  1  0  0  0  0
  1 18  1  0  0  0  0
  1 19  1  0  0  0  0
  1 20  1  0  0  0  0
  2  3  1  0  0  0  0
  3 17  1  0  0  0  0
  3  4  1  0  0  0  0
  3 15  1  0  0  0  0
  4  5  1  0  0  0  0
  4 21  1  0  0  0  0
  4 22  1  0  0  0  0
  5  6  1  0  0  0  0
  5 23  1  0  0  0  0
  6  7  2  0  0  0  0
  6  8  1  0  0  0  0
  8  9  1  0  0  0  0
  8 24  1  0  0  0  0
  9 13  1  0  0  0  0
  9 10  2  0  0  0  0
 10 11  1  0  0  0  0
 10 25  1  0  0  0  0
 11 12  2  0  0  0  0
 11 26  1  0  0  0  0
 12 13  1  0  0  0  0
 13 14  1  0  0  0  0
 14 27  1  0  0  0  0
 14 28  1  0  0  0  0
 14 29  1  0  0  0  0
 15 16  1  0  0  0  0
 15 30  1  0  0  0  0
 15 31  1  0  0  0  0
 16 17  1  0  0  0  0
 16 32  1  0  0  0  0
 16 33  1  0  0  0  0
 17 34  1  0  0  0  0
 17 35  1  0  0  0  0
M  END
> <s_m_source_file>
AV-unprocessed.smi

> <i_m_source_file_index>
2791

> <i_lp_mmshare_version>
43012

> <i_f3d_flags>
0

> <s_epik_input>
W0NIMl0xW0NIMl1bQ0gyXUMxKE9bQ0gzXSlbQ0gyXVtOSF1DKD1PKVtOSF1jMltjSF1bY0hdbm4yW0NIM10=

> <s_epik_cmdline>
J2VwaWtfcHl0aG9uJywgJy1waCcsICc3LjAnLCAnLXRuJywgJzgnLCAnLW1hJywgJzIwMCcsICctbWV0YWxfYmluZGluZycsICctaW1hZScsICc8aW5maWxlLm1hZT4nLCAnLW9tYWUnLCAnPG91dGZpbGUubWFlPic=

> <r_lp_tautomer_probability>
1

> <r_epik_Ionization_Penalty>
4.34911e-05

> <r_epik_Ionization_Penalty_Charging>
0

> <r_epik_Ionization_Penalty_Neutral>
4.34911e-05

> <r_epik_State_Penalty>
-0

> <r_epik_Charging_Adjusted_Penalty>
0

> <i_epik_Tot_Q>
0

> <i_epik_Tot_abs_Q>
0

> <r_epik_Metal_State_Penalty>
-0

> <b_epik_Metal_Only>
0

> <s_lp_Force_Field>
OPLS_2005

> <r_lp_Energy>
18.0019

> <b_lp_Chiralities_Consistent>
1

> <s_lp_Variant>
AV-unprocessed.smi:2791-1

> <Gold.Version>
5.8.1

> <Gold.Id.Protein>
6NUR|6NUR_protein|mol2

> <Gold.PLP.Fitness>
36.1524

> <Gold.PLP.PLP>
-28.4487

> <Gold.PLP.part.hbond>
-3.0000

> <Gold.PLP.part.metal>
0.0000

> <Gold.PLP.part.buried>
-1.9442

> <Gold.PLP.part.nonpolar>
-22.0803

> <Gold.PLP.part.repulsive>
0.1822

> <Gold.PLP.ligand.clash>
0.0000

> <Gold.PLP.ligand.torsion>
0.4218

> <Gold.PLP.Chemscore.Hbond>
2.7503

> <Gold.PLP.Chemscore.CHOScore>
0.0000

> <Gold.PLP.Chemscore.Metal>
0.0000

> <Gold.Chemscore.Hbonds>
donor molecule, donor type, donor heavy atom, donor atom, acceptor molecule, acceptor atom, score
      L1  H     5    23       P1  7948  0.67
      L1  H     8    24       P1  7948  1.00
      P1  H 10752 10763       L1    12  0.47

> <Gold.PLP.Chemscore.Internal.Correction>
0.2965

> <Gold.Rescore>
     Score         DG    S(hbond)    S(metal)    S(lipo)     H(rot)  DE(clash)    DE(int)     intcor
     10.17     -12.08       1.20        0.00      55.68       1.53       0.24       1.67       ----

> <Gold.Chemscore.Fitness>
10.1705

> <Gold.Chemscore.DG>
-12.0787

> <Gold.Chemscore.ZeroCoef>
-5.4800

> <Gold.Chemscore.Hbond>
1.2009

> <Gold.Chemscore.Metal>
0.0000

> <Gold.Chemscore.Lipo>
55.6793

> <Gold.Chemscore.Internal_Hbond>
0.0000

> <Gold.Chemscore.DEClash>
0.2406

> <Gold.Chemscore.DEInternal>
1.6677

> <Gold.Chemscore.Rot>
1.5339

> <Gold.Chemscore.Internal.Correction>
   9.000000E+99

> <Gold.Chemscore.Hbonds>
donor molecule, donor type, donor heavy atom, donor atom, acceptor molecule, acceptor atom, score
      L1  H     5    23       P1  7948  0.43
      L1  H     8    24       P1  7948  0.49
      P1  H 10752 10763       L1    12  0.02

> <Gold.Chemscore.Hbond.Weighted>
-4.0110

> <Gold.Chemscore.Metal.Weighted>
-0.0000

> <Gold.Chemscore.Lipo.Weighted>
-6.5145

> <Gold.Chemscore.Internal_Hbond.Weighted>
0.0000

> <Gold.Chemscore.DEClash.Weighted>
0.2406

> <Gold.Chemscore.DEInternal.Weighted>
1.6677

> <Gold.Chemscore.Rot.Weighted>
3.9267

> <Gold.Chemscore.Internal.Correction.Weighted>
   9.000000E+99

> <Gold.Protein.RotatedTorsions>
[ 6907 6896 6895 6894 ] final   77.70 input  -60.11 | X-H torsion
[ 7974 7965 7964 7962 ] final -172.68 input  175.53 | X-H torsion
[ 8008 7997 7996 7995 ] final -124.04 input   59.86 | X-H torsion
[ 10167 10162 10161 10158 ] final   23.30 input  -65.29 | X-H torsion
[ 10718 10713 10712 10709 ] final  -27.31 input   66.30 | X-H torsion
[ 10763 10752 10751 10750 ] final  103.63 input  -60.55 | X-H torsion
[ 11005 11000 10999 10996 ] final   19.13 input  -57.11 | X-H torsion

> <Gold.Protein.ActiveResidues>
 VAL166  LYS551  ARG553  GLY616  TRP617  ASP618  TYR619  PRO620  LYS621  CYS622 
 ASP623  PHE694  ASN695  SER759  ASP760  ASP761  ALA762  ILE779  LEU786  VAL792 
 PHE793  MET794  SER795  GLU796  ALA797  LYS798  CYS799  TRP800  GLU811  SER814 

> <Gold.Protein.RotatedAtoms>
  152.5129  134.3776  159.9339 H   0  0  0  0  0  0  0  0  0  0  0  0  # atno 6907 bound_to 6896
  151.3732  133.3841  159.2709 H   0  0  0  0  0  0  0  0  0  0  0  0  # atno 6908 bound_to 6896
  150.9561  134.8975  159.7760 H   0  0  0  0  0  0  0  0  0  0  0  0  # atno 6909 bound_to 6896
  144.7144  140.1735  143.6365 H   0  0  0  0  0  0  0  0  0  0  0  0  # atno 7974 bound_to 7965
  155.1904  140.0413  157.2899 H   0  0  0  0  0  0  0  0  0  0  0  0  # atno 8008 bound_to 7997
  154.6142  140.2484  155.7602 H   0  0  0  0  0  0  0  0  0  0  0  0  # atno 8009 bound_to 7997
  156.2397  140.2908  156.0420 H   0  0  0  0  0  0  0  0  0  0  0  0  # atno 8010 bound_to 7997
  140.5280  143.9890  150.6450 H   0  0  0  0  0  0  0  0  0  0  0  0  # atno 10167 bound_to 10162
  156.4398  130.4462  149.7060 H   0  0  0  0  0  0  0  0  0  0  0  0  # atno 10718 bound_to 10713
  153.3552  135.3970  155.1676 H   0  0  0  0  0  0  0  0  0  0  0  0  # atno 10763 bound_to 10752
  154.8669  135.3666  154.5170 H   0  0  0  0  0  0  0  0  0  0  0  0  # atno 10764 bound_to 10752
  153.5625  135.7081  153.5601 H   0  0  0  0  0  0  0  0  0  0  0  0  # atno 10765 bound_to 10752
  140.4171  134.1557  155.7670 H   0  0  0  0  0  0  0  0  0  0  0  0  # atno 11005 bound_to 11000
  145.8921  139.2382  143.1543 LP  0  0  0  0  0  0  0  0  0  0  0  0  # atno 17320 bound_to 7965
  145.9893  140.8616  143.0075 LP  0  0  0  0  0  0  0  0  0  0  0  0  # atno 17321 bound_to 7965
  140.3257  143.3109  152.0738 LP  0  0  0  0  0  0  0  0  0  0  0  0  # atno 17342 bound_to 10162
  139.4944  144.6543  151.6606 LP  0  0  0  0  0  0  0  0  0  0  0  0  # atno 17343 bound_to 10162
  156.3929  130.7636  151.2638 LP  0  0  0  0  0  0  0  0  0  0  0  0  # atno 17370 bound_to 10713
  157.7506  131.0262  150.3954 LP  0  0  0  0  0  0  0  0  0  0  0  0  # atno 17371 bound_to 10713
  141.1798  133.8437  157.1296 LP  0  0  0  0  0  0  0  0  0  0  0  0  # atno 17394 bound_to 11000
  140.0226  134.9939  157.0622 LP  0  0  0  0  0  0  0  0  0  0  0  0  # atno 17395 bound_to 11000

$$$$
