AV-unprocessed.smi:2856|AV-procd|sdf|10996|dock2
  -GOLD-   2272015453D 1   1.00000     0.00000
 Structure written by MMmdl.
 37 38  0  0  0  0  0  0  0  0  1 V2000
  148.4447  141.2606  153.5231 C   0  0  0  0  0  0  0  0  0  0  0  0
  148.3489  139.4785  153.8468 S   0  0  0  0  0  0  0  0  0  0  0  0
  150.0243  139.1460  154.4799 C   0  0  1  0  0  0  0  0  0  0  0  0
  150.5399  140.3813  155.2418 C   0  0  0  0  0  0  0  0  0  0  0  0
  151.9408  140.1497  155.8262 C   0  0  0  0  0  0  0  0  0  0  0  0
  151.9553  138.9162  156.7391 C   0  0  0  0  0  0  0  0  0  0  0  0
  151.4616  137.6710  155.9885 C   0  0  0  0  0  0  0  0  0  0  0  0
  150.0603  137.8852  155.3787 C   0  0  2  0  0  0  0  0  0  0  0  0
  149.6827  136.7033  154.6076 N   0  0  0  0  0  0  0  0  0  0  0  0
  149.7045  135.4402  155.0558 C   0  0  0  0  0  0  0  0  0  0  0  0
  150.0980  135.1209  156.1779 O   0  0  0  0  0  0  0  0  0  0  0  0
  149.2401  134.5891  154.1257 N   0  0  0  0  0  0  0  0  0  0  0  0
  149.0739  133.1859  154.2428 C   0  0  0  0  0  0  0  0  0  0  0  0
  148.2260  132.4769  153.3507 C   0  0  0  0  0  0  0  0  0  0  0  0
  148.3302  131.1863  153.7878 C   0  0  0  0  0  0  0  0  0  0  0  0
  147.7163  129.9079  153.3293 C   0  0  0  0  0  0  0  0  0  0  0  0
  149.1711  131.1138  154.8551 O   0  0  0  0  0  0  0  0  0  0  0  0
  149.6456  132.3993  155.1418 N   0  0  0  0  0  0  0  0  0  0  0  0
  147.4893  141.6220  153.1435 H   0  0  0  0  0  0  0  0  0  0  0  0
  149.2118  141.4830  152.7823 H   0  0  0  0  0  0  0  0  0  0  0  0
  148.6776  141.8024  154.4398 H   0  0  0  0  0  0  0  0  0  0  0  0
  150.6805  138.9909  153.6224 H   0  0  0  0  0  0  0  0  0  0  0  0
  150.5595  141.2456  154.5769 H   0  0  0  0  0  0  0  0  0  0  0  0
  149.8491  140.6300  156.0488 H   0  0  0  0  0  0  0  0  0  0  0  0
  152.6594  140.0173  155.0163 H   0  0  0  0  0  0  0  0  0  0  0  0
  152.2611  141.0296  156.3848 H   0  0  0  0  0  0  0  0  0  0  0  0
  152.9628  138.7464  157.1199 H   0  0  0  0  0  0  0  0  0  0  0  0
  151.3214  139.0956  157.6085 H   0  0  0  0  0  0  0  0  0  0  0  0
  152.1730  137.4232  155.1993 H   0  0  0  0  0  0  0  0  0  0  0  0
  151.4475  136.8184  156.6685 H   0  0  0  0  0  0  0  0  0  0  0  0
  149.3475  138.0329  156.1927 H   0  0  0  0  0  0  0  0  0  0  0  0
  149.3485  136.8668  153.6695 H   0  0  0  0  0  0  0  0  0  0  0  0
  148.9549  134.9911  153.2452 H   0  0  0  0  0  0  0  0  0  0  0  0
  147.6359  132.8502  152.5270 H   0  0  0  0  0  0  0  0  0  0  0  0
  147.3024  130.0128  152.3261 H   0  0  0  0  0  0  0  0  0  0  0  0
  146.9106  129.6051  153.9982 H   0  0  0  0  0  0  0  0  0  0  0  0
  148.4569  129.1083  153.3065 H   0  0  0  0  0  0  0  0  0  0  0  0
  1  2  1  0  0  0  0
  1 19  1  0  0  0  0
  1 20  1  0  0  0  0
  1 21  1  0  0  0  0
  2  3  1  0  0  0  0
  3  8  1  0  0  0  0
  3  4  1  0  0  0  0
  3 22  1  0  0  0  0
  4  5  1  0  0  0  0
  4 23  1  0  0  0  0
  4 24  1  0  0  0  0
  5  6  1  0  0  0  0
  5 25  1  0  0  0  0
  5 26  1  0  0  0  0
  6  7  1  0  0  0  0
  6 27  1  0  0  0  0
  6 28  1  0  0  0  0
  7  8  1  0  0  0  0
  7 29  1  0  0  0  0
  7 30  1  0  0  0  0
  8  9  1  0  0  0  0
  8 31  1  0  0  0  0
  9 10  1  0  0  0  0
  9 32  1  0  0  0  0
 10 11  2  0  0  0  0
 10 12  1  0  0  0  0
 12 13  1  0  0  0  0
 12 33  1  0  0  0  0
 13 18  2  0  0  0  0
 13 14  1  0  0  0  0
 14 15  2  0  0  0  0
 14 34  1  0  0  0  0
 15 16  1  0  0  0  0
 15 17  1  0  0  0  0
 16 35  1  0  0  0  0
 16 36  1  0  0  0  0
 16 37  1  0  0  0  0
 17 18  1  0  0  0  0
M  END
> <s_m_source_file>
AV-unprocessed.smi

> <i_m_source_file_index>
2856

> <i_lp_mmshare_version>
43012

> <i_f3d_flags>
0

> <s_epik_input>
W0NIM11TW0NAQEhdMVtDSDJdW0NIMl1bQ0gyXVtDSDJdW0NASF0xW05IXUMoPU8pW05IXWMyW2NIXWMoW0NIM10pb24y

> <s_epik_cmdline>
J2VwaWtfcHl0aG9uJywgJy1waCcsICc3LjAnLCAnLXRuJywgJzgnLCAnLW1hJywgJzIwMCcsICctbWV0YWxfYmluZGluZycsICctaW1hZScsICc8aW5maWxlLm1hZT4nLCAnLW9tYWUnLCAnPG91dGZpbGUubWFlPic=

> <r_lp_tautomer_probability>
1

> <r_epik_Ionization_Penalty>
2.20874e-05

> <r_epik_Ionization_Penalty_Charging>
0

> <r_epik_Ionization_Penalty_Neutral>
2.20874e-05

> <r_epik_State_Penalty>
-0

> <r_epik_Charging_Adjusted_Penalty>
0

> <i_epik_Tot_Q>
0

> <i_epik_Tot_abs_Q>
0

> <r_epik_Metal_State_Penalty>
-0

> <b_epik_Metal_Only>
0

> <s_lp_Force_Field>
OPLS_2005

> <r_lp_Energy>
6.82526

> <b_lp_Chiralities_Consistent>
1

> <s_lp_Variant>
AV-unprocessed.smi:2856-4

> <Gold.Version>
5.8.1

> <Gold.Id.Protein>
6NUR|6NUR_protein|mol2

> <Gold.PLP.Fitness>
34.7999

> <Gold.PLP.PLP>
-29.7816

> <Gold.PLP.part.hbond>
-2.0000

> <Gold.PLP.part.metal>
0.0000

> <Gold.PLP.part.buried>
-1.7075

> <Gold.PLP.part.nonpolar>
-25.3086

> <Gold.PLP.part.repulsive>
0.1149

> <Gold.PLP.ligand.clash>
0.0000

> <Gold.PLP.ligand.torsion>
0.4138

> <Gold.PLP.Chemscore.Hbond>
1.9440

> <Gold.PLP.Chemscore.CHOScore>
0.0000

> <Gold.PLP.Chemscore.Metal>
0.0000

> <Gold.Chemscore.Hbonds>
donor molecule, donor type, donor heavy atom, donor atom, acceptor molecule, acceptor atom, score
      L1  H     9    32       P1  7948  1.00
      L1  H    12    33       P1  7948  1.00

> <Gold.PLP.Chemscore.Internal.Correction>
0.0140

> <Gold.Rescore>
     Score         DG    S(hbond)    S(metal)    S(lipo)     H(rot)  DE(clash)    DE(int)     intcor
     13.33     -15.24       1.54        0.00      65.99       1.21       0.15       1.77       ----

> <Gold.Chemscore.Fitness>
13.3256

> <Gold.Chemscore.DG>
-15.2440

> <Gold.Chemscore.ZeroCoef>
-5.4800

> <Gold.Chemscore.Hbond>
1.5400

> <Gold.Chemscore.Metal>
0.0000

> <Gold.Chemscore.Lipo>
65.9863

> <Gold.Chemscore.Internal_Hbond>
0.0000

> <Gold.Chemscore.DEClash>
0.1519

> <Gold.Chemscore.DEInternal>
1.7664

> <Gold.Chemscore.Rot>
1.2109

> <Gold.Chemscore.Internal.Correction>
   9.000000E+99

> <Gold.Chemscore.Hbonds>
donor molecule, donor type, donor heavy atom, donor atom, acceptor molecule, acceptor atom, score
      L1  H     9    32       P1  7948  0.90
      L1  H    12    33       P1  7948  0.25

> <Gold.Chemscore.Hbond.Weighted>
-5.1436

> <Gold.Chemscore.Metal.Weighted>
-0.0000

> <Gold.Chemscore.Lipo.Weighted>
-7.7204

> <Gold.Chemscore.Internal_Hbond.Weighted>
0.0000

> <Gold.Chemscore.DEClash.Weighted>
0.1519

> <Gold.Chemscore.DEInternal.Weighted>
1.7664

> <Gold.Chemscore.Rot.Weighted>
3.1000

> <Gold.Chemscore.Internal.Correction.Weighted>
   9.000000E+99

> <Gold.Protein.RotatedTorsions>
[ 6907 6896 6895 6894 ] final  -58.99 input  -60.11 | X-H torsion
[ 7974 7965 7964 7962 ] final  170.75 input  175.53 | X-H torsion
[ 8008 7997 7996 7995 ] final -146.78 input   59.86 | X-H torsion
[ 10167 10162 10161 10158 ] final   62.33 input  -65.29 | X-H torsion
[ 10718 10713 10712 10709 ] final  170.78 input   66.30 | X-H torsion
[ 10763 10752 10751 10750 ] final  136.94 input  -60.55 | X-H torsion
[ 11005 11000 10999 10996 ] final   -9.74 input  -57.11 | X-H torsion

> <Gold.Protein.ActiveResidues>
 VAL166  LYS551  ARG553  GLY616  TRP617  ASP618  TYR619  PRO620  LYS621  CYS622 
 ASP623  PHE694  ASN695  SER759  ASP760  ASP761  ALA762  ILE779  LEU786  VAL792 
 PHE793  MET794  SER795  GLU796  ALA797  LYS798  CYS799  TRP800  GLU811  SER814 

> <Gold.Protein.RotatedAtoms>
  150.7964  134.7027  159.6558 H   0  0  0  0  0  0  0  0  0  0  0  0  # atno 6907 bound_to 6896
  152.4077  134.6175  160.0052 H   0  0  0  0  0  0  0  0  0  0  0  0  # atno 6908 bound_to 6896
  151.6427  133.3288  159.3170 H   0  0  0  0  0  0  0  0  0  0  0  0  # atno 6909 bound_to 6896
  144.7315  139.9247  143.6422 H   0  0  0  0  0  0  0  0  0  0  0  0  # atno 7974 bound_to 7965
  155.5649  140.0629  157.2820 H   0  0  0  0  0  0  0  0  0  0  0  0  # atno 8008 bound_to 7997
  154.4379  140.1879  156.0866 H   0  0  0  0  0  0  0  0  0  0  0  0  # atno 8009 bound_to 7997
  156.0419  140.3294  155.7257 H   0  0  0  0  0  0  0  0  0  0  0  0  # atno 8010 bound_to 7997
  140.1451  144.4517  150.6790 H   0  0  0  0  0  0  0  0  0  0  0  0  # atno 10167 bound_to 10162
  157.0031  131.0182  151.2825 H   0  0  0  0  0  0  0  0  0  0  0  0  # atno 10718 bound_to 10713
  153.8648  135.3063  155.3439 H   0  0  0  0  0  0  0  0  0  0  0  0  # atno 10763 bound_to 10752
  154.7832  135.4824  153.9893 H   0  0  0  0  0  0  0  0  0  0  0  0  # atno 10764 bound_to 10752
  153.1440  135.6830  153.9078 H   0  0  0  0  0  0  0  0  0  0  0  0  # atno 10765 bound_to 10752
  140.7373  133.8699  155.8940 H   0  0  0  0  0  0  0  0  0  0  0  0  # atno 11005 bound_to 11000
  146.0902  139.3892  143.0410 LP  0  0  0  0  0  0  0  0  0  0  0  0  # atno 17320 bound_to 7965
  145.7721  140.9892  143.1144 LP  0  0  0  0  0  0  0  0  0  0  0  0  # atno 17321 bound_to 7965
  140.6737  143.2296  151.5561 LP  0  0  0  0  0  0  0  0  0  0  0  0  # atno 17342 bound_to 10162
  139.5453  144.2538  152.1430 LP  0  0  0  0  0  0  0  0  0  0  0  0  # atno 17343 bound_to 10162
  157.5376  130.8098  149.7990 LP  0  0  0  0  0  0  0  0  0  0  0  0  # atno 17370 bound_to 10713
  156.0164  130.3812  150.2099 LP  0  0  0  0  0  0  0  0  0  0  0  0  # atno 17371 bound_to 10713
  140.9868  134.1332  157.4445 LP  0  0  0  0  0  0  0  0  0  0  0  0  # atno 17394 bound_to 11000
  139.8813  135.0028  156.6147 LP  0  0  0  0  0  0  0  0  0  0  0  0  # atno 17395 bound_to 11000

$$$$
