AV-unprocessed.smi:1923|AV-procd|sdf|7789|dock5
  -GOLD-   22720 9533D 1   1.00000     0.00000
 Structure written by MMmdl.
 55 57  0  0  0  0  0  0  0  0  2 V2000
  146.3297  132.0183  151.6130 C   0  0  0  0  0  0  0  0  0  0  0  0
  145.7946  133.4255  151.9127 C   0  0  2  0  0  0  0  0  0  0  0  0
  145.8272  134.3252  150.6661 C   0  0  0  0  0  0  0  0  0  0  0  0
  145.3191  135.7416  150.9855 C   0  0  0  0  0  0  0  0  0  0  0  0
  146.1012  136.3598  152.0877 N   0  3  1  0  0  0  0  0  0  0  0  0
  145.7138  137.7739  152.3239 C   0  0  0  0  0  0  0  0  0  0  0  0
  146.7671  138.7671  151.8062 C   0  0  0  0  0  0  0  0  0  0  0  0
  147.9758  138.7013  152.6166 N   0  0  0  0  0  0  0  0  0  0  0  0
  148.2504  139.5379  153.6263 C   0  0  0  0  0  0  0  0  0  0  0  0
  147.4950  140.4450  153.9740 O   0  0  0  0  0  0  0  0  0  0  0  0
  149.4290  139.2401  154.1999 N   0  0  0  0  0  0  0  0  0  0  0  0
  150.0854  139.8999  155.2744 C   0  0  0  0  0  0  0  0  0  0  0  0
  149.4959  140.9036  156.0775 C   0  0  0  0  0  0  0  0  0  0  0  0
  150.2609  141.4954  157.1008 C   0  0  0  0  0  0  0  0  0  0  0  0
  151.5996  141.0804  157.2949 C   0  0  0  0  0  0  0  0  0  0  0  0
  152.3841  141.6629  158.3143 N   0  0  0  0  0  0  0  0  0  0  0  0
  151.8962  142.8920  158.9381 C   0  0  0  0  0  0  0  0  0  0  0  0
  152.9988  143.5303  159.7996 C   0  0  0  0  0  0  0  0  0  0  0  0
  153.4732  142.5826  160.7503 O   0  0  0  0  0  0  0  0  0  0  0  0
  154.0453  141.4415  160.1199 C   0  0  0  0  0  0  0  0  0  0  0  0
  152.9821  140.7291  159.2658 C   0  0  0  0  0  0  0  0  0  0  0  0
  152.1623  140.1215  156.5193 N   0  0  0  0  0  0  0  0  0  0  0  0
  151.4264  139.5580  155.5390 C   0  0  0  0  0  0  0  0  0  0  0  0
  146.0579  135.5246  153.3180 C   0  0  0  0  0  0  0  0  0  0  0  0
  146.5821  134.1045  153.0454 C   0  0  0  0  0  0  0  0  0  0  0  0
  147.3697  132.0495  151.2862 H   0  0  0  0  0  0  0  0  0  0  0  0
  145.7480  131.5365  150.8266 H   0  0  0  0  0  0  0  0  0  0  0  0
  146.2778  131.3822  152.4971 H   0  0  0  0  0  0  0  0  0  0  0  0
  144.7564  133.3244  152.2329 H   0  0  0  0  0  0  0  0  0  0  0  0
  146.8449  134.3827  150.2768 H   0  0  0  0  0  0  0  0  0  0  0  0
  145.2184  133.8877  149.8740 H   0  0  0  0  0  0  0  0  0  0  0  0
  145.3958  136.3565  150.0877 H   0  0  0  0  0  0  0  0  0  0  0  0
  144.2632  135.7103  151.2594 H   0  0  0  0  0  0  0  0  0  0  0  0
  144.7758  137.9791  151.8056 H   0  0  0  0  0  0  0  0  0  0  0  0
  145.5196  137.9309  153.3862 H   0  0  0  0  0  0  0  0  0  0  0  0
  147.0326  138.5526  150.7709 H   0  0  0  0  0  0  0  0  0  0  0  0
  146.3704  139.7834  151.8344 H   0  0  0  0  0  0  0  0  0  0  0  0
  148.6447  137.9780  152.3961 H   0  0  0  0  0  0  0  0  0  0  0  0
  149.8951  138.4139  153.8547 H   0  0  0  0  0  0  0  0  0  0  0  0
  148.4822  141.2401  155.9268 H   0  0  0  0  0  0  0  0  0  0  0  0
  149.8090  142.2496  157.7274 H   0  0  0  0  0  0  0  0  0  0  0  0
  151.5772  143.6030  158.1748 H   0  0  0  0  0  0  0  0  0  0  0  0
  151.0264  142.6629  159.5553 H   0  0  0  0  0  0  0  0  0  0  0  0
  153.8238  143.8825  159.1783 H   0  0  0  0  0  0  0  0  0  0  0  0
  152.6062  144.3985  160.3289 H   0  0  0  0  0  0  0  0  0  0  0  0
  154.8985  141.7398  159.5084 H   0  0  0  0  0  0  0  0  0  0  0  0
  154.4246  140.7658  160.8867 H   0  0  0  0  0  0  0  0  0  0  0  0
  152.1953  140.3294  159.9070 H   0  0  0  0  0  0  0  0  0  0  0  0
  153.4434  139.8795  158.7646 H   0  0  0  0  0  0  0  0  0  0  0  0
  151.9271  138.8045  154.9486 H   0  0  0  0  0  0  0  0  0  0  0  0
  146.6615  135.9733  154.1056 H   0  0  0  0  0  0  0  0  0  0  0  0
  145.0343  135.4791  153.6933 H   0  0  0  0  0  0  0  0  0  0  0  0
  146.5140  133.5083  153.9563 H   0  0  0  0  0  0  0  0  0  0  0  0
  147.6409  134.1509  152.7857 H   0  0  0  0  0  0  0  0  0  0  0  0
  147.0615  136.3750  151.7746 H   0  0  0  0  0  0  0  0  0  0  0  0
  1  2  1  0  0  0  0
  1 26  1  0  0  0  0
  1 27  1  0  0  0  0
  1 28  1  0  0  0  0
  2 25  1  0  0  0  0
  2  3  1  0  0  0  0
  2 29  1  0  0  0  0
  3  4  1  0  0  0  0
  3 30  1  0  0  0  0
  3 31  1  0  0  0  0
  4  5  1  0  0  0  0
  4 32  1  0  0  0  0
  4 33  1  0  0  0  0
  5  6  1  0  0  0  0
  5 24  1  0  0  0  0
  5 55  1  0  0  0  0
  6  7  1  0  0  0  0
  6 34  1  0  0  0  0
  6 35  1  0  0  0  0
  7  8  1  0  0  0  0
  7 36  1  0  0  0  0
  7 37  1  0  0  0  0
  8  9  1  0  0  0  0
  8 38  1  0  0  0  0
  9 10  2  0  0  0  0
  9 11  1  0  0  0  0
 11 12  1  0  0  0  0
 11 39  1  0  0  0  0
 12 23  1  0  0  0  0
 12 13  2  0  0  0  0
 13 14  1  0  0  0  0
 13 40  1  0  0  0  0
 14 15  2  0  0  0  0
 14 41  1  0  0  0  0
 15 16  1  0  0  0  0
 15 22  1  0  0  0  0
 16 21  1  0  0  0  0
 16 17  1  0  0  0  0
 17 18  1  0  0  0  0
 17 42  1  0  0  0  0
 17 43  1  0  0  0  0
 18 19  1  0  0  0  0
 18 44  1  0  0  0  0
 18 45  1  0  0  0  0
 19 20  1  0  0  0  0
 20 21  1  0  0  0  0
 20 46  1  0  0  0  0
 20 47  1  0  0  0  0
 21 48  1  0  0  0  0
 21 49  1  0  0  0  0
 22 23  2  0  0  0  0
 23 50  1  0  0  0  0
 24 25  1  0  0  0  0
 24 51  1  0  0  0  0
 24 52  1  0  0  0  0
 25 53  1  0  0  0  0
 25 54  1  0  0  0  0
M  CHG  1   5   1
M  END
> <s_m_source_file>
AV-unprocessed.smi

> <i_m_source_file_index>
1923

> <i_lp_mmshare_version>
43012

> <i_f3d_flags>
0

> <s_epik_input>
W0NIM11bQ0hdMVtDSDJdW0NIMl1OKFtDSDJdW0NIMl0xKVtDSDJdW0NIMl1bTkhdQyg9TylbTkhdYzJbY0hdW2NIXWMobltjSF0yKU4zW0NIMl1bQ0gyXU9bQ0gyXVtDSDJdMw==

> <s_epik_cmdline>
J2VwaWtfcHl0aG9uJywgJy1waCcsICc3LjAnLCAnLXRuJywgJzgnLCAnLW1hJywgJzIwMCcsICctbWV0YWxfYmluZGluZycsICctaW1hZScsICc8aW5maWxlLm1hZT4nLCAnLW9tYWUnLCAnPG91dGZpbGUubWFlPic=

> <r_lp_tautomer_probability>
1

> <r_epik_Ionization_Penalty>
0.00307683

> <r_epik_Ionization_Penalty_Charging>
0.00139388

> <r_epik_Ionization_Penalty_Neutral>
0.00168296

> <r_epik_State_Penalty>
-0

> <r_epik_Charging_Adjusted_Penalty>
0.00139388

> <i_epik_Tot_Q>
1

> <i_epik_Tot_abs_Q>
1

> <r_epik_Metal_State_Penalty>
-0

> <b_epik_Metal_Only>
0

> <s_lp_Force_Field>
OPLS_2005

> <r_lp_Energy>
34.4311

> <b_lp_Chiralities_Consistent>
1

> <s_lp_Variant>
AV-unprocessed.smi:1923-1

> <Gold.Version>
5.8.1

> <Gold.Id.Protein>
6NUR|6NUR_protein|mol2

> <Gold.PLP.Fitness>
53.5668

> <Gold.PLP.PLP>
-44.4958

> <Gold.PLP.part.hbond>
-4.0595

> <Gold.PLP.part.metal>
0.0000

> <Gold.PLP.part.buried>
-2.2462

> <Gold.PLP.part.nonpolar>
-38.7914

> <Gold.PLP.part.repulsive>
0.3094

> <Gold.PLP.ligand.clash>
0.0000

> <Gold.PLP.ligand.torsion>
1.0925

> <Gold.PLP.Chemscore.Hbond>
3.6258

> <Gold.PLP.Chemscore.CHOScore>
0.0000

> <Gold.PLP.Chemscore.Metal>
0.0000

> <Gold.Chemscore.Hbonds>
donor molecule, donor type, donor heavy atom, donor atom, acceptor molecule, acceptor atom, score
      L1  H     5    55       P1  7948  2.00
      L1  H     8    38       P1  7948  0.98
      P1  H  7997  8009       L1    22  0.65

> <Gold.PLP.Chemscore.Internal.Correction>
0.3788

> <Gold.Rescore>
     Score         DG    S(hbond)    S(metal)    S(lipo)     H(rot)  DE(clash)    DE(int)     intcor
     19.63     -21.96       2.40        0.00     107.36       1.60       0.06       2.27       ----

> <Gold.Chemscore.Fitness>
19.6296

> <Gold.Chemscore.DG>
-21.9582

> <Gold.Chemscore.ZeroCoef>
-5.4800

> <Gold.Chemscore.Hbond>
2.3972

> <Gold.Chemscore.Metal>
0.0000

> <Gold.Chemscore.Lipo>
107.3622

> <Gold.Chemscore.Internal_Hbond>
0.0000

> <Gold.Chemscore.DEClash>
0.0604

> <Gold.Chemscore.DEInternal>
2.2682

> <Gold.Chemscore.Rot>
1.5976

> <Gold.Chemscore.Internal.Correction>
   9.000000E+99

> <Gold.Chemscore.Hbonds>
donor molecule, donor type, donor heavy atom, donor atom, acceptor molecule, acceptor atom, score
      L1  H     5    55       P1  7948  1.00
      L1  H     8    38       P1  7948  0.93
      P1  H  7997  8009       L1    22  0.57

> <Gold.Chemscore.Hbond.Weighted>
-8.0068

> <Gold.Chemscore.Metal.Weighted>
-0.0000

> <Gold.Chemscore.Lipo.Weighted>
-12.5614

> <Gold.Chemscore.Internal_Hbond.Weighted>
0.0000

> <Gold.Chemscore.DEClash.Weighted>
0.0604

> <Gold.Chemscore.DEInternal.Weighted>
2.2682

> <Gold.Chemscore.Rot.Weighted>
4.0899

> <Gold.Chemscore.Internal.Correction.Weighted>
   9.000000E+99

> <Gold.Protein.RotatedTorsions>
[ 6907 6896 6895 6894 ] final  -20.82 input  -60.11 | X-H torsion
[ 7974 7965 7964 7962 ] final  -76.10 input  175.53 | X-H torsion
[ 8008 7997 7996 7995 ] final -170.13 input   59.86 | X-H torsion
[ 10167 10162 10161 10158 ] final -164.01 input  -65.29 | X-H torsion
[ 10718 10713 10712 10709 ] final   -7.01 input   66.30 | X-H torsion
[ 10763 10752 10751 10750 ] final  -86.73 input  -60.55 | X-H torsion
[ 11005 11000 10999 10996 ] final  104.52 input  -57.11 | X-H torsion

> <Gold.Protein.ActiveResidues>
 VAL166  LYS551  ARG553  GLY616  TRP617  ASP618  TYR619  PRO620  LYS621  CYS622 
 ASP623  PHE694  ASN695  SER759  ASP760  ASP761  ALA762  ILE779  LEU786  VAL792 
 PHE793  MET794  SER795  GLU796  ALA797  LYS798  CYS799  TRP800  GLU811  SER814 

> <Gold.Protein.RotatedAtoms>
  151.2424  135.0593  159.9029 H   0  0  0  0  0  0  0  0  0  0  0  0  # atno 6907 bound_to 6896
  152.5391  134.0420  159.8082 H   0  0  0  0  0  0  0  0  0  0  0  0  # atno 6908 bound_to 6896
  151.0615  133.5491  159.2665 H   0  0  0  0  0  0  0  0  0  0  0  0  # atno 6909 bound_to 6896
  145.6173  140.9372  143.1157 H   0  0  0  0  0  0  0  0  0  0  0  0  # atno 7974 bound_to 7965
  155.9142  140.1063  157.1256 H   0  0  0  0  0  0  0  0  0  0  0  0  # atno 8008 bound_to 7997
  154.4044  140.1268  156.4661 H   0  0  0  0  0  0  0  0  0  0  0  0  # atno 8009 bound_to 7997
  155.7274  140.3469  155.5046 H   0  0  0  0  0  0  0  0  0  0  0  0  # atno 8010 bound_to 7997
  139.6280  144.0494  152.1992 H   0  0  0  0  0  0  0  0  0  0  0  0  # atno 10167 bound_to 10162
  156.7235  130.5158  149.5862 H   0  0  0  0  0  0  0  0  0  0  0  0  # atno 10718 bound_to 10713
  154.6258  135.5438  153.7625 H   0  0  0  0  0  0  0  0  0  0  0  0  # atno 10763 bound_to 10752
  153.0260  135.6424  154.1374 H   0  0  0  0  0  0  0  0  0  0  0  0  # atno 10764 bound_to 10752
  154.1306  135.2914  155.3166 H   0  0  0  0  0  0  0  0  0  0  0  0  # atno 10765 bound_to 10752
  139.8793  134.9303  156.5374 H   0  0  0  0  0  0  0  0  0  0  0  0  # atno 11005 bound_to 11000
  144.7245  139.7920  143.7370 LP  0  0  0  0  0  0  0  0  0  0  0  0  # atno 17320 bound_to 7965
  146.1458  139.4527  143.0080 LP  0  0  0  0  0  0  0  0  0  0  0  0  # atno 17321 bound_to 7965
  140.0152  144.6194  150.7613 LP  0  0  0  0  0  0  0  0  0  0  0  0  # atno 17342 bound_to 10162
  140.7422  143.2829  151.3546 LP  0  0  0  0  0  0  0  0  0  0  0  0  # atno 17343 bound_to 10162
  156.1578  130.6353  151.0680 LP  0  0  0  0  0  0  0  0  0  0  0  0  # atno 17370 bound_to 10713
  157.6888  131.0816  150.7166 LP  0  0  0  0  0  0  0  0  0  0  0  0  # atno 17371 bound_to 10713
  140.8336  133.8260  155.9007 LP  0  0  0  0  0  0  0  0  0  0  0  0  # atno 17394 bound_to 11000
  140.9305  134.2027  157.4867 LP  0  0  0  0  0  0  0  0  0  0  0  0  # atno 17395 bound_to 11000

$$$$
