AV-unprocessed.smi:2722|AV-procd|sdf|10505|dock4
  -GOLD-   2272014543D 1   1.00000     0.00000
 Structure written by MMmdl.
 27 27  0  0  0  0  0  0  0  0  2 V2000
  155.0601  139.1334  158.1902 C   0  0  0  0  0  0  0  0  0  0  0  0
  153.6207  138.5721  158.1449 C   0  0  2  0  0  0  0  0  0  0  0  0
  153.0859  138.9775  156.8972 O   0  0  0  0  0  0  0  0  0  0  0  0
  152.7021  139.1930  159.2439 C   0  0  0  0  0  0  0  0  0  0  0  0
  152.9383  140.6184  159.5527 N   0  0  0  0  0  0  0  0  0  0  0  0
  152.0344  141.5557  159.0108 C   0  0  0  0  0  0  0  0  0  0  0  0
  152.1469  142.8837  159.2024 C   0  0  0  0  0  0  0  0  0  0  0  0
  151.1184  143.8577  158.6494 C   0  0  0  0  0  0  0  0  0  0  0  0
  151.0881  143.8237  157.3168 F   0  0  0  0  0  0  0  0  0  0  0  0
  149.9055  143.5393  159.1000 F   0  0  0  0  0  0  0  0  0  0  0  0
  151.3868  145.1069  159.0309 F   0  0  0  0  0  0  0  0  0  0  0  0
  153.2502  143.3235  160.0327 C   0  0  0  0  0  0  0  0  0  0  0  0
  154.1330  142.4446  160.5452 C   0  0  0  0  0  0  0  0  0  0  0  0
  154.0204  141.0062  160.2918 C   0  0  0  0  0  0  0  0  0  0  0  0
  154.8536  140.2047  160.7150 O   0  0  0  0  0  0  0  0  0  0  0  0
  153.6279  137.0253  158.2044 C   0  0  0  0  0  0  0  0  0  0  0  0
  154.0493  136.4708  159.2444 O   0  0  0  0  0  0  0  0  0  0  0  0
  153.1773  136.4143  157.2092 O   0  5  0  0  0  0  0  0  0  0  0  0
  155.5790  138.8595  159.1088 H   0  0  0  0  0  0  0  0  0  0  0  0
  155.0617  140.2222  158.1299 H   0  0  0  0  0  0  0  0  0  0  0  0
  155.6597  138.7614  157.3580 H   0  0  0  0  0  0  0  0  0  0  0  0
  153.1993  138.2714  156.2806 H   0  0  0  0  0  0  0  0  0  0  0  0
  151.6550  139.0337  158.9804 H   0  0  0  0  0  0  0  0  0  0  0  0
  152.8236  138.6237  160.1678 H   0  0  0  0  0  0  0  0  0  0  0  0
  151.2309  141.1223  158.4329 H   0  0  0  0  0  0  0  0  0  0  0  0
  153.3746  144.3748  160.2460 H   0  0  0  0  0  0  0  0  0  0  0  0
  154.9447  142.8074  161.1584 H   0  0  0  0  0  0  0  0  0  0  0  0
  1  2  1  0  0  0  0
  1 19  1  0  0  0  0
  1 20  1  0  0  0  0
  1 21  1  0  0  0  0
  2  3  1  0  0  0  0
  2  4  1  0  0  0  0
  2 16  1  0  0  0  0
  3 22  1  0  0  0  0
  4  5  1  0  0  0  0
  4 23  1  0  0  0  0
  4 24  1  0  0  0  0
  5 14  1  0  0  0  0
  5  6  1  0  0  0  0
  6  7  2  0  0  0  0
  6 25  1  0  0  0  0
  7  8  1  0  0  0  0
  7 12  1  0  0  0  0
  8  9  1  0  0  0  0
  8 10  1  0  0  0  0
  8 11  1  0  0  0  0
 12 13  2  0  0  0  0
 12 26  1  0  0  0  0
 13 14  1  0  0  0  0
 13 27  1  0  0  0  0
 14 15  2  0  0  0  0
 16 17  2  0  0  0  0
 16 18  1  0  0  0  0
M  CHG  1  18  -1
M  END
> <s_m_source_file>
AV-unprocessed.smi

> <i_m_source_file_index>
2722

> <i_lp_mmshare_version>
43012

> <i_f3d_flags>
0

> <s_epik_input>
Tz1DKFtPSF0pW0NAXShbQ0gzXSkoW09IXSlbQ0gyXW4xW2NIXWMoQyhGKShGKUYpW2NIXVtjSF1jMT1P

> <s_epik_cmdline>
J2VwaWtfcHl0aG9uJywgJy1waCcsICc3LjAnLCAnLXRuJywgJzgnLCAnLW1hJywgJzIwMCcsICctbWV0YWxfYmluZGluZycsICctaW1hZScsICc8aW5maWxlLm1hZT4nLCAnLW9tYWUnLCAnPG91dGZpbGUubWFlPic=

> <r_lp_tautomer_probability>
1

> <r_epik_Ionization_Penalty>
0.000391429

> <r_epik_Ionization_Penalty_Charging>
0.000383902

> <r_epik_Ionization_Penalty_Neutral>
7.52792e-06

> <r_epik_State_Penalty>
0.000234534

> <r_epik_Charging_Adjusted_Penalty>
0.000618436

> <i_epik_Tot_Q>
-1

> <i_epik_Tot_abs_Q>
1

> <r_epik_Metal_State_Penalty>
-0

> <b_epik_Metal_Only>
0

> <s_lp_Force_Field>
OPLS_2005

> <r_lp_Energy>
14.9238

> <b_lp_Chiralities_Consistent>
1

> <s_lp_Variant>
AV-unprocessed.smi:2722-2

> <Gold.Version>
5.8.1

> <Gold.Id.Protein>
6NUR|6NUR_protein|mol2

> <Gold.PLP.Fitness>
49.3454

> <Gold.PLP.PLP>
-36.2350

> <Gold.PLP.part.hbond>
-3.0000

> <Gold.PLP.part.metal>
0.0000

> <Gold.PLP.part.buried>
-2.5218

> <Gold.PLP.part.nonpolar>
-31.7404

> <Gold.PLP.part.repulsive>
0.0000

> <Gold.PLP.ligand.clash>
0.0000

> <Gold.PLP.ligand.torsion>
0.5601

> <Gold.PLP.Chemscore.Hbond>
4.6640

> <Gold.PLP.Chemscore.CHOScore>
0.0000

> <Gold.PLP.Chemscore.Metal>
0.0000

> <Gold.Chemscore.Hbonds>
donor molecule, donor type, donor heavy atom, donor atom, acceptor molecule, acceptor atom, score
      P1  H  7997  8010       L1     3  0.55
      P1  H 10752 10765       L1    18  1.33

> <Gold.PLP.Chemscore.Internal.Correction>
0.2385

> <Gold.Rescore>
     Score         DG    S(hbond)    S(metal)    S(lipo)     H(rot)  DE(clash)    DE(int)     intcor
     11.85     -15.04       2.59        0.00      65.55       2.63       0.07       3.11       ----

> <Gold.Chemscore.Fitness>
11.8527

> <Gold.Chemscore.DG>
-15.0410

> <Gold.Chemscore.ZeroCoef>
-5.4800

> <Gold.Chemscore.Hbond>
2.5860

> <Gold.Chemscore.Metal>
0.0000

> <Gold.Chemscore.Lipo>
65.5452

> <Gold.Chemscore.Internal_Hbond>
0.0000

> <Gold.Chemscore.DEClash>
0.0743

> <Gold.Chemscore.DEInternal>
3.1140

> <Gold.Chemscore.Rot>
2.6348

> <Gold.Chemscore.Internal.Correction>
   9.000000E+99

> <Gold.Chemscore.Hbonds>
donor molecule, donor type, donor heavy atom, donor atom, acceptor molecule, acceptor atom, score
      P1  H  7997  8010       L1     3  0.02
      P1  H 10752 10765       L1    18  0.67

> <Gold.Chemscore.Hbond.Weighted>
-8.6373

> <Gold.Chemscore.Metal.Weighted>
-0.0000

> <Gold.Chemscore.Lipo.Weighted>
-7.6688

> <Gold.Chemscore.Internal_Hbond.Weighted>
0.0000

> <Gold.Chemscore.DEClash.Weighted>
0.0743

> <Gold.Chemscore.DEInternal.Weighted>
3.1140

> <Gold.Chemscore.Rot.Weighted>
6.7451

> <Gold.Chemscore.Internal.Correction.Weighted>
   9.000000E+99

> <Gold.Protein.RotatedTorsions>
[ 6907 6896 6895 6894 ] final  158.90 input  -60.11 | X-H torsion
[ 7974 7965 7964 7962 ] final   30.29 input  175.53 | X-H torsion
[ 8008 7997 7996 7995 ] final   58.75 input   59.86 | X-H torsion
[ 10167 10162 10161 10158 ] final    1.87 input  -65.29 | X-H torsion
[ 10718 10713 10712 10709 ] final  -76.61 input   66.30 | X-H torsion
[ 10763 10752 10751 10750 ] final -120.85 input  -60.55 | X-H torsion
[ 11005 11000 10999 10996 ] final  -82.34 input  -57.11 | X-H torsion

> <Gold.Protein.ActiveResidues>
 VAL166  LYS551  ARG553  GLY616  TRP617  ASP618  TYR619  PRO620  LYS621  CYS622 
 ASP623  PHE694  ASN695  SER759  ASP760  ASP761  ALA762  ILE779  LEU786  VAL792 
 PHE793  MET794  SER795  GLU796  ALA797  LYS798  CYS799  TRP800  GLU811  SER814 

> <Gold.Protein.RotatedAtoms>
  151.9936  133.3799  159.4153 H   0  0  0  0  0  0  0  0  0  0  0  0  # atno 6907 bound_to 6896
  150.6918  134.3910  159.5086 H   0  0  0  0  0  0  0  0  0  0  0  0  # atno 6908 bound_to 6896
  152.1647  134.8883  160.0589 H   0  0  0  0  0  0  0  0  0  0  0  0  # atno 6909 bound_to 6896
  146.1621  139.6808  142.9026 H   0  0  0  0  0  0  0  0  0  0  0  0  # atno 7974 bound_to 7965
  155.5550  140.3487  155.4477 H   0  0  0  0  0  0  0  0  0  0  0  0  # atno 8008 bound_to 7997
  156.0556  140.1328  157.0026 H   0  0  0  0  0  0  0  0  0  0  0  0  # atno 8009 bound_to 7997
  154.4455  140.0996  156.6425 H   0  0  0  0  0  0  0  0  0  0  0  0  # atno 8010 bound_to 7997
  140.6662  143.7172  150.7832 H   0  0  0  0  0  0  0  0  0  0  0  0  # atno 10167 bound_to 10162
  156.0170  130.4470  150.3220 H   0  0  0  0  0  0  0  0  0  0  0  0  # atno 10718 bound_to 10713
  154.8654  135.4188  154.2525 H   0  0  0  0  0  0  0  0  0  0  0  0  # atno 10763 bound_to 10752
  153.3469  135.6996  153.6826 H   0  0  0  0  0  0  0  0  0  0  0  0  # atno 10764 bound_to 10752
  153.5782  135.3578  155.2837 H   0  0  0  0  0  0  0  0  0  0  0  0  # atno 10765 bound_to 10752
  141.1663  133.7240  156.8557 H   0  0  0  0  0  0  0  0  0  0  0  0  # atno 11005 bound_to 11000
  145.4562  141.0431  143.2777 LP  0  0  0  0  0  0  0  0  0  0  0  0  # atno 17320 bound_to 7965
  144.8041  139.6085  143.7059 LP  0  0  0  0  0  0  0  0  0  0  0  0  # atno 17321 bound_to 7965
  140.0850  143.4932  152.2510 LP  0  0  0  0  0  0  0  0  0  0  0  0  # atno 17342 bound_to 10162
  139.5912  144.7550  151.3396 LP  0  0  0  0  0  0  0  0  0  0  0  0  # atno 17343 bound_to 10162
  157.1320  131.0274  151.2965 LP  0  0  0  0  0  0  0  0  0  0  0  0  # atno 17370 bound_to 10713
  157.4543  130.7616  149.7179 LP  0  0  0  0  0  0  0  0  0  0  0  0  # atno 17371 bound_to 10713
  140.1884  134.8983  157.3031 LP  0  0  0  0  0  0  0  0  0  0  0  0  # atno 17394 bound_to 11000
  140.2317  134.3900  155.7519 LP  0  0  0  0  0  0  0  0  0  0  0  0  # atno 17395 bound_to 11000

$$$$
