AV-unprocessed.smi:1533|AV-procd|sdf|6163|dock7
  -GOLD-   22720 6313D 1   1.00000     0.00000
 Structure written by MMmdl.
 37 39  0  0  0  0  0  0  0  0  1 V2000
  154.0666  135.8900  164.2941 C   0  0  0  0  0  0  0  0  0  0  0  0
  154.2724  136.5626  162.9804 C   0  0  0  0  0  0  0  0  0  0  0  0
  154.4532  135.8571  161.8707 N   0  0  0  0  0  0  0  0  0  0  0  0
  154.5975  136.8412  160.8825 O   0  0  0  0  0  0  0  0  0  0  0  0
  154.4946  138.0295  161.5262 C   0  0  0  0  0  0  0  0  0  0  0  0
  154.5390  139.2922  160.7275 C   0  0  0  0  0  0  0  0  0  0  0  0
  154.3320  140.5703  161.5626 C   0  0  0  0  0  0  0  0  0  0  0  0
  153.9925  141.7297  160.7405 N   0  0  0  0  0  0  0  0  0  0  0  0
  153.0861  141.7465  159.7503 C   0  0  0  0  0  0  0  0  0  0  0  0
  152.4249  140.7582  159.4287 O   0  0  0  0  0  0  0  0  0  0  0  0
  152.9427  143.0768  158.9904 C   0  0  1  0  0  0  0  0  0  0  0  0
  151.8054  143.0990  157.9393 C   0  0  0  0  0  0  0  0  0  0  0  0
  151.0032  144.3564  158.3248 C   0  0  1  0  0  0  0  0  0  0  0  0
  150.2108  144.0849  159.6171 C   0  0  0  0  0  0  0  0  0  0  0  0
  151.3066  144.1092  160.6985 C   0  0  0  0  0  0  0  0  0  0  0  0
  152.5964  144.3064  159.8717 C   0  0  2  0  0  0  0  0  0  0  0  0
  152.1027  145.2916  158.8162 C   0  0  0  0  0  0  0  0  0  0  0  0
  154.2850  137.9161  162.8352 N   0  0  0  0  0  0  0  0  0  0  0  0
  154.9166  135.2485  164.5279 H   0  0  0  0  0  0  0  0  0  0  0  0
  153.1649  135.2778  164.2673 H   0  0  0  0  0  0  0  0  0  0  0  0
  153.9602  136.6254  165.0921 H   0  0  0  0  0  0  0  0  0  0  0  0
  155.5008  139.3421  160.2160 H   0  0  0  0  0  0  0  0  0  0  0  0
  153.7801  139.2340  159.9465 H   0  0  0  0  0  0  0  0  0  0  0  0
  153.5688  140.4005  162.3242 H   0  0  0  0  0  0  0  0  0  0  0  0
  155.2502  140.8016  162.1025 H   0  0  0  0  0  0  0  0  0  0  0  0
  154.4959  142.5841  160.9308 H   0  0  0  0  0  0  0  0  0  0  0  0
  153.8839  143.2758  158.4741 H   0  0  0  0  0  0  0  0  0  0  0  0
  152.2233  143.2059  156.9374 H   0  0  0  0  0  0  0  0  0  0  0  0
  151.1805  142.2048  157.9319 H   0  0  0  0  0  0  0  0  0  0  0  0
  150.3915  144.7492  157.5122 H   0  0  0  0  0  0  0  0  0  0  0  0
  149.4752  144.8694  159.7984 H   0  0  0  0  0  0  0  0  0  0  0  0
  149.6827  143.1311  159.5829 H   0  0  0  0  0  0  0  0  0  0  0  0
  151.1549  144.9592  161.3648 H   0  0  0  0  0  0  0  0  0  0  0  0
  151.3100  143.2162  161.3220 H   0  0  0  0  0  0  0  0  0  0  0  0
  153.4402  144.6689  160.4597 H   0  0  0  0  0  0  0  0  0  0  0  0
  152.8482  145.5227  158.0531 H   0  0  0  0  0  0  0  0  0  0  0  0
  151.7218  146.2246  159.2361 H   0  0  0  0  0  0  0  0  0  0  0  0
  1  2  1  0  0  0  0
  1 19  1  0  0  0  0
  1 20  1  0  0  0  0
  1 21  1  0  0  0  0
  2 18  1  0  0  0  0
  2  3  2  0  0  0  0
  3  4  1  0  0  0  0
  4  5  1  0  0  0  0
  5  6  1  0  0  0  0
  5 18  2  0  0  0  0
  6  7  1  0  0  0  0
  6 22  1  0  0  0  0
  6 23  1  0  0  0  0
  7  8  1  0  0  0  0
  7 24  1  0  0  0  0
  7 25  1  0  0  0  0
  8  9  1  0  0  0  0
  8 26  1  0  0  0  0
  9 10  2  0  0  0  0
  9 11  1  0  0  0  0
 11 16  1  0  0  0  0
 11 12  1  0  0  0  0
 11 27  1  0  0  0  0
 12 13  1  0  0  0  0
 12 28  1  0  0  0  0
 12 29  1  0  0  0  0
 13 17  1  0  0  0  0
 13 14  1  0  0  0  0
 13 30  1  0  0  0  0
 14 15  1  0  0  0  0
 14 31  1  0  0  0  0
 14 32  1  0  0  0  0
 15 16  1  0  0  0  0
 15 33  1  0  0  0  0
 15 34  1  0  0  0  0
 16 17  1  0  0  0  0
 16 35  1  0  0  0  0
 17 36  1  0  0  0  0
 17 37  1  0  0  0  0
M  END
> <s_m_source_file>
AV-unprocessed.smi

> <i_m_source_file_index>
1533

> <i_lp_mmshare_version>
43012

> <i_f3d_flags>
0

> <s_epik_input>
W0NIM11jMW5vYyhuMSlbQ0gyXVtDSDJdW05IXUMoPU8pW0NASF0oW0NIMl1bQ0BASF0yMylbQ0BASF0oW0NIMl0zKVtDSDJdW0NIMl0y

> <s_epik_cmdline>
J2VwaWtfcHl0aG9uJywgJy1waCcsICc3LjAnLCAnLXRuJywgJzgnLCAnLW1hJywgJzIwMCcsICctbWV0YWxfYmluZGluZycsICctaW1hZScsICc8aW5maWxlLm1hZT4nLCAnLW9tYWUnLCAnPG91dGZpbGUubWFlPic=

> <r_lp_tautomer_probability>
1

> <r_epik_Ionization_Penalty>
1.90116e-08

> <r_epik_Ionization_Penalty_Charging>
0

> <r_epik_Ionization_Penalty_Neutral>
1.90116e-08

> <r_epik_State_Penalty>
-0

> <r_epik_Charging_Adjusted_Penalty>
0

> <i_epik_Tot_Q>
0

> <i_epik_Tot_abs_Q>
0

> <r_epik_Metal_State_Penalty>
-0

> <b_epik_Metal_Only>
0

> <s_lp_Force_Field>
OPLS_2005

> <r_lp_Energy>
44.7071

> <b_lp_Chiralities_Consistent>
1

> <s_lp_Variant>
AV-unprocessed.smi:1533-2

> <Gold.Version>
5.8.1

> <Gold.Id.Protein>
6NUR|6NUR_protein|mol2

> <Gold.PLP.Fitness>
38.8716

> <Gold.PLP.PLP>
-39.2750

> <Gold.PLP.part.hbond>
0.0000

> <Gold.PLP.part.metal>
0.0000

> <Gold.PLP.part.buried>
-6.6731

> <Gold.PLP.part.nonpolar>
-32.9974

> <Gold.PLP.part.repulsive>
0.0183

> <Gold.PLP.ligand.clash>
0.0000

> <Gold.PLP.ligand.torsion>
0.2118

> <Gold.PLP.Chemscore.Hbond>
0.0000

> <Gold.PLP.Chemscore.CHOScore>
0.0000

> <Gold.PLP.Chemscore.Metal>
0.0000

> <Gold.PLP.Chemscore.Internal.Correction>
0.0202

> <Gold.Rescore>
     Score         DG    S(hbond)    S(metal)    S(lipo)     H(rot)  DE(clash)    DE(int)     intcor
     11.55     -13.18       0.00        0.00     106.28       1.85       0.09       1.54       ----

> <Gold.Chemscore.Fitness>
11.5513

> <Gold.Chemscore.DG>
-13.1819

> <Gold.Chemscore.ZeroCoef>
-5.4800

> <Gold.Chemscore.Hbond>
0.0000

> <Gold.Chemscore.Metal>
0.0000

> <Gold.Chemscore.Lipo>
106.2839

> <Gold.Chemscore.Internal_Hbond>
0.0000

> <Gold.Chemscore.DEClash>
0.0901

> <Gold.Chemscore.DEInternal>
1.5405

> <Gold.Chemscore.Rot>
1.8490

> <Gold.Chemscore.Internal.Correction>
   9.000000E+99

> <Gold.Chemscore.Hbond.Weighted>
-0.0000

> <Gold.Chemscore.Metal.Weighted>
-0.0000

> <Gold.Chemscore.Lipo.Weighted>
-12.4352

> <Gold.Chemscore.Internal_Hbond.Weighted>
0.0000

> <Gold.Chemscore.DEClash.Weighted>
0.0901

> <Gold.Chemscore.DEInternal.Weighted>
1.5405

> <Gold.Chemscore.Rot.Weighted>
4.7334

> <Gold.Chemscore.Internal.Correction.Weighted>
   9.000000E+99

> <Gold.Protein.RotatedTorsions>
[ 6907 6896 6895 6894 ] final -116.81 input  -60.11 | X-H torsion
[ 7974 7965 7964 7962 ] final   25.36 input  175.53 | X-H torsion
[ 8008 7997 7996 7995 ] final   34.53 input   59.86 | X-H torsion
[ 10167 10162 10161 10158 ] final -166.00 input  -65.29 | X-H torsion
[ 10718 10713 10712 10709 ] final  -72.50 input   66.30 | X-H torsion
[ 10763 10752 10751 10750 ] final  -73.53 input  -60.55 | X-H torsion
[ 11005 11000 10999 10996 ] final  -23.04 input  -57.11 | X-H torsion

> <Gold.Protein.ActiveResidues>
 VAL166  LYS551  ARG553  GLY616  TRP617  ASP618  TYR619  PRO620  LYS621  CYS622 
 ASP623  PHE694  ASN695  SER759  ASP760  ASP761  ALA762  ILE779  LEU786  VAL792 
 PHE793  MET794  SER795  GLU796  ALA797  LYS798  CYS799  TRP800  GLU811  SER814 

> <Gold.Protein.RotatedAtoms>
  150.8085  133.8465  159.3193 H   0  0  0  0  0  0  0  0  0  0  0  0  # atno 6907 bound_to 6896
  151.6257  135.1026  160.0120 H   0  0  0  0  0  0  0  0  0  0  0  0  # atno 6908 bound_to 6896
  152.4177  133.7025  159.6488 H   0  0  0  0  0  0  0  0  0  0  0  0  # atno 6909 bound_to 6896
  146.1892  139.7477  142.8844 H   0  0  0  0  0  0  0  0  0  0  0  0  # atno 7974 bound_to 7965
  155.1564  140.3279  155.4420 H   0  0  0  0  0  0  0  0  0  0  0  0  # atno 8008 bound_to 7997
  156.2557  140.1968  156.6623 H   0  0  0  0  0  0  0  0  0  0  0  0  # atno 8009 bound_to 7997
  154.6436  140.0567  156.9861 H   0  0  0  0  0  0  0  0  0  0  0  0  # atno 8010 bound_to 7997
  139.6144  144.0750  152.1873 H   0  0  0  0  0  0  0  0  0  0  0  0  # atno 10167 bound_to 10162
  156.0318  130.4373  150.2602 H   0  0  0  0  0  0  0  0  0  0  0  0  # atno 10718 bound_to 10713
  154.4607  135.5894  153.6254 H   0  0  0  0  0  0  0  0  0  0  0  0  # atno 10763 bound_to 10752
  152.9823  135.6043  154.3489 H   0  0  0  0  0  0  0  0  0  0  0  0  # atno 10764 bound_to 10752
  154.3361  135.2842  155.2426 H   0  0  0  0  0  0  0  0  0  0  0  0  # atno 10765 bound_to 10752
  140.8714  133.7718  156.0191 H   0  0  0  0  0  0  0  0  0  0  0  0  # atno 11005 bound_to 11000
  145.3844  141.0363  143.3159 LP  0  0  0  0  0  0  0  0  0  0  0  0  # atno 17320 bound_to 7965
  144.8455  139.5404  143.6881 LP  0  0  0  0  0  0  0  0  0  0  0  0  # atno 17321 bound_to 7965
  140.0376  144.6032  150.7437 LP  0  0  0  0  0  0  0  0  0  0  0  0  # atno 17342 bound_to 10162
  140.7341  143.2725  151.3845 LP  0  0  0  0  0  0  0  0  0  0  0  0  # atno 17343 bound_to 10162
  157.0704  131.0115  151.3192 LP  0  0  0  0  0  0  0  0  0  0  0  0  # atno 17370 bound_to 10713
  157.5003  130.7876  149.7598 LP  0  0  0  0  0  0  0  0  0  0  0  0  # atno 17371 bound_to 10713
  140.8568  134.2888  157.5252 LP  0  0  0  0  0  0  0  0  0  0  0  0  # atno 17394 bound_to 11000
  139.8712  134.9497  156.4034 LP  0  0  0  0  0  0  0  0  0  0  0  0  # atno 17395 bound_to 11000

$$$$
