AV-unprocessed.smi:1383|AV-procd|sdf|5624|dock9
  -GOLD-   22720 5243D 1   1.00000     0.00000
 Structure written by MMmdl.
 30 30  0  0  0  0  0  0  0  0  2 V2000
  146.7621  133.7299  162.4081 C   0  0  0  0  0  0  0  0  0  0  0  0
  147.3262  134.2967  161.0958 C   0  0  0  0  0  0  0  0  0  0  0  0
  148.0162  135.6716  161.2428 C   0  0  2  0  0  0  0  0  0  0  0  0
  147.2115  136.6013  162.1674 C   0  0  0  0  0  0  0  0  0  0  0  0
  148.2401  136.3521  159.8785 C   0  0  0  0  0  0  0  0  0  0  0  0
  147.7662  137.4723  159.6787 O   0  0  0  0  0  0  0  0  0  0  0  0
  148.9680  135.5803  159.0353 N   0  5  0  0  0  0  0  0  0  0  0  0
  149.0449  135.9092  157.7367 C   0  0  0  0  0  0  0  0  0  0  0  0
  148.7892  137.1405  157.2818 N   0  0  0  0  0  0  0  0  0  0  0  0
  148.9153  137.2635  155.8947 C   0  0  0  0  0  0  0  0  0  0  0  0
  148.6625  138.5877  155.2333 C   0  0  0  0  0  0  0  0  0  0  0  0
  149.8846  139.0314  154.4253 C   0  0  0  0  0  0  0  0  0  0  0  0
  150.2325  138.2790  153.3774 N   0  0  0  0  0  0  0  0  0  0  0  0
  150.5008  140.0490  154.7357 O   0  0  0  0  0  0  0  0  0  0  0  0
  149.2782  136.0907  155.2837 C   0  0  0  0  0  0  0  0  0  0  0  0
  149.4611  134.7959  156.4321 S   0  0  0  0  0  0  0  0  0  0  0  0
  146.2386  132.7906  162.2294 H   0  0  0  0  0  0  0  0  0  0  0  0
  146.0548  134.4237  162.8630 H   0  0  0  0  0  0  0  0  0  0  0  0
  147.5511  133.5321  163.1342 H   0  0  0  0  0  0  0  0  0  0  0  0
  148.0185  133.5750  160.6595 H   0  0  0  0  0  0  0  0  0  0  0  0
  146.5057  134.3882  160.3835 H   0  0  0  0  0  0  0  0  0  0  0  0
  148.9793  135.5008  161.7292 H   0  0  0  0  0  0  0  0  0  0  0  0
  147.6925  137.5753  162.2655 H   0  0  0  0  0  0  0  0  0  0  0  0
  147.1273  136.1778  163.1685 H   0  0  0  0  0  0  0  0  0  0  0  0
  146.2008  136.7644  161.7913 H   0  0  0  0  0  0  0  0  0  0  0  0
  147.7983  138.5341  154.5699 H   0  0  0  0  0  0  0  0  0  0  0  0
  148.4290  139.3472  155.9804 H   0  0  0  0  0  0  0  0  0  0  0  0
  151.0212  138.5494  152.8068 H   0  0  0  0  0  0  0  0  0  0  0  0
  149.6954  137.4559  153.1478 H   0  0  0  0  0  0  0  0  0  0  0  0
  149.4430  135.9091  154.2323 H   0  0  0  0  0  0  0  0  0  0  0  0
  1  2  1  0  0  0  0
  1 17  1  0  0  0  0
  1 18  1  0  0  0  0
  1 19  1  0  0  0  0
  2  3  1  0  0  0  0
  2 20  1  0  0  0  0
  2 21  1  0  0  0  0
  3  4  1  0  0  0  0
  3  5  1  0  0  0  0
  3 22  1  0  0  0  0
  4 23  1  0  0  0  0
  4 24  1  0  0  0  0
  4 25  1  0  0  0  0
  5  6  2  0  0  0  0
  5  7  1  0  0  0  0
  7  8  1  0  0  0  0
  8 16  1  0  0  0  0
  8  9  2  0  0  0  0
  9 10  1  0  0  0  0
 10 11  1  0  0  0  0
 10 15  2  0  0  0  0
 11 12  1  0  0  0  0
 11 26  1  0  0  0  0
 11 27  1  0  0  0  0
 12 13  1  0  0  0  0
 12 14  2  0  0  0  0
 13 28  1  0  0  0  0
 13 29  1  0  0  0  0
 15 16  1  0  0  0  0
 15 30  1  0  0  0  0
M  CHG  1   7  -1
M  END
> <s_m_source_file>
AV-unprocessed.smi

> <i_m_source_file_index>
1383

> <i_lp_mmshare_version>
43012

> <i_f3d_flags>
0

> <s_epik_input>
W0NIM11bQ0gyXVtDQEhdKFtDSDNdKUMoPU8pW05IXWMxbmMoW2NIXXMxKVtDSDJdQyg9TylbTkgyXQ==

> <s_epik_cmdline>
J2VwaWtfcHl0aG9uJywgJy1waCcsICc3LjAnLCAnLXRuJywgJzgnLCAnLW1hJywgJzIwMCcsICctbWV0YWxfYmluZGluZycsICctaW1hZScsICc8aW5maWxlLm1hZT4nLCAnLW9tYWUnLCAnPG91dGZpbGUubWFlPic=

> <r_lp_tautomer_probability>
1

> <r_epik_Ionization_Penalty>
5.3563

> <r_epik_Ionization_Penalty_Charging>
4.90463

> <r_epik_Ionization_Penalty_Neutral>
0.451677

> <r_epik_State_Penalty>
4.90447

> <r_epik_Charging_Adjusted_Penalty>
9.8091

> <i_epik_Tot_Q>
-1

> <i_epik_Tot_abs_Q>
1

> <r_epik_Metal_State_Penalty>
1.05508

> <b_epik_Metal_Only>
1

> <s_lp_Force_Field>
OPLS_2005

> <r_lp_Energy>
-0.655456

> <b_lp_Chiralities_Consistent>
1

> <s_lp_Variant>
AV-unprocessed.smi:1383-3

> <Gold.Version>
5.8.1

> <Gold.Id.Protein>
6NUR|6NUR_protein|mol2

> <Gold.PLP.Fitness>
41.8517

> <Gold.PLP.PLP>
-25.4269

> <Gold.PLP.part.hbond>
-6.3560

> <Gold.PLP.part.metal>
0.0000

> <Gold.PLP.part.buried>
-2.7258

> <Gold.PLP.part.nonpolar>
-17.0286

> <Gold.PLP.part.repulsive>
0.1657

> <Gold.PLP.ligand.clash>
0.0000

> <Gold.PLP.ligand.torsion>
0.2959

> <Gold.PLP.Chemscore.Hbond>
4.6320

> <Gold.PLP.Chemscore.CHOScore>
1.0000

> <Gold.PLP.Chemscore.Metal>
0.0000

> <Gold.Chemscore.Hbonds>
donor molecule, donor type, donor heavy atom, donor atom, acceptor molecule, acceptor atom, score
      L1  H    13    29       P1  7948  0.99
      P1  H  6896  6909       L1     7  1.95
      P1  H  6934  6947       L1     6  0.64
      P1  H  7989  7998       L1    14  1.00
      L1  C    15    30       P1  7948  1.00

> <Gold.PLP.Chemscore.Internal.Correction>
0.1206

> <Gold.Rescore>
     Score         DG    S(hbond)    S(metal)    S(lipo)     H(rot)  DE(clash)    DE(int)     intcor
     13.95     -16.07       3.28        0.00      44.03       2.15       0.12       1.99       ----

> <Gold.Chemscore.Fitness>
13.9546

> <Gold.Chemscore.DG>
-16.0695

> <Gold.Chemscore.ZeroCoef>
-5.4800

> <Gold.Chemscore.Hbond>
3.2785

> <Gold.Chemscore.Metal>
0.0000

> <Gold.Chemscore.Lipo>
44.0308

> <Gold.Chemscore.Internal_Hbond>
0.0000

> <Gold.Chemscore.DEClash>
0.1214

> <Gold.Chemscore.DEInternal>
1.9935

> <Gold.Chemscore.Rot>
2.1532

> <Gold.Chemscore.Internal.Correction>
   9.000000E+99

> <Gold.Chemscore.Hbonds>
donor molecule, donor type, donor heavy atom, donor atom, acceptor molecule, acceptor atom, score
      L1  H    13    29       P1  7948  0.62
      P1  H  6896  6909       L1     7  0.63
      P1  H  6934  6947       L1     6  0.62
      P1  H  7989  7998       L1    14  0.98

> <Gold.Chemscore.Hbond.Weighted>
-10.9502

> <Gold.Chemscore.Metal.Weighted>
-0.0000

> <Gold.Chemscore.Lipo.Weighted>
-5.1516

> <Gold.Chemscore.Internal_Hbond.Weighted>
0.0000

> <Gold.Chemscore.DEClash.Weighted>
0.1214

> <Gold.Chemscore.DEInternal.Weighted>
1.9935

> <Gold.Chemscore.Rot.Weighted>
5.5123

> <Gold.Chemscore.Internal.Correction.Weighted>
   9.000000E+99

> <Gold.Protein.RotatedTorsions>
[ 6907 6896 6895 6894 ] final   56.66 input  -60.11 | X-H torsion
[ 7974 7965 7964 7962 ] final    6.71 input  175.53 | X-H torsion
[ 8008 7997 7996 7995 ] final  -66.09 input   59.86 | X-H torsion
[ 10167 10162 10161 10158 ] final  -80.88 input  -65.29 | X-H torsion
[ 10718 10713 10712 10709 ] final -109.77 input   66.30 | X-H torsion
[ 10763 10752 10751 10750 ] final -106.39 input  -60.55 | X-H torsion
[ 11005 11000 10999 10996 ] final  -71.44 input  -57.11 | X-H torsion

> <Gold.Protein.ActiveResidues>
 VAL166  LYS551  ARG553  GLY616  TRP617  ASP618  TYR619  PRO620  LYS621  CYS622 
 ASP623  PHE694  ASN695  SER759  ASP760  ASP761  ALA762  ILE779  LEU786  VAL792 
 PHE793  MET794  SER795  GLU796  ALA797  LYS798  CYS799  TRP800  GLU811  SER814 

> <Gold.Protein.RotatedAtoms>
  152.3657  134.6807  160.0192 H   0  0  0  0  0  0  0  0  0  0  0  0  # atno 6907 bound_to 6896
  151.7116  133.3307  159.3300 H   0  0  0  0  0  0  0  0  0  0  0  0  # atno 6908 bound_to 6896
  150.7637  134.6462  159.6308 H   0  0  0  0  0  0  0  0  0  0  0  0  # atno 6909 bound_to 6896
  146.2432  140.0193  142.8399 H   0  0  0  0  0  0  0  0  0  0  0  0  # atno 7974 bound_to 7965
  154.4712  140.0920  156.7149 H   0  0  0  0  0  0  0  0  0  0  0  0  # atno 8008 bound_to 7997
  155.4719  140.3464  155.4308 H   0  0  0  0  0  0  0  0  0  0  0  0  # atno 8009 bound_to 7997
  156.1042  140.1430  156.9415 H   0  0  0  0  0  0  0  0  0  0  0  0  # atno 8010 bound_to 7997
  140.4462  143.2498  151.8554 H   0  0  0  0  0  0  0  0  0  0  0  0  # atno 10167 bound_to 10162
  156.0555  130.5781  150.8146 H   0  0  0  0  0  0  0  0  0  0  0  0  # atno 10718 bound_to 10713
  154.8009  135.4713  154.0274 H   0  0  0  0  0  0  0  0  0  0  0  0  # atno 10763 bound_to 10752
  153.1780  135.6836  153.8524 H   0  0  0  0  0  0  0  0  0  0  0  0  # atno 10764 bound_to 10752
  153.8084  135.3220  155.3375 H   0  0  0  0  0  0  0  0  0  0  0  0  # atno 10765 bound_to 10752
  141.1592  133.6818  156.6907 H   0  0  0  0  0  0  0  0  0  0  0  0  # atno 11005 bound_to 11000
  145.1256  140.9488  143.4574 LP  0  0  0  0  0  0  0  0  0  0  0  0  # atno 17320 bound_to 7965
  145.0438  139.3238  143.5963 LP  0  0  0  0  0  0  0  0  0  0  0  0  # atno 17321 bound_to 7965
  139.4793  144.5172  151.8851 LP  0  0  0  0  0  0  0  0  0  0  0  0  # atno 17342 bound_to 10162
  140.4260  144.2179  150.5887 LP  0  0  0  0  0  0  0  0  0  0  0  0  # atno 17343 bound_to 10162
  157.5520  131.0944  150.9682 LP  0  0  0  0  0  0  0  0  0  0  0  0  # atno 17370 bound_to 10713
  156.9939  130.5574  149.5305 LP  0  0  0  0  0  0  0  0  0  0  0  0  # atno 17371 bound_to 10713
  140.3033  134.8146  157.4115 LP  0  0  0  0  0  0  0  0  0  0  0  0  # atno 17394 bound_to 11000
  140.1243  134.5179  155.8158 LP  0  0  0  0  0  0  0  0  0  0  0  0  # atno 17395 bound_to 11000

$$$$
