AV-unprocessed.smi:1295|AV-procd|sdf|5402|dock10
  -GOLD-   22720 4563D 1   1.00000     0.00000
 Structure written by MMmdl.
 43 44  0  0  0  0  0  0  0  0  1 V2000
  154.7919  140.4602  162.1664 C   0  0  0  0  0  0  0  0  0  0  0  0
  153.9088  141.0146  161.0691 C   0  0  0  0  0  0  0  0  0  0  0  0
  153.3435  142.1758  161.1169 N   0  0  0  0  0  0  0  0  0  0  0  0
  152.5430  142.5803  160.0396 C   0  0  0  0  0  0  0  0  0  0  0  0
  151.9079  143.9541  160.1738 C   0  0  0  0  0  0  0  0  0  0  0  0
  152.3535  141.7808  158.9490 C   0  0  0  0  0  0  0  0  0  0  0  0
  151.4816  142.1916  157.7642 C   0  0  0  0  0  0  0  0  0  0  0  0
  150.2101  141.3638  157.5643 C   0  0  0  0  0  0  0  0  0  0  0  0
  149.4186  141.2113  158.4945 O   0  0  0  0  0  0  0  0  0  0  0  0
  150.0298  140.8423  156.3411 N   0  0  0  0  0  0  0  0  0  0  0  0
  148.8822  140.0484  155.8981 C   0  0  1  0  0  0  0  0  0  0  0  0
  147.5743  140.7942  156.2310 C   0  0  0  0  0  0  0  0  0  0  0  0
  147.3828  142.0490  155.3608 C   0  0  0  0  0  0  0  0  0  0  0  0
  147.4588  141.7055  153.8655 C   0  0  0  0  0  0  0  0  0  0  0  0
  148.7691  140.9783  153.5221 C   0  0  0  0  0  0  0  0  0  0  0  0
  148.9610  139.7149  154.3866 C   0  0  1  0  0  0  0  0  0  0  0  0
  150.2421  138.9547  154.0035 C   0  0  0  0  0  0  0  0  0  0  0  0
  153.0066  140.4581  158.9036 C   0  0  0  0  0  0  0  0  0  0  0  0
  152.9029  139.6595  157.9740 O   0  0  0  0  0  0  0  0  0  0  0  0
  153.7559  140.1509  159.9860 N   0  0  0  0  0  0  0  0  0  0  0  0
  154.2203  139.2546  160.0043 H   0  0  0  0  0  0  0  0  0  0  0  0
  154.2326  140.3934  163.0998 H   0  0  0  0  0  0  0  0  0  0  0  0
  155.6483  141.1157  162.3254 H   0  0  0  0  0  0  0  0  0  0  0  0
  155.1647  139.4649  161.9198 H   0  0  0  0  0  0  0  0  0  0  0  0
  152.2717  144.6225  159.3930 H   0  0  0  0  0  0  0  0  0  0  0  0
  152.1444  144.4070  161.1375 H   0  0  0  0  0  0  0  0  0  0  0  0
  150.8226  143.8871  160.0965 H   0  0  0  0  0  0  0  0  0  0  0  0
  151.2089  143.2405  157.8870 H   0  0  0  0  0  0  0  0  0  0  0  0
  152.0530  142.1623  156.8361 H   0  0  0  0  0  0  0  0  0  0  0  0
  150.7420  141.0224  155.6486 H   0  0  0  0  0  0  0  0  0  0  0  0
  148.8625  139.1063  156.4492 H   0  0  0  0  0  0  0  0  0  0  0  0
  146.7302  140.1212  156.0742 H   0  0  0  0  0  0  0  0  0  0  0  0
  147.5522  141.0646  157.2874 H   0  0  0  0  0  0  0  0  0  0  0  0
  146.4222  142.5126  155.5864 H   0  0  0  0  0  0  0  0  0  0  0  0
  148.1452  142.7895  155.6058 H   0  0  0  0  0  0  0  0  0  0  0  0
  146.6109  141.0762  153.5924 H   0  0  0  0  0  0  0  0  0  0  0  0
  147.3718  142.6152  153.2708 H   0  0  0  0  0  0  0  0  0  0  0  0
  148.7664  140.7087  152.4654 H   0  0  0  0  0  0  0  0  0  0  0  0
  149.6112  141.6571  153.6621 H   0  0  0  0  0  0  0  0  0  0  0  0
  148.1271  139.0466  154.1665 H   0  0  0  0  0  0  0  0  0  0  0  0
  151.1323  139.5709  154.1314 H   0  0  0  0  0  0  0  0  0  0  0  0
  150.2101  138.6371  152.9612 H   0  0  0  0  0  0  0  0  0  0  0  0
  150.3647  138.0612  154.6162 H   0  0  0  0  0  0  0  0  0  0  0  0
  1  2  1  0  0  0  0
  1 22  1  0  0  0  0
  1 23  1  0  0  0  0
  1 24  1  0  0  0  0
  2 20  1  0  0  0  0
  2  3  2  0  0  0  0
  3  4  1  0  0  0  0
  4  5  1  0  0  0  0
  4  6  2  0  0  0  0
  5 25  1  0  0  0  0
  5 26  1  0  0  0  0
  5 27  1  0  0  0  0
  6  7  1  0  0  0  0
  6 18  1  0  0  0  0
  7  8  1  0  0  0  0
  7 28  1  0  0  0  0
  7 29  1  0  0  0  0
  8  9  2  0  0  0  0
  8 10  1  0  0  0  0
 10 11  1  0  0  0  0
 10 30  1  0  0  0  0
 11 16  1  0  0  0  0
 11 12  1  0  0  0  0
 11 31  1  0  0  0  0
 12 13  1  0  0  0  0
 12 32  1  0  0  0  0
 12 33  1  0  0  0  0
 13 14  1  0  0  0  0
 13 34  1  0  0  0  0
 13 35  1  0  0  0  0
 14 15  1  0  0  0  0
 14 36  1  0  0  0  0
 14 37  1  0  0  0  0
 15 16  1  0  0  0  0
 15 38  1  0  0  0  0
 15 39  1  0  0  0  0
 16 17  1  0  0  0  0
 16 40  1  0  0  0  0
 17 41  1  0  0  0  0
 17 42  1  0  0  0  0
 17 43  1  0  0  0  0
 18 19  2  0  0  0  0
 18 20  1  0  0  0  0
 20 21  1  0  0  0  0
M  END
> <s_m_source_file>
AV-unprocessed.smi

> <i_m_source_file_index>
1295

> <i_lp_mmshare_version>
43012

> <i_f3d_flags>
0

> <s_epik_input>
W0NIM11jMW5jKFtDSDNdKWMoYyg9TylbbkhdMSlbQ0gyXUMoPU8pW05IXVtDQEBIXTJbQ0gyXVtDSDJdW0NIMl1bQ0gyXVtDQEhdMltDSDNd

> <s_epik_cmdline>
J2VwaWtfcHl0aG9uJywgJy1waCcsICc3LjAnLCAnLXRuJywgJzgnLCAnLW1hJywgJzIwMCcsICctbWV0YWxfYmluZGluZycsICctaW1hZScsICc8aW5maWxlLm1hZT4nLCAnLW9tYWUnLCAnPG91dGZpbGUubWFlPic=

> <r_lp_tautomer_probability>
0.839158

> <r_epik_Ionization_Penalty>
0.00037085

> <r_epik_Ionization_Penalty_Charging>
0.000336002

> <r_epik_Ionization_Penalty_Neutral>
3.48485e-05

> <r_epik_State_Penalty>
0.09125

> <r_epik_Charging_Adjusted_Penalty>
0.091586

> <i_epik_Tot_Q>
0

> <i_epik_Tot_abs_Q>
0

> <r_epik_Metal_State_Penalty>
0.251445

> <b_epik_Metal_Only>
0

> <s_lp_Force_Field>
OPLS_2005

> <r_lp_Energy>
11.7893

> <b_lp_Chiralities_Consistent>
1

> <s_lp_Variant>
AV-unprocessed.smi:1295-2

> <Gold.Version>
5.8.1

> <Gold.Id.Protein>
6NUR|6NUR_protein|mol2

> <Gold.PLP.Fitness>
36.0357

> <Gold.PLP.PLP>
-33.2926

> <Gold.PLP.part.hbond>
-1.6854

> <Gold.PLP.part.metal>
0.0000

> <Gold.PLP.part.buried>
1.8328

> <Gold.PLP.part.nonpolar>
-32.2206

> <Gold.PLP.part.repulsive>
0.1337

> <Gold.PLP.ligand.clash>
0.0000

> <Gold.PLP.ligand.torsion>
0.1325

> <Gold.PLP.Chemscore.Hbond>
1.0000

> <Gold.PLP.Chemscore.CHOScore>
0.0000

> <Gold.PLP.Chemscore.Metal>
0.0000

> <Gold.Chemscore.Hbonds>
donor molecule, donor type, donor heavy atom, donor atom, acceptor molecule, acceptor atom, score
      P1  H  7997  8010       L1    19  0.90

> <Gold.PLP.Chemscore.Internal.Correction>
0.0081

> <Gold.Rescore>
     Score         DG    S(hbond)    S(metal)    S(lipo)     H(rot)  DE(clash)    DE(int)     intcor
     13.24     -15.37       0.92        0.00      90.68       1.48       1.85       0.29       ----

> <Gold.Chemscore.Fitness>
13.2386

> <Gold.Chemscore.DG>
-15.3749

> <Gold.Chemscore.ZeroCoef>
-5.4800

> <Gold.Chemscore.Hbond>
0.9206

> <Gold.Chemscore.Metal>
0.0000

> <Gold.Chemscore.Lipo>
90.6775

> <Gold.Chemscore.Internal_Hbond>
0.0000

> <Gold.Chemscore.DEClash>
1.8454

> <Gold.Chemscore.DEInternal>
0.2909

> <Gold.Chemscore.Rot>
1.4801

> <Gold.Chemscore.Internal.Correction>
   9.000000E+99

> <Gold.Chemscore.Hbonds>
donor molecule, donor type, donor heavy atom, donor atom, acceptor molecule, acceptor atom, score
      P1  H  7997  8010       L1    19  0.17

> <Gold.Chemscore.Hbond.Weighted>
-3.0747

> <Gold.Chemscore.Metal.Weighted>
-0.0000

> <Gold.Chemscore.Lipo.Weighted>
-10.6093

> <Gold.Chemscore.Internal_Hbond.Weighted>
0.0000

> <Gold.Chemscore.DEClash.Weighted>
1.8454

> <Gold.Chemscore.DEInternal.Weighted>
0.2909

> <Gold.Chemscore.Rot.Weighted>
3.7891

> <Gold.Chemscore.Internal.Correction.Weighted>
   9.000000E+99

> <Gold.Protein.RotatedTorsions>
[ 6907 6896 6895 6894 ] final -111.54 input  -60.11 | X-H torsion
[ 7974 7965 7964 7962 ] final  166.06 input  175.53 | X-H torsion
[ 8008 7997 7996 7995 ] final   28.96 input   59.86 | X-H torsion
[ 10167 10162 10161 10158 ] final  -61.32 input  -65.29 | X-H torsion
[ 10718 10713 10712 10709 ] final -137.97 input   66.30 | X-H torsion
[ 10763 10752 10751 10750 ] final -142.24 input  -60.55 | X-H torsion
[ 11005 11000 10999 10996 ] final   -9.98 input  -57.11 | X-H torsion

> <Gold.Protein.ActiveResidues>
 VAL166  LYS551  ARG553  GLY616  TRP617  ASP618  TYR619  PRO620  LYS621  CYS622 
 ASP623  PHE694  ASN695  SER759  ASP760  ASP761  ALA762  ILE779  LEU786  VAL792 
 PHE793  MET794  SER795  GLU796  ALA797  LYS798  CYS799  TRP800  GLU811  SER814 

> <Gold.Protein.RotatedAtoms>
  150.7697  133.9220  159.3400 H   0  0  0  0  0  0  0  0  0  0  0  0  # atno 6907 bound_to 6896
  151.7109  135.0911  160.0277 H   0  0  0  0  0  0  0  0  0  0  0  0  # atno 6908 bound_to 6896
  152.3710  133.6380  159.6122 H   0  0  0  0  0  0  0  0  0  0  0  0  # atno 6909 bound_to 6896
  144.7477  139.8561  143.6376 H   0  0  0  0  0  0  0  0  0  0  0  0  # atno 7974 bound_to 7965
  155.0669  140.3196  155.4643 H   0  0  0  0  0  0  0  0  0  0  0  0  # atno 8008 bound_to 7997
  156.2800  140.2119  156.5741 H   0  0  0  0  0  0  0  0  0  0  0  0  # atno 8009 bound_to 7997
  154.7086  140.0500  157.0516 H   0  0  0  0  0  0  0  0  0  0  0  0  # atno 8010 bound_to 7997
  140.6014  143.2362  151.5921 H   0  0  0  0  0  0  0  0  0  0  0  0  # atno 10167 bound_to 10162
  156.2941  130.7391  151.1425 H   0  0  0  0  0  0  0  0  0  0  0  0  # atno 10718 bound_to 10713
  154.8516  135.3501  154.5996 H   0  0  0  0  0  0  0  0  0  0  0  0  # atno 10763 bound_to 10752
  153.6605  135.6990  153.5184 H   0  0  0  0  0  0  0  0  0  0  0  0  # atno 10764 bound_to 10752
  153.2822  135.4260  155.1046 H   0  0  0  0  0  0  0  0  0  0  0  0  # atno 10765 bound_to 10752
  140.7399  133.8679  155.8959 H   0  0  0  0  0  0  0  0  0  0  0  0  # atno 11005 bound_to 11000
  146.1382  139.4432  143.0126 LP  0  0  0  0  0  0  0  0  0  0  0  0  # atno 17320 bound_to 7965
  145.7059  141.0121  143.1479 LP  0  0  0  0  0  0  0  0  0  0  0  0  # atno 17321 bound_to 7965
  139.5293  144.2963  152.1111 LP  0  0  0  0  0  0  0  0  0  0  0  0  # atno 17342 bound_to 10162
  140.2144  144.4530  150.6370 LP  0  0  0  0  0  0  0  0  0  0  0  0  # atno 17343 bound_to 10162
  157.7350  131.0576  150.5491 LP  0  0  0  0  0  0  0  0  0  0  0  0  # atno 17370 bound_to 10713
  156.5611  130.4256  149.6062 LP  0  0  0  0  0  0  0  0  0  0  0  0  # atno 17371 bound_to 10713
  140.9846  134.1360  157.4464 LP  0  0  0  0  0  0  0  0  0  0  0  0  # atno 17394 bound_to 11000
  139.8808  135.0021  156.6108 LP  0  0  0  0  0  0  0  0  0  0  0  0  # atno 17395 bound_to 11000

$$$$
