AV-unprocessed.smi:1893|AV-procd|sdf|7675|dock1
  -GOLD-   22720 9413D 1   1.00000     0.00000
 Structure written by MMmdl.
 43 44  0  0  0  0  0  0  0  0  2 V2000
  153.1777  140.7046  159.8016 C   0  0  0  0  0  0  0  0  0  0  0  0
  152.8670  142.2098  159.9446 C   0  0  2  0  0  0  0  0  0  0  0  0
  152.6864  142.5285  161.4462 C   0  0  0  0  0  0  0  0  0  0  0  0
  152.3707  144.0056  161.6908 C   0  0  0  0  0  0  0  0  0  0  0  0
  151.1367  144.3973  160.8793 C   0  0  0  0  0  0  0  0  0  0  0  0
  151.3531  144.0869  159.3921 C   0  0  0  0  0  0  0  0  0  0  0  0
  151.6655  142.6468  159.1581 N   0  3  1  0  0  0  0  0  0  0  0  0
  151.7426  142.3370  157.7012 C   0  0  0  0  0  0  0  0  0  0  0  0
  150.3672  142.3745  157.0010 C   0  0  0  0  0  0  0  0  0  0  0  0
  150.0767  141.1113  156.3340 N   0  0  0  0  0  0  0  0  0  0  0  0
  149.4369  140.9879  155.1601 C   0  0  0  0  0  0  0  0  0  0  0  0
  149.0042  141.9530  154.5292 O   0  0  0  0  0  0  0  0  0  0  0  0
  149.2788  139.5569  154.6220 C   0  0  1  0  0  0  0  0  0  0  0  0
  148.5007  139.4942  153.2945 C   0  0  0  0  0  0  0  0  0  0  0  0
  150.5836  138.9229  154.4910 N   0  0  0  0  0  0  0  0  0  0  0  0
  150.9213  137.6680  154.1807 C   0  0  0  0  0  0  0  0  0  0  0  0
  152.2296  137.4578  154.1439 N   0  0  0  0  0  0  0  0  0  0  0  0
  152.6711  138.7089  154.4695 C   0  0  0  0  0  0  0  0  0  0  0  0
  151.7261  139.6244  154.6837 N   0  0  0  0  0  0  0  0  0  0  0  0
  153.9331  140.3938  160.5242 H   0  0  0  0  0  0  0  0  0  0  0  0
  153.5834  140.4511  158.8230 H   0  0  0  0  0  0  0  0  0  0  0  0
  152.2904  140.0951  159.9754 H   0  0  0  0  0  0  0  0  0  0  0  0
  153.7293  142.7700  159.5789 H   0  0  0  0  0  0  0  0  0  0  0  0
  151.8834  141.9154  161.8587 H   0  0  0  0  0  0  0  0  0  0  0  0
  153.5889  142.2610  161.9976 H   0  0  0  0  0  0  0  0  0  0  0  0
  152.1985  144.1856  162.7523 H   0  0  0  0  0  0  0  0  0  0  0  0
  153.2215  144.6233  161.3999 H   0  0  0  0  0  0  0  0  0  0  0  0
  150.2623  143.8581  161.2467 H   0  0  0  0  0  0  0  0  0  0  0  0
  150.9259  145.4590  161.0125 H   0  0  0  0  0  0  0  0  0  0  0  0
  150.4523  144.3816  158.8576 H   0  0  0  0  0  0  0  0  0  0  0  0
  152.1641  144.7020  158.9987 H   0  0  0  0  0  0  0  0  0  0  0  0
  152.4448  143.0228  157.2250 H   0  0  0  0  0  0  0  0  0  0  0  0
  152.1366  141.3378  157.5339 H   0  0  0  0  0  0  0  0  0  0  0  0
  149.5818  142.5573  157.7350 H   0  0  0  0  0  0  0  0  0  0  0  0
  150.2994  143.1755  156.2656 H   0  0  0  0  0  0  0  0  0  0  0  0
  150.3982  140.2681  156.7881 H   0  0  0  0  0  0  0  0  0  0  0  0
  148.7049  138.9987  155.3641 H   0  0  0  0  0  0  0  0  0  0  0  0
  147.5076  139.9328  153.3971 H   0  0  0  0  0  0  0  0  0  0  0  0
  148.3687  138.4613  152.9712 H   0  0  0  0  0  0  0  0  0  0  0  0
  149.0191  140.0248  152.4950 H   0  0  0  0  0  0  0  0  0  0  0  0
  150.1960  136.8946  153.9739 H   0  0  0  0  0  0  0  0  0  0  0  0
  153.7203  138.9534  154.5475 H   0  0  0  0  0  0  0  0  0  0  0  0
  150.8873  142.1153  159.5215 H   0  0  0  0  0  0  0  0  0  0  0  0
  1  2  1  0  0  0  0
  1 20  1  0  0  0  0
  1 21  1  0  0  0  0
  1 22  1  0  0  0  0
  2  7  1  0  0  0  0
  2  3  1  0  0  0  0
  2 23  1  0  0  0  0
  3  4  1  0  0  0  0
  3 24  1  0  0  0  0
  3 25  1  0  0  0  0
  4  5  1  0  0  0  0
  4 26  1  0  0  0  0
  4 27  1  0  0  0  0
  5  6  1  0  0  0  0
  5 28  1  0  0  0  0
  5 29  1  0  0  0  0
  6  7  1  0  0  0  0
  6 30  1  0  0  0  0
  6 31  1  0  0  0  0
  7  8  1  0  0  0  0
  7 43  1  0  0  0  0
  8  9  1  0  0  0  0
  8 32  1  0  0  0  0
  8 33  1  0  0  0  0
  9 10  1  0  0  0  0
  9 34  1  0  0  0  0
  9 35  1  0  0  0  0
 10 11  1  0  0  0  0
 10 36  1  0  0  0  0
 11 12  2  0  0  0  0
 11 13  1  0  0  0  0
 13 14  1  0  0  0  0
 13 15  1  0  0  0  0
 13 37  1  0  0  0  0
 14 38  1  0  0  0  0
 14 39  1  0  0  0  0
 14 40  1  0  0  0  0
 15 19  1  0  0  0  0
 15 16  1  0  0  0  0
 16 17  2  0  0  0  0
 16 41  1  0  0  0  0
 17 18  1  0  0  0  0
 18 19  2  0  0  0  0
 18 42  1  0  0  0  0
M  CHG  1   7   1
M  END
> <s_m_source_file>
AV-unprocessed.smi

> <i_m_source_file_index>
1893

> <i_lp_mmshare_version>
43012

> <i_f3d_flags>
0

> <s_epik_input>
W0NIM11bQ0BASF0xW0NIMl1bQ0gyXVtDSDJdW0NIMl1OMVtDSDJdW0NIMl1bTkhdQyg9TylbQ0BIXShbQ0gzXSluMltjSF1uW2NIXW4y

> <s_epik_cmdline>
J2VwaWtfcHl0aG9uJywgJy1waCcsICc3LjAnLCAnLXRuJywgJzgnLCAnLW1hJywgJzIwMCcsICctbWV0YWxfYmluZGluZycsICctaW1hZScsICc8aW5maWxlLm1hZT4nLCAnLW9tYWUnLCAnPG91dGZpbGUubWFlPic=

> <r_lp_tautomer_probability>
1

> <r_epik_Ionization_Penalty>
0.00266409

> <r_epik_Ionization_Penalty_Charging>
0.00265606

> <r_epik_Ionization_Penalty_Neutral>
8.02794e-06

> <r_epik_State_Penalty>
0.00184955

> <r_epik_Charging_Adjusted_Penalty>
0.00450561

> <i_epik_Tot_Q>
1

> <i_epik_Tot_abs_Q>
1

> <r_epik_Metal_State_Penalty>
-0

> <b_epik_Metal_Only>
0

> <s_lp_Force_Field>
OPLS_2005

> <r_lp_Energy>
24.8268

> <b_lp_Chiralities_Consistent>
1

> <s_lp_Variant>
AV-unprocessed.smi:1893-5

> <Gold.Version>
5.8.1

> <Gold.Id.Protein>
6NUR|6NUR_protein|mol2

> <Gold.PLP.Fitness>
48.0250

> <Gold.PLP.PLP>
-39.9737

> <Gold.PLP.part.hbond>
-3.3222

> <Gold.PLP.part.metal>
0.0000

> <Gold.PLP.part.buried>
0.3875

> <Gold.PLP.part.nonpolar>
-37.4718

> <Gold.PLP.part.repulsive>
1.2757

> <Gold.PLP.ligand.clash>
0.0000

> <Gold.PLP.ligand.torsion>
0.7037

> <Gold.PLP.Chemscore.Hbond>
2.0712

> <Gold.PLP.Chemscore.CHOScore>
1.0218

> <Gold.PLP.Chemscore.Metal>
0.0000

> <Gold.Chemscore.Hbonds>
donor molecule, donor type, donor heavy atom, donor atom, acceptor molecule, acceptor atom, score
      P1  H  7989  7998       L1    19  1.00
      P1  H  8011  8017       L1    12  0.05
      P1  H 10752 10765       L1    17  0.82
      L1  C    16    41       P1  7948  0.99
      L1  C    16    41       P1  7949  0.03

> <Gold.PLP.Chemscore.Internal.Correction>
0.1797

> <Gold.Rescore>
     Score         DG    S(hbond)    S(metal)    S(lipo)     H(rot)  DE(clash)    DE(int)     intcor
     12.09     -15.36       1.74        0.00      90.28       2.54       0.83       2.44       ----

> <Gold.Chemscore.Fitness>
12.0906

> <Gold.Chemscore.DG>
-15.3581

> <Gold.Chemscore.ZeroCoef>
-5.4800

> <Gold.Chemscore.Hbond>
1.7400

> <Gold.Chemscore.Metal>
0.0000

> <Gold.Chemscore.Lipo>
90.2818

> <Gold.Chemscore.Internal_Hbond>
0.0000

> <Gold.Chemscore.DEClash>
0.8269

> <Gold.Chemscore.DEInternal>
2.4407

> <Gold.Chemscore.Rot>
2.5377

> <Gold.Chemscore.Internal.Correction>
   9.000000E+99

> <Gold.Chemscore.Hbonds>
donor molecule, donor type, donor heavy atom, donor atom, acceptor molecule, acceptor atom, score
      P1  H  7989  7998       L1    19  0.39
      P1  H  8011  8017       L1    12  0.07
      P1  H 10752 10765       L1    17  0.80

> <Gold.Chemscore.Hbond.Weighted>
-5.8118

> <Gold.Chemscore.Metal.Weighted>
-0.0000

> <Gold.Chemscore.Lipo.Weighted>
-10.5630

> <Gold.Chemscore.Internal_Hbond.Weighted>
0.0000

> <Gold.Chemscore.DEClash.Weighted>
0.8269

> <Gold.Chemscore.DEInternal.Weighted>
2.4407

> <Gold.Chemscore.Rot.Weighted>
6.4966

> <Gold.Chemscore.Internal.Correction.Weighted>
   9.000000E+99

> <Gold.Protein.RotatedTorsions>
[ 6907 6896 6895 6894 ] final  178.06 input  -60.11 | X-H torsion
[ 7974 7965 7964 7962 ] final  -18.15 input  175.53 | X-H torsion
[ 8008 7997 7996 7995 ] final   79.41 input   59.86 | X-H torsion
[ 10167 10162 10161 10158 ] final  156.88 input  -65.29 | X-H torsion
[ 10718 10713 10712 10709 ] final   43.17 input   66.30 | X-H torsion
[ 10763 10752 10751 10750 ] final  157.31 input  -60.55 | X-H torsion
[ 11005 11000 10999 10996 ] final   -0.04 input  -57.11 | X-H torsion

> <Gold.Protein.ActiveResidues>
 VAL166  LYS551  ARG553  GLY616  TRP617  ASP618  TYR619  PRO620  LYS621  CYS622 
 ASP623  PHE694  ASN695  SER759  ASP760  ASP761  ALA762  ILE779  LEU786  VAL792 
 PHE793  MET794  SER795  GLU796  ALA797  LYS798  CYS799  TRP800  GLU811  SER814 

> <Gold.Protein.RotatedAtoms>
  151.6940  133.3311  159.3249 H   0  0  0  0  0  0  0  0  0  0  0  0  # atno 6907 bound_to 6896
  150.7766  134.6674  159.6382 H   0  0  0  0  0  0  0  0  0  0  0  0  # atno 6908 bound_to 6896
  152.3810  134.6593  160.0195 H   0  0  0  0  0  0  0  0  0  0  0  0  # atno 6909 bound_to 6896
  146.1906  140.3880  142.8459 H   0  0  0  0  0  0  0  0  0  0  0  0  # atno 7974 bound_to 7965
  155.8693  140.3450  155.5810 H   0  0  0  0  0  0  0  0  0  0  0  0  # atno 8008 bound_to 7997
  155.7845  140.0863  157.2061 H   0  0  0  0  0  0  0  0  0  0  0  0  # atno 8009 bound_to 7997
  154.4016  140.1494  156.3078 H   0  0  0  0  0  0  0  0  0  0  0  0  # atno 8010 bound_to 7997
  139.4822  144.4968  151.8227 H   0  0  0  0  0  0  0  0  0  0  0  0  # atno 10167 bound_to 10162
  157.4130  130.7925  149.7447 H   0  0  0  0  0  0  0  0  0  0  0  0  # atno 10718 bound_to 10713
  154.1981  135.2791  155.3000 H   0  0  0  0  0  0  0  0  0  0  0  0  # atno 10763 bound_to 10752
  154.5876  135.5570  153.7249 H   0  0  0  0  0  0  0  0  0  0  0  0  # atno 10764 bound_to 10752
  153.0095  135.6360  154.2120 H   0  0  0  0  0  0  0  0  0  0  0  0  # atno 10765 bound_to 10752
  140.6318  133.9568  155.8278 H   0  0  0  0  0  0  0  0  0  0  0  0  # atno 11005 bound_to 11000
  144.8480  140.6958  143.6186 LP  0  0  0  0  0  0  0  0  0  0  0  0  # atno 17320 bound_to 7965
  145.3803  139.1638  143.4284 LP  0  0  0  0  0  0  0  0  0  0  0  0  # atno 17321 bound_to 7965
  140.4457  144.1924  150.5894 LP  0  0  0  0  0  0  0  0  0  0  0  0  # atno 17342 bound_to 10162
  140.4637  143.2439  151.9185 LP  0  0  0  0  0  0  0  0  0  0  0  0  # atno 17343 bound_to 10162
  155.9856  130.3981  150.3251 LP  0  0  0  0  0  0  0  0  0  0  0  0  # atno 17370 bound_to 10713
  157.1392  131.0292  151.2935 LP  0  0  0  0  0  0  0  0  0  0  0  0  # atno 17371 bound_to 10713
  141.0670  134.0262  157.3580 LP  0  0  0  0  0  0  0  0  0  0  0  0  # atno 17394 bound_to 11000
  139.9113  135.0190  156.7703 LP  0  0  0  0  0  0  0  0  0  0  0  0  # atno 17395 bound_to 11000

$$$$
