AV-unprocessed.smi:516|AV-procd|sdf|2785|dock6
  -GOLD-   2262023263D 1   1.00000     0.00000
 Structure written by MMmdl.
 45 47  0  0  0  0  0  0  0  0  2 V2000
  148.5304  134.9748  157.8206 C   0  0  0  0  0  0  0  0  0  0  0  0
  149.5134  133.9912  157.5526 O   0  0  0  0  0  0  0  0  0  0  0  0
  150.4232  134.3889  156.5403 C   0  0  0  0  0  0  0  0  0  0  0  0
  149.6876  134.5120  155.1979 C   0  0  0  0  0  0  0  0  0  0  0  0
  149.1224  135.8432  155.0019 N   0  0  0  0  0  0  0  0  0  0  0  0
  147.8421  136.1616  154.6717 C   0  0  0  0  0  0  0  0  0  0  0  0
  146.7611  135.1421  154.4478 C   0  0  0  0  0  0  0  0  0  0  0  0
  146.5234  135.1572  152.9821 N   0  3  0  0  0  0  0  0  0  0  0  0
  146.1976  133.8123  152.4524 C   0  0  0  0  0  0  0  0  0  0  0  0
  146.0223  133.8620  150.9252 C   0  0  0  0  0  0  0  0  0  0  0  0
  145.0126  134.8061  150.5919 O   0  0  0  0  0  0  0  0  0  0  0  0
  145.3535  136.1201  151.0153 C   0  0  0  0  0  0  0  0  0  0  0  0
  145.5059  136.1472  152.5453 C   0  0  0  0  0  0  0  0  0  0  0  0
  147.6177  137.4749  154.5513 N   0  0  0  0  0  0  0  0  0  0  0  0
  148.8564  138.0348  154.8234 C   0  0  0  0  0  0  0  0  0  0  0  0
  149.7729  137.0740  155.0976 C   0  0  0  0  0  0  0  0  0  0  0  0
  151.1726  137.3904  155.4135 C   0  0  0  0  0  0  0  0  0  0  0  0
  152.0235  136.5383  155.6584 O   0  0  0  0  0  0  0  0  0  0  0  0
  151.4295  138.7211  155.4075 N   0  0  0  0  0  0  0  0  0  0  0  0
  150.5533  139.7380  155.1418 C   0  0  0  0  0  0  0  0  0  0  0  0
  150.9440  140.9040  155.1778 O   0  0  0  0  0  0  0  0  0  0  0  0
  149.2567  139.3990  154.8422 N   0  0  0  0  0  0  0  0  0  0  0  0
  148.2436  140.4090  154.5297 C   0  0  0  0  0  0  0  0  0  0  0  0
  152.3775  138.9942  155.6221 H   0  0  0  0  0  0  0  0  0  0  0  0
  147.8641  134.6216  158.6075 H   0  0  0  0  0  0  0  0  0  0  0  0
  147.9271  135.1804  156.9355 H   0  0  0  0  0  0  0  0  0  0  0  0
  148.9865  135.9063  158.1585 H   0  0  0  0  0  0  0  0  0  0  0  0
  150.8775  135.3444  156.8069 H   0  0  0  0  0  0  0  0  0  0  0  0
  151.2288  133.6585  156.4535 H   0  0  0  0  0  0  0  0  0  0  0  0
  150.3632  134.2819  154.3748 H   0  0  0  0  0  0  0  0  0  0  0  0
  148.8965  133.7674  155.1301 H   0  0  0  0  0  0  0  0  0  0  0  0
  147.1358  134.1698  154.7701 H   0  0  0  0  0  0  0  0  0  0  0  0
  145.8527  135.3494  155.0122 H   0  0  0  0  0  0  0  0  0  0  0  0
  146.9939  133.1118  152.7068 H   0  0  0  0  0  0  0  0  0  0  0  0
  145.2838  133.4452  152.9225 H   0  0  0  0  0  0  0  0  0  0  0  0
  146.9601  134.1239  150.4328 H   0  0  0  0  0  0  0  0  0  0  0  0
  145.7281  132.8823  150.5485 H   0  0  0  0  0  0  0  0  0  0  0  0
  146.2726  136.4474  150.5266 H   0  0  0  0  0  0  0  0  0  0  0  0
  144.5656  136.8063  150.7042 H   0  0  0  0  0  0  0  0  0  0  0  0
  144.5492  135.9223  153.0191 H   0  0  0  0  0  0  0  0  0  0  0  0
  145.7891  137.1522  152.8580 H   0  0  0  0  0  0  0  0  0  0  0  0
  148.6196  141.4326  154.5331 H   0  0  0  0  0  0  0  0  0  0  0  0
  147.4304  140.3567  155.2542 H   0  0  0  0  0  0  0  0  0  0  0  0
  147.8245  140.2213  153.5406 H   0  0  0  0  0  0  0  0  0  0  0  0
  147.3995  135.4256  152.5559 H   0  0  0  0  0  0  0  0  0  0  0  0
  1  2  1  0  0  0  0
  1 25  1  0  0  0  0
  1 26  1  0  0  0  0
  1 27  1  0  0  0  0
  2  3  1  0  0  0  0
  3  4  1  0  0  0  0
  3 28  1  0  0  0  0
  3 29  1  0  0  0  0
  4  5  1  0  0  0  0
  4 30  1  0  0  0  0
  4 31  1  0  0  0  0
  5 16  1  0  0  0  0
  5  6  1  0  0  0  0
  6  7  1  0  0  0  0
  6 14  2  0  0  0  0
  7  8  1  0  0  0  0
  7 32  1  0  0  0  0
  7 33  1  0  0  0  0
  8 13  1  0  0  0  0
  8  9  1  0  0  0  0
  8 45  1  0  0  0  0
  9 10  1  0  0  0  0
  9 34  1  0  0  0  0
  9 35  1  0  0  0  0
 10 11  1  0  0  0  0
 10 36  1  0  0  0  0
 10 37  1  0  0  0  0
 11 12  1  0  0  0  0
 12 13  1  0  0  0  0
 12 38  1  0  0  0  0
 12 39  1  0  0  0  0
 13 40  1  0  0  0  0
 13 41  1  0  0  0  0
 14 15  1  0  0  0  0
 15 22  1  0  0  0  0
 15 16  2  0  0  0  0
 16 17  1  0  0  0  0
 17 18  2  0  0  0  0
 17 19  1  0  0  0  0
 19 24  1  0  0  0  0
 19 20  1  0  0  0  0
 20 21  2  0  0  0  0
 20 22  1  0  0  0  0
 22 23  1  0  0  0  0
 23 42  1  0  0  0  0
 23 43  1  0  0  0  0
 23 44  1  0  0  0  0
M  CHG  1   8   1
M  END
> <s_m_source_file>
AV-unprocessed.smi

> <i_m_source_file_index>
516

> <i_lp_mmshare_version>
43012

> <i_f3d_flags>
0

> <s_epik_input>
W0NIM11uMWMoPU8pW25IXWMoPU8pYyhjMTIpbihbQ0gyXVtDSDJdT1tDSDNdKWMobjIpW0NIMl1OM1tDSDJdW0NIMl1PW0NIMl1bQ0gyXTM=

> <s_epik_cmdline>
J2VwaWtfcHl0aG9uJywgJy1waCcsICc3LjAnLCAnLXRuJywgJzgnLCAnLW1hJywgJzIwMCcsICctbWV0YWxfYmluZGluZycsICctaW1hZScsICc8aW5maWxlLm1hZT4nLCAnLW9tYWUnLCAnPG91dGZpbGUubWFlPic=

> <r_epik_Ionization_Penalty>
1.12077

> <r_epik_Ionization_Penalty_Charging>
1.12077

> <r_epik_Ionization_Penalty_Neutral>
4.43299e-09

> <r_epik_State_Penalty>
1.17893

> <r_epik_Charging_Adjusted_Penalty>
2.29969

> <i_epik_Tot_Q>
1

> <i_epik_Tot_abs_Q>
1

> <r_epik_Metal_State_Penalty>
1.32838

> <b_epik_Metal_Only>
0

> <s_lp_Force_Field>
OPLS_2005

> <r_lp_Energy>
36.1073

> <b_lp_Chiralities_Consistent>
1

> <s_lp_Variant>
AV-unprocessed.smi:516-2

> <Gold.Version>
5.8.1

> <Gold.Id.Protein>
6NUR|6NUR_protein|mol2

> <Gold.PLP.Fitness>
39.5456

> <Gold.PLP.PLP>
-26.5185

> <Gold.PLP.part.hbond>
-3.8939

> <Gold.PLP.part.metal>
0.0000

> <Gold.PLP.part.buried>
-2.0162

> <Gold.PLP.part.nonpolar>
-22.0669

> <Gold.PLP.part.repulsive>
1.3142

> <Gold.PLP.ligand.clash>
0.0000

> <Gold.PLP.ligand.torsion>
0.7747

> <Gold.PLP.Chemscore.Hbond>
4.8393

> <Gold.PLP.Chemscore.CHOScore>
0.0000

> <Gold.PLP.Chemscore.Metal>
0.0000

> <Gold.Chemscore.Hbonds>
donor molecule, donor type, donor heavy atom, donor atom, acceptor molecule, acceptor atom, score
      L1  H     8    45       P1  7948  2.00
      P1  H  6896  6909       L1     2  0.62
      P1  H  7989  7998       L1    21  0.56
      P1  H 10752 10763       L1    18  1.00

> <Gold.PLP.Chemscore.Internal.Correction>
0.0588

> <Gold.Rescore>
     Score         DG    S(hbond)    S(metal)    S(lipo)     H(rot)  DE(clash)    DE(int)     intcor
     11.46     -14.00       2.62        0.00      44.15       2.11       0.16       2.38       ----

> <Gold.Chemscore.Fitness>
11.4615

> <Gold.Chemscore.DG>
-14.0032

> <Gold.Chemscore.ZeroCoef>
-5.4800

> <Gold.Chemscore.Hbond>
2.6202

> <Gold.Chemscore.Metal>
0.0000

> <Gold.Chemscore.Lipo>
44.1467

> <Gold.Chemscore.Internal_Hbond>
0.0000

> <Gold.Chemscore.DEClash>
0.1641

> <Gold.Chemscore.DEInternal>
2.3776

> <Gold.Chemscore.Rot>
2.1069

> <Gold.Chemscore.Internal.Correction>
   9.000000E+99

> <Gold.Chemscore.Hbonds>
donor molecule, donor type, donor heavy atom, donor atom, acceptor molecule, acceptor atom, score
      L1  H     8    45       P1  7948  1.00
      P1  H  6896  6909       L1     2  0.14
      P1  H  7989  7998       L1    21  0.07
      P1  H 10752 10763       L1    18  0.99

> <Gold.Chemscore.Hbond.Weighted>
-8.7516

> <Gold.Chemscore.Metal.Weighted>
-0.0000

> <Gold.Chemscore.Lipo.Weighted>
-5.1652

> <Gold.Chemscore.Internal_Hbond.Weighted>
0.0000

> <Gold.Chemscore.DEClash.Weighted>
0.1641

> <Gold.Chemscore.DEInternal.Weighted>
2.3776

> <Gold.Chemscore.Rot.Weighted>
5.3936

> <Gold.Chemscore.Internal.Correction.Weighted>
   9.000000E+99

> <Gold.Protein.RotatedTorsions>
[ 6907 6896 6895 6894 ] final   -8.06 input  -60.11 | X-H torsion
[ 7974 7965 7964 7962 ] final -131.89 input  175.53 | X-H torsion
[ 8008 7997 7996 7995 ] final    9.46 input   59.86 | X-H torsion
[ 10167 10162 10161 10158 ] final    3.01 input  -65.29 | X-H torsion
[ 10718 10713 10712 10709 ] final  -41.77 input   66.30 | X-H torsion
[ 10763 10752 10751 10750 ] final   77.39 input  -60.55 | X-H torsion
[ 11005 11000 10999 10996 ] final  -19.46 input  -57.11 | X-H torsion

> <Gold.Protein.ActiveResidues>
 VAL166  LYS551  ARG553  GLY616  TRP617  ASP618  TYR619  PRO620  LYS621  CYS622 
 ASP623  PHE694  ASN695  SER759  ASP760  ASP761  ALA762  ILE779  LEU786  VAL792 
 PHE793  MET794  SER795  GLU796  ALA797  LYS798  CYS799  TRP800  GLU811  SER814 

> <Gold.Protein.RotatedAtoms>
  151.4397  135.1019  159.9666 H   0  0  0  0  0  0  0  0  0  0  0  0  # atno 6907 bound_to 6896
  152.4927  133.8540  159.7226 H   0  0  0  0  0  0  0  0  0  0  0  0  # atno 6908 bound_to 6896
  150.9097  133.6955  159.2885 H   0  0  0  0  0  0  0  0  0  0  0  0  # atno 6909 bound_to 6896
  144.9336  140.7158  143.4890 H   0  0  0  0  0  0  0  0  0  0  0  0  # atno 7974 bound_to 7965
  154.7803  140.2817  155.6069 H   0  0  0  0  0  0  0  0  0  0  0  0  # atno 8008 bound_to 7997
  156.2949  140.2624  156.2554 H   0  0  0  0  0  0  0  0  0  0  0  0  # atno 8009 bound_to 7997
  154.9793  140.0375  157.2260 H   0  0  0  0  0  0  0  0  0  0  0  0  # atno 8010 bound_to 7997
  140.6607  143.7311  150.7734 H   0  0  0  0  0  0  0  0  0  0  0  0  # atno 10167 bound_to 10162
  156.2668  130.4202  149.8482 H   0  0  0  0  0  0  0  0  0  0  0  0  # atno 10718 bound_to 10713
  153.0795  135.4916  154.8473 H   0  0  0  0  0  0  0  0  0  0  0  0  # atno 10763 bound_to 10752
  154.7132  135.3024  154.9167 H   0  0  0  0  0  0  0  0  0  0  0  0  # atno 10764 bound_to 10752
  153.9854  135.6784  153.4805 H   0  0  0  0  0  0  0  0  0  0  0  0  # atno 10765 bound_to 10752
  140.8369  133.7955  155.9818 H   0  0  0  0  0  0  0  0  0  0  0  0  # atno 11005 bound_to 11000
  145.3102  139.1821  143.4643 LP  0  0  0  0  0  0  0  0  0  0  0  0  # atno 17320 bound_to 7965
  146.3257  140.3105  142.8626 LP  0  0  0  0  0  0  0  0  0  0  0  0  # atno 17321 bound_to 7965
  140.0979  143.4816  152.2442 LP  0  0  0  0  0  0  0  0  0  0  0  0  # atno 17342 bound_to 10162
  139.5840  144.7523  151.3566 LP  0  0  0  0  0  0  0  0  0  0  0  0  # atno 17343 bound_to 10162
  156.5978  130.8533  151.3424 LP  0  0  0  0  0  0  0  0  0  0  0  0  # atno 17370 bound_to 10713
  157.7270  130.9637  150.1680 LP  0  0  0  0  0  0  0  0  0  0  0  0  # atno 17371 bound_to 10713
  140.8938  134.2463  157.5080 LP  0  0  0  0  0  0  0  0  0  0  0  0  # atno 17394 bound_to 11000
  139.8704  134.9674  156.4596 LP  0  0  0  0  0  0  0  0  0  0  0  0  # atno 17395 bound_to 11000

$$$$
