AV-unprocessed.smi:2944|AV-procd|sdf|11273|dock10
  -GOLD-   2272016163D 1   1.00000     0.00000
 Structure written by MMmdl.
 44 46  0  0  0  0  0  0  0  0  1 V2000
  147.8716  141.1495  153.7973 C   0  0  0  0  0  0  0  0  0  0  0  0
  149.2014  141.5492  154.0768 O   0  0  0  0  0  0  0  0  0  0  0  0
  149.5575  141.3444  155.4344 C   0  0  0  0  0  0  0  0  0  0  0  0
  150.7646  142.2242  155.7889 C   0  0  0  0  0  0  0  0  0  0  0  0
  151.2971  141.9152  157.1078 N   0  0  0  0  0  0  0  0  0  0  0  0
  151.5818  140.6938  157.6240 C   0  0  0  0  0  0  0  0  0  0  0  0
  151.3305  139.2167  156.6774 S   0  0  0  0  0  0  0  0  0  0  0  0
  150.0387  138.3929  157.6677 C   0  0  1  0  0  0  0  0  0  0  0  0
  148.6525  138.7920  157.1394 C   0  0  0  0  0  0  0  0  0  0  0  0
  150.1850  136.8537  157.6531 C   0  0  0  0  0  0  0  0  0  0  0  0
  150.4844  136.3055  158.7162 O   0  0  0  0  0  0  0  0  0  0  0  0
  149.9495  136.1138  156.5353 N   0  0  0  0  0  0  0  0  0  0  0  0
  149.8654  134.6547  156.6128 C   0  0  0  0  0  0  0  0  0  0  0  0
  149.5279  134.2180  155.1925 C   0  0  0  0  0  0  0  0  0  0  0  0
  149.5396  135.4734  154.4845 N   0  0  0  0  0  0  0  0  0  0  0  0
  149.8049  136.5316  155.2545 C   0  0  0  0  0  0  0  0  0  0  0  0
  149.9060  137.6734  154.8078 O   0  0  0  0  0  0  0  0  0  0  0  0
  152.0623  140.6993  158.8694 N   0  0  0  0  0  0  0  0  0  0  0  0
  152.0802  142.0411  159.1905 C   0  0  0  0  0  0  0  0  0  0  0  0
  152.4810  142.6961  160.3770 C   0  0  0  0  0  0  0  0  0  0  0  0
  152.4049  144.1009  160.4763 C   0  0  0  0  0  0  0  0  0  0  0  0
  151.9274  144.8682  159.3941 C   0  0  0  0  0  0  0  0  0  0  0  0
  151.5243  144.2346  158.2028 C   0  0  0  0  0  0  0  0  0  0  0  0
  151.6042  142.8320  158.1083 C   0  0  0  0  0  0  0  0  0  0  0  0
  147.6544  141.3142  152.7419 H   0  0  0  0  0  0  0  0  0  0  0  0
  147.1555  141.7275  154.3826 H   0  0  0  0  0  0  0  0  0  0  0  0
  147.7246  140.0899  154.0104 H   0  0  0  0  0  0  0  0  0  0  0  0
  148.7140  141.5871  156.0827 H   0  0  0  0  0  0  0  0  0  0  0  0
  149.8036  140.2948  155.6010 H   0  0  0  0  0  0  0  0  0  0  0  0
  151.5544  142.1092  155.0463 H   0  0  0  0  0  0  0  0  0  0  0  0
  150.4769  143.2756  155.7655 H   0  0  0  0  0  0  0  0  0  0  0  0
  150.1599  138.8047  158.6662 H   0  0  0  0  0  0  0  0  0  0  0  0
  147.8558  138.3500  157.7389 H   0  0  0  0  0  0  0  0  0  0  0  0
  148.5094  138.4712  156.1067 H   0  0  0  0  0  0  0  0  0  0  0  0
  148.5214  139.8740  157.1711 H   0  0  0  0  0  0  0  0  0  0  0  0
  150.8182  134.2312  156.9364 H   0  0  0  0  0  0  0  0  0  0  0  0
  149.0915  134.3416  157.3160 H   0  0  0  0  0  0  0  0  0  0  0  0
  150.2712  133.5332  154.7831 H   0  0  0  0  0  0  0  0  0  0  0  0
  148.5422  133.7552  155.1293 H   0  0  0  0  0  0  0  0  0  0  0  0
  149.3961  135.5306  153.4865 H   0  0  0  0  0  0  0  0  0  0  0  0
  152.8465  142.1168  161.2119 H   0  0  0  0  0  0  0  0  0  0  0  0
  152.7125  144.5921  161.3877 H   0  0  0  0  0  0  0  0  0  0  0  0
  151.8701  145.9437  159.4787 H   0  0  0  0  0  0  0  0  0  0  0  0
  151.1553  144.8198  157.3737 H   0  0  0  0  0  0  0  0  0  0  0  0
  1  2  1  0  0  0  0
  1 25  1  0  0  0  0
  1 26  1  0  0  0  0
  1 27  1  0  0  0  0
  2  3  1  0  0  0  0
  3  4  1  0  0  0  0
  3 28  1  0  0  0  0
  3 29  1  0  0  0  0
  4  5  1  0  0  0  0
  4 30  1  0  0  0  0
  4 31  1  0  0  0  0
  5 24  1  0  0  0  0
  5  6  1  0  0  0  0
  6  7  1  0  0  0  0
  6 18  2  0  0  0  0
  7  8  1  0  0  0  0
  8  9  1  0  0  0  0
  8 10  1  0  0  0  0
  8 32  1  0  0  0  0
  9 33  1  0  0  0  0
  9 34  1  0  0  0  0
  9 35  1  0  0  0  0
 10 11  2  0  0  0  0
 10 12  1  0  0  0  0
 12 16  1  0  0  0  0
 12 13  1  0  0  0  0
 13 14  1  0  0  0  0
 13 36  1  0  0  0  0
 13 37  1  0  0  0  0
 14 15  1  0  0  0  0
 14 38  1  0  0  0  0
 14 39  1  0  0  0  0
 15 16  1  0  0  0  0
 15 40  1  0  0  0  0
 16 17  2  0  0  0  0
 18 19  1  0  0  0  0
 19 24  2  0  0  0  0
 19 20  1  0  0  0  0
 20 21  2  0  0  0  0
 20 41  1  0  0  0  0
 21 22  1  0  0  0  0
 21 42  1  0  0  0  0
 22 23  2  0  0  0  0
 22 43  1  0  0  0  0
 23 24  1  0  0  0  0
 23 44  1  0  0  0  0
M  END
> <s_m_source_file>
AV-unprocessed.smi

> <i_m_source_file_index>
2944

> <i_lp_mmshare_version>
43012

> <i_f3d_flags>
0

> <s_epik_input>
W2NIXTFbY0hdW2NIXVtjSF1jKGMxMiluKFtDSDJdW0NIMl1PW0NIM10pYyhuMilTW0NASF0oW0NIM10pQyg9TylOM1tDSDJdW0NIMl1bTkhdQzM9Tw==

> <s_epik_cmdline>
J2VwaWtfcHl0aG9uJywgJy1waCcsICc3LjAnLCAnLXRuJywgJzgnLCAnLW1hJywgJzIwMCcsICctbWV0YWxfYmluZGluZycsICctaW1hZScsICc8aW5maWxlLm1hZT4nLCAnLW9tYWUnLCAnPG91dGZpbGUubWFlPic=

> <r_lp_tautomer_probability>
0.9999

> <r_epik_Ionization_Penalty>
0.0250226

> <r_epik_Ionization_Penalty_Charging>
0

> <r_epik_Ionization_Penalty_Neutral>
0.0250226

> <r_epik_State_Penalty>
0.0203222

> <r_epik_Charging_Adjusted_Penalty>
0.0203222

> <i_epik_Tot_Q>
0

> <i_epik_Tot_abs_Q>
0

> <r_epik_Metal_State_Penalty>
0.0194901

> <b_epik_Metal_Only>
0

> <s_lp_Force_Field>
OPLS_2005

> <r_lp_Energy>
41.7508

> <b_lp_Chiralities_Consistent>
1

> <s_lp_Variant>
AV-unprocessed.smi:2944-2

> <Gold.Version>
5.8.1

> <Gold.Id.Protein>
6NUR|6NUR_protein|mol2

> <Gold.PLP.Fitness>
48.6786

> <Gold.PLP.PLP>
-42.2426

> <Gold.PLP.part.hbond>
-3.8658

> <Gold.PLP.part.metal>
0.0000

> <Gold.PLP.part.buried>
-6.3114

> <Gold.PLP.part.nonpolar>
-32.4608

> <Gold.PLP.part.repulsive>
0.3991

> <Gold.PLP.ligand.clash>
0.0000

> <Gold.PLP.ligand.torsion>
0.8468

> <Gold.PLP.Chemscore.Hbond>
2.6400

> <Gold.PLP.Chemscore.CHOScore>
0.0000

> <Gold.PLP.Chemscore.Metal>
0.0000

> <Gold.Chemscore.Hbonds>
donor molecule, donor type, donor heavy atom, donor atom, acceptor molecule, acceptor atom, score
      L1  H    15    40       P1  7948  1.00
      P1  H  6896  6909       L1    11  1.00
      P1  H  8011  8017       L1     2  0.63

> <Gold.PLP.Chemscore.Internal.Correction>
0.2096

> <Gold.Rescore>
     Score         DG    S(hbond)    S(metal)    S(lipo)     H(rot)  DE(clash)    DE(int)     intcor
     14.29     -18.95       2.04        0.00     105.76       2.24       0.13       4.53       ----

> <Gold.Chemscore.Fitness>
14.2922

> <Gold.Chemscore.DG>
-18.9515

> <Gold.Chemscore.ZeroCoef>
-5.4800

> <Gold.Chemscore.Hbond>
2.0424

> <Gold.Chemscore.Metal>
0.0000

> <Gold.Chemscore.Lipo>
105.7553

> <Gold.Chemscore.Internal_Hbond>
0.0000

> <Gold.Chemscore.DEClash>
0.1297

> <Gold.Chemscore.DEInternal>
4.5295

> <Gold.Chemscore.Rot>
2.2357

> <Gold.Chemscore.Internal.Correction>
   9.000000E+99

> <Gold.Chemscore.Hbonds>
donor molecule, donor type, donor heavy atom, donor atom, acceptor molecule, acceptor atom, score
      L1  H    15    40       P1  7948  0.26
      P1  H  6896  6909       L1    11  0.95
      P1  H  8011  8017       L1     2  0.23

> <Gold.Chemscore.Hbond.Weighted>
-6.8216

> <Gold.Chemscore.Metal.Weighted>
-0.0000

> <Gold.Chemscore.Lipo.Weighted>
-12.3734

> <Gold.Chemscore.Internal_Hbond.Weighted>
0.0000

> <Gold.Chemscore.DEClash.Weighted>
0.1297

> <Gold.Chemscore.DEInternal.Weighted>
4.5295

> <Gold.Chemscore.Rot.Weighted>
5.7234

> <Gold.Chemscore.Internal.Correction.Weighted>
   9.000000E+99

> <Gold.Protein.RotatedTorsions>
[ 6907 6896 6895 6894 ] final   77.93 input  -60.11 | X-H torsion
[ 7974 7965 7964 7962 ] final   57.03 input  175.53 | X-H torsion
[ 8008 7997 7996 7995 ] final  155.15 input   59.86 | X-H torsion
[ 10167 10162 10161 10158 ] final  -31.18 input  -65.29 | X-H torsion
[ 10718 10713 10712 10709 ] final   84.16 input   66.30 | X-H torsion
[ 10763 10752 10751 10750 ] final  -14.17 input  -60.55 | X-H torsion
[ 11005 11000 10999 10996 ] final -104.39 input  -57.11 | X-H torsion

> <Gold.Protein.ActiveResidues>
 VAL166  LYS551  ARG553  GLY616  TRP617  ASP618  TYR619  PRO620  LYS621  CYS622 
 ASP623  PHE694  ASN695  SER759  ASP760  ASP761  ALA762  ILE779  LEU786  VAL792 
 PHE793  MET794  SER795  GLU796  ALA797  LYS798  CYS799  TRP800  GLU811  SER814 

> <Gold.Protein.RotatedAtoms>
  152.5138  134.3742  159.9328 H   0  0  0  0  0  0  0  0  0  0  0  0  # atno 6907 bound_to 6896
  151.3697  133.3853  159.2706 H   0  0  0  0  0  0  0  0  0  0  0  0  # atno 6908 bound_to 6896
  150.9587  134.8998  159.7776 H   0  0  0  0  0  0  0  0  0  0  0  0  # atno 6909 bound_to 6896
  145.9335  139.3827  143.0407 H   0  0  0  0  0  0  0  0  0  0  0  0  # atno 7974 bound_to 7965
  156.2493  140.1947  156.6757 H   0  0  0  0  0  0  0  0  0  0  0  0  # atno 8008 bound_to 7997
  154.6360  140.0589  156.9814 H   0  0  0  0  0  0  0  0  0  0  0  0  # atno 8009 bound_to 7997
  155.1637  140.3262  155.4409 H   0  0  0  0  0  0  0  0  0  0  0  0  # atno 8010 bound_to 7997
  140.7240  143.3791  151.1634 H   0  0  0  0  0  0  0  0  0  0  0  0  # atno 10167 bound_to 10162
  157.6893  131.0121  150.2632 H   0  0  0  0  0  0  0  0  0  0  0  0  # atno 10718 bound_to 10713
  153.5242  135.7015  153.5716 H   0  0  0  0  0  0  0  0  0  0  0  0  # atno 10763 bound_to 10752
  153.3752  135.3934  155.1817 H   0  0  0  0  0  0  0  0  0  0  0  0  # atno 10764 bound_to 10752
  154.8691  135.3821  154.4733 H   0  0  0  0  0  0  0  0  0  0  0  0  # atno 10765 bound_to 10752
  141.1102  133.8720  157.1605 H   0  0  0  0  0  0  0  0  0  0  0  0  # atno 11005 bound_to 11000
  145.8395  140.9588  143.0807 LP  0  0  0  0  0  0  0  0  0  0  0  0  # atno 17320 bound_to 7965
  144.6768  140.0266  143.7483 LP  0  0  0  0  0  0  0  0  0  0  0  0  # atno 17321 bound_to 7965
  139.7377  143.8973  152.3040 LP  0  0  0  0  0  0  0  0  0  0  0  0  # atno 17342 bound_to 10162
  139.8784  144.7031  150.8906 LP  0  0  0  0  0  0  0  0  0  0  0  0  # atno 17343 bound_to 10162
  156.3207  130.3785  149.7577 LP  0  0  0  0  0  0  0  0  0  0  0  0  # atno 17370 bound_to 10713
  156.5148  130.8188  151.3182 LP  0  0  0  0  0  0  0  0  0  0  0  0  # atno 17371 bound_to 10713
  139.9992  135.0034  157.0152 LP  0  0  0  0  0  0  0  0  0  0  0  0  # atno 17394 bound_to 11000
  140.4795  134.1304  155.7214 LP  0  0  0  0  0  0  0  0  0  0  0  0  # atno 17395 bound_to 11000

$$$$
