AV-unprocessed.smi:3335|AV-procd|sdf|12846|dock4
  -GOLD-   2272019233D 1   1.00000     0.00000
 Structure written by MMmdl.
 46 47  0  0  0  0  0  0  0  0  1 V2000
  151.4820  145.8190  160.2753 C   0  0  0  0  0  0  0  0  0  0  0  0
  151.6851  144.5075  159.5732 C   0  0  0  0  0  0  0  0  0  0  0  0
  151.1464  144.0906  158.3236 C   0  0  0  0  0  0  0  0  0  0  0  0
  151.5291  142.8723  157.9808 N   0  0  0  0  0  0  0  0  0  0  0  0
  152.3188  142.4604  158.9987 N   0  0  0  0  0  0  0  0  0  0  0  0
  152.9646  141.1498  158.9625 C   0  0  1  0  0  0  0  0  0  0  0  0
  153.7009  140.8247  160.2777 C   0  0  0  0  0  0  0  0  0  0  0  0
  152.0194  140.0076  158.4995 C   0  0  2  0  0  0  0  0  0  0  0  0
  152.6287  138.6055  158.6745 C   0  0  0  0  0  0  0  0  0  0  0  0
  151.6690  140.1740  157.0902 N   0  0  0  0  0  0  0  0  0  0  0  0
  150.3880  139.5628  156.6998 C   0  0  2  0  0  0  0  0  0  0  0  0
  150.4944  138.0270  156.6468 C   0  0  0  0  0  0  0  0  0  0  0  0
  149.9332  140.1009  155.3284 C   0  0  0  0  0  0  0  0  0  0  0  0
  150.6534  139.9146  154.3456 O   0  0  0  0  0  0  0  0  0  0  0  0
  148.7570  140.7592  155.2300 N   0  0  0  0  0  0  0  0  0  0  0  0
  147.8641  140.9726  156.3680 C   0  0  0  0  0  0  0  0  0  0  0  0
  146.5714  141.5437  155.7851 C   0  0  0  0  0  0  0  0  0  0  0  0
  147.0125  142.2115  154.4909 C   0  0  0  0  0  0  0  0  0  0  0  0
  148.1998  141.3699  154.0227 C   0  0  0  0  0  0  0  0  0  0  0  0
  152.4320  143.4347  159.9694 C   0  0  0  0  0  0  0  0  0  0  0  0
  150.6692  146.3951  159.8326 H   0  0  0  0  0  0  0  0  0  0  0  0
  152.3769  146.4398  160.2313 H   0  0  0  0  0  0  0  0  0  0  0  0
  151.2387  145.6781  161.3286 H   0  0  0  0  0  0  0  0  0  0  0  0
  150.4950  144.6364  157.6570 H   0  0  0  0  0  0  0  0  0  0  0  0
  153.7433  141.2270  158.2022 H   0  0  0  0  0  0  0  0  0  0  0  0
  154.2559  139.8903  160.1922 H   0  0  0  0  0  0  0  0  0  0  0  0
  153.0126  140.7205  161.1172 H   0  0  0  0  0  0  0  0  0  0  0  0
  154.4147  141.6091  160.5304 H   0  0  0  0  0  0  0  0  0  0  0  0
  151.1252  140.0581  159.1226 H   0  0  0  0  0  0  0  0  0  0  0  0
  152.9319  138.4387  159.7083 H   0  0  0  0  0  0  0  0  0  0  0  0
  153.5060  138.4605  158.0434 H   0  0  0  0  0  0  0  0  0  0  0  0
  151.9098  137.8274  158.4173 H   0  0  0  0  0  0  0  0  0  0  0  0
  152.4307  139.8733  156.4987 H   0  0  0  0  0  0  0  0  0  0  0  0
  149.6499  139.8452  157.4497 H   0  0  0  0  0  0  0  0  0  0  0  0
  149.5628  137.5754  156.3043 H   0  0  0  0  0  0  0  0  0  0  0  0
  150.7088  137.6056  157.6288 H   0  0  0  0  0  0  0  0  0  0  0  0
  151.2862  137.7051  155.9689 H   0  0  0  0  0  0  0  0  0  0  0  0
  147.6756  140.0501  156.9195 H   0  0  0  0  0  0  0  0  0  0  0  0
  148.3247  141.6881  157.0509 H   0  0  0  0  0  0  0  0  0  0  0  0
  145.8808  140.7302  155.5588 H   0  0  0  0  0  0  0  0  0  0  0  0
  146.0675  142.2302  156.4660 H   0  0  0  0  0  0  0  0  0  0  0  0
  146.2150  142.2673  153.7492 H   0  0  0  0  0  0  0  0  0  0  0  0
  147.3457  143.2287  154.7013 H   0  0  0  0  0  0  0  0  0  0  0  0
  148.9292  141.9854  153.4950 H   0  0  0  0  0  0  0  0  0  0  0  0
  147.8625  140.5819  153.3479 H   0  0  0  0  0  0  0  0  0  0  0  0
  153.0348  143.2869  160.8535 H   0  0  0  0  0  0  0  0  0  0  0  0
  1  2  1  0  0  0  0
  1 21  1  0  0  0  0
  1 22  1  0  0  0  0
  1 23  1  0  0  0  0
  2 20  2  0  0  0  0
  2  3  1  0  0  0  0
  3  4  2  0  0  0  0
  3 24  1  0  0  0  0
  4  5  1  0  0  0  0
  5  6  1  0  0  0  0
  5 20  1  0  0  0  0
  6  7  1  0  0  0  0
  6  8  1  0  0  0  0
  6 25  1  0  0  0  0
  7 26  1  0  0  0  0
  7 27  1  0  0  0  0
  7 28  1  0  0  0  0
  8  9  1  0  0  0  0
  8 10  1  0  0  0  0
  8 29  1  0  0  0  0
  9 30  1  0  0  0  0
  9 31  1  0  0  0  0
  9 32  1  0  0  0  0
 10 11  1  0  0  0  0
 10 33  1  0  0  0  0
 11 12  1  0  0  0  0
 11 13  1  0  0  0  0
 11 34  1  0  0  0  0
 12 35  1  0  0  0  0
 12 36  1  0  0  0  0
 12 37  1  0  0  0  0
 13 14  2  0  0  0  0
 13 15  1  0  0  0  0
 15 19  1  0  0  0  0
 15 16  1  0  0  0  0
 16 17  1  0  0  0  0
 16 38  1  0  0  0  0
 16 39  1  0  0  0  0
 17 18  1  0  0  0  0
 17 40  1  0  0  0  0
 17 41  1  0  0  0  0
 18 19  1  0  0  0  0
 18 42  1  0  0  0  0
 18 43  1  0  0  0  0
 19 44  1  0  0  0  0
 19 45  1  0  0  0  0
 20 46  1  0  0  0  0
M  END
> <s_m_source_file>
AV-unprocessed.smi

> <i_m_source_file_index>
3335

> <i_lp_mmshare_version>
43012

> <i_f3d_flags>
0

> <s_epik_input>
W0NIM11jMVtjSF1ubihbY0hdMSlbQ0BIXShbQ0gzXSlbQ0BIXShbQ0gzXSlbTkhdW0NASF0oW0NIM10pQyg9TylOMltDSDJdW0NIMl1bQ0gyXVtDSDJdMg==

> <s_epik_cmdline>
J2VwaWtfcHl0aG9uJywgJy1waCcsICc3LjAnLCAnLXRuJywgJzgnLCAnLW1hJywgJzIwMCcsICctbWV0YWxfYmluZGluZycsICctaW1hZScsICc8aW5maWxlLm1hZT4nLCAnLW9tYWUnLCAnPG91dGZpbGUubWFlPic=

> <r_lp_tautomer_probability>
1

> <r_epik_Ionization_Penalty>
0.918803

> <r_epik_Ionization_Penalty_Charging>
0

> <r_epik_Ionization_Penalty_Neutral>
0.918803

> <r_epik_State_Penalty>
0.958258

> <r_epik_Charging_Adjusted_Penalty>
0.958258

> <i_epik_Tot_Q>
0

> <i_epik_Tot_abs_Q>
0

> <r_epik_Metal_State_Penalty>
0.956786

> <b_epik_Metal_Only>
0

> <s_lp_Force_Field>
OPLS_2005

> <r_lp_Energy>
40.4571

> <b_lp_Chiralities_Consistent>
1

> <s_lp_Variant>
AV-unprocessed.smi:3335-10

> <Gold.Version>
5.8.1

> <Gold.Id.Protein>
6NUR|6NUR_protein|mol2

> <Gold.PLP.Fitness>
45.6591

> <Gold.PLP.PLP>
-41.0826

> <Gold.PLP.part.hbond>
-1.0000

> <Gold.PLP.part.metal>
0.0000

> <Gold.PLP.part.buried>
-3.7099

> <Gold.PLP.part.nonpolar>
-36.6175

> <Gold.PLP.part.repulsive>
0.1840

> <Gold.PLP.ligand.clash>
0.0000

> <Gold.PLP.ligand.torsion>
0.8073

> <Gold.PLP.Chemscore.Hbond>
1.0000

> <Gold.PLP.Chemscore.CHOScore>
1.0000

> <Gold.PLP.Chemscore.Metal>
0.0000

> <Gold.Chemscore.Hbonds>
donor molecule, donor type, donor heavy atom, donor atom, acceptor molecule, acceptor atom, score
      P1  H  7989  7998       L1    14  1.00
      L1  C     3    24       P1  8028  1.00
      L1  C     3    24       P1  8029  0.01

> <Gold.PLP.Chemscore.Internal.Correction>
0.1911

> <Gold.Rescore>
     Score         DG    S(hbond)    S(metal)    S(lipo)     H(rot)  DE(clash)    DE(int)     intcor
     15.65     -16.54       0.97        0.00     102.23       1.62       0.02       0.88       ----

> <Gold.Chemscore.Fitness>
15.6464

> <Gold.Chemscore.DG>
-16.5438

> <Gold.Chemscore.ZeroCoef>
-5.4800

> <Gold.Chemscore.Hbond>
0.9734

> <Gold.Chemscore.Metal>
0.0000

> <Gold.Chemscore.Lipo>
102.2302

> <Gold.Chemscore.Internal_Hbond>
0.0000

> <Gold.Chemscore.DEClash>
0.0189

> <Gold.Chemscore.DEInternal>
0.8786

> <Gold.Chemscore.Rot>
1.6204

> <Gold.Chemscore.Internal.Correction>
   9.000000E+99

> <Gold.Chemscore.Hbonds>
donor molecule, donor type, donor heavy atom, donor atom, acceptor molecule, acceptor atom, score
      P1  H  7989  7998       L1    14  0.99

> <Gold.Chemscore.Hbond.Weighted>
-3.2511

> <Gold.Chemscore.Metal.Weighted>
-0.0000

> <Gold.Chemscore.Lipo.Weighted>
-11.9609

> <Gold.Chemscore.Internal_Hbond.Weighted>
0.0000

> <Gold.Chemscore.DEClash.Weighted>
0.0189

> <Gold.Chemscore.DEInternal.Weighted>
0.8786

> <Gold.Chemscore.Rot.Weighted>
4.1482

> <Gold.Chemscore.Internal.Correction.Weighted>
   9.000000E+99

> <Gold.Protein.RotatedTorsions>
[ 6907 6896 6895 6894 ] final  103.22 input  -60.11 | X-H torsion
[ 7974 7965 7964 7962 ] final    1.32 input  175.53 | X-H torsion
[ 8008 7997 7996 7995 ] final  -88.04 input   59.86 | X-H torsion
[ 10167 10162 10161 10158 ] final -134.57 input  -65.29 | X-H torsion
[ 10718 10713 10712 10709 ] final   96.48 input   66.30 | X-H torsion
[ 10763 10752 10751 10750 ] final -155.24 input  -60.55 | X-H torsion
[ 11005 11000 10999 10996 ] final   89.21 input  -57.11 | X-H torsion

> <Gold.Protein.ActiveResidues>
 VAL166  LYS551  ARG553  GLY616  TRP617  ASP618  TYR619  PRO620  LYS621  CYS622 
 ASP623  PHE694  ASN695  SER759  ASP760  ASP761  ALA762  ILE779  LEU786  VAL792 
 PHE793  MET794  SER795  GLU796  ALA797  LYS798  CYS799  TRP800  GLU811  SER814 

> <Gold.Protein.RotatedAtoms>
  152.5301  133.9858  159.7827 H   0  0  0  0  0  0  0  0  0  0  0  0  # atno 6907 bound_to 6896
  151.0103  133.5964  159.2690 H   0  0  0  0  0  0  0  0  0  0  0  0  # atno 6908 bound_to 6896
  151.3041  135.0783  159.9302 H   0  0  0  0  0  0  0  0  0  0  0  0  # atno 6909 bound_to 6896
  146.2439  140.1004  142.8348 H   0  0  0  0  0  0  0  0  0  0  0  0  # atno 7974 bound_to 7965
  154.6702  140.0558  157.0157 H   0  0  0  0  0  0  0  0  0  0  0  0  # atno 8008 bound_to 7997
  155.1100  140.3237  155.4505 H   0  0  0  0  0  0  0  0  0  0  0  0  # atno 8009 bound_to 7997
  156.2654  140.2016  156.6224 H   0  0  0  0  0  0  0  0  0  0  0  0  # atno 8010 bound_to 7997
  139.8867  143.6773  152.2619 H   0  0  0  0  0  0  0  0  0  0  0  0  # atno 10167 bound_to 10162
  157.6926  131.0579  150.4497 H   0  0  0  0  0  0  0  0  0  0  0  0  # atno 10718 bound_to 10713
  154.7801  135.3172  154.8008 H   0  0  0  0  0  0  0  0  0  0  0  0  # atno 10763 bound_to 10752
  153.8722  135.6843  153.4778 H   0  0  0  0  0  0  0  0  0  0  0  0  # atno 10764 bound_to 10752
  153.1435  135.4729  154.9468 H   0  0  0  0  0  0  0  0  0  0  0  0  # atno 10765 bound_to 10752
  139.8880  134.8537  156.3109 H   0  0  0  0  0  0  0  0  0  0  0  0  # atno 11005 bound_to 11000
  145.0573  140.9062  143.4959 LP  0  0  0  0  0  0  0  0  0  0  0  0  # atno 17320 bound_to 7965
  145.1113  139.2755  143.5636 LP  0  0  0  0  0  0  0  0  0  0  0  0  # atno 17321 bound_to 7965
  139.7147  144.7614  151.1054 LP  0  0  0  0  0  0  0  0  0  0  0  0  # atno 17342 bound_to 10162
  140.7734  143.5285  150.9451 LP  0  0  0  0  0  0  0  0  0  0  0  0  # atno 17343 bound_to 10162
  156.4849  130.4082  149.6440 LP  0  0  0  0  0  0  0  0  0  0  0  0  # atno 17370 bound_to 10713
  156.3471  130.7413  151.2367 LP  0  0  0  0  0  0  0  0  0  0  0  0  # atno 17371 bound_to 10713
  140.9851  133.7243  156.0729 LP  0  0  0  0  0  0  0  0  0  0  0  0  # atno 17394 bound_to 11000
  140.7699  134.3844  157.5509 LP  0  0  0  0  0  0  0  0  0  0  0  0  # atno 17395 bound_to 11000

$$$$
