AV-unprocessed.smi:2845|AV-procd|sdf|10945|dock5
  -GOLD-   2272015393D 1   1.00000     0.00000
 Structure written by MMmdl.
 42 44  0  0  0  0  0  0  0  0  1 V2000
  151.8401  145.7535  160.0872 C   0  0  0  0  0  0  0  0  0  0  0  0
  151.8437  144.3173  159.5938 C   0  0  0  0  0  0  0  0  0  0  0  0
  151.4632  144.0478  158.2598 C   0  0  0  0  0  0  0  0  0  0  0  0
  151.4513  142.7259  157.7630 C   0  0  0  0  0  0  0  0  0  0  0  0
  151.1172  142.2399  156.5105 N   0  0  0  0  0  0  0  0  0  0  0  0
  151.3052  140.9334  156.6717 C   0  0  0  0  0  0  0  0  0  0  0  0
  151.7224  140.5145  157.8817 N   0  0  0  0  0  0  0  0  0  0  0  0
  151.9905  139.1459  158.2864 C   0  0  0  0  0  0  0  0  0  0  0  0
  153.0602  139.0566  159.3911 C   0  0  2  0  0  0  0  0  0  0  0  0
  154.3375  139.3229  158.8417 O   0  0  0  0  0  0  0  0  0  0  0  0
  153.0644  137.6774  160.0772 C   0  0  0  0  0  0  0  0  0  0  0  0
  153.8345  137.6733  161.3078 N   0  0  0  0  0  0  0  0  0  0  0  0
  154.0417  136.6971  162.1966 C   0  0  0  0  0  0  0  0  0  0  0  0
  154.7998  137.0555  163.2246 N   0  0  0  0  0  0  0  0  0  0  0  0
  155.0385  138.3514  162.8708 C   0  0  0  0  0  0  0  0  0  0  0  0
  156.0503  139.4478  163.9140 S   0  0  2  0  0  0  0  0  0  0  0  0
  155.4239  138.7911  165.5318 C   0  0  0  0  0  0  0  0  0  0  0  0
  155.4651  140.8513  163.7432 O   0  0  0  0  0  0  0  0  0  0  0  0
  154.4880  138.7792  161.7361 N   0  0  0  0  0  0  0  0  0  0  0  0
  151.8345  141.6726  158.6440 C   0  0  0  0  0  0  0  0  0  0  0  0
  152.2144  141.9282  159.9734 C   0  0  0  0  0  0  0  0  0  0  0  0
  152.2205  143.2545  160.4537 C   0  0  0  0  0  0  0  0  0  0  0  0
  152.6309  143.5198  161.8915 C   0  0  0  0  0  0  0  0  0  0  0  0
  151.5273  146.4434  159.3029 H   0  0  0  0  0  0  0  0  0  0  0  0
  152.8378  146.0483  160.4131 H   0  0  0  0  0  0  0  0  0  0  0  0
  151.1531  145.8673  160.9259 H   0  0  0  0  0  0  0  0  0  0  0  0
  151.1751  144.8569  157.6048 H   0  0  0  0  0  0  0  0  0  0  0  0
  151.1283  140.2388  155.8635 H   0  0  0  0  0  0  0  0  0  0  0  0
  151.0548  138.7053  158.6332 H   0  0  0  0  0  0  0  0  0  0  0  0
  152.2963  138.5739  157.4094 H   0  0  0  0  0  0  0  0  0  0  0  0
  152.8567  139.8222  160.1411 H   0  0  0  0  0  0  0  0  0  0  0  0
  154.9927  138.9302  159.3985 H   0  0  0  0  0  0  0  0  0  0  0  0
  152.0443  137.3770  160.3196 H   0  0  0  0  0  0  0  0  0  0  0  0
  153.4624  136.9147  159.4056 H   0  0  0  0  0  0  0  0  0  0  0  0
  153.6251  135.7060  162.0912 H   0  0  0  0  0  0  0  0  0  0  0  0
  155.1105  137.7510  165.4385 H   0  0  0  0  0  0  0  0  0  0  0  0
  154.5728  139.3805  165.8736 H   0  0  0  0  0  0  0  0  0  0  0  0
  156.2084  138.8466  166.2864 H   0  0  0  0  0  0  0  0  0  0  0  0
  152.4952  141.1088  160.6185 H   0  0  0  0  0  0  0  0  0  0  0  0
  152.9048  142.5969  162.4036 H   0  0  0  0  0  0  0  0  0  0  0  0
  151.8107  143.9785  162.4440 H   0  0  0  0  0  0  0  0  0  0  0  0
  153.4907  144.1891  161.9269 H   0  0  0  0  0  0  0  0  0  0  0  0
  1  2  1  0  0  0  0
  1 24  1  0  0  0  0
  1 25  1  0  0  0  0
  1 26  1  0  0  0  0
  2 22  1  0  0  0  0
  2  3  2  0  0  0  0
  3  4  1  0  0  0  0
  3 27  1  0  0  0  0
  4 20  2  0  0  0  0
  4  5  1  0  0  0  0
  5  6  2  0  0  0  0
  6  7  1  0  0  0  0
  6 28  1  0  0  0  0
  7  8  1  0  0  0  0
  7 20  1  0  0  0  0
  8  9  1  0  0  0  0
  8 29  1  0  0  0  0
  8 30  1  0  0  0  0
  9 10  1  0  0  0  0
  9 11  1  0  0  0  0
  9 31  1  0  0  0  0
 10 32  1  0  0  0  0
 11 12  1  0  0  0  0
 11 33  1  0  0  0  0
 11 34  1  0  0  0  0
 12 19  1  0  0  0  0
 12 13  1  0  0  0  0
 13 14  2  0  0  0  0
 13 35  1  0  0  0  0
 14 15  1  0  0  0  0
 15 16  1  0  0  0  0
 15 19  2  0  0  0  0
 16 17  1  0  0  0  0
 16 18  2  0  0  0  0
 17 36  1  0  0  0  0
 17 37  1  0  0  0  0
 17 38  1  0  0  0  0
 20 21  1  0  0  0  0
 21 22  2  0  0  0  0
 21 39  1  0  0  0  0
 22 23  1  0  0  0  0
 23 40  1  0  0  0  0
 23 41  1  0  0  0  0
 23 42  1  0  0  0  0
M  END
> <s_m_source_file>
AV-unprocessed.smi

> <i_m_source_file_index>
2845

> <i_lp_mmshare_version>
43012

> <i_f3d_flags>
0

> <s_epik_input>
W0NIM11jKFtjSF0xKWMoW0NIM10pW2NIXWMoYzEyKW4oW2NIXW4yKVtDSDJdW0NASF0oW09IXSlbQ0gyXW4zW2NIXW5jKG4zKVtTQF0oPU8pW0NIM10=

> <s_epik_cmdline>
J2VwaWtfcHl0aG9uJywgJy1waCcsICc3LjAnLCAnLXRuJywgJzgnLCAnLW1hJywgJzIwMCcsICctbWV0YWxfYmluZGluZycsICctaW1hZScsICc8aW5maWxlLm1hZT4nLCAnLW9tYWUnLCAnPG91dGZpbGUubWFlPic=

> <r_lp_tautomer_probability>
1

> <r_epik_Ionization_Penalty>
0.0968684

> <r_epik_Ionization_Penalty_Charging>
0

> <r_epik_Ionization_Penalty_Neutral>
0.0968684

> <r_epik_State_Penalty>
0.0870047

> <r_epik_Charging_Adjusted_Penalty>
0.0870047

> <i_epik_Tot_Q>
0

> <i_epik_Tot_abs_Q>
0

> <r_epik_Metal_State_Penalty>
0.0746849

> <b_epik_Metal_Only>
0

> <s_lp_Force_Field>
OPLS_2005

> <r_lp_Energy>
9.81721

> <b_lp_Chiralities_Consistent>
1

> <s_lp_Variant>
AV-unprocessed.smi:2845-3

> <Gold.Version>
5.8.1

> <Gold.Id.Protein>
6NUR|6NUR_protein|mol2

> <Gold.PLP.Fitness>
51.3812

> <Gold.PLP.PLP>
-49.4513

> <Gold.PLP.part.hbond>
-2.0000

> <Gold.PLP.part.metal>
0.0000

> <Gold.PLP.part.buried>
-6.8981

> <Gold.PLP.part.nonpolar>
-40.2837

> <Gold.PLP.part.repulsive>
0.1032

> <Gold.PLP.ligand.clash>
0.0000

> <Gold.PLP.ligand.torsion>
1.0572

> <Gold.PLP.Chemscore.Hbond>
1.0000

> <Gold.PLP.Chemscore.CHOScore>
0.0000

> <Gold.PLP.Chemscore.Metal>
0.0000

> <Gold.Chemscore.Hbonds>
donor molecule, donor type, donor heavy atom, donor atom, acceptor molecule, acceptor atom, score
      P1  H  7997  8010       L1    10  1.00

> <Gold.PLP.Chemscore.Internal.Correction>
1.0443

> <Gold.Rescore>
     Score         DG    S(hbond)    S(metal)    S(lipo)     H(rot)  DE(clash)    DE(int)     intcor
     12.30     -14.12       0.94        0.00     106.24       2.71       0.03       1.79       ----

> <Gold.Chemscore.Fitness>
12.2958

> <Gold.Chemscore.DG>
-14.1179

> <Gold.Chemscore.ZeroCoef>
-5.4800

> <Gold.Chemscore.Hbond>
0.9424

> <Gold.Chemscore.Metal>
0.0000

> <Gold.Chemscore.Lipo>
106.2388

> <Gold.Chemscore.Internal_Hbond>
0.0000

> <Gold.Chemscore.DEClash>
0.0300

> <Gold.Chemscore.DEInternal>
1.7921

> <Gold.Chemscore.Rot>
2.7108

> <Gold.Chemscore.Internal.Correction>
   9.000000E+99

> <Gold.Chemscore.Hbonds>
donor molecule, donor type, donor heavy atom, donor atom, acceptor molecule, acceptor atom, score
      P1  H  7997  8010       L1    10  0.98

> <Gold.Chemscore.Hbond.Weighted>
-3.1477

> <Gold.Chemscore.Metal.Weighted>
-0.0000

> <Gold.Chemscore.Lipo.Weighted>
-12.4299

> <Gold.Chemscore.Internal_Hbond.Weighted>
0.0000

> <Gold.Chemscore.DEClash.Weighted>
0.0300

> <Gold.Chemscore.DEInternal.Weighted>
1.7921

> <Gold.Chemscore.Rot.Weighted>
6.9396

> <Gold.Chemscore.Internal.Correction.Weighted>
   9.000000E+99

> <Gold.Protein.RotatedTorsions>
[ 6907 6896 6895 6894 ] final  -76.09 input  -60.11 | X-H torsion
[ 7974 7965 7964 7962 ] final   79.20 input  175.53 | X-H torsion
[ 8008 7997 7996 7995 ] final   18.92 input   59.86 | X-H torsion
[ 10167 10162 10161 10158 ] final    7.29 input  -65.29 | X-H torsion
[ 10718 10713 10712 10709 ] final  -44.85 input   66.30 | X-H torsion
[ 10763 10752 10751 10750 ] final -146.11 input  -60.55 | X-H torsion
[ 11005 11000 10999 10996 ] final  -33.68 input  -57.11 | X-H torsion

> <Gold.Protein.ActiveResidues>
 VAL166  LYS551  ARG553  GLY616  TRP617  ASP618  TYR619  PRO620  LYS621  CYS622 
 ASP623  PHE694  ASN695  SER759  ASP760  ASP761  ALA762  ILE779  LEU786  VAL792 
 PHE793  MET794  SER795  GLU796  ALA797  LYS798  CYS799  TRP800  GLU811  SER814 

> <Gold.Protein.RotatedAtoms>
  150.7038  134.4624  159.5386 H   0  0  0  0  0  0  0  0  0  0  0  0  # atno 6907 bound_to 6896
  152.2296  134.8332  160.0484 H   0  0  0  0  0  0  0  0  0  0  0  0  # atno 6908 bound_to 6896
  151.9153  133.3536  159.3915 H   0  0  0  0  0  0  0  0  0  0  0  0  # atno 6909 bound_to 6896
  145.6673  139.2487  143.1888 H   0  0  0  0  0  0  0  0  0  0  0  0  # atno 7974 bound_to 7965
  154.9130  140.3017  155.5256 H   0  0  0  0  0  0  0  0  0  0  0  0  # atno 8008 bound_to 7997
  156.3014  140.2385  156.4108 H   0  0  0  0  0  0  0  0  0  0  0  0  # atno 8009 bound_to 7997
  154.8406  140.0414  157.1527 H   0  0  0  0  0  0  0  0  0  0  0  0  # atno 8010 bound_to 7997
  140.6380  143.7841  150.7387 H   0  0  0  0  0  0  0  0  0  0  0  0  # atno 10167 bound_to 10162
  156.2344  130.4175  149.8836 H   0  0  0  0  0  0  0  0  0  0  0  0  # atno 10718 bound_to 10713
  154.8351  135.3395  154.6610 H   0  0  0  0  0  0  0  0  0  0  0  0  # atno 10763 bound_to 10752
  153.7226  135.6957  153.5013 H   0  0  0  0  0  0  0  0  0  0  0  0  # atno 10764 bound_to 10752
  153.2370  135.4397  155.0610 H   0  0  0  0  0  0  0  0  0  0  0  0  # atno 10765 bound_to 10752
  140.9654  133.7140  156.1437 H   0  0  0  0  0  0  0  0  0  0  0  0  # atno 11005 bound_to 11000
  146.1075  140.7469  142.9519 LP  0  0  0  0  0  0  0  0  0  0  0  0  # atno 17320 bound_to 7965
  144.7069  140.3886  143.7111 LP  0  0  0  0  0  0  0  0  0  0  0  0  # atno 17321 bound_to 7965
  140.1466  143.4394  152.2158 LP  0  0  0  0  0  0  0  0  0  0  0  0  # atno 17342 bound_to 10162
  139.5590  144.7392  151.4211 LP  0  0  0  0  0  0  0  0  0  0  0  0  # atno 17343 bound_to 10162
  156.6439  130.8716  151.3519 LP  0  0  0  0  0  0  0  0  0  0  0  0  # atno 17370 bound_to 10713
  157.7147  130.9483  150.1214 LP  0  0  0  0  0  0  0  0  0  0  0  0  # atno 17371 bound_to 10713
  140.7406  134.4154  157.5555 LP  0  0  0  0  0  0  0  0  0  0  0  0  # atno 17394 bound_to 11000
  139.8893  134.8834  156.2430 LP  0  0  0  0  0  0  0  0  0  0  0  0  # atno 17395 bound_to 11000

$$$$
