AV-unprocessed.smi:2976|AV-procd|sdf|11363|dock2
  -GOLD-   2272016283D 1   1.00000     0.00000
 Structure written by MMmdl.
 40 41  0  0  0  0  0  0  0  0  1 V2000
  151.2192  145.1086  160.1920 C   0  0  0  0  0  0  0  0  0  0  0  0
  152.5023  144.4933  159.5964 C   0  0  2  0  0  0  0  0  0  0  0  0
  152.5637  144.6773  158.0667 C   0  0  0  0  0  0  0  0  0  0  0  0
  151.5746  143.7594  157.3326 C   0  0  0  0  0  0  0  0  0  0  0  0
  151.8055  142.2887  157.7054 C   0  0  0  0  0  0  0  0  0  0  0  0
  151.7463  142.0613  159.2287 C   0  0  1  0  0  0  0  0  0  0  0  0
  152.0602  140.6580  159.4971 N   0  0  0  0  0  0  0  0  0  0  0  0
  153.2763  140.0933  159.4343 C   0  0  0  0  0  0  0  0  0  0  0  0
  154.2944  140.7089  159.1148 O   0  0  0  0  0  0  0  0  0  0  0  0
  153.3300  138.5942  159.7633 C   0  0  0  0  0  0  0  0  0  0  0  0
  153.9832  138.2945  161.0461 N   0  0  0  0  0  0  0  0  0  0  0  0
  154.4278  139.4147  161.7263 N   0  0  0  0  0  0  0  0  0  0  0  0
  155.0058  139.2749  162.8693 C   0  0  0  0  0  0  0  0  0  0  0  0
  155.2136  137.9779  163.4738 C   0  0  0  0  0  0  0  0  0  0  0  0
  155.9966  137.8529  165.0097 Cl  0  0  0  0  0  0  0  0  0  0  0  0
  154.7768  136.8858  162.7973 C   0  0  0  0  0  0  0  0  0  0  0  0
  154.9888  135.3004  163.4575 Cl  0  0  0  0  0  0  0  0  0  0  0  0
  154.1134  137.0069  161.4915 C   0  0  0  0  0  0  0  0  0  0  0  0
  153.7052  136.0409  160.8454 O   0  0  0  0  0  0  0  0  0  0  0  0
  152.7283  143.0048  159.9759 C   0  0  2  0  0  0  0  0  0  0  0  0
  152.7370  142.7887  161.5025 C   0  0  0  0  0  0  0  0  0  0  0  0
  150.3235  144.5643  159.8944 H   0  0  0  0  0  0  0  0  0  0  0  0
  151.0970  146.1421  159.8666 H   0  0  0  0  0  0  0  0  0  0  0  0
  151.2510  145.1227  161.2813 H   0  0  0  0  0  0  0  0  0  0  0  0
  153.3335  145.0643  160.0127 H   0  0  0  0  0  0  0  0  0  0  0  0
  152.3737  145.7180  157.8023 H   0  0  0  0  0  0  0  0  0  0  0  0
  153.5745  144.4594  157.7196 H   0  0  0  0  0  0  0  0  0  0  0  0
  150.5499  144.0445  157.5717 H   0  0  0  0  0  0  0  0  0  0  0  0
  151.6825  143.8872  156.2554 H   0  0  0  0  0  0  0  0  0  0  0  0
  151.0630  141.6646  157.2061 H   0  0  0  0  0  0  0  0  0  0  0  0
  152.7778  141.9739  157.3236 H   0  0  0  0  0  0  0  0  0  0  0  0
  150.7295  142.2803  159.5585 H   0  0  0  0  0  0  0  0  0  0  0  0
  151.2843  140.0675  159.7598 H   0  0  0  0  0  0  0  0  0  0  0  0
  152.3170  138.1870  159.7555 H   0  0  0  0  0  0  0  0  0  0  0  0
  153.8532  138.0896  158.9490 H   0  0  0  0  0  0  0  0  0  0  0  0
  155.3698  140.1278  163.4419 H   0  0  0  0  0  0  0  0  0  0  0  0
  153.7326  142.7529  159.6310 H   0  0  0  0  0  0  0  0  0  0  0  0
  151.7378  142.8882  161.9272 H   0  0  0  0  0  0  0  0  0  0  0  0
  153.3854  143.5117  161.9978 H   0  0  0  0  0  0  0  0  0  0  0  0
  153.1053  141.7969  161.7641 H   0  0  0  0  0  0  0  0  0  0  0  0
  1  2  1  0  0  0  0
  1 22  1  0  0  0  0
  1 23  1  0  0  0  0
  1 24  1  0  0  0  0
  2 20  1  0  0  0  0
  2  3  1  0  0  0  0
  2 25  1  0  0  0  0
  3  4  1  0  0  0  0
  3 26  1  0  0  0  0
  3 27  1  0  0  0  0
  4  5  1  0  0  0  0
  4 28  1  0  0  0  0
  4 29  1  0  0  0  0
  5  6  1  0  0  0  0
  5 30  1  0  0  0  0
  5 31  1  0  0  0  0
  6  7  1  0  0  0  0
  6 20  1  0  0  0  0
  6 32  1  0  0  0  0
  7  8  1  0  0  0  0
  7 33  1  0  0  0  0
  8  9  2  0  0  0  0
  8 10  1  0  0  0  0
 10 11  1  0  0  0  0
 10 34  1  0  0  0  0
 10 35  1  0  0  0  0
 11 18  1  0  0  0  0
 11 12  1  0  0  0  0
 12 13  2  0  0  0  0
 13 14  1  0  0  0  0
 13 36  1  0  0  0  0
 14 15  1  0  0  0  0
 14 16  2  0  0  0  0
 16 17  1  0  0  0  0
 16 18  1  0  0  0  0
 18 19  2  0  0  0  0
 20 21  1  0  0  0  0
 20 37  1  0  0  0  0
 21 38  1  0  0  0  0
 21 39  1  0  0  0  0
 21 40  1  0  0  0  0
M  END
> <s_m_source_file>
AV-unprocessed.smi

> <i_m_source_file_index>
2976

> <i_lp_mmshare_version>
43012

> <i_f3d_flags>
0

> <s_epik_input>
W0NIM11bQ0BASF0xW0NIMl1bQ0gyXVtDSDJdW0NASF0oW0NASF0xW0NIM10pW05IXUMoPU8pW0NIMl1uMm5bY0hdYyhDbCljKENsKWMyPU8=

> <s_epik_cmdline>
J2VwaWtfcHl0aG9uJywgJy1waCcsICc3LjAnLCAnLXRuJywgJzgnLCAnLW1hJywgJzIwMCcsICctbWV0YWxfYmluZGluZycsICctaW1hZScsICc8aW5maWxlLm1hZT4nLCAnLW9tYWUnLCAnPG91dGZpbGUubWFlPic=

> <r_lp_tautomer_probability>
1

> <r_epik_Ionization_Penalty>
1.90777e-08

> <r_epik_Ionization_Penalty_Charging>
3.07942e-11

> <r_epik_Ionization_Penalty_Neutral>
1.90469e-08

> <r_epik_State_Penalty>
-0

> <r_epik_Charging_Adjusted_Penalty>
3.07942e-11

> <i_epik_Tot_Q>
0

> <i_epik_Tot_abs_Q>
0

> <r_epik_Metal_State_Penalty>
-0

> <b_epik_Metal_Only>
0

> <s_lp_Force_Field>
OPLS_2005

> <r_lp_Energy>
28.556

> <b_lp_Chiralities_Consistent>
1

> <s_lp_Variant>
AV-unprocessed.smi:2976-5

> <Gold.Version>
5.8.1

> <Gold.Id.Protein>
6NUR|6NUR_protein|mol2

> <Gold.PLP.Fitness>
47.0246

> <Gold.PLP.PLP>
-42.6742

> <Gold.PLP.part.hbond>
-2.0000

> <Gold.PLP.part.metal>
0.0000

> <Gold.PLP.part.buried>
-2.9781

> <Gold.PLP.part.nonpolar>
-36.9693

> <Gold.PLP.part.repulsive>
0.1613

> <Gold.PLP.ligand.clash>
0.0000

> <Gold.PLP.ligand.torsion>
0.2704

> <Gold.PLP.Chemscore.Hbond>
1.6289

> <Gold.PLP.Chemscore.CHOScore>
0.0000

> <Gold.PLP.Chemscore.Metal>
0.0000

> <Gold.Chemscore.Hbonds>
donor molecule, donor type, donor heavy atom, donor atom, acceptor molecule, acceptor atom, score
      P1  H  6896  6907       L1    19  1.00
      P1  H  7997  8010       L1     9  0.63

> <Gold.PLP.Chemscore.Internal.Correction>
0.0043

> <Gold.Rescore>
     Score         DG    S(hbond)    S(metal)    S(lipo)     H(rot)  DE(clash)    DE(int)     intcor
     19.80     -22.70       1.61        0.00     133.79       1.49       1.75       1.15       ----

> <Gold.Chemscore.Fitness>
19.7961

> <Gold.Chemscore.DG>
-22.6966

> <Gold.Chemscore.ZeroCoef>
-5.4800

> <Gold.Chemscore.Hbond>
1.6075

> <Gold.Chemscore.Metal>
0.0000

> <Gold.Chemscore.Lipo>
133.7884

> <Gold.Chemscore.Internal_Hbond>
0.0000

> <Gold.Chemscore.DEClash>
1.7481

> <Gold.Chemscore.DEInternal>
1.1525

> <Gold.Chemscore.Rot>
1.4866

> <Gold.Chemscore.Internal.Correction>
   9.000000E+99

> <Gold.Chemscore.Hbonds>
donor molecule, donor type, donor heavy atom, donor atom, acceptor molecule, acceptor atom, score
      P1  H  6896  6907       L1    19  0.94
      P1  H  7997  8010       L1     9  0.47

> <Gold.Chemscore.Hbond.Weighted>
-5.3691

> <Gold.Chemscore.Metal.Weighted>
-0.0000

> <Gold.Chemscore.Lipo.Weighted>
-15.6532

> <Gold.Chemscore.Internal_Hbond.Weighted>
0.0000

> <Gold.Chemscore.DEClash.Weighted>
1.7481

> <Gold.Chemscore.DEInternal.Weighted>
1.1525

> <Gold.Chemscore.Rot.Weighted>
3.8057

> <Gold.Chemscore.Internal.Correction.Weighted>
   9.000000E+99

> <Gold.Protein.RotatedTorsions>
[ 6907 6896 6895 6894 ] final   38.50 input  -60.11 | X-H torsion
[ 7974 7965 7964 7962 ] final  151.97 input  175.53 | X-H torsion
[ 8008 7997 7996 7995 ] final    6.10 input   59.86 | X-H torsion
[ 10167 10162 10161 10158 ] final  -28.04 input  -65.29 | X-H torsion
[ 10718 10713 10712 10709 ] final   70.93 input   66.30 | X-H torsion
[ 10763 10752 10751 10750 ] final   36.90 input  -60.55 | X-H torsion
[ 11005 11000 10999 10996 ] final  -35.07 input  -57.11 | X-H torsion

> <Gold.Protein.ActiveResidues>
 VAL166  LYS551  ARG553  GLY616  TRP617  ASP618  TYR619  PRO620  LYS621  CYS622 
 ASP623  PHE694  ASN695  SER759  ASP760  ASP761  ALA762  ILE779  LEU786  VAL792 
 PHE793  MET794  SER795  GLU796  ALA797  LYS798  CYS799  TRP800  GLU811  SER814 

> <Gold.Protein.RotatedAtoms>
  152.1573  134.8941  160.0543 H   0  0  0  0  0  0  0  0  0  0  0  0  # atno 6907 bound_to 6896
  151.9950  133.3799  159.4167 H   0  0  0  0  0  0  0  0  0  0  0  0  # atno 6908 bound_to 6896
  150.6883  134.3818  159.5081 H   0  0  0  0  0  0  0  0  0  0  0  0  # atno 6909 bound_to 6896
  144.8255  139.6608  143.6082 H   0  0  0  0  0  0  0  0  0  0  0  0  # atno 7974 bound_to 7965
  154.7368  140.2741  155.6408 H   0  0  0  0  0  0  0  0  0  0  0  0  # atno 8008 bound_to 7997
  156.2864  140.2705  156.2009 H   0  0  0  0  0  0  0  0  0  0  0  0  # atno 8009 bound_to 7997
  155.0310  140.0371  157.2464 H   0  0  0  0  0  0  0  0  0  0  0  0  # atno 8010 bound_to 7997
  140.7273  143.4043  151.1211 H   0  0  0  0  0  0  0  0  0  0  0  0  # atno 10167 bound_to 10162
  157.6426  130.9502  150.0719 H   0  0  0  0  0  0  0  0  0  0  0  0  # atno 10718 bound_to 10713
  153.0058  135.6293  154.2059 H   0  0  0  0  0  0  0  0  0  0  0  0  # atno 10763 bound_to 10752
  154.1803  135.2814  155.3056 H   0  0  0  0  0  0  0  0  0  0  0  0  # atno 10764 bound_to 10752
  154.5840  135.5638  153.7273 H   0  0  0  0  0  0  0  0  0  0  0  0  # atno 10765 bound_to 10752
  140.9767  133.7079  156.1614 H   0  0  0  0  0  0  0  0  0  0  0  0  # atno 11005 bound_to 11000
  146.2560  139.6303  142.9395 LP  0  0  0  0  0  0  0  0  0  0  0  0  # atno 17320 bound_to 7965
  145.5011  141.0437  143.2540 LP  0  0  0  0  0  0  0  0  0  0  0  0  # atno 17321 bound_to 7965
  139.7668  143.8554  152.3112 LP  0  0  0  0  0  0  0  0  0  0  0  0  # atno 17342 bound_to 10162
  139.8458  144.7188  150.9274 LP  0  0  0  0  0  0  0  0  0  0  0  0  # atno 17343 bound_to 10162
  156.1721  130.3647  149.9151 LP  0  0  0  0  0  0  0  0  0  0  0  0  # atno 17370 bound_to 10713
  156.7124  130.8975  151.3610 LP  0  0  0  0  0  0  0  0  0  0  0  0  # atno 17371 bound_to 10713
  140.7248  134.4318  157.5571 LP  0  0  0  0  0  0  0  0  0  0  0  0  # atno 17394 bound_to 11000
  139.8933  134.8733  156.2229 LP  0  0  0  0  0  0  0  0  0  0  0  0  # atno 17395 bound_to 11000

$$$$
