AV-unprocessed.smi:1509|AV-procd|sdf|6090|dock5
  -GOLD-   22720 6213D 1   1.00000     0.00000
 Structure written by MMmdl.
 42 43  0  0  0  0  0  0  0  0  2 V2000
  146.2163  129.9929  151.8272 C   0  0  0  0  0  0  0  0  0  0  0  0
  145.4566  131.3271  151.8267 C   0  0  2  0  0  0  0  0  0  0  0  0
  144.9200  131.6671  150.4264 C   0  0  0  0  0  0  0  0  0  0  0  0
  144.1891  133.0151  150.4513 C   0  0  0  0  0  0  0  0  0  0  0  0
  145.0955  134.1217  151.0129 C   0  0  0  0  0  0  0  0  0  0  0  0
  145.5971  133.7698  152.3667 N   0  3  2  0  0  0  0  0  0  0  0  0
  146.3676  134.8799  152.9832 C   0  0  0  0  0  0  0  0  0  0  0  0
  147.0013  134.4846  154.3282 C   0  0  0  0  0  0  0  0  0  0  0  0
  147.2059  135.6971  155.2520 C   0  0  0  0  0  0  0  0  0  0  0  0
  148.0381  136.7198  154.6289 N   0  0  0  0  0  0  0  0  0  0  0  0
  148.6397  137.7256  155.2833 C   0  0  0  0  0  0  0  0  0  0  0  0
  148.5315  137.9029  156.4965 O   0  0  0  0  0  0  0  0  0  0  0  0
  149.4990  138.6731  154.4452 C   0  0  0  0  0  0  0  0  0  0  0  0
  150.8906  138.6075  154.8508 N   0  0  0  0  0  0  0  0  0  0  0  0
  151.7734  137.6078  154.7990 C   0  0  0  0  0  0  0  0  0  0  0  0
  152.9519  137.9699  155.2824 N   0  0  0  0  0  0  0  0  0  0  0  0
  152.7492  139.2901  155.6484 N   0  0  0  0  0  0  0  0  0  0  0  0
  151.5282  139.6741  155.3942 N   0  0  0  0  0  0  0  0  0  0  0  0
  146.3364  132.4781  152.3556 C   0  0  0  0  0  0  0  0  0  0  0  0
  147.0886  130.0322  151.1740 H   0  0  0  0  0  0  0  0  0  0  0  0
  145.5790  129.1781  151.4825 H   0  0  0  0  0  0  0  0  0  0  0  0
  146.5621  129.7374  152.8293 H   0  0  0  0  0  0  0  0  0  0  0  0
  144.6037  131.2187  152.4986 H   0  0  0  0  0  0  0  0  0  0  0  0
  145.7427  131.7088  149.7109 H   0  0  0  0  0  0  0  0  0  0  0  0
  144.2438  130.8852  150.0790 H   0  0  0  0  0  0  0  0  0  0  0  0
  143.8591  133.2778  149.4459 H   0  0  0  0  0  0  0  0  0  0  0  0
  143.2882  132.9331  151.0610 H   0  0  0  0  0  0  0  0  0  0  0  0
  145.9400  134.2940  150.3435 H   0  0  0  0  0  0  0  0  0  0  0  0
  144.5307  135.0536  151.0584 H   0  0  0  0  0  0  0  0  0  0  0  0
  147.1271  135.2369  152.2858 H   0  0  0  0  0  0  0  0  0  0  0  0
  145.6983  135.7219  153.1650 H   0  0  0  0  0  0  0  0  0  0  0  0
  146.3660  133.7522  154.8281 H   0  0  0  0  0  0  0  0  0  0  0  0
  147.9619  133.9979  154.1628 H   0  0  0  0  0  0  0  0  0  0  0  0
  146.2443  136.1264  155.5387 H   0  0  0  0  0  0  0  0  0  0  0  0
  147.6926  135.3833  156.1757 H   0  0  0  0  0  0  0  0  0  0  0  0
  148.1808  136.6487  153.6316 H   0  0  0  0  0  0  0  0  0  0  0  0
  149.4318  138.4238  153.3852 H   0  0  0  0  0  0  0  0  0  0  0  0
  149.1346  139.6952  154.5591 H   0  0  0  0  0  0  0  0  0  0  0  0
  151.5537  136.6230  154.4134 H   0  0  0  0  0  0  0  0  0  0  0  0
  146.6717  132.2300  153.3620 H   0  0  0  0  0  0  0  0  0  0  0  0
  147.2336  132.5793  151.7424 H   0  0  0  0  0  0  0  0  0  0  0  0
  144.7777  133.6353  152.9419 H   0  0  0  0  0  0  0  0  0  0  0  0
  1  2  1  0  0  0  0
  1 20  1  0  0  0  0
  1 21  1  0  0  0  0
  1 22  1  0  0  0  0
  2 19  1  0  0  0  0
  2  3  1  0  0  0  0
  2 23  1  0  0  0  0
  3  4  1  0  0  0  0
  3 24  1  0  0  0  0
  3 25  1  0  0  0  0
  4  5  1  0  0  0  0
  4 26  1  0  0  0  0
  4 27  1  0  0  0  0
  5  6  1  0  0  0  0
  5 28  1  0  0  0  0
  5 29  1  0  0  0  0
  6  7  1  0  0  0  0
  6 19  1  0  0  0  0
  6 42  1  0  0  0  0
  7  8  1  0  0  0  0
  7 30  1  0  0  0  0
  7 31  1  0  0  0  0
  8  9  1  0  0  0  0
  8 32  1  0  0  0  0
  8 33  1  0  0  0  0
  9 10  1  0  0  0  0
  9 34  1  0  0  0  0
  9 35  1  0  0  0  0
 10 11  1  0  0  0  0
 10 36  1  0  0  0  0
 11 12  2  0  0  0  0
 11 13  1  0  0  0  0
 13 14  1  0  0  0  0
 13 37  1  0  0  0  0
 13 38  1  0  0  0  0
 14 18  1  0  0  0  0
 14 15  1  0  0  0  0
 15 16  2  0  0  0  0
 15 39  1  0  0  0  0
 16 17  1  0  0  0  0
 17 18  2  0  0  0  0
 19 40  1  0  0  0  0
 19 41  1  0  0  0  0
M  CHG  1   6   1
M  END
> <s_m_source_file>
AV-unprocessed.smi

> <i_m_source_file_index>
1509

> <i_lp_mmshare_version>
43012

> <i_f3d_flags>
0

> <s_epik_input>
W0NIM11bQ0BASF0xW0NIMl1bQ0gyXVtDSDJdTihbQ0gyXTEpW0NIMl1bQ0gyXVtDSDJdW05IXUMoPU8pW0NIMl1uMltjSF1ubm4y

> <s_epik_cmdline>
J2VwaWtfcHl0aG9uJywgJy1waCcsICc3LjAnLCAnLXRuJywgJzgnLCAnLW1hJywgJzIwMCcsICctbWV0YWxfYmluZGluZycsICctaW1hZScsICc8aW5maWxlLm1hZT4nLCAnLW9tYWUnLCAnPG91dGZpbGUubWFlPic=

> <r_lp_tautomer_probability>
1

> <r_epik_Ionization_Penalty>
0.00044216

> <r_epik_Ionization_Penalty_Charging>
0.000440775

> <r_epik_Ionization_Penalty_Neutral>
1.38512e-06

> <r_epik_State_Penalty>
0.000271914

> <r_epik_Charging_Adjusted_Penalty>
0.000712689

> <i_epik_Tot_Q>
1

> <i_epik_Tot_abs_Q>
1

> <r_epik_Metal_State_Penalty>
-0

> <b_epik_Metal_Only>
0

> <s_lp_Force_Field>
OPLS_2005

> <r_lp_Energy>
19.8667

> <b_lp_Chiralities_Consistent>
1

> <s_lp_Variant>
AV-unprocessed.smi:1509-1

> <Gold.Version>
5.8.1

> <Gold.Id.Protein>
6NUR|6NUR_protein|mol2

> <Gold.PLP.Fitness>
43.9411

> <Gold.PLP.PLP>
-32.5711

> <Gold.PLP.part.hbond>
-4.7803

> <Gold.PLP.part.metal>
0.0000

> <Gold.PLP.part.buried>
-4.7652

> <Gold.PLP.part.nonpolar>
-23.4061

> <Gold.PLP.part.repulsive>
0.1128

> <Gold.PLP.ligand.clash>
0.0000

> <Gold.PLP.ligand.torsion>
0.3405

> <Gold.PLP.Chemscore.Hbond>
3.0000

> <Gold.PLP.Chemscore.CHOScore>
1.0000

> <Gold.PLP.Chemscore.Metal>
0.0000

> <Gold.Chemscore.Hbonds>
donor molecule, donor type, donor heavy atom, donor atom, acceptor molecule, acceptor atom, score
      L1  H    10    36       P1  7948  1.00
      P1  H  7989  7998       L1    18  0.39
      P1  H  7997  8008       L1    17  1.00

> <Gold.PLP.Chemscore.Internal.Correction>
0.0511

> <Gold.Rescore>
     Score         DG    S(hbond)    S(metal)    S(lipo)     H(rot)  DE(clash)    DE(int)     intcor
     12.45     -12.89       2.45        0.00      58.21       2.97       0.07       0.37       ----

> <Gold.Chemscore.Fitness>
12.4467

> <Gold.Chemscore.DG>
-12.8886

> <Gold.Chemscore.ZeroCoef>
-5.4800

> <Gold.Chemscore.Hbond>
2.4539

> <Gold.Chemscore.Metal>
0.0000

> <Gold.Chemscore.Lipo>
58.2091

> <Gold.Chemscore.Internal_Hbond>
0.0000

> <Gold.Chemscore.DEClash>
0.0735

> <Gold.Chemscore.DEInternal>
0.3684

> <Gold.Chemscore.Rot>
2.9680

> <Gold.Chemscore.Internal.Correction>
   9.000000E+99

> <Gold.Chemscore.Hbonds>
donor molecule, donor type, donor heavy atom, donor atom, acceptor molecule, acceptor atom, score
      L1  H    10    36       P1  7948  0.98
      P1  H  7989  7998       L1    18  0.03
      P1  H  7997  8008       L1    17  0.82

> <Gold.Chemscore.Hbond.Weighted>
-8.1961

> <Gold.Chemscore.Metal.Weighted>
-0.0000

> <Gold.Chemscore.Lipo.Weighted>
-6.8105

> <Gold.Chemscore.Internal_Hbond.Weighted>
0.0000

> <Gold.Chemscore.DEClash.Weighted>
0.0735

> <Gold.Chemscore.DEInternal.Weighted>
0.3684

> <Gold.Chemscore.Rot.Weighted>
7.5980

> <Gold.Chemscore.Internal.Correction.Weighted>
   9.000000E+99

> <Gold.Protein.RotatedTorsions>
[ 6907 6896 6895 6894 ] final -170.53 input  -60.11 | X-H torsion
[ 7974 7965 7964 7962 ] final  158.15 input  175.53 | X-H torsion
[ 8008 7997 7996 7995 ] final  -29.73 input   59.86 | X-H torsion
[ 10167 10162 10161 10158 ] final  -87.23 input  -65.29 | X-H torsion
[ 10718 10713 10712 10709 ] final  -72.12 input   66.30 | X-H torsion
[ 10763 10752 10751 10750 ] final  -45.11 input  -60.55 | X-H torsion
[ 11005 11000 10999 10996 ] final   27.29 input  -57.11 | X-H torsion

> <Gold.Protein.ActiveResidues>
 VAL166  LYS551  ARG553  GLY616  TRP617  ASP618  TYR619  PRO620  LYS621  CYS622 
 ASP623  PHE694  ASN695  SER759  ASP760  ASP761  ALA762  ILE779  LEU786  VAL792 
 PHE793  MET794  SER795  GLU796  ALA797  LYS798  CYS799  TRP800  GLU811  SER814 

> <Gold.Protein.RotatedAtoms>
  151.5092  133.3488  159.2881 H   0  0  0  0  0  0  0  0  0  0  0  0  # atno 6907 bound_to 6896
  150.8723  134.8102  159.7175 H   0  0  0  0  0  0  0  0  0  0  0  0  # atno 6908 bound_to 6896
  152.4707  134.4978  159.9767 H   0  0  0  0  0  0  0  0  0  0  0  0  # atno 6909 bound_to 6896
  144.7862  139.7438  143.6240 H   0  0  0  0  0  0  0  0  0  0  0  0  # atno 7974 bound_to 7965
  154.4278  140.1810  156.1294 H   0  0  0  0  0  0  0  0  0  0  0  0  # atno 8008 bound_to 7997
  156.0079  140.3353  155.6886 H   0  0  0  0  0  0  0  0  0  0  0  0  # atno 8009 bound_to 7997
  155.6151  140.0654  157.2685 H   0  0  0  0  0  0  0  0  0  0  0  0  # atno 8010 bound_to 7997
  140.3865  143.2724  151.9318 H   0  0  0  0  0  0  0  0  0  0  0  0  # atno 10167 bound_to 10162
  156.0333  130.4365  150.2545 H   0  0  0  0  0  0  0  0  0  0  0  0  # atno 10718 bound_to 10713
  154.0231  135.6666  153.4774 H   0  0  0  0  0  0  0  0  0  0  0  0  # atno 10763 bound_to 10752
  153.0572  135.5049  154.8004 H   0  0  0  0  0  0  0  0  0  0  0  0  # atno 10764 bound_to 10752
  154.6925  135.3064  154.9423 H   0  0  0  0  0  0  0  0  0  0  0  0  # atno 10765 bound_to 10752
  140.3278  134.2471  155.7707 H   0  0  0  0  0  0  0  0  0  0  0  0  # atno 11005 bound_to 11000
  146.2095  139.5441  142.9690 LP  0  0  0  0  0  0  0  0  0  0  0  0  # atno 17320 bound_to 7965
  145.5915  141.0369  143.2067 LP  0  0  0  0  0  0  0  0  0  0  0  0  # atno 17321 bound_to 7965
  139.4791  144.5769  151.7997 LP  0  0  0  0  0  0  0  0  0  0  0  0  # atno 17342 bound_to 10162
  140.4884  144.1347  150.5945 LP  0  0  0  0  0  0  0  0  0  0  0  0  # atno 17343 bound_to 10162
  157.0646  131.0099  151.3211 LP  0  0  0  0  0  0  0  0  0  0  0  0  # atno 17370 bound_to 10713
  157.5045  130.7900  149.7639 LP  0  0  0  0  0  0  0  0  0  0  0  0  # atno 17371 bound_to 10713
  141.2071  133.7816  157.0140 LP  0  0  0  0  0  0  0  0  0  0  0  0  # atno 17394 bound_to 11000
  140.0886  134.9606  157.1740 LP  0  0  0  0  0  0  0  0  0  0  0  0  # atno 17395 bound_to 11000

$$$$
