AV-unprocessed.smi:283|AV-procd|sdf|2132|dock10
  -GOLD-   2262021453D 1   1.00000     0.00000
 Structure written by MMmdl.
 48 51  0  0  0  0  0  0  0  0  1 V2000
  148.7826  141.3974  157.3880 C   0  0  0  0  0  0  0  0  0  0  0  0
  150.2350  140.9056  157.4396 C   0  0  1  0  0  0  0  0  0  0  0  0
  150.7355  140.6961  156.0819 N   0  0  0  0  0  0  0  0  0  0  0  0
  150.8777  139.4444  155.5927 C   0  0  0  0  0  0  0  0  0  0  0  0
  151.4860  139.3485  154.3867 N   0  0  0  0  0  0  0  0  0  0  0  0
  151.7069  138.1493  153.8417 C   0  0  0  0  0  0  0  0  0  0  0  0
  151.4008  136.9448  154.3259 N   0  0  0  0  0  0  0  0  0  0  0  0
  150.7680  137.0315  155.5316 C   0  0  0  0  0  0  0  0  0  0  0  0
  150.4649  138.2365  156.2282 C   0  0  0  0  0  0  0  0  0  0  0  0
  149.8082  137.9285  157.4139 N   0  0  0  0  0  0  0  0  0  0  0  0
  149.7480  136.6256  157.4230 C   0  0  0  0  0  0  0  0  0  0  0  0
  150.3074  136.0032  156.3312 N   0  0  0  0  0  0  0  0  0  0  0  0
  150.3967  134.5299  156.0791 C   0  0  1  0  0  0  0  0  0  0  0  0
  149.5365  133.8479  156.9420 O   0  0  0  0  0  0  0  0  0  0  0  0
  148.8948  132.7611  156.2695 C   0  0  1  0  0  0  0  0  0  0  0  0
  147.3745  133.0195  156.2976 C   0  0  0  0  0  0  0  0  0  0  0  0
  146.9067  133.1065  157.6275 O   0  0  0  0  0  0  0  0  0  0  0  0
  149.5489  132.7135  154.8756 C   0  0  1  0  0  0  0  0  0  0  0  0
  148.7385  132.2150  153.8276 O   0  0  0  0  0  0  0  0  0  0  0  0
  150.0175  134.1403  154.6454 C   0  0  1  0  0  0  0  0  0  0  0  0
  149.0158  134.9705  154.0797 O   0  0  0  0  0  0  0  0  0  0  0  0
  151.0869  141.8481  158.2959 C   0  0  0  0  0  0  0  0  0  0  0  0
  151.0061  143.2462  158.0951 C   0  0  0  0  0  0  0  0  0  0  0  0
  151.7907  144.1291  158.8599 C   0  0  0  0  0  0  0  0  0  0  0  0
  152.6600  143.6240  159.8432 C   0  0  0  0  0  0  0  0  0  0  0  0
  152.7357  142.2367  160.0647 C   0  0  0  0  0  0  0  0  0  0  0  0
  151.9518  141.3478  159.3020 C   0  0  0  0  0  0  0  0  0  0  0  0
  152.0763  139.6545  159.6302 Cl  0  0  0  0  0  0  0  0  0  0  0  0
  151.4257  134.2637  156.3248 H   0  0  0  0  0  0  0  0  0  0  0  0
  149.1134  131.8450  156.8201 H   0  0  0  0  0  0  0  0  0  0  0  0
  150.4304  132.0740  154.9414 H   0  0  0  0  0  0  0  0  0  0  0  0
  150.9009  134.1847  154.0077 H   0  0  0  0  0  0  0  0  0  0  0  0
  148.3604  141.4758  158.3902 H   0  0  0  0  0  0  0  0  0  0  0  0
  148.1545  140.7104  156.8202 H   0  0  0  0  0  0  0  0  0  0  0  0
  148.7117  142.3796  156.9195 H   0  0  0  0  0  0  0  0  0  0  0  0
  150.2135  139.9221  157.9053 H   0  0  0  0  0  0  0  0  0  0  0  0
  151.2640  141.4710  155.7086 H   0  0  0  0  0  0  0  0  0  0  0  0
  152.2047  138.1547  152.8832 H   0  0  0  0  0  0  0  0  0  0  0  0
  149.2944  136.0787  158.2368 H   0  0  0  0  0  0  0  0  0  0  0  0
  147.1519  133.9702  155.8122 H   0  0  0  0  0  0  0  0  0  0  0  0
  146.8227  132.2508  155.7571 H   0  0  0  0  0  0  0  0  0  0  0  0
  146.0091  132.8109  157.6492 H   0  0  0  0  0  0  0  0  0  0  0  0
  149.1529  132.4314  153.0058 H   0  0  0  0  0  0  0  0  0  0  0  0
  149.3508  135.3366  153.2752 H   0  0  0  0  0  0  0  0  0  0  0  0
  150.3426  143.6513  157.3452 H   0  0  0  0  0  0  0  0  0  0  0  0
  151.7250  145.1938  158.6912 H   0  0  0  0  0  0  0  0  0  0  0  0
  153.2638  144.2999  160.4304 H   0  0  0  0  0  0  0  0  0  0  0  0
  153.3986  141.8530  160.8261 H   0  0  0  0  0  0  0  0  0  0  0  0
  1  2  1  0  0  0  0
  1 33  1  0  0  0  0
  1 34  1  0  0  0  0
  1 35  1  0  0  0  0
  2  3  1  0  0  0  0
  2 22  1  0  0  0  0
  2 36  1  0  0  0  0
  3  4  1  0  0  0  0
  3 37  1  0  0  0  0
  4  9  1  0  0  0  0
  4  5  2  0  0  0  0
  5  6  1  0  0  0  0
  6  7  2  0  0  0  0
  6 38  1  0  0  0  0
  7  8  1  0  0  0  0
  8 12  1  0  0  0  0
  8  9  2  0  0  0  0
  9 10  1  0  0  0  0
 10 11  2  0  0  0  0
 11 12  1  0  0  0  0
 11 39  1  0  0  0  0
 12 13  1  0  0  0  0
 13 29  1  0  0  0  0
 13 20  1  0  0  0  0
 13 14  1  0  0  0  0
 14 15  1  0  0  0  0
 15 30  1  0  0  0  0
 15 16  1  0  0  0  0
 15 18  1  0  0  0  0
 16 17  1  0  0  0  0
 16 40  1  0  0  0  0
 16 41  1  0  0  0  0
 17 42  1  0  0  0  0
 18 31  1  0  0  0  0
 18 19  1  0  0  0  0
 18 20  1  0  0  0  0
 19 43  1  0  0  0  0
 20 32  1  0  0  0  0
 20 21  1  0  0  0  0
 21 44  1  0  0  0  0
 22 27  1  0  0  0  0
 22 23  2  0  0  0  0
 23 24  1  0  0  0  0
 23 45  1  0  0  0  0
 24 25  2  0  0  0  0
 24 46  1  0  0  0  0
 25 26  1  0  0  0  0
 25 47  1  0  0  0  0
 26 27  2  0  0  0  0
 26 48  1  0  0  0  0
 27 28  1  0  0  0  0
M  END
> <s_m_source_file>
AV-unprocessed.smi

> <i_m_source_file_index>
283

> <i_lp_mmshare_version>
43012

> <i_f3d_flags>
0

> <s_epik_input>
Q2xjMVtjSF1bY0hdW2NIXVtjSF1jMVtDQEhdKFtDSDNdKVtOSF1jKG5bY0hdbjIpYyhjMjMpbltjSF1uM1tDQEBIXTRPW0NASF0oW0NIMl1bT0hdKVtDQEBIXShbT0hdKVtDQEhdNFtPSF0=

> <s_epik_cmdline>
J2VwaWtfcHl0aG9uJywgJy1waCcsICc3LjAnLCAnLXRuJywgJzgnLCAnLW1hJywgJzIwMCcsICctbWV0YWxfYmluZGluZycsICctaW1hZScsICc8aW5maWxlLm1hZT4nLCAnLW9tYWUnLCAnPG91dGZpbGUubWFlPic=

> <r_lp_tautomer_probability>
1

> <r_epik_Ionization_Penalty>
0.000266407

> <r_epik_Ionization_Penalty_Charging>
0

> <r_epik_Ionization_Penalty_Neutral>
0.000266407

> <r_epik_State_Penalty>
-0

> <r_epik_Charging_Adjusted_Penalty>
0

> <i_epik_Tot_Q>
0

> <i_epik_Tot_abs_Q>
0

> <r_epik_Metal_State_Penalty>
-0

> <b_epik_Metal_Only>
0

> <s_epik_Chemistry_Notes>
This compound contains an acetal/aminal-like group ( X-CH(R)-Y where X, Y are N, S, or O) that may be acid/base labile, releasing an aldehyde.

> <s_lp_Force_Field>
OPLS_2005

> <r_lp_Energy>
55.3457

> <b_lp_Chiralities_Consistent>
1

> <s_lp_Variant>
AV-unprocessed.smi:283-8

> <Gold.Version>
5.8.1

> <Gold.Id.Protein>
6NUR|6NUR_protein|mol2

> <Gold.PLP.Fitness>
51.6602

> <Gold.PLP.PLP>
-40.2802

> <Gold.PLP.part.hbond>
-4.0000

> <Gold.PLP.part.metal>
0.0000

> <Gold.PLP.part.buried>
-6.5549

> <Gold.PLP.part.nonpolar>
-30.3211

> <Gold.PLP.part.repulsive>
0.6839

> <Gold.PLP.ligand.clash>
0.0000

> <Gold.PLP.ligand.torsion>
0.8674

> <Gold.PLP.Chemscore.Hbond>
3.6900

> <Gold.PLP.Chemscore.CHOScore>
0.6510

> <Gold.PLP.Chemscore.Metal>
0.0000

> <Gold.Chemscore.Hbonds>
donor molecule, donor type, donor heavy atom, donor atom, acceptor molecule, acceptor atom, score
      L1  H    21    44       P1  7948  0.71
      P1  H  7989  7998       L1     5  1.00
      P1  H 10752 10763       L1     7  1.00
      L1  C     6    38       P1  7949  0.22

> <Gold.PLP.Chemscore.Internal.Correction>
0.0920

> <Gold.Rescore>
     Score         DG    S(hbond)    S(metal)    S(lipo)     H(rot)  DE(clash)    DE(int)     intcor
     12.95     -15.45       2.81        0.00      94.55       4.10       0.55       1.96       ----

> <Gold.Chemscore.Fitness>
12.9513

> <Gold.Chemscore.DG>
-15.4549

> <Gold.Chemscore.ZeroCoef>
-5.4800

> <Gold.Chemscore.Hbond>
2.8144

> <Gold.Chemscore.Metal>
0.0000

> <Gold.Chemscore.Lipo>
94.5530

> <Gold.Chemscore.Internal_Hbond>
0.0000

> <Gold.Chemscore.DEClash>
0.5463

> <Gold.Chemscore.DEInternal>
1.9572

> <Gold.Chemscore.Rot>
4.0968

> <Gold.Chemscore.Internal.Correction>
   9.000000E+99

> <Gold.Chemscore.Hbonds>
donor molecule, donor type, donor heavy atom, donor atom, acceptor molecule, acceptor atom, score
      L1  H    21    44       P1  7948  0.09
      P1  H  7989  7998       L1     5  0.91
      P1  H 10752 10763       L1     7  0.68

> <Gold.Chemscore.Hbond.Weighted>
-9.4001

> <Gold.Chemscore.Metal.Weighted>
-0.0000

> <Gold.Chemscore.Lipo.Weighted>
-11.0627

> <Gold.Chemscore.Internal_Hbond.Weighted>
0.0000

> <Gold.Chemscore.DEClash.Weighted>
0.5463

> <Gold.Chemscore.DEInternal.Weighted>
1.9572

> <Gold.Chemscore.Rot.Weighted>
10.4879

> <Gold.Chemscore.Internal.Correction.Weighted>
   9.000000E+99

> <Gold.Protein.RotatedTorsions>
[ 6907 6896 6895 6894 ] final -119.31 input  -60.11 | X-H torsion
[ 7974 7965 7964 7962 ] final  179.46 input  175.53 | X-H torsion
[ 8008 7997 7996 7995 ] final  -71.23 input   59.86 | X-H torsion
[ 10167 10162 10161 10158 ] final  120.33 input  -65.29 | X-H torsion
[ 10718 10713 10712 10709 ] final  165.67 input   66.30 | X-H torsion
[ 10763 10752 10751 10750 ] final   48.84 input  -60.55 | X-H torsion
[ 11005 11000 10999 10996 ] final -107.31 input  -57.11 | X-H torsion

> <Gold.Protein.ActiveResidues>
 VAL166  LYS551  ARG553  GLY616  TRP617  ASP618  TYR619  PRO620  LYS621  CYS622 
 ASP623  PHE694  ASN695  SER759  ASP760  ASP761  ALA762  ILE779  LEU786  VAL792 
 PHE793  MET794  SER795  GLU796  ALA797  LYS798  CYS799  TRP800  GLU811  SER814 

> <Gold.Protein.RotatedAtoms>
  150.8294  133.8116  159.3104 H   0  0  0  0  0  0  0  0  0  0  0  0  # atno 6907 bound_to 6896
  151.5851  135.1055  160.0035 H   0  0  0  0  0  0  0  0  0  0  0  0  # atno 6908 bound_to 6896
  152.4375  133.7347  159.6663 H   0  0  0  0  0  0  0  0  0  0  0  0  # atno 6909 bound_to 6896
  144.7145  140.0551  143.6434 H   0  0  0  0  0  0  0  0  0  0  0  0  # atno 7974 bound_to 7965
  154.5072  140.0819  156.7918 H   0  0  0  0  0  0  0  0  0  0  0  0  # atno 8008 bound_to 7997
  155.3866  140.3430  155.4231 H   0  0  0  0  0  0  0  0  0  0  0  0  # atno 8009 bound_to 7997
  156.1530  140.1564  156.8726 H   0  0  0  0  0  0  0  0  0  0  0  0  # atno 8010 bound_to 7997
  139.5989  144.7050  151.3110 H   0  0  0  0  0  0  0  0  0  0  0  0  # atno 10167 bound_to 10162
  157.0768  131.0381  151.2591 H   0  0  0  0  0  0  0  0  0  0  0  0  # atno 10718 bound_to 10713
  152.9789  135.5931  154.3992 H   0  0  0  0  0  0  0  0  0  0  0  0  # atno 10763 bound_to 10752
  154.3639  135.2767  155.2306 H   0  0  0  0  0  0  0  0  0  0  0  0  # atno 10764 bound_to 10752
  154.4291  135.6040  153.6112 H   0  0  0  0  0  0  0  0  0  0  0  0  # atno 10765 bound_to 10752
  141.0960  133.8970  157.1961 H   0  0  0  0  0  0  0  0  0  0  0  0  # atno 11005 bound_to 11000
  145.9911  139.3016  143.0984 LP  0  0  0  0  0  0  0  0  0  0  0  0  # atno 17320 bound_to 7965
  145.8901  140.9309  143.0556 LP  0  0  0  0  0  0  0  0  0  0  0  0  # atno 17321 bound_to 7965
  140.7234  143.7073  150.7797 LP  0  0  0  0  0  0  0  0  0  0  0  0  # atno 17342 bound_to 10162
  140.0645  143.5122  152.2611 LP  0  0  0  0  0  0  0  0  0  0  0  0  # atno 17343 bound_to 10162
  157.4833  130.7778  149.7435 LP  0  0  0  0  0  0  0  0  0  0  0  0  # atno 17370 bound_to 10713
  155.9935  130.3924  150.2898 LP  0  0  0  0  0  0  0  0  0  0  0  0  # atno 17371 bound_to 10713
  139.9797  135.0102  156.9719 LP  0  0  0  0  0  0  0  0  0  0  0  0  # atno 17394 bound_to 11000
  140.5138  134.0975  155.7276 LP  0  0  0  0  0  0  0  0  0  0  0  0  # atno 17395 bound_to 11000

$$$$
