AV-unprocessed.smi:2032|AV-procd|sdf|8241|dock2
  -GOLD-   2272010513D 1   1.00000     0.00000
 Structure written by MMmdl.
 43 44  0  0  0  0  0  0  0  0  2 V2000
  152.4809  138.5033  155.0161 C   0  0  0  0  0  0  0  0  0  0  0  0
  151.1200  137.8826  154.6811 C   0  0  2  0  0  0  0  0  0  0  0  0
  150.1259  138.9235  154.1353 C   0  0  0  0  0  0  0  0  0  0  0  0
  148.7948  138.3115  153.8708 N   0  3  2  0  0  0  0  0  0  0  0  0
  147.8272  139.2779  153.2541 C   0  0  2  0  0  0  0  0  0  0  0  0
  147.5371  140.5098  154.1465 C   0  0  0  0  0  0  0  0  0  0  0  0
  146.4987  138.5603  152.8869 C   0  0  0  0  0  0  0  0  0  0  0  0
  146.6973  137.2955  152.1844 N   0  0  0  0  0  0  0  0  0  0  0  0
  145.7213  136.4315  151.8697 C   0  0  0  0  0  0  0  0  0  0  0  0
  144.5359  136.6218  152.1436 O   0  0  0  0  0  0  0  0  0  0  0  0
  146.2089  135.3570  151.2256 N   0  0  0  0  0  0  0  0  0  0  0  0
  145.5071  134.2012  150.7935 C   0  0  0  0  0  0  0  0  0  0  0  0
  146.0519  133.2131  150.0741 N   0  0  0  0  0  0  0  0  0  0  0  0
  145.1265  132.2088  149.7782 C   0  0  0  0  0  0  0  0  0  0  0  0
  143.8731  132.4509  150.2835 C   0  0  0  0  0  0  0  0  0  0  0  0
  143.8039  133.9598  151.1540 S   0  0  0  0  0  0  0  0  0  0  0  0
  148.3144  137.6284  155.1036 C   0  0  0  0  0  0  0  0  0  0  0  0
  149.3630  136.6339  155.6380 C   0  0  2  0  0  0  0  0  0  0  0  0
  148.9221  135.9852  156.9548 C   0  0  0  0  0  0  0  0  0  0  0  0
  150.5867  137.3178  155.8709 O   0  0  0  0  0  0  0  0  0  0  0  0
  152.9401  138.9444  154.1308 H   0  0  0  0  0  0  0  0  0  0  0  0
  153.1672  137.7507  155.4056 H   0  0  0  0  0  0  0  0  0  0  0  0
  152.3843  139.2866  155.7687 H   0  0  0  0  0  0  0  0  0  0  0  0
  151.2723  137.0942  153.9414 H   0  0  0  0  0  0  0  0  0  0  0  0
  150.0126  139.7403  154.8502 H   0  0  0  0  0  0  0  0  0  0  0  0
  150.5475  139.3555  153.2301 H   0  0  0  0  0  0  0  0  0  0  0  0
  148.2893  139.6558  152.3409 H   0  0  0  0  0  0  0  0  0  0  0  0
  146.8051  141.1767  153.6918 H   0  0  0  0  0  0  0  0  0  0  0  0
  148.4264  141.1201  154.3037 H   0  0  0  0  0  0  0  0  0  0  0  0
  147.1475  140.2140  155.1212 H   0  0  0  0  0  0  0  0  0  0  0  0
  145.8863  138.3531  153.7632 H   0  0  0  0  0  0  0  0  0  0  0  0
  145.8980  139.2062  152.2458 H   0  0  0  0  0  0  0  0  0  0  0  0
  147.6435  137.0638  151.9186 H   0  0  0  0  0  0  0  0  0  0  0  0
  147.2001  135.3571  151.0351 H   0  0  0  0  0  0  0  0  0  0  0  0
  145.4459  131.3542  149.2002 H   0  0  0  0  0  0  0  0  0  0  0  0
  142.9899  131.8357  150.1954 H   0  0  0  0  0  0  0  0  0  0  0  0
  148.0760  138.3746  155.8638 H   0  0  0  0  0  0  0  0  0  0  0  0
  147.4052  137.0628  154.9025 H   0  0  0  0  0  0  0  0  0  0  0  0
  149.5272  135.8440  154.9028 H   0  0  0  0  0  0  0  0  0  0  0  0
  147.9876  135.4378  156.8295 H   0  0  0  0  0  0  0  0  0  0  0  0
  148.7697  136.7338  157.7328 H   0  0  0  0  0  0  0  0  0  0  0  0
  149.6731  135.2809  157.3131 H   0  0  0  0  0  0  0  0  0  0  0  0
  148.9373  137.5800  153.1891 H   0  0  0  0  0  0  0  0  0  0  0  0
  1  2  1  0  0  0  0
  1 21  1  0  0  0  0
  1 22  1  0  0  0  0
  1 23  1  0  0  0  0
  2 20  1  0  0  0  0
  2  3  1  0  0  0  0
  2 24  1  0  0  0  0
  3  4  1  0  0  0  0
  3 25  1  0  0  0  0
  3 26  1  0  0  0  0
  4  5  1  0  0  0  0
  4 17  1  0  0  0  0
  4 43  1  0  0  0  0
  5  6  1  0  0  0  0
  5  7  1  0  0  0  0
  5 27  1  0  0  0  0
  6 28  1  0  0  0  0
  6 29  1  0  0  0  0
  6 30  1  0  0  0  0
  7  8  1  0  0  0  0
  7 31  1  0  0  0  0
  7 32  1  0  0  0  0
  8  9  1  0  0  0  0
  8 33  1  0  0  0  0
  9 10  2  0  0  0  0
  9 11  1  0  0  0  0
 11 12  1  0  0  0  0
 11 34  1  0  0  0  0
 12 16  1  0  0  0  0
 12 13  2  0  0  0  0
 13 14  1  0  0  0  0
 14 15  2  0  0  0  0
 14 35  1  0  0  0  0
 15 16  1  0  0  0  0
 15 36  1  0  0  0  0
 17 18  1  0  0  0  0
 17 37  1  0  0  0  0
 17 38  1  0  0  0  0
 18 19  1  0  0  0  0
 18 20  1  0  0  0  0
 18 39  1  0  0  0  0
 19 40  1  0  0  0  0
 19 41  1  0  0  0  0
 19 42  1  0  0  0  0
M  CHG  1   4   1
M  END
> <s_m_source_file>
AV-unprocessed.smi

> <i_m_source_file_index>
2032

> <i_lp_mmshare_version>
43012

> <i_f3d_flags>
0

> <s_epik_input>
W0NIM11bQ0BASF0xW0NIMl1OKFtDSDJdW0NASF0oTzEpW0NIM10pW0NASF0oW0NIM10pW0NIMl1bTkhdQyg9TylbTkhdYzJuW2NIXVtjSF1zMg==

> <s_epik_cmdline>
J2VwaWtfcHl0aG9uJywgJy1waCcsICc3LjAnLCAnLXRuJywgJzgnLCAnLW1hJywgJzIwMCcsICctbWV0YWxfYmluZGluZycsICctaW1hZScsICc8aW5maWxlLm1hZT4nLCAnLW9tYWUnLCAnPG91dGZpbGUubWFlPic=

> <r_lp_tautomer_probability>
0.999

> <r_epik_Ionization_Penalty>
0.695838

> <r_epik_Ionization_Penalty_Charging>
0.695697

> <r_epik_Ionization_Penalty_Neutral>
0.000141198

> <r_epik_State_Penalty>
0.717972

> <r_epik_Charging_Adjusted_Penalty>
1.41367

> <i_epik_Tot_Q>
1

> <i_epik_Tot_abs_Q>
1

> <r_epik_Metal_State_Penalty>
0.756405

> <b_epik_Metal_Only>
0

> <s_lp_Force_Field>
OPLS_2005

> <r_lp_Energy>
16.7575

> <b_lp_Chiralities_Consistent>
1

> <s_lp_Variant>
AV-unprocessed.smi:2032-11

> <Gold.Version>
5.8.1

> <Gold.Id.Protein>
6NUR|6NUR_protein|mol2

> <Gold.PLP.Fitness>
44.7576

> <Gold.PLP.PLP>
-32.0657

> <Gold.PLP.part.hbond>
-3.0868

> <Gold.PLP.part.metal>
0.0000

> <Gold.PLP.part.buried>
-3.8291

> <Gold.PLP.part.nonpolar>
-26.4792

> <Gold.PLP.part.repulsive>
1.0975

> <Gold.PLP.ligand.clash>
0.0000

> <Gold.PLP.ligand.torsion>
0.0951

> <Gold.PLP.Chemscore.Hbond>
3.7150

> <Gold.PLP.Chemscore.CHOScore>
0.5603

> <Gold.PLP.Chemscore.Metal>
0.0000

> <Gold.Chemscore.Hbonds>
donor molecule, donor type, donor heavy atom, donor atom, acceptor molecule, acceptor atom, score
      L1  H     4    43       P1  7948  2.00
      L1  H     8    33       P1  7948  1.00
      L1  H    11    34       P1  7948  0.71
      L1  C    15    36       P1 10952  0.57

> <Gold.PLP.Chemscore.Internal.Correction>
0.0562

> <Gold.Rescore>
     Score         DG    S(hbond)    S(metal)    S(lipo)     H(rot)  DE(clash)    DE(int)     intcor
     17.47     -18.90       2.65        0.00      74.27       1.61       0.13       1.30       ----

> <Gold.Chemscore.Fitness>
17.4669

> <Gold.Chemscore.DG>
-18.8957

> <Gold.Chemscore.ZeroCoef>
-5.4800

> <Gold.Chemscore.Hbond>
2.6496

> <Gold.Chemscore.Metal>
0.0000

> <Gold.Chemscore.Lipo>
74.2738

> <Gold.Chemscore.Internal_Hbond>
0.0000

> <Gold.Chemscore.DEClash>
0.1305

> <Gold.Chemscore.DEInternal>
1.2983

> <Gold.Chemscore.Rot>
1.6110

> <Gold.Chemscore.Internal.Correction>
   9.000000E+99

> <Gold.Chemscore.Hbonds>
donor molecule, donor type, donor heavy atom, donor atom, acceptor molecule, acceptor atom, score
      L1  H     4    43       P1  7948  1.00
      L1  H     8    33       P1  7948  0.93
      L1  H    11    34       P1  7948  0.44

> <Gold.Chemscore.Hbond.Weighted>
-8.8498

> <Gold.Chemscore.Metal.Weighted>
-0.0000

> <Gold.Chemscore.Lipo.Weighted>
-8.6900

> <Gold.Chemscore.Internal_Hbond.Weighted>
0.0000

> <Gold.Chemscore.DEClash.Weighted>
0.1305

> <Gold.Chemscore.DEInternal.Weighted>
1.2983

> <Gold.Chemscore.Rot.Weighted>
4.1242

> <Gold.Chemscore.Internal.Correction.Weighted>
   9.000000E+99

> <Gold.Protein.RotatedTorsions>
[ 6907 6896 6895 6894 ] final  -80.24 input  -60.11 | X-H torsion
[ 7974 7965 7964 7962 ] final  -56.40 input  175.53 | X-H torsion
[ 8008 7997 7996 7995 ] final  -43.12 input   59.86 | X-H torsion
[ 10167 10162 10161 10158 ] final -104.82 input  -65.29 | X-H torsion
[ 10718 10713 10712 10709 ] final  148.89 input   66.30 | X-H torsion
[ 10763 10752 10751 10750 ] final  175.52 input  -60.55 | X-H torsion
[ 11005 11000 10999 10996 ] final -138.61 input  -57.11 | X-H torsion

> <Gold.Protein.ActiveResidues>
 VAL166  LYS551  ARG553  GLY616  TRP617  ASP618  TYR619  PRO620  LYS621  CYS622 
 ASP623  PHE694  ASN695  SER759  ASP760  ASP761  ALA762  ILE779  LEU786  VAL792 
 PHE793  MET794  SER795  GLU796  ALA797  LYS798  CYS799  TRP800  GLU811  SER814 

> <Gold.Protein.RotatedAtoms>
  150.6933  134.3999  159.5113 H   0  0  0  0  0  0  0  0  0  0  0  0  # atno 6907 bound_to 6896
  152.1774  134.8780  160.0538 H   0  0  0  0  0  0  0  0  0  0  0  0  # atno 6908 bound_to 6896
  151.9783  133.3714  159.4134 H   0  0  0  0  0  0  0  0  0  0  0  0  # atno 6909 bound_to 6896
  145.8632  140.8270  142.9926 H   0  0  0  0  0  0  0  0  0  0  0  0  # atno 7974 bound_to 7965
  154.3997  140.1456  156.3466 H   0  0  0  0  0  0  0  0  0  0  0  0  # atno 8008 bound_to 7997
  155.8307  140.3466  155.5549 H   0  0  0  0  0  0  0  0  0  0  0  0  # atno 8009 bound_to 7997
  155.8191  140.0895  157.1850 H   0  0  0  0  0  0  0  0  0  0  0  0  # atno 8010 bound_to 7997
  140.2052  143.3788  152.1096 H   0  0  0  0  0  0  0  0  0  0  0  0  # atno 10167 bound_to 10162
  157.3029  131.0874  151.1376 H   0  0  0  0  0  0  0  0  0  0  0  0  # atno 10718 bound_to 10713
  154.4687  135.2770  155.1659 H   0  0  0  0  0  0  0  0  0  0  0  0  # atno 10763 bound_to 10752
  154.3417  135.6169  153.5603 H   0  0  0  0  0  0  0  0  0  0  0  0  # atno 10764 bound_to 10752
  152.9862  135.5790  154.5064 H   0  0  0  0  0  0  0  0  0  0  0  0  # atno 10765 bound_to 10752
  140.8599  134.2181  157.4713 H   0  0  0  0  0  0  0  0  0  0  0  0  # atno 11005 bound_to 11000
  144.6726  140.1126  143.7454 LP  0  0  0  0  0  0  0  0  0  0  0  0  # atno 17320 bound_to 7965
  145.9224  139.2554  143.1373 LP  0  0  0  0  0  0  0  0  0  0  0  0  # atno 17321 bound_to 7965
  139.5201  144.7029  151.5441 LP  0  0  0  0  0  0  0  0  0  0  0  0  # atno 17342 bound_to 10162
  140.6362  143.8979  150.6650 LP  0  0  0  0  0  0  0  0  0  0  0  0  # atno 17343 bound_to 10162
  157.2728  130.6712  149.6027 LP  0  0  0  0  0  0  0  0  0  0  0  0  # atno 17370 bound_to 10713
  155.9672  130.4474  150.5578 LP  0  0  0  0  0  0  0  0  0  0  0  0  # atno 17371 bound_to 10713
  139.8706  134.9724  156.4773 LP  0  0  0  0  0  0  0  0  0  0  0  0  # atno 17394 bound_to 11000
  140.8694  133.7999  155.9349 LP  0  0  0  0  0  0  0  0  0  0  0  0  # atno 17395 bound_to 11000

$$$$
