AV-unprocessed.smi:3126|AV-procd|sdf|11913|dock4
  -GOLD-   2272017293D 1   1.00000     0.00000
 Structure written by MMmdl.
 42 43  0  0  0  0  0  0  0  0  2 V2000
  144.0530  132.5681  150.5996 C   0  0  0  0  0  0  0  0  0  0  0  0
  145.5464  132.9212  150.5765 C   0  0  0  0  0  0  0  0  0  0  0  0
  145.9185  134.1457  151.4373 C   0  0  1  0  0  0  0  0  0  0  0  0
  145.2466  135.4429  150.9388 C   0  0  0  0  0  0  0  0  0  0  0  0
  145.6079  136.6478  151.8214 C   0  0  0  0  0  0  0  0  0  0  0  0
  145.2509  136.3938  153.2951 C   0  0  0  0  0  0  0  0  0  0  0  0
  145.8859  135.0968  153.8297 C   0  0  2  0  0  0  0  0  0  0  0  0
  147.3502  135.2500  153.9866 N   0  3  0  0  0  0  0  0  0  0  0  0
  147.7673  136.2521  154.9869 C   0  0  0  0  0  0  0  0  0  0  0  0
  149.2885  136.4481  154.9675 C   0  0  0  0  0  0  0  0  0  0  0  0
  149.6770  137.9008  155.1584 C   0  0  0  0  0  0  0  0  0  0  0  0
  149.7714  138.4605  156.4494 C   0  0  0  0  0  0  0  0  0  0  0  0
  150.1304  139.8158  156.5770 C   0  0  0  0  0  0  0  0  0  0  0  0
  150.3799  140.5568  155.4046 C   0  0  0  0  0  0  0  0  0  0  0  0
  150.2912  140.0317  154.1635 N   0  0  0  0  0  0  0  0  0  0  0  0
  149.9480  138.7310  154.0497 C   0  0  0  0  0  0  0  0  0  0  0  0
  145.5556  133.8987  152.9182 C   0  0  0  0  0  0  0  0  0  0  0  0
  143.8434  131.7434  149.9181 H   0  0  0  0  0  0  0  0  0  0  0  0
  143.4418  133.4158  150.2887 H   0  0  0  0  0  0  0  0  0  0  0  0
  143.7253  132.2601  151.5921 H   0  0  0  0  0  0  0  0  0  0  0  0
  146.1313  132.0550  150.8886 H   0  0  0  0  0  0  0  0  0  0  0  0
  145.8279  133.1151  149.5409 H   0  0  0  0  0  0  0  0  0  0  0  0
  146.9999  134.2770  151.3751 H   0  0  0  0  0  0  0  0  0  0  0  0
  145.5450  135.6574  149.9131 H   0  0  0  0  0  0  0  0  0  0  0  0
  144.1632  135.3150  150.9237 H   0  0  0  0  0  0  0  0  0  0  0  0
  146.6733  136.8620  151.7300 H   0  0  0  0  0  0  0  0  0  0  0  0
  145.0858  137.5359  151.4641 H   0  0  0  0  0  0  0  0  0  0  0  0
  145.5510  137.2449  153.9079 H   0  0  0  0  0  0  0  0  0  0  0  0
  144.1663  136.3225  153.3872 H   0  0  0  0  0  0  0  0  0  0  0  0
  145.4521  134.8929  154.8101 H   0  0  0  0  0  0  0  0  0  0  0  0
  147.7325  134.3553  154.2580 H   0  0  0  0  0  0  0  0  0  0  0  0
  147.2646  137.1983  154.7805 H   0  0  0  0  0  0  0  0  0  0  0  0
  147.4468  135.9216  155.9761 H   0  0  0  0  0  0  0  0  0  0  0  0
  149.7538  135.8510  155.7531 H   0  0  0  0  0  0  0  0  0  0  0  0
  149.7015  136.0911  154.0228 H   0  0  0  0  0  0  0  0  0  0  0  0
  149.5711  137.8638  157.3273 H   0  0  0  0  0  0  0  0  0  0  0  0
  150.2131  140.2776  157.5499 H   0  0  0  0  0  0  0  0  0  0  0  0
  150.6574  141.5987  155.4659 H   0  0  0  0  0  0  0  0  0  0  0  0
  149.8847  138.3428  153.0439 H   0  0  0  0  0  0  0  0  0  0  0  0
  144.4880  133.6855  152.9905 H   0  0  0  0  0  0  0  0  0  0  0  0
  146.0639  133.0067  153.2871 H   0  0  0  0  0  0  0  0  0  0  0  0
  147.7410  135.5047  153.0905 H   0  0  0  0  0  0  0  0  0  0  0  0
  1  2  1  0  0  0  0
  1 18  1  0  0  0  0
  1 19  1  0  0  0  0
  1 20  1  0  0  0  0
  2  3  1  0  0  0  0
  2 21  1  0  0  0  0
  2 22  1  0  0  0  0
  3 17  1  0  0  0  0
  3  4  1  0  0  0  0
  3 23  1  0  0  0  0
  4  5  1  0  0  0  0
  4 24  1  0  0  0  0
  4 25  1  0  0  0  0
  5  6  1  0  0  0  0
  5 26  1  0  0  0  0
  5 27  1  0  0  0  0
  6  7  1  0  0  0  0
  6 28  1  0  0  0  0
  6 29  1  0  0  0  0
  7  8  1  0  0  0  0
  7 17  1  0  0  0  0
  7 30  1  0  0  0  0
  8  9  1  0  0  0  0
  8 31  1  0  0  0  0
  8 42  1  0  0  0  0
  9 10  1  0  0  0  0
  9 32  1  0  0  0  0
  9 33  1  0  0  0  0
 10 11  1  0  0  0  0
 10 34  1  0  0  0  0
 10 35  1  0  0  0  0
 11 16  1  0  0  0  0
 11 12  2  0  0  0  0
 12 13  1  0  0  0  0
 12 36  1  0  0  0  0
 13 14  2  0  0  0  0
 13 37  1  0  0  0  0
 14 15  1  0  0  0  0
 14 38  1  0  0  0  0
 15 16  2  0  0  0  0
 16 39  1  0  0  0  0
 17 40  1  0  0  0  0
 17 41  1  0  0  0  0
M  CHG  1   8   1
M  END
> <s_m_source_file>
AV-unprocessed.smi

> <i_m_source_file_index>
3126

> <i_lp_mmshare_version>
43012

> <i_f3d_flags>
0

> <s_epik_input>
W0NIM11bQ0gyXVtDQEBIXTFbQ0gyXVtDSDJdW0NIMl1bQ0BIXShbQ0gyXTEpW05IXVtDSDJdW0NIMl1jMltjSF1bY0hdW2NIXW5bY0hdMg==

> <s_epik_cmdline>
J2VwaWtfcHl0aG9uJywgJy1waCcsICc3LjAnLCAnLXRuJywgJzgnLCAnLW1hJywgJzIwMCcsICctbWV0YWxfYmluZGluZycsICctaW1hZScsICc8aW5maWxlLm1hZT4nLCAnLW9tYWUnLCAnPG91dGZpbGUubWFlPic=

> <r_lp_tautomer_probability>
1

> <r_epik_Ionization_Penalty>
0.000947364

> <r_epik_Ionization_Penalty_Charging>
0.000286103

> <r_epik_Ionization_Penalty_Neutral>
0.000661261

> <r_epik_State_Penalty>
-0

> <r_epik_Charging_Adjusted_Penalty>
0.000286103

> <i_epik_Tot_Q>
1

> <i_epik_Tot_abs_Q>
1

> <r_epik_Metal_State_Penalty>
-0

> <b_epik_Metal_Only>
0

> <s_lp_Force_Field>
OPLS_2005

> <r_lp_Energy>
19.3892

> <b_lp_Chiralities_Consistent>
1

> <s_lp_Variant>
AV-unprocessed.smi:3126-4

> <Gold.Version>
5.8.1

> <Gold.Id.Protein>
6NUR|6NUR_protein|mol2

> <Gold.PLP.Fitness>
37.6810

> <Gold.PLP.PLP>
-25.0199

> <Gold.PLP.part.hbond>
-2.0000

> <Gold.PLP.part.metal>
0.0000

> <Gold.PLP.part.buried>
-3.6527

> <Gold.PLP.part.nonpolar>
-20.0435

> <Gold.PLP.part.repulsive>
0.1298

> <Gold.PLP.ligand.clash>
0.0000

> <Gold.PLP.ligand.torsion>
0.6411

> <Gold.PLP.Chemscore.Hbond>
3.0000

> <Gold.PLP.Chemscore.CHOScore>
1.6338

> <Gold.PLP.Chemscore.Metal>
0.0000

> <Gold.Chemscore.Hbonds>
donor molecule, donor type, donor heavy atom, donor atom, acceptor molecule, acceptor atom, score
      L1  H     8    42       P1  7948  2.00
      P1  H  7989  7998       L1    15  0.85
      L1  C    16    39       P1  7948  0.96
      L1  C    16    39       P1  7957  0.76

> <Gold.PLP.Chemscore.Internal.Correction>
0.0421

> <Gold.Rescore>
     Score         DG    S(hbond)    S(metal)    S(lipo)     H(rot)  DE(clash)    DE(int)     intcor
     16.77     -17.21       1.97        0.00      73.74       1.35       0.11       0.33       ----

> <Gold.Chemscore.Fitness>
16.7704

> <Gold.Chemscore.DG>
-17.2144

> <Gold.Chemscore.ZeroCoef>
-5.4800

> <Gold.Chemscore.Hbond>
1.9653

> <Gold.Chemscore.Metal>
0.0000

> <Gold.Chemscore.Lipo>
73.7437

> <Gold.Chemscore.Internal_Hbond>
0.0000

> <Gold.Chemscore.DEClash>
0.1113

> <Gold.Chemscore.DEInternal>
0.3327

> <Gold.Chemscore.Rot>
1.3507

> <Gold.Chemscore.Internal.Correction>
   9.000000E+99

> <Gold.Chemscore.Hbonds>
donor molecule, donor type, donor heavy atom, donor atom, acceptor molecule, acceptor atom, score
      L1  H     8    42       P1  7948  0.99
      P1  H  7989  7998       L1    15  0.14

> <Gold.Chemscore.Hbond.Weighted>
-6.5643

> <Gold.Chemscore.Metal.Weighted>
-0.0000

> <Gold.Chemscore.Lipo.Weighted>
-8.6280

> <Gold.Chemscore.Internal_Hbond.Weighted>
0.0000

> <Gold.Chemscore.DEClash.Weighted>
0.1113

> <Gold.Chemscore.DEInternal.Weighted>
0.3327

> <Gold.Chemscore.Rot.Weighted>
3.4579

> <Gold.Chemscore.Internal.Correction.Weighted>
   9.000000E+99

> <Gold.Protein.RotatedTorsions>
[ 6907 6896 6895 6894 ] final   73.98 input  -60.11 | X-H torsion
[ 7974 7965 7964 7962 ] final  101.57 input  175.53 | X-H torsion
[ 8008 7997 7996 7995 ] final   39.86 input   59.86 | X-H torsion
[ 10167 10162 10161 10158 ] final -162.25 input  -65.29 | X-H torsion
[ 10718 10713 10712 10709 ] final -126.57 input   66.30 | X-H torsion
[ 10763 10752 10751 10750 ] final  -37.05 input  -60.55 | X-H torsion
[ 11005 11000 10999 10996 ] final  150.12 input  -57.11 | X-H torsion

> <Gold.Protein.ActiveResidues>
 VAL166  LYS551  ARG553  GLY616  TRP617  ASP618  TYR619  PRO620  LYS621  CYS622 
 ASP623  PHE694  ASN695  SER759  ASP760  ASP761  ALA762  ILE779  LEU786  VAL792 
 PHE793  MET794  SER795  GLU796  ALA797  LYS798  CYS799  TRP800  GLU811  SER814 

> <Gold.Protein.RotatedAtoms>
  152.4952  134.4340  159.9521 H   0  0  0  0  0  0  0  0  0  0  0  0  # atno 6907 bound_to 6896
  151.4320  133.3661  159.2778 H   0  0  0  0  0  0  0  0  0  0  0  0  # atno 6908 bound_to 6896
  150.9148  134.8588  159.7509 H   0  0  0  0  0  0  0  0  0  0  0  0  # atno 6909 bound_to 6896
  145.3705  139.2399  143.3457 H   0  0  0  0  0  0  0  0  0  0  0  0  # atno 7974 bound_to 7965
  155.2436  140.3347  155.4289 H   0  0  0  0  0  0  0  0  0  0  0  0  # atno 8008 bound_to 7997
  156.2245  140.1823  156.7441 H   0  0  0  0  0  0  0  0  0  0  0  0  # atno 8009 bound_to 7997
  154.5877  140.0643  156.9180 H   0  0  0  0  0  0  0  0  0  0  0  0  # atno 8010 bound_to 7997
  139.6406  144.0267  152.2089 H   0  0  0  0  0  0  0  0  0  0  0  0  # atno 10167 bound_to 10162
  156.1777  130.6711  151.0264 H   0  0  0  0  0  0  0  0  0  0  0  0  # atno 10718 bound_to 10713
  153.8899  135.6813  153.4761 H   0  0  0  0  0  0  0  0  0  0  0  0  # atno 10763 bound_to 10752
  153.1186  135.4750  154.9156 H   0  0  0  0  0  0  0  0  0  0  0  0  # atno 10764 bound_to 10752
  154.7627  135.3215  154.8299 H   0  0  0  0  0  0  0  0  0  0  0  0  # atno 10765 bound_to 10752
  140.1104  134.8928  157.1927 H   0  0  0  0  0  0  0  0  0  0  0  0  # atno 11005 bound_to 11000
  146.2887  140.4355  142.8748 LP  0  0  0  0  0  0  0  0  0  0  0  0  # atno 17320 bound_to 7965
  144.8580  140.7098  143.6126 LP  0  0  0  0  0  0  0  0  0  0  0  0  # atno 17321 bound_to 7965
  139.9955  144.6331  150.7776 LP  0  0  0  0  0  0  0  0  0  0  0  0  # atno 17342 bound_to 10162
  140.7489  143.2929  151.3282 LP  0  0  0  0  0  0  0  0  0  0  0  0  # atno 17343 bound_to 10162
  157.6847  131.0828  150.7275 LP  0  0  0  0  0  0  0  0  0  0  0  0  # atno 17370 bound_to 10713
  156.7333  130.4716  149.5494 LP  0  0  0  0  0  0  0  0  0  0  0  0  # atno 17371 bound_to 10713
  140.3099  134.3035  155.7269 LP  0  0  0  0  0  0  0  0  0  0  0  0  # atno 17394 bound_to 11000
  141.2128  133.7644  156.9762 LP  0  0  0  0  0  0  0  0  0  0  0  0  # atno 17395 bound_to 11000

$$$$
