AV-unprocessed.smi:1168|AV-procd|sdf|4939|dock10
  -GOLD-   22720 3523D 1   1.00000     0.00000
 Structure written by MMmdl.
 32 33  0  0  0  0  0  0  0  0  1 V2000
  152.5595  139.9497  156.5407 O   0  0  0  0  0  0  0  0  0  0  0  0
  151.5555  140.1684  157.2184 C   0  0  0  0  0  0  0  0  0  0  0  0
  151.6083  140.0150  158.7398 C   0  0  0  0  0  0  0  0  0  0  0  0
  151.9014  141.2824  159.3860 N   0  0  0  0  0  0  0  0  0  0  0  0
  152.8115  141.5454  160.3880 C   0  0  0  0  0  0  0  0  0  0  0  0
  152.7334  142.8792  160.6677 C   0  0  0  0  0  0  0  0  0  0  0  0
  151.7365  143.3637  159.7716 C   0  0  0  0  0  0  0  0  0  0  0  0
  151.2221  144.7707  159.6178 C   0  0  0  0  0  0  0  0  0  0  0  0
  151.8759  145.5941  160.4373 F   0  0  0  0  0  0  0  0  0  0  0  0
  151.3998  145.1844  158.3631 F   0  0  0  0  0  0  0  0  0  0  0  0
  149.9226  144.8163  159.9112 F   0  0  0  0  0  0  0  0  0  0  0  0
  151.2463  142.3994  159.0041 N   0  0  0  0  0  0  0  0  0  0  0  0
  150.3792  140.5482  156.6956 N   0  0  0  0  0  0  0  0  0  0  0  0
  150.1216  140.7673  155.2749 C   0  0  0  0  0  0  0  0  0  0  0  0
  148.6733  141.2438  155.0495 C   0  0  0  0  0  0  0  0  0  0  0  0
  148.0989  140.3552  153.9442 C   0  0  0  0  0  0  0  0  0  0  0  0
  148.8570  139.0391  154.0834 C   0  0  0  0  0  0  0  0  0  0  0  0
  150.2748  139.4653  154.4633 C   0  0  0  0  0  0  0  0  0  0  0  0
  150.6590  139.6400  159.1254 H   0  0  0  0  0  0  0  0  0  0  0  0
  152.3728  139.2824  159.0030 H   0  0  0  0  0  0  0  0  0  0  0  0
  153.4292  140.7694  160.8153 H   0  0  0  0  0  0  0  0  0  0  0  0
  153.3035  143.4283  161.4022 H   0  0  0  0  0  0  0  0  0  0  0  0
  149.6066  140.7024  157.3272 H   0  0  0  0  0  0  0  0  0  0  0  0
  150.8150  141.5188  154.8921 H   0  0  0  0  0  0  0  0  0  0  0  0
  148.0784  141.1130  155.9551 H   0  0  0  0  0  0  0  0  0  0  0  0
  148.6252  142.3006  154.7852 H   0  0  0  0  0  0  0  0  0  0  0  0
  147.0190  140.2290  154.0254 H   0  0  0  0  0  0  0  0  0  0  0  0
  148.3107  140.7974  152.9698 H   0  0  0  0  0  0  0  0  0  0  0  0
  148.4220  138.4481  154.8903 H   0  0  0  0  0  0  0  0  0  0  0  0
  148.8280  138.4375  153.1746 H   0  0  0  0  0  0  0  0  0  0  0  0
  150.8410  139.6756  153.5549 H   0  0  0  0  0  0  0  0  0  0  0  0
  150.8096  138.6776  154.9957 H   0  0  0  0  0  0  0  0  0  0  0  0
  1  2  2  0  0  0  0
  2  3  1  0  0  0  0
  2 13  1  0  0  0  0
  3  4  1  0  0  0  0
  3 19  1  0  0  0  0
  3 20  1  0  0  0  0
  4 12  1  0  0  0  0
  4  5  1  0  0  0  0
  5  6  2  0  0  0  0
  5 21  1  0  0  0  0
  6  7  1  0  0  0  0
  6 22  1  0  0  0  0
  7  8  1  0  0  0  0
  7 12  2  0  0  0  0
  8  9  1  0  0  0  0
  8 10  1  0  0  0  0
  8 11  1  0  0  0  0
 13 14  1  0  0  0  0
 13 23  1  0  0  0  0
 14 18  1  0  0  0  0
 14 15  1  0  0  0  0
 14 24  1  0  0  0  0
 15 16  1  0  0  0  0
 15 25  1  0  0  0  0
 15 26  1  0  0  0  0
 16 17  1  0  0  0  0
 16 27  1  0  0  0  0
 16 28  1  0  0  0  0
 17 18  1  0  0  0  0
 17 29  1  0  0  0  0
 17 30  1  0  0  0  0
 18 31  1  0  0  0  0
 18 32  1  0  0  0  0
M  END
> <s_m_source_file>
AV-unprocessed.smi

> <i_m_source_file_index>
1168

> <i_lp_mmshare_version>
43012

> <i_f3d_flags>
0

> <s_epik_input>
W0NIMl0xW0NIMl1bQ0gyXVtDSDJdW0NIXTFbTkhdQyg9TylbQ0gyXW4yW2NIXVtjSF1jKG4yKUMoRikoRilG

> <s_epik_cmdline>
J2VwaWtfcHl0aG9uJywgJy1waCcsICc3LjAnLCAnLXRuJywgJzgnLCAnLW1hJywgJzIwMCcsICctbWV0YWxfYmluZGluZycsICctaW1hZScsICc8aW5maWxlLm1hZT4nLCAnLW9tYWUnLCAnPG91dGZpbGUubWFlPic=

> <r_lp_tautomer_probability>
1

> <r_epik_Ionization_Penalty>
8.05939e-08

> <r_epik_Ionization_Penalty_Charging>
0

> <r_epik_Ionization_Penalty_Neutral>
8.05939e-08

> <r_epik_State_Penalty>
-0

> <r_epik_Charging_Adjusted_Penalty>
0

> <i_epik_Tot_Q>
0

> <i_epik_Tot_abs_Q>
0

> <r_epik_Metal_State_Penalty>
-0

> <b_epik_Metal_Only>
0

> <s_lp_Force_Field>
OPLS_2005

> <r_lp_Energy>
20.3297

> <b_lp_Chiralities_Consistent>
1

> <s_lp_Variant>
AV-unprocessed.smi:1168-1

> <Gold.Version>
5.8.1

> <Gold.Id.Protein>
6NUR|6NUR_protein|mol2

> <Gold.PLP.Fitness>
44.3975

> <Gold.PLP.PLP>
-42.4815

> <Gold.PLP.part.hbond>
-1.0000

> <Gold.PLP.part.metal>
0.0000

> <Gold.PLP.part.buried>
-4.2241

> <Gold.PLP.part.nonpolar>
-36.0949

> <Gold.PLP.part.repulsive>
0.0470

> <Gold.PLP.ligand.clash>
0.0000

> <Gold.PLP.ligand.torsion>
0.5470

> <Gold.PLP.Chemscore.Hbond>
1.0000

> <Gold.PLP.Chemscore.CHOScore>
0.0000

> <Gold.PLP.Chemscore.Metal>
0.0000

> <Gold.Chemscore.Hbonds>
donor molecule, donor type, donor heavy atom, donor atom, acceptor molecule, acceptor atom, score
      P1  H  7997  8008       L1     1  1.00

> <Gold.PLP.Chemscore.Internal.Correction>
0.0100

> <Gold.Rescore>
     Score         DG    S(hbond)    S(metal)    S(lipo)     H(rot)  DE(clash)    DE(int)     intcor
     13.83     -14.37       1.00        0.00      81.99       1.57       0.11       0.43       ----

> <Gold.Chemscore.Fitness>
13.8302

> <Gold.Chemscore.DG>
-14.3737

> <Gold.Chemscore.ZeroCoef>
-5.4800

> <Gold.Chemscore.Hbond>
0.9978

> <Gold.Chemscore.Metal>
0.0000

> <Gold.Chemscore.Lipo>
81.9861

> <Gold.Chemscore.Internal_Hbond>
0.0000

> <Gold.Chemscore.DEClash>
0.1141

> <Gold.Chemscore.DEInternal>
0.4293

> <Gold.Chemscore.Rot>
1.5748

> <Gold.Chemscore.Internal.Correction>
   9.000000E+99

> <Gold.Chemscore.Hbonds>
donor molecule, donor type, donor heavy atom, donor atom, acceptor molecule, acceptor atom, score
      P1  H  7997  8008       L1     1  1.00

> <Gold.Chemscore.Hbond.Weighted>
-3.3327

> <Gold.Chemscore.Metal.Weighted>
-0.0000

> <Gold.Chemscore.Lipo.Weighted>
-9.5924

> <Gold.Chemscore.Internal_Hbond.Weighted>
0.0000

> <Gold.Chemscore.DEClash.Weighted>
0.1141

> <Gold.Chemscore.DEInternal.Weighted>
0.4293

> <Gold.Chemscore.Rot.Weighted>
4.0315

> <Gold.Chemscore.Internal.Correction.Weighted>
   9.000000E+99

> <Gold.Protein.RotatedTorsions>
[ 6907 6896 6895 6894 ] final  -77.18 input  -60.11 | X-H torsion
[ 7974 7965 7964 7962 ] final   14.93 input  175.53 | X-H torsion
[ 8008 7997 7996 7995 ] final  -53.34 input   59.86 | X-H torsion
[ 10167 10162 10161 10158 ] final  -47.18 input  -65.29 | X-H torsion
[ 10718 10713 10712 10709 ] final  103.60 input   66.30 | X-H torsion
[ 10763 10752 10751 10750 ] final  104.97 input  -60.55 | X-H torsion
[ 11005 11000 10999 10996 ] final   35.87 input  -57.11 | X-H torsion

> <Gold.Protein.ActiveResidues>
 VAL166  LYS551  ARG553  GLY616  TRP617  ASP618  TYR619  PRO620  LYS621  CYS622 
 ASP623  PHE694  ASN695  SER759  ASP760  ASP761  ALA762  ILE779  LEU786  VAL792 
 PHE793  MET794  SER795  GLU796  ALA797  LYS798  CYS799  TRP800  GLU811  SER814 

> <Gold.Protein.RotatedAtoms>
  150.7006  134.4460  159.5313 H   0  0  0  0  0  0  0  0  0  0  0  0  # atno 6907 bound_to 6896
  152.2161  134.8453  160.0500 H   0  0  0  0  0  0  0  0  0  0  0  0  # atno 6908 bound_to 6896
  151.9321  133.3579  159.3971 H   0  0  0  0  0  0  0  0  0  0  0  0  # atno 6909 bound_to 6896
  146.2292  139.8969  142.8545 H   0  0  0  0  0  0  0  0  0  0  0  0  # atno 7974 bound_to 7965
  154.4131  140.1202  156.5138 H   0  0  0  0  0  0  0  0  0  0  0  0  # atno 8008 bound_to 7997
  155.6772  140.3496  155.4822 H   0  0  0  0  0  0  0  0  0  0  0  0  # atno 8009 bound_to 7997
  155.9583  140.1118  157.0908 H   0  0  0  0  0  0  0  0  0  0  0  0  # atno 8010 bound_to 7997
  140.6786  143.2796  151.3890 H   0  0  0  0  0  0  0  0  0  0  0  0  # atno 10167 bound_to 10162
  157.6767  131.0783  150.5579 H   0  0  0  0  0  0  0  0  0  0  0  0  # atno 10718 bound_to 10713
  153.3730  135.3925  155.1802 H   0  0  0  0  0  0  0  0  0  0  0  0  # atno 10763 bound_to 10752
  154.8697  135.3707  154.4953 H   0  0  0  0  0  0  0  0  0  0  0  0  # atno 10764 bound_to 10752
  153.5423  135.7084  153.5691 H   0  0  0  0  0  0  0  0  0  0  0  0  # atno 10765 bound_to 10752
  140.2383  134.3445  155.7936 H   0  0  0  0  0  0  0  0  0  0  0  0  # atno 11005 bound_to 11000
  145.2362  140.9992  143.3962 LP  0  0  0  0  0  0  0  0  0  0  0  0  # atno 17320 bound_to 7965
  144.9490  139.4104  143.6412 LP  0  0  0  0  0  0  0  0  0  0  0  0  # atno 17321 bound_to 7965
  139.6093  144.1131  152.2282 LP  0  0  0  0  0  0  0  0  0  0  0  0  # atno 17342 bound_to 10162
  140.0540  144.5910  150.7314 LP  0  0  0  0  0  0  0  0  0  0  0  0  # atno 17343 bound_to 10162
  156.5882  130.4322  149.5948 LP  0  0  0  0  0  0  0  0  0  0  0  0  # atno 17370 bound_to 10713
  156.2605  130.6959  151.1726 LP  0  0  0  0  0  0  0  0  0  0  0  0  # atno 17371 bound_to 10713
  141.2212  133.7284  156.8844 LP  0  0  0  0  0  0  0  0  0  0  0  0  # atno 17394 bound_to 11000
  140.1679  134.9120  157.2797 LP  0  0  0  0  0  0  0  0  0  0  0  0  # atno 17395 bound_to 11000

$$$$
