AV-unprocessed.smi:1046|AV-procd|sdf|4554|dock7
  -GOLD-   22720 2583D 1   1.00000     0.00000
 Structure written by MMmdl.
 54 56  0  0  0  0  0  0  0  0  3 V2000
  152.8331  143.1344  161.4674 C   0  0  0  0  0  0  0  0  0  0  0  0
  152.2669  142.8081  160.0965 C   0  0  0  0  0  0  0  0  0  0  0  0
  152.6952  141.6333  159.4379 C   0  0  0  0  0  0  0  0  0  0  0  0
  152.1934  141.2947  158.1623 C   0  0  0  0  0  0  0  0  0  0  0  0
  152.4675  140.2106  157.3461 N   0  0  0  0  0  0  0  0  0  0  0  0
  151.6927  140.4623  156.2952 C   0  0  0  0  0  0  0  0  0  0  0  0
  150.9420  141.5800  156.3372 N   0  0  0  0  0  0  0  0  0  0  0  0
  150.0243  142.0614  155.3205 C   0  0  0  0  0  0  0  0  0  0  0  0
  149.2329  140.9184  154.6564 C   0  0  2  0  0  0  0  0  0  0  0  0
  150.0836  140.2150  153.7715 O   0  0  0  0  0  0  0  0  0  0  0  0
  148.0216  141.4490  153.8644 C   0  0  0  0  0  0  0  0  0  0  0  0
  147.1549  142.3484  154.6694 N   0  3  2  0  0  0  0  0  0  0  0  0
  146.7464  141.7327  155.9563 C   0  0  0  0  0  0  0  0  0  0  0  0
  145.9332  142.7174  156.8153 C   0  0  0  0  0  0  0  0  0  0  0  0
  144.7522  143.2273  156.0732 N   0  3  1  0  0  0  0  0  0  0  0  0
  143.8843  144.1231  156.8805 C   0  0  0  0  0  0  0  0  0  0  0  0
  144.5261  145.4980  157.1349 C   0  0  0  0  0  0  0  0  0  0  0  0
  145.3995  145.4254  158.2420 O   0  0  0  0  0  0  0  0  0  0  0  0
  145.1610  143.8446  154.7875 C   0  0  0  0  0  0  0  0  0  0  0  0
  145.9736  142.8598  153.9279 C   0  0  0  0  0  0  0  0  0  0  0  0
  151.2445  142.1705  157.5590 C   0  0  0  0  0  0  0  0  0  0  0  0
  150.8114  143.3427  158.2033 C   0  0  0  0  0  0  0  0  0  0  0  0
  151.3216  143.6654  159.4782 C   0  0  0  0  0  0  0  0  0  0  0  0
  150.8476  144.9329  160.1667 C   0  0  0  0  0  0  0  0  0  0  0  0
  153.5499  142.3799  161.7928 H   0  0  0  0  0  0  0  0  0  0  0  0
  152.0356  143.1796  162.2093 H   0  0  0  0  0  0  0  0  0  0  0  0
  153.3454  144.0967  161.4497 H   0  0  0  0  0  0  0  0  0  0  0  0
  153.4158  140.9807  159.9086 H   0  0  0  0  0  0  0  0  0  0  0  0
  151.6654  139.7926  155.4478 H   0  0  0  0  0  0  0  0  0  0  0  0
  149.3415  142.7700  155.7910 H   0  0  0  0  0  0  0  0  0  0  0  0
  150.5898  142.6217  154.5740 H   0  0  0  0  0  0  0  0  0  0  0  0
  148.9062  140.2283  155.4335 H   0  0  0  0  0  0  0  0  0  0  0  0
  149.6947  140.2253  152.9091 H   0  0  0  0  0  0  0  0  0  0  0  0
  148.3514  141.9748  152.9669 H   0  0  0  0  0  0  0  0  0  0  0  0
  147.4379  140.5942  153.5180 H   0  0  0  0  0  0  0  0  0  0  0  0
  146.1599  140.8336  155.7598 H   0  0  0  0  0  0  0  0  0  0  0  0
  147.6312  141.4189  156.5117 H   0  0  0  0  0  0  0  0  0  0  0  0
  145.6195  142.2145  157.7293 H   0  0  0  0  0  0  0  0  0  0  0  0
  146.5636  143.5555  157.1170 H   0  0  0  0  0  0  0  0  0  0  0  0
  142.9198  144.2404  156.3843 H   0  0  0  0  0  0  0  0  0  0  0  0
  143.6742  143.6612  157.8465 H   0  0  0  0  0  0  0  0  0  0  0  0
  145.0649  145.8704  156.2644 H   0  0  0  0  0  0  0  0  0  0  0  0
  143.7499  146.2298  157.3604 H   0  0  0  0  0  0  0  0  0  0  0  0
  146.2904  145.4777  157.9280 H   0  0  0  0  0  0  0  0  0  0  0  0
  144.2763  144.1601  154.2328 H   0  0  0  0  0  0  0  0  0  0  0  0
  145.7488  144.7427  154.9855 H   0  0  0  0  0  0  0  0  0  0  0  0
  146.2850  143.3657  153.0149 H   0  0  0  0  0  0  0  0  0  0  0  0
  145.3432  142.0224  153.6244 H   0  0  0  0  0  0  0  0  0  0  0  0
  150.0930  143.9884  157.7206 H   0  0  0  0  0  0  0  0  0  0  0  0
  150.1010  145.4561  159.5686 H   0  0  0  0  0  0  0  0  0  0  0  0
  151.6839  145.6134  160.3282 H   0  0  0  0  0  0  0  0  0  0  0  0
  150.3985  144.7000  161.1324 H   0  0  0  0  0  0  0  0  0  0  0  0
  147.7279  143.1468  154.9056 H   0  0  0  0  0  0  0  0  0  0  0  0
  144.1807  142.4286  155.8352 H   0  0  0  0  0  0  0  0  0  0  0  0
  1  2  1  0  0  0  0
  1 25  1  0  0  0  0
  1 26  1  0  0  0  0
  1 27  1  0  0  0  0
  2 23  1  0  0  0  0
  2  3  2  0  0  0  0
  3  4  1  0  0  0  0
  3 28  1  0  0  0  0
  4 21  2  0  0  0  0
  4  5  1  0  0  0  0
  5  6  2  0  0  0  0
  6  7  1  0  0  0  0
  6 29  1  0  0  0  0
  7  8  1  0  0  0  0
  7 21  1  0  0  0  0
  8  9  1  0  0  0  0
  8 30  1  0  0  0  0
  8 31  1  0  0  0  0
  9 10  1  0  0  0  0
  9 11  1  0  0  0  0
  9 32  1  0  0  0  0
 10 33  1  0  0  0  0
 11 12  1  0  0  0  0
 11 34  1  0  0  0  0
 11 35  1  0  0  0  0
 12 20  1  0  0  0  0
 12 13  1  0  0  0  0
 12 53  1  0  0  0  0
 13 14  1  0  0  0  0
 13 36  1  0  0  0  0
 13 37  1  0  0  0  0
 14 15  1  0  0  0  0
 14 38  1  0  0  0  0
 14 39  1  0  0  0  0
 15 16  1  0  0  0  0
 15 19  1  0  0  0  0
 15 54  1  0  0  0  0
 16 17  1  0  0  0  0
 16 40  1  0  0  0  0
 16 41  1  0  0  0  0
 17 18  1  0  0  0  0
 17 42  1  0  0  0  0
 17 43  1  0  0  0  0
 18 44  1  0  0  0  0
 19 20  1  0  0  0  0
 19 45  1  0  0  0  0
 19 46  1  0  0  0  0
 20 47  1  0  0  0  0
 20 48  1  0  0  0  0
 21 22  1  0  0  0  0
 22 23  2  0  0  0  0
 22 49  1  0  0  0  0
 23 24  1  0  0  0  0
 24 50  1  0  0  0  0
 24 51  1  0  0  0  0
 24 52  1  0  0  0  0
M  CHG  1  12   1
M  CHG  1  15   1
M  END
> <s_m_source_file>
AV-unprocessed.smi

> <i_m_source_file_index>
1046

> <i_lp_mmshare_version>
43012

> <i_f3d_flags>
0

> <s_epik_input>
W0NIM11jKFtjSF0xKWMoW0NIM10pW2NIXWMoYzEyKW4oW2NIXW4yKVtDSDJdW0NASF0oW09IXSlbQ0gyXU4zW0NIMl1bQ0gyXU4oW0NIMl1bQ0gyXTMpW0NIMl1bQ0gyXVtPSF0=

> <s_epik_cmdline>
J2VwaWtfcHl0aG9uJywgJy1waCcsICc3LjAnLCAnLXRuJywgJzgnLCAnLW1hJywgJzIwMCcsICctbWV0YWxfYmluZGluZycsICctaW1hZScsICc8aW5maWxlLm1hZT4nLCAnLW9tYWUnLCAnPG91dGZpbGUubWFlPic=

> <r_epik_Ionization_Penalty>
3.17398

> <r_epik_Ionization_Penalty_Charging>
3.09061

> <r_epik_Ionization_Penalty_Neutral>
0.0833726

> <r_epik_State_Penalty>
2.17606

> <r_epik_Charging_Adjusted_Penalty>
5.26667

> <i_epik_Tot_Q>
2

> <i_epik_Tot_abs_Q>
2

> <r_epik_Metal_State_Penalty>
2.08587

> <b_epik_Metal_Only>
0

> <s_lp_Force_Field>
OPLS_2005

> <r_lp_Energy>
27.9633

> <b_lp_Chiralities_Consistent>
1

> <s_lp_Variant>
AV-unprocessed.smi:1046-7

> <Gold.Version>
5.8.1

> <Gold.Id.Protein>
6NUR|6NUR_protein|mol2

> <Gold.PLP.Fitness>
65.7956

> <Gold.PLP.PLP>
-49.4076

> <Gold.PLP.part.hbond>
-4.9837

> <Gold.PLP.part.metal>
0.0000

> <Gold.PLP.part.buried>
-4.7876

> <Gold.PLP.part.nonpolar>
-37.8859

> <Gold.PLP.part.repulsive>
0.1173

> <Gold.PLP.ligand.clash>
0.0000

> <Gold.PLP.ligand.torsion>
0.6199

> <Gold.PLP.Chemscore.Hbond>
5.7912

> <Gold.PLP.Chemscore.CHOScore>
0.0000

> <Gold.PLP.Chemscore.Metal>
0.0000

> <Gold.Chemscore.Hbonds>
donor molecule, donor type, donor heavy atom, donor atom, acceptor molecule, acceptor atom, score
      L1  H    10    33       P1  7957  1.00
      L1  H    12    53       P1  8028  1.89
      L1  H    18    44       P1  8029  1.00
      P1  H  7989  7998       L1    10  0.75
      P1  H  7997  8010       L1     5  0.99

> <Gold.PLP.Chemscore.Internal.Correction>
0.2540

> <Gold.Rescore>
     Score         DG    S(hbond)    S(metal)    S(lipo)     H(rot)  DE(clash)    DE(int)     intcor
     21.04     -23.89       3.64        0.00     125.22       3.28       1.16       1.69       ----

> <Gold.Chemscore.Fitness>
21.0404

> <Gold.Chemscore.DG>
-23.8865

> <Gold.Chemscore.ZeroCoef>
-5.4800

> <Gold.Chemscore.Hbond>
3.6408

> <Gold.Chemscore.Metal>
0.0000

> <Gold.Chemscore.Lipo>
125.2151

> <Gold.Chemscore.Internal_Hbond>
0.0000

> <Gold.Chemscore.DEClash>
1.1576

> <Gold.Chemscore.DEInternal>
1.6885

> <Gold.Chemscore.Rot>
3.2828

> <Gold.Chemscore.Internal.Correction>
   9.000000E+99

> <Gold.Chemscore.Hbonds>
donor molecule, donor type, donor heavy atom, donor atom, acceptor molecule, acceptor atom, score
      L1  H    10    33       P1  7957  0.99
      L1  H    12    53       P1  8028  0.59
      L1  H    18    44       P1  8029  0.91
      P1  H  7989  7998       L1    10  0.22
      P1  H  7997  8010       L1     5  0.54

> <Gold.Chemscore.Hbond.Weighted>
-12.1603

> <Gold.Chemscore.Metal.Weighted>
-0.0000

> <Gold.Chemscore.Lipo.Weighted>
-14.6502

> <Gold.Chemscore.Internal_Hbond.Weighted>
0.0000

> <Gold.Chemscore.DEClash.Weighted>
1.1576

> <Gold.Chemscore.DEInternal.Weighted>
1.6885

> <Gold.Chemscore.Rot.Weighted>
8.4039

> <Gold.Chemscore.Internal.Correction.Weighted>
   9.000000E+99

> <Gold.Protein.RotatedTorsions>
[ 6907 6896 6895 6894 ] final  -54.67 input  -60.11 | X-H torsion
[ 7974 7965 7964 7962 ] final  113.92 input  175.53 | X-H torsion
[ 8008 7997 7996 7995 ] final   55.18 input   59.86 | X-H torsion
[ 10167 10162 10161 10158 ] final   -5.20 input  -65.29 | X-H torsion
[ 10718 10713 10712 10709 ] final -148.83 input   66.30 | X-H torsion
[ 10763 10752 10751 10750 ] final  126.37 input  -60.55 | X-H torsion
[ 11005 11000 10999 10996 ] final   75.07 input  -57.11 | X-H torsion

> <Gold.Protein.ActiveResidues>
 VAL166  LYS551  ARG553  GLY616  TRP617  ASP618  TYR619  PRO620  LYS621  CYS622 
 ASP623  PHE694  ASN695  SER759  ASP760  ASP761  ALA762  ILE779  LEU786  VAL792 
 PHE793  MET794  SER795  GLU796  ALA797  LYS798  CYS799  TRP800  GLU811  SER814 

> <Gold.Protein.RotatedAtoms>
  150.8318  134.7574  159.6859 H   0  0  0  0  0  0  0  0  0  0  0  0  # atno 6907 bound_to 6896
  152.4421  134.5566  159.9892 H   0  0  0  0  0  0  0  0  0  0  0  0  # atno 6908 bound_to 6896
  151.5725  133.3350  159.3028 H   0  0  0  0  0  0  0  0  0  0  0  0  # atno 6909 bound_to 6896
  145.2109  139.2907  143.4269 H   0  0  0  0  0  0  0  0  0  0  0  0  # atno 7974 bound_to 7965
  155.4969  140.3473  155.4364 H   0  0  0  0  0  0  0  0  0  0  0  0  # atno 8008 bound_to 7997
  156.0939  140.1418  156.9584 H   0  0  0  0  0  0  0  0  0  0  0  0  # atno 8009 bound_to 7997
  154.4652  140.0920  156.6977 H   0  0  0  0  0  0  0  0  0  0  0  0  # atno 8010 bound_to 7997
  140.6955  143.6336  150.8500 H   0  0  0  0  0  0  0  0  0  0  0  0  # atno 10167 bound_to 10162
  156.4253  130.8049  151.2274 H   0  0  0  0  0  0  0  0  0  0  0  0  # atno 10718 bound_to 10713
  153.6922  135.3297  155.3205 H   0  0  0  0  0  0  0  0  0  0  0  0  # atno 10763 bound_to 10752
  154.8436  135.4434  154.1496 H   0  0  0  0  0  0  0  0  0  0  0  0  # atno 10764 bound_to 10752
  153.2541  135.6984  153.7725 H   0  0  0  0  0  0  0  0  0  0  0  0  # atno 10765 bound_to 10752
  139.9361  134.7487  156.1226 H   0  0  0  0  0  0  0  0  0  0  0  0  # atno 11005 bound_to 11000
  146.3398  140.2384  142.8595 LP  0  0  0  0  0  0  0  0  0  0  0  0  # atno 17320 bound_to 7965
  144.9857  140.8500  143.5370 LP  0  0  0  0  0  0  0  0  0  0  0  0  # atno 17321 bound_to 7965
  140.0053  143.5700  152.2860 LP  0  0  0  0  0  0  0  0  0  0  0  0  # atno 17342 bound_to 10162
  139.6404  144.7654  151.2350 LP  0  0  0  0  0  0  0  0  0  0  0  0  # atno 17343 bound_to 10162
  157.7508  131.0215  150.3753 LP  0  0  0  0  0  0  0  0  0  0  0  0  # atno 17370 bound_to 10713
  156.4079  130.3928  149.6912 LP  0  0  0  0  0  0  0  0  0  0  0  0  # atno 17371 bound_to 10713
  141.0975  133.6690  156.2678 LP  0  0  0  0  0  0  0  0  0  0  0  0  # atno 17394 bound_to 11000
  140.6073  134.5494  157.5528 LP  0  0  0  0  0  0  0  0  0  0  0  0  # atno 17395 bound_to 11000

$$$$
