AV-unprocessed.smi:101|AV-procd|sdf|926|dock5
  -GOLD-   2262017433D 1   1.00000     0.00000
 Structure written by MMmdl.
 44 46  0  0  0  0  0  0  0  0  1 V2000
  144.7163  140.2580  158.4932 C   0  0  0  0  0  0  0  0  0  0  0  0
  144.9013  141.1924  157.3090 C   0  0  0  0  0  0  0  0  0  0  0  0
  145.8739  141.0064  156.3803 C   0  0  0  0  0  0  0  0  0  0  0  0
  146.0667  141.8435  155.2893 N   0  0  0  0  0  0  0  0  0  0  0  0
  147.1562  141.5798  154.2752 C   0  0  1  0  0  0  0  0  0  0  0  0
  148.3890  141.5597  154.9330 O   0  0  0  0  0  0  0  0  0  0  0  0
  149.1228  140.3985  154.5592 C   0  0  1  0  0  0  0  0  0  0  0  0
  150.0699  139.9960  155.6949 C   0  0  0  0  0  0  0  0  0  0  0  0
  150.8326  141.1251  156.0868 O   0  0  0  0  0  0  0  0  0  0  0  0
  151.8553  140.9813  156.9515 C   0  0  0  0  0  0  0  0  0  0  0  0
  152.5126  139.9444  157.0642 O   0  0  0  0  0  0  0  0  0  0  0  0
  152.1099  142.2093  157.7588 C   0  0  0  0  0  0  0  0  0  0  0  0
  151.5050  143.4288  157.3749 C   0  0  0  0  0  0  0  0  0  0  0  0
  151.7269  144.6048  158.1176 C   0  0  0  0  0  0  0  0  0  0  0  0
  152.5570  144.5757  159.2532 C   0  0  0  0  0  0  0  0  0  0  0  0
  153.1648  143.3689  159.6453 C   0  0  0  0  0  0  0  0  0  0  0  0
  152.9438  142.1918  158.9039 C   0  0  0  0  0  0  0  0  0  0  0  0
  148.0273  139.3707  154.2837 C   0  0  2  0  0  0  0  0  0  0  0  0
  148.4701  138.2845  153.4918 O   0  0  0  0  0  0  0  0  0  0  0  0
  146.9443  140.2080  153.6128 C   0  0  2  0  0  0  0  0  0  0  0  0
  147.1057  140.2917  152.2082 O   0  0  0  0  0  0  0  0  0  0  0  0
  145.1968  142.9357  155.0935 C   0  0  0  0  0  0  0  0  0  0  0  0
  145.2818  143.6937  154.1279 O   0  0  0  0  0  0  0  0  0  0  0  0
  144.2018  143.1304  156.0495 N   0  0  0  0  0  0  0  0  0  0  0  0
  143.9847  142.3280  157.1723 C   0  0  0  0  0  0  0  0  0  0  0  0
  143.0715  142.6042  157.9485 O   0  0  0  0  0  0  0  0  0  0  0  0
  143.5808  143.9154  155.9167 H   0  0  0  0  0  0  0  0  0  0  0  0
  145.4516  139.4527  158.4924 H   0  0  0  0  0  0  0  0  0  0  0  0
  143.7245  139.8052  158.4701 H   0  0  0  0  0  0  0  0  0  0  0  0
  144.8215  140.8056  159.4304 H   0  0  0  0  0  0  0  0  0  0  0  0
  146.5265  140.1540  156.5000 H   0  0  0  0  0  0  0  0  0  0  0  0
  147.1496  142.4205  153.5783 H   0  0  0  0  0  0  0  0  0  0  0  0
  149.6761  140.6079  153.6418 H   0  0  0  0  0  0  0  0  0  0  0  0
  149.5070  139.5968  156.5400 H   0  0  0  0  0  0  0  0  0  0  0  0
  150.7490  139.2143  155.3519 H   0  0  0  0  0  0  0  0  0  0  0  0
  150.8639  143.4759  156.5063 H   0  0  0  0  0  0  0  0  0  0  0  0
  151.2591  145.5301  157.8149 H   0  0  0  0  0  0  0  0  0  0  0  0
  152.7276  145.4775  159.8225 H   0  0  0  0  0  0  0  0  0  0  0  0
  153.8032  143.3449  160.5162 H   0  0  0  0  0  0  0  0  0  0  0  0
  153.4268  141.2830  159.2322 H   0  0  0  0  0  0  0  0  0  0  0  0
  147.6430  138.9849  155.2292 H   0  0  0  0  0  0  0  0  0  0  0  0
  148.5326  138.5734  152.5942 H   0  0  0  0  0  0  0  0  0  0  0  0
  145.9465  139.8184  153.8203 H   0  0  0  0  0  0  0  0  0  0  0  0
  147.8762  139.8011  151.9652 H   0  0  0  0  0  0  0  0  0  0  0  0
  1  2  1  0  0  0  0
  1 28  1  0  0  0  0
  1 29  1  0  0  0  0
  1 30  1  0  0  0  0
  2 25  1  0  0  0  0
  2  3  2  0  0  0  0
  3  4  1  0  0  0  0
  3 31  1  0  0  0  0
  4  5  1  0  0  0  0
  4 22  1  0  0  0  0
  5 20  1  0  0  0  0
  5  6  1  0  0  0  0
  5 32  1  0  0  0  0
  6  7  1  0  0  0  0
  7  8  1  0  0  0  0
  7 18  1  0  0  0  0
  7 33  1  0  0  0  0
  8  9  1  0  0  0  0
  8 34  1  0  0  0  0
  8 35  1  0  0  0  0
  9 10  1  0  0  0  0
 10 11  2  0  0  0  0
 10 12  1  0  0  0  0
 12 17  1  0  0  0  0
 12 13  2  0  0  0  0
 13 14  1  0  0  0  0
 13 36  1  0  0  0  0
 14 15  2  0  0  0  0
 14 37  1  0  0  0  0
 15 16  1  0  0  0  0
 15 38  1  0  0  0  0
 16 17  2  0  0  0  0
 16 39  1  0  0  0  0
 17 40  1  0  0  0  0
 18 19  1  0  0  0  0
 18 20  1  0  0  0  0
 18 41  1  0  0  0  0
 19 42  1  0  0  0  0
 20 21  1  0  0  0  0
 20 43  1  0  0  0  0
 21 44  1  0  0  0  0
 22 23  2  0  0  0  0
 22 24  1  0  0  0  0
 24 27  1  0  0  0  0
 24 25  1  0  0  0  0
 25 26  2  0  0  0  0
M  END
> <s_m_source_file>
AV-unprocessed.smi

> <i_m_source_file_index>
101

> <i_lp_mmshare_version>
43012

> <i_f3d_flags>
0

> <s_epik_input>
Tz1jMVtuSF1jKD1PKW4oW2NIXWMxW0NIM10pW0NAQEhdMk9bQ0BIXShbQ0BASF0oW09IXSlbQ0BIXTJbT0hdKVtDSDJdT0MoPU8pYzNbY0hdW2NIXVtjSF1bY0hdW2NIXTM=

> <s_epik_cmdline>
J2VwaWtfcHl0aG9uJywgJy1waCcsICc3LjAnLCAnLXRuJywgJzgnLCAnLW1hJywgJzIwMCcsICctbWV0YWxfYmluZGluZycsICctaW1hZScsICc8aW5maWxlLm1hZT4nLCAnLW9tYWUnLCAnPG91dGZpbGUubWFlPic=

> <r_lp_tautomer_probability>
0.999537

> <r_epik_Ionization_Penalty>
0.00263537

> <r_epik_Ionization_Penalty_Charging>
0.00263428

> <r_epik_Ionization_Penalty_Neutral>
1.09111e-06

> <r_epik_State_Penalty>
0.00183335

> <r_epik_Charging_Adjusted_Penalty>
0.00446763

> <i_epik_Tot_Q>
0

> <i_epik_Tot_abs_Q>
0

> <r_epik_Metal_State_Penalty>
1.00528

> <b_epik_Metal_Only>
0

> <s_epik_Chemistry_Notes>
This compound has an ester and may undergo hydrolysis at high or low pH. This compound contains an acetal/aminal-like group ( X-CH(R)-Y where X, Y are N, S, or O) that may be acid/base labile, releasing an aldehyde.

> <s_lp_Force_Field>
OPLS_2005

> <r_lp_Energy>
34.5485

> <b_lp_Chiralities_Consistent>
1

> <s_lp_Variant>
AV-unprocessed.smi:101-14

> <Gold.Version>
5.8.1

> <Gold.Id.Protein>
6NUR|6NUR_protein|mol2

> <Gold.PLP.Fitness>
50.8689

> <Gold.PLP.PLP>
-43.0177

> <Gold.PLP.part.hbond>
-3.5040

> <Gold.PLP.part.metal>
0.0000

> <Gold.PLP.part.buried>
-7.0088

> <Gold.PLP.part.nonpolar>
-33.4214

> <Gold.PLP.part.repulsive>
0.4037

> <Gold.PLP.ligand.clash>
0.0000

> <Gold.PLP.ligand.torsion>
0.5482

> <Gold.PLP.Chemscore.Hbond>
2.9675

> <Gold.PLP.Chemscore.CHOScore>
0.0000

> <Gold.PLP.Chemscore.Metal>
0.0000

> <Gold.Chemscore.Hbonds>
donor molecule, donor type, donor heavy atom, donor atom, acceptor molecule, acceptor atom, score
      L1  H    19    42       P1  7957  0.31
      L1  H    21    44       P1  7957  0.82
      P1  H  7997  8010       L1    11  1.00

> <Gold.PLP.Chemscore.Internal.Correction>
0.0451

> <Gold.Rescore>
     Score         DG    S(hbond)    S(metal)    S(lipo)     H(rot)  DE(clash)    DE(int)     intcor
     14.92     -17.85       2.85        0.00      96.89       3.32       2.30       0.63       ----

> <Gold.Chemscore.Fitness>
14.9181

> <Gold.Chemscore.DG>
-17.8544

> <Gold.Chemscore.ZeroCoef>
-5.4800

> <Gold.Chemscore.Hbond>
2.8532

> <Gold.Chemscore.Metal>
0.0000

> <Gold.Chemscore.Lipo>
96.8938

> <Gold.Chemscore.Internal_Hbond>
0.0000

> <Gold.Chemscore.DEClash>
2.3026

> <Gold.Chemscore.DEInternal>
0.6337

> <Gold.Chemscore.Rot>
3.3172

> <Gold.Chemscore.Internal.Correction>
   9.000000E+99

> <Gold.Chemscore.Hbonds>
donor molecule, donor type, donor heavy atom, donor atom, acceptor molecule, acceptor atom, score
      L1  H    19    42       P1  7957  0.28
      L1  H    21    44       P1  7957  0.81
      P1  H  7997  8010       L1    11  0.92

> <Gold.Chemscore.Hbond.Weighted>
-9.5298

> <Gold.Chemscore.Metal.Weighted>
-0.0000

> <Gold.Chemscore.Lipo.Weighted>
-11.3366

> <Gold.Chemscore.Internal_Hbond.Weighted>
0.0000

> <Gold.Chemscore.DEClash.Weighted>
2.3026

> <Gold.Chemscore.DEInternal.Weighted>
0.6337

> <Gold.Chemscore.Rot.Weighted>
8.4920

> <Gold.Chemscore.Internal.Correction.Weighted>
   9.000000E+99

> <Gold.Protein.RotatedTorsions>
[ 6907 6896 6895 6894 ] final  172.31 input  -60.11 | X-H torsion
[ 7974 7965 7964 7962 ] final   32.22 input  175.53 | X-H torsion
[ 8008 7997 7996 7995 ] final   57.91 input   59.86 | X-H torsion
[ 10167 10162 10161 10158 ] final   99.21 input  -65.29 | X-H torsion
[ 10718 10713 10712 10709 ] final  137.25 input   66.30 | X-H torsion
[ 10763 10752 10751 10750 ] final -119.80 input  -60.55 | X-H torsion
[ 11005 11000 10999 10996 ] final  -22.99 input  -57.11 | X-H torsion

> <Gold.Protein.ActiveResidues>
 VAL166  LYS551  ARG553  GLY616  TRP617  ASP618  TYR619  PRO620  LYS621  CYS622 
 ASP623  PHE694  ASN695  SER759  ASP760  ASP761  ALA762  ILE779  LEU786  VAL792 
 PHE793  MET794  SER795  GLU796  ALA797  LYS798  CYS799  TRP800  GLU811  SER814 

> <Gold.Protein.RotatedAtoms>
  151.7864  133.3355  159.3486 H   0  0  0  0  0  0  0  0  0  0  0  0  # atno 6907 bound_to 6896
  150.7407  134.5883  159.5984 H   0  0  0  0  0  0  0  0  0  0  0  0  # atno 6908 bound_to 6896
  152.3241  134.7345  160.0358 H   0  0  0  0  0  0  0  0  0  0  0  0  # atno 6909 bound_to 6896
  146.1500  139.6554  142.9105 H   0  0  0  0  0  0  0  0  0  0  0  0  # atno 7974 bound_to 7965
  155.5414  140.3484  155.4448 H   0  0  0  0  0  0  0  0  0  0  0  0  # atno 8008 bound_to 7997
  156.0648  140.1349  156.9924 H   0  0  0  0  0  0  0  0  0  0  0  0  # atno 8009 bound_to 7997
  154.4498  140.0978  156.6556 H   0  0  0  0  0  0  0  0  0  0  0  0  # atno 8010 bound_to 7997
  139.7638  144.6946  151.0254 H   0  0  0  0  0  0  0  0  0  0  0  0  # atno 10167 bound_to 10162
  157.4380  131.1055  151.0175 H   0  0  0  0  0  0  0  0  0  0  0  0  # atno 10718 bound_to 10713
  154.8627  135.4225  154.2357 H   0  0  0  0  0  0  0  0  0  0  0  0  # atno 10763 bound_to 10752
  153.3333  135.6989  153.6935 H   0  0  0  0  0  0  0  0  0  0  0  0  # atno 10764 bound_to 10752
  153.5943  135.3549  155.2895 H   0  0  0  0  0  0  0  0  0  0  0  0  # atno 10765 bound_to 10752
  140.8709  133.7721  156.0185 H   0  0  0  0  0  0  0  0  0  0  0  0  # atno 11005 bound_to 11000
  145.4846  141.0438  143.2627 LP  0  0  0  0  0  0  0  0  0  0  0  0  # atno 17320 bound_to 7965
  144.7892  139.6363  143.7120 LP  0  0  0  0  0  0  0  0  0  0  0  0  # atno 17321 bound_to 7965
  140.7809  143.4667  151.0203 LP  0  0  0  0  0  0  0  0  0  0  0  0  # atno 17342 bound_to 10162
  139.8352  143.7637  152.3180 LP  0  0  0  0  0  0  0  0  0  0  0  0  # atno 17343 bound_to 10162
  157.1048  130.5997  149.5468 LP  0  0  0  0  0  0  0  0  0  0  0  0  # atno 17370 bound_to 10713
  155.9938  130.5000  150.7394 LP  0  0  0  0  0  0  0  0  0  0  0  0  # atno 17371 bound_to 10713
  140.8574  134.2881  157.5249 LP  0  0  0  0  0  0  0  0  0  0  0  0  # atno 17394 bound_to 11000
  139.8712  134.9500  156.4043 LP  0  0  0  0  0  0  0  0  0  0  0  0  # atno 17395 bound_to 11000

$$$$
