AV-unprocessed.smi:270|AV-procd|sdf|2047|dock4
  -GOLD-   2262021273D 1   1.00000     0.00000
 Structure written by MMmdl.
 54 57  0  0  0  0  0  0  0  0  1 V2000
  146.0254  131.5905  151.4925 C   0  0  0  0  0  0  0  0  0  0  0  0
  145.4956  132.9685  151.9221 C   0  0  2  0  0  0  0  0  0  0  0  0
  144.8160  133.6074  150.8416 O   0  0  0  0  0  0  0  0  0  0  0  0
  145.4093  134.8689  150.5688 C   0  0  0  0  0  0  0  0  0  0  0  0
  146.0191  135.2937  151.8983 C   0  0  0  0  0  0  0  0  0  0  0  0
  146.5406  133.9765  152.4557 C   0  0  2  0  0  0  0  0  0  0  0  0
  147.8184  133.7284  151.8905 O   0  0  0  0  0  0  0  0  0  0  0  0
  146.6707  133.9528  153.9971 C   0  0  0  0  0  0  0  0  0  0  0  0
  147.5387  134.9967  154.5189 N   0  0  0  0  0  0  0  0  0  0  0  0
  147.2094  136.3168  154.7249 C   0  0  0  0  0  0  0  0  0  0  0  0
  148.1703  137.0612  155.1995 N   0  0  0  0  0  0  0  0  0  0  0  0
  149.2446  136.1893  155.3385 C   0  0  0  0  0  0  0  0  0  0  0  0
  150.5868  136.3425  155.7949 C   0  0  0  0  0  0  0  0  0  0  0  0
  151.1390  137.5712  156.2606 N   0  0  0  0  0  0  0  0  0  0  0  0
  152.3836  137.9924  155.6341 C   0  0  0  0  0  0  0  0  0  0  0  0
  152.8858  138.3436  157.0379 C   0  0  0  0  0  0  0  0  0  0  0  0
  152.8426  139.7304  157.3358 O   0  0  0  0  0  0  0  0  0  0  0  0
  152.5181  139.9923  158.6920 C   0  0  0  0  0  0  0  0  0  0  0  0
  152.0152  141.4358  158.8127 C   0  0  0  0  0  0  0  0  0  0  0  0
  151.0723  141.7858  158.1016 O   0  0  0  0  0  0  0  0  0  0  0  0
  152.6121  142.2750  159.6915 N   0  0  0  0  0  0  0  0  0  0  0  0
  153.7294  141.8729  160.5517 C   0  0  0  0  0  0  0  0  0  0  0  0
  152.1466  143.6581  159.8254 C   0  0  0  0  0  0  0  0  0  0  0  0
  151.6831  137.5951  157.6136 C   0  0  0  0  0  0  0  0  0  0  0  0
  151.3462  135.2139  155.8150 N   0  0  0  0  0  0  0  0  0  0  0  0
  150.8578  134.0428  155.3968 C   0  0  0  0  0  0  0  0  0  0  0  0
  149.6397  133.7676  154.9310 N   0  0  0  0  0  0  0  0  0  0  0  0
  148.8570  134.8827  154.9243 C   0  0  0  0  0  0  0  0  0  0  0  0
  146.5606  131.1045  152.3086 H   0  0  0  0  0  0  0  0  0  0  0  0
  146.7031  131.6674  150.6418 H   0  0  0  0  0  0  0  0  0  0  0  0
  145.2050  130.9360  151.1978 H   0  0  0  0  0  0  0  0  0  0  0  0
  144.7351  132.8126  152.6884 H   0  0  0  0  0  0  0  0  0  0  0  0
  146.1845  134.7431  149.8115 H   0  0  0  0  0  0  0  0  0  0  0  0
  144.6767  135.5829  150.1920 H   0  0  0  0  0  0  0  0  0  0  0  0
  146.7856  136.0629  151.7923 H   0  0  0  0  0  0  0  0  0  0  0  0
  145.2328  135.6909  152.5419 H   0  0  0  0  0  0  0  0  0  0  0  0
  148.3341  134.5176  151.9546 H   0  0  0  0  0  0  0  0  0  0  0  0
  145.6902  134.0708  154.4603 H   0  0  0  0  0  0  0  0  0  0  0  0
  147.0501  132.9857  154.3302 H   0  0  0  0  0  0  0  0  0  0  0  0
  146.2292  136.7143  154.5054 H   0  0  0  0  0  0  0  0  0  0  0  0
  152.9421  137.1741  155.1770 H   0  0  0  0  0  0  0  0  0  0  0  0
  152.2609  138.8434  154.9639 H   0  0  0  0  0  0  0  0  0  0  0  0
  153.8346  137.8707  157.2976 H   0  0  0  0  0  0  0  0  0  0  0  0
  151.7359  139.3061  159.0211 H   0  0  0  0  0  0  0  0  0  0  0  0
  153.3748  139.8344  159.3479 H   0  0  0  0  0  0  0  0  0  0  0  0
  153.4424  141.0432  161.1982 H   0  0  0  0  0  0  0  0  0  0  0  0
  154.0704  142.6774  161.2033 H   0  0  0  0  0  0  0  0  0  0  0  0
  154.5877  141.5635  159.9544 H   0  0  0  0  0  0  0  0  0  0  0  0
  152.2185  144.1798  158.8699 H   0  0  0  0  0  0  0  0  0  0  0  0
  152.7204  144.2344  160.5511 H   0  0  0  0  0  0  0  0  0  0  0  0
  151.1038  143.6800  160.1454 H   0  0  0  0  0  0  0  0  0  0  0  0
  151.0816  138.1765  158.3128 H   0  0  0  0  0  0  0  0  0  0  0  0
  151.9533  136.6147  158.0089 H   0  0  0  0  0  0  0  0  0  0  0  0
  151.5413  133.2076  155.4417 H   0  0  0  0  0  0  0  0  0  0  0  0
  1  2  1  0  0  0  0
  1 29  1  0  0  0  0
  1 30  1  0  0  0  0
  1 31  1  0  0  0  0
  2  6  1  0  0  0  0
  2  3  1  0  0  0  0
  2 32  1  0  0  0  0
  3  4  1  0  0  0  0
  4  5  1  0  0  0  0
  4 33  1  0  0  0  0
  4 34  1  0  0  0  0
  5  6  1  0  0  0  0
  5 35  1  0  0  0  0
  5 36  1  0  0  0  0
  6  7  1  0  0  0  0
  6  8  1  0  0  0  0
  7 37  1  0  0  0  0
  8  9  1  0  0  0  0
  8 38  1  0  0  0  0
  8 39  1  0  0  0  0
  9 28  1  0  0  0  0
  9 10  1  0  0  0  0
 10 11  2  0  0  0  0
 10 40  1  0  0  0  0
 11 12  1  0  0  0  0
 12 28  2  0  0  0  0
 12 13  1  0  0  0  0
 13 14  1  0  0  0  0
 13 25  2  0  0  0  0
 14 24  1  0  0  0  0
 14 15  1  0  0  0  0
 15 16  1  0  0  0  0
 15 41  1  0  0  0  0
 15 42  1  0  0  0  0
 16 17  1  0  0  0  0
 16 24  1  0  0  0  0
 16 43  1  0  0  0  0
 17 18  1  0  0  0  0
 18 19  1  0  0  0  0
 18 44  1  0  0  0  0
 18 45  1  0  0  0  0
 19 20  2  0  0  0  0
 19 21  1  0  0  0  0
 21 22  1  0  0  0  0
 21 23  1  0  0  0  0
 22 46  1  0  0  0  0
 22 47  1  0  0  0  0
 22 48  1  0  0  0  0
 23 49  1  0  0  0  0
 23 50  1  0  0  0  0
 23 51  1  0  0  0  0
 24 52  1  0  0  0  0
 24 53  1  0  0  0  0
 25 26  1  0  0  0  0
 26 27  2  0  0  0  0
 26 54  1  0  0  0  0
 27 28  1  0  0  0  0
M  END
> <s_m_source_file>
AV-unprocessed.smi

> <i_m_source_file_index>
270

> <i_lp_mmshare_version>
43012

> <i_f3d_flags>
0

> <s_epik_input>
W0NIMl0xW0NIMl1PW0NAQEhdKFtDSDNdKVtDQEBdMShbT0hdKVtDSDJdbihbY0hdbjIpYyhjMjMpbltjSF1uYzNONFtDSDJdW0NIXShbQ0gyXTQpT1tDSDJdQyg9TylOKFtDSDNdKVtDSDNd

> <s_epik_cmdline>
J2VwaWtfcHl0aG9uJywgJy1waCcsICc3LjAnLCAnLXRuJywgJzgnLCAnLW1hJywgJzIwMCcsICctbWV0YWxfYmluZGluZycsICctaW1hZScsICc8aW5maWxlLm1hZT4nLCAnLW9tYWUnLCAnPG91dGZpbGUubWFlPic=

> <r_lp_tautomer_probability>
1

> <r_epik_Ionization_Penalty>
0.00375854

> <r_epik_Ionization_Penalty_Charging>
0

> <r_epik_Ionization_Penalty_Neutral>
0.00375854

> <r_epik_State_Penalty>
-0

> <r_epik_Charging_Adjusted_Penalty>
0

> <i_epik_Tot_Q>
0

> <i_epik_Tot_abs_Q>
0

> <r_epik_Metal_State_Penalty>
-0

> <b_epik_Metal_Only>
0

> <s_lp_Force_Field>
OPLS_2005

> <r_lp_Energy>
53.9225

> <b_lp_Chiralities_Consistent>
1

> <s_lp_Variant>
AV-unprocessed.smi:270-3

> <Gold.Version>
5.8.1

> <Gold.Id.Protein>
6NUR|6NUR_protein|mol2

> <Gold.PLP.Fitness>
45.1326

> <Gold.PLP.PLP>
-37.3716

> <Gold.PLP.part.hbond>
-3.0000

> <Gold.PLP.part.metal>
0.0000

> <Gold.PLP.part.buried>
-5.2767

> <Gold.PLP.part.nonpolar>
-28.2933

> <Gold.PLP.part.repulsive>
0.3888

> <Gold.PLP.ligand.clash>
0.0000

> <Gold.PLP.ligand.torsion>
0.7549

> <Gold.PLP.Chemscore.Hbond>
2.9913

> <Gold.PLP.Chemscore.CHOScore>
0.0000

> <Gold.PLP.Chemscore.Metal>
0.0000

> <Gold.Chemscore.Hbonds>
donor molecule, donor type, donor heavy atom, donor atom, acceptor molecule, acceptor atom, score
      L1  H     7    37       P1  7948  0.45
      P1  H  7997  8009       L1    17  0.80
      P1  H 10752 10765       L1    25  1.00

> <Gold.PLP.Chemscore.Internal.Correction>
0.2969

> <Gold.Rescore>
     Score         DG    S(hbond)    S(metal)    S(lipo)     H(rot)  DE(clash)    DE(int)     intcor
     12.65     -13.55       2.44        0.00      67.56       3.12       0.06       0.84       ----

> <Gold.Chemscore.Fitness>
12.6475

> <Gold.Chemscore.DG>
-13.5489

> <Gold.Chemscore.ZeroCoef>
-5.4800

> <Gold.Chemscore.Hbond>
2.4432

> <Gold.Chemscore.Metal>
0.0000

> <Gold.Chemscore.Lipo>
67.5587

> <Gold.Chemscore.Internal_Hbond>
0.0000

> <Gold.Chemscore.DEClash>
0.0566

> <Gold.Chemscore.DEInternal>
0.8447

> <Gold.Chemscore.Rot>
3.1234

> <Gold.Chemscore.Internal.Correction>
   9.000000E+99

> <Gold.Chemscore.Hbonds>
donor molecule, donor type, donor heavy atom, donor atom, acceptor molecule, acceptor atom, score
      L1  H     7    37       P1  7948  0.02
      P1  H  7997  8009       L1    17  0.11
      P1  H 10752 10765       L1    25  0.48

> <Gold.Chemscore.Hbond.Weighted>
-8.1604

> <Gold.Chemscore.Metal.Weighted>
-0.0000

> <Gold.Chemscore.Lipo.Weighted>
-7.9044

> <Gold.Chemscore.Internal_Hbond.Weighted>
0.0000

> <Gold.Chemscore.DEClash.Weighted>
0.0566

> <Gold.Chemscore.DEInternal.Weighted>
0.8447

> <Gold.Chemscore.Rot.Weighted>
7.9959

> <Gold.Chemscore.Internal.Correction.Weighted>
   9.000000E+99

> <Gold.Protein.RotatedTorsions>
[ 6907 6896 6895 6894 ] final  163.92 input  -60.11 | X-H torsion
[ 7974 7965 7964 7962 ] final  151.02 input  175.53 | X-H torsion
[ 8008 7997 7996 7995 ] final  170.37 input   59.86 | X-H torsion
[ 10167 10162 10161 10158 ] final  174.83 input  -65.29 | X-H torsion
[ 10718 10713 10712 10709 ] final   22.81 input   66.30 | X-H torsion
[ 10763 10752 10751 10750 ] final -159.93 input  -60.55 | X-H torsion
[ 11005 11000 10999 10996 ] final  175.48 input  -57.11 | X-H torsion

> <Gold.Protein.ActiveResidues>
 VAL166  LYS551  ARG553  GLY616  TRP617  ASP618  TYR619  PRO620  LYS621  CYS622 
 ASP623  PHE694  ASN695  SER759  ASP760  ASP761  ALA762  ILE779  LEU786  VAL792 
 PHE793  MET794  SER795  GLU796  ALA797  LYS798  CYS799  TRP800  GLU811  SER814 

> <Gold.Protein.RotatedAtoms>
  151.9178  133.3577  159.3885 H   0  0  0  0  0  0  0  0  0  0  0  0  # atno 6907 bound_to 6896
  150.7044  134.4666  159.5415 H   0  0  0  0  0  0  0  0  0  0  0  0  # atno 6908 bound_to 6896
  152.2284  134.8346  160.0527 H   0  0  0  0  0  0  0  0  0  0  0  0  # atno 6909 bound_to 6896
  144.8322  139.6483  143.6053 H   0  0  0  0  0  0  0  0  0  0  0  0  # atno 7974 bound_to 7965
  156.1371  140.1539  156.8977 H   0  0  0  0  0  0  0  0  0  0  0  0  # atno 8008 bound_to 7997
  154.4956  140.0839  156.7729 H   0  0  0  0  0  0  0  0  0  0  0  0  # atno 8009 bound_to 7997
  155.4148  140.3420  155.4268 H   0  0  0  0  0  0  0  0  0  0  0  0  # atno 8010 bound_to 7997
  139.5155  144.3101  152.0299 H   0  0  0  0  0  0  0  0  0  0  0  0  # atno 10167 bound_to 10162
  157.1574  130.6702  149.6032 H   0  0  0  0  0  0  0  0  0  0  0  0  # atno 10718 bound_to 10713
  154.7433  135.3074  154.8690 H   0  0  0  0  0  0  0  0  0  0  0  0  # atno 10763 bound_to 10752
  153.9498  135.6765  153.4748 H   0  0  0  0  0  0  0  0  0  0  0  0  # atno 10764 bound_to 10752
  153.1031  135.4902  154.8827 H   0  0  0  0  0  0  0  0  0  0  0  0  # atno 10765 bound_to 10752
  140.3627  134.7099  157.4341 H   0  0  0  0  0  0  0  0  0  0  0  0  # atno 11005 bound_to 11000
  146.2624  139.6442  142.9352 LP  0  0  0  0  0  0  0  0  0  0  0  0  # atno 17320 bound_to 7965
  145.4870  141.0438  143.2614 LP  0  0  0  0  0  0  0  0  0  0  0  0  # atno 17321 bound_to 7965
  140.2546  144.4132  150.6208 LP  0  0  0  0  0  0  0  0  0  0  0  0  # atno 17342 bound_to 10162
  140.6200  143.2175  151.6713 LP  0  0  0  0  0  0  0  0  0  0  0  0  # atno 17343 bound_to 10162
  155.9759  130.4723  150.6495 LP  0  0  0  0  0  0  0  0  0  0  0  0  # atno 17370 bound_to 10713
  157.4164  131.0831  151.1173 LP  0  0  0  0  0  0  0  0  0  0  0  0  # atno 17371 bound_to 10713
  140.0614  134.5990  155.8744 LP  0  0  0  0  0  0  0  0  0  0  0  0  # atno 17394 bound_to 11000
  141.1979  133.6599  156.5766 LP  0  0  0  0  0  0  0  0  0  0  0  0  # atno 17395 bound_to 11000

$$$$
