AV-unprocessed.smi:290|AV-procd|sdf|2246|dock1
  -GOLD-   2262022133D 1   1.00000     0.00000
 Structure written by MMmdl.
 59 62  0  0  0  0  0  0  0  0  2 V2000
  152.6221  141.7708  159.7945 C   0  0  0  0  0  0  0  0  0  0  0  0
  151.7337  142.9973  159.5328 C   0  0  1  0  0  0  0  0  0  0  0  0
  152.4464  144.1425  159.9961 O   0  0  0  0  0  0  0  0  0  0  0  0
  152.1255  145.2522  159.1764 C   0  0  0  0  0  0  0  0  0  0  0  0
  152.0637  144.6293  157.7905 C   0  0  0  0  0  0  0  0  0  0  0  0
  151.3736  143.2934  158.0492 C   0  0  2  0  0  0  0  0  0  0  0  0
  149.9736  143.5102  157.9810 O   0  0  0  0  0  0  0  0  0  0  0  0
  151.7349  142.1919  157.0179 C   0  0  0  0  0  0  0  0  0  0  0  0
  150.9134  140.9965  157.1356 N   0  0  0  0  0  0  0  0  0  0  0  0
  150.3570  140.4910  158.2887 C   0  0  0  0  0  0  0  0  0  0  0  0
  149.6546  139.4021  158.1366 N   0  0  0  0  0  0  0  0  0  0  0  0
  149.7381  139.1293  156.7760 C   0  0  0  0  0  0  0  0  0  0  0  0
  149.2160  138.1031  155.9368 C   0  0  0  0  0  0  0  0  0  0  0  0
  148.4265  137.1011  156.4086 N   0  0  0  0  0  0  0  0  0  0  0  0
  148.3672  136.9510  157.8621 C   0  0  0  0  0  0  0  0  0  0  0  0
  146.8835  136.8011  158.2248 C   0  0  0  0  0  0  0  0  0  0  0  0
  146.1546  137.3112  156.9736 C   0  0  2  0  0  0  0  0  0  0  0  0
  144.7380  136.8683  156.8308 N   0  3  2  0  0  0  0  0  0  0  0  0
  143.9435  137.7361  155.9257 C   0  0  0  0  0  0  0  0  0  0  0  0
  144.0336  136.5754  158.1129 C   0  0  0  0  0  0  0  0  0  0  0  0
  142.6271  135.9510  157.9705 C   0  0  0  0  0  0  0  0  0  0  0  0
  142.6662  134.7273  157.2684 O   0  0  0  0  0  0  0  0  0  0  0  0
  147.0998  136.8385  155.8526 C   0  0  2  0  0  0  0  0  0  0  0  0
  146.9755  135.3415  155.4966 C   0  0  0  0  0  0  0  0  0  0  0  0
  149.5341  138.1607  154.6161 N   0  0  0  0  0  0  0  0  0  0  0  0
  150.2998  139.1489  154.1445 C   0  0  0  0  0  0  0  0  0  0  0  0
  150.8461  140.1689  154.8076 N   0  0  0  0  0  0  0  0  0  0  0  0
  150.5360  140.1188  156.1341 C   0  0  0  0  0  0  0  0  0  0  0  0
  146.1733  138.4024  156.9870 H   0  0  0  0  0  0  0  0  0  0  0  0
  146.9031  137.4070  154.9446 H   0  0  0  0  0  0  0  0  0  0  0  0
  152.1343  140.8492  159.4769 H   0  0  0  0  0  0  0  0  0  0  0  0
  152.8388  141.6737  160.8586 H   0  0  0  0  0  0  0  0  0  0  0  0
  153.5769  141.8507  159.2740 H   0  0  0  0  0  0  0  0  0  0  0  0
  150.8277  142.9016  160.1344 H   0  0  0  0  0  0  0  0  0  0  0  0
  151.1573  145.6617  159.4690 H   0  0  0  0  0  0  0  0  0  0  0  0
  152.8743  146.0406  159.2531 H   0  0  0  0  0  0  0  0  0  0  0  0
  151.5556  145.2569  157.0571 H   0  0  0  0  0  0  0  0  0  0  0  0
  153.0822  144.4631  157.4379 H   0  0  0  0  0  0  0  0  0  0  0  0
  149.7692  143.8762  157.1341 H   0  0  0  0  0  0  0  0  0  0  0  0
  151.6279  142.5685  156.0004 H   0  0  0  0  0  0  0  0  0  0  0  0
  152.7790  141.8959  157.1289 H   0  0  0  0  0  0  0  0  0  0  0  0
  150.4856  140.9622  159.2525 H   0  0  0  0  0  0  0  0  0  0  0  0
  148.9466  136.0853  158.1850 H   0  0  0  0  0  0  0  0  0  0  0  0
  148.7766  137.8314  158.3599 H   0  0  0  0  0  0  0  0  0  0  0  0
  146.6513  135.7506  158.4042 H   0  0  0  0  0  0  0  0  0  0  0  0
  146.6284  137.3554  159.1278 H   0  0  0  0  0  0  0  0  0  0  0  0
  143.9494  138.7738  156.2595 H   0  0  0  0  0  0  0  0  0  0  0  0
  142.9080  137.3983  155.8727 H   0  0  0  0  0  0  0  0  0  0  0  0
  144.3377  137.7166  154.9105 H   0  0  0  0  0  0  0  0  0  0  0  0
  144.6607  135.8719  158.6619 H   0  0  0  0  0  0  0  0  0  0  0  0
  143.9942  137.4638  158.7438 H   0  0  0  0  0  0  0  0  0  0  0  0
  142.1290  135.8148  158.9295 H   0  0  0  0  0  0  0  0  0  0  0  0
  141.9959  136.6276  157.3937 H   0  0  0  0  0  0  0  0  0  0  0  0
  143.3867  134.7533  156.6564 H   0  0  0  0  0  0  0  0  0  0  0  0
  145.9925  135.0984  155.0947 H   0  0  0  0  0  0  0  0  0  0  0  0
  147.1492  134.6946  156.3566 H   0  0  0  0  0  0  0  0  0  0  0  0
  147.7072  135.0695  154.7353 H   0  0  0  0  0  0  0  0  0  0  0  0
  150.5026  139.1188  153.0839 H   0  0  0  0  0  0  0  0  0  0  0  0
  144.7923  135.9747  156.3632 H   0  0  0  0  0  0  0  0  0  0  0  0
  1  2  1  0  0  0  0
  1 31  1  0  0  0  0
  1 32  1  0  0  0  0
  1 33  1  0  0  0  0
  2  6  1  0  0  0  0
  2  3  1  0  0  0  0
  2 34  1  0  0  0  0
  3  4  1  0  0  0  0
  4  5  1  0  0  0  0
  4 35  1  0  0  0  0
  4 36  1  0  0  0  0
  5  6  1  0  0  0  0
  5 37  1  0  0  0  0
  5 38  1  0  0  0  0
  6  7  1  0  0  0  0
  6  8  1  0  0  0  0
  7 39  1  0  0  0  0
  8  9  1  0  0  0  0
  8 40  1  0  0  0  0
  8 41  1  0  0  0  0
  9 28  1  0  0  0  0
  9 10  1  0  0  0  0
 10 11  2  0  0  0  0
 10 42  1  0  0  0  0
 11 12  1  0  0  0  0
 12 28  2  0  0  0  0
 12 13  1  0  0  0  0
 13 14  1  0  0  0  0
 13 25  2  0  0  0  0
 14 23  1  0  0  0  0
 14 15  1  0  0  0  0
 15 16  1  0  0  0  0
 15 43  1  0  0  0  0
 15 44  1  0  0  0  0
 16 17  1  0  0  0  0
 16 45  1  0  0  0  0
 16 46  1  0  0  0  0
 17 29  1  0  0  0  0
 17 18  1  0  0  0  0
 17 23  1  0  0  0  0
 18 19  1  0  0  0  0
 18 20  1  0  0  0  0
 18 59  1  0  0  0  0
 19 47  1  0  0  0  0
 19 48  1  0  0  0  0
 19 49  1  0  0  0  0
 20 21  1  0  0  0  0
 20 50  1  0  0  0  0
 20 51  1  0  0  0  0
 21 22  1  0  0  0  0
 21 52  1  0  0  0  0
 21 53  1  0  0  0  0
 22 54  1  0  0  0  0
 23 30  1  0  0  0  0
 23 24  1  0  0  0  0
 24 55  1  0  0  0  0
 24 56  1  0  0  0  0
 24 57  1  0  0  0  0
 25 26  1  0  0  0  0
 26 27  2  0  0  0  0
 26 58  1  0  0  0  0
 27 28  1  0  0  0  0
M  CHG  1  18   1
M  END
> <s_m_source_file>
AV-unprocessed.smi

> <i_m_source_file_index>
290

> <i_lp_mmshare_version>
43012

> <i_f3d_flags>
0

> <s_epik_input>
W0NIMl0xW0NIMl1PW0NAQEhdKFtDSDNdKVtDQEBdMShbT0hdKVtDSDJdbihbY0hdbjIpYyhjMjMpbltjSF1uYzNONFtDSDJdW0NIMl1bQ0BIXShbQ0BIXTRbQ0gzXSlOKFtDSDNdKVtDSDJdW0NIMl1bT0hd

> <s_epik_cmdline>
J2VwaWtfcHl0aG9uJywgJy1waCcsICc3LjAnLCAnLXRuJywgJzgnLCAnLW1hJywgJzIwMCcsICctbWV0YWxfYmluZGluZycsICctaW1hZScsICc8aW5maWxlLm1hZT4nLCAnLW9tYWUnLCAnPG91dGZpbGUubWFlPic=

> <r_lp_tautomer_probability>
1

> <r_epik_Ionization_Penalty>
0.0036983

> <r_epik_Ionization_Penalty_Charging>
0.0032725

> <r_epik_Ionization_Penalty_Neutral>
0.000425798

> <r_epik_State_Penalty>
-0

> <r_epik_Charging_Adjusted_Penalty>
0.0032725

> <i_epik_Tot_Q>
1

> <i_epik_Tot_abs_Q>
1

> <r_epik_Metal_State_Penalty>
-0

> <b_epik_Metal_Only>
0

> <s_lp_Force_Field>
OPLS_2005

> <r_lp_Energy>
63.8525

> <b_lp_Chiralities_Consistent>
1

> <s_lp_Variant>
AV-unprocessed.smi:290-32

> <Gold.Version>
5.8.1

> <Gold.Id.Protein>
6NUR|6NUR_protein|mol2

> <Gold.PLP.Fitness>
41.9408

> <Gold.PLP.PLP>
-32.0323

> <Gold.PLP.part.hbond>
-3.1691

> <Gold.PLP.part.metal>
0.0000

> <Gold.PLP.part.buried>
-6.4802

> <Gold.PLP.part.nonpolar>
-23.0881

> <Gold.PLP.part.repulsive>
0.2695

> <Gold.PLP.ligand.clash>
0.0000

> <Gold.PLP.ligand.torsion>
1.2887

> <Gold.PLP.Chemscore.Hbond>
2.9675

> <Gold.PLP.Chemscore.CHOScore>
1.0000

> <Gold.PLP.Chemscore.Metal>
0.0000

> <Gold.Chemscore.Hbonds>
donor molecule, donor type, donor heavy atom, donor atom, acceptor molecule, acceptor atom, score
      L1  H     7    39       P1  8028  1.00
      P1  H  7989  7998       L1    27  0.85
      P1  H 11000 11005       L1    22  0.58
      L1  C    26    58       P1  7957  1.00

> <Gold.PLP.Chemscore.Internal.Correction>
0.5835

> <Gold.Rescore>
     Score         DG    S(hbond)    S(metal)    S(lipo)     H(rot)  DE(clash)    DE(int)     intcor
      7.98     -13.66       2.65        0.00      74.63       3.67       1.45       4.23       ----

> <Gold.Chemscore.Fitness>
7.9759

> <Gold.Chemscore.DG>
-13.6650

> <Gold.Chemscore.ZeroCoef>
-5.4800

> <Gold.Chemscore.Hbond>
2.6459

> <Gold.Chemscore.Metal>
0.0000

> <Gold.Chemscore.Lipo>
74.6340

> <Gold.Chemscore.Internal_Hbond>
0.0000

> <Gold.Chemscore.DEClash>
1.4549

> <Gold.Chemscore.DEInternal>
4.2342

> <Gold.Chemscore.Rot>
3.6658

> <Gold.Chemscore.Internal.Correction>
   9.000000E+99

> <Gold.Chemscore.Hbonds>
donor molecule, donor type, donor heavy atom, donor atom, acceptor molecule, acceptor atom, score
      L1  H     7    39       P1  8028  0.85
      P1  H  7989  7998       L1    27  0.15
      P1  H 11000 11005       L1    22  0.56

> <Gold.Chemscore.Hbond.Weighted>
-8.8372

> <Gold.Chemscore.Metal.Weighted>
-0.0000

> <Gold.Chemscore.Lipo.Weighted>
-8.7322

> <Gold.Chemscore.Internal_Hbond.Weighted>
0.0000

> <Gold.Chemscore.DEClash.Weighted>
1.4549

> <Gold.Chemscore.DEInternal.Weighted>
4.2342

> <Gold.Chemscore.Rot.Weighted>
9.3844

> <Gold.Chemscore.Internal.Correction.Weighted>
   9.000000E+99

> <Gold.Protein.RotatedTorsions>
[ 6907 6896 6895 6894 ] final  -98.41 input  -60.11 | X-H torsion
[ 7974 7965 7964 7962 ] final  -86.89 input  175.53 | X-H torsion
[ 8008 7997 7996 7995 ] final -148.84 input   59.86 | X-H torsion
[ 10167 10162 10161 10158 ] final  125.99 input  -65.29 | X-H torsion
[ 10718 10713 10712 10709 ] final  -42.32 input   66.30 | X-H torsion
[ 10763 10752 10751 10750 ] final   89.92 input  -60.55 | X-H torsion
[ 11005 11000 10999 10996 ] final  -95.85 input  -57.11 | X-H torsion

> <Gold.Protein.ActiveResidues>
 VAL166  LYS551  ARG553  GLY616  TRP617  ASP618  TYR619  PRO620  LYS621  CYS622 
 ASP623  PHE694  ASN695  SER759  ASP760  ASP761  ALA762  ILE779  LEU786  VAL792 
 PHE793  MET794  SER795  GLU796  ALA797  LYS798  CYS799  TRP800  GLU811  SER814 

> <Gold.Protein.RotatedAtoms>
  150.7046  134.1198  159.4030 H   0  0  0  0  0  0  0  0  0  0  0  0  # atno 6907 bound_to 6896
  151.9185  135.0306  160.0529 H   0  0  0  0  0  0  0  0  0  0  0  0  # atno 6908 bound_to 6896
  152.2276  133.4997  159.5234 H   0  0  0  0  0  0  0  0  0  0  0  0  # atno 6909 bound_to 6896
  145.4738  140.9559  143.1902 H   0  0  0  0  0  0  0  0  0  0  0  0  # atno 7974 bound_to 7965
  155.5981  140.0659  157.2740 H   0  0  0  0  0  0  0  0  0  0  0  0  # atno 8008 bound_to 7997
  154.4286  140.1823  156.1191 H   0  0  0  0  0  0  0  0  0  0  0  0  # atno 8009 bound_to 7997
  156.0181  140.3319  155.7013 H   0  0  0  0  0  0  0  0  0  0  0  0  # atno 8010 bound_to 7997
  139.5655  144.6909  151.3921 H   0  0  0  0  0  0  0  0  0  0  0  0  # atno 10167 bound_to 10162
  156.2609  130.4197  149.8544 H   0  0  0  0  0  0  0  0  0  0  0  0  # atno 10718 bound_to 10713
  153.1921  135.4453  155.0162 H   0  0  0  0  0  0  0  0  0  0  0  0  # atno 10763 bound_to 10752
  154.8097  135.3289  154.7341 H   0  0  0  0  0  0  0  0  0  0  0  0  # atno 10764 bound_to 10752
  153.7794  135.6978  153.4946 H   0  0  0  0  0  0  0  0  0  0  0  0  # atno 10765 bound_to 10752
  141.1429  133.8056  157.0492 H   0  0  0  0  0  0  0  0  0  0  0  0  # atno 11005 bound_to 11000
  144.7929  139.6291  143.7105 LP  0  0  0  0  0  0  0  0  0  0  0  0  # atno 17320 bound_to 7965
  146.2381  139.5946  142.9510 LP  0  0  0  0  0  0  0  0  0  0  0  0  # atno 17321 bound_to 7965
  140.6938  143.7797  150.7296 LP  0  0  0  0  0  0  0  0  0  0  0  0  # atno 17342 bound_to 10162
  140.1287  143.4545  152.2268 LP  0  0  0  0  0  0  0  0  0  0  0  0  # atno 17343 bound_to 10162
  156.6059  130.8566  151.3443 LP  0  0  0  0  0  0  0  0  0  0  0  0  # atno 17370 bound_to 10713
  157.7250  130.9610  150.1596 LP  0  0  0  0  0  0  0  0  0  0  0  0  # atno 17371 bound_to 10713
  140.0643  134.9737  157.1358 LP  0  0  0  0  0  0  0  0  0  0  0  0  # atno 17394 bound_to 11000
  140.3803  134.2294  155.7171 LP  0  0  0  0  0  0  0  0  0  0  0  0  # atno 17395 bound_to 11000

$$$$
