AV-unprocessed.smi:417|AV-procd|sdf|2527|dock3
  -GOLD-   2262022483D 1   1.00000     0.00000
 Structure written by MMmdl.
 37 38  0  0  0  0  0  0  0  0  1 V2000
  148.4614  141.2845  155.1517 C   0  0  0  0  0  0  0  0  0  0  0  0
  147.5255  141.3003  153.9317 C   0  0  0  0  0  0  0  0  0  0  0  0
  146.4858  142.4282  154.0420 C   0  0  0  0  0  0  0  0  0  0  0  0
  146.8348  139.9405  153.7572 C   0  0  0  0  0  0  0  0  0  0  0  0
  145.9681  139.5912  154.5598 O   0  0  0  0  0  0  0  0  0  0  0  0
  147.2420  139.2053  152.7051 N   0  0  0  0  0  0  0  0  0  0  0  0
  146.7719  137.9327  152.2845 C   0  0  0  0  0  0  0  0  0  0  0  0
  146.2126  137.1335  153.3038 C   0  0  0  0  0  0  0  0  0  0  0  0
  145.7286  135.8487  152.9922 C   0  0  0  0  0  0  0  0  0  0  0  0
  145.8130  135.3748  151.6612 C   0  0  0  0  0  0  0  0  0  0  0  0
  145.3545  134.0968  151.2738 N   0  0  0  0  0  0  0  0  0  0  0  0
  146.3371  133.1255  150.8015 C   0  0  0  0  0  0  0  0  0  0  0  0
  145.7075  131.7247  150.7123 C   0  0  0  0  0  0  0  0  0  0  0  0
  144.5448  131.7730  149.8927 O   0  0  0  0  0  0  0  0  0  0  0  0
  143.5531  132.6396  150.4337 C   0  0  0  0  0  0  0  0  0  0  0  0
  144.1035  134.0740  150.5190 C   0  0  0  0  0  0  0  0  0  0  0  0
  146.3821  136.2544  150.7115 C   0  0  0  0  0  0  0  0  0  0  0  0
  146.8451  137.4866  151.0078 N   0  0  0  0  0  0  0  0  0  0  0  0
  149.1870  140.4729  155.0860 H   0  0  0  0  0  0  0  0  0  0  0  0
  147.9063  141.1613  156.0825 H   0  0  0  0  0  0  0  0  0  0  0  0
  149.0217  142.2170  155.2231 H   0  0  0  0  0  0  0  0  0  0  0  0
  148.1348  141.4932  153.0471 H   0  0  0  0  0  0  0  0  0  0  0  0
  145.8231  142.4428  153.1758 H   0  0  0  0  0  0  0  0  0  0  0  0
  146.9722  143.4024  154.0969 H   0  0  0  0  0  0  0  0  0  0  0  0
  145.8669  142.3188  154.9335 H   0  0  0  0  0  0  0  0  0  0  0  0
  147.9684  139.6108  152.1333 H   0  0  0  0  0  0  0  0  0  0  0  0
  146.1564  137.4949  154.3204 H   0  0  0  0  0  0  0  0  0  0  0  0
  145.3126  135.2466  153.7858 H   0  0  0  0  0  0  0  0  0  0  0  0
  146.7044  133.4299  149.8204 H   0  0  0  0  0  0  0  0  0  0  0  0
  147.1914  133.0932  151.4788 H   0  0  0  0  0  0  0  0  0  0  0  0
  146.4185  131.0211  150.2791 H   0  0  0  0  0  0  0  0  0  0  0  0
  145.4515  131.3488  151.7043 H   0  0  0  0  0  0  0  0  0  0  0  0
  142.6718  132.6139  149.7928 H   0  0  0  0  0  0  0  0  0  0  0  0
  143.2414  132.2841  151.4172 H   0  0  0  0  0  0  0  0  0  0  0  0
  143.3475  134.7165  150.9684 H   0  0  0  0  0  0  0  0  0  0  0  0
  144.2916  134.4599  149.5162 H   0  0  0  0  0  0  0  0  0  0  0  0
  146.4601  135.9769  149.6709 H   0  0  0  0  0  0  0  0  0  0  0  0
  1  2  1  0  0  0  0
  1 19  1  0  0  0  0
  1 20  1  0  0  0  0
  1 21  1  0  0  0  0
  2  3  1  0  0  0  0
  2  4  1  0  0  0  0
  2 22  1  0  0  0  0
  3 23  1  0  0  0  0
  3 24  1  0  0  0  0
  3 25  1  0  0  0  0
  4  5  2  0  0  0  0
  4  6  1  0  0  0  0
  6  7  1  0  0  0  0
  6 26  1  0  0  0  0
  7 18  1  0  0  0  0
  7  8  2  0  0  0  0
  8  9  1  0  0  0  0
  8 27  1  0  0  0  0
  9 10  2  0  0  0  0
  9 28  1  0  0  0  0
 10 11  1  0  0  0  0
 10 17  1  0  0  0  0
 11 16  1  0  0  0  0
 11 12  1  0  0  0  0
 12 13  1  0  0  0  0
 12 29  1  0  0  0  0
 12 30  1  0  0  0  0
 13 14  1  0  0  0  0
 13 31  1  0  0  0  0
 13 32  1  0  0  0  0
 14 15  1  0  0  0  0
 15 16  1  0  0  0  0
 15 33  1  0  0  0  0
 15 34  1  0  0  0  0
 16 35  1  0  0  0  0
 16 36  1  0  0  0  0
 17 18  2  0  0  0  0
 17 37  1  0  0  0  0
M  END
> <s_m_source_file>
AV-unprocessed.smi

> <i_m_source_file_index>
417

> <i_lp_mmshare_version>
43012

> <i_f3d_flags>
0

> <s_epik_input>
W0NIM11bQ0hdKFtDSDNdKUMoPU8pW05IXWMxW2NIXVtjSF1jKFtjSF1uMSlOMltDSDJdW0NIMl1PW0NIMl1bQ0gyXTI=

> <s_epik_cmdline>
J2VwaWtfcHl0aG9uJywgJy1waCcsICc3LjAnLCAnLXRuJywgJzgnLCAnLW1hJywgJzIwMCcsICctbWV0YWxfYmluZGluZycsICctaW1hZScsICc8aW5maWxlLm1hZT4nLCAnLW9tYWUnLCAnPG91dGZpbGUubWFlPic=

> <r_lp_tautomer_probability>
1

> <r_epik_Ionization_Penalty>
0.00384847

> <r_epik_Ionization_Penalty_Charging>
0

> <r_epik_Ionization_Penalty_Neutral>
0.00384847

> <r_epik_State_Penalty>
0.00343319

> <r_epik_Charging_Adjusted_Penalty>
0.00343319

> <i_epik_Tot_Q>
0

> <i_epik_Tot_abs_Q>
0

> <r_epik_Metal_State_Penalty>
-0

> <b_epik_Metal_Only>
0

> <s_lp_Force_Field>
OPLS_2005

> <r_lp_Energy>
26.2331

> <b_lp_Chiralities_Consistent>
1

> <s_lp_Variant>
AV-unprocessed.smi:417-1

> <Gold.Version>
5.8.1

> <Gold.Id.Protein>
6NUR|6NUR_protein|mol2

> <Gold.PLP.Fitness>
37.9910

> <Gold.PLP.PLP>
-29.6214

> <Gold.PLP.part.hbond>
-2.8072

> <Gold.PLP.part.metal>
0.0000

> <Gold.PLP.part.buried>
-0.2623

> <Gold.PLP.part.nonpolar>
-29.0751

> <Gold.PLP.part.repulsive>
2.8533

> <Gold.PLP.ligand.clash>
0.0000

> <Gold.PLP.ligand.torsion>
0.4978

> <Gold.PLP.Chemscore.Hbond>
1.9962

> <Gold.PLP.Chemscore.CHOScore>
1.0000

> <Gold.PLP.Chemscore.Metal>
0.0000

> <Gold.Chemscore.Hbonds>
donor molecule, donor type, donor heavy atom, donor atom, acceptor molecule, acceptor atom, score
      L1  H     6    26       P1  7957  1.00
      P1  H  7954  7966       L1    18  1.00
      P1  H 10785 10796       L1    14  0.04
      L1  C    17    37       P1  7921  1.00

> <Gold.PLP.Chemscore.Internal.Correction>
0.3767

> <Gold.Rescore>
     Score         DG    S(hbond)    S(metal)    S(lipo)     H(rot)  DE(clash)    DE(int)     intcor
     10.96     -16.44       1.64        0.00      72.45       1.18       3.26       2.22       ----

> <Gold.Chemscore.Fitness>
10.9563

> <Gold.Chemscore.DG>
-16.4366

> <Gold.Chemscore.ZeroCoef>
-5.4800

> <Gold.Chemscore.Hbond>
1.6432

> <Gold.Chemscore.Metal>
0.0000

> <Gold.Chemscore.Lipo>
72.4482

> <Gold.Chemscore.Internal_Hbond>
0.0000

> <Gold.Chemscore.DEClash>
3.2620

> <Gold.Chemscore.DEInternal>
2.2183

> <Gold.Chemscore.Rot>
1.1750

> <Gold.Chemscore.Internal.Correction>
   9.000000E+99

> <Gold.Chemscore.Hbonds>
donor molecule, donor type, donor heavy atom, donor atom, acceptor molecule, acceptor atom, score
      L1  H     6    26       P1  7957  0.99
      P1  H  7954  7966       L1    18  0.65
      P1  H 10785 10796       L1    14  0.03

> <Gold.Chemscore.Hbond.Weighted>
-5.4882

> <Gold.Chemscore.Metal.Weighted>
-0.0000

> <Gold.Chemscore.Lipo.Weighted>
-8.4764

> <Gold.Chemscore.Internal_Hbond.Weighted>
0.0000

> <Gold.Chemscore.DEClash.Weighted>
3.2620

> <Gold.Chemscore.DEInternal.Weighted>
2.2183

> <Gold.Chemscore.Rot.Weighted>
3.0080

> <Gold.Chemscore.Internal.Correction.Weighted>
   9.000000E+99

> <Gold.Protein.RotatedTorsions>
[ 6907 6896 6895 6894 ] final  129.44 input  -60.11 | X-H torsion
[ 7974 7965 7964 7962 ] final  -41.48 input  175.53 | X-H torsion
[ 8008 7997 7996 7995 ] final -104.54 input   59.86 | X-H torsion
[ 10167 10162 10161 10158 ] final   73.74 input  -65.29 | X-H torsion
[ 10718 10713 10712 10709 ] final   49.05 input   66.30 | X-H torsion
[ 10763 10752 10751 10750 ] final   99.30 input  -60.55 | X-H torsion
[ 11005 11000 10999 10996 ] final   29.90 input  -57.11 | X-H torsion

> <Gold.Protein.ActiveResidues>
 VAL166  LYS551  ARG553  GLY616  TRP617  ASP618  TYR619  PRO620  LYS621  CYS622 
 ASP623  PHE694  ASN695  SER759  ASP760  ASP761  ALA762  ILE779  LEU786  VAL792 
 PHE793  MET794  SER795  GLU796  ALA797  LYS798  CYS799  TRP800  GLU811  SER814 

> <Gold.Protein.RotatedAtoms>
  152.3623  133.6313  159.6024 H   0  0  0  0  0  0  0  0  0  0  0  0  # atno 6907 bound_to 6896
  150.7610  133.9403  159.3463 H   0  0  0  0  0  0  0  0  0  0  0  0  # atno 6908 bound_to 6896
  151.7239  135.0889  160.0340 H   0  0  0  0  0  0  0  0  0  0  0  0  # atno 6909 bound_to 6896
  146.0207  140.6853  142.9180 H   0  0  0  0  0  0  0  0  0  0  0  0  # atno 7974 bound_to 7965
  154.8869  140.0417  157.1815 H   0  0  0  0  0  0  0  0  0  0  0  0  # atno 8008 bound_to 7997
  154.8581  140.2940  155.5535 H   0  0  0  0  0  0  0  0  0  0  0  0  # atno 8009 bound_to 7997
  156.2998  140.2452  156.3551 H   0  0  0  0  0  0  0  0  0  0  0  0  # atno 8010 bound_to 7997
  140.0212  144.5539  150.7580 H   0  0  0  0  0  0  0  0  0  0  0  0  # atno 10167 bound_to 10162
  157.4748  130.8278  149.8027 H   0  0  0  0  0  0  0  0  0  0  0  0  # atno 10718 bound_to 10713
  153.2997  135.4118  155.1242 H   0  0  0  0  0  0  0  0  0  0  0  0  # atno 10763 bound_to 10752
  154.8545  135.3538  154.5868 H   0  0  0  0  0  0  0  0  0  0  0  0  # atno 10764 bound_to 10752
  153.6293  135.7061  153.5339 H   0  0  0  0  0  0  0  0  0  0  0  0  # atno 10765 bound_to 10752
  140.3001  134.2766  155.7756 H   0  0  0  0  0  0  0  0  0  0  0  0  # atno 11005 bound_to 11000
  144.6989  140.3561  143.7173 LP  0  0  0  0  0  0  0  0  0  0  0  0  # atno 17320 bound_to 7965
  145.7198  139.1706  143.2491 LP  0  0  0  0  0  0  0  0  0  0  0  0  # atno 17321 bound_to 7965
  140.7341  143.2725  151.3842 LP  0  0  0  0  0  0  0  0  0  0  0  0  # atno 17342 bound_to 10162
  139.6138  144.1043  152.2326 LP  0  0  0  0  0  0  0  0  0  0  0  0  # atno 17343 bound_to 10162
  156.0091  130.3841  150.2326 LP  0  0  0  0  0  0  0  0  0  0  0  0  # atno 17370 bound_to 10713
  157.0510  131.0063  151.3253 LP  0  0  0  0  0  0  0  0  0  0  0  0  # atno 17371 bound_to 10713
  141.2130  133.7640  156.9754 LP  0  0  0  0  0  0  0  0  0  0  0  0  # atno 17394 bound_to 11000
  140.1117  134.9472  157.2075 LP  0  0  0  0  0  0  0  0  0  0  0  0  # atno 17395 bound_to 11000

$$$$
