AV-unprocessed.smi:2881|AV-procd|sdf|11056|dock6
  -GOLD-   2272015523D 1   1.00000     0.00000
 Structure written by MMmdl.
 40 42  0  0  0  0  0  0  0  0  1 V2000
  151.1092  136.7995  154.8920 C   0  0  0  0  0  0  0  0  0  0  0  0
  149.9175  135.9882  155.2714 C   0  0  0  0  0  0  0  0  0  0  0  0
  149.5770  135.3750  156.4439 C   0  0  0  0  0  0  0  0  0  0  0  0
  148.3140  134.7700  156.1729 C   0  0  0  0  0  0  0  0  0  0  0  0
  147.4437  133.9787  157.1147 C   0  0  0  0  0  0  0  0  0  0  0  0
  148.0778  133.9352  158.5064 C   0  0  0  0  0  0  0  0  0  0  0  0
  149.1699  133.3929  158.6731 O   0  0  0  0  0  0  0  0  0  0  0  0
  147.3840  134.5210  159.4939 N   0  0  0  0  0  0  0  0  0  0  0  0
  147.8333  134.6720  160.8760 C   0  0  1  0  0  0  0  0  0  0  0  0
  147.8278  136.1455  161.3640 C   0  0  1  0  0  0  0  0  0  0  0  0
  146.4829  136.8359  161.0495 C   0  0  0  0  0  0  0  0  0  0  0  0
  145.5128  136.1319  162.0145 C   0  0  0  0  0  0  0  0  0  0  0  0
  146.4349  135.1654  162.7886 C   0  0  2  0  0  0  0  0  0  0  0  0
  147.7183  135.9822  162.8762 C   0  0  0  0  0  0  0  0  0  0  0  0
  146.8987  133.9794  161.9107 C   0  0  1  0  0  0  0  0  0  0  0  0
  145.7580  133.0815  161.3784 C   0  0  0  0  0  0  0  0  0  0  0  0
  144.9989  132.5606  162.4496 O   0  0  0  0  0  0  0  0  0  0  0  0
  147.9095  134.9844  154.9278 N   0  0  0  0  0  0  0  0  0  0  0  0
  148.8930  135.7293  154.3907 N   0  0  0  0  0  0  0  0  0  0  0  0
  148.8534  136.0489  153.4333 H   0  0  0  0  0  0  0  0  0  0  0  0
  151.8807  136.7417  155.6600 H   0  0  0  0  0  0  0  0  0  0  0  0
  150.8381  137.8476  154.7647 H   0  0  0  0  0  0  0  0  0  0  0  0
  151.5399  136.4442  153.9556 H   0  0  0  0  0  0  0  0  0  0  0  0
  150.1407  135.3671  157.3651 H   0  0  0  0  0  0  0  0  0  0  0  0
  146.4467  134.4148  157.1908 H   0  0  0  0  0  0  0  0  0  0  0  0
  147.3116  132.9620  156.7424 H   0  0  0  0  0  0  0  0  0  0  0  0
  146.4905  134.9298  159.2610 H   0  0  0  0  0  0  0  0  0  0  0  0
  148.8366  134.2521  160.9682 H   0  0  0  0  0  0  0  0  0  0  0  0
  148.6943  136.7172  161.0304 H   0  0  0  0  0  0  0  0  0  0  0  0
  146.5398  137.9001  161.2819 H   0  0  0  0  0  0  0  0  0  0  0  0
  146.1748  136.7521  160.0075 H   0  0  0  0  0  0  0  0  0  0  0  0
  145.0636  136.8586  162.6925 H   0  0  0  0  0  0  0  0  0  0  0  0
  144.6986  135.6276  161.4958 H   0  0  0  0  0  0  0  0  0  0  0  0
  146.0293  134.8568  163.7525 H   0  0  0  0  0  0  0  0  0  0  0  0
  148.5551  135.4348  163.3138 H   0  0  0  0  0  0  0  0  0  0  0  0
  147.5965  136.9279  163.4077 H   0  0  0  0  0  0  0  0  0  0  0  0
  147.5229  133.3482  162.5465 H   0  0  0  0  0  0  0  0  0  0  0  0
  145.0902  133.6663  160.7455 H   0  0  0  0  0  0  0  0  0  0  0  0
  146.1296  132.2567  160.7708 H   0  0  0  0  0  0  0  0  0  0  0  0
  144.4996  131.8227  162.1342 H   0  0  0  0  0  0  0  0  0  0  0  0
  1  2  1  0  0  0  0
  1 21  1  0  0  0  0
  1 22  1  0  0  0  0
  1 23  1  0  0  0  0
  2 19  1  0  0  0  0
  2  3  2  0  0  0  0
  3  4  1  0  0  0  0
  3 24  1  0  0  0  0
  4  5  1  0  0  0  0
  4 18  2  0  0  0  0
  5  6  1  0  0  0  0
  5 25  1  0  0  0  0
  5 26  1  0  0  0  0
  6  7  2  0  0  0  0
  6  8  1  0  0  0  0
  8  9  1  0  0  0  0
  8 27  1  0  0  0  0
  9 15  1  0  0  0  0
  9 10  1  0  0  0  0
  9 28  1  0  0  0  0
 10 14  1  0  0  0  0
 10 11  1  0  0  0  0
 10 29  1  0  0  0  0
 11 12  1  0  0  0  0
 11 30  1  0  0  0  0
 11 31  1  0  0  0  0
 12 13  1  0  0  0  0
 12 32  1  0  0  0  0
 12 33  1  0  0  0  0
 13 14  1  0  0  0  0
 13 15  1  0  0  0  0
 13 34  1  0  0  0  0
 14 35  1  0  0  0  0
 14 36  1  0  0  0  0
 15 16  1  0  0  0  0
 15 37  1  0  0  0  0
 16 17  1  0  0  0  0
 16 38  1  0  0  0  0
 16 39  1  0  0  0  0
 17 40  1  0  0  0  0
 18 19  1  0  0  0  0
 19 20  1  0  0  0  0
M  END
> <s_m_source_file>
AV-unprocessed.smi

> <i_m_source_file_index>
2881

> <i_lp_mmshare_version>
43012

> <i_f3d_flags>
0

> <s_epik_input>
W0NIM11jMVtjSF1jKG5bbkhdMSlbQ0gyXUMoPU8pW05IXVtDQEhdKFtDQEBIXTIzKVtDQEhdKFtDSDJdW09IXSlbQ0BASF0oW0NIMl0zKVtDSDJdW0NIMl0y

> <s_epik_cmdline>
J2VwaWtfcHl0aG9uJywgJy1waCcsICc3LjAnLCAnLXRuJywgJzgnLCAnLW1hJywgJzIwMCcsICctbWV0YWxfYmluZGluZycsICctaW1hZScsICc8aW5maWxlLm1hZT4nLCAnLW9tYWUnLCAnPG91dGZpbGUubWFlPic=

> <r_lp_tautomer_probability>
0.5

> <r_epik_Ionization_Penalty>
9.4349e-05

> <r_epik_Ionization_Penalty_Charging>
0

> <r_epik_Ionization_Penalty_Neutral>
9.4349e-05

> <r_epik_State_Penalty>
0.41068

> <r_epik_Charging_Adjusted_Penalty>
0.41068

> <i_epik_Tot_Q>
0

> <i_epik_Tot_abs_Q>
0

> <r_epik_Metal_State_Penalty>
0.4107

> <b_epik_Metal_Only>
0

> <s_lp_Force_Field>
OPLS_2005

> <r_lp_Energy>
48.3908

> <b_lp_Chiralities_Consistent>
1

> <s_lp_Variant>
AV-unprocessed.smi:2881-2

> <Gold.Version>
5.8.1

> <Gold.Id.Protein>
6NUR|6NUR_protein|mol2

> <Gold.PLP.Fitness>
34.4053

> <Gold.PLP.PLP>
-28.4495

> <Gold.PLP.part.hbond>
-2.9897

> <Gold.PLP.part.metal>
0.0000

> <Gold.PLP.part.buried>
-4.2590

> <Gold.PLP.part.nonpolar>
-21.6703

> <Gold.PLP.part.repulsive>
0.1295

> <Gold.PLP.ligand.clash>
0.0000

> <Gold.PLP.ligand.torsion>
0.0288

> <Gold.PLP.Chemscore.Hbond>
2.0000

> <Gold.PLP.Chemscore.CHOScore>
0.0000

> <Gold.PLP.Chemscore.Metal>
0.0000

> <Gold.Chemscore.Hbonds>
donor molecule, donor type, donor heavy atom, donor atom, acceptor molecule, acceptor atom, score
      L1  H    19    20       P1  7948  1.00
      P1  H  6896  6907       L1     7  1.00

> <Gold.PLP.Chemscore.Internal.Correction>
0.0134

> <Gold.Rescore>
     Score         DG    S(hbond)    S(metal)    S(lipo)     H(rot)  DE(clash)    DE(int)     intcor
     14.52     -15.41       1.98        0.00      78.16       2.28       0.01       0.87       ----

> <Gold.Chemscore.Fitness>
14.5193

> <Gold.Chemscore.DG>
-15.4060

> <Gold.Chemscore.ZeroCoef>
-5.4800

> <Gold.Chemscore.Hbond>
1.9782

> <Gold.Chemscore.Metal>
0.0000

> <Gold.Chemscore.Lipo>
78.1554

> <Gold.Chemscore.Internal_Hbond>
0.0000

> <Gold.Chemscore.DEClash>
0.0121

> <Gold.Chemscore.DEInternal>
0.8746

> <Gold.Chemscore.Rot>
2.2755

> <Gold.Chemscore.Internal.Correction>
   9.000000E+99

> <Gold.Chemscore.Hbonds>
donor molecule, donor type, donor heavy atom, donor atom, acceptor molecule, acceptor atom, score
      L1  H    19    20       P1  7948  0.96
      P1  H  6896  6907       L1     7  0.96

> <Gold.Chemscore.Hbond.Weighted>
-6.6071

> <Gold.Chemscore.Metal.Weighted>
-0.0000

> <Gold.Chemscore.Lipo.Weighted>
-9.1442

> <Gold.Chemscore.Internal_Hbond.Weighted>
0.0000

> <Gold.Chemscore.DEClash.Weighted>
0.0121

> <Gold.Chemscore.DEInternal.Weighted>
0.8746

> <Gold.Chemscore.Rot.Weighted>
5.8252

> <Gold.Chemscore.Internal.Correction.Weighted>
   9.000000E+99

> <Gold.Protein.RotatedTorsions>
[ 6907 6896 6895 6894 ] final -125.99 input  -60.11 | X-H torsion
[ 7974 7965 7964 7962 ] final  -19.14 input  175.53 | X-H torsion
[ 8008 7997 7996 7995 ] final   95.09 input   59.86 | X-H torsion
[ 10167 10162 10161 10158 ] final  125.00 input  -65.29 | X-H torsion
[ 10718 10713 10712 10709 ] final  -21.66 input   66.30 | X-H torsion
[ 10763 10752 10751 10750 ] final -170.14 input  -60.55 | X-H torsion
[ 11005 11000 10999 10996 ] final -130.37 input  -57.11 | X-H torsion

> <Gold.Protein.ActiveResidues>
 VAL166  LYS551  ARG553  GLY616  TRP617  ASP618  TYR619  PRO620  LYS621  CYS622 
 ASP623  PHE694  ASN695  SER759  ASP760  ASP761  ALA762  ILE779  LEU786  VAL792 
 PHE793  MET794  SER795  GLU796  ALA797  LYS798  CYS799  TRP800  GLU811  SER814 

> <Gold.Protein.RotatedAtoms>
  150.8923  133.7227  159.2901 H   0  0  0  0  0  0  0  0  0  0  0  0  # atno 6907 bound_to 6896
  151.4773  135.1048  159.9777 H   0  0  0  0  0  0  0  0  0  0  0  0  # atno 6908 bound_to 6896
  152.4827  133.8248  159.7128 H   0  0  0  0  0  0  0  0  0  0  0  0  # atno 6909 bound_to 6896
  146.1856  140.4020  142.8477 H   0  0  0  0  0  0  0  0  0  0  0  0  # atno 7974 bound_to 7965
  156.0651  140.3291  155.7508 H   0  0  0  0  0  0  0  0  0  0  0  0  # atno 8008 bound_to 7997
  155.5394  140.0600  157.2890 H   0  0  0  0  0  0  0  0  0  0  0  0  # atno 8009 bound_to 7997
  154.4501  140.1913  156.0564 H   0  0  0  0  0  0  0  0  0  0  0  0  # atno 8010 bound_to 7997
  139.5710  144.6938  151.3779 H   0  0  0  0  0  0  0  0  0  0  0  0  # atno 10167 bound_to 10162
  156.5151  130.4619  149.6627 H   0  0  0  0  0  0  0  0  0  0  0  0  # atno 10718 bound_to 10713
  154.6448  135.2903  155.0060 H   0  0  0  0  0  0  0  0  0  0  0  0  # atno 10763 bound_to 10752
  154.1174  135.6553  153.4900 H   0  0  0  0  0  0  0  0  0  0  0  0  # atno 10764 bound_to 10752
  153.0345  135.5279  154.7330 H   0  0  0  0  0  0  0  0  0  0  0  0  # atno 10765 bound_to 10752
  140.9351  134.1267  157.4200 H   0  0  0  0  0  0  0  0  0  0  0  0  # atno 11005 bound_to 11000
  144.8392  140.6830  143.6240 LP  0  0  0  0  0  0  0  0  0  0  0  0  # atno 17320 bound_to 7965
  145.3947  139.1609  143.4210 LP  0  0  0  0  0  0  0  0  0  0  0  0  # atno 17321 bound_to 7965
  140.6994  143.7669  150.7379 LP  0  0  0  0  0  0  0  0  0  0  0  0  # atno 17342 bound_to 10162
  140.1175  143.4643  152.2333 LP  0  0  0  0  0  0  0  0  0  0  0  0  # atno 17343 bound_to 10162
  156.3203  130.7277  151.2187 LP  0  0  0  0  0  0  0  0  0  0  0  0  # atno 17370 bound_to 10713
  157.7445  131.0457  150.4858 LP  0  0  0  0  0  0  0  0  0  0  0  0  # atno 17371 bound_to 10713
  139.8806  135.0018  156.6090 LP  0  0  0  0  0  0  0  0  0  0  0  0  # atno 17394 bound_to 11000
  140.7809  133.8660  155.8567 LP  0  0  0  0  0  0  0  0  0  0  0  0  # atno 17395 bound_to 11000

$$$$
