AV-unprocessed.smi:2663|AV-procd|sdf|10324|dock3
  -GOLD-   2272014343D 1   1.00000     0.00000
 Structure written by MMmdl.
 38 39  0  0  0  0  0  0  0  0  2 V2000
  152.8366  144.3002  158.5052 C   0  0  0  0  0  0  0  0  0  0  0  0
  151.9537  143.0918  158.9119 C   0  0  1  0  0  0  0  0  0  0  0  0
  150.4609  143.4649  158.6737 C   0  0  0  0  0  0  0  0  0  0  0  0
  149.5979  142.3587  158.8496 O   0  0  0  0  0  0  0  0  0  0  0  0
  152.2963  141.9194  158.0911 N   0  0  0  0  0  0  0  0  0  0  0  0
  151.8579  141.5615  156.8726 C   0  0  0  0  0  0  0  0  0  0  0  0
  151.0377  142.2565  156.2697 O   0  0  0  0  0  0  0  0  0  0  0  0
  152.4072  140.4098  156.4246 N   0  5  0  0  0  0  0  0  0  0  0  0
  151.7279  139.6298  155.5675 C   0  0  0  0  0  0  0  0  0  0  0  0
  150.8104  140.1213  154.7193 N   0  0  0  0  0  0  0  0  0  0  0  0
  150.2250  139.1457  153.9235 N   0  0  0  0  0  0  0  0  0  0  0  0
  150.7124  137.9363  154.2000 C   0  0  0  0  0  0  0  0  0  0  0  0
  151.9264  137.8786  155.4601 S   0  0  0  0  0  0  0  0  0  0  0  0
  152.2233  142.7065  160.4107 C   0  0  0  0  0  0  0  0  0  0  0  0
  152.1007  143.9064  161.3902 C   0  0  0  0  0  0  0  0  0  0  0  0
  152.3173  143.4913  162.8543 C   0  0  0  0  0  0  0  0  0  0  0  0
  153.6745  142.8030  163.0432 C   0  0  0  0  0  0  0  0  0  0  0  0
  153.8046  141.5996  162.1018 C   0  0  0  0  0  0  0  0  0  0  0  0
  153.5933  142.0111  160.6359 C   0  0  0  0  0  0  0  0  0  0  0  0
  152.7573  145.1104  159.2305 H   0  0  0  0  0  0  0  0  0  0  0  0
  152.5452  144.7131  157.5395 H   0  0  0  0  0  0  0  0  0  0  0  0
  153.8893  144.0308  158.4239 H   0  0  0  0  0  0  0  0  0  0  0  0
  150.1347  144.2440  159.3622 H   0  0  0  0  0  0  0  0  0  0  0  0
  150.3086  143.8710  157.6737 H   0  0  0  0  0  0  0  0  0  0  0  0
  150.1229  141.5732  158.8682 H   0  0  0  0  0  0  0  0  0  0  0  0
  152.9657  141.2899  158.5087 H   0  0  0  0  0  0  0  0  0  0  0  0
  150.3526  137.0727  153.6611 H   0  0  0  0  0  0  0  0  0  0  0  0
  151.4554  141.9907  160.7074 H   0  0  0  0  0  0  0  0  0  0  0  0
  152.8238  144.6812  161.1323 H   0  0  0  0  0  0  0  0  0  0  0  0
  151.1172  144.3678  161.3163 H   0  0  0  0  0  0  0  0  0  0  0  0
  152.2534  144.3668  163.5009 H   0  0  0  0  0  0  0  0  0  0  0  0
  151.5181  142.8176  163.1660 H   0  0  0  0  0  0  0  0  0  0  0  0
  154.4785  143.5133  162.8458 H   0  0  0  0  0  0  0  0  0  0  0  0
  153.7898  142.4821  164.0789 H   0  0  0  0  0  0  0  0  0  0  0  0
  154.7868  141.1410  162.2198 H   0  0  0  0  0  0  0  0  0  0  0  0
  153.0732  140.8386  162.3767 H   0  0  0  0  0  0  0  0  0  0  0  0
  153.6771  141.1141  160.0244 H   0  0  0  0  0  0  0  0  0  0  0  0
  154.4060  142.6703  160.3284 H   0  0  0  0  0  0  0  0  0  0  0  0
  1  2  1  0  0  0  0
  1 20  1  0  0  0  0
  1 21  1  0  0  0  0
  1 22  1  0  0  0  0
  2  3  1  0  0  0  0
  2  5  1  0  0  0  0
  2 14  1  0  0  0  0
  3  4  1  0  0  0  0
  3 23  1  0  0  0  0
  3 24  1  0  0  0  0
  4 25  1  0  0  0  0
  5  6  1  0  0  0  0
  5 26  1  0  0  0  0
  6  7  2  0  0  0  0
  6  8  1  0  0  0  0
  8  9  1  0  0  0  0
  9 13  1  0  0  0  0
  9 10  2  0  0  0  0
 10 11  1  0  0  0  0
 11 12  2  0  0  0  0
 12 13  1  0  0  0  0
 12 27  1  0  0  0  0
 14 19  1  0  0  0  0
 14 15  1  0  0  0  0
 14 28  1  0  0  0  0
 15 16  1  0  0  0  0
 15 29  1  0  0  0  0
 15 30  1  0  0  0  0
 16 17  1  0  0  0  0
 16 31  1  0  0  0  0
 16 32  1  0  0  0  0
 17 18  1  0  0  0  0
 17 33  1  0  0  0  0
 17 34  1  0  0  0  0
 18 19  1  0  0  0  0
 18 35  1  0  0  0  0
 18 36  1  0  0  0  0
 19 37  1  0  0  0  0
 19 38  1  0  0  0  0
M  CHG  1   8  -1
M  END
> <s_m_source_file>
AV-unprocessed.smi

> <i_m_source_file_index>
2663

> <i_lp_mmshare_version>
43012

> <i_f3d_flags>
0

> <s_epik_input>
W0NIMl0xW0NIMl1bQ0gyXVtDSDJdW0NIMl1bQ0hdMVtDQF0oW0NIM10pKFtDSDJdW09IXSlbTkhdQyg9TylbTkhdYzJubltjSF1zMg==

> <s_epik_cmdline>
J2VwaWtfcHl0aG9uJywgJy1waCcsICc3LjAnLCAnLXRuJywgJzgnLCAnLW1hJywgJzIwMCcsICctbWV0YWxfYmluZGluZycsICctaW1hZScsICc8aW5maWxlLm1hZT4nLCAnLW9tYWUnLCAnPG91dGZpbGUubWFlPic=

> <r_lp_tautomer_probability>
1

> <r_epik_Ionization_Penalty>
4.39194

> <r_epik_Ionization_Penalty_Charging>
4.34423

> <r_epik_Ionization_Penalty_Neutral>
0.047714

> <r_epik_State_Penalty>
4.34384

> <r_epik_Charging_Adjusted_Penalty>
8.68806

> <i_epik_Tot_Q>
-1

> <i_epik_Tot_abs_Q>
1

> <r_epik_Metal_State_Penalty>
0.746645

> <b_epik_Metal_Only>
1

> <s_lp_Force_Field>
OPLS_2005

> <r_lp_Energy>
17.2717

> <b_lp_Chiralities_Consistent>
1

> <s_lp_Variant>
AV-unprocessed.smi:2663-3

> <Gold.Version>
5.8.1

> <Gold.Id.Protein>
6NUR|6NUR_protein|mol2

> <Gold.PLP.Fitness>
48.0199

> <Gold.PLP.PLP>
-37.9756

> <Gold.PLP.part.hbond>
-3.0000

> <Gold.PLP.part.metal>
0.0000

> <Gold.PLP.part.buried>
0.9483

> <Gold.PLP.part.nonpolar>
-35.5399

> <Gold.PLP.part.repulsive>
0.4430

> <Gold.PLP.ligand.clash>
0.0000

> <Gold.PLP.ligand.torsion>
1.0844

> <Gold.PLP.Chemscore.Hbond>
3.0000

> <Gold.PLP.Chemscore.CHOScore>
1.0548

> <Gold.PLP.Chemscore.Metal>
0.0000

> <Gold.Chemscore.Hbonds>
donor molecule, donor type, donor heavy atom, donor atom, acceptor molecule, acceptor atom, score
      P1  H  7989  7998       L1    10  0.80
      P1  H  7997  8008       L1     8  1.89
      L1  C    12    27       P1  7948  0.76
      L1  C    12    27       P1  7949  0.33

> <Gold.PLP.Chemscore.Internal.Correction>
0.0486

> <Gold.Rescore>
     Score         DG    S(hbond)    S(metal)    S(lipo)     H(rot)  DE(clash)    DE(int)     intcor
      9.47     -16.16       0.87        0.00     114.09       2.18       3.02       3.67       ----

> <Gold.Chemscore.Fitness>
9.4664

> <Gold.Chemscore.DG>
-16.1568

> <Gold.Chemscore.ZeroCoef>
-5.4800

> <Gold.Chemscore.Hbond>
0.8698

> <Gold.Chemscore.Metal>
0.0000

> <Gold.Chemscore.Lipo>
114.0855

> <Gold.Chemscore.Internal_Hbond>
0.0000

> <Gold.Chemscore.DEClash>
3.0210

> <Gold.Chemscore.DEInternal>
3.6694

> <Gold.Chemscore.Rot>
2.1783

> <Gold.Chemscore.Internal.Correction>
   9.000000E+99

> <Gold.Chemscore.Hbonds>
donor molecule, donor type, donor heavy atom, donor atom, acceptor molecule, acceptor atom, score
      P1  H  7989  7998       L1    10  0.07
      P1  H  7997  8008       L1     8  0.82

> <Gold.Chemscore.Hbond.Weighted>
-2.9052

> <Gold.Chemscore.Metal.Weighted>
-0.0000

> <Gold.Chemscore.Lipo.Weighted>
-13.3480

> <Gold.Chemscore.Internal_Hbond.Weighted>
0.0000

> <Gold.Chemscore.DEClash.Weighted>
3.0210

> <Gold.Chemscore.DEInternal.Weighted>
3.6694

> <Gold.Chemscore.Rot.Weighted>
5.5765

> <Gold.Chemscore.Internal.Correction.Weighted>
   9.000000E+99

> <Gold.Protein.RotatedTorsions>
[ 6907 6896 6895 6894 ] final   17.22 input  -60.11 | X-H torsion
[ 7974 7965 7964 7962 ] final -104.79 input  175.53 | X-H torsion
[ 8008 7997 7996 7995 ] final  -53.33 input   59.86 | X-H torsion
[ 10167 10162 10161 10158 ] final -117.03 input  -65.29 | X-H torsion
[ 10718 10713 10712 10709 ] final   -8.46 input   66.30 | X-H torsion
[ 10763 10752 10751 10750 ] final  -44.77 input  -60.55 | X-H torsion
[ 11005 11000 10999 10996 ] final -171.04 input  -57.11 | X-H torsion

> <Gold.Protein.ActiveResidues>
 VAL166  LYS551  ARG553  GLY616  TRP617  ASP618  TYR619  PRO620  LYS621  CYS622 
 ASP623  PHE694  ASN695  SER759  ASP760  ASP761  ALA762  ILE779  LEU786  VAL792 
 PHE793  MET794  SER795  GLU796  ALA797  LYS798  CYS799  TRP800  GLU811  SER814 

> <Gold.Protein.RotatedAtoms>
  151.8462  135.0573  160.0453 H   0  0  0  0  0  0  0  0  0  0  0  0  # atno 6907 bound_to 6896
  152.2771  133.5431  159.5483 H   0  0  0  0  0  0  0  0  0  0  0  0  # atno 6908 bound_to 6896
  150.7174  134.0533  159.3848 H   0  0  0  0  0  0  0  0  0  0  0  0  # atno 6909 bound_to 6896
  145.2386  140.9197  143.3163 H   0  0  0  0  0  0  0  0  0  0  0  0  # atno 7974 bound_to 7965
  154.4130  140.1202  156.5137 H   0  0  0  0  0  0  0  0  0  0  0  0  # atno 8008 bound_to 7997
  155.6773  140.3496  155.4822 H   0  0  0  0  0  0  0  0  0  0  0  0  # atno 8009 bound_to 7997
  155.9582  140.1118  157.0909 H   0  0  0  0  0  0  0  0  0  0  0  0  # atno 8010 bound_to 7997
  140.0727  143.4861  152.1970 H   0  0  0  0  0  0  0  0  0  0  0  0  # atno 10167 bound_to 10162
  156.7023  130.5097  149.5914 H   0  0  0  0  0  0  0  0  0  0  0  0  # atno 10718 bound_to 10713
  154.0175  135.6673  153.4770 H   0  0  0  0  0  0  0  0  0  0  0  0  # atno 10763 bound_to 10752
  153.0594  135.5036  154.8055 H   0  0  0  0  0  0  0  0  0  0  0  0  # atno 10764 bound_to 10752
  154.6958  135.3069  154.9378 H   0  0  0  0  0  0  0  0  0  0  0  0  # atno 10765 bound_to 10752
  140.5127  134.5786  157.5024 H   0  0  0  0  0  0  0  0  0  0  0  0  # atno 11005 bound_to 11000
  144.9610  139.3980  143.6356 LP  0  0  0  0  0  0  0  0  0  0  0  0  # atno 17320 bound_to 7965
  146.3334  139.8663  142.8847 LP  0  0  0  0  0  0  0  0  0  0  0  0  # atno 17321 bound_to 7965
  139.5826  144.7517  151.3601 LP  0  0  0  0  0  0  0  0  0  0  0  0  # atno 17342 bound_to 10162
  140.7117  143.7372  150.7579 LP  0  0  0  0  0  0  0  0  0  0  0  0  # atno 17343 bound_to 10162
  156.1720  130.6443  151.0849 LP  0  0  0  0  0  0  0  0  0  0  0  0  # atno 17370 bound_to 10713
  157.6968  131.0791  150.6943 LP  0  0  0  0  0  0  0  0  0  0  0  0  # atno 17371 bound_to 10713
  139.9649  134.7389  156.0158 LP  0  0  0  0  0  0  0  0  0  0  0  0  # atno 17394 bound_to 11000
  141.1377  133.6571  156.3639 LP  0  0  0  0  0  0  0  0  0  0  0  0  # atno 17395 bound_to 11000

$$$$
