AV-unprocessed.smi:1715|AV-procd|sdf|6913|dock6
  -GOLD-   22720 8113D 1   1.00000     0.00000
 Structure written by MMmdl.
 41 42  0  0  0  0  0  0  0  0  2 V2000
  150.1425  137.0788  155.5338 C   0  0  0  0  0  0  0  0  0  0  0  0
  150.0325  138.4310  154.8208 C   0  0  1  0  0  0  0  0  0  0  0  0
  148.6335  138.6597  154.2183 C   0  0  0  0  0  0  0  0  0  0  0  0
  148.5440  140.0053  153.6033 N   0  3  1  0  0  0  0  0  0  0  0  0
  147.2291  140.2422  152.9568 C   0  0  0  0  0  0  0  0  0  0  0  0
  146.7734  139.0530  152.0886 C   0  0  0  0  0  0  0  0  0  0  0  0
  145.4048  138.6561  152.3995 N   0  0  0  0  0  0  0  0  0  0  0  0
  145.0143  137.4041  152.6783 C   0  0  0  0  0  0  0  0  0  0  0  0
  145.7829  136.4424  152.6943 O   0  0  0  0  0  0  0  0  0  0  0  0
  143.6963  137.3458  152.9303 N   0  0  0  0  0  0  0  0  0  0  0  0
  142.9322  136.1953  153.2516 C   0  0  0  0  0  0  0  0  0  0  0  0
  141.5641  136.2137  153.6362 C   0  0  0  0  0  0  0  0  0  0  0  0
  141.1117  134.9908  153.8733 N   0  0  0  0  0  0  0  0  0  0  0  0
  142.1777  134.1917  153.6431 N   0  0  0  0  0  0  0  0  0  0  0  0
  143.3079  134.8813  153.2631 C   0  0  0  0  0  0  0  0  0  0  0  0
  148.9167  141.0474  154.5917 C   0  0  0  0  0  0  0  0  0  0  0  0
  150.3072  140.7544  155.1874 C   0  0  1  0  0  0  0  0  0  0  0  0
  150.6955  141.7623  156.2745 C   0  0  0  0  0  0  0  0  0  0  0  0
  150.3005  139.4562  155.7707 O   0  0  0  0  0  0  0  0  0  0  0  0
  142.1185  133.1887  153.7480 H   0  0  0  0  0  0  0  0  0  0  0  0
  149.9562  136.2546  154.8449 H   0  0  0  0  0  0  0  0  0  0  0  0
  149.4238  137.0021  156.3501 H   0  0  0  0  0  0  0  0  0  0  0  0
  151.1388  136.9405  155.9542 H   0  0  0  0  0  0  0  0  0  0  0  0
  150.7845  138.4679  154.0307 H   0  0  0  0  0  0  0  0  0  0  0  0
  148.4294  137.8961  153.4665 H   0  0  0  0  0  0  0  0  0  0  0  0
  147.8684  138.5623  154.9908 H   0  0  0  0  0  0  0  0  0  0  0  0
  146.4765  140.4036  153.7301 H   0  0  0  0  0  0  0  0  0  0  0  0
  147.2720  141.1629  152.3727 H   0  0  0  0  0  0  0  0  0  0  0  0
  146.8418  139.2837  151.0250 H   0  0  0  0  0  0  0  0  0  0  0  0
  147.4229  138.1947  152.2629 H   0  0  0  0  0  0  0  0  0  0  0  0
  144.7074  139.3863  152.4098 H   0  0  0  0  0  0  0  0  0  0  0  0
  143.1839  138.2147  152.8881 H   0  0  0  0  0  0  0  0  0  0  0  0
  140.8976  137.0561  153.7489 H   0  0  0  0  0  0  0  0  0  0  0  0
  144.2414  134.3848  153.0436 H   0  0  0  0  0  0  0  0  0  0  0  0
  148.9286  142.0302  154.1218 H   0  0  0  0  0  0  0  0  0  0  0  0
  148.1672  141.0822  155.3843 H   0  0  0  0  0  0  0  0  0  0  0  0
  151.0604  140.7892  154.3980 H   0  0  0  0  0  0  0  0  0  0  0  0
  150.7295  142.7765  155.8762 H   0  0  0  0  0  0  0  0  0  0  0  0
  151.6796  141.5333  156.6838 H   0  0  0  0  0  0  0  0  0  0  0  0
  149.9814  141.7493  157.0985 H   0  0  0  0  0  0  0  0  0  0  0  0
  149.2379  140.0287  152.8696 H   0  0  0  0  0  0  0  0  0  0  0  0
  1  2  1  0  0  0  0
  1 21  1  0  0  0  0
  1 22  1  0  0  0  0
  1 23  1  0  0  0  0
  2 19  1  0  0  0  0
  2  3  1  0  0  0  0
  2 24  1  0  0  0  0
  3  4  1  0  0  0  0
  3 25  1  0  0  0  0
  3 26  1  0  0  0  0
  4  5  1  0  0  0  0
  4 16  1  0  0  0  0
  4 41  1  0  0  0  0
  5  6  1  0  0  0  0
  5 27  1  0  0  0  0
  5 28  1  0  0  0  0
  6  7  1  0  0  0  0
  6 29  1  0  0  0  0
  6 30  1  0  0  0  0
  7  8  1  0  0  0  0
  7 31  1  0  0  0  0
  8  9  2  0  0  0  0
  8 10  1  0  0  0  0
 10 11  1  0  0  0  0
 10 32  1  0  0  0  0
 11 15  2  0  0  0  0
 11 12  1  0  0  0  0
 12 13  2  0  0  0  0
 12 33  1  0  0  0  0
 13 14  1  0  0  0  0
 14 20  1  0  0  0  0
 14 15  1  0  0  0  0
 15 34  1  0  0  0  0
 16 17  1  0  0  0  0
 16 35  1  0  0  0  0
 16 36  1  0  0  0  0
 17 18  1  0  0  0  0
 17 19  1  0  0  0  0
 17 37  1  0  0  0  0
 18 38  1  0  0  0  0
 18 39  1  0  0  0  0
 18 40  1  0  0  0  0
M  CHG  1   4   1
M  END
> <s_m_source_file>
AV-unprocessed.smi

> <i_m_source_file_index>
1715

> <i_lp_mmshare_version>
43012

> <i_f3d_flags>
0

> <s_epik_input>
W0NIM11bQ0BASF0xW0NIMl1OKFtDSDJdW0NASF0oTzEpW0NIM10pW0NIMl1bQ0gyXVtOSF1DKD1PKVtOSF1jMltjSF1uW25IXVtjSF0y

> <s_epik_cmdline>
J2VwaWtfcHl0aG9uJywgJy1waCcsICc3LjAnLCAnLXRuJywgJzgnLCAnLW1hJywgJzIwMCcsICctbWV0YWxfYmluZGluZycsICctaW1hZScsICc8aW5maWxlLm1hZT4nLCAnLW9tYWUnLCAnPG91dGZpbGUubWFlPic=

> <r_lp_tautomer_probability>
0.5

> <r_epik_Ionization_Penalty>
0.646007

> <r_epik_Ionization_Penalty_Charging>
0.645968

> <r_epik_Ionization_Penalty_Neutral>
3.91671e-05

> <r_epik_State_Penalty>
0.664063

> <r_epik_Charging_Adjusted_Penalty>
1.31003

> <i_epik_Tot_Q>
1

> <i_epik_Tot_abs_Q>
1

> <r_epik_Metal_State_Penalty>
0.664064

> <b_epik_Metal_Only>
0

> <s_lp_Force_Field>
OPLS_2005

> <r_lp_Energy>
16.9027

> <b_lp_Chiralities_Consistent>
1

> <s_lp_Variant>
AV-unprocessed.smi:1715-5

> <Gold.Version>
5.8.1

> <Gold.Id.Protein>
6NUR|6NUR_protein|mol2

> <Gold.PLP.Fitness>
44.3734

> <Gold.PLP.PLP>
-32.6973

> <Gold.PLP.part.hbond>
-5.7373

> <Gold.PLP.part.metal>
0.0000

> <Gold.PLP.part.buried>
-2.3634

> <Gold.PLP.part.nonpolar>
-24.6939

> <Gold.PLP.part.repulsive>
0.5307

> <Gold.PLP.ligand.clash>
0.0000

> <Gold.PLP.ligand.torsion>
0.4628

> <Gold.PLP.Chemscore.Hbond>
4.1937

> <Gold.PLP.Chemscore.CHOScore>
0.0000

> <Gold.PLP.Chemscore.Metal>
0.0000

> <Gold.Chemscore.Hbonds>
donor molecule, donor type, donor heavy atom, donor atom, acceptor molecule, acceptor atom, score
      L1  H     4    41       P1  7957  0.98
      L1  H     7    31       P1 10175  0.88
      L1  H    10    32       P1 10175  0.25
      L1  H    14    20       P1 10957  0.90
      P1  H 11000 11005       L1    13  0.73

> <Gold.PLP.Chemscore.Internal.Correction>
0.0204

> <Gold.Rescore>
     Score         DG    S(hbond)    S(metal)    S(lipo)     H(rot)  DE(clash)    DE(int)     intcor
     19.42     -21.34       3.74        0.00      65.38       1.67       0.35       1.57       ----

> <Gold.Chemscore.Fitness>
19.4152

> <Gold.Chemscore.DG>
-21.3375

> <Gold.Chemscore.ZeroCoef>
-5.4800

> <Gold.Chemscore.Hbond>
3.7353

> <Gold.Chemscore.Metal>
0.0000

> <Gold.Chemscore.Lipo>
65.3797

> <Gold.Chemscore.Internal_Hbond>
0.0000

> <Gold.Chemscore.DEClash>
0.3525

> <Gold.Chemscore.DEInternal>
1.5698

> <Gold.Chemscore.Rot>
1.6671

> <Gold.Chemscore.Internal.Correction>
   9.000000E+99

> <Gold.Chemscore.Hbonds>
donor molecule, donor type, donor heavy atom, donor atom, acceptor molecule, acceptor atom, score
      L1  H     4    41       P1  7957  0.93
      L1  H     7    31       P1 10175  0.86
      L1  H    10    32       P1 10175  0.25
      L1  H    14    20       P1 10957  0.87
      P1  H 11000 11005       L1    13  0.42

> <Gold.Chemscore.Hbond.Weighted>
-12.4758

> <Gold.Chemscore.Metal.Weighted>
-0.0000

> <Gold.Chemscore.Lipo.Weighted>
-7.6494

> <Gold.Chemscore.Internal_Hbond.Weighted>
0.0000

> <Gold.Chemscore.DEClash.Weighted>
0.3525

> <Gold.Chemscore.DEInternal.Weighted>
1.5698

> <Gold.Chemscore.Rot.Weighted>
4.2677

> <Gold.Chemscore.Internal.Correction.Weighted>
   9.000000E+99

> <Gold.Protein.RotatedTorsions>
[ 6907 6896 6895 6894 ] final  -54.51 input  -60.11 | X-H torsion
[ 7974 7965 7964 7962 ] final  165.23 input  175.53 | X-H torsion
[ 8008 7997 7996 7995 ] final -136.49 input   59.86 | X-H torsion
[ 10167 10162 10161 10158 ] final   57.52 input  -65.29 | X-H torsion
[ 10718 10713 10712 10709 ] final  102.94 input   66.30 | X-H torsion
[ 10763 10752 10751 10750 ] final   12.60 input  -60.55 | X-H torsion
[ 11005 11000 10999 10996 ] final   36.31 input  -57.11 | X-H torsion

> <Gold.Protein.ActiveResidues>
 VAL166  LYS551  ARG553  GLY616  TRP617  ASP618  TYR619  PRO620  LYS621  CYS622 
 ASP623  PHE694  ASN695  SER759  ASP760  ASP761  ALA762  ILE779  LEU786  VAL792 
 PHE793  MET794  SER795  GLU796  ALA797  LYS798  CYS799  TRP800  GLU811  SER814 

> <Gold.Protein.RotatedAtoms>
  150.8332  134.7594  159.6870 H   0  0  0  0  0  0  0  0  0  0  0  0  # atno 6907 bound_to 6896
  152.4433  134.5543  159.9886 H   0  0  0  0  0  0  0  0  0  0  0  0  # atno 6908 bound_to 6896
  151.5700  133.3353  159.3023 H   0  0  0  0  0  0  0  0  0  0  0  0  # atno 6909 bound_to 6896
  144.7511  139.8440  143.6366 H   0  0  0  0  0  0  0  0  0  0  0  0  # atno 7974 bound_to 7965
  155.3961  140.0503  157.3039 H   0  0  0  0  0  0  0  0  0  0  0  0  # atno 8008 bound_to 7997
  154.5013  140.2157  155.9302 H   0  0  0  0  0  0  0  0  0  0  0  0  # atno 8009 bound_to 7997
  156.1470  140.3143  155.8592 H   0  0  0  0  0  0  0  0  0  0  0  0  # atno 8010 bound_to 7997
  140.1971  144.4026  150.6545 H   0  0  0  0  0  0  0  0  0  0  0  0  # atno 10167 bound_to 10162
  157.6787  131.0766  150.5480 H   0  0  0  0  0  0  0  0  0  0  0  0  # atno 10718 bound_to 10713
  153.1806  135.6827  153.8483 H   0  0  0  0  0  0  0  0  0  0  0  0  # atno 10763 bound_to 10752
  153.7816  135.3181  155.3367 H   0  0  0  0  0  0  0  0  0  0  0  0  # atno 10764 bound_to 10752
  154.8057  135.4750  154.0481 H   0  0  0  0  0  0  0  0  0  0  0  0  # atno 10765 bound_to 10752
  140.2339  134.3495  155.7952 H   0  0  0  0  0  0  0  0  0  0  0  0  # atno 11005 bound_to 11000
  146.1463  139.4533  143.0077 LP  0  0  0  0  0  0  0  0  0  0  0  0  # atno 17320 bound_to 7965
  145.6940  141.0156  143.1540 LP  0  0  0  0  0  0  0  0  0  0  0  0  # atno 17321 bound_to 7965
  140.6416  143.2204  151.6278 LP  0  0  0  0  0  0  0  0  0  0  0  0  # atno 17342 bound_to 10162
  139.5232  144.3140  152.0968 LP  0  0  0  0  0  0  0  0  0  0  0  0  # atno 17343 bound_to 10162
  156.5785  130.4298  149.5987 LP  0  0  0  0  0  0  0  0  0  0  0  0  # atno 17370 bound_to 10713
  156.2681  130.7001  151.1790 LP  0  0  0  0  0  0  0  0  0  0  0  0  # atno 17371 bound_to 10713
  141.2216  133.7261  156.8776 LP  0  0  0  0  0  0  0  0  0  0  0  0  # atno 17394 bound_to 11000
  140.1722  134.9092  157.2847 LP  0  0  0  0  0  0  0  0  0  0  0  0  # atno 17395 bound_to 11000

$$$$
