AV-unprocessed.smi:290|AV-procd|sdf|2245|dock9
  -GOLD-   2262022133D 1   1.00000     0.00000
 Structure written by MMmdl.
 59 62  0  0  0  0  0  0  0  0  2 V2000
  155.2443  137.2138  163.7187 C   0  0  0  0  0  0  0  0  0  0  0  0
  155.4213  137.1048  162.1962 C   0  0  2  0  0  0  0  0  0  0  0  0
  155.6486  135.7532  161.7985 O   0  0  0  0  0  0  0  0  0  0  0  0
  156.7436  135.6792  160.8932 C   0  0  0  0  0  0  0  0  0  0  0  0
  156.9163  137.0975  160.3611 C   0  0  0  0  0  0  0  0  0  0  0  0
  156.5560  137.9488  161.5711 C   0  0  2  0  0  0  0  0  0  0  0  0
  157.6754  137.9907  162.4404 O   0  0  0  0  0  0  0  0  0  0  0  0
  156.1982  139.4263  161.2636 C   0  0  0  0  0  0  0  0  0  0  0  0
  155.0876  139.6131  160.3424 N   0  0  0  0  0  0  0  0  0  0  0  0
  154.8839  138.9552  159.1522 C   0  0  0  0  0  0  0  0  0  0  0  0
  153.8046  139.3000  158.5061 N   0  0  0  0  0  0  0  0  0  0  0  0
  153.1994  140.2530  159.3193 C   0  0  0  0  0  0  0  0  0  0  0  0
  152.0073  141.0351  159.2366 C   0  0  0  0  0  0  0  0  0  0  0  0
  151.1159  140.9954  158.2089 N   0  0  0  0  0  0  0  0  0  0  0  0
  151.5189  140.6801  156.8428 C   0  0  0  0  0  0  0  0  0  0  0  0
  150.2858  140.9543  155.9721 C   0  0  0  0  0  0  0  0  0  0  0  0
  149.1253  141.0286  156.9803 C   0  0  2  0  0  0  0  0  0  0  0  0
  147.9004  141.7486  156.5186 N   0  3  2  0  0  0  0  0  0  0  0  0
  146.8181  141.7010  157.5359 C   0  0  0  0  0  0  0  0  0  0  0  0
  147.4198  141.3127  155.1763 C   0  0  0  0  0  0  0  0  0  0  0  0
  145.9831  141.7715  154.8675 C   0  0  0  0  0  0  0  0  0  0  0  0
  145.0922  140.6809  154.9735 O   0  0  0  0  0  0  0  0  0  0  0  0
  149.8139  141.6469  158.2161 C   0  0  2  0  0  0  0  0  0  0  0  0
  149.9640  143.1848  158.1446 C   0  0  0  0  0  0  0  0  0  0  0  0
  151.7604  141.8938  160.2614 N   0  0  0  0  0  0  0  0  0  0  0  0
  152.5969  141.9782  161.2990 C   0  0  0  0  0  0  0  0  0  0  0  0
  153.7301  141.3094  161.5108 N   0  0  0  0  0  0  0  0  0  0  0  0
  153.9977  140.4546  160.4833 C   0  0  0  0  0  0  0  0  0  0  0  0
  148.8374  140.0039  157.2256 H   0  0  0  0  0  0  0  0  0  0  0  0
  149.2568  141.3645  159.1079 H   0  0  0  0  0  0  0  0  0  0  0  0
  155.0742  138.2477  164.0202 H   0  0  0  0  0  0  0  0  0  0  0  0
  156.1191  136.8444  164.2539 H   0  0  0  0  0  0  0  0  0  0  0  0
  154.3874  136.6272  164.0498 H   0  0  0  0  0  0  0  0  0  0  0  0
  154.4756  137.3712  161.7269 H   0  0  0  0  0  0  0  0  0  0  0  0
  157.6324  135.3644  161.4414 H   0  0  0  0  0  0  0  0  0  0  0  0
  156.5597  134.9533  160.1012 H   0  0  0  0  0  0  0  0  0  0  0  0
  157.9150  137.2916  159.9681 H   0  0  0  0  0  0  0  0  0  0  0  0
  156.2040  137.2474  159.5504 H   0  0  0  0  0  0  0  0  0  0  0  0
  158.4429  138.2024  161.9314 H   0  0  0  0  0  0  0  0  0  0  0  0
  155.9574  139.9499  162.1899 H   0  0  0  0  0  0  0  0  0  0  0  0
  157.0664  139.9386  160.8462 H   0  0  0  0  0  0  0  0  0  0  0  0
  155.5701  138.2123  158.7718 H   0  0  0  0  0  0  0  0  0  0  0  0
  152.3700  141.2823  156.5219 H   0  0  0  0  0  0  0  0  0  0  0  0
  151.8029  139.6284  156.7877 H   0  0  0  0  0  0  0  0  0  0  0  0
  150.4051  141.9075  155.4552 H   0  0  0  0  0  0  0  0  0  0  0  0
  150.1481  140.1787  155.2182 H   0  0  0  0  0  0  0  0  0  0  0  0
  146.4487  140.6827  157.6630 H   0  0  0  0  0  0  0  0  0  0  0  0
  145.9770  142.3354  157.2614 H   0  0  0  0  0  0  0  0  0  0  0  0
  147.1584  142.0550  158.5080 H   0  0  0  0  0  0  0  0  0  0  0  0
  148.0528  141.7100  154.3849 H   0  0  0  0  0  0  0  0  0  0  0  0
  147.4919  140.2266  155.1031 H   0  0  0  0  0  0  0  0  0  0  0  0
  145.6793  142.5274  155.5922 H   0  0  0  0  0  0  0  0  0  0  0  0
  145.8908  142.2335  153.8858 H   0  0  0  0  0  0  0  0  0  0  0  0
  144.4114  140.7828  154.3249 H   0  0  0  0  0  0  0  0  0  0  0  0
  148.9961  143.6849  158.1391 H   0  0  0  0  0  0  0  0  0  0  0  0
  150.5036  143.5017  157.2520 H   0  0  0  0  0  0  0  0  0  0  0  0
  150.5121  143.5692  159.0044 H   0  0  0  0  0  0  0  0  0  0  0  0
  152.3190  142.6835  162.0684 H   0  0  0  0  0  0  0  0  0  0  0  0
  148.1693  142.7172  156.4163 H   0  0  0  0  0  0  0  0  0  0  0  0
  1  2  1  0  0  0  0
  1 31  1  0  0  0  0
  1 32  1  0  0  0  0
  1 33  1  0  0  0  0
  2  6  1  0  0  0  0
  2  3  1  0  0  0  0
  2 34  1  0  0  0  0
  3  4  1  0  0  0  0
  4  5  1  0  0  0  0
  4 35  1  0  0  0  0
  4 36  1  0  0  0  0
  5  6  1  0  0  0  0
  5 37  1  0  0  0  0
  5 38  1  0  0  0  0
  6  7  1  0  0  0  0
  6  8  1  0  0  0  0
  7 39  1  0  0  0  0
  8  9  1  0  0  0  0
  8 40  1  0  0  0  0
  8 41  1  0  0  0  0
  9 28  1  0  0  0  0
  9 10  1  0  0  0  0
 10 11  2  0  0  0  0
 10 42  1  0  0  0  0
 11 12  1  0  0  0  0
 12 28  2  0  0  0  0
 12 13  1  0  0  0  0
 13 14  1  0  0  0  0
 13 25  2  0  0  0  0
 14 23  1  0  0  0  0
 14 15  1  0  0  0  0
 15 16  1  0  0  0  0
 15 43  1  0  0  0  0
 15 44  1  0  0  0  0
 16 17  1  0  0  0  0
 16 45  1  0  0  0  0
 16 46  1  0  0  0  0
 17 29  1  0  0  0  0
 17 18  1  0  0  0  0
 17 23  1  0  0  0  0
 18 19  1  0  0  0  0
 18 20  1  0  0  0  0
 18 59  1  0  0  0  0
 19 47  1  0  0  0  0
 19 48  1  0  0  0  0
 19 49  1  0  0  0  0
 20 21  1  0  0  0  0
 20 50  1  0  0  0  0
 20 51  1  0  0  0  0
 21 22  1  0  0  0  0
 21 52  1  0  0  0  0
 21 53  1  0  0  0  0
 22 54  1  0  0  0  0
 23 30  1  0  0  0  0
 23 24  1  0  0  0  0
 24 55  1  0  0  0  0
 24 56  1  0  0  0  0
 24 57  1  0  0  0  0
 25 26  1  0  0  0  0
 26 27  2  0  0  0  0
 26 58  1  0  0  0  0
 27 28  1  0  0  0  0
M  CHG  1  18   1
M  END
> <s_m_source_file>
AV-unprocessed.smi

> <i_m_source_file_index>
290

> <i_lp_mmshare_version>
43012

> <i_f3d_flags>
0

> <s_epik_input>
W0NIMl0xW0NIMl1PW0NAQEhdKFtDSDNdKVtDQEBdMShbT0hdKVtDSDJdbihbY0hdbjIpYyhjMjMpbltjSF1uYzNONFtDSDJdW0NIMl1bQ0BIXShbQ0BIXTRbQ0gzXSlOKFtDSDNdKVtDSDJdW0NIMl1bT0hd

> <s_epik_cmdline>
J2VwaWtfcHl0aG9uJywgJy1waCcsICc3LjAnLCAnLXRuJywgJzgnLCAnLW1hJywgJzIwMCcsICctbWV0YWxfYmluZGluZycsICctaW1hZScsICc8aW5maWxlLm1hZT4nLCAnLW9tYWUnLCAnPG91dGZpbGUubWFlPic=

> <r_lp_tautomer_probability>
1

> <r_epik_Ionization_Penalty>
0.0036983

> <r_epik_Ionization_Penalty_Charging>
0.0032725

> <r_epik_Ionization_Penalty_Neutral>
0.000425798

> <r_epik_State_Penalty>
-0

> <r_epik_Charging_Adjusted_Penalty>
0.0032725

> <i_epik_Tot_Q>
1

> <i_epik_Tot_abs_Q>
1

> <r_epik_Metal_State_Penalty>
-0

> <b_epik_Metal_Only>
0

> <s_lp_Force_Field>
OPLS_2005

> <r_lp_Energy>
66.7181

> <b_lp_Chiralities_Consistent>
1

> <s_lp_Variant>
AV-unprocessed.smi:290-31

> <Gold.Version>
5.8.1

> <Gold.Id.Protein>
6NUR|6NUR_protein|mol2

> <Gold.PLP.Fitness>
51.9820

> <Gold.PLP.PLP>
-41.7893

> <Gold.PLP.part.hbond>
-3.4066

> <Gold.PLP.part.metal>
0.0000

> <Gold.PLP.part.buried>
-4.9136

> <Gold.PLP.part.nonpolar>
-32.9369

> <Gold.PLP.part.repulsive>
0.0565

> <Gold.PLP.ligand.clash>
0.0000

> <Gold.PLP.ligand.torsion>
0.9379

> <Gold.PLP.Chemscore.Hbond>
3.9440

> <Gold.PLP.Chemscore.CHOScore>
0.0000

> <Gold.PLP.Chemscore.Metal>
0.0000

> <Gold.Chemscore.Hbonds>
donor molecule, donor type, donor heavy atom, donor atom, acceptor molecule, acceptor atom, score
      L1  H    18    59       P1  8028  0.94
      L1  H    22    54       P1 10175  1.00
      P1  H  7997  8010       L1    11  0.55

> <Gold.PLP.Chemscore.Internal.Correction>
0.2365

> <Gold.Rescore>
     Score         DG    S(hbond)    S(metal)    S(lipo)     H(rot)  DE(clash)    DE(int)     intcor
      9.47     -14.38       2.31        0.00      83.58       3.35       2.24       2.67       ----

> <Gold.Chemscore.Fitness>
9.4749

> <Gold.Chemscore.DG>
-14.3776

> <Gold.Chemscore.ZeroCoef>
-5.4800

> <Gold.Chemscore.Hbond>
2.3051

> <Gold.Chemscore.Metal>
0.0000

> <Gold.Chemscore.Lipo>
83.5808

> <Gold.Chemscore.Internal_Hbond>
0.0000

> <Gold.Chemscore.DEClash>
2.2366

> <Gold.Chemscore.DEInternal>
2.6661

> <Gold.Chemscore.Rot>
3.3518

> <Gold.Chemscore.Internal.Correction>
   9.000000E+99

> <Gold.Chemscore.Hbonds>
donor molecule, donor type, donor heavy atom, donor atom, acceptor molecule, acceptor atom, score
      L1  H    18    59       P1  8028  0.33
      L1  H    22    54       P1 10175  0.92
      P1  H  7997  8010       L1    11  0.03

> <Gold.Chemscore.Hbond.Weighted>
-7.6991

> <Gold.Chemscore.Metal.Weighted>
-0.0000

> <Gold.Chemscore.Lipo.Weighted>
-9.7790

> <Gold.Chemscore.Internal_Hbond.Weighted>
0.0000

> <Gold.Chemscore.DEClash.Weighted>
2.2366

> <Gold.Chemscore.DEInternal.Weighted>
2.6661

> <Gold.Chemscore.Rot.Weighted>
8.5806

> <Gold.Chemscore.Internal.Correction.Weighted>
   9.000000E+99

> <Gold.Protein.RotatedTorsions>
[ 6907 6896 6895 6894 ] final  -57.47 input  -60.11 | X-H torsion
[ 7974 7965 7964 7962 ] final -122.66 input  175.53 | X-H torsion
[ 8008 7997 7996 7995 ] final   20.33 input   59.86 | X-H torsion
[ 10167 10162 10161 10158 ] final -147.31 input  -65.29 | X-H torsion
[ 10718 10713 10712 10709 ] final  -39.22 input   66.30 | X-H torsion
[ 10763 10752 10751 10750 ] final  144.78 input  -60.55 | X-H torsion
[ 11005 11000 10999 10996 ] final  -23.78 input  -57.11 | X-H torsion

> <Gold.Protein.ActiveResidues>
 VAL166  LYS551  ARG553  GLY616  TRP617  ASP618  TYR619  PRO620  LYS621  CYS622 
 ASP623  PHE694  ASN695  SER759  ASP760  ASP761  ALA762  ILE779  LEU786  VAL792 
 PHE793  MET794  SER795  GLU796  ALA797  LYS798  CYS799  TRP800  GLU811  SER814 

> <Gold.Protein.RotatedAtoms>
  150.8083  134.7222  159.6664 H   0  0  0  0  0  0  0  0  0  0  0  0  # atno 6907 bound_to 6896
  152.4203  134.5964  159.9998 H   0  0  0  0  0  0  0  0  0  0  0  0  # atno 6908 bound_to 6896
  151.6181  133.3304  159.3118 H   0  0  0  0  0  0  0  0  0  0  0  0  # atno 6909 bound_to 6896
  145.0270  140.8036  143.4346 H   0  0  0  0  0  0  0  0  0  0  0  0  # atno 7974 bound_to 7965
  154.9341  140.3044  155.5153 H   0  0  0  0  0  0  0  0  0  0  0  0  # atno 8008 bound_to 7997
  156.3001  140.2348  156.4340 H   0  0  0  0  0  0  0  0  0  0  0  0  # atno 8009 bound_to 7997
  154.8209  140.0423  157.1399 H   0  0  0  0  0  0  0  0  0  0  0  0  # atno 8010 bound_to 7997
  139.7633  143.8344  152.2611 H   0  0  0  0  0  0  0  0  0  0  0  0  # atno 10167 bound_to 10162
  156.2949  130.4233  149.8201 H   0  0  0  0  0  0  0  0  0  0  0  0  # atno 10718 bound_to 10713
  153.9946  135.2929  155.3408 H   0  0  0  0  0  0  0  0  0  0  0  0  # atno 10763 bound_to 10752
  154.7195  135.5115  153.8792 H   0  0  0  0  0  0  0  0  0  0  0  0  # atno 10764 bound_to 10752
  153.0794  135.6674  154.0194 H   0  0  0  0  0  0  0  0  0  0  0  0  # atno 10765 bound_to 10752
  140.8784  133.7671  156.0271 H   0  0  0  0  0  0  0  0  0  0  0  0  # atno 11005 bound_to 11000
  145.1820  139.2346  143.5287 LP  0  0  0  0  0  0  0  0  0  0  0  0  # atno 17320 bound_to 7965
  146.3493  140.1596  142.8591 LP  0  0  0  0  0  0  0  0  0  0  0  0  # atno 17321 bound_to 7965
  139.8357  144.7233  150.9394 LP  0  0  0  0  0  0  0  0  0  0  0  0  # atno 17342 bound_to 10162
  140.7809  143.4029  151.1119 LP  0  0  0  0  0  0  0  0  0  0  0  0  # atno 17343 bound_to 10162
  156.5600  130.8379  151.3326 LP  0  0  0  0  0  0  0  0  0  0  0  0  # atno 17370 bound_to 10713
  157.7352  130.9759  150.2072 LP  0  0  0  0  0  0  0  0  0  0  0  0  # atno 17371 bound_to 10713
  140.8491  134.2975  157.5283 LP  0  0  0  0  0  0  0  0  0  0  0  0  # atno 17394 bound_to 11000
  139.8717  134.9458  156.3919 LP  0  0  0  0  0  0  0  0  0  0  0  0  # atno 17395 bound_to 11000

$$$$
