AV-unprocessed.smi:1836|AV-procd|sdf|7478|dock9
  -GOLD-   22720 9173D 1   1.00000     0.00000
 Structure written by MMmdl.
 33 34  0  0  0  0  0  0  0  0  1 V2000
  150.7482  141.9385  155.8459 C   0  0  0  0  0  0  0  0  0  0  0  0
  150.6923  142.3115  157.3337 C   0  0  1  0  0  0  0  0  0  0  0  0
  151.8556  143.2580  157.7115 C   0  0  0  0  0  0  0  0  0  0  0  0
  152.0437  143.3708  159.1572 N   0  0  0  0  0  0  0  0  0  0  0  0
  152.4128  142.2107  159.9516 C   0  0  0  0  0  0  0  0  0  0  0  0
  152.8068  142.7818  161.3203 C   0  0  0  0  0  0  0  0  0  0  0  0
  152.2279  144.2004  161.3548 C   0  0  0  0  0  0  0  0  0  0  0  0
  151.8970  144.4762  159.8979 C   0  0  0  0  0  0  0  0  0  0  0  0
  151.5520  145.5838  159.4887 O   0  0  0  0  0  0  0  0  0  0  0  0
  149.4032  142.9472  157.6018 N   0  0  0  0  0  0  0  0  0  0  0  0
  148.2929  142.3150  158.0117 C   0  0  0  0  0  0  0  0  0  0  0  0
  148.2309  141.0994  158.1973 O   0  0  0  0  0  0  0  0  0  0  0  0
  147.2802  143.1800  158.1949 N   0  0  0  0  0  0  0  0  0  0  0  0
  145.9754  142.9131  158.6873 C   0  0  0  0  0  0  0  0  0  0  0  0
  145.6824  141.8863  159.5008 N   0  0  0  0  0  0  0  0  0  0  0  0
  144.3357  141.8599  159.8398 N   0  0  0  0  0  0  0  0  0  0  0  0
  143.6676  142.8673  159.2711 C   0  0  0  0  0  0  0  0  0  0  0  0
  144.6187  143.9489  158.2682 S   0  0  0  0  0  0  0  0  0  0  0  0
  151.6783  141.4220  155.6070 H   0  0  0  0  0  0  0  0  0  0  0  0
  150.6856  142.8220  155.2098 H   0  0  0  0  0  0  0  0  0  0  0  0
  149.9270  141.2735  155.5759 H   0  0  0  0  0  0  0  0  0  0  0  0
  150.7725  141.3808  157.8983 H   0  0  0  0  0  0  0  0  0  0  0  0
  152.7876  142.8856  157.2833 H   0  0  0  0  0  0  0  0  0  0  0  0
  151.7003  144.2465  157.2766 H   0  0  0  0  0  0  0  0  0  0  0  0
  151.5507  141.5480  160.0384 H   0  0  0  0  0  0  0  0  0  0  0  0
  153.2302  141.6502  159.4965 H   0  0  0  0  0  0  0  0  0  0  0  0
  152.4376  142.1650  162.1400 H   0  0  0  0  0  0  0  0  0  0  0  0
  153.8937  142.8267  161.4050 H   0  0  0  0  0  0  0  0  0  0  0  0
  151.3146  144.2446  161.9485 H   0  0  0  0  0  0  0  0  0  0  0  0
  152.9401  144.9271  161.7473 H   0  0  0  0  0  0  0  0  0  0  0  0
  149.3587  143.9475  157.4740 H   0  0  0  0  0  0  0  0  0  0  0  0
  147.4700  144.1462  157.9735 H   0  0  0  0  0  0  0  0  0  0  0  0
  142.6072  142.9753  159.4451 H   0  0  0  0  0  0  0  0  0  0  0  0
  1  2  1  0  0  0  0
  1 19  1  0  0  0  0
  1 20  1  0  0  0  0
  1 21  1  0  0  0  0
  2  3  1  0  0  0  0
  2 10  1  0  0  0  0
  2 22  1  0  0  0  0
  3  4  1  0  0  0  0
  3 23  1  0  0  0  0
  3 24  1  0  0  0  0
  4  8  1  0  0  0  0
  4  5  1  0  0  0  0
  5  6  1  0  0  0  0
  5 25  1  0  0  0  0
  5 26  1  0  0  0  0
  6  7  1  0  0  0  0
  6 27  1  0  0  0  0
  6 28  1  0  0  0  0
  7  8  1  0  0  0  0
  7 29  1  0  0  0  0
  7 30  1  0  0  0  0
  8  9  2  0  0  0  0
 10 11  1  0  0  0  0
 10 31  1  0  0  0  0
 11 12  2  0  0  0  0
 11 13  1  0  0  0  0
 13 14  1  0  0  0  0
 13 32  1  0  0  0  0
 14 18  1  0  0  0  0
 14 15  2  0  0  0  0
 15 16  1  0  0  0  0
 16 17  2  0  0  0  0
 17 18  1  0  0  0  0
 17 33  1  0  0  0  0
M  END
> <s_m_source_file>
AV-unprocessed.smi

> <i_m_source_file_index>
1836

> <i_lp_mmshare_version>
43012

> <i_f3d_flags>
0

> <s_epik_input>
Tz1DMVtDSDJdW0NIMl1bQ0gyXU4xW0NIMl1bQ0BASF0oW0NIM10pW05IXUMoPU8pW05IXWMybm5bY0hdczI=

> <s_epik_cmdline>
J2VwaWtfcHl0aG9uJywgJy1waCcsICc3LjAnLCAnLXRuJywgJzgnLCAnLW1hJywgJzIwMCcsICctbWV0YWxfYmluZGluZycsICctaW1hZScsICc8aW5maWxlLm1hZT4nLCAnLW9tYWUnLCAnPG91dGZpbGUubWFlPic=

> <r_lp_tautomer_probability>
1

> <r_epik_Ionization_Penalty>
0.00192022

> <r_epik_Ionization_Penalty_Charging>
0

> <r_epik_Ionization_Penalty_Neutral>
0.00192022

> <r_epik_State_Penalty>
-0

> <r_epik_Charging_Adjusted_Penalty>
0

> <i_epik_Tot_Q>
0

> <i_epik_Tot_abs_Q>
0

> <r_epik_Metal_State_Penalty>
0.336618

> <b_epik_Metal_Only>
0

> <s_lp_Force_Field>
OPLS_2005

> <r_lp_Energy>
17.3914

> <b_lp_Chiralities_Consistent>
1

> <s_lp_Variant>
AV-unprocessed.smi:1836-2

> <Gold.Version>
5.8.1

> <Gold.Id.Protein>
6NUR|6NUR_protein|mol2

> <Gold.PLP.Fitness>
40.0193

> <Gold.PLP.PLP>
-33.9701

> <Gold.PLP.part.hbond>
-4.9307

> <Gold.PLP.part.metal>
0.0000

> <Gold.PLP.part.buried>
-5.6788

> <Gold.PLP.part.nonpolar>
-24.3768

> <Gold.PLP.part.repulsive>
0.2993

> <Gold.PLP.ligand.clash>
0.0000

> <Gold.PLP.ligand.torsion>
0.6135

> <Gold.PLP.Chemscore.Hbond>
2.4212

> <Gold.PLP.Chemscore.CHOScore>
0.0000

> <Gold.PLP.Chemscore.Metal>
0.0000

> <Gold.Chemscore.Hbonds>
donor molecule, donor type, donor heavy atom, donor atom, acceptor molecule, acceptor atom, score
      L1  H    10    31       P1  8028  0.41
      L1  H    13    32       P1  8029  0.90
      P1  H  6934  6946       L1    15  1.00

> <Gold.PLP.Chemscore.Internal.Correction>
0.0126

> <Gold.Rescore>
     Score         DG    S(hbond)    S(metal)    S(lipo)     H(rot)  DE(clash)    DE(int)     intcor
     12.56     -14.72       1.84        0.00      64.95       1.76       0.20       1.96       ----

> <Gold.Chemscore.Fitness>
12.5623

> <Gold.Chemscore.DG>
-14.7207

> <Gold.Chemscore.ZeroCoef>
-5.4800

> <Gold.Chemscore.Hbond>
1.8384

> <Gold.Chemscore.Metal>
0.0000

> <Gold.Chemscore.Lipo>
64.9452

> <Gold.Chemscore.Internal_Hbond>
0.0000

> <Gold.Chemscore.DEClash>
0.2016

> <Gold.Chemscore.DEInternal>
1.9567

> <Gold.Chemscore.Rot>
1.7571

> <Gold.Chemscore.Internal.Correction>
   9.000000E+99

> <Gold.Chemscore.Hbonds>
donor molecule, donor type, donor heavy atom, donor atom, acceptor molecule, acceptor atom, score
      L1  H    10    31       P1  8028  0.09
      L1  H    13    32       P1  8029  0.18
      P1  H  6934  6946       L1    15  0.88

> <Gold.Chemscore.Hbond.Weighted>
-6.1403

> <Gold.Chemscore.Metal.Weighted>
-0.0000

> <Gold.Chemscore.Lipo.Weighted>
-7.5986

> <Gold.Chemscore.Internal_Hbond.Weighted>
0.0000

> <Gold.Chemscore.DEClash.Weighted>
0.2016

> <Gold.Chemscore.DEInternal.Weighted>
1.9567

> <Gold.Chemscore.Rot.Weighted>
4.4983

> <Gold.Chemscore.Internal.Correction.Weighted>
   9.000000E+99

> <Gold.Protein.RotatedTorsions>
[ 6907 6896 6895 6894 ] final   23.01 input  -60.11 | X-H torsion
[ 7974 7965 7964 7962 ] final   58.40 input  175.53 | X-H torsion
[ 8008 7997 7996 7995 ] final  176.85 input   59.86 | X-H torsion
[ 10167 10162 10161 10158 ] final  -22.59 input  -65.29 | X-H torsion
[ 10718 10713 10712 10709 ] final  117.71 input   66.30 | X-H torsion
[ 10763 10752 10751 10750 ] final   55.63 input  -60.55 | X-H torsion
[ 11005 11000 10999 10996 ] final   17.53 input  -57.11 | X-H torsion

> <Gold.Protein.ActiveResidues>
 VAL166  LYS551  ARG553  GLY616  TRP617  ASP618  TYR619  PRO620  LYS621  CYS622 
 ASP623  PHE694  ASN695  SER759  ASP760  ASP761  ALA762  ILE779  LEU786  VAL792 
 PHE793  MET794  SER795  GLU796  ALA797  LYS798  CYS799  TRP800  GLU811  SER814 

> <Gold.Protein.RotatedAtoms>
  151.9358  135.0236  160.0532 H   0  0  0  0  0  0  0  0  0  0  0  0  # atno 6907 bound_to 6896
  152.2079  133.4884  159.5102 H   0  0  0  0  0  0  0  0  0  0  0  0  # atno 6908 bound_to 6896
  150.6969  134.1423  159.4152 H   0  0  0  0  0  0  0  0  0  0  0  0  # atno 6909 bound_to 6896
  145.9186  139.3711  143.0492 H   0  0  0  0  0  0  0  0  0  0  0  0  # atno 7974 bound_to 7965
  156.0720  140.1373  156.9816 H   0  0  0  0  0  0  0  0  0  0  0  0  # atno 8008 bound_to 7997
  154.4537  140.0970  156.6746 H   0  0  0  0  0  0  0  0  0  0  0  0  # atno 8009 bound_to 7997
  155.5212  140.3456  155.4409 H   0  0  0  0  0  0  0  0  0  0  0  0  # atno 8010 bound_to 7997
  140.7286  143.4521  151.0502 H   0  0  0  0  0  0  0  0  0  0  0  0  # atno 10167 bound_to 10162
  157.6078  131.1040  150.7653 H   0  0  0  0  0  0  0  0  0  0  0  0  # atno 10718 bound_to 10713
  152.9819  135.5704  154.5098 H   0  0  0  0  0  0  0  0  0  0  0  0  # atno 10763 bound_to 10752
  154.4604  135.2781  155.1719 H   0  0  0  0  0  0  0  0  0  0  0  0  # atno 10764 bound_to 10752
  154.3309  135.6249  153.5604 H   0  0  0  0  0  0  0  0  0  0  0  0  # atno 10765 bound_to 10752
  140.4349  134.1381  155.7684 H   0  0  0  0  0  0  0  0  0  0  0  0  # atno 11005 bound_to 11000
  145.8579  140.9492  143.0715 LP  0  0  0  0  0  0  0  0  0  0  0  0  # atno 17320 bound_to 7965
  144.6750  140.0492  143.7479 LP  0  0  0  0  0  0  0  0  0  0  0  0  # atno 17321 bound_to 7965
  139.8198  143.7836  152.3176 LP  0  0  0  0  0  0  0  0  0  0  0  0  # atno 17342 bound_to 10162
  139.7915  144.7408  150.9949 LP  0  0  0  0  0  0  0  0  0  0  0  0  # atno 17343 bound_to 10162
  156.8037  130.4929  149.5366 LP  0  0  0  0  0  0  0  0  0  0  0  0  # atno 17370 bound_to 10713
  156.1171  130.6083  151.0137 LP  0  0  0  0  0  0  0  0  0  0  0  0  # atno 17371 bound_to 10713
  141.1730  133.8571  157.1511 LP  0  0  0  0  0  0  0  0  0  0  0  0  # atno 17394 bound_to 11000
  140.0109  134.9988  157.0392 LP  0  0  0  0  0  0  0  0  0  0  0  0  # atno 17395 bound_to 11000

$$$$
