AV-unprocessed.smi:2548|AV-procd|sdf|10008|dock4
  -GOLD-   2272014 53D 1   1.00000     0.00000
 Structure written by MMmdl.
 44 45  0  0  0  0  0  0  0  0  1 V2000
  150.1799  134.8365  154.7421 C   0  0  0  0  0  0  0  0  0  0  0  0
  150.8075  136.0592  155.3436 C   0  0  0  0  0  0  0  0  0  0  0  0
  150.4897  137.4263  155.0930 C   0  0  0  0  0  0  0  0  0  0  0  0
  151.3479  138.1255  155.8952 C   0  0  0  0  0  0  0  0  0  0  0  0
  151.5299  139.5968  156.1050 C   0  0  0  0  0  0  0  0  0  0  0  0
  151.1540  140.0425  157.5231 C   0  0  0  0  0  0  0  0  0  0  0  0
  150.0260  139.8378  157.9745 O   0  0  0  0  0  0  0  0  0  0  0  0
  152.1282  140.6445  158.2235 N   0  0  0  0  0  0  0  0  0  0  0  0
  152.0098  141.1575  159.5887 C   0  0  0  0  0  0  0  0  0  0  0  0
  153.1122  142.1910  159.9752 C   0  0  0  0  0  0  0  0  0  0  0  0
  154.4474  141.4335  160.1685 C   0  0  0  0  0  0  0  0  0  0  0  0
  153.3428  143.2096  158.8211 C   0  0  0  0  0  0  0  0  0  0  0  0
  152.1273  144.0428  158.3633 C   0  0  0  0  0  0  0  0  0  0  0  0
  151.8615  145.3364  159.1515 C   0  0  0  0  0  0  0  0  0  0  0  0
  151.9763  145.2538  160.6826 C   0  0  0  0  0  0  0  0  0  0  0  0
  151.6131  143.8977  161.3078 C   0  0  0  0  0  0  0  0  0  0  0  0
  152.7958  142.9106  161.3133 C   0  0  0  0  0  0  0  0  0  0  0  0
  152.1074  137.1849  156.5543 N   0  0  0  0  0  0  0  0  0  0  0  0
  151.7858  135.9202  156.2258 N   0  0  0  0  0  0  0  0  0  0  0  0
  152.8343  137.3892  157.2252 H   0  0  0  0  0  0  0  0  0  0  0  0
  149.4136  135.1047  154.0145 H   0  0  0  0  0  0  0  0  0  0  0  0
  149.7086  134.2199  155.5079 H   0  0  0  0  0  0  0  0  0  0  0  0
  150.9234  134.2248  154.2302 H   0  0  0  0  0  0  0  0  0  0  0  0
  149.7418  137.8316  154.4277 H   0  0  0  0  0  0  0  0  0  0  0  0
  150.9213  140.1436  155.3836 H   0  0  0  0  0  0  0  0  0  0  0  0
  152.5665  139.8770  155.9148 H   0  0  0  0  0  0  0  0  0  0  0  0
  153.0247  140.7632  157.7745 H   0  0  0  0  0  0  0  0  0  0  0  0
  151.0298  141.6296  159.6654 H   0  0  0  0  0  0  0  0  0  0  0  0
  151.9810  140.3188  160.2824 H   0  0  0  0  0  0  0  0  0  0  0  0
  155.2724  142.1224  160.3548 H   0  0  0  0  0  0  0  0  0  0  0  0
  154.7067  140.8497  159.2848 H   0  0  0  0  0  0  0  0  0  0  0  0
  154.4112  140.7467  161.0148 H   0  0  0  0  0  0  0  0  0  0  0  0
  154.1623  143.8846  159.0722 H   0  0  0  0  0  0  0  0  0  0  0  0
  153.6925  142.6514  157.9515 H   0  0  0  0  0  0  0  0  0  0  0  0
  152.2889  144.3316  157.3243 H   0  0  0  0  0  0  0  0  0  0  0  0
  151.2217  143.4415  158.3351 H   0  0  0  0  0  0  0  0  0  0  0  0
  152.5391  146.1159  158.8012 H   0  0  0  0  0  0  0  0  0  0  0  0
  150.8616  145.6855  158.8911 H   0  0  0  0  0  0  0  0  0  0  0  0
  152.9871  145.5304  160.9843 H   0  0  0  0  0  0  0  0  0  0  0  0
  151.3332  146.0245  161.1093 H   0  0  0  0  0  0  0  0  0  0  0  0
  151.3404  144.0802  162.3478 H   0  0  0  0  0  0  0  0  0  0  0  0
  150.7231  143.4708  160.8457 H   0  0  0  0  0  0  0  0  0  0  0  0
  152.6150  142.1661  162.0879 H   0  0  0  0  0  0  0  0  0  0  0  0
  153.6846  143.4421  161.6564 H   0  0  0  0  0  0  0  0  0  0  0  0
  1 21  1  0  0  0  0
  1 22  1  0  0  0  0
  1 23  1  0  0  0  0
  1  2  1  0  0  0  0
  2 19  2  0  0  0  0
  2  3  1  0  0  0  0
  3  4  2  0  0  0  0
  3 24  1  0  0  0  0
  4 18  1  0  0  0  0
  4  5  1  0  0  0  0
  5  6  1  0  0  0  0
  5 25  1  0  0  0  0
  5 26  1  0  0  0  0
  6  7  2  0  0  0  0
  6  8  1  0  0  0  0
  8  9  1  0  0  0  0
  8 27  1  0  0  0  0
  9 10  1  0  0  0  0
  9 28  1  0  0  0  0
  9 29  1  0  0  0  0
 10 17  1  0  0  0  0
 10 11  1  0  0  0  0
 10 12  1  0  0  0  0
 11 30  1  0  0  0  0
 11 31  1  0  0  0  0
 11 32  1  0  0  0  0
 12 13  1  0  0  0  0
 12 33  1  0  0  0  0
 12 34  1  0  0  0  0
 13 14  1  0  0  0  0
 13 35  1  0  0  0  0
 13 36  1  0  0  0  0
 14 15  1  0  0  0  0
 14 37  1  0  0  0  0
 14 38  1  0  0  0  0
 15 16  1  0  0  0  0
 15 39  1  0  0  0  0
 15 40  1  0  0  0  0
 16 17  1  0  0  0  0
 16 41  1  0  0  0  0
 16 42  1  0  0  0  0
 17 43  1  0  0  0  0
 17 44  1  0  0  0  0
 18 19  1  0  0  0  0
 18 20  1  0  0  0  0
M  END
> <s_m_source_file>
AV-unprocessed.smi

> <i_m_source_file_index>
2548

> <i_lp_mmshare_version>
43012

> <i_f3d_flags>
0

> <s_epik_input>
W0NIM11jMVtjSF1jKG5bbkhdMSlbQ0gyXUMoPU8pW05IXVtDSDJdQzIoW0NIM10pW0NIMl1bQ0gyXVtDSDJdW0NIMl1bQ0gyXVtDSDJdMg==

> <s_epik_cmdline>
J2VwaWtfcHl0aG9uJywgJy1waCcsICc3LjAnLCAnLXRuJywgJzgnLCAnLW1hJywgJzIwMCcsICctbWV0YWxfYmluZGluZycsICctaW1hZScsICc8aW5maWxlLm1hZT4nLCAnLW9tYWUnLCAnPG91dGZpbGUubWFlPic=

> <r_lp_tautomer_probability>
0.5

> <r_epik_Ionization_Penalty>
0.000120089

> <r_epik_Ionization_Penalty_Charging>
0

> <r_epik_Ionization_Penalty_Neutral>
0.000120089

> <r_epik_State_Penalty>
0.41068

> <r_epik_Charging_Adjusted_Penalty>
0.41068

> <i_epik_Tot_Q>
0

> <i_epik_Tot_abs_Q>
0

> <r_epik_Metal_State_Penalty>
0.410662

> <b_epik_Metal_Only>
0

> <s_lp_Force_Field>
OPLS_2005

> <r_lp_Energy>
21.4694

> <b_lp_Chiralities_Consistent>
1

> <s_lp_Variant>
AV-unprocessed.smi:2548-2

> <Gold.Version>
5.8.1

> <Gold.Id.Protein>
6NUR|6NUR_protein|mol2

> <Gold.PLP.Fitness>
43.8119

> <Gold.PLP.PLP>
-41.4176

> <Gold.PLP.part.hbond>
-1.0000

> <Gold.PLP.part.metal>
0.0000

> <Gold.PLP.part.buried>
-5.0936

> <Gold.PLP.part.nonpolar>
-36.6828

> <Gold.PLP.part.repulsive>
0.2240

> <Gold.PLP.ligand.clash>
0.0000

> <Gold.PLP.ligand.torsion>
0.3082

> <Gold.PLP.Chemscore.Hbond>
1.0000

> <Gold.PLP.Chemscore.CHOScore>
0.0000

> <Gold.PLP.Chemscore.Metal>
0.0000

> <Gold.Chemscore.Hbonds>
donor molecule, donor type, donor heavy atom, donor atom, acceptor molecule, acceptor atom, score
      P1  H 10752 10763       L1    19  1.00

> <Gold.PLP.Chemscore.Internal.Correction>
0.0107

> <Gold.Rescore>
     Score         DG    S(hbond)    S(metal)    S(lipo)     H(rot)  DE(clash)    DE(int)     intcor
     18.35     -19.08       0.76        0.00     128.28       1.55       0.21       0.52       ----

> <Gold.Chemscore.Fitness>
18.3460

> <Gold.Chemscore.DG>
-19.0757

> <Gold.Chemscore.ZeroCoef>
-5.4800

> <Gold.Chemscore.Hbond>
0.7642

> <Gold.Chemscore.Metal>
0.0000

> <Gold.Chemscore.Lipo>
128.2781

> <Gold.Chemscore.Internal_Hbond>
0.0000

> <Gold.Chemscore.DEClash>
0.2056

> <Gold.Chemscore.DEInternal>
0.5240

> <Gold.Chemscore.Rot>
1.5489

> <Gold.Chemscore.Internal.Correction>
   9.000000E+99

> <Gold.Chemscore.Hbonds>
donor molecule, donor type, donor heavy atom, donor atom, acceptor molecule, acceptor atom, score
      P1  H 10752 10763       L1    19  0.12

> <Gold.Chemscore.Hbond.Weighted>
-2.5524

> <Gold.Chemscore.Metal.Weighted>
-0.0000

> <Gold.Chemscore.Lipo.Weighted>
-15.0085

> <Gold.Chemscore.Internal_Hbond.Weighted>
0.0000

> <Gold.Chemscore.DEClash.Weighted>
0.2056

> <Gold.Chemscore.DEInternal.Weighted>
0.5240

> <Gold.Chemscore.Rot.Weighted>
3.9652

> <Gold.Chemscore.Internal.Correction.Weighted>
   9.000000E+99

> <Gold.Protein.RotatedTorsions>
[ 6907 6896 6895 6894 ] final -171.21 input  -60.11 | X-H torsion
[ 7974 7965 7964 7962 ] final   30.68 input  175.53 | X-H torsion
[ 8008 7997 7996 7995 ] final  140.70 input   59.86 | X-H torsion
[ 10167 10162 10161 10158 ] final   72.95 input  -65.29 | X-H torsion
[ 10718 10713 10712 10709 ] final  -18.49 input   66.30 | X-H torsion
[ 10763 10752 10751 10750 ] final   99.09 input  -60.55 | X-H torsion
[ 11005 11000 10999 10996 ] final -141.22 input  -57.11 | X-H torsion

> <Gold.Protein.ActiveResidues>
 VAL166  LYS551  ARG553  GLY616  TRP617  ASP618  TYR619  PRO620  LYS621  CYS622 
 ASP623  PHE694  ASN695  SER759  ASP760  ASP761  ALA762  ILE779  LEU786  VAL792 
 PHE793  MET794  SER795  GLU796  ALA797  LYS798  CYS799  TRP800  GLU811  SER814 

> <Gold.Protein.RotatedAtoms>
  151.5202  133.3468  159.2899 H   0  0  0  0  0  0  0  0  0  0  0  0  # atno 6907 bound_to 6896
  150.8657  134.8022  159.7128 H   0  0  0  0  0  0  0  0  0  0  0  0  # atno 6908 bound_to 6896
  152.4662  134.5078  159.9796 H   0  0  0  0  0  0  0  0  0  0  0  0  # atno 6909 bound_to 6896
  146.1597  139.6757  142.9042 H   0  0  0  0  0  0  0  0  0  0  0  0  # atno 7974 bound_to 7965
  156.2976  140.2334  156.4444 H   0  0  0  0  0  0  0  0  0  0  0  0  # atno 8008 bound_to 7997
  154.8157  140.0440  157.1395 H   0  0  0  0  0  0  0  0  0  0  0  0  # atno 8009 bound_to 7997
  154.9372  140.3024  155.5142 H   0  0  0  0  0  0  0  0  0  0  0  0  # atno 8010 bound_to 7997
  140.0298  144.5475  150.7516 H   0  0  0  0  0  0  0  0  0  0  0  0  # atno 10167 bound_to 10162
  156.5588  130.4720  149.6416 H   0  0  0  0  0  0  0  0  0  0  0  0  # atno 10718 bound_to 10713
  153.2971  135.4125  155.1219 H   0  0  0  0  0  0  0  0  0  0  0  0  # atno 10763 bound_to 10752
  154.8538  135.3532  154.5902 H   0  0  0  0  0  0  0  0  0  0  0  0  # atno 10764 bound_to 10752
  153.6326  135.7060  153.5328 H   0  0  0  0  0  0  0  0  0  0  0  0  # atno 10765 bound_to 10752
  140.8346  134.2476  157.4840 H   0  0  0  0  0  0  0  0  0  0  0  0  # atno 11005 bound_to 11000
  145.4619  141.0433  143.2746 LP  0  0  0  0  0  0  0  0  0  0  0  0  # atno 17320 bound_to 7965
  144.8010  139.6140  143.7071 LP  0  0  0  0  0  0  0  0  0  0  0  0  # atno 17321 bound_to 7965
  140.7307  143.2686  151.3962 LP  0  0  0  0  0  0  0  0  0  0  0  0  # atno 17342 bound_to 10162
  139.6084  144.1149  152.2273 LP  0  0  0  0  0  0  0  0  0  0  0  0  # atno 17343 bound_to 10162
  156.2817  130.7075  151.1901 LP  0  0  0  0  0  0  0  0  0  0  0  0  # atno 17370 bound_to 10713
  157.7373  131.0553  150.5365 LP  0  0  0  0  0  0  0  0  0  0  0  0  # atno 17371 bound_to 10713
  139.8704  134.9604  156.4362 LP  0  0  0  0  0  0  0  0  0  0  0  0  # atno 17394 bound_to 11000
  140.8961  133.7813  155.9627 LP  0  0  0  0  0  0  0  0  0  0  0  0  # atno 17395 bound_to 11000

$$$$
