AV-unprocessed.smi:215|AV-procd|sdf|1656|dock5
  -GOLD-   2262020 43D 1   1.00000     0.00000
 Structure written by MMmdl.
 59 62  0  0  0  0  0  0  0  0  2 V2000
  147.2880  136.7459  155.4401 C   0  0  0  0  0  0  0  0  0  0  0  0
  148.6974  136.3351  154.9826 C   0  0  2  0  0  0  0  0  0  0  0  0
  148.9063  134.8178  154.9118 C   0  0  1  0  0  0  0  0  0  0  0  0
  148.2011  134.1163  153.7980 N   0  3  1  0  0  0  0  0  0  0  0  0
  148.7156  132.7619  153.4652 C   0  0  0  0  0  0  0  0  0  0  0  0
  146.7235  134.1438  153.9609 C   0  0  0  0  0  0  0  0  0  0  0  0
  146.0012  133.2541  152.9350 C   0  0  0  0  0  0  0  0  0  0  0  0
  144.6040  133.3465  153.1155 O   0  0  0  0  0  0  0  0  0  0  0  0
  150.4333  134.7064  154.9102 C   0  0  0  0  0  0  0  0  0  0  0  0
  150.8612  135.8513  155.8368 C   0  0  0  0  0  0  0  0  0  0  0  0
  149.7386  136.7890  155.9003 N   0  0  0  0  0  0  0  0  0  0  0  0
  150.0496  138.1012  155.7958 C   0  0  0  0  0  0  0  0  0  0  0  0
  149.8960  138.7471  154.6097 N   0  0  0  0  0  0  0  0  0  0  0  0
  150.1877  140.0480  154.5180 C   0  0  0  0  0  0  0  0  0  0  0  0
  150.6293  140.8732  155.4696 N   0  0  0  0  0  0  0  0  0  0  0  0
  150.7776  140.2281  156.6630 C   0  0  0  0  0  0  0  0  0  0  0  0
  150.5108  138.8523  156.9083 C   0  0  0  0  0  0  0  0  0  0  0  0
  150.7699  138.5428  158.2365 N   0  0  0  0  0  0  0  0  0  0  0  0
  151.1696  139.6741  158.7505 C   0  0  0  0  0  0  0  0  0  0  0  0
  151.2046  140.7404  157.8785 N   0  0  0  0  0  0  0  0  0  0  0  0
  151.6034  142.0845  158.1925 C   0  0  0  0  0  0  0  0  0  0  0  0
  152.8212  142.3716  159.0756 C   0  0  0  0  0  0  0  0  0  0  0  0
  152.1085  143.6287  159.6279 C   0  0  0  0  0  0  0  0  0  0  0  0
  152.2674  143.9009  161.1371 C   0  0  0  0  0  0  0  0  0  0  0  0
  151.6774  142.8951  161.9365 O   0  0  0  0  0  0  0  0  0  0  0  0
  152.4738  144.9299  158.8889 C   0  0  0  0  0  0  0  0  0  0  0  0
  151.8065  146.0477  159.4394 O   0  0  0  0  0  0  0  0  0  0  0  0
  150.7974  142.9497  159.1647 C   0  0  0  0  0  0  0  0  0  0  0  0
  148.8960  136.7888  154.0123 H   0  0  0  0  0  0  0  0  0  0  0  0
  148.5395  134.4005  155.8521 H   0  0  0  0  0  0  0  0  0  0  0  0
  146.5287  136.3625  154.7583 H   0  0  0  0  0  0  0  0  0  0  0  0
  147.1807  137.8304  155.4705 H   0  0  0  0  0  0  0  0  0  0  0  0
  147.0666  136.3617  156.4366 H   0  0  0  0  0  0  0  0  0  0  0  0
  148.5440  132.0522  154.2742 H   0  0  0  0  0  0  0  0  0  0  0  0
  149.7792  132.7733  153.2356 H   0  0  0  0  0  0  0  0  0  0  0  0
  148.2207  132.3671  152.5790 H   0  0  0  0  0  0  0  0  0  0  0  0
  146.4652  133.8387  154.9761 H   0  0  0  0  0  0  0  0  0  0  0  0
  146.3464  135.1615  153.8491 H   0  0  0  0  0  0  0  0  0  0  0  0
  146.2581  133.5127  151.9084 H   0  0  0  0  0  0  0  0  0  0  0  0
  146.2943  132.2139  153.0797 H   0  0  0  0  0  0  0  0  0  0  0  0
  144.3273  132.6511  153.6935 H   0  0  0  0  0  0  0  0  0  0  0  0
  150.7916  133.7349  155.2514 H   0  0  0  0  0  0  0  0  0  0  0  0
  150.8468  134.8883  153.9189 H   0  0  0  0  0  0  0  0  0  0  0  0
  151.0317  135.4704  156.8441 H   0  0  0  0  0  0  0  0  0  0  0  0
  151.7961  136.3030  155.5023 H   0  0  0  0  0  0  0  0  0  0  0  0
  150.0457  140.4929  153.5440 H   0  0  0  0  0  0  0  0  0  0  0  0
  151.4513  139.7603  159.7901 H   0  0  0  0  0  0  0  0  0  0  0  0
  151.7094  142.6050  157.2387 H   0  0  0  0  0  0  0  0  0  0  0  0
  152.9917  141.5974  159.8243 H   0  0  0  0  0  0  0  0  0  0  0  0
  153.7376  142.5738  158.5205 H   0  0  0  0  0  0  0  0  0  0  0  0
  153.3208  143.9689  161.4099 H   0  0  0  0  0  0  0  0  0  0  0  0
  151.8082  144.8497  161.4154 H   0  0  0  0  0  0  0  0  0  0  0  0
  152.1349  142.8606  162.7627 H   0  0  0  0  0  0  0  0  0  0  0  0
  153.5485  145.1116  158.9233 H   0  0  0  0  0  0  0  0  0  0  0  0
  152.2094  144.8721  157.8328 H   0  0  0  0  0  0  0  0  0  0  0  0
  152.0438  146.1207  160.3513 H   0  0  0  0  0  0  0  0  0  0  0  0
  150.0810  143.6141  158.6810 H   0  0  0  0  0  0  0  0  0  0  0  0
  150.3099  142.3658  159.9462 H   0  0  0  0  0  0  0  0  0  0  0  0
  148.3824  134.6876  152.9846 H   0  0  0  0  0  0  0  0  0  0  0  0
  1  2  1  0  0  0  0
  1 31  1  0  0  0  0
  1 32  1  0  0  0  0
  1 33  1  0  0  0  0
  2 29  1  0  0  0  0
  2 11  1  0  0  0  0
  2  3  1  0  0  0  0
  3 30  1  0  0  0  0
  3  4  1  0  0  0  0
  3  9  1  0  0  0  0
  4  5  1  0  0  0  0
  4  6  1  0  0  0  0
  4 59  1  0  0  0  0
  5 34  1  0  0  0  0
  5 35  1  0  0  0  0
  5 36  1  0  0  0  0
  6  7  1  0  0  0  0
  6 37  1  0  0  0  0
  6 38  1  0  0  0  0
  7  8  1  0  0  0  0
  7 39  1  0  0  0  0
  7 40  1  0  0  0  0
  8 41  1  0  0  0  0
  9 10  1  0  0  0  0
  9 42  1  0  0  0  0
  9 43  1  0  0  0  0
 10 11  1  0  0  0  0
 10 44  1  0  0  0  0
 10 45  1  0  0  0  0
 11 12  1  0  0  0  0
 12 17  1  0  0  0  0
 12 13  2  0  0  0  0
 13 14  1  0  0  0  0
 14 15  2  0  0  0  0
 14 46  1  0  0  0  0
 15 16  1  0  0  0  0
 16 20  1  0  0  0  0
 16 17  2  0  0  0  0
 17 18  1  0  0  0  0
 18 19  2  0  0  0  0
 19 20  1  0  0  0  0
 19 47  1  0  0  0  0
 20 21  1  0  0  0  0
 21 28  1  0  0  0  0
 21 22  1  0  0  0  0
 21 48  1  0  0  0  0
 22 23  1  0  0  0  0
 22 49  1  0  0  0  0
 22 50  1  0  0  0  0
 23 24  1  0  0  0  0
 23 26  1  0  0  0  0
 23 28  1  0  0  0  0
 24 25  1  0  0  0  0
 24 51  1  0  0  0  0
 24 52  1  0  0  0  0
 25 53  1  0  0  0  0
 26 27  1  0  0  0  0
 26 54  1  0  0  0  0
 26 55  1  0  0  0  0
 27 56  1  0  0  0  0
 28 57  1  0  0  0  0
 28 58  1  0  0  0  0
M  CHG  1   4   1
M  END
> <s_m_source_file>
AV-unprocessed.smi

> <i_m_source_file_index>
215

> <i_lp_mmshare_version>
43012

> <i_f3d_flags>
0

> <s_epik_input>
W09IXVtDSDJdW0NIMl1OKFtDSDNdKVtDQEBIXShbQ0BIXTFbQ0gzXSlbQ0gyXVtDSDJdTjFjKG5bY0hdbjIpYyhjMjMpbltjSF1uM1tDSF0oW0NIMl00KVtDSDJdQzQoW0NIMl1bT0hdKVtDSDJdW09IXQ==

> <s_epik_cmdline>
J2VwaWtfcHl0aG9uJywgJy1waCcsICc3LjAnLCAnLXRuJywgJzgnLCAnLW1hJywgJzIwMCcsICctbWV0YWxfYmluZGluZycsICctaW1hZScsICc8aW5maWxlLm1hZT4nLCAnLW9tYWUnLCAnPG91dGZpbGUubWFlPic=

> <r_lp_tautomer_probability>
1

> <r_epik_Ionization_Penalty>
0.0036237

> <r_epik_Ionization_Penalty_Charging>
0.0032725

> <r_epik_Ionization_Penalty_Neutral>
0.000351196

> <r_epik_State_Penalty>
-0

> <r_epik_Charging_Adjusted_Penalty>
0.0032725

> <i_epik_Tot_Q>
1

> <i_epik_Tot_abs_Q>
1

> <r_epik_Metal_State_Penalty>
-0

> <b_epik_Metal_Only>
0

> <s_lp_Force_Field>
OPLS_2005

> <r_lp_Energy>
69.5021

> <b_lp_Chiralities_Consistent>
1

> <s_lp_Variant>
AV-unprocessed.smi:215-7

> <Gold.Version>
5.8.1

> <Gold.Id.Protein>
6NUR|6NUR_protein|mol2

> <Gold.PLP.Fitness>
54.6643

> <Gold.PLP.PLP>
-42.8561

> <Gold.PLP.part.hbond>
-5.8537

> <Gold.PLP.part.metal>
0.0000

> <Gold.PLP.part.buried>
-5.7616

> <Gold.PLP.part.nonpolar>
-32.8294

> <Gold.PLP.part.repulsive>
0.2806

> <Gold.PLP.ligand.clash>
0.0000

> <Gold.PLP.ligand.torsion>
1.5855

> <Gold.PLP.Chemscore.Hbond>
3.7753

> <Gold.PLP.Chemscore.CHOScore>
1.0000

> <Gold.PLP.Chemscore.Metal>
0.0000

> <Gold.Chemscore.Hbonds>
donor molecule, donor type, donor heavy atom, donor atom, acceptor molecule, acceptor atom, score
      L1  H     4    59       P1  7948  2.00
      L1  H     8    41       P1 10957  0.63
      P1  H  6933  6945       L1    25  0.77
      L1  C    14    46       P1  7957  1.00

> <Gold.PLP.Chemscore.Internal.Correction>
0.6533

> <Gold.Rescore>
     Score         DG    S(hbond)    S(metal)    S(lipo)     H(rot)  DE(clash)    DE(int)     intcor
     10.23     -12.84       2.58        0.00      94.62       4.81       0.25       2.36       ----

> <Gold.Chemscore.Fitness>
10.2290

> <Gold.Chemscore.DG>
-12.8416

> <Gold.Chemscore.ZeroCoef>
-5.4800

> <Gold.Chemscore.Hbond>
2.5760

> <Gold.Chemscore.Metal>
0.0000

> <Gold.Chemscore.Lipo>
94.6226

> <Gold.Chemscore.Internal_Hbond>
0.0000

> <Gold.Chemscore.DEClash>
0.2516

> <Gold.Chemscore.DEInternal>
2.3609

> <Gold.Chemscore.Rot>
4.8098

> <Gold.Chemscore.Internal.Correction>
   9.000000E+99

> <Gold.Chemscore.Hbonds>
donor molecule, donor type, donor heavy atom, donor atom, acceptor molecule, acceptor atom, score
      L1  H     4    59       P1  7948  0.49
      L1  H     8    41       P1 10957  0.33
      P1  H  6933  6945       L1    25  0.33

> <Gold.Chemscore.Hbond.Weighted>
-8.6038

> <Gold.Chemscore.Metal.Weighted>
-0.0000

> <Gold.Chemscore.Lipo.Weighted>
-11.0708

> <Gold.Chemscore.Internal_Hbond.Weighted>
0.0000

> <Gold.Chemscore.DEClash.Weighted>
0.2516

> <Gold.Chemscore.DEInternal.Weighted>
2.3609

> <Gold.Chemscore.Rot.Weighted>
12.3130

> <Gold.Chemscore.Internal.Correction.Weighted>
   9.000000E+99

> <Gold.Protein.RotatedTorsions>
[ 6907 6896 6895 6894 ] final   93.59 input  -60.11 | X-H torsion
[ 7974 7965 7964 7962 ] final  -40.08 input  175.53 | X-H torsion
[ 8008 7997 7996 7995 ] final   92.76 input   59.86 | X-H torsion
[ 10167 10162 10161 10158 ] final   72.54 input  -65.29 | X-H torsion
[ 10718 10713 10712 10709 ] final   66.82 input   66.30 | X-H torsion
[ 10763 10752 10751 10750 ] final   82.51 input  -60.55 | X-H torsion
[ 11005 11000 10999 10996 ] final   59.40 input  -57.11 | X-H torsion

> <Gold.Protein.ActiveResidues>
 VAL166  LYS551  ARG553  GLY616  TRP617  ASP618  TYR619  PRO620  LYS621  CYS622 
 ASP623  PHE694  ASN695  SER759  ASP760  ASP761  ALA762  ILE779  LEU786  VAL792 
 PHE793  MET794  SER795  GLU796  ALA797  LYS798  CYS799  TRP800  GLU811  SER814 

> <Gold.Protein.RotatedAtoms>
  152.5452  134.1324  159.8444 H   0  0  0  0  0  0  0  0  0  0  0  0  # atno 6907 bound_to 6896
  151.1369  133.4991  159.2605 H   0  0  0  0  0  0  0  0  0  0  0  0  # atno 6908 bound_to 6896
  151.1615  135.0285  159.8767 H   0  0  0  0  0  0  0  0  0  0  0  0  # atno 6909 bound_to 6896
  146.0338  140.6698  142.9120 H   0  0  0  0  0  0  0  0  0  0  0  0  # atno 7974 bound_to 7965
  156.0390  140.3321  155.7223 H   0  0  0  0  0  0  0  0  0  0  0  0  # atno 8008 bound_to 7997
  155.5772  140.0633  157.2810 H   0  0  0  0  0  0  0  0  0  0  0  0  # atno 8009 bound_to 7997
  154.4385  140.1850  156.0927 H   0  0  0  0  0  0  0  0  0  0  0  0  # atno 8010 bound_to 7997
  140.0342  144.5441  150.7484 H   0  0  0  0  0  0  0  0  0  0  0  0  # atno 10167 bound_to 10162
  157.6193  130.9288  150.0160 H   0  0  0  0  0  0  0  0  0  0  0  0  # atno 10718 bound_to 10713
  153.1209  135.4726  154.9193 H   0  0  0  0  0  0  0  0  0  0  0  0  # atno 10763 bound_to 10752
  154.7574  135.3122  154.8446 H   0  0  0  0  0  0  0  0  0  0  0  0  # atno 10764 bound_to 10752
  153.9011  135.6875  153.4809 H   0  0  0  0  0  0  0  0  0  0  0  0  # atno 10765 bound_to 10752
  140.0307  134.6017  155.9511 H   0  0  0  0  0  0  0  0  0  0  0  0  # atno 11005 bound_to 11000
  144.7042  140.3783  143.7131 LP  0  0  0  0  0  0  0  0  0  0  0  0  # atno 17320 bound_to 7965
  145.6998  139.1658  143.2599 LP  0  0  0  0  0  0  0  0  0  0  0  0  # atno 17321 bound_to 7965
  140.7289  143.2666  151.4023 LP  0  0  0  0  0  0  0  0  0  0  0  0  # atno 17342 bound_to 10162
  139.6056  144.1204  152.2245 LP  0  0  0  0  0  0  0  0  0  0  0  0  # atno 17343 bound_to 10162
  156.1330  130.3643  149.9702 LP  0  0  0  0  0  0  0  0  0  0  0  0  # atno 17370 bound_to 10713
  156.7759  130.9203  151.3645 LP  0  0  0  0  0  0  0  0  0  0  0  0  # atno 17371 bound_to 10713
  141.1829  133.6550  156.5095 LP  0  0  0  0  0  0  0  0  0  0  0  0  # atno 17394 bound_to 11000
  140.4231  134.7169  157.4901 LP  0  0  0  0  0  0  0  0  0  0  0  0  # atno 17395 bound_to 11000

$$$$
