AV-unprocessed.smi:1005|AV-procd|sdf|4371|dock2
  -GOLD-   22720 2283D 1   1.00000     0.00000
 Structure written by MMmdl.
 57 59  0  0  0  0  0  0  0  0  3 V2000
  151.2325  141.5170  157.8727 C   0  0  0  0  0  0  0  0  0  0  0  0
  150.4142  141.0592  156.6777 C   0  0  0  0  0  0  0  0  0  0  0  0
  149.1358  141.6218  156.4677 C   0  0  0  0  0  0  0  0  0  0  0  0
  148.3293  141.2057  155.3862 C   0  0  0  0  0  0  0  0  0  0  0  0
  147.0655  141.6167  155.0031 N   0  0  0  0  0  0  0  0  0  0  0  0
  146.8473  140.8549  153.9361 C   0  0  0  0  0  0  0  0  0  0  0  0
  147.8314  140.0117  153.5670 N   0  0  0  0  0  0  0  0  0  0  0  0
  147.8081  139.0986  152.4348 C   0  0  0  0  0  0  0  0  0  0  0  0
  146.3823  138.6885  152.0101 C   0  0  1  0  0  0  0  0  0  0  0  0
  146.4090  138.3985  150.6275 O   0  0  0  0  0  0  0  0  0  0  0  0
  145.8296  137.4611  152.7743 C   0  0  0  0  0  0  0  0  0  0  0  0
  144.4307  137.6489  153.2460 N   0  3  1  0  0  0  0  0  0  0  0  0
  143.4223  137.0424  152.3431 C   0  0  0  0  0  0  0  0  0  0  0  0
  143.3527  135.5160  152.5327 C   0  0  0  0  0  0  0  0  0  0  0  0
  143.0725  135.2186  153.8958 O   0  0  0  0  0  0  0  0  0  0  0  0
  144.0852  135.6877  154.7807 C   0  0  2  0  0  0  0  0  0  0  0  0
  143.7012  135.2684  156.2115 C   0  0  0  0  0  0  0  0  0  0  0  0
  143.8928  133.8157  156.4535 N   0  3  0  0  0  0  0  0  0  0  0  0
  145.2897  133.3662  156.2572 C   0  0  0  0  0  0  0  0  0  0  0  0
  143.3726  133.3984  157.7743 C   0  0  0  0  0  0  0  0  0  0  0  0
  144.1791  137.2244  154.6497 C   0  0  0  0  0  0  0  0  0  0  0  0
  148.8387  140.2019  154.5106 C   0  0  0  0  0  0  0  0  0  0  0  0
  150.1134  139.6394  154.7070 C   0  0  0  0  0  0  0  0  0  0  0  0
  150.9085  140.0710  155.7894 C   0  0  0  0  0  0  0  0  0  0  0  0
  152.2842  139.4600  155.9869 C   0  0  0  0  0  0  0  0  0  0  0  0
  150.7850  142.3896  158.3497 H   0  0  0  0  0  0  0  0  0  0  0  0
  152.2470  141.7841  157.5780 H   0  0  0  0  0  0  0  0  0  0  0  0
  151.2894  140.7207  158.6154 H   0  0  0  0  0  0  0  0  0  0  0  0
  148.7573  142.3735  157.1451 H   0  0  0  0  0  0  0  0  0  0  0  0
  145.9207  140.9210  153.3846 H   0  0  0  0  0  0  0  0  0  0  0  0
  148.3308  139.5725  151.6028 H   0  0  0  0  0  0  0  0  0  0  0  0
  148.3859  138.2117  152.7007 H   0  0  0  0  0  0  0  0  0  0  0  0
  145.7360  139.5523  152.1406 H   0  0  0  0  0  0  0  0  0  0  0  0
  145.5275  138.4241  150.2886 H   0  0  0  0  0  0  0  0  0  0  0  0
  145.8881  136.5914  152.1178 H   0  0  0  0  0  0  0  0  0  0  0  0
  146.4528  137.2150  153.6315 H   0  0  0  0  0  0  0  0  0  0  0  0
  142.4489  137.4777  152.5732 H   0  0  0  0  0  0  0  0  0  0  0  0
  143.6321  137.2964  151.3034 H   0  0  0  0  0  0  0  0  0  0  0  0
  142.5586  135.0991  151.9130 H   0  0  0  0  0  0  0  0  0  0  0  0
  144.2804  135.0326  152.2228 H   0  0  0  0  0  0  0  0  0  0  0  0
  145.0414  135.2380  154.5155 H   0  0  0  0  0  0  0  0  0  0  0  0
  144.2758  135.8361  156.9456 H   0  0  0  0  0  0  0  0  0  0  0  0
  142.6544  135.5300  156.3742 H   0  0  0  0  0  0  0  0  0  0  0  0
  145.9504  133.8456  156.9789 H   0  0  0  0  0  0  0  0  0  0  0  0
  145.6536  133.5931  155.2560 H   0  0  0  0  0  0  0  0  0  0  0  0
  145.3678  132.2873  156.3934 H   0  0  0  0  0  0  0  0  0  0  0  0
  143.9101  133.8977  158.5817 H   0  0  0  0  0  0  0  0  0  0  0  0
  143.4772  132.3212  157.9088 H   0  0  0  0  0  0  0  0  0  0  0  0
  142.3131  133.6393  157.8675 H   0  0  0  0  0  0  0  0  0  0  0  0
  144.9337  137.6153  155.3297 H   0  0  0  0  0  0  0  0  0  0  0  0
  143.2354  137.6706  154.9670 H   0  0  0  0  0  0  0  0  0  0  0  0
  150.4772  138.8741  154.0385 H   0  0  0  0  0  0  0  0  0  0  0  0
  152.4674  138.6530  155.2768 H   0  0  0  0  0  0  0  0  0  0  0  0
  152.3823  139.0482  156.9917 H   0  0  0  0  0  0  0  0  0  0  0  0
  153.0579  140.2147  155.8440 H   0  0  0  0  0  0  0  0  0  0  0  0
  143.3284  133.3328  155.7685 H   0  0  0  0  0  0  0  0  0  0  0  0
  144.2707  138.6459  153.2088 H   0  0  0  0  0  0  0  0  0  0  0  0
  1  2  1  0  0  0  0
  1 26  1  0  0  0  0
  1 27  1  0  0  0  0
  1 28  1  0  0  0  0
  2 24  1  0  0  0  0
  2  3  2  0  0  0  0
  3  4  1  0  0  0  0
  3 29  1  0  0  0  0
  4 22  2  0  0  0  0
  4  5  1  0  0  0  0
  5  6  2  0  0  0  0
  6  7  1  0  0  0  0
  6 30  1  0  0  0  0
  7  8  1  0  0  0  0
  7 22  1  0  0  0  0
  8  9  1  0  0  0  0
  8 31  1  0  0  0  0
  8 32  1  0  0  0  0
  9 10  1  0  0  0  0
  9 11  1  0  0  0  0
  9 33  1  0  0  0  0
 10 34  1  0  0  0  0
 11 12  1  0  0  0  0
 11 35  1  0  0  0  0
 11 36  1  0  0  0  0
 12 21  1  0  0  0  0
 12 13  1  0  0  0  0
 12 57  1  0  0  0  0
 13 14  1  0  0  0  0
 13 37  1  0  0  0  0
 13 38  1  0  0  0  0
 14 15  1  0  0  0  0
 14 39  1  0  0  0  0
 14 40  1  0  0  0  0
 15 16  1  0  0  0  0
 16 17  1  0  0  0  0
 16 21  1  0  0  0  0
 16 41  1  0  0  0  0
 17 18  1  0  0  0  0
 17 42  1  0  0  0  0
 17 43  1  0  0  0  0
 18 19  1  0  0  0  0
 18 20  1  0  0  0  0
 18 56  1  0  0  0  0
 19 44  1  0  0  0  0
 19 45  1  0  0  0  0
 19 46  1  0  0  0  0
 20 47  1  0  0  0  0
 20 48  1  0  0  0  0
 20 49  1  0  0  0  0
 21 50  1  0  0  0  0
 21 51  1  0  0  0  0
 22 23  1  0  0  0  0
 23 24  2  0  0  0  0
 23 52  1  0  0  0  0
 24 25  1  0  0  0  0
 25 53  1  0  0  0  0
 25 54  1  0  0  0  0
 25 55  1  0  0  0  0
M  CHG  1  12   1
M  CHG  1  18   1
M  END
> <s_m_source_file>
AV-unprocessed.smi

> <i_m_source_file_index>
1005

> <i_lp_mmshare_version>
43012

> <i_f3d_flags>
0

> <s_epik_input>
W0NIM11jKFtjSF0xKWMoW0NIM10pW2NIXWMoYzEyKW4oW2NIXW4yKVtDSDJdW0NASF0oW09IXSlbQ0gyXU4zW0NIMl1bQ0gyXU9bQ0BIXShbQ0gyXTMpW0NIMl1OKFtDSDNdKVtDSDNd

> <s_epik_cmdline>
J2VwaWtfcHl0aG9uJywgJy1waCcsICc3LjAnLCAnLXRuJywgJzgnLCAnLW1hJywgJzIwMCcsICctbWV0YWxfYmluZGluZycsICctaW1hZScsICc8aW5maWxlLm1hZT4nLCAnLW9tYWUnLCAnPG91dGZpbGUubWFlPic=

> <r_epik_Ionization_Penalty>
1.0968

> <r_epik_Ionization_Penalty_Charging>
1.0096

> <r_epik_Ionization_Penalty_Neutral>
0.0871956

> <r_epik_State_Penalty>
1.31185

> <r_epik_Charging_Adjusted_Penalty>
2.32145

> <i_epik_Tot_Q>
2

> <i_epik_Tot_abs_Q>
2

> <r_epik_Metal_State_Penalty>
1.22442

> <b_epik_Metal_Only>
0

> <s_lp_Force_Field>
OPLS_2005

> <r_lp_Energy>
34.2577

> <b_lp_Chiralities_Consistent>
1

> <s_lp_Variant>
AV-unprocessed.smi:1005-10

> <Gold.Version>
5.8.1

> <Gold.Id.Protein>
6NUR|6NUR_protein|mol2

> <Gold.PLP.Fitness>
49.4924

> <Gold.PLP.PLP>
-32.7759

> <Gold.PLP.part.hbond>
-4.0000

> <Gold.PLP.part.metal>
0.0000

> <Gold.PLP.part.buried>
6.4774

> <Gold.PLP.part.nonpolar>
-35.7795

> <Gold.PLP.part.repulsive>
0.1872

> <Gold.PLP.ligand.clash>
0.0000

> <Gold.PLP.ligand.torsion>
2.0086

> <Gold.PLP.Chemscore.Hbond>
5.8480

> <Gold.PLP.Chemscore.CHOScore>
1.0000

> <Gold.PLP.Chemscore.Metal>
0.0000

> <Gold.Chemscore.Hbonds>
donor molecule, donor type, donor heavy atom, donor atom, acceptor molecule, acceptor atom, score
      L1  H    10    34       P1 10171  1.00
      L1  H    12    57       P1 10175  1.95
      L1  H    18    56       P1 10957  2.00
      P1  H  7954  7966       L1    10  0.88
      L1  C     6    30       P1 10175  1.00

> <Gold.PLP.Chemscore.Internal.Correction>
0.1897

> <Gold.Rescore>
     Score         DG    S(hbond)    S(metal)    S(lipo)     H(rot)  DE(clash)    DE(int)     intcor
     17.66     -21.71       3.65        0.00      88.89       2.48       2.11       1.94       ----

> <Gold.Chemscore.Fitness>
17.6622

> <Gold.Chemscore.DG>
-21.7113

> <Gold.Chemscore.ZeroCoef>
-5.4800

> <Gold.Chemscore.Hbond>
3.6477

> <Gold.Chemscore.Metal>
0.0000

> <Gold.Chemscore.Lipo>
88.8935

> <Gold.Chemscore.Internal_Hbond>
0.0000

> <Gold.Chemscore.DEClash>
2.1130

> <Gold.Chemscore.DEInternal>
1.9362

> <Gold.Chemscore.Rot>
2.4814

> <Gold.Chemscore.Internal.Correction>
   9.000000E+99

> <Gold.Chemscore.Hbonds>
donor molecule, donor type, donor heavy atom, donor atom, acceptor molecule, acceptor atom, score
      L1  H    10    34       P1 10171  1.00
      L1  H    12    57       P1 10175  0.92
      L1  H    18    56       P1 10957  0.97
      P1  H  7954  7966       L1    10  0.80

> <Gold.Chemscore.Hbond.Weighted>
-12.1832

> <Gold.Chemscore.Metal.Weighted>
-0.0000

> <Gold.Chemscore.Lipo.Weighted>
-10.4005

> <Gold.Chemscore.Internal_Hbond.Weighted>
0.0000

> <Gold.Chemscore.DEClash.Weighted>
2.1130

> <Gold.Chemscore.DEInternal.Weighted>
1.9362

> <Gold.Chemscore.Rot.Weighted>
6.3524

> <Gold.Chemscore.Internal.Correction.Weighted>
   9.000000E+99

> <Gold.Protein.RotatedTorsions>
[ 6907 6896 6895 6894 ] final  163.95 input  -60.11 | X-H torsion
[ 7974 7965 7964 7962 ] final  -18.73 input  175.53 | X-H torsion
[ 8008 7997 7996 7995 ] final  -73.67 input   59.86 | X-H torsion
[ 10167 10162 10161 10158 ] final  171.37 input  -65.29 | X-H torsion
[ 10718 10713 10712 10709 ] final  -97.17 input   66.30 | X-H torsion
[ 10763 10752 10751 10750 ] final    7.98 input  -60.55 | X-H torsion
[ 11005 11000 10999 10996 ] final   -4.01 input  -57.11 | X-H torsion

> <Gold.Protein.ActiveResidues>
 VAL166  LYS551  ARG553  GLY616  TRP617  ASP618  TYR619  PRO620  LYS621  CYS622 
 ASP623  PHE694  ASN695  SER759  ASP760  ASP761  ALA762  ILE779  LEU786  VAL792 
 PHE793  MET794  SER795  GLU796  ALA797  LYS798  CYS799  TRP800  GLU811  SER814 

> <Gold.Protein.RotatedAtoms>
  151.9173  133.3576  159.3884 H   0  0  0  0  0  0  0  0  0  0  0  0  # atno 6907 bound_to 6896
  150.7044  134.4671  159.5417 H   0  0  0  0  0  0  0  0  0  0  0  0  # atno 6908 bound_to 6896
  152.2288  134.8342  160.0527 H   0  0  0  0  0  0  0  0  0  0  0  0  # atno 6909 bound_to 6896
  146.1878  140.3962  142.8470 H   0  0  0  0  0  0  0  0  0  0  0  0  # atno 7974 bound_to 7965
  154.5267  140.0775  156.8271 H   0  0  0  0  0  0  0  0  0  0  0  0  # atno 8008 bound_to 7997
  155.3461  140.3410  155.4221 H   0  0  0  0  0  0  0  0  0  0  0  0  # atno 8009 bound_to 7997
  156.1738  140.1629  156.8385 H   0  0  0  0  0  0  0  0  0  0  0  0  # atno 8010 bound_to 7997
  139.5045  144.3493  151.9939 H   0  0  0  0  0  0  0  0  0  0  0  0  # atno 10167 bound_to 10162
  156.0077  130.5183  150.6334 H   0  0  0  0  0  0  0  0  0  0  0  0  # atno 10718 bound_to 10713
  153.2301  135.6891  153.7899 H   0  0  0  0  0  0  0  0  0  0  0  0  # atno 10763 bound_to 10752
  153.7067  135.3289  155.3238 H   0  0  0  0  0  0  0  0  0  0  0  0  # atno 10764 bound_to 10752
  154.8310  135.4580  154.1183 H   0  0  0  0  0  0  0  0  0  0  0  0  # atno 10765 bound_to 10752
  140.6756  133.9198  155.8522 H   0  0  0  0  0  0  0  0  0  0  0  0  # atno 11005 bound_to 11000
  144.8429  140.6884  143.6218 LP  0  0  0  0  0  0  0  0  0  0  0  0  # atno 17320 bound_to 7965
  145.3887  139.1621  143.4241 LP  0  0  0  0  0  0  0  0  0  0  0  0  # atno 17321 bound_to 7965
  140.2930  144.3733  150.6083 LP  0  0  0  0  0  0  0  0  0  0  0  0  # atno 17342 bound_to 10162
  140.5932  143.2167  151.7213 LP  0  0  0  0  0  0  0  0  0  0  0  0  # atno 17343 bound_to 10162
  157.4128  131.0826  151.1205 LP  0  0  0  0  0  0  0  0  0  0  0  0  # atno 17370 bound_to 10713
  157.1831  130.6318  149.5678 LP  0  0  0  0  0  0  0  0  0  0  0  0  # atno 17371 bound_to 10713
  141.0358  134.0691  157.3961 LP  0  0  0  0  0  0  0  0  0  0  0  0  # atno 17394 bound_to 11000
  139.8968  135.0147  156.7068 LP  0  0  0  0  0  0  0  0  0  0  0  0  # atno 17395 bound_to 11000

$$$$
