AV-unprocessed.smi:59|AV-procd|sdf|592|dock1
  -GOLD-   2262016483D 1   1.00000     0.00000
 Structure written by MMmdl.
 29 30  0  0  0  0  0  0  0  0  2 V2000
  148.6979  142.1228  154.6738 C   0  0  0  0  0  0  0  0  0  0  0  0
  149.2972  140.7974  154.7956 N   0  0  0  0  0  0  0  0  0  0  0  0
  148.7155  139.6569  154.4050 C   0  0  0  0  0  0  0  0  0  0  0  0
  147.5726  139.5425  153.9621 O   0  0  0  0  0  0  0  0  0  0  0  0
  149.6744  138.4834  154.5260 C   0  0  1  0  0  0  0  0  0  0  0  0
  150.0687  138.0750  153.2271 O   0  0  0  0  0  0  0  0  0  0  0  0
  150.8045  139.0711  155.4045 C   0  0  1  0  0  0  0  0  0  0  0  0
  152.2150  138.5139  155.1179 C   0  0  0  0  0  0  0  0  0  0  0  0
  153.1135  139.3119  154.7688 O   0  0  0  0  0  0  0  0  0  0  0  0
  152.3802  137.2863  155.2932 O   0  5  0  0  0  0  0  0  0  0  0  0
  150.6608  140.6101  155.2849 C   0  0  2  0  0  0  0  0  0  0  0  0
  150.9577  141.3035  156.5969 C   0  0  0  0  0  0  0  0  0  0  0  0
  151.3152  140.7271  157.8510 C   0  0  0  0  0  0  0  0  0  0  0  0
  151.5190  141.6296  158.7964 N   0  0  0  0  0  0  0  0  0  0  0  0
  151.3077  142.8107  158.1808 N   0  0  0  0  0  0  0  0  0  0  0  0
  151.4545  144.0418  158.9269 C   0  0  0  0  0  0  0  0  0  0  0  0
  150.9723  142.6452  156.8549 C   0  0  0  0  0  0  0  0  0  0  0  0
  149.1843  137.6498  155.0301 H   0  0  0  0  0  0  0  0  0  0  0  0
  150.5687  138.7882  156.4324 H   0  0  0  0  0  0  0  0  0  0  0  0
  151.3090  140.9965  154.4964 H   0  0  0  0  0  0  0  0  0  0  0  0
  148.2817  142.2694  153.6764 H   0  0  0  0  0  0  0  0  0  0  0  0
  149.4350  142.9082  154.8441 H   0  0  0  0  0  0  0  0  0  0  0  0
  147.8957  142.2448  155.4020 H   0  0  0  0  0  0  0  0  0  0  0  0
  149.6161  137.2726  153.0174 H   0  0  0  0  0  0  0  0  0  0  0  0
  151.4322  139.6826  158.0992 H   0  0  0  0  0  0  0  0  0  0  0  0
  151.0182  144.8700  158.3675 H   0  0  0  0  0  0  0  0  0  0  0  0
  152.5124  144.2443  159.0951 H   0  0  0  0  0  0  0  0  0  0  0  0
  150.9469  143.9583  159.8884 H   0  0  0  0  0  0  0  0  0  0  0  0
  150.7750  143.4865  156.2068 H   0  0  0  0  0  0  0  0  0  0  0  0
  1  2  1  0  0  0  0
  1 21  1  0  0  0  0
  1 22  1  0  0  0  0
  1 23  1  0  0  0  0
  2 11  1  0  0  0  0
  2  3  1  0  0  0  0
  3  4  2  0  0  0  0
  3  5  1  0  0  0  0
  5 18  1  0  0  0  0
  5  6  1  0  0  0  0
  5  7  1  0  0  0  0
  6 24  1  0  0  0  0
  7 19  1  0  0  0  0
  7  8  1  0  0  0  0
  7 11  1  0  0  0  0
  8  9  2  0  0  0  0
  8 10  1  0  0  0  0
 11 20  1  0  0  0  0
 11 12  1  0  0  0  0
 12 17  2  0  0  0  0
 12 13  1  0  0  0  0
 13 14  2  0  0  0  0
 13 25  1  0  0  0  0
 14 15  1  0  0  0  0
 15 16  1  0  0  0  0
 15 17  1  0  0  0  0
 16 26  1  0  0  0  0
 16 27  1  0  0  0  0
 16 28  1  0  0  0  0
 17 29  1  0  0  0  0
M  CHG  1  10  -1
M  END
> <s_m_source_file>
AV-unprocessed.smi

> <i_m_source_file_index>
59

> <i_lp_mmshare_version>
43012

> <i_f3d_flags>
0

> <s_epik_input>
W0NIM11OMUMoPU8pW0NASF0oW09IXSlbQ0BIXShDKD1PKVtPSF0pW0NASF0xYzJbY0hdbm4oW0NIM10pW2NIXTI=

> <s_epik_cmdline>
J2VwaWtfcHl0aG9uJywgJy1waCcsICc3LjAnLCAnLXRuJywgJzgnLCAnLW1hJywgJzIwMCcsICctbWV0YWxfYmluZGluZycsICctaW1hZScsICc8aW5maWxlLm1hZT4nLCAnLW9tYWUnLCAnPG91dGZpbGUubWFlPic=

> <r_lp_tautomer_probability>
1

> <r_epik_Ionization_Penalty>
0.00173515

> <r_epik_Ionization_Penalty_Charging>
0.00120567

> <r_epik_Ionization_Penalty_Neutral>
0.000529476

> <r_epik_State_Penalty>
-0

> <r_epik_Charging_Adjusted_Penalty>
0.00120567

> <i_epik_Tot_Q>
-1

> <i_epik_Tot_abs_Q>
1

> <r_epik_Metal_State_Penalty>
-0

> <b_epik_Metal_Only>
0

> <s_lp_Force_Field>
OPLS_2005

> <r_lp_Energy>
6.90576

> <b_lp_Chiralities_Consistent>
1

> <s_lp_Variant>
AV-unprocessed.smi:59-8

> <Gold.Version>
5.8.1

> <Gold.Id.Protein>
6NUR|6NUR_protein|mol2

> <Gold.PLP.Fitness>
47.6441

> <Gold.PLP.PLP>
-31.4188

> <Gold.PLP.part.hbond>
-5.8635

> <Gold.PLP.part.metal>
0.0000

> <Gold.PLP.part.buried>
2.9939

> <Gold.PLP.part.nonpolar>
-28.9670

> <Gold.PLP.part.repulsive>
0.2253

> <Gold.PLP.ligand.clash>
0.0000

> <Gold.PLP.ligand.torsion>
0.0338

> <Gold.PLP.Chemscore.Hbond>
4.4234

> <Gold.PLP.Chemscore.CHOScore>
1.0000

> <Gold.PLP.Chemscore.Metal>
0.0000

> <Gold.Chemscore.Hbonds>
donor molecule, donor type, donor heavy atom, donor atom, acceptor molecule, acceptor atom, score
      L1  H     6    24       P1  7948  0.96
      P1  H  7997  8009       L1     9  2.00
      P1  H 10752 10764       L1    10  1.41
      L1  C    17    29       P1  8028  1.00

> <Gold.PLP.Chemscore.Internal.Correction>
0.0227

> <Gold.Rescore>
     Score         DG    S(hbond)    S(metal)    S(lipo)     H(rot)  DE(clash)    DE(int)     intcor
     14.27     -16.13       2.64        0.00      60.74       2.06       1.81       0.05       ----

> <Gold.Chemscore.Fitness>
14.2679

> <Gold.Chemscore.DG>
-16.1302

> <Gold.Chemscore.ZeroCoef>
-5.4800

> <Gold.Chemscore.Hbond>
2.6428

> <Gold.Chemscore.Metal>
0.0000

> <Gold.Chemscore.Lipo>
60.7429

> <Gold.Chemscore.Internal_Hbond>
0.0000

> <Gold.Chemscore.DEClash>
1.8140

> <Gold.Chemscore.DEInternal>
0.0483

> <Gold.Chemscore.Rot>
2.0639

> <Gold.Chemscore.Internal.Correction>
   9.000000E+99

> <Gold.Chemscore.Hbonds>
donor molecule, donor type, donor heavy atom, donor atom, acceptor molecule, acceptor atom, score
      L1  H     6    24       P1  7948  0.60
      P1  H  7997  8009       L1     9  0.99
      P1  H 10752 10764       L1    10  0.70

> <Gold.Chemscore.Hbond.Weighted>
-8.8269

> <Gold.Chemscore.Metal.Weighted>
-0.0000

> <Gold.Chemscore.Lipo.Weighted>
-7.1069

> <Gold.Chemscore.Internal_Hbond.Weighted>
0.0000

> <Gold.Chemscore.DEClash.Weighted>
1.8140

> <Gold.Chemscore.DEInternal.Weighted>
0.0483

> <Gold.Chemscore.Rot.Weighted>
5.2837

> <Gold.Chemscore.Internal.Correction.Weighted>
   9.000000E+99

> <Gold.Protein.RotatedTorsions>
[ 6907 6896 6895 6894 ] final -136.07 input  -60.11 | X-H torsion
[ 7974 7965 7964 7962 ] final  -45.58 input  175.53 | X-H torsion
[ 8008 7997 7996 7995 ] final -126.60 input   59.86 | X-H torsion
[ 10167 10162 10161 10158 ] final   95.93 input  -65.29 | X-H torsion
[ 10718 10713 10712 10709 ] final  -67.98 input   66.30 | X-H torsion
[ 10763 10752 10751 10750 ] final  -50.95 input  -60.55 | X-H torsion
[ 11005 11000 10999 10996 ] final -109.77 input  -57.11 | X-H torsion

> <Gold.Protein.ActiveResidues>
 VAL166  LYS551  ARG553  GLY616  TRP617  ASP618  TYR619  PRO620  LYS621  CYS622 
 ASP623  PHE694  ASN695  SER759  ASP760  ASP761  ALA762  ILE779  LEU786  VAL792 
 PHE793  MET794  SER795  GLU796  ALA797  LYS798  CYS799  TRP800  GLU811  SER814 

> <Gold.Protein.RotatedAtoms>
  151.0055  133.6015  159.2689 H   0  0  0  0  0  0  0  0  0  0  0  0  # atno 6907 bound_to 6896
  151.3185  135.0811  159.9307 H   0  0  0  0  0  0  0  0  0  0  0  0  # atno 6908 bound_to 6896
  152.5285  133.9707  159.7815 H   0  0  0  0  0  0  0  0  0  0  0  0  # atno 6909 bound_to 6896
  145.9806  140.7287  142.9365 H   0  0  0  0  0  0  0  0  0  0  0  0  # atno 7974 bound_to 7965
  155.2324  140.0425  157.2964 H   0  0  0  0  0  0  0  0  0  0  0  0  # atno 8008 bound_to 7997
  154.5880  140.2419  155.7930 H   0  0  0  0  0  0  0  0  0  0  0  0  # atno 8009 bound_to 7997
  156.2240  140.2961  156.0029 H   0  0  0  0  0  0  0  0  0  0  0  0  # atno 8010 bound_to 7997
  139.7941  144.6840  150.9852 H   0  0  0  0  0  0  0  0  0  0  0  0  # atno 10167 bound_to 10162
  156.0529  130.4287  150.1933 H   0  0  0  0  0  0  0  0  0  0  0  0  # atno 10718 bound_to 10713
  154.1187  135.6538  153.4899 H   0  0  0  0  0  0  0  0  0  0  0  0  # atno 10763 bound_to 10752
  153.0232  135.5265  154.7119 H   0  0  0  0  0  0  0  0  0  0  0  0  # atno 10764 bound_to 10752
  154.6320  135.2977  155.0175 H   0  0  0  0  0  0  0  0  0  0  0  0  # atno 10765 bound_to 10752
  141.0829  133.9189  157.2249 H   0  0  0  0  0  0  0  0  0  0  0  0  # atno 11005 bound_to 11000
  144.6860  140.2902  143.7279 LP  0  0  0  0  0  0  0  0  0  0  0  0  # atno 17320 bound_to 7965
  145.7775  139.1879  143.2177 LP  0  0  0  0  0  0  0  0  0  0  0  0  # atno 17321 bound_to 7965
  140.7820  143.4349  151.0638 LP  0  0  0  0  0  0  0  0  0  0  0  0  # atno 17342 bound_to 10162
  139.8024  143.8064  152.3164 LP  0  0  0  0  0  0  0  0  0  0  0  0  # atno 17343 bound_to 10162
  157.0014  130.9923  151.3390 LP  0  0  0  0  0  0  0  0  0  0  0  0  # atno 17370 bound_to 10713
  157.5472  130.8159  149.8101 LP  0  0  0  0  0  0  0  0  0  0  0  0  # atno 17371 bound_to 10713
  139.9644  135.0146  156.9349 LP  0  0  0  0  0  0  0  0  0  0  0  0  # atno 17394 bound_to 11000
  140.5428  134.0703  155.7346 LP  0  0  0  0  0  0  0  0  0  0  0  0  # atno 17395 bound_to 11000

$$$$
