AV-unprocessed.smi:1097|AV-procd|sdf|4752|dock1
  -GOLD-   22720 3283D 1   1.00000     0.00000
 Structure written by MMmdl.
 40 41  0  0  0  0  0  0  0  0  1 V2000
  152.7629  138.4963  154.7536 C   0  0  0  0  0  0  0  0  0  0  0  0
  152.2042  137.3007  154.2381 O   0  0  0  0  0  0  0  0  0  0  0  0
  150.9540  136.9875  154.8287 C   0  0  0  0  0  0  0  0  0  0  0  0
  149.8954  137.9611  154.3044 C   0  0  0  0  0  0  0  0  0  0  0  0
  150.0531  139.2060  154.9777 O   0  0  0  0  0  0  0  0  0  0  0  0
  149.0447  140.1475  154.8897 C   0  0  0  0  0  0  0  0  0  0  0  0
  147.9370  139.8264  154.1732 N   0  0  0  0  0  0  0  0  0  0  0  0
  146.9465  140.7351  154.0668 C   0  0  0  0  0  0  0  0  0  0  0  0
  147.0028  142.0070  154.6642 C   0  0  0  0  0  0  0  0  0  0  0  0
  148.1483  142.3446  155.4075 C   0  0  0  0  0  0  0  0  0  0  0  0
  149.2006  141.4073  155.5252 C   0  0  0  0  0  0  0  0  0  0  0  0
  150.4237  141.7354  156.3361 C   0  0  0  0  0  0  0  0  0  0  0  0
  151.3172  140.9067  156.5117 O   0  0  0  0  0  0  0  0  0  0  0  0
  150.4752  142.9902  156.8115 N   0  0  0  0  0  0  0  0  0  0  0  0
  151.5689  143.5387  157.6082 C   0  0  1  0  0  0  0  0  0  0  0  0
  151.3247  145.0128  157.9686 C   0  0  0  0  0  0  0  0  0  0  0  0
  151.6189  145.0725  159.4580 C   0  0  0  0  0  0  0  0  0  0  0  0
  151.6321  146.1250  160.0944 O   0  0  0  0  0  0  0  0  0  0  0  0
  151.8546  143.8524  159.9493 N   0  0  0  0  0  0  0  0  0  0  0  0
  152.1593  143.5381  161.3385 C   0  0  0  0  0  0  0  0  0  0  0  0
  151.7230  142.8026  158.9547 C   0  0  0  0  0  0  0  0  0  0  0  0
  153.7220  138.6896  154.2735 H   0  0  0  0  0  0  0  0  0  0  0  0
  152.9337  138.4201  155.8283 H   0  0  0  0  0  0  0  0  0  0  0  0
  152.1124  139.3507  154.5622 H   0  0  0  0  0  0  0  0  0  0  0  0
  150.6695  135.9622  154.5864 H   0  0  0  0  0  0  0  0  0  0  0  0
  151.0240  137.0632  155.9149 H   0  0  0  0  0  0  0  0  0  0  0  0
  150.0200  138.0942  153.2286 H   0  0  0  0  0  0  0  0  0  0  0  0
  148.8994  137.5528  154.4837 H   0  0  0  0  0  0  0  0  0  0  0  0
  146.0829  140.4387  153.4903 H   0  0  0  0  0  0  0  0  0  0  0  0
  146.1852  142.7046  154.5582 H   0  0  0  0  0  0  0  0  0  0  0  0
  148.2073  143.3127  155.8838 H   0  0  0  0  0  0  0  0  0  0  0  0
  149.7050  143.6092  156.6035 H   0  0  0  0  0  0  0  0  0  0  0  0
  152.5023  143.4695  157.0461 H   0  0  0  0  0  0  0  0  0  0  0  0
  151.9812  145.6825  157.4127 H   0  0  0  0  0  0  0  0  0  0  0  0
  150.2919  145.3184  157.7962 H   0  0  0  0  0  0  0  0  0  0  0  0
  153.0349  144.0941  161.6756 H   0  0  0  0  0  0  0  0  0  0  0  0
  152.3646  142.4748  161.4647 H   0  0  0  0  0  0  0  0  0  0  0  0
  151.3182  143.7994  161.9816 H   0  0  0  0  0  0  0  0  0  0  0  0
  150.8472  142.1973  159.1957 H   0  0  0  0  0  0  0  0  0  0  0  0
  152.5962  142.1488  158.9539 H   0  0  0  0  0  0  0  0  0  0  0  0
  1  2  1  0  0  0  0
  1 22  1  0  0  0  0
  1 23  1  0  0  0  0
  1 24  1  0  0  0  0
  2  3  1  0  0  0  0
  3  4  1  0  0  0  0
  3 25  1  0  0  0  0
  3 26  1  0  0  0  0
  4  5  1  0  0  0  0
  4 27  1  0  0  0  0
  4 28  1  0  0  0  0
  5  6  1  0  0  0  0
  6 11  1  0  0  0  0
  6  7  2  0  0  0  0
  7  8  1  0  0  0  0
  8  9  2  0  0  0  0
  8 29  1  0  0  0  0
  9 10  1  0  0  0  0
  9 30  1  0  0  0  0
 10 11  2  0  0  0  0
 10 31  1  0  0  0  0
 11 12  1  0  0  0  0
 12 13  2  0  0  0  0
 12 14  1  0  0  0  0
 14 15  1  0  0  0  0
 14 32  1  0  0  0  0
 15 21  1  0  0  0  0
 15 16  1  0  0  0  0
 15 33  1  0  0  0  0
 16 17  1  0  0  0  0
 16 34  1  0  0  0  0
 16 35  1  0  0  0  0
 17 18  2  0  0  0  0
 17 19  1  0  0  0  0
 19 20  1  0  0  0  0
 19 21  1  0  0  0  0
 20 36  1  0  0  0  0
 20 37  1  0  0  0  0
 20 38  1  0  0  0  0
 21 39  1  0  0  0  0
 21 40  1  0  0  0  0
M  END
> <s_m_source_file>
AV-unprocessed.smi

> <i_m_source_file_index>
1097

> <i_lp_mmshare_version>
43012

> <i_f3d_flags>
0

> <s_epik_input>
W0NIM11PW0NIMl1bQ0gyXU9jMW5bY0hdW2NIXVtjSF1jMUMoPU8pW05IXVtDQEBIXTJbQ0gyXUMoPU8pTihbQ0gzXSlbQ0gyXTI=

> <s_epik_cmdline>
J2VwaWtfcHl0aG9uJywgJy1waCcsICc3LjAnLCAnLXRuJywgJzgnLCAnLW1hJywgJzIwMCcsICctbWV0YWxfYmluZGluZycsICctaW1hZScsICc8aW5maWxlLm1hZT4nLCAnLW9tYWUnLCAnPG91dGZpbGUubWFlPic=

> <r_lp_tautomer_probability>
1

> <r_epik_Ionization_Penalty>
2.30122e-06

> <r_epik_Ionization_Penalty_Charging>
0

> <r_epik_Ionization_Penalty_Neutral>
2.30122e-06

> <r_epik_State_Penalty>
-0

> <r_epik_Charging_Adjusted_Penalty>
0

> <i_epik_Tot_Q>
0

> <i_epik_Tot_abs_Q>
0

> <r_epik_Metal_State_Penalty>
-0

> <b_epik_Metal_Only>
0

> <s_lp_Force_Field>
OPLS_2005

> <r_lp_Energy>
19.8496

> <b_lp_Chiralities_Consistent>
1

> <s_lp_Variant>
AV-unprocessed.smi:1097-2

> <Gold.Version>
5.8.1

> <Gold.Id.Protein>
6NUR|6NUR_protein|mol2

> <Gold.PLP.Fitness>
48.5824

> <Gold.PLP.PLP>
-40.8552

> <Gold.PLP.part.hbond>
-3.7701

> <Gold.PLP.part.metal>
0.0000

> <Gold.PLP.part.buried>
-3.4434

> <Gold.PLP.part.nonpolar>
-36.9820

> <Gold.PLP.part.repulsive>
0.6658

> <Gold.PLP.ligand.clash>
0.0000

> <Gold.PLP.ligand.torsion>
0.1711

> <Gold.PLP.Chemscore.Hbond>
1.8480

> <Gold.PLP.Chemscore.CHOScore>
0.8198

> <Gold.PLP.Chemscore.Metal>
0.0000

> <Gold.Chemscore.Hbonds>
donor molecule, donor type, donor heavy atom, donor atom, acceptor molecule, acceptor atom, score
      L1  H    14    32       P1  8028  1.00
      P1  H 10752 10763       L1     2  0.85
      L1  C     8    29       P1 10175  0.82

> <Gold.PLP.Chemscore.Internal.Correction>
0.0660

> <Gold.Rescore>
     Score         DG    S(hbond)    S(metal)    S(lipo)     H(rot)  DE(clash)    DE(int)     intcor
     12.10     -17.39       1.83        0.00      92.16       1.95       2.12       3.17       ----

> <Gold.Chemscore.Fitness>
12.0977

> <Gold.Chemscore.DG>
-17.3937

> <Gold.Chemscore.ZeroCoef>
-5.4800

> <Gold.Chemscore.Hbond>
1.8309

> <Gold.Chemscore.Metal>
0.0000

> <Gold.Chemscore.Lipo>
92.1572

> <Gold.Chemscore.Internal_Hbond>
0.0000

> <Gold.Chemscore.DEClash>
2.1212

> <Gold.Chemscore.DEInternal>
3.1748

> <Gold.Chemscore.Rot>
1.9468

> <Gold.Chemscore.Internal.Correction>
   9.000000E+99

> <Gold.Chemscore.Hbonds>
donor molecule, donor type, donor heavy atom, donor atom, acceptor molecule, acceptor atom, score
      L1  H    14    32       P1  8028  0.97
      P1  H 10752 10763       L1     2  0.29

> <Gold.Chemscore.Hbond.Weighted>
-6.1151

> <Gold.Chemscore.Metal.Weighted>
-0.0000

> <Gold.Chemscore.Lipo.Weighted>
-10.7824

> <Gold.Chemscore.Internal_Hbond.Weighted>
0.0000

> <Gold.Chemscore.DEClash.Weighted>
2.1212

> <Gold.Chemscore.DEInternal.Weighted>
3.1748

> <Gold.Chemscore.Rot.Weighted>
4.9839

> <Gold.Chemscore.Internal.Correction.Weighted>
   9.000000E+99

> <Gold.Protein.RotatedTorsions>
[ 6907 6896 6895 6894 ] final -131.43 input  -60.11 | X-H torsion
[ 7974 7965 7964 7962 ] final -118.20 input  175.53 | X-H torsion
[ 8008 7997 7996 7995 ] final -139.91 input   59.86 | X-H torsion
[ 10167 10162 10161 10158 ] final -100.73 input  -65.29 | X-H torsion
[ 10718 10713 10712 10709 ] final  -78.99 input   66.30 | X-H torsion
[ 10763 10752 10751 10750 ] final   33.26 input  -60.55 | X-H torsion
[ 11005 11000 10999 10996 ] final  120.64 input  -57.11 | X-H torsion

> <Gold.Protein.ActiveResidues>
 VAL166  LYS551  ARG553  GLY616  TRP617  ASP618  TYR619  PRO620  LYS621  CYS622 
 ASP623  PHE694  ASN695  SER759  ASP760  ASP761  ALA762  ILE779  LEU786  VAL792 
 PHE793  MET794  SER795  GLU796  ALA797  LYS798  CYS799  TRP800  GLU811  SER814 

> <Gold.Protein.RotatedAtoms>
  150.9508  133.6551  159.2772 H   0  0  0  0  0  0  0  0  0  0  0  0  # atno 6907 bound_to 6896
  151.3908  135.0954  159.9535 H   0  0  0  0  0  0  0  0  0  0  0  0  # atno 6908 bound_to 6896
  152.5109  133.9023  159.7502 H   0  0  0  0  0  0  0  0  0  0  0  0  # atno 6909 bound_to 6896
  145.0765  140.8396  143.4064 H   0  0  0  0  0  0  0  0  0  0  0  0  # atno 7974 bound_to 7965
  155.4526  140.0540  157.2999 H   0  0  0  0  0  0  0  0  0  0  0  0  # atno 8008 bound_to 7997
  154.4771  140.2065  155.9808 H   0  0  0  0  0  0  0  0  0  0  0  0  # atno 8009 bound_to 7997
  156.1148  140.3198  155.8128 H   0  0  0  0  0  0  0  0  0  0  0  0  # atno 8010 bound_to 7997
  140.2488  143.3487  152.0734 H   0  0  0  0  0  0  0  0  0  0  0  0  # atno 10167 bound_to 10162
  156.0103  130.4533  150.3581 H   0  0  0  0  0  0  0  0  0  0  0  0  # atno 10718 bound_to 10713
  153.0221  135.6392  154.1483 H   0  0  0  0  0  0  0  0  0  0  0  0  # atno 10763 bound_to 10752
  154.1217  135.2846  155.3208 H   0  0  0  0  0  0  0  0  0  0  0  0  # atno 10764 bound_to 10752
  154.6259  135.5509  153.7688 H   0  0  0  0  0  0  0  0  0  0  0  0  # atno 10765 bound_to 10752
  139.9193  134.9635  156.7838 H   0  0  0  0  0  0  0  0  0  0  0  0  # atno 11005 bound_to 11000
  145.1229  139.2681  143.5579 LP  0  0  0  0  0  0  0  0  0  0  0  0  # atno 17320 bound_to 7965
  146.3530  140.0858  142.8615 LP  0  0  0  0  0  0  0  0  0  0  0  0  # atno 17321 bound_to 7965
  139.5053  144.6792  151.6052 LP  0  0  0  0  0  0  0  0  0  0  0  0  # atno 17342 bound_to 10162
  140.6057  143.9529  150.6417 LP  0  0  0  0  0  0  0  0  0  0  0  0  # atno 17343 bound_to 10162
  157.1670  131.0359  151.2813 LP  0  0  0  0  0  0  0  0  0  0  0  0  # atno 17370 bound_to 10713
  157.4262  130.7465  149.6953 LP  0  0  0  0  0  0  0  0  0  0  0  0  # atno 17371 bound_to 10713
  140.6522  133.9721  155.7761 LP  0  0  0  0  0  0  0  0  0  0  0  0  # atno 17394 bound_to 11000
  141.0700  134.0220  157.3540 LP  0  0  0  0  0  0  0  0  0  0  0  0  # atno 17395 bound_to 11000

$$$$
