AV-unprocessed.smi:2765|AV-procd|sdf|10644|dock1
  -GOLD-   2272015 93D 1   1.00000     0.00000
 Structure written by MMmdl.
 45 46  0  0  0  0  0  0  0  0  2 V2000
  147.8351  138.8246  155.5929 C   0  0  0  0  0  0  0  0  0  0  0  0
  148.2325  138.3194  154.1884 C   0  0  0  0  0  0  0  0  0  0  0  0
  146.9414  138.2998  153.3470 C   0  0  0  0  0  0  0  0  0  0  0  0
  149.2453  139.2610  153.4897 C   0  0  0  0  0  0  0  0  0  0  0  0
  150.7088  139.1048  153.9461 C   0  0  0  0  0  0  0  0  0  0  0  0
  150.9894  139.7171  155.2434 N   0  0  0  0  0  0  0  0  0  0  0  0
  150.4178  140.8347  155.7163 C   0  0  0  0  0  0  0  0  0  0  0  0
  149.5687  141.4752  155.0963 O   0  0  0  0  0  0  0  0  0  0  0  0
  150.8897  141.1444  156.9370 N   0  0  0  0  0  0  0  0  0  0  0  0
  150.5379  142.2485  157.7587 C   0  0  0  0  0  0  0  0  0  0  0  0
  151.5637  142.7070  158.6165 C   0  0  0  0  0  0  0  0  0  0  0  0
  151.3162  143.7995  159.4705 C   0  0  0  0  0  0  0  0  0  0  0  0
  150.0472  144.4046  159.4432 C   0  0  0  0  0  0  0  0  0  0  0  0
  149.7626  145.4579  160.2452 F   0  0  0  0  0  0  0  0  0  0  0  0
  149.0810  143.8873  158.5608 C   0  0  0  0  0  0  0  0  0  0  0  0
  149.3170  142.8399  157.7422 N   0  0  0  0  0  0  0  0  0  0  0  0
  151.1254  137.6259  153.9024 C   0  0  0  0  0  0  0  0  0  0  0  0
  150.1531  136.6446  154.6069 C   0  0  0  0  0  0  0  0  0  0  0  0
  150.4760  135.2207  154.1129 C   0  0  0  0  0  0  0  0  0  0  0  0
  150.3392  136.6318  156.1403 C   0  0  0  0  0  0  0  0  0  0  0  0
  148.7374  136.9179  154.2295 N   0  3  0  0  0  0  0  0  0  0  0  0
  147.3124  139.7794  155.5260 H   0  0  0  0  0  0  0  0  0  0  0  0
  148.6787  138.9925  156.2540 H   0  0  0  0  0  0  0  0  0  0  0  0
  147.1640  138.1236  156.0902 H   0  0  0  0  0  0  0  0  0  0  0  0
  146.5131  139.2984  153.2498 H   0  0  0  0  0  0  0  0  0  0  0  0
  146.1806  137.6605  153.7972 H   0  0  0  0  0  0  0  0  0  0  0  0
  147.1240  137.9251  152.3389 H   0  0  0  0  0  0  0  0  0  0  0  0
  149.2279  139.0516  152.4189 H   0  0  0  0  0  0  0  0  0  0  0  0
  148.9210  140.2987  153.5791 H   0  0  0  0  0  0  0  0  0  0  0  0
  151.3366  139.6295  153.2231 H   0  0  0  0  0  0  0  0  0  0  0  0
  151.6816  139.2617  155.8201 H   0  0  0  0  0  0  0  0  0  0  0  0
  151.5845  140.5222  157.3223 H   0  0  0  0  0  0  0  0  0  0  0  0
  152.5334  142.2303  158.6233 H   0  0  0  0  0  0  0  0  0  0  0  0
  152.0867  144.1652  160.1331 H   0  0  0  0  0  0  0  0  0  0  0  0
  148.0944  144.3241  158.5095 H   0  0  0  0  0  0  0  0  0  0  0  0
  151.1917  137.3487  152.8490 H   0  0  0  0  0  0  0  0  0  0  0  0
  152.1371  137.5068  154.2935 H   0  0  0  0  0  0  0  0  0  0  0  0
  151.5111  134.9497  154.3253 H   0  0  0  0  0  0  0  0  0  0  0  0
  150.3302  135.1268  153.0358 H   0  0  0  0  0  0  0  0  0  0  0  0
  149.8384  134.4762  154.5915 H   0  0  0  0  0  0  0  0  0  0  0  0
  151.3348  136.2749  156.4068 H   0  0  0  0  0  0  0  0  0  0  0  0
  149.6198  135.9672  156.6199 H   0  0  0  0  0  0  0  0  0  0  0  0
  150.2363  137.6075  156.6032 H   0  0  0  0  0  0  0  0  0  0  0  0
  148.1280  136.3665  154.8166 H   0  0  0  0  0  0  0  0  0  0  0  0
  148.6432  136.5744  153.2845 H   0  0  0  0  0  0  0  0  0  0  0  0
  1  2  1  0  0  0  0
  1 22  1  0  0  0  0
  1 23  1  0  0  0  0
  1 24  1  0  0  0  0
  2 21  1  0  0  0  0
  2  3  1  0  0  0  0
  2  4  1  0  0  0  0
  3 25  1  0  0  0  0
  3 26  1  0  0  0  0
  3 27  1  0  0  0  0
  4  5  1  0  0  0  0
  4 28  1  0  0  0  0
  4 29  1  0  0  0  0
  5  6  1  0  0  0  0
  5 17  1  0  0  0  0
  5 30  1  0  0  0  0
  6  7  1  0  0  0  0
  6 31  1  0  0  0  0
  7  8  2  0  0  0  0
  7  9  1  0  0  0  0
  9 10  1  0  0  0  0
  9 32  1  0  0  0  0
 10 16  1  0  0  0  0
 10 11  2  0  0  0  0
 11 12  1  0  0  0  0
 11 33  1  0  0  0  0
 12 13  2  0  0  0  0
 12 34  1  0  0  0  0
 13 14  1  0  0  0  0
 13 15  1  0  0  0  0
 15 16  2  0  0  0  0
 15 35  1  0  0  0  0
 17 18  1  0  0  0  0
 17 36  1  0  0  0  0
 17 37  1  0  0  0  0
 18 19  1  0  0  0  0
 18 20  1  0  0  0  0
 18 21  1  0  0  0  0
 19 38  1  0  0  0  0
 19 39  1  0  0  0  0
 19 40  1  0  0  0  0
 20 41  1  0  0  0  0
 20 42  1  0  0  0  0
 20 43  1  0  0  0  0
 21 44  1  0  0  0  0
 21 45  1  0  0  0  0
M  CHG  1  21   1
M  END
> <s_m_source_file>
AV-unprocessed.smi

> <i_m_source_file_index>
2765

> <i_lp_mmshare_version>
43012

> <i_f3d_flags>
0

> <s_epik_input>
W0NIM11DMShbQ0gzXSlbQ0gyXVtDSF0oW0NIMl1DKFtDSDNdKShbQ0gzXSlbTkhdMSlbTkhdQyg9TylbTkhdYzJbY0hdW2NIXWMoRilbY0hdbjI=

> <s_epik_cmdline>
J2VwaWtfcHl0aG9uJywgJy1waCcsICc3LjAnLCAnLXRuJywgJzgnLCAnLW1hJywgJzIwMCcsICctbWV0YWxfYmluZGluZycsICctaW1hZScsICc8aW5maWxlLm1hZT4nLCAnLW9tYWUnLCAnPG91dGZpbGUubWFlPic=

> <r_lp_tautomer_probability>
1

> <r_epik_Ionization_Penalty>
0.000124854

> <r_epik_Ionization_Penalty_Charging>
9.44458e-05

> <r_epik_Ionization_Penalty_Neutral>
3.0408e-05

> <r_epik_State_Penalty>
-0

> <r_epik_Charging_Adjusted_Penalty>
9.44458e-05

> <i_epik_Tot_Q>
1

> <i_epik_Tot_abs_Q>
1

> <r_epik_Metal_State_Penalty>
-0

> <b_epik_Metal_Only>
0

> <s_lp_Force_Field>
OPLS_2005

> <r_lp_Energy>
29.8768

> <b_lp_Chiralities_Consistent>
1

> <s_lp_Variant>
AV-unprocessed.smi:2765-1

> <Gold.Version>
5.8.1

> <Gold.Id.Protein>
6NUR|6NUR_protein|mol2

> <Gold.PLP.Fitness>
46.7675

> <Gold.PLP.PLP>
-36.9513

> <Gold.PLP.part.hbond>
-2.0000

> <Gold.PLP.part.metal>
0.0000

> <Gold.PLP.part.buried>
-2.4258

> <Gold.PLP.part.nonpolar>
-34.0122

> <Gold.PLP.part.repulsive>
0.4156

> <Gold.PLP.ligand.clash>
0.0000

> <Gold.PLP.ligand.torsion>
0.5035

> <Gold.PLP.Chemscore.Hbond>
2.5920

> <Gold.PLP.Chemscore.CHOScore>
1.0095

> <Gold.PLP.Chemscore.Metal>
0.0000

> <Gold.Chemscore.Hbonds>
donor molecule, donor type, donor heavy atom, donor atom, acceptor molecule, acceptor atom, score
      L1  H    21    45       P1  7948  1.79
      L1  C    15    35       P1  8029  0.72

> <Gold.PLP.Chemscore.Internal.Correction>
0.0186

> <Gold.Rescore>
     Score         DG    S(hbond)    S(metal)    S(lipo)     H(rot)  DE(clash)    DE(int)     intcor
     15.73     -18.90       1.61        0.00      90.72       1.00       0.52       2.66       ----

> <Gold.Chemscore.Fitness>
15.7250

> <Gold.Chemscore.DG>
-18.9000

> <Gold.Chemscore.ZeroCoef>
-5.4800

> <Gold.Chemscore.Hbond>
1.6064

> <Gold.Chemscore.Metal>
0.0000

> <Gold.Chemscore.Lipo>
90.7243

> <Gold.Chemscore.Internal_Hbond>
0.0000

> <Gold.Chemscore.DEClash>
0.5195

> <Gold.Chemscore.DEInternal>
2.6555

> <Gold.Chemscore.Rot>
1.0000

> <Gold.Chemscore.Internal.Correction>
   9.000000E+99

> <Gold.Chemscore.Hbonds>
donor molecule, donor type, donor heavy atom, donor atom, acceptor molecule, acceptor atom, score
      L1  H    21    45       P1  7948  0.87

> <Gold.Chemscore.Hbond.Weighted>
-5.3653

> <Gold.Chemscore.Metal.Weighted>
-0.0000

> <Gold.Chemscore.Lipo.Weighted>
-10.6147

> <Gold.Chemscore.Internal_Hbond.Weighted>
0.0000

> <Gold.Chemscore.DEClash.Weighted>
0.5195

> <Gold.Chemscore.DEInternal.Weighted>
2.6555

> <Gold.Chemscore.Rot.Weighted>
2.5600

> <Gold.Chemscore.Internal.Correction.Weighted>
   9.000000E+99

> <Gold.Protein.RotatedTorsions>
[ 6907 6896 6895 6894 ] final  151.12 input  -60.11 | X-H torsion
[ 7974 7965 7964 7962 ] final   -1.55 input  175.53 | X-H torsion
[ 8008 7997 7996 7995 ] final -159.14 input   59.86 | X-H torsion
[ 10167 10162 10161 10158 ] final   -1.04 input  -65.29 | X-H torsion
[ 10718 10713 10712 10709 ] final   21.44 input   66.30 | X-H torsion
[ 10763 10752 10751 10750 ] final -106.46 input  -60.55 | X-H torsion
[ 11005 11000 10999 10996 ] final   75.61 input  -57.11 | X-H torsion

> <Gold.Protein.ActiveResidues>
 VAL166  LYS551  ARG553  GLY616  TRP617  ASP618  TYR619  PRO620  LYS621  CYS622 
 ASP623  PHE694  ASN695  SER759  ASP760  ASP761  ALA762  ILE779  LEU786  VAL792 
 PHE793  MET794  SER795  GLU796  ALA797  LYS798  CYS799  TRP800  GLU811  SER814 

> <Gold.Protein.RotatedAtoms>
  152.1050  133.4270  159.4604 H   0  0  0  0  0  0  0  0  0  0  0  0  # atno 6907 bound_to 6896
  150.6865  134.2715  159.4599 H   0  0  0  0  0  0  0  0  0  0  0  0  # atno 6908 bound_to 6896
  152.0579  134.9612  160.0625 H   0  0  0  0  0  0  0  0  0  0  0  0  # atno 6909 bound_to 6896
  146.2415  140.1437  142.8335 H   0  0  0  0  0  0  0  0  0  0  0  0  # atno 7974 bound_to 7965
  155.7582  140.0835  157.2168 H   0  0  0  0  0  0  0  0  0  0  0  0  # atno 8008 bound_to 7997
  154.4006  140.1548  156.2858 H   0  0  0  0  0  0  0  0  0  0  0  0  # atno 8009 bound_to 7997
  155.8865  140.3417  155.5928 H   0  0  0  0  0  0  0  0  0  0  0  0  # atno 8010 bound_to 7997
  140.6793  143.6822  150.8096 H   0  0  0  0  0  0  0  0  0  0  0  0  # atno 10167 bound_to 10162
  157.1384  130.6622  149.5973 H   0  0  0  0  0  0  0  0  0  0  0  0  # atno 10718 bound_to 10713
  154.8014  135.4711  154.0284 H   0  0  0  0  0  0  0  0  0  0  0  0  # atno 10763 bound_to 10752
  153.1787  135.6837  153.8515 H   0  0  0  0  0  0  0  0  0  0  0  0  # atno 10764 bound_to 10752
  153.8072  135.3222  155.3374 H   0  0  0  0  0  0  0  0  0  0  0  0  # atno 10765 bound_to 10752
  139.9335  134.7532  156.1293 H   0  0  0  0  0  0  0  0  0  0  0  0  # atno 11005 bound_to 11000
  145.0225  140.8805  143.5158 LP  0  0  0  0  0  0  0  0  0  0  0  0  # atno 17320 bound_to 7965
  145.1488  139.2527  143.5452 LP  0  0  0  0  0  0  0  0  0  0  0  0  # atno 17321 bound_to 7965
  140.0520  143.5240  152.2669 LP  0  0  0  0  0  0  0  0  0  0  0  0  # atno 17342 bound_to 10162
  139.6105  144.7607  151.2962 LP  0  0  0  0  0  0  0  0  0  0  0  0  # atno 17343 bound_to 10162
  155.9793  130.4786  150.6709 LP  0  0  0  0  0  0  0  0  0  0  0  0  # atno 17370 bound_to 10713
  157.4329  131.0851  151.1021 LP  0  0  0  0  0  0  0  0  0  0  0  0  # atno 17371 bound_to 10713
  141.0937  133.6704  156.2598 LP  0  0  0  0  0  0  0  0  0  0  0  0  # atno 17394 bound_to 11000
  140.6137  134.5433  157.5537 LP  0  0  0  0  0  0  0  0  0  0  0  0  # atno 17395 bound_to 11000

$$$$
