AV-unprocessed.smi:834|AV-procd|sdf|3884|dock2
  -GOLD-   22720 1343D 1   1.00000     0.00000
 Structure written by MMmdl.
 39 40  0  0  0  0  0  0  0  0  1 V2000
  146.9242  133.7005  162.1596 C   0  0  0  0  0  0  0  0  0  0  0  0
  147.3264  134.9921  161.5335 C   0  0  0  0  0  0  0  0  0  0  0  0
  147.2327  136.1669  162.1685 N   0  0  0  0  0  0  0  0  0  0  0  0
  147.6640  137.2261  161.3822 N   0  0  0  0  0  0  0  0  0  0  0  0
  148.0705  136.8171  160.1725 C   0  0  0  0  0  0  0  0  0  0  0  0
  148.5567  137.6921  159.1654 N   0  0  0  0  0  0  0  0  0  0  0  0
  149.7678  137.6996  158.5811 C   0  0  0  0  0  0  0  0  0  0  0  0
  150.6787  136.9059  158.8184 O   0  0  0  0  0  0  0  0  0  0  0  0
  149.8684  138.6941  157.6875 N   0  0  0  0  0  0  0  0  0  0  0  0
  151.0520  138.9823  156.8852 C   0  0  0  0  0  0  0  0  0  0  0  0
  152.3399  138.9073  157.7287 C   0  0  0  0  0  0  0  0  0  0  0  0
  152.5345  140.1281  158.6333 C   0  0  0  0  0  0  0  0  0  0  0  0
  153.3947  140.1261  159.5145 O   0  0  0  0  0  0  0  0  0  0  0  0
  151.7251  141.1727  158.3998 N   0  0  0  0  0  0  0  0  0  0  0  0
  151.7302  142.4258  159.1506 C   0  0  0  0  0  0  0  0  0  0  0  0
  150.7288  143.4296  158.5474 C   0  0  0  0  0  0  0  0  0  0  0  0
  151.4812  144.7550  158.4182 C   0  0  0  0  0  0  0  0  0  0  0  0
  152.9351  144.3445  158.2086 C   0  0  0  0  0  0  0  0  0  0  0  0
  153.1093  143.1142  159.1000 C   0  0  0  0  0  0  0  0  0  0  0  0
  147.9586  135.0875  159.8945 S   0  0  0  0  0  0  0  0  0  0  0  0
  146.7701  133.8238  163.2320 H   0  0  0  0  0  0  0  0  0  0  0  0
  147.7008  132.9517  162.0031 H   0  0  0  0  0  0  0  0  0  0  0  0
  145.9970  133.3433  161.7115 H   0  0  0  0  0  0  0  0  0  0  0  0
  147.9079  138.4023  158.8601 H   0  0  0  0  0  0  0  0  0  0  0  0
  149.0713  139.2994  157.5549 H   0  0  0  0  0  0  0  0  0  0  0  0
  151.0895  138.2514  156.0765 H   0  0  0  0  0  0  0  0  0  0  0  0
  150.9527  139.9620  156.4137 H   0  0  0  0  0  0  0  0  0  0  0  0
  152.3303  138.0131  158.3532 H   0  0  0  0  0  0  0  0  0  0  0  0
  153.2028  138.8180  157.0666 H   0  0  0  0  0  0  0  0  0  0  0  0
  151.0509  141.0925  157.6525 H   0  0  0  0  0  0  0  0  0  0  0  0
  151.4613  142.2284  160.1901 H   0  0  0  0  0  0  0  0  0  0  0  0
  150.4099  143.1067  157.5547 H   0  0  0  0  0  0  0  0  0  0  0  0
  149.8296  143.5303  159.1561 H   0  0  0  0  0  0  0  0  0  0  0  0
  151.0991  145.3776  157.6087 H   0  0  0  0  0  0  0  0  0  0  0  0
  151.3901  145.3214  159.3460 H   0  0  0  0  0  0  0  0  0  0  0  0
  153.0923  144.0684  157.1649 H   0  0  0  0  0  0  0  0  0  0  0  0
  153.6369  145.1429  158.4521 H   0  0  0  0  0  0  0  0  0  0  0  0
  153.3846  143.4349  160.1058 H   0  0  0  0  0  0  0  0  0  0  0  0
  153.9093  142.4635  158.7438 H   0  0  0  0  0  0  0  0  0  0  0  0
  1  2  1  0  0  0  0
  1 21  1  0  0  0  0
  1 22  1  0  0  0  0
  1 23  1  0  0  0  0
  2 20  1  0  0  0  0
  2  3  2  0  0  0  0
  3  4  1  0  0  0  0
  4  5  2  0  0  0  0
  5  6  1  0  0  0  0
  5 20  1  0  0  0  0
  6  7  1  0  0  0  0
  6 24  1  0  0  0  0
  7  8  2  0  0  0  0
  7  9  1  0  0  0  0
  9 10  1  0  0  0  0
  9 25  1  0  0  0  0
 10 11  1  0  0  0  0
 10 26  1  0  0  0  0
 10 27  1  0  0  0  0
 11 12  1  0  0  0  0
 11 28  1  0  0  0  0
 11 29  1  0  0  0  0
 12 13  2  0  0  0  0
 12 14  1  0  0  0  0
 14 15  1  0  0  0  0
 14 30  1  0  0  0  0
 15 19  1  0  0  0  0
 15 16  1  0  0  0  0
 15 31  1  0  0  0  0
 16 17  1  0  0  0  0
 16 32  1  0  0  0  0
 16 33  1  0  0  0  0
 17 18  1  0  0  0  0
 17 34  1  0  0  0  0
 17 35  1  0  0  0  0
 18 19  1  0  0  0  0
 18 36  1  0  0  0  0
 18 37  1  0  0  0  0
 19 38  1  0  0  0  0
 19 39  1  0  0  0  0
M  END
> <s_m_source_file>
AV-unprocessed.smi

> <i_m_source_file_index>
834

> <i_lp_mmshare_version>
43012

> <i_f3d_flags>
0

> <s_epik_input>
W0NIM11jMW5uYyhzMSlbTkhdQyg9TylbTkhdW0NIMl1bQ0gyXUMoPU8pW05IXVtDSF0yW0NIMl1bQ0gyXVtDSDJdW0NIMl0y

> <s_epik_cmdline>
J2VwaWtfcHl0aG9uJywgJy1waCcsICc3LjAnLCAnLXRuJywgJzgnLCAnLW1hJywgJzIwMCcsICctbWV0YWxfYmluZGluZycsICctaW1hZScsICc8aW5maWxlLm1hZT4nLCAnLW9tYWUnLCAnPG91dGZpbGUubWFlPic=

> <r_lp_tautomer_probability>
1

> <r_epik_Ionization_Penalty>
0.00240541

> <r_epik_Ionization_Penalty_Charging>
0

> <r_epik_Ionization_Penalty_Neutral>
0.00240541

> <r_epik_State_Penalty>
-0

> <r_epik_Charging_Adjusted_Penalty>
0

> <i_epik_Tot_Q>
0

> <i_epik_Tot_abs_Q>
0

> <r_epik_Metal_State_Penalty>
0.349697

> <b_epik_Metal_Only>
0

> <s_lp_Force_Field>
OPLS_2005

> <r_lp_Energy>
16.3225

> <b_lp_Chiralities_Consistent>
1

> <s_lp_Variant>
AV-unprocessed.smi:834-1

> <Gold.Version>
5.8.1

> <Gold.Id.Protein>
6NUR|6NUR_protein|mol2

> <Gold.PLP.Fitness>
43.3257

> <Gold.PLP.PLP>
-36.6286

> <Gold.PLP.part.hbond>
-3.0000

> <Gold.PLP.part.metal>
0.0000

> <Gold.PLP.part.buried>
-5.7402

> <Gold.PLP.part.nonpolar>
-28.4010

> <Gold.PLP.part.repulsive>
0.3969

> <Gold.PLP.ligand.clash>
0.1168

> <Gold.PLP.ligand.torsion>
0.8674

> <Gold.PLP.Chemscore.Hbond>
2.8400

> <Gold.PLP.Chemscore.CHOScore>
0.0000

> <Gold.PLP.Chemscore.Metal>
0.0000

> <Gold.Chemscore.Hbonds>
donor molecule, donor type, donor heavy atom, donor atom, acceptor molecule, acceptor atom, score
      P1  H  6896  6907       L1     8  0.73
      P1  H  6931  6943       L1     4  0.96
      P1  H  6934  6947       L1     4  0.78

> <Gold.PLP.Chemscore.Internal.Correction>
0.0286

> <Gold.Rescore>
     Score         DG    S(hbond)    S(metal)    S(lipo)     H(rot)  DE(clash)    DE(int)     intcor
     16.57     -18.79       2.41        0.00      88.36       1.99       0.03       2.19       ----

> <Gold.Chemscore.Fitness>
16.5668

> <Gold.Chemscore.DG>
-18.7861

> <Gold.Chemscore.ZeroCoef>
-5.4800

> <Gold.Chemscore.Hbond>
2.4103

> <Gold.Chemscore.Metal>
0.0000

> <Gold.Chemscore.Lipo>
88.3625

> <Gold.Chemscore.Internal_Hbond>
0.0000

> <Gold.Chemscore.DEClash>
0.0276

> <Gold.Chemscore.DEInternal>
2.1917

> <Gold.Chemscore.Rot>
1.9855

> <Gold.Chemscore.Internal.Correction>
   9.000000E+99

> <Gold.Chemscore.Hbonds>
donor molecule, donor type, donor heavy atom, donor atom, acceptor molecule, acceptor atom, score
      P1  H  6896  6907       L1     8  0.71
      P1  H  6931  6943       L1     4  0.31
      P1  H  6934  6947       L1     4  0.17

> <Gold.Chemscore.Hbond.Weighted>
-8.0505

> <Gold.Chemscore.Metal.Weighted>
-0.0000

> <Gold.Chemscore.Lipo.Weighted>
-10.3384

> <Gold.Chemscore.Internal_Hbond.Weighted>
0.0000

> <Gold.Chemscore.DEClash.Weighted>
0.0276

> <Gold.Chemscore.DEInternal.Weighted>
2.1917

> <Gold.Chemscore.Rot.Weighted>
5.0828

> <Gold.Chemscore.Internal.Correction.Weighted>
   9.000000E+99

> <Gold.Protein.RotatedTorsions>
[ 6907 6896 6895 6894 ] final  -24.79 input  -60.11 | X-H torsion
[ 7974 7965 7964 7962 ] final  129.98 input  175.53 | X-H torsion
[ 8008 7997 7996 7995 ] final  158.83 input   59.86 | X-H torsion
[ 10167 10162 10161 10158 ] final   99.90 input  -65.29 | X-H torsion
[ 10718 10713 10712 10709 ] final -146.23 input   66.30 | X-H torsion
[ 10763 10752 10751 10750 ] final  -31.10 input  -60.55 | X-H torsion
[ 11005 11000 10999 10996 ] final  -73.48 input  -57.11 | X-H torsion

> <Gold.Protein.ActiveResidues>
 VAL166  LYS551  ARG553  GLY616  TRP617  ASP618  TYR619  PRO620  LYS621  CYS622 
 ASP623  PHE694  ASN695  SER759  ASP760  ASP761  ALA762  ILE779  LEU786  VAL792 
 PHE793  MET794  SER795  GLU796  ALA797  LYS798  CYS799  TRP800  GLU811  SER814 

> <Gold.Protein.RotatedAtoms>
  151.1845  135.0375  159.8806 H   0  0  0  0  0  0  0  0  0  0  0  0  # atno 6907 bound_to 6896
  152.5443  134.1025  159.8334 H   0  0  0  0  0  0  0  0  0  0  0  0  # atno 6908 bound_to 6896
  151.1146  133.5101  159.2636 H   0  0  0  0  0  0  0  0  0  0  0  0  # atno 6909 bound_to 6896
  145.0228  139.4116  143.5189 H   0  0  0  0  0  0  0  0  0  0  0  0  # atno 7974 bound_to 7965
  156.2278  140.1848  156.7319 H   0  0  0  0  0  0  0  0  0  0  0  0  # atno 8008 bound_to 7997
  154.5971  140.0642  156.9345 H   0  0  0  0  0  0  0  0  0  0  0  0  # atno 8009 bound_to 7997
  155.2238  140.3309  155.4314 H   0  0  0  0  0  0  0  0  0  0  0  0  # atno 8010 bound_to 7997
  139.7576  144.6965  151.0340 H   0  0  0  0  0  0  0  0  0  0  0  0  # atno 10167 bound_to 10162
  156.3923  130.7892  151.2095 H   0  0  0  0  0  0  0  0  0  0  0  0  # atno 10718 bound_to 10713
  153.7918  135.6897  153.4870 H   0  0  0  0  0  0  0  0  0  0  0  0  # atno 10763 bound_to 10752
  153.1745  135.4530  154.9945 H   0  0  0  0  0  0  0  0  0  0  0  0  # atno 10764 bound_to 10752
  154.8041  135.3350  154.7413 H   0  0  0  0  0  0  0  0  0  0  0  0  # atno 10765 bound_to 10752
  141.1623  133.6880  156.7218 H   0  0  0  0  0  0  0  0  0  0  0  0  # atno 11005 bound_to 11000
  146.3488  139.9735  142.8703 LP  0  0  0  0  0  0  0  0  0  0  0  0  # atno 17320 bound_to 7965
  145.1873  140.9795  143.4231 LP  0  0  0  0  0  0  0  0  0  0  0  0  # atno 17321 bound_to 7965
  140.7804  143.4735  151.0114 LP  0  0  0  0  0  0  0  0  0  0  0  0  # atno 17342 bound_to 10162
  139.8422  143.7549  152.3180 LP  0  0  0  0  0  0  0  0  0  0  0  0  # atno 17343 bound_to 10162
  157.7499  131.0312  150.4170 LP  0  0  0  0  0  0  0  0  0  0  0  0  # atno 17370 bound_to 10713
  156.4433  130.3996  149.6683 LP  0  0  0  0  0  0  0  0  0  0  0  0  # atno 17371 bound_to 10713
  140.2810  134.8317  157.3933 LP  0  0  0  0  0  0  0  0  0  0  0  0  # atno 17394 bound_to 11000
  140.1433  134.4943  155.8015 LP  0  0  0  0  0  0  0  0  0  0  0  0  # atno 17395 bound_to 11000

$$$$
