AV-unprocessed.smi:2490|AV-procd|sdf|9807|dock3
  -GOLD-   2272013443D 1   1.00000     0.00000
 Structure written by MMmdl.
 33 34  0  0  0  0  0  0  0  0  1 V2000
  147.8481  136.5334  158.5445 C   0  0  0  0  0  0  0  0  0  0  0  0
  148.8501  137.4607  158.0426 N   0  0  0  0  0  0  0  0  0  0  0  0
  150.1734  137.3006  158.1923 C   0  0  0  0  0  0  0  0  0  0  0  0
  150.6680  136.3335  158.7734 O   0  0  0  0  0  0  0  0  0  0  0  0
  151.0657  138.3866  157.5750 C   0  0  2  0  0  0  0  0  0  0  0  0
  150.8028  139.7866  158.1748 C   0  0  0  0  0  0  0  0  0  0  0  0
  151.6054  140.7933  157.4922 N   0  0  0  0  0  0  0  0  0  0  0  0
  151.6863  142.0357  158.0919 C   0  0  0  0  0  0  0  0  0  0  0  0
  151.3653  143.1029  157.3503 N   0  0  0  0  0  0  0  0  0  0  0  0
  151.4491  144.3104  157.9491 C   0  0  0  0  0  0  0  0  0  0  0  0
  151.8562  144.4438  159.2925 C   0  0  0  0  0  0  0  0  0  0  0  0
  151.9495  145.7979  159.9623 C   0  0  0  0  0  0  0  0  0  0  0  0
  152.1692  143.2486  159.9732 C   0  0  0  0  0  0  0  0  0  0  0  0
  152.0835  142.0447  159.3674 N   0  0  0  0  0  0  0  0  0  0  0  0
  151.4146  140.7747  156.0488 C   0  0  0  0  0  0  0  0  0  0  0  0
  151.6698  139.3617  155.5002 C   0  0  0  0  0  0  0  0  0  0  0  0
  150.8238  138.4311  156.1679 O   0  0  0  0  0  0  0  0  0  0  0  0
  146.8512  136.8850  158.2791 H   0  0  0  0  0  0  0  0  0  0  0  0
  147.9036  136.4531  159.6309 H   0  0  0  0  0  0  0  0  0  0  0  0
  147.9857  135.5409  158.1134 H   0  0  0  0  0  0  0  0  0  0  0  0
  148.5207  138.2804  157.5532 H   0  0  0  0  0  0  0  0  0  0  0  0
  152.1038  138.0992  157.7516 H   0  0  0  0  0  0  0  0  0  0  0  0
  149.7471  140.0475  158.0846 H   0  0  0  0  0  0  0  0  0  0  0  0
  151.0467  139.7932  159.2383 H   0  0  0  0  0  0  0  0  0  0  0  0
  151.1905  145.1727  157.3523 H   0  0  0  0  0  0  0  0  0  0  0  0
  152.3151  145.7066  160.9856 H   0  0  0  0  0  0  0  0  0  0  0  0
  150.9689  146.2736  159.9902 H   0  0  0  0  0  0  0  0  0  0  0  0
  152.6320  146.4458  159.4119 H   0  0  0  0  0  0  0  0  0  0  0  0
  152.4893  143.2548  161.0049 H   0  0  0  0  0  0  0  0  0  0  0  0
  150.3977  141.0918  155.8137 H   0  0  0  0  0  0  0  0  0  0  0  0
  152.0920  141.4877  155.5770 H   0  0  0  0  0  0  0  0  0  0  0  0
  151.4592  139.3294  154.4313 H   0  0  0  0  0  0  0  0  0  0  0  0
  152.7153  139.0769  155.6289 H   0  0  0  0  0  0  0  0  0  0  0  0
  1  2  1  0  0  0  0
  1 18  1  0  0  0  0
  1 19  1  0  0  0  0
  1 20  1  0  0  0  0
  2  3  1  0  0  0  0
  2 21  1  0  0  0  0
  3  4  2  0  0  0  0
  3  5  1  0  0  0  0
  5 17  1  0  0  0  0
  5  6  1  0  0  0  0
  5 22  1  0  0  0  0
  6  7  1  0  0  0  0
  6 23  1  0  0  0  0
  6 24  1  0  0  0  0
  7  8  1  0  0  0  0
  7 15  1  0  0  0  0
  8 14  1  0  0  0  0
  8  9  2  0  0  0  0
  9 10  1  0  0  0  0
 10 11  2  0  0  0  0
 10 25  1  0  0  0  0
 11 12  1  0  0  0  0
 11 13  1  0  0  0  0
 12 26  1  0  0  0  0
 12 27  1  0  0  0  0
 12 28  1  0  0  0  0
 13 14  2  0  0  0  0
 13 29  1  0  0  0  0
 15 16  1  0  0  0  0
 15 30  1  0  0  0  0
 15 31  1  0  0  0  0
 16 17  1  0  0  0  0
 16 32  1  0  0  0  0
 16 33  1  0  0  0  0
M  END
> <s_m_source_file>
AV-unprocessed.smi

> <i_m_source_file_index>
2490

> <i_lp_mmshare_version>
43012

> <i_f3d_flags>
0

> <s_epik_input>
W0NIM11bTkhdQyg9TylbQ0BASF0xW0NIMl1OKFtDSDJdW0NIMl1PMSljMm5bY0hdYyhbQ0gzXSlbY0hdbjI=

> <s_epik_cmdline>
J2VwaWtfcHl0aG9uJywgJy1waCcsICc3LjAnLCAnLXRuJywgJzgnLCAnLW1hJywgJzIwMCcsICctbWV0YWxfYmluZGluZycsICctaW1hZScsICc8aW5maWxlLm1hZT4nLCAnLW9tYWUnLCAnPG91dGZpbGUubWFlPic=

> <r_lp_tautomer_probability>
1

> <r_epik_Ionization_Penalty>
8.72552e-06

> <r_epik_Ionization_Penalty_Charging>
0

> <r_epik_Ionization_Penalty_Neutral>
8.72552e-06

> <r_epik_State_Penalty>
-0

> <r_epik_Charging_Adjusted_Penalty>
0

> <i_epik_Tot_Q>
0

> <i_epik_Tot_abs_Q>
0

> <r_epik_Metal_State_Penalty>
-0

> <b_epik_Metal_Only>
0

> <s_lp_Force_Field>
OPLS_2005

> <r_lp_Energy>
12.5382

> <b_lp_Chiralities_Consistent>
1

> <s_lp_Variant>
AV-unprocessed.smi:2490-1

> <Gold.Version>
5.8.1

> <Gold.Id.Protein>
6NUR|6NUR_protein|mol2

> <Gold.PLP.Fitness>
35.0999

> <Gold.PLP.PLP>
-31.0370

> <Gold.PLP.part.hbond>
-0.8329

> <Gold.PLP.part.metal>
0.0000

> <Gold.PLP.part.buried>
-4.7002

> <Gold.PLP.part.nonpolar>
-26.0838

> <Gold.PLP.part.repulsive>
0.2552

> <Gold.PLP.ligand.clash>
0.0000

> <Gold.PLP.ligand.torsion>
0.1495

> <Gold.PLP.Chemscore.Hbond>
0.8960

> <Gold.PLP.Chemscore.CHOScore>
0.4625

> <Gold.PLP.Chemscore.Metal>
0.0000

> <Gold.Chemscore.Hbonds>
donor molecule, donor type, donor heavy atom, donor atom, acceptor molecule, acceptor atom, score
      P1  H  6896  6909       L1     4  0.93
      L1  C    10    25       P1  8028  0.15

> <Gold.PLP.Chemscore.Internal.Correction>
0.2866

> <Gold.Rescore>
     Score         DG    S(hbond)    S(metal)    S(lipo)     H(rot)  DE(clash)    DE(int)     intcor
     13.68     -13.91       0.97        0.00      73.00       1.31       0.07       0.16       ----

> <Gold.Chemscore.Fitness>
13.6766

> <Gold.Chemscore.DG>
-13.9072

> <Gold.Chemscore.ZeroCoef>
-5.4800

> <Gold.Chemscore.Hbond>
0.9693

> <Gold.Chemscore.Metal>
0.0000

> <Gold.Chemscore.Lipo>
72.9977

> <Gold.Chemscore.Internal_Hbond>
0.0000

> <Gold.Chemscore.DEClash>
0.0716

> <Gold.Chemscore.DEInternal>
0.1590

> <Gold.Chemscore.Rot>
1.3089

> <Gold.Chemscore.Internal.Correction>
   9.000000E+99

> <Gold.Chemscore.Hbonds>
donor molecule, donor type, donor heavy atom, donor atom, acceptor molecule, acceptor atom, score
      P1  H  6896  6909       L1     4  0.91

> <Gold.Chemscore.Hbond.Weighted>
-3.2373

> <Gold.Chemscore.Metal.Weighted>
-0.0000

> <Gold.Chemscore.Lipo.Weighted>
-8.5407

> <Gold.Chemscore.Internal_Hbond.Weighted>
0.0000

> <Gold.Chemscore.DEClash.Weighted>
0.0716

> <Gold.Chemscore.DEInternal.Weighted>
0.1590

> <Gold.Chemscore.Rot.Weighted>
3.3509

> <Gold.Chemscore.Internal.Correction.Weighted>
   9.000000E+99

> <Gold.Protein.RotatedTorsions>
[ 6907 6896 6895 6894 ] final   93.66 input  -60.11 | X-H torsion
[ 7974 7965 7964 7962 ] final   79.74 input  175.53 | X-H torsion
[ 8008 7997 7996 7995 ] final -127.09 input   59.86 | X-H torsion
[ 10167 10162 10161 10158 ] final   71.37 input  -65.29 | X-H torsion
[ 10718 10713 10712 10709 ] final  -58.20 input   66.30 | X-H torsion
[ 10763 10752 10751 10750 ] final   44.37 input  -60.55 | X-H torsion
[ 11005 11000 10999 10996 ] final -168.77 input  -57.11 | X-H torsion

> <Gold.Protein.ActiveResidues>
 VAL166  LYS551  ARG553  GLY616  TRP617  ASP618  TYR619  PRO620  LYS621  CYS622 
 ASP623  PHE694  ASN695  SER759  ASP760  ASP761  ALA762  ILE779  LEU786  VAL792 
 PHE793  MET794  SER795  GLU796  ALA797  LYS798  CYS799  TRP800  GLU811  SER814 

> <Gold.Protein.RotatedAtoms>
  152.5452  134.1314  159.8440 H   0  0  0  0  0  0  0  0  0  0  0  0  # atno 6907 bound_to 6896
  151.1359  133.4997  159.2605 H   0  0  0  0  0  0  0  0  0  0  0  0  # atno 6908 bound_to 6896
  151.1624  135.0290  159.8771 H   0  0  0  0  0  0  0  0  0  0  0  0  # atno 6909 bound_to 6896
  145.6602  139.2469  143.1927 H   0  0  0  0  0  0  0  0  0  0  0  0  # atno 7974 bound_to 7965
  155.2404  140.0428  157.2974 H   0  0  0  0  0  0  0  0  0  0  0  0  # atno 8008 bound_to 7997
  154.5832  140.2406  155.7994 H   0  0  0  0  0  0  0  0  0  0  0  0  # atno 8009 bound_to 7997
  156.2208  140.2970  155.9955 H   0  0  0  0  0  0  0  0  0  0  0  0  # atno 8010 bound_to 7997
  140.0468  144.5344  150.7392 H   0  0  0  0  0  0  0  0  0  0  0  0  # atno 10167 bound_to 10162
  156.1153  130.4171  150.0544 H   0  0  0  0  0  0  0  0  0  0  0  0  # atno 10718 bound_to 10713
  152.9842  135.6072  154.3263 H   0  0  0  0  0  0  0  0  0  0  0  0  # atno 10763 bound_to 10752
  154.2970  135.2773  155.2630 H   0  0  0  0  0  0  0  0  0  0  0  0  # atno 10764 bound_to 10752
  154.4900  135.5894  153.6508 H   0  0  0  0  0  0  0  0  0  0  0  0  # atno 10765 bound_to 10752
  140.5382  134.5549  157.5093 H   0  0  0  0  0  0  0  0  0  0  0  0  # atno 11005 bound_to 11000
  146.1131  140.7403  142.9493 LP  0  0  0  0  0  0  0  0  0  0  0  0  # atno 17320 bound_to 7965
  144.7091  140.3971  143.7094 LP  0  0  0  0  0  0  0  0  0  0  0  0  # atno 17321 bound_to 7965
  140.7235  143.2612  151.4200 LP  0  0  0  0  0  0  0  0  0  0  0  0  # atno 17342 bound_to 10162
  139.5978  144.1360  152.2164 LP  0  0  0  0  0  0  0  0  0  0  0  0  # atno 17343 bound_to 10162
  156.8497  130.9454  151.3626 LP  0  0  0  0  0  0  0  0  0  0  0  0  # atno 17370 bound_to 10713
  157.6336  130.8749  149.9318 LP  0  0  0  0  0  0  0  0  0  0  0  0  # atno 17371 bound_to 10713
  139.9518  134.7604  156.0431 LP  0  0  0  0  0  0  0  0  0  0  0  0  # atno 17394 bound_to 11000
  141.1242  133.6604  156.3294 LP  0  0  0  0  0  0  0  0  0  0  0  0  # atno 17395 bound_to 11000

$$$$
