AV-unprocessed.smi:1983|AV-procd|sdf|8034|dock6
  -GOLD-   2272010233D 1   1.00000     0.00000
 Structure written by MMmdl.
 50 51  0  0  0  0  0  0  0  0  2 V2000
  145.8648  133.9765  151.6345 C   0  0  0  0  0  0  0  0  0  0  0  0
  145.2094  135.2644  152.1625 C   0  0  2  0  0  0  0  0  0  0  0  0
  143.9890  135.6852  151.3252 C   0  0  0  0  0  0  0  0  0  0  0  0
  144.3642  135.9070  149.9825 O   0  0  0  0  0  0  0  0  0  0  0  0
  146.1791  136.3564  152.1791 N   0  0  0  0  0  0  0  0  0  0  0  0
  145.9104  137.6253  152.5174 C   0  0  0  0  0  0  0  0  0  0  0  0
  144.8047  138.0253  152.8825 O   0  0  0  0  0  0  0  0  0  0  0  0
  146.9916  138.4104  152.4104 N   0  0  0  0  0  0  0  0  0  0  0  0
  147.0046  139.8419  152.6885 C   0  0  0  0  0  0  0  0  0  0  0  0
  147.9108  140.2180  153.8483 C   0  0  0  0  0  0  0  0  0  0  0  0
  148.7582  139.2590  154.4446 C   0  0  0  0  0  0  0  0  0  0  0  0
  149.5896  139.6399  155.5180 C   0  0  0  0  0  0  0  0  0  0  0  0
  149.5584  140.9772  155.9788 C   0  0  0  0  0  0  0  0  0  0  0  0
  150.3423  141.4520  157.0390 N   0  0  0  0  0  0  0  0  0  0  0  0
  151.1723  140.4140  157.6340 C   0  0  0  0  0  0  0  0  0  0  0  0
  151.8945  140.9610  158.8807 C   0  0  1  0  0  0  0  0  0  0  0  0
  152.8734  139.9419  159.4735 C   0  0  0  0  0  0  0  0  0  0  0  0
  152.6282  142.1301  158.5210 O   0  0  0  0  0  0  0  0  0  0  0  0
  151.7937  143.1711  158.0177 C   0  0  1  0  0  0  0  0  0  0  0  0
  152.6647  144.4022  157.7468 C   0  0  0  0  0  0  0  0  0  0  0  0
  151.0880  142.6687  156.7448 C   0  0  0  0  0  0  0  0  0  0  0  0
  148.7232  141.8592  155.3859 N   0  3  0  0  0  0  0  0  0  0  0  0
  147.9149  141.5352  154.3534 C   0  0  0  0  0  0  0  0  0  0  0  0
  145.1574  133.1467  151.6362 H   0  0  0  0  0  0  0  0  0  0  0  0
  146.7123  133.6808  152.2537 H   0  0  0  0  0  0  0  0  0  0  0  0
  146.2258  134.1032  150.6135 H   0  0  0  0  0  0  0  0  0  0  0  0
  144.8710  135.0915  153.1863 H   0  0  0  0  0  0  0  0  0  0  0  0
  143.2330  134.8989  151.3315 H   0  0  0  0  0  0  0  0  0  0  0  0
  143.5229  136.5837  151.7310 H   0  0  0  0  0  0  0  0  0  0  0  0
  144.5827  136.8204  149.8778 H   0  0  0  0  0  0  0  0  0  0  0  0
  147.1214  136.1290  151.8969 H   0  0  0  0  0  0  0  0  0  0  0  0
  147.8573  137.9950  152.0977 H   0  0  0  0  0  0  0  0  0  0  0  0
  147.3515  140.3608  151.7946 H   0  0  0  0  0  0  0  0  0  0  0  0
  145.9875  140.1930  152.8726 H   0  0  0  0  0  0  0  0  0  0  0  0
  148.7715  138.2409  154.0835 H   0  0  0  0  0  0  0  0  0  0  0  0
  150.2351  138.9078  155.9804 H   0  0  0  0  0  0  0  0  0  0  0  0
  150.5543  139.5567  157.9049 H   0  0  0  0  0  0  0  0  0  0  0  0
  151.9011  140.0678  156.8994 H   0  0  0  0  0  0  0  0  0  0  0  0
  151.1604  141.2228  159.6449 H   0  0  0  0  0  0  0  0  0  0  0  0
  152.3568  139.0312  159.7772 H   0  0  0  0  0  0  0  0  0  0  0  0
  153.3742  140.3480  160.3526 H   0  0  0  0  0  0  0  0  0  0  0  0
  153.6419  139.6663  158.7509 H   0  0  0  0  0  0  0  0  0  0  0  0
  151.0505  143.4317  158.7736 H   0  0  0  0  0  0  0  0  0  0  0  0
  152.0657  145.2309  157.3676 H   0  0  0  0  0  0  0  0  0  0  0  0
  153.4393  144.1842  157.0110 H   0  0  0  0  0  0  0  0  0  0  0  0
  153.1571  144.7393  158.6592 H   0  0  0  0  0  0  0  0  0  0  0  0
  151.8275  142.4754  155.9668 H   0  0  0  0  0  0  0  0  0  0  0  0
  150.4077  143.4322  156.3652 H   0  0  0  0  0  0  0  0  0  0  0  0
  147.2968  142.3339  153.9695 H   0  0  0  0  0  0  0  0  0  0  0  0
  148.7055  142.8190  155.7319 H   0  0  0  0  0  0  0  0  0  0  0  0
  1  2  1  0  0  0  0
  1 24  1  0  0  0  0
  1 25  1  0  0  0  0
  1 26  1  0  0  0  0
  2  3  1  0  0  0  0
  2  5  1  0  0  0  0
  2 27  1  0  0  0  0
  3  4  1  0  0  0  0
  3 28  1  0  0  0  0
  3 29  1  0  0  0  0
  4 30  1  0  0  0  0
  5  6  1  0  0  0  0
  5 31  1  0  0  0  0
  6  7  2  0  0  0  0
  6  8  1  0  0  0  0
  8  9  1  0  0  0  0
  8 32  1  0  0  0  0
  9 10  1  0  0  0  0
  9 33  1  0  0  0  0
  9 34  1  0  0  0  0
 10 23  1  0  0  0  0
 10 11  2  0  0  0  0
 11 12  1  0  0  0  0
 11 35  1  0  0  0  0
 12 13  2  0  0  0  0
 12 36  1  0  0  0  0
 13 14  1  0  0  0  0
 13 22  1  0  0  0  0
 14 21  1  0  0  0  0
 14 15  1  0  0  0  0
 15 16  1  0  0  0  0
 15 37  1  0  0  0  0
 15 38  1  0  0  0  0
 16 17  1  0  0  0  0
 16 18  1  0  0  0  0
 16 39  1  0  0  0  0
 17 40  1  0  0  0  0
 17 41  1  0  0  0  0
 17 42  1  0  0  0  0
 18 19  1  0  0  0  0
 19 20  1  0  0  0  0
 19 21  1  0  0  0  0
 19 43  1  0  0  0  0
 20 44  1  0  0  0  0
 20 45  1  0  0  0  0
 20 46  1  0  0  0  0
 21 47  1  0  0  0  0
 21 48  1  0  0  0  0
 22 23  2  0  0  0  0
 22 50  1  0  0  0  0
 23 49  1  0  0  0  0
M  CHG  1  22   1
M  END
> <s_m_source_file>
AV-unprocessed.smi

> <i_m_source_file_index>
1983

> <i_lp_mmshare_version>
43012

> <i_f3d_flags>
0

> <s_epik_input>
W09IXVtDSDJdW0NAQEhdKFtDSDNdKVtOSF1DKD1PKVtOSF1bQ0gyXWMxW2NIXVtjSF1jKG5bY0hdMSlOMltDSDJdW0NAQEhdKFtDSDNdKU9bQ0BASF0oW0NIM10pW0NIMl0y

> <s_epik_cmdline>
J2VwaWtfcHl0aG9uJywgJy1waCcsICc3LjAnLCAnLXRuJywgJzgnLCAnLW1hJywgJzIwMCcsICctbWV0YWxfYmluZGluZycsICctaW1hZScsICc8aW5maWxlLm1hZT4nLCAnLW9tYWUnLCAnPG91dGZpbGUubWFlPic=

> <r_lp_tautomer_probability>
0.999994

> <r_epik_Ionization_Penalty>
2.55677

> <r_epik_Ionization_Penalty_Charging>
2.55673

> <r_epik_Ionization_Penalty_Neutral>
3.71772e-05

> <r_epik_State_Penalty>
2.72571

> <r_epik_Charging_Adjusted_Penalty>
5.28244

> <i_epik_Tot_Q>
1

> <i_epik_Tot_abs_Q>
1

> <r_epik_Metal_State_Penalty>
2.73364

> <b_epik_Metal_Only>
0

> <s_lp_Force_Field>
OPLS_2005

> <r_lp_Energy>
19.4893

> <b_lp_Chiralities_Consistent>
1

> <s_lp_Variant>
AV-unprocessed.smi:1983-7

> <Gold.Version>
5.8.1

> <Gold.Id.Protein>
6NUR|6NUR_protein|mol2

> <Gold.PLP.Fitness>
53.8189

> <Gold.PLP.PLP>
-40.4803

> <Gold.PLP.part.hbond>
-5.5724

> <Gold.PLP.part.metal>
0.0000

> <Gold.PLP.part.buried>
-3.6351

> <Gold.PLP.part.nonpolar>
-34.5362

> <Gold.PLP.part.repulsive>
2.1867

> <Gold.PLP.ligand.clash>
0.0000

> <Gold.PLP.ligand.torsion>
0.1810

> <Gold.PLP.Chemscore.Hbond>
4.5110

> <Gold.PLP.Chemscore.CHOScore>
0.0000

> <Gold.PLP.Chemscore.Metal>
0.0000

> <Gold.Chemscore.Hbonds>
donor molecule, donor type, donor heavy atom, donor atom, acceptor molecule, acceptor atom, score
      L1  H     4    30       P1 10171  0.88
      L1  H     5    31       P1  7948  1.00
      L1  H     8    32       P1  7948  0.87
      L1  H    22    50       P1  8028  2.00

> <Gold.PLP.Chemscore.Internal.Correction>
0.1675

> <Gold.Rescore>
     Score         DG    S(hbond)    S(metal)    S(lipo)     H(rot)  DE(clash)    DE(int)     intcor
     19.85     -22.00       3.57        0.00      97.57       2.66       0.57       1.57       ----

> <Gold.Chemscore.Fitness>
19.8534

> <Gold.Chemscore.DG>
-21.9991

> <Gold.Chemscore.ZeroCoef>
-5.4800

> <Gold.Chemscore.Hbond>
3.5696

> <Gold.Chemscore.Metal>
0.0000

> <Gold.Chemscore.Lipo>
97.5701

> <Gold.Chemscore.Internal_Hbond>
0.0000

> <Gold.Chemscore.DEClash>
0.5717

> <Gold.Chemscore.DEInternal>
1.5740

> <Gold.Chemscore.Rot>
2.6637

> <Gold.Chemscore.Internal.Correction>
   9.000000E+99

> <Gold.Chemscore.Hbonds>
donor molecule, donor type, donor heavy atom, donor atom, acceptor molecule, acceptor atom, score
      L1  H     4    30       P1 10171  0.86
      L1  H     5    31       P1  7948  0.99
      L1  H     8    32       P1  7948  0.81
      L1  H    22    50       P1  8028  0.99

> <Gold.Chemscore.Hbond.Weighted>
-11.9225

> <Gold.Chemscore.Metal.Weighted>
-0.0000

> <Gold.Chemscore.Lipo.Weighted>
-11.4157

> <Gold.Chemscore.Internal_Hbond.Weighted>
0.0000

> <Gold.Chemscore.DEClash.Weighted>
0.5717

> <Gold.Chemscore.DEInternal.Weighted>
1.5740

> <Gold.Chemscore.Rot.Weighted>
6.8191

> <Gold.Chemscore.Internal.Correction.Weighted>
   9.000000E+99

> <Gold.Protein.RotatedTorsions>
[ 6907 6896 6895 6894 ] final  -27.54 input  -60.11 | X-H torsion
[ 7974 7965 7964 7962 ] final  -53.12 input  175.53 | X-H torsion
[ 8008 7997 7996 7995 ] final   65.52 input   59.86 | X-H torsion
[ 10167 10162 10161 10158 ] final   80.47 input  -65.29 | X-H torsion
[ 10718 10713 10712 10709 ] final  128.58 input   66.30 | X-H torsion
[ 10763 10752 10751 10750 ] final  137.51 input  -60.55 | X-H torsion
[ 11005 11000 10999 10996 ] final  -26.95 input  -57.11 | X-H torsion

> <Gold.Protein.ActiveResidues>
 VAL166  LYS551  ARG553  GLY616  TRP617  ASP618  TYR619  PRO620  LYS621  CYS622 
 ASP623  PHE694  ASN695  SER759  ASP760  ASP761  ALA762  ILE779  LEU786  VAL792 
 PHE793  MET794  SER795  GLU796  ALA797  LYS798  CYS799  TRP800  GLU811  SER814 

> <Gold.Protein.RotatedAtoms>
  151.1454  135.0201  159.8644 H   0  0  0  0  0  0  0  0  0  0  0  0  # atno 6907 bound_to 6896
  152.5453  134.1450  159.8505 H   0  0  0  0  0  0  0  0  0  0  0  0  # atno 6908 bound_to 6896
  151.1530  133.4849  159.2628 H   0  0  0  0  0  0  0  0  0  0  0  0  # atno 6909 bound_to 6896
  145.9004  140.7998  142.9746 H   0  0  0  0  0  0  0  0  0  0  0  0  # atno 7974 bound_to 7965
  155.6631  140.3497  155.4790 H   0  0  0  0  0  0  0  0  0  0  0  0  # atno 8008 bound_to 7997
  155.9752  140.1163  157.0799 H   0  0  0  0  0  0  0  0  0  0  0  0  # atno 8009 bound_to 7997
  154.4177  140.1149  156.5346 H   0  0  0  0  0  0  0  0  0  0  0  0  # atno 8010 bound_to 7997
  139.9494  144.6036  150.8175 H   0  0  0  0  0  0  0  0  0  0  0  0  # atno 10167 bound_to 10162
  157.5231  131.1098  150.9123 H   0  0  0  0  0  0  0  0  0  0  0  0  # atno 10718 bound_to 10713
  153.8742  135.3052  155.3443 H   0  0  0  0  0  0  0  0  0  0  0  0  # atno 10763 bound_to 10752
  154.7791  135.4845  153.9810 H   0  0  0  0  0  0  0  0  0  0  0  0  # atno 10764 bound_to 10752
  153.1388  135.6820  153.9156 H   0  0  0  0  0  0  0  0  0  0  0  0  # atno 10765 bound_to 10752
  140.9075  133.7483  156.0626 H   0  0  0  0  0  0  0  0  0  0  0  0  # atno 11005 bound_to 11000
  144.6735  140.1668  143.7418 LP  0  0  0  0  0  0  0  0  0  0  0  0  # atno 17320 bound_to 7965
  145.8798  139.2316  143.1612 LP  0  0  0  0  0  0  0  0  0  0  0  0  # atno 17321 bound_to 7965
  140.7587  143.3114  151.2837 LP  0  0  0  0  0  0  0  0  0  0  0  0  # atno 17342 bound_to 10162
  139.6641  144.0137  152.2711 LP  0  0  0  0  0  0  0  0  0  0  0  0  # atno 17343 bound_to 10162
  156.9728  130.5497  149.5291 LP  0  0  0  0  0  0  0  0  0  0  0  0  # atno 17370 bound_to 10713
  156.0368  130.5454  150.8672 LP  0  0  0  0  0  0  0  0  0  0  0  0  # atno 17371 bound_to 10713
  140.8152  134.3353  157.5399 LP  0  0  0  0  0  0  0  0  0  0  0  0  # atno 17394 bound_to 11000
  139.8752  134.9277  156.3433 LP  0  0  0  0  0  0  0  0  0  0  0  0  # atno 17395 bound_to 11000

$$$$
