AV-unprocessed.smi:2252|AV-procd|sdf|9103|dock2
  -GOLD-   2272012303D 1   1.00000     0.00000
 Structure written by MMmdl.
 46 48  0  0  0  0  0  0  0  0  3 V2000
  152.5950  141.4987  159.1010 C   0  0  0  0  0  0  0  0  0  0  0  0
  151.9672  142.7194  158.5918 N   0  0  0  0  0  0  0  0  0  0  0  0
  152.0943  143.9817  159.1125 C   0  0  0  0  0  0  0  0  0  0  0  0
  151.3446  144.8113  158.3201 C   0  0  0  0  0  0  0  0  0  0  0  0
  150.7908  144.0216  157.3494 N   0  3  0  0  0  0  0  0  0  0  0  0
  151.1631  142.7471  157.5160 C   0  0  0  0  0  0  0  0  0  0  0  0
  150.7621  141.6047  156.6357 C   0  0  0  0  0  0  0  0  0  0  0  0
  149.6258  140.7641  157.2414 C   0  0  0  0  0  0  0  0  0  0  0  0
  148.6098  140.4282  156.2509 N   0  0  0  0  0  0  0  0  0  0  0  0
  147.4962  141.1406  156.0181 C   0  0  0  0  0  0  0  0  0  0  0  0
  147.2110  142.1661  156.6376 O   0  0  0  0  0  0  0  0  0  0  0  0
  146.5687  140.6276  154.9058 C   0  0  2  0  0  0  0  0  0  0  0  0
  147.4208  140.3165  153.6567 C   0  0  0  0  0  0  0  0  0  0  0  0
  147.0474  139.1955  152.7112 C   0  0  0  0  0  0  0  0  0  0  0  0
  148.2679  139.0633  153.5852 C   0  0  0  0  0  0  0  0  0  0  0  0
  145.4841  141.6031  154.5968 N   0  3  0  0  0  0  0  0  0  0  0  0
  144.6141  141.9629  155.7370 C   0  0  0  0  0  0  0  0  0  0  0  0
  143.9399  143.2864  155.3603 C   0  0  0  0  0  0  0  0  0  0  0  0
  144.7648  143.8548  154.2015 C   0  0  0  0  0  0  0  0  0  0  0  0
  145.9412  142.8925  154.0338 C   0  0  0  0  0  0  0  0  0  0  0  0
  153.2816  141.7514  159.9096 H   0  0  0  0  0  0  0  0  0  0  0  0
  153.1493  141.0120  158.2980 H   0  0  0  0  0  0  0  0  0  0  0  0
  151.8231  140.8279  159.4790 H   0  0  0  0  0  0  0  0  0  0  0  0
  152.6952  144.1924  159.9855 H   0  0  0  0  0  0  0  0  0  0  0  0
  151.1700  145.8762  158.3718 H   0  0  0  0  0  0  0  0  0  0  0  0
  150.4779  142.0134  155.6659 H   0  0  0  0  0  0  0  0  0  0  0  0
  151.6582  141.0026  156.4806 H   0  0  0  0  0  0  0  0  0  0  0  0
  150.0216  139.8506  157.6886 H   0  0  0  0  0  0  0  0  0  0  0  0
  149.1409  141.3180  158.0455 H   0  0  0  0  0  0  0  0  0  0  0  0
  148.7746  139.6036  155.6912 H   0  0  0  0  0  0  0  0  0  0  0  0
  146.0991  139.7033  155.2487 H   0  0  0  0  0  0  0  0  0  0  0  0
  147.8628  141.2001  153.1986 H   0  0  0  0  0  0  0  0  0  0  0  0
  146.1853  138.5811  152.9627 H   0  0  0  0  0  0  0  0  0  0  0  0
  147.2051  139.3640  151.6479 H   0  0  0  0  0  0  0  0  0  0  0  0
  149.2411  139.1411  153.1046 H   0  0  0  0  0  0  0  0  0  0  0  0
  148.2131  138.3607  154.4143 H   0  0  0  0  0  0  0  0  0  0  0  0
  143.8866  141.1801  155.9540 H   0  0  0  0  0  0  0  0  0  0  0  0
  145.2261  142.1108  156.6283 H   0  0  0  0  0  0  0  0  0  0  0  0
  142.9115  143.1171  155.0385 H   0  0  0  0  0  0  0  0  0  0  0  0
  143.9092  143.9683  156.2109 H   0  0  0  0  0  0  0  0  0  0  0  0
  144.1614  143.8682  153.2929 H   0  0  0  0  0  0  0  0  0  0  0  0
  145.0990  144.8758  154.3899 H   0  0  0  0  0  0  0  0  0  0  0  0
  146.7958  143.2573  154.6057 H   0  0  0  0  0  0  0  0  0  0  0  0
  146.2482  142.8024  152.9912 H   0  0  0  0  0  0  0  0  0  0  0  0
  144.8858  141.1800  153.9015 H   0  0  0  0  0  0  0  0  0  0  0  0
  150.1863  144.3531  156.6080 H   0  0  0  0  0  0  0  0  0  0  0  0
  1  2  1  0  0  0  0
  1 21  1  0  0  0  0
  1 22  1  0  0  0  0
  1 23  1  0  0  0  0
  2  6  1  0  0  0  0
  2  3  1  0  0  0  0
  3  4  2  0  0  0  0
  3 24  1  0  0  0  0
  4  5  1  0  0  0  0
  4 25  1  0  0  0  0
  5  6  2  0  0  0  0
  5 46  1  0  0  0  0
  6  7  1  0  0  0  0
  7  8  1  0  0  0  0
  7 26  1  0  0  0  0
  7 27  1  0  0  0  0
  8  9  1  0  0  0  0
  8 28  1  0  0  0  0
  8 29  1  0  0  0  0
  9 10  1  0  0  0  0
  9 30  1  0  0  0  0
 10 11  2  0  0  0  0
 10 12  1  0  0  0  0
 12 13  1  0  0  0  0
 12 16  1  0  0  0  0
 12 31  1  0  0  0  0
 13 15  1  0  0  0  0
 13 14  1  0  0  0  0
 13 32  1  0  0  0  0
 14 15  1  0  0  0  0
 14 33  1  0  0  0  0
 14 34  1  0  0  0  0
 15 35  1  0  0  0  0
 15 36  1  0  0  0  0
 16 20  1  0  0  0  0
 16 17  1  0  0  0  0
 16 45  1  0  0  0  0
 17 18  1  0  0  0  0
 17 37  1  0  0  0  0
 17 38  1  0  0  0  0
 18 19  1  0  0  0  0
 18 39  1  0  0  0  0
 18 40  1  0  0  0  0
 19 20  1  0  0  0  0
 19 41  1  0  0  0  0
 19 42  1  0  0  0  0
 20 43  1  0  0  0  0
 20 44  1  0  0  0  0
M  CHG  1   5   1
M  CHG  1  16   1
M  END
> <s_m_source_file>
AV-unprocessed.smi

> <i_m_source_file_index>
2252

> <i_lp_mmshare_version>
43012

> <i_f3d_flags>
0

> <s_epik_input>
W0NIM11uMVtjSF1bY0hdbmMxW0NIMl1bQ0gyXVtOSF1DKD1PKVtDQEhdKFtDSF0yW0NIMl1bQ0gyXTIpTjNbQ0gyXVtDSDJdW0NIMl1bQ0gyXTM=

> <s_epik_cmdline>
J2VwaWtfcHl0aG9uJywgJy1waCcsICc3LjAnLCAnLXRuJywgJzgnLCAnLW1hJywgJzIwMCcsICctbWV0YWxfYmluZGluZycsICctaW1hZScsICc8aW5maWxlLm1hZT4nLCAnLW9tYWUnLCAnPG91dGZpbGUubWFlPic=

> <r_lp_tautomer_probability>
1

> <r_epik_Ionization_Penalty>
0.116886

> <r_epik_Ionization_Penalty_Charging>
0.00955009

> <r_epik_Ionization_Penalty_Neutral>
0.107336

> <r_epik_State_Penalty>
0.0956868

> <r_epik_Charging_Adjusted_Penalty>
0.105237

> <i_epik_Tot_Q>
2

> <i_epik_Tot_abs_Q>
2

> <r_epik_Metal_State_Penalty>
0.438836

> <b_epik_Metal_Only>
0

> <s_lp_Force_Field>
OPLS_2005

> <r_lp_Energy>
40.5803

> <b_lp_Chiralities_Consistent>
1

> <s_lp_Variant>
AV-unprocessed.smi:2252-1

> <Gold.Version>
5.8.1

> <Gold.Id.Protein>
6NUR|6NUR_protein|mol2

> <Gold.PLP.Fitness>
48.3633

> <Gold.PLP.PLP>
-38.2237

> <Gold.PLP.part.hbond>
-1.9749

> <Gold.PLP.part.metal>
0.0000

> <Gold.PLP.part.buried>
-6.4723

> <Gold.PLP.part.nonpolar>
-31.5738

> <Gold.PLP.part.repulsive>
1.3388

> <Gold.PLP.ligand.clash>
0.0000

> <Gold.PLP.ligand.torsion>
1.5194

> <Gold.PLP.Chemscore.Hbond>
4.0000

> <Gold.PLP.Chemscore.CHOScore>
0.0000

> <Gold.PLP.Chemscore.Metal>
0.0000

> <Gold.Chemscore.Hbonds>
donor molecule, donor type, donor heavy atom, donor atom, acceptor molecule, acceptor atom, score
      L1  H     5    46       P1  8028  2.00
      L1  H    16    45       P1 10175  2.00

> <Gold.PLP.Chemscore.Internal.Correction>
1.1784

> <Gold.Rescore>
     Score         DG    S(hbond)    S(metal)    S(lipo)     H(rot)  DE(clash)    DE(int)     intcor
     13.42     -16.61       1.81        0.00      88.07       2.05       0.10       3.09       ----

> <Gold.Chemscore.Fitness>
13.4180

> <Gold.Chemscore.DG>
-16.6064

> <Gold.Chemscore.ZeroCoef>
-5.4800

> <Gold.Chemscore.Hbond>
1.8141

> <Gold.Chemscore.Metal>
0.0000

> <Gold.Chemscore.Lipo>
88.0681

> <Gold.Chemscore.Internal_Hbond>
0.0000

> <Gold.Chemscore.DEClash>
0.1011

> <Gold.Chemscore.DEInternal>
3.0873

> <Gold.Chemscore.Rot>
2.0456

> <Gold.Chemscore.Internal.Correction>
   9.000000E+99

> <Gold.Chemscore.Hbonds>
donor molecule, donor type, donor heavy atom, donor atom, acceptor molecule, acceptor atom, score
      L1  H     5    46       P1  8028  0.97
      L1  H    16    45       P1 10175  0.64

> <Gold.Chemscore.Hbond.Weighted>
-6.0592

> <Gold.Chemscore.Metal.Weighted>
-0.0000

> <Gold.Chemscore.Lipo.Weighted>
-10.3040

> <Gold.Chemscore.Internal_Hbond.Weighted>
0.0000

> <Gold.Chemscore.DEClash.Weighted>
0.1011

> <Gold.Chemscore.DEInternal.Weighted>
3.0873

> <Gold.Chemscore.Rot.Weighted>
5.2368

> <Gold.Chemscore.Internal.Correction.Weighted>
   9.000000E+99

> <Gold.Protein.RotatedTorsions>
[ 6907 6896 6895 6894 ] final   60.80 input  -60.11 | X-H torsion
[ 7974 7965 7964 7962 ] final   64.45 input  175.53 | X-H torsion
[ 8008 7997 7996 7995 ] final -110.70 input   59.86 | X-H torsion
[ 10167 10162 10161 10158 ] final   41.33 input  -65.29 | X-H torsion
[ 10718 10713 10712 10709 ] final   60.46 input   66.30 | X-H torsion
[ 10763 10752 10751 10750 ] final  -33.78 input  -60.55 | X-H torsion
[ 11005 11000 10999 10996 ] final   67.67 input  -57.11 | X-H torsion

> <Gold.Protein.ActiveResidues>
 VAL166  LYS551  ARG553  GLY616  TRP617  ASP618  TYR619  PRO620  LYS621  CYS622 
 ASP623  PHE694  ASN695  SER759  ASP760  ASP761  ALA762  ILE779  LEU786  VAL792 
 PHE793  MET794  SER795  GLU796  ALA797  LYS798  CYS799  TRP800  GLU811  SER814 

> <Gold.Protein.RotatedAtoms>
  152.4034  134.6248  160.0059 H   0  0  0  0  0  0  0  0  0  0  0  0  # atno 6907 bound_to 6896
  151.6446  133.3318  159.3146 H   0  0  0  0  0  0  0  0  0  0  0  0  # atno 6908 bound_to 6896
  150.7932  134.7013  159.6596 H   0  0  0  0  0  0  0  0  0  0  0  0  # atno 6909 bound_to 6896
  145.8500  139.3248  143.0881 H   0  0  0  0  0  0  0  0  0  0  0  0  # atno 7974 bound_to 7965
  154.9786  140.0396  157.2267 H   0  0  0  0  0  0  0  0  0  0  0  0  # atno 8008 bound_to 7997
  154.7735  140.2806  155.6097 H   0  0  0  0  0  0  0  0  0  0  0  0  # atno 8009 bound_to 7997
  156.2925  140.2605  156.2543 H   0  0  0  0  0  0  0  0  0  0  0  0  # atno 8010 bound_to 7997
  140.3654  144.2175  150.6135 H   0  0  0  0  0  0  0  0  0  0  0  0  # atno 10167 bound_to 10162
  157.5755  130.8940  149.9339 H   0  0  0  0  0  0  0  0  0  0  0  0  # atno 10718 bound_to 10713
  153.8358  135.6862  153.4809 H   0  0  0  0  0  0  0  0  0  0  0  0  # atno 10763 bound_to 10752
  153.1483  135.4628  154.9597 H   0  0  0  0  0  0  0  0  0  0  0  0  # atno 10764 bound_to 10752
  154.7866  135.3287  154.7817 H   0  0  0  0  0  0  0  0  0  0  0  0  # atno 10765 bound_to 10752
  139.9757  134.6826  156.0359 H   0  0  0  0  0  0  0  0  0  0  0  0  # atno 11005 bound_to 11000
  145.9368  140.9009  143.0328 LP  0  0  0  0  0  0  0  0  0  0  0  0  # atno 17320 bound_to 7965
  144.6729  140.1494  143.7431 LP  0  0  0  0  0  0  0  0  0  0  0  0  # atno 17321 bound_to 7965
  140.5086  143.2297  151.8570 LP  0  0  0  0  0  0  0  0  0  0  0  0  # atno 17342 bound_to 10162
  139.4809  144.4976  151.9103 LP  0  0  0  0  0  0  0  0  0  0  0  0  # atno 17343 bound_to 10162
  156.0799  130.3674  150.0601 LP  0  0  0  0  0  0  0  0  0  0  0  0  # atno 17370 bound_to 10713
  156.8748  130.9536  151.3605 LP  0  0  0  0  0  0  0  0  0  0  0  0  # atno 17371 bound_to 10713
  141.1434  133.6560  156.3796 LP  0  0  0  0  0  0  0  0  0  0  0  0  # atno 17394 bound_to 11000
  140.5200  134.6313  157.5314 LP  0  0  0  0  0  0  0  0  0  0  0  0  # atno 17395 bound_to 11000

$$$$
