AV-unprocessed.smi:651|AV-procd|sdf|3188|dock7
  -GOLD-   22720 0113D 1   1.00000     0.00000
 Structure written by MMmdl.
 39 40  0  0  0  0  0  0  0  0  2 V2000
  152.6743  143.7137  163.3308 C   0  0  0  0  0  0  0  0  0  0  0  0
  152.4542  143.6827  161.8333 C   0  0  0  0  0  0  0  0  0  0  0  0
  152.8789  142.6008  161.0327 C   0  0  0  0  0  0  0  0  0  0  0  0
  152.6327  142.6330  159.6447 C   0  0  0  0  0  0  0  0  0  0  0  0
  151.9637  143.7441  159.0843 C   0  0  0  0  0  0  0  0  0  0  0  0
  151.6623  143.7984  157.5967 C   0  0  0  0  0  0  0  0  0  0  0  0
  151.0212  142.4876  157.1398 C   0  0  0  0  0  0  0  0  0  0  0  0
  151.6772  141.4468  157.1468 O   0  0  0  0  0  0  0  0  0  0  0  0
  149.7448  142.5574  156.7314 N   0  0  0  0  0  0  0  0  0  0  0  0
  148.9648  141.4405  156.2050 C   0  0  2  0  0  0  0  0  0  0  0  0
  149.4389  141.0094  154.8053 C   0  0  0  0  0  0  0  0  0  0  0  0
  148.1700  140.6130  154.0576 C   0  0  0  0  0  0  0  0  0  0  0  0
  147.1174  141.5879  154.5779 C   0  0  0  0  0  0  0  0  0  0  0  0
  147.4707  141.8350  156.0574 C   0  0  1  0  0  0  0  0  0  0  0  0
  146.5637  141.0400  157.0115 C   0  0  0  0  0  0  0  0  0  0  0  0
  145.5801  140.3234  156.4613 N   0  0  0  0  0  0  0  0  0  0  0  0
  146.7493  141.0682  158.2269 O   0  0  0  0  0  0  0  0  0  0  0  0
  151.5665  144.7993  159.9342 C   0  0  0  0  0  0  0  0  0  0  0  0
  151.8214  144.7305  161.2592 N   0  3  0  0  0  0  0  0  0  0  0  0
  153.4336  142.9900  163.6286 H   0  0  0  0  0  0  0  0  0  0  0  0
  151.7483  143.4721  163.8533 H   0  0  0  0  0  0  0  0  0  0  0  0
  153.0041  144.7021  163.6520 H   0  0  0  0  0  0  0  0  0  0  0  0
  153.3837  141.7540  161.4746 H   0  0  0  0  0  0  0  0  0  0  0  0
  152.9476  141.8092  159.0209 H   0  0  0  0  0  0  0  0  0  0  0  0
  150.9909  144.6331  157.3893 H   0  0  0  0  0  0  0  0  0  0  0  0
  152.5764  143.9789  157.0292 H   0  0  0  0  0  0  0  0  0  0  0  0
  149.2839  143.4546  156.7671 H   0  0  0  0  0  0  0  0  0  0  0  0
  149.0717  140.5916  156.8842 H   0  0  0  0  0  0  0  0  0  0  0  0
  149.9073  141.8477  154.2869 H   0  0  0  0  0  0  0  0  0  0  0  0
  150.1685  140.1997  154.8439 H   0  0  0  0  0  0  0  0  0  0  0  0
  148.2881  140.6595  152.9746 H   0  0  0  0  0  0  0  0  0  0  0  0
  147.8908  139.5918  154.3205 H   0  0  0  0  0  0  0  0  0  0  0  0
  147.1893  142.5272  154.0282 H   0  0  0  0  0  0  0  0  0  0  0  0
  146.1054  141.2087  154.4275 H   0  0  0  0  0  0  0  0  0  0  0  0
  147.3304  142.8982  156.2636 H   0  0  0  0  0  0  0  0  0  0  0  0
  144.9555  139.7872  157.0457 H   0  0  0  0  0  0  0  0  0  0  0  0
  145.4629  140.3242  155.4583 H   0  0  0  0  0  0  0  0  0  0  0  0
  151.0475  145.6854  159.5978 H   0  0  0  0  0  0  0  0  0  0  0  0
  151.5198  145.5030  161.8537 H   0  0  0  0  0  0  0  0  0  0  0  0
  1  2  1  0  0  0  0
  1 20  1  0  0  0  0
  1 21  1  0  0  0  0
  1 22  1  0  0  0  0
  2 19  1  0  0  0  0
  2  3  2  0  0  0  0
  3  4  1  0  0  0  0
  3 23  1  0  0  0  0
  4  5  2  0  0  0  0
  4 24  1  0  0  0  0
  5  6  1  0  0  0  0
  5 18  1  0  0  0  0
  6  7  1  0  0  0  0
  6 25  1  0  0  0  0
  6 26  1  0  0  0  0
  7  8  2  0  0  0  0
  7  9  1  0  0  0  0
  9 10  1  0  0  0  0
  9 27  1  0  0  0  0
 10 14  1  0  0  0  0
 10 11  1  0  0  0  0
 10 28  1  0  0  0  0
 11 12  1  0  0  0  0
 11 29  1  0  0  0  0
 11 30  1  0  0  0  0
 12 13  1  0  0  0  0
 12 31  1  0  0  0  0
 12 32  1  0  0  0  0
 13 14  1  0  0  0  0
 13 33  1  0  0  0  0
 13 34  1  0  0  0  0
 14 15  1  0  0  0  0
 14 35  1  0  0  0  0
 15 16  1  0  0  0  0
 15 17  2  0  0  0  0
 16 36  1  0  0  0  0
 16 37  1  0  0  0  0
 18 19  2  0  0  0  0
 18 38  1  0  0  0  0
 19 39  1  0  0  0  0
M  CHG  1  19   1
M  END
> <s_m_source_file>
AV-unprocessed.smi

> <i_m_source_file_index>
651

> <i_lp_mmshare_version>
43012

> <i_f3d_flags>
0

> <s_epik_input>
W0NIM11jMVtjSF1bY0hdYyhbY0hdbjEpW0NIMl1DKD1PKVtOSF1bQ0BASF0yW0NIMl1bQ0gyXVtDSDJdW0NASF0yQyg9TylbTkgyXQ==

> <s_epik_cmdline>
J2VwaWtfcHl0aG9uJywgJy1waCcsICc3LjAnLCAnLXRuJywgJzgnLCAnLW1hJywgJzIwMCcsICctbWV0YWxfYmluZGluZycsICctaW1hZScsICc8aW5maWxlLm1hZT4nLCAnLW9tYWUnLCAnPG91dGZpbGUubWFlPic=

> <r_epik_Ionization_Penalty>
2.14971

> <r_epik_Ionization_Penalty_Charging>
2.14971

> <r_epik_Ionization_Penalty_Neutral>
1.65229e-07

> <r_epik_State_Penalty>
2.28946

> <r_epik_Charging_Adjusted_Penalty>
4.43917

> <i_epik_Tot_Q>
1

> <i_epik_Tot_abs_Q>
1

> <r_epik_Metal_State_Penalty>
2.30508

> <b_epik_Metal_Only>
0

> <s_lp_Force_Field>
OPLS_2005

> <r_lp_Energy>
20.422

> <b_lp_Chiralities_Consistent>
1

> <s_lp_Variant>
AV-unprocessed.smi:651-5

> <Gold.Version>
5.8.1

> <Gold.Id.Protein>
6NUR|6NUR_protein|mol2

> <Gold.PLP.Fitness>
43.5530

> <Gold.PLP.PLP>
-42.2906

> <Gold.PLP.part.hbond>
-3.0000

> <Gold.PLP.part.metal>
0.0000

> <Gold.PLP.part.buried>
-2.3682

> <Gold.PLP.part.nonpolar>
-37.8689

> <Gold.PLP.part.repulsive>
0.1261

> <Gold.PLP.ligand.clash>
0.3516

> <Gold.PLP.ligand.torsion>
0.2720

> <Gold.PLP.Chemscore.Hbond>
0.7165

> <Gold.PLP.Chemscore.CHOScore>
0.0000

> <Gold.PLP.Chemscore.Metal>
0.0000

> <Gold.Chemscore.Hbonds>
donor molecule, donor type, donor heavy atom, donor atom, acceptor molecule, acceptor atom, score
      L1  H     9    27       P1  8028  0.77

> <Gold.PLP.Chemscore.Internal.Correction>
0.0087

> <Gold.Rescore>
     Score         DG    S(hbond)    S(metal)    S(lipo)     H(rot)  DE(clash)    DE(int)     intcor
     14.61     -16.52       1.09        0.00     107.74       2.04       0.39       1.51       ----

> <Gold.Chemscore.Fitness>
14.6123

> <Gold.Chemscore.DG>
-16.5173

> <Gold.Chemscore.ZeroCoef>
-5.4800

> <Gold.Chemscore.Hbond>
1.0931

> <Gold.Chemscore.Metal>
0.0000

> <Gold.Chemscore.Lipo>
107.7360

> <Gold.Chemscore.Internal_Hbond>
0.0000

> <Gold.Chemscore.DEClash>
0.3914

> <Gold.Chemscore.DEInternal>
1.5136

> <Gold.Chemscore.Rot>
2.0386

> <Gold.Chemscore.Internal.Correction>
   9.000000E+99

> <Gold.Chemscore.Hbonds>
donor molecule, donor type, donor heavy atom, donor atom, acceptor molecule, acceptor atom, score
      L1  H     9    27       P1  8028  0.73
      P1  H  6934  6946       L1    17  0.01

> <Gold.Chemscore.Hbond.Weighted>
-3.6509

> <Gold.Chemscore.Metal.Weighted>
-0.0000

> <Gold.Chemscore.Lipo.Weighted>
-12.6051

> <Gold.Chemscore.Internal_Hbond.Weighted>
0.0000

> <Gold.Chemscore.DEClash.Weighted>
0.3914

> <Gold.Chemscore.DEInternal.Weighted>
1.5136

> <Gold.Chemscore.Rot.Weighted>
5.2188

> <Gold.Chemscore.Internal.Correction.Weighted>
   9.000000E+99

> <Gold.Protein.RotatedTorsions>
[ 6907 6896 6895 6894 ] final   73.02 input  -60.11 | X-H torsion
[ 7974 7965 7964 7962 ] final -156.57 input  175.53 | X-H torsion
[ 8008 7997 7996 7995 ] final  -56.23 input   59.86 | X-H torsion
[ 10167 10162 10161 10158 ] final  137.01 input  -65.29 | X-H torsion
[ 10718 10713 10712 10709 ] final -169.11 input   66.30 | X-H torsion
[ 10763 10752 10751 10750 ] final  -37.88 input  -60.55 | X-H torsion
[ 11005 11000 10999 10996 ] final  100.11 input  -57.11 | X-H torsion

> <Gold.Protein.ActiveResidues>
 VAL166  LYS551  ARG553  GLY616  TRP617  ASP618  TYR619  PRO620  LYS621  CYS622 
 ASP623  PHE694  ASN695  SER759  ASP760  ASP761  ALA762  ILE779  LEU786  VAL792 
 PHE793  MET794  SER795  GLU796  ALA797  LYS798  CYS799  TRP800  GLU811  SER814 

> <Gold.Protein.RotatedAtoms>
  152.4900  134.4484  159.9566 H   0  0  0  0  0  0  0  0  0  0  0  0  # atno 6907 bound_to 6896
  151.4473  133.3621  159.2798 H   0  0  0  0  0  0  0  0  0  0  0  0  # atno 6908 bound_to 6896
  150.9046  134.8484  159.7444 H   0  0  0  0  0  0  0  0  0  0  0  0  # atno 6909 bound_to 6896
  144.7587  140.4091  143.5993 H   0  0  0  0  0  0  0  0  0  0  0  0  # atno 7974 bound_to 7965
  154.4223  140.1134  156.5604 H   0  0  0  0  0  0  0  0  0  0  0  0  # atno 8008 bound_to 7997
  155.6317  140.3495  155.4666 H   0  0  0  0  0  0  0  0  0  0  0  0  # atno 8009 bound_to 7997
  155.9942  140.1186  157.0599 H   0  0  0  0  0  0  0  0  0  0  0  0  # atno 8010 bound_to 7997
  139.5159  144.6433  151.5508 H   0  0  0  0  0  0  0  0  0  0  0  0  # atno 10167 bound_to 10162
  156.7067  130.9217  151.3085 H   0  0  0  0  0  0  0  0  0  0  0  0  # atno 10718 bound_to 10713
  153.9035  135.6800  153.4754 H   0  0  0  0  0  0  0  0  0  0  0  0  # atno 10763 bound_to 10752
  153.1116  135.4780  154.9043 H   0  0  0  0  0  0  0  0  0  0  0  0  # atno 10764 bound_to 10752
  154.7563  135.3198  154.8418 H   0  0  0  0  0  0  0  0  0  0  0  0  # atno 10765 bound_to 10752
  139.8771  134.9125  156.4706 H   0  0  0  0  0  0  0  0  0  0  0  0  # atno 11005 bound_to 11000
  145.6692  139.1596  143.2764 LP  0  0  0  0  0  0  0  0  0  0  0  0  # atno 17320 bound_to 7965
  146.1626  140.6765  142.9270 LP  0  0  0  0  0  0  0  0  0  0  0  0  # atno 17321 bound_to 7965
  140.6208  143.9261  150.6525 LP  0  0  0  0  0  0  0  0  0  0  0  0  # atno 17342 bound_to 10162
  140.2534  143.3576  152.1386 LP  0  0  0  0  0  0  0  0  0  0  0  0  # atno 17343 bound_to 10162
  157.6952  130.9274  150.0624 LP  0  0  0  0  0  0  0  0  0  0  0  0  # atno 17370 bound_to 10713
  156.1690  130.3646  149.9192 LP  0  0  0  0  0  0  0  0  0  0  0  0  # atno 17371 bound_to 10713
  140.8798  133.7926  155.9454 LP  0  0  0  0  0  0  0  0  0  0  0  0  # atno 17394 bound_to 11000
  140.8865  134.2547  157.5117 LP  0  0  0  0  0  0  0  0  0  0  0  0  # atno 17395 bound_to 11000

$$$$
