AV-unprocessed.smi:1728|AV-procd|sdf|6967|dock5
  -GOLD-   22720 8183D 1   1.00000     0.00000
 Structure written by MMmdl.
 46 47  0  0  0  0  0  0  0  0  1 V2000
  145.2636  134.3600  151.1297 C   0  0  0  0  0  0  0  0  0  0  0  0
  146.4325  134.1646  151.9179 O   0  0  0  0  0  0  0  0  0  0  0  0
  146.7208  132.8900  152.3683 C   0  0  0  0  0  0  0  0  0  0  0  0
  145.8609  131.8873  152.0577 N   0  0  0  0  0  0  0  0  0  0  0  0
  146.1421  130.6420  152.4921 C   0  0  0  0  0  0  0  0  0  0  0  0
  147.2876  130.3301  153.2463 C   0  0  0  0  0  0  0  0  0  0  0  0
  148.1817  131.3677  153.5689 C   0  0  0  0  0  0  0  0  0  0  0  0
  147.8944  132.6844  153.1315 C   0  0  0  0  0  0  0  0  0  0  0  0
  148.7274  133.8108  153.3845 N   0  0  0  0  0  0  0  0  0  0  0  0
  149.5658  134.0383  154.4100 C   0  0  0  0  0  0  0  0  0  0  0  0
  149.7644  133.2794  155.3580 O   0  0  0  0  0  0  0  0  0  0  0  0
  150.1689  135.2262  154.2816 N   0  0  0  0  0  0  0  0  0  0  0  0
  151.1497  135.7653  155.2186 C   0  0  0  0  0  0  0  0  0  0  0  0
  151.4477  137.2692  154.9561 C   0  0  0  0  0  0  0  0  0  0  0  0
  152.2421  137.3266  153.6262 C   0  0  0  0  0  0  0  0  0  0  0  0
  150.0903  137.9709  154.7104 C   0  0  0  0  0  0  0  0  0  0  0  0
  152.2259  137.8779  156.0714 N   0  0  0  0  0  0  0  0  0  0  0  0
  153.4845  137.1956  156.3932 C   0  0  0  0  0  0  0  0  0  0  0  0
  154.1711  137.8014  157.6295 C   0  0  0  0  0  0  0  0  0  0  0  0
  154.3935  139.1910  157.4230 O   0  0  0  0  0  0  0  0  0  0  0  0
  153.1882  139.9007  157.1648 C   0  0  0  0  0  0  0  0  0  0  0  0
  152.4964  139.3129  155.9235 C   0  0  0  0  0  0  0  0  0  0  0  0
  145.1848  135.4125  150.8583 H   0  0  0  0  0  0  0  0  0  0  0  0
  144.3601  134.0922  151.6794 H   0  0  0  0  0  0  0  0  0  0  0  0
  145.3055  133.7826  150.2052 H   0  0  0  0  0  0  0  0  0  0  0  0
  145.4354  129.8699  152.2264 H   0  0  0  0  0  0  0  0  0  0  0  0
  147.4785  129.3168  153.5670 H   0  0  0  0  0  0  0  0  0  0  0  0
  149.0686  131.1251  154.1320 H   0  0  0  0  0  0  0  0  0  0  0  0
  148.6385  134.5626  152.7162 H   0  0  0  0  0  0  0  0  0  0  0  0
  149.9519  135.7934  153.4749 H   0  0  0  0  0  0  0  0  0  0  0  0
  150.7778  135.6291  156.2360 H   0  0  0  0  0  0  0  0  0  0  0  0
  152.0593  135.1659  155.1644 H   0  0  0  0  0  0  0  0  0  0  0  0
  151.7610  136.7353  152.8462 H   0  0  0  0  0  0  0  0  0  0  0  0
  153.2558  136.9423  153.7449 H   0  0  0  0  0  0  0  0  0  0  0  0
  152.3171  138.3403  153.2327 H   0  0  0  0  0  0  0  0  0  0  0  0
  149.5514  137.5024  153.8860 H   0  0  0  0  0  0  0  0  0  0  0  0
  150.2106  139.0218  154.4484 H   0  0  0  0  0  0  0  0  0  0  0  0
  149.4372  137.9194  155.5813 H   0  0  0  0  0  0  0  0  0  0  0  0
  153.3148  136.1393  156.5932 H   0  0  0  0  0  0  0  0  0  0  0  0
  154.1705  137.2526  155.5482 H   0  0  0  0  0  0  0  0  0  0  0  0
  153.5620  137.6514  158.5224 H   0  0  0  0  0  0  0  0  0  0  0  0
  155.1281  137.3111  157.8087 H   0  0  0  0  0  0  0  0  0  0  0  0
  152.5309  139.8470  158.0340 H   0  0  0  0  0  0  0  0  0  0  0  0
  153.4218  140.9534  157.0048 H   0  0  0  0  0  0  0  0  0  0  0  0
  153.1275  139.4901  155.0527 H   0  0  0  0  0  0  0  0  0  0  0  0
  151.5746  139.8695  155.7653 H   0  0  0  0  0  0  0  0  0  0  0  0
  1  2  1  0  0  0  0
  1 23  1  0  0  0  0
  1 24  1  0  0  0  0
  1 25  1  0  0  0  0
  2  3  1  0  0  0  0
  3  8  1  0  0  0  0
  3  4  2  0  0  0  0
  4  5  1  0  0  0  0
  5  6  2  0  0  0  0
  5 26  1  0  0  0  0
  6  7  1  0  0  0  0
  6 27  1  0  0  0  0
  7  8  2  0  0  0  0
  7 28  1  0  0  0  0
  8  9  1  0  0  0  0
  9 10  1  0  0  0  0
  9 29  1  0  0  0  0
 10 11  2  0  0  0  0
 10 12  1  0  0  0  0
 12 13  1  0  0  0  0
 12 30  1  0  0  0  0
 13 14  1  0  0  0  0
 13 31  1  0  0  0  0
 13 32  1  0  0  0  0
 14 15  1  0  0  0  0
 14 16  1  0  0  0  0
 14 17  1  0  0  0  0
 15 33  1  0  0  0  0
 15 34  1  0  0  0  0
 15 35  1  0  0  0  0
 16 36  1  0  0  0  0
 16 37  1  0  0  0  0
 16 38  1  0  0  0  0
 17 22  1  0  0  0  0
 17 18  1  0  0  0  0
 18 19  1  0  0  0  0
 18 39  1  0  0  0  0
 18 40  1  0  0  0  0
 19 20  1  0  0  0  0
 19 41  1  0  0  0  0
 19 42  1  0  0  0  0
 20 21  1  0  0  0  0
 21 22  1  0  0  0  0
 21 43  1  0  0  0  0
 21 44  1  0  0  0  0
 22 45  1  0  0  0  0
 22 46  1  0  0  0  0
M  END
> <s_m_source_file>
AV-unprocessed.smi

> <i_m_source_file_index>
1728

> <i_lp_mmshare_version>
43012

> <i_f3d_flags>
0

> <s_epik_input>
W0NIM11PYzFuW2NIXVtjSF1bY0hdYzFbTkhdQyg9TylbTkhdW0NIMl1DKFtDSDNdKShbQ0gzXSlOMltDSDJdW0NIMl1PW0NIMl1bQ0gyXTI=

> <s_epik_cmdline>
J2VwaWtfcHl0aG9uJywgJy1waCcsICc3LjAnLCAnLXRuJywgJzgnLCAnLW1hJywgJzIwMCcsICctbWV0YWxfYmluZGluZycsICctaW1hZScsICc8aW5maWxlLm1hZT4nLCAnLW9tYWUnLCAnPG91dGZpbGUubWFlPic=

> <r_lp_tautomer_probability>
1

> <r_epik_Ionization_Penalty>
0.266086

> <r_epik_Ionization_Penalty_Charging>
0

> <r_epik_Ionization_Penalty_Neutral>
0.266086

> <r_epik_State_Penalty>
0.257924

> <r_epik_Charging_Adjusted_Penalty>
0.257924

> <i_epik_Tot_Q>
0

> <i_epik_Tot_abs_Q>
0

> <r_epik_Metal_State_Penalty>
0.257921

> <b_epik_Metal_Only>
0

> <s_lp_Force_Field>
OPLS_2005

> <r_lp_Energy>
44.4816

> <b_lp_Chiralities_Consistent>
1

> <s_lp_Variant>
AV-unprocessed.smi:1728-1

> <Gold.Version>
5.8.1

> <Gold.Id.Protein>
6NUR|6NUR_protein|mol2

> <Gold.PLP.Fitness>
39.8095

> <Gold.PLP.PLP>
-31.4955

> <Gold.PLP.part.hbond>
-3.0000

> <Gold.PLP.part.metal>
0.0000

> <Gold.PLP.part.buried>
-3.7271

> <Gold.PLP.part.nonpolar>
-24.8504

> <Gold.PLP.part.repulsive>
0.3649

> <Gold.PLP.ligand.clash>
0.0000

> <Gold.PLP.ligand.torsion>
0.3697

> <Gold.PLP.Chemscore.Hbond>
3.0000

> <Gold.PLP.Chemscore.CHOScore>
0.0000

> <Gold.PLP.Chemscore.Metal>
0.0000

> <Gold.Chemscore.Hbonds>
donor molecule, donor type, donor heavy atom, donor atom, acceptor molecule, acceptor atom, score
      L1  H     9    29       P1  7948  0.70
      L1  H    12    30       P1  7948  0.45

> <Gold.PLP.Chemscore.Internal.Correction>
0.0534

> <Gold.Rescore>
     Score         DG    S(hbond)    S(metal)    S(lipo)     H(rot)  DE(clash)    DE(int)     intcor
     17.10     -17.73       2.56        0.00      68.85       1.70       0.16       0.47       ----

> <Gold.Chemscore.Fitness>
17.0990

> <Gold.Chemscore.DG>
-17.7290

> <Gold.Chemscore.ZeroCoef>
-5.4800

> <Gold.Chemscore.Hbond>
2.5605

> <Gold.Chemscore.Metal>
0.0000

> <Gold.Chemscore.Lipo>
68.8491

> <Gold.Chemscore.Internal_Hbond>
0.0000

> <Gold.Chemscore.DEClash>
0.1596

> <Gold.Chemscore.DEInternal>
0.4704

> <Gold.Chemscore.Rot>
1.7024

> <Gold.Chemscore.Internal.Correction>
   9.000000E+99

> <Gold.Chemscore.Hbonds>
donor molecule, donor type, donor heavy atom, donor atom, acceptor molecule, acceptor atom, score
      L1  H     9    29       P1  7948  0.07
      L1  H    12    30       P1  7948  0.02

> <Gold.Chemscore.Hbond.Weighted>
-8.5519

> <Gold.Chemscore.Metal.Weighted>
-0.0000

> <Gold.Chemscore.Lipo.Weighted>
-8.0553

> <Gold.Chemscore.Internal_Hbond.Weighted>
0.0000

> <Gold.Chemscore.DEClash.Weighted>
0.1596

> <Gold.Chemscore.DEInternal.Weighted>
0.4704

> <Gold.Chemscore.Rot.Weighted>
4.3583

> <Gold.Chemscore.Internal.Correction.Weighted>
   9.000000E+99

> <Gold.Protein.RotatedTorsions>
[ 6907 6896 6895 6894 ] final  -59.09 input  -60.11 | X-H torsion
[ 7974 7965 7964 7962 ] final  144.61 input  175.53 | X-H torsion
[ 8008 7997 7996 7995 ] final  161.54 input   59.86 | X-H torsion
[ 10167 10162 10161 10158 ] final   75.38 input  -65.29 | X-H torsion
[ 10718 10713 10712 10709 ] final  176.05 input   66.30 | X-H torsion
[ 10763 10752 10751 10750 ] final   -1.72 input  -60.55 | X-H torsion
[ 11005 11000 10999 10996 ] final -110.68 input  -57.11 | X-H torsion

> <Gold.Protein.ActiveResidues>
 VAL166  LYS551  ARG553  GLY616  TRP617  ASP618  TYR619  PRO620  LYS621  CYS622 
 ASP623  PHE694  ASN695  SER759  ASP760  ASP761  ALA762  ILE779  LEU786  VAL792 
 PHE793  MET794  SER795  GLU796  ALA797  LYS798  CYS799  TRP800  GLU811  SER814 

> <Gold.Protein.RotatedAtoms>
  150.7956  134.7014  159.6551 H   0  0  0  0  0  0  0  0  0  0  0  0  # atno 6907 bound_to 6896
  152.4068  134.6189  160.0055 H   0  0  0  0  0  0  0  0  0  0  0  0  # atno 6908 bound_to 6896
  151.6444  133.3287  159.3174 H   0  0  0  0  0  0  0  0  0  0  0  0  # atno 6909 bound_to 6896
  144.8822  139.5683  143.5838 H   0  0  0  0  0  0  0  0  0  0  0  0  # atno 7974 bound_to 7965
  156.2095  140.1774  156.7725 H   0  0  0  0  0  0  0  0  0  0  0  0  # atno 8008 bound_to 7997
  154.5703  140.0684  156.8983 H   0  0  0  0  0  0  0  0  0  0  0  0  # atno 8009 bound_to 7997
  155.2686  140.3341  155.4269 H   0  0  0  0  0  0  0  0  0  0  0  0  # atno 8010 bound_to 7997
  140.0036  144.5667  150.7716 H   0  0  0  0  0  0  0  0  0  0  0  0  # atno 10167 bound_to 10162
  156.9259  130.9955  151.2996 H   0  0  0  0  0  0  0  0  0  0  0  0  # atno 10718 bound_to 10713
  153.3485  135.6984  153.6808 H   0  0  0  0  0  0  0  0  0  0  0  0  # atno 10763 bound_to 10752
  153.5544  135.3547  155.2774 H   0  0  0  0  0  0  0  0  0  0  0  0  # atno 10764 bound_to 10752
  154.8649  135.4234  154.2715 H   0  0  0  0  0  0  0  0  0  0  0  0  # atno 10765 bound_to 10752
  141.0778  133.9272  157.2354 H   0  0  0  0  0  0  0  0  0  0  0  0  # atno 11005 bound_to 11000
  146.3001  139.7401  142.9097 LP  0  0  0  0  0  0  0  0  0  0  0  0  # atno 17320 bound_to 7965
  145.3934  141.0375  143.3111 LP  0  0  0  0  0  0  0  0  0  0  0  0  # atno 17321 bound_to 7965
  140.7409  143.2811  151.3597 LP  0  0  0  0  0  0  0  0  0  0  0  0  # atno 17342 bound_to 10162
  139.6254  144.0824  152.2429 LP  0  0  0  0  0  0  0  0  0  0  0  0  # atno 17343 bound_to 10162
  157.5878  130.8422  149.8615 LP  0  0  0  0  0  0  0  0  0  0  0  0  # atno 17370 bound_to 10713
  156.0469  130.3726  150.1295 LP  0  0  0  0  0  0  0  0  0  0  0  0  # atno 17371 bound_to 10713
  139.9590  135.0159  156.9209 LP  0  0  0  0  0  0  0  0  0  0  0  0  # atno 17394 bound_to 11000
  140.5536  134.0603  155.7376 LP  0  0  0  0  0  0  0  0  0  0  0  0  # atno 17395 bound_to 11000

$$$$
