AV-unprocessed.smi:72|AV-procd|sdf|699|dock5
  -GOLD-   2262017 13D 1   1.00000     0.00000
 Structure written by MMmdl.
 30 31  0  0  0  0  0  0  0  0  2 V2000
  149.5793  133.5187  154.4536 N   0  0  0  0  0  0  0  0  0  0  0  0
  149.8335  134.6704  155.1690 C   0  0  0  0  0  0  0  0  0  0  0  0
  149.6682  135.8803  154.5183 N   0  3  0  0  0  0  0  0  0  0  0  0
  149.8674  137.0850  155.0700 C   0  0  0  0  0  0  0  0  0  0  0  0
  150.2394  137.1563  156.3317 N   0  0  0  0  0  0  0  0  0  0  0  0
  150.4849  138.4835  156.9935 C   0  0  2  0  0  0  0  0  0  0  0  0
  149.3370  139.2585  156.8279 O   0  0  0  0  0  0  0  0  0  0  0  0
  149.6897  140.5629  156.3811 C   0  0  2  0  0  0  0  0  0  0  0  0
  148.5199  141.2398  155.6453 C   0  0  0  0  0  0  0  0  0  0  0  0
  149.0055  142.2667  154.8079 O   0  0  0  0  0  0  0  0  0  0  0  0
  150.9504  140.3204  155.5414 C   0  0  2  0  0  0  0  0  0  0  0  0
  150.6188  139.8840  154.2349 O   0  0  0  0  0  0  0  0  0  0  0  0
  151.6537  139.2066  156.3034 C   0  0  1  0  0  0  0  0  0  0  0  0
  152.5523  139.7465  157.2510 O   0  0  0  0  0  0  0  0  0  0  0  0
  150.4624  135.9691  157.0738 C   0  0  0  0  0  0  0  0  0  0  0  0
  150.8529  136.0272  158.2393 O   0  0  0  0  0  0  0  0  0  0  0  0
  150.2241  134.7562  156.4108 N   0  0  0  0  0  0  0  0  0  0  0  0
  150.6400  138.2793  158.0545 H   0  0  0  0  0  0  0  0  0  0  0  0
  149.9760  141.1556  157.2523 H   0  0  0  0  0  0  0  0  0  0  0  0
  151.5628  141.2189  155.4523 H   0  0  0  0  0  0  0  0  0  0  0  0
  152.2124  138.5368  155.6469 H   0  0  0  0  0  0  0  0  0  0  0  0
  149.6769  132.5917  154.8439 H   0  0  0  0  0  0  0  0  0  0  0  0
  149.2813  133.5079  153.4887 H   0  0  0  0  0  0  0  0  0  0  0  0
  149.7249  137.9756  154.4708 H   0  0  0  0  0  0  0  0  0  0  0  0
  148.0093  140.5166  155.0087 H   0  0  0  0  0  0  0  0  0  0  0  0
  147.7837  141.6382  156.3440 H   0  0  0  0  0  0  0  0  0  0  0  0
  149.1670  143.0352  155.3341 H   0  0  0  0  0  0  0  0  0  0  0  0
  150.5621  138.9404  154.2398 H   0  0  0  0  0  0  0  0  0  0  0  0
  152.0751  139.9448  158.0428 H   0  0  0  0  0  0  0  0  0  0  0  0
  149.3757  135.8497  153.5521 H   0  0  0  0  0  0  0  0  0  0  0  0
  1  2  1  0  0  0  0
  1 22  1  0  0  0  0
  1 23  1  0  0  0  0
  2 17  2  0  0  0  0
  2  3  1  0  0  0  0
  3  4  2  0  0  0  0
  3 30  1  0  0  0  0
  4  5  1  0  0  0  0
  4 24  1  0  0  0  0
  5  6  1  0  0  0  0
  5 15  1  0  0  0  0
  6 18  1  0  0  0  0
  6 13  1  0  0  0  0
  6  7  1  0  0  0  0
  7  8  1  0  0  0  0
  8 19  1  0  0  0  0
  8  9  1  0  0  0  0
  8 11  1  0  0  0  0
  9 10  1  0  0  0  0
  9 25  1  0  0  0  0
  9 26  1  0  0  0  0
 10 27  1  0  0  0  0
 11 20  1  0  0  0  0
 11 12  1  0  0  0  0
 11 13  1  0  0  0  0
 12 28  1  0  0  0  0
 13 21  1  0  0  0  0
 13 14  1  0  0  0  0
 14 29  1  0  0  0  0
 15 16  2  0  0  0  0
 15 17  1  0  0  0  0
M  CHG  1   3   1
M  END
> <s_m_source_file>
AV-unprocessed.smi

> <i_m_source_file_index>
72

> <i_lp_mmshare_version>
43012

> <i_f3d_flags>
0

> <s_epik_input>
W05IMl1jMW5bY0hdbihjKD1PKW4xKVtDQEBIXTJPW0NASF0oW0NIMl1bT0hdKVtDQEBIXShbT0hdKVtDQEhdMltPSF0=

> <s_epik_cmdline>
J2VwaWtfcHl0aG9uJywgJy1waCcsICc3LjAnLCAnLXRuJywgJzgnLCAnLW1hJywgJzIwMCcsICctbWV0YWxfYmluZGluZycsICctaW1hZScsICc8aW5maWxlLm1hZT4nLCAnLW9tYWUnLCAnPG91dGZpbGUubWFlPic=

> <r_lp_tautomer_probability>
4.77166e-05

> <r_epik_Ionization_Penalty>
0.104979

> <r_epik_Ionization_Penalty_Charging>
0.0999619

> <r_epik_Ionization_Penalty_Neutral>
0.00501745

> <r_epik_State_Penalty>
2.51541

> <r_epik_Charging_Adjusted_Penalty>
2.61537

> <i_epik_Tot_Q>
1

> <i_epik_Tot_abs_Q>
1

> <r_epik_Metal_State_Penalty>
3.53763

> <b_epik_Metal_Only>
0

> <s_epik_Chemistry_Notes>
This compound contains an acetal/aminal-like group ( X-CH(R)-Y where X, Y are N, S, or O) that may be acid/base labile, releasing an aldehyde.

> <s_lp_Force_Field>
OPLS_2005

> <r_lp_Energy>
28.7493

> <b_lp_Chiralities_Consistent>
1

> <s_lp_Variant>
AV-unprocessed.smi:72-37

> <Gold.Version>
5.8.1

> <Gold.Id.Protein>
6NUR|6NUR_protein|mol2

> <Gold.PLP.Fitness>
36.0265

> <Gold.PLP.PLP>
-19.0037

> <Gold.PLP.part.hbond>
-6.0000

> <Gold.PLP.part.metal>
0.0000

> <Gold.PLP.part.buried>
-3.4425

> <Gold.PLP.part.nonpolar>
-9.9920

> <Gold.PLP.part.repulsive>
0.0654

> <Gold.PLP.ligand.clash>
0.0000

> <Gold.PLP.ligand.torsion>
0.2527

> <Gold.PLP.Chemscore.Hbond>
5.8378

> <Gold.PLP.Chemscore.CHOScore>
0.0000

> <Gold.PLP.Chemscore.Metal>
0.0000

> <Gold.Chemscore.Hbonds>
donor molecule, donor type, donor heavy atom, donor atom, acceptor molecule, acceptor atom, score
      L1  H     3    30       P1  7948  2.00
      L1  H    10    27       P1  8028  0.98
      P1  H  6896  6908       L1    16  0.62
      P1  H  7989  7998       L1    12  0.80
      P1  H  7997  8009       L1    14  1.00

> <Gold.PLP.Chemscore.Internal.Correction>
0.0147

> <Gold.Rescore>
     Score         DG    S(hbond)    S(metal)    S(lipo)     H(rot)  DE(clash)    DE(int)     intcor
      8.56      -9.82       3.65        0.00      22.07       4.08       0.07       1.19       ----

> <Gold.Chemscore.Fitness>
8.5642

> <Gold.Chemscore.DG>
-9.8182

> <Gold.Chemscore.ZeroCoef>
-5.4800

> <Gold.Chemscore.Hbond>
3.6517

> <Gold.Chemscore.Metal>
0.0000

> <Gold.Chemscore.Lipo>
22.0674

> <Gold.Chemscore.Internal_Hbond>
0.0000

> <Gold.Chemscore.DEClash>
0.0650

> <Gold.Chemscore.DEInternal>
1.1889

> <Gold.Chemscore.Rot>
4.0783

> <Gold.Chemscore.Internal.Correction>
   9.000000E+99

> <Gold.Chemscore.Hbonds>
donor molecule, donor type, donor heavy atom, donor atom, acceptor molecule, acceptor atom, score
      L1  H     3    30       P1  7948  0.50
      L1  H    10    27       P1  8028  0.93
      P1  H  6896  6908       L1    16  0.62
      P1  H  7989  7998       L1    12  0.12
      P1  H  7997  8009       L1    14  0.97

> <Gold.Chemscore.Hbond.Weighted>
-12.1967

> <Gold.Chemscore.Metal.Weighted>
-0.0000

> <Gold.Chemscore.Lipo.Weighted>
-2.5819

> <Gold.Chemscore.Internal_Hbond.Weighted>
0.0000

> <Gold.Chemscore.DEClash.Weighted>
0.0650

> <Gold.Chemscore.DEInternal.Weighted>
1.1889

> <Gold.Chemscore.Rot.Weighted>
10.4404

> <Gold.Chemscore.Internal.Correction.Weighted>
   9.000000E+99

> <Gold.Protein.RotatedTorsions>
[ 6907 6896 6895 6894 ] final -163.52 input  -60.11 | X-H torsion
[ 7974 7965 7964 7962 ] final  -86.64 input  175.53 | X-H torsion
[ 8008 7997 7996 7995 ] final  171.46 input   59.86 | X-H torsion
[ 10167 10162 10161 10158 ] final  104.86 input  -65.29 | X-H torsion
[ 10718 10713 10712 10709 ] final -103.14 input   66.30 | X-H torsion
[ 10763 10752 10751 10750 ] final   34.26 input  -60.55 | X-H torsion
[ 11005 11000 10999 10996 ] final -169.43 input  -57.11 | X-H torsion

> <Gold.Protein.ActiveResidues>
 VAL166  LYS551  ARG553  GLY616  TRP617  ASP618  TYR619  PRO620  LYS621  CYS622 
 ASP623  PHE694  ASN695  SER759  ASP760  ASP761  ALA762  ILE779  LEU786  VAL792 
 PHE793  MET794  SER795  GLU796  ALA797  LYS798  CYS799  TRP800  GLU811  SER814 

> <Gold.Protein.RotatedAtoms>
  151.3974  133.3769  159.2727 H   0  0  0  0  0  0  0  0  0  0  0  0  # atno 6907 bound_to 6896
  150.9459  134.8865  159.7652 H   0  0  0  0  0  0  0  0  0  0  0  0  # atno 6908 bound_to 6896
  152.5091  134.3926  159.9441 H   0  0  0  0  0  0  0  0  0  0  0  0  # atno 6909 bound_to 6896
  145.4772  140.9558  143.1884 H   0  0  0  0  0  0  0  0  0  0  0  0  # atno 7974 bound_to 7965
  156.1269  140.1511  156.9123 H   0  0  0  0  0  0  0  0  0  0  0  0  # atno 8008 bound_to 7997
  154.4878  140.0860  156.7567 H   0  0  0  0  0  0  0  0  0  0  0  0  # atno 8009 bound_to 7997
  155.4328  140.3428  155.4284 H   0  0  0  0  0  0  0  0  0  0  0  0  # atno 8010 bound_to 7997
  139.7142  144.7072  151.0978 H   0  0  0  0  0  0  0  0  0  0  0  0  # atno 10167 bound_to 10162
  156.0254  130.5453  150.7210 H   0  0  0  0  0  0  0  0  0  0  0  0  # atno 10718 bound_to 10713
  153.0172  135.6365  154.1640 H   0  0  0  0  0  0  0  0  0  0  0  0  # atno 10763 bound_to 10752
  154.1378  135.2836  155.3170 H   0  0  0  0  0  0  0  0  0  0  0  0  # atno 10764 bound_to 10752
  154.6147  135.5545  153.7572 H   0  0  0  0  0  0  0  0  0  0  0  0  # atno 10765 bound_to 10752
  140.5308  134.5618  157.5074 H   0  0  0  0  0  0  0  0  0  0  0  0  # atno 11005 bound_to 11000
  144.7910  139.6328  143.7113 LP  0  0  0  0  0  0  0  0  0  0  0  0  # atno 17320 bound_to 7965
  146.2362  139.5910  142.9522 LP  0  0  0  0  0  0  0  0  0  0  0  0  # atno 17321 bound_to 7965
  140.7740  143.5253  150.9488 LP  0  0  0  0  0  0  0  0  0  0  0  0  # atno 17342 bound_to 10162
  139.8938  143.6920  152.3141 LP  0  0  0  0  0  0  0  0  0  0  0  0  # atno 17343 bound_to 10162
  157.4826  131.0904  151.0519 LP  0  0  0  0  0  0  0  0  0  0  0  0  # atno 17370 bound_to 10713
  157.0948  130.5957  149.5447 LP  0  0  0  0  0  0  0  0  0  0  0  0  # atno 17371 bound_to 10713
  139.9555  134.7542  156.0351 LP  0  0  0  0  0  0  0  0  0  0  0  0  # atno 17394 bound_to 11000
  141.1282  133.6593  156.3394 LP  0  0  0  0  0  0  0  0  0  0  0  0  # atno 17395 bound_to 11000

$$$$
