AV-unprocessed.smi:155|AV-procd|sdf|1283|dock1
  -GOLD-   2262018553D 1   1.00000     0.00000
 Structure written by MMmdl.
 64 67  0  0  0  0  0  0  0  0  3 V2000
  146.1298  129.9558  151.3998 C   0  0  0  0  0  0  0  0  0  0  0  0
  146.6535  131.3355  151.2671 N   0  3  0  0  0  0  0  0  0  0  0  0
  145.7619  132.1720  150.4323 C   0  0  0  0  0  0  0  0  0  0  0  0
  146.9654  131.9753  152.5717 C   0  0  0  0  0  0  0  0  0  0  0  0
  147.4155  133.4445  152.4199 C   0  0  0  0  0  0  0  0  0  0  0  0
  148.2611  133.9165  153.5497 N   0  3  2  0  0  0  0  0  0  0  0  0
  149.1512  132.8520  154.1003 C   0  0  0  0  0  0  0  0  0  0  0  0
  149.7709  133.1815  155.4738 C   0  0  0  0  0  0  0  0  0  0  0  0
  150.5344  134.5150  155.5190 C   0  0  0  0  0  0  0  0  0  0  0  0
  149.7365  135.6619  155.0824 N   0  0  0  0  0  0  0  0  0  0  0  0
  150.4116  136.8367  155.1394 C   0  0  0  0  0  0  0  0  0  0  0  0
  151.7064  136.8944  154.7288 N   0  0  0  0  0  0  0  0  0  0  0  0
  152.3727  138.0528  154.7637 C   0  0  0  0  0  0  0  0  0  0  0  0
  151.9437  139.2507  155.1669 N   0  0  0  0  0  0  0  0  0  0  0  0
  150.6465  139.1963  155.5837 C   0  0  0  0  0  0  0  0  0  0  0  0
  149.8144  138.0419  155.6030 C   0  0  0  0  0  0  0  0  0  0  0  0
  148.5598  138.3692  156.1045 N   0  0  0  0  0  0  0  0  0  0  0  0
  148.6420  139.6480  156.3558 C   0  0  0  0  0  0  0  0  0  0  0  0
  149.8617  140.2222  156.0773 N   0  0  0  0  0  0  0  0  0  0  0  0
  150.2322  141.6135  156.2654 C   0  0  0  0  0  0  0  0  0  0  0  0
  149.9508  142.1063  157.7010 C   0  0  2  0  0  0  0  0  0  0  0  0
  148.8569  143.0025  157.7145 O   0  0  0  0  0  0  0  0  0  0  0  0
  151.1563  142.7796  158.3894 C   0  0  1  0  0  0  0  0  0  0  0  0
  151.4627  144.1883  157.8774 C   0  0  0  0  0  0  0  0  0  0  0  0
  152.2103  144.7834  159.0485 C   0  0  0  0  0  0  0  0  0  0  0  0
  151.4456  144.1995  160.2320 C   0  0  0  0  0  0  0  0  0  0  0  0
  150.9440  142.9402  159.7917 O   0  0  0  0  0  0  0  0  0  0  0  0
  148.2964  135.6988  155.3628 C   0  0  0  0  0  0  0  0  0  0  0  0
  147.4730  134.6363  154.5901 C   0  0  0  0  0  0  0  0  0  0  0  0
  145.1924  129.9448  151.9578 H   0  0  0  0  0  0  0  0  0  0  0  0
  146.8380  129.3037  151.9093 H   0  0  0  0  0  0  0  0  0  0  0  0
  145.9420  129.5217  150.4170 H   0  0  0  0  0  0  0  0  0  0  0  0
  144.7932  132.3134  150.9137 H   0  0  0  0  0  0  0  0  0  0  0  0
  145.5953  131.7079  149.4595 H   0  0  0  0  0  0  0  0  0  0  0  0
  146.2029  133.1534  150.2537 H   0  0  0  0  0  0  0  0  0  0  0  0
  146.0663  131.9472  153.1876 H   0  0  0  0  0  0  0  0  0  0  0  0
  147.7205  131.3899  153.0989 H   0  0  0  0  0  0  0  0  0  0  0  0
  147.9924  133.5409  151.5008 H   0  0  0  0  0  0  0  0  0  0  0  0
  146.5492  134.0993  152.3127 H   0  0  0  0  0  0  0  0  0  0  0  0
  148.5882  131.9222  154.1920 H   0  0  0  0  0  0  0  0  0  0  0  0
  149.9559  132.6641  153.3894 H   0  0  0  0  0  0  0  0  0  0  0  0
  149.0064  133.1657  156.2509 H   0  0  0  0  0  0  0  0  0  0  0  0
  150.4588  132.3803  155.7457 H   0  0  0  0  0  0  0  0  0  0  0  0
  150.8927  134.6949  156.5339 H   0  0  0  0  0  0  0  0  0  0  0  0
  151.4194  134.4273  154.8893 H   0  0  0  0  0  0  0  0  0  0  0  0
  153.3955  138.0149  154.4184 H   0  0  0  0  0  0  0  0  0  0  0  0
  147.8128  140.2106  156.7606 H   0  0  0  0  0  0  0  0  0  0  0  0
  151.2899  141.7177  156.0228 H   0  0  0  0  0  0  0  0  0  0  0  0
  149.6856  142.2157  155.5386 H   0  0  0  0  0  0  0  0  0  0  0  0
  149.6453  141.2563  158.3125 H   0  0  0  0  0  0  0  0  0  0  0  0
  148.7656  143.3748  156.8510 H   0  0  0  0  0  0  0  0  0  0  0  0
  152.0542  142.1738  158.2537 H   0  0  0  0  0  0  0  0  0  0  0  0
  152.0452  144.1867  156.9556 H   0  0  0  0  0  0  0  0  0  0  0  0
  150.5459  144.7511  157.6991 H   0  0  0  0  0  0  0  0  0  0  0  0
  153.2416  144.4281  159.0541 H   0  0  0  0  0  0  0  0  0  0  0  0
  152.2225  145.8737  159.0438 H   0  0  0  0  0  0  0  0  0  0  0  0
  152.0711  144.0917  161.1183 H   0  0  0  0  0  0  0  0  0  0  0  0
  150.5986  144.8364  160.4902 H   0  0  0  0  0  0  0  0  0  0  0  0
  148.1342  135.5907  156.4361 H   0  0  0  0  0  0  0  0  0  0  0  0
  147.9034  136.6808  155.0945 H   0  0  0  0  0  0  0  0  0  0  0  0
  146.6292  135.1540  154.1327 H   0  0  0  0  0  0  0  0  0  0  0  0
  147.0263  133.9152  155.2762 H   0  0  0  0  0  0  0  0  0  0  0  0
  147.5243  131.2715  150.7589 H   0  0  0  0  0  0  0  0  0  0  0  0
  148.8727  134.6216  153.1627 H   0  0  0  0  0  0  0  0  0  0  0  0
  1  2  1  0  0  0  0
  1 30  1  0  0  0  0
  1 31  1  0  0  0  0
  1 32  1  0  0  0  0
  2  3  1  0  0  0  0
  2  4  1  0  0  0  0
  2 63  1  0  0  0  0
  3 33  1  0  0  0  0
  3 34  1  0  0  0  0
  3 35  1  0  0  0  0
  4  5  1  0  0  0  0
  4 36  1  0  0  0  0
  4 37  1  0  0  0  0
  5  6  1  0  0  0  0
  5 38  1  0  0  0  0
  5 39  1  0  0  0  0
  6 29  1  0  0  0  0
  6  7  1  0  0  0  0
  6 64  1  0  0  0  0
  7  8  1  0  0  0  0
  7 40  1  0  0  0  0
  7 41  1  0  0  0  0
  8  9  1  0  0  0  0
  8 42  1  0  0  0  0
  8 43  1  0  0  0  0
  9 10  1  0  0  0  0
  9 44  1  0  0  0  0
  9 45  1  0  0  0  0
 10 11  1  0  0  0  0
 10 28  1  0  0  0  0
 11 16  1  0  0  0  0
 11 12  2  0  0  0  0
 12 13  1  0  0  0  0
 13 14  2  0  0  0  0
 13 46  1  0  0  0  0
 14 15  1  0  0  0  0
 15 19  1  0  0  0  0
 15 16  2  0  0  0  0
 16 17  1  0  0  0  0
 17 18  2  0  0  0  0
 18 19  1  0  0  0  0
 18 47  1  0  0  0  0
 19 20  1  0  0  0  0
 20 21  1  0  0  0  0
 20 48  1  0  0  0  0
 20 49  1  0  0  0  0
 21 22  1  0  0  0  0
 21 23  1  0  0  0  0
 21 50  1  0  0  0  0
 22 51  1  0  0  0  0
 23 27  1  0  0  0  0
 23 24  1  0  0  0  0
 23 52  1  0  0  0  0
 24 25  1  0  0  0  0
 24 53  1  0  0  0  0
 24 54  1  0  0  0  0
 25 26  1  0  0  0  0
 25 55  1  0  0  0  0
 25 56  1  0  0  0  0
 26 27  1  0  0  0  0
 26 57  1  0  0  0  0
 26 58  1  0  0  0  0
 28 29  1  0  0  0  0
 28 59  1  0  0  0  0
 28 60  1  0  0  0  0
 29 61  1  0  0  0  0
 29 62  1  0  0  0  0
M  CHG  1   2   1
M  CHG  1   6   1
M  END
> <s_m_source_file>
AV-unprocessed.smi

> <i_m_source_file_index>
155

> <i_lp_mmshare_version>
43012

> <i_f3d_flags>
0

> <s_epik_input>
W0NIM11OKFtDSDNdKVtDSDJdW0NIMl1OMVtDSDJdW0NIMl1bQ0gyXU4oW0NIMl1bQ0gyXTEpYyhuW2NIXW4yKWMoYzIzKW5bY0hdbjNbQ0gyXVtDQEhdKFtPSF0pW0NAQEhdNFtDSDJdW0NIMl1bQ0gyXU80

> <s_epik_cmdline>
J2VwaWtfcHl0aG9uJywgJy1waCcsICc3LjAnLCAnLXRuJywgJzgnLCAnLW1hJywgJzIwMCcsICctbWV0YWxfYmluZGluZycsICctaW1hZScsICc8aW5maWxlLm1hZT4nLCAnLW9tYWUnLCAnPG91dGZpbGUubWFlPic=

> <r_lp_tautomer_probability>
1

> <r_epik_Ionization_Penalty>
3.0333

> <r_epik_Ionization_Penalty_Charging>
3.03317

> <r_epik_Ionization_Penalty_Neutral>
0.000131872

> <r_epik_State_Penalty>
1.99939

> <r_epik_Charging_Adjusted_Penalty>
5.03256

> <i_epik_Tot_Q>
2

> <i_epik_Tot_abs_Q>
2

> <r_epik_Metal_State_Penalty>
2.00021

> <b_epik_Metal_Only>
0

> <s_lp_Force_Field>
OPLS_2005

> <r_lp_Energy>
67.9245

> <b_lp_Chiralities_Consistent>
1

> <s_lp_Variant>
AV-unprocessed.smi:155-17

> <Gold.Version>
5.8.1

> <Gold.Id.Protein>
6NUR|6NUR_protein|mol2

> <Gold.PLP.Fitness>
69.3497

> <Gold.PLP.PLP>
-54.3437

> <Gold.PLP.part.hbond>
-5.7454

> <Gold.PLP.part.metal>
0.0000

> <Gold.PLP.part.buried>
-8.1579

> <Gold.PLP.part.nonpolar>
-42.0331

> <Gold.PLP.part.repulsive>
0.2172

> <Gold.PLP.ligand.clash>
0.0000

> <Gold.PLP.ligand.torsion>
1.7906

> <Gold.PLP.Chemscore.Hbond>
5.9760

> <Gold.PLP.Chemscore.CHOScore>
0.0000

> <Gold.PLP.Chemscore.Metal>
0.0000

> <Gold.Chemscore.Hbonds>
donor molecule, donor type, donor heavy atom, donor atom, acceptor molecule, acceptor atom, score
      L1  H     2    63       P1 10747  1.00
      L1  H     6    64       P1  7948  1.43
      L1  H    22    51       P1  8028  1.00
      P1  H  7989  7998       L1    14  0.21
      P1  H 10752 10764       L1    12  1.00

> <Gold.PLP.Chemscore.Internal.Correction>
0.6591

> <Gold.Rescore>
     Score         DG    S(hbond)    S(metal)    S(lipo)     H(rot)  DE(clash)    DE(int)     intcor
     18.26     -21.97       2.97        0.00     116.40       2.75       0.08       3.63       ----

> <Gold.Chemscore.Fitness>
18.2578

> <Gold.Chemscore.DG>
-21.9721

> <Gold.Chemscore.ZeroCoef>
-5.4800

> <Gold.Chemscore.Hbond>
2.9677

> <Gold.Chemscore.Metal>
0.0000

> <Gold.Chemscore.Lipo>
116.3956

> <Gold.Chemscore.Internal_Hbond>
0.0000

> <Gold.Chemscore.DEClash>
0.0822

> <Gold.Chemscore.DEInternal>
3.6321

> <Gold.Chemscore.Rot>
2.7493

> <Gold.Chemscore.Internal.Correction>
   9.000000E+99

> <Gold.Chemscore.Hbonds>
donor molecule, donor type, donor heavy atom, donor atom, acceptor molecule, acceptor atom, score
      L1  H     2    63       P1 10747  0.98
      L1  H     6    64       P1  7948  0.10
      L1  H    22    51       P1  8028  0.58
      P1  H  7989  7998       L1    14  0.04
      P1  H 10752 10764       L1    12  0.55

> <Gold.Chemscore.Hbond.Weighted>
-9.9121

> <Gold.Chemscore.Metal.Weighted>
-0.0000

> <Gold.Chemscore.Lipo.Weighted>
-13.6183

> <Gold.Chemscore.Internal_Hbond.Weighted>
0.0000

> <Gold.Chemscore.DEClash.Weighted>
0.0822

> <Gold.Chemscore.DEInternal.Weighted>
3.6321

> <Gold.Chemscore.Rot.Weighted>
7.0383

> <Gold.Chemscore.Internal.Correction.Weighted>
   9.000000E+99

> <Gold.Protein.RotatedTorsions>
[ 6907 6896 6895 6894 ] final  -51.04 input  -60.11 | X-H torsion
[ 7974 7965 7964 7962 ] final -179.41 input  175.53 | X-H torsion
[ 8008 7997 7996 7995 ] final   72.66 input   59.86 | X-H torsion
[ 10167 10162 10161 10158 ] final  144.49 input  -65.29 | X-H torsion
[ 10718 10713 10712 10709 ] final  157.52 input   66.30 | X-H torsion
[ 10763 10752 10751 10750 ] final  -66.93 input  -60.55 | X-H torsion
[ 11005 11000 10999 10996 ] final    5.69 input  -57.11 | X-H torsion

> <Gold.Protein.ActiveResidues>
 VAL166  LYS551  ARG553  GLY616  TRP617  ASP618  TYR619  PRO620  LYS621  CYS622 
 ASP623  PHE694  ASN695  SER759  ASP760  ASP761  ALA762  ILE779  LEU786  VAL792 
 PHE793  MET794  SER795  GLU796  ALA797  LYS798  CYS799  TRP800  GLU811  SER814 

> <Gold.Protein.RotatedAtoms>
  150.8649  134.8010  159.7110 H   0  0  0  0  0  0  0  0  0  0  0  0  # atno 6907 bound_to 6896
  152.4674  134.5040  159.9743 H   0  0  0  0  0  0  0  0  0  0  0  0  # atno 6908 bound_to 6896
  151.5137  133.3441  159.2925 H   0  0  0  0  0  0  0  0  0  0  0  0  # atno 6909 bound_to 6896
  144.7136  140.0722  143.6429 H   0  0  0  0  0  0  0  0  0  0  0  0  # atno 7974 bound_to 7965
  155.7721  140.3484  155.5252 H   0  0  0  0  0  0  0  0  0  0  0  0  # atno 8008 bound_to 7997
  155.8811  140.1002  157.1505 H   0  0  0  0  0  0  0  0  0  0  0  0  # atno 8009 bound_to 7997
  154.4025  140.1322  156.4185 H   0  0  0  0  0  0  0  0  0  0  0  0  # atno 8010 bound_to 7997
  139.4946  144.5968  151.6566 H   0  0  0  0  0  0  0  0  0  0  0  0  # atno 10167 bound_to 10162
  157.1903  131.0653  151.2083 H   0  0  0  0  0  0  0  0  0  0  0  0  # atno 10718 bound_to 10713
  154.3671  135.6103  153.5720 H   0  0  0  0  0  0  0  0  0  0  0  0  # atno 10763 bound_to 10752
  152.9791  135.5829  154.4565 H   0  0  0  0  0  0  0  0  0  0  0  0  # atno 10764 bound_to 10752
  154.4313  135.2848  155.1888 H   0  0  0  0  0  0  0  0  0  0  0  0  # atno 10765 bound_to 10752
  140.5678  134.0131  155.7997 H   0  0  0  0  0  0  0  0  0  0  0  0  # atno 11005 bound_to 11000
  145.9774  139.2915  143.1062 LP  0  0  0  0  0  0  0  0  0  0  0  0  # atno 17320 bound_to 7965
  145.9049  140.9218  143.0484 LP  0  0  0  0  0  0  0  0  0  0  0  0  # atno 17321 bound_to 7965
  140.5608  144.0272  150.6169 LP  0  0  0  0  0  0  0  0  0  0  0  0  # atno 17342 bound_to 10162
  140.3357  143.3050  152.0641 LP  0  0  0  0  0  0  0  0  0  0  0  0  # atno 17343 bound_to 10162
  157.3867  130.7260  149.6668 LP  0  0  0  0  0  0  0  0  0  0  0  0  # atno 17370 bound_to 10713
  155.9712  130.4157  150.4197 LP  0  0  0  0  0  0  0  0  0  0  0  0  # atno 17371 bound_to 10713
  141.1075  133.9671  157.2971 LP  0  0  0  0  0  0  0  0  0  0  0  0  # atno 17394 bound_to 11000
  139.9376  135.0195  156.8606 LP  0  0  0  0  0  0  0  0  0  0  0  0  # atno 17395 bound_to 11000

$$$$
