AV-unprocessed.smi:44|AV-procd|sdf|406|dock9
  -GOLD-   2262016263D 1   1.00000     0.00000
 Structure written by MMmdl.
 28 30  0  0  0  0  0  0  0  0  2 V2000
  153.1006  138.7598  156.7822 O   0  0  0  0  0  0  0  0  0  0  0  0
  152.1962  138.8322  155.9526 C   0  0  0  0  0  0  0  0  0  0  0  0
  151.9194  137.8872  154.9985 N   0  5  0  0  0  0  0  0  0  0  0  0
  150.8606  138.0886  154.1153 C   0  0  0  0  0  0  0  0  0  0  0  0
  150.0590  139.0976  154.0635 N   0  0  0  0  0  0  0  0  0  0  0  0
  150.3180  140.0650  155.0123 C   0  0  0  0  0  0  0  0  0  0  0  0
  151.3100  140.0303  155.9546 C   0  0  0  0  0  0  0  0  0  0  0  0
  151.2842  141.1669  156.7535 N   0  0  0  0  0  0  0  0  0  0  0  0
  150.2569  141.8447  156.2414 C   0  0  0  0  0  0  0  0  0  0  0  0
  149.6336  141.2598  155.1959 N   0  0  0  0  0  0  0  0  0  0  0  0
  148.4611  141.7562  154.4064 C   0  0  2  0  0  0  0  0  0  0  0  0
  147.2178  141.7830  155.2964 C   0  0  0  0  0  0  0  0  0  0  0  0
  146.6932  140.3771  155.1116 C   0  0  0  0  0  0  0  0  0  0  0  0
  146.9745  140.1442  153.6273 C   0  0  2  0  0  0  0  0  0  0  0  0
  147.0998  138.6591  153.2558 C   0  0  0  0  0  0  0  0  0  0  0  0
  147.3951  138.5265  151.8822 O   0  0  0  0  0  0  0  0  0  0  0  0
  148.2003  140.8383  153.3826 O   0  0  0  0  0  0  0  0  0  0  0  0
  148.7727  142.7305  154.0285 H   0  0  0  0  0  0  0  0  0  0  0  0
  146.1834  140.6224  153.0467 H   0  0  0  0  0  0  0  0  0  0  0  0
  150.7539  137.2576  153.4135 H   0  0  0  0  0  0  0  0  0  0  0  0
  149.9522  142.7981  156.6446 H   0  0  0  0  0  0  0  0  0  0  0  0
  147.4504  142.0408  156.3303 H   0  0  0  0  0  0  0  0  0  0  0  0
  146.5149  142.5151  154.8969 H   0  0  0  0  0  0  0  0  0  0  0  0
  147.2593  139.6786  155.7299 H   0  0  0  0  0  0  0  0  0  0  0  0
  145.6373  140.2789  155.3648 H   0  0  0  0  0  0  0  0  0  0  0  0
  147.8564  138.1560  153.8572 H   0  0  0  0  0  0  0  0  0  0  0  0
  146.1534  138.1484  153.4361 H   0  0  0  0  0  0  0  0  0  0  0  0
  147.7579  137.6667  151.7338 H   0  0  0  0  0  0  0  0  0  0  0  0
  1  2  2  0  0  0  0
  2  7  1  0  0  0  0
  2  3  1  0  0  0  0
  3  4  1  0  0  0  0
  4  5  2  0  0  0  0
  4 20  1  0  0  0  0
  5  6  1  0  0  0  0
  6 10  1  0  0  0  0
  6  7  2  0  0  0  0
  7  8  1  0  0  0  0
  8  9  2  0  0  0  0
  9 10  1  0  0  0  0
  9 21  1  0  0  0  0
 10 11  1  0  0  0  0
 11 18  1  0  0  0  0
 11 17  1  0  0  0  0
 11 12  1  0  0  0  0
 12 13  1  0  0  0  0
 12 22  1  0  0  0  0
 12 23  1  0  0  0  0
 13 14  1  0  0  0  0
 13 24  1  0  0  0  0
 13 25  1  0  0  0  0
 14 19  1  0  0  0  0
 14 15  1  0  0  0  0
 14 17  1  0  0  0  0
 15 16  1  0  0  0  0
 15 26  1  0  0  0  0
 15 27  1  0  0  0  0
 16 28  1  0  0  0  0
M  CHG  1   3  -1
M  END
> <s_m_source_file>
AV-unprocessed.smi

> <i_m_source_file_index>
44

> <i_lp_mmshare_version>
43012

> <i_f3d_flags>
0

> <s_epik_input>
bjFbY0hdW25IXWMoPU8pYyhjMTIpbltjSF1uMltDQEhdM1tDSDJdW0NIMl1bQ0BIXShPMylbQ0gyXVtPSF0=

> <s_epik_cmdline>
J2VwaWtfcHl0aG9uJywgJy1waCcsICc3LjAnLCAnLXRuJywgJzgnLCAnLW1hJywgJzIwMCcsICctbWV0YWxfYmluZGluZycsICctaW1hZScsICc8aW5maWxlLm1hZT4nLCAnLW9tYWUnLCAnPG91dGZpbGUubWFlPic=

> <r_lp_tautomer_probability>
0.85571

> <r_epik_Ionization_Penalty>
2.55863

> <r_epik_Ionization_Penalty_Charging>
1.36424e-10

> <r_epik_Ionization_Penalty_Neutral>
2.55863

> <r_epik_State_Penalty>
2.63326

> <r_epik_Charging_Adjusted_Penalty>
2.63326

> <i_epik_Tot_Q>
-1

> <i_epik_Tot_abs_Q>
1

> <r_epik_Metal_State_Penalty>
0.475154

> <b_epik_Metal_Only>
1

> <s_epik_Chemistry_Notes>
This compound contains an acetal/aminal-like group ( X-CH(R)-Y where X, Y are N, S, or O) that may be acid/base labile, releasing an aldehyde.

> <s_lp_Force_Field>
OPLS_2005

> <r_lp_Energy>
44.8592

> <b_lp_Chiralities_Consistent>
1

> <s_lp_Variant>
AV-unprocessed.smi:44-12

> <Gold.Version>
5.8.1

> <Gold.Id.Protein>
6NUR|6NUR_protein|mol2

> <Gold.PLP.Fitness>
40.5178

> <Gold.PLP.PLP>
-28.2919

> <Gold.PLP.part.hbond>
-3.6034

> <Gold.PLP.part.metal>
0.0000

> <Gold.PLP.part.buried>
-4.6766

> <Gold.PLP.part.nonpolar>
-23.9590

> <Gold.PLP.part.repulsive>
3.2538

> <Gold.PLP.ligand.clash>
0.0000

> <Gold.PLP.ligand.torsion>
0.0545

> <Gold.PLP.Chemscore.Hbond>
2.0000

> <Gold.PLP.Chemscore.CHOScore>
2.1052

> <Gold.PLP.Chemscore.Metal>
0.0000

> <Gold.Chemscore.Hbonds>
donor molecule, donor type, donor heavy atom, donor atom, acceptor molecule, acceptor atom, score
      L1  H    16    28       P1  7948  1.00
      P1  H  7997  8008       L1     1  1.00
      L1  C     4    20       P1  7948  0.34
      L1  C     4    20       P1  7949  0.77
      L1  C     9    21       P1  8028  1.00

> <Gold.PLP.Chemscore.Internal.Correction>
0.0195

> <Gold.Rescore>
     Score         DG    S(hbond)    S(metal)    S(lipo)     H(rot)  DE(clash)    DE(int)     intcor
      6.41      -9.17       1.97        0.00      24.84       2.26       1.11       1.65       ----

> <Gold.Chemscore.Fitness>
6.4114

> <Gold.Chemscore.DG>
-9.1709

> <Gold.Chemscore.ZeroCoef>
-5.4800

> <Gold.Chemscore.Hbond>
1.9661

> <Gold.Chemscore.Metal>
0.0000

> <Gold.Chemscore.Lipo>
24.8413

> <Gold.Chemscore.Internal_Hbond>
0.0000

> <Gold.Chemscore.DEClash>
1.1095

> <Gold.Chemscore.DEInternal>
1.6499

> <Gold.Chemscore.Rot>
2.2588

> <Gold.Chemscore.Internal.Correction>
   9.000000E+99

> <Gold.Chemscore.Hbonds>
donor molecule, donor type, donor heavy atom, donor atom, acceptor molecule, acceptor atom, score
      L1  H    16    28       P1  7948  0.99
      P1  H  7997  8008       L1     1  0.81

> <Gold.Chemscore.Hbond.Weighted>
-6.5669

> <Gold.Chemscore.Metal.Weighted>
-0.0000

> <Gold.Chemscore.Lipo.Weighted>
-2.9064

> <Gold.Chemscore.Internal_Hbond.Weighted>
0.0000

> <Gold.Chemscore.DEClash.Weighted>
1.1095

> <Gold.Chemscore.DEInternal.Weighted>
1.6499

> <Gold.Chemscore.Rot.Weighted>
5.7825

> <Gold.Chemscore.Internal.Correction.Weighted>
   9.000000E+99

> <Gold.Protein.RotatedTorsions>
[ 6907 6896 6895 6894 ] final -175.25 input  -60.11 | X-H torsion
[ 7974 7965 7964 7962 ] final   15.48 input  175.53 | X-H torsion
[ 8008 7997 7996 7995 ] final  -53.51 input   59.86 | X-H torsion
[ 10167 10162 10161 10158 ] final   33.56 input  -65.29 | X-H torsion
[ 10718 10713 10712 10709 ] final -169.98 input   66.30 | X-H torsion
[ 10763 10752 10751 10750 ] final -120.63 input  -60.55 | X-H torsion
[ 11005 11000 10999 10996 ] final -118.47 input  -57.11 | X-H torsion

> <Gold.Protein.ActiveResidues>
 VAL166  LYS551  ARG553  GLY616  TRP617  ASP618  TYR619  PRO620  LYS621  CYS622 
 ASP623  PHE694  ASN695  SER759  ASP760  ASP761  ALA762  ILE779  LEU786  VAL792 
 PHE793  MET794  SER795  GLU796  ALA797  LYS798  CYS799  TRP800  GLU811  SER814 

> <Gold.Protein.RotatedAtoms>
  151.5855  133.3372  159.3016 H   0  0  0  0  0  0  0  0  0  0  0  0  # atno 6907 bound_to 6896
  150.8289  134.7536  159.6848 H   0  0  0  0  0  0  0  0  0  0  0  0  # atno 6908 bound_to 6896
  152.4375  134.5663  159.9960 H   0  0  0  0  0  0  0  0  0  0  0  0  # atno 6909 bound_to 6896
  146.2277  139.8888  142.8558 H   0  0  0  0  0  0  0  0  0  0  0  0  # atno 7974 bound_to 7965
  154.4135  140.1198  156.5165 H   0  0  0  0  0  0  0  0  0  0  0  0  # atno 8008 bound_to 7997
  155.6746  140.3496  155.4812 H   0  0  0  0  0  0  0  0  0  0  0  0  # atno 8009 bound_to 7997
  155.9603  140.1122  157.0891 H   0  0  0  0  0  0  0  0  0  0  0  0  # atno 8010 bound_to 7997
  140.4396  144.1207  150.6172 H   0  0  0  0  0  0  0  0  0  0  0  0  # atno 10167 bound_to 10162
  156.7195  130.9264  151.3096 H   0  0  0  0  0  0  0  0  0  0  0  0  # atno 10718 bound_to 10713
  154.8649  135.4196  154.2490 H   0  0  0  0  0  0  0  0  0  0  0  0  # atno 10763 bound_to 10752
  153.3440  135.6995  153.6849 H   0  0  0  0  0  0  0  0  0  0  0  0  # atno 10764 bound_to 10752
  153.5815  135.3572  155.2849 H   0  0  0  0  0  0  0  0  0  0  0  0  # atno 10765 bound_to 10752
  141.0283  134.0019  157.3181 H   0  0  0  0  0  0  0  0  0  0  0  0  # atno 11005 bound_to 11000
  145.2438  141.0019  143.3920 LP  0  0  0  0  0  0  0  0  0  0  0  0  # atno 17320 bound_to 7965
  144.9430  139.4167  143.6439 LP  0  0  0  0  0  0  0  0  0  0  0  0  # atno 17321 bound_to 7965
  140.4334  143.2558  151.9566 LP  0  0  0  0  0  0  0  0  0  0  0  0  # atno 17342 bound_to 10162
  139.4789  144.5723  151.8069 LP  0  0  0  0  0  0  0  0  0  0  0  0  # atno 17343 bound_to 10162
  157.6904  130.9227  150.0498 LP  0  0  0  0  0  0  0  0  0  0  0  0  # atno 17370 bound_to 10713
  156.1605  130.3644  149.9307 LP  0  0  0  0  0  0  0  0  0  0  0  0  # atno 17371 bound_to 10713
  139.9191  135.0199  156.7995 LP  0  0  0  0  0  0  0  0  0  0  0  0  # atno 17394 bound_to 11000
  140.6451  133.9782  155.7727 LP  0  0  0  0  0  0  0  0  0  0  0  0  # atno 17395 bound_to 11000

$$$$
