AV-unprocessed.smi:1240|AV-procd|sdf|5202|dock4
  -GOLD-   22720 4293D 1   1.00000     0.00000
 Structure written by MMmdl.
 48 50  0  0  0  0  0  0  0  0  2 V2000
  144.5892  136.6491  151.9227 O   0  0  0  0  0  0  0  0  0  0  0  0
  145.7884  136.3719  151.9351 C   0  0  0  0  0  0  0  0  0  0  0  0
  146.7245  137.1941  152.4311 N   0  0  0  0  0  0  0  0  0  0  0  0
  146.4566  138.5159  152.9875 C   0  0  0  0  0  0  0  0  0  0  0  0
  147.7404  139.3375  153.3002 C   0  0  1  0  0  0  0  0  0  0  0  0
  147.4964  140.5515  154.2403 C   0  0  1  0  0  0  0  0  0  0  0  0
  146.8222  141.7334  153.5620 C   0  0  0  0  0  0  0  0  0  0  0  0
  146.3156  142.5466  154.7469 C   0  0  0  0  0  0  0  0  0  0  0  0
  145.9917  141.5925  155.7504 O   0  0  0  0  0  0  0  0  0  0  0  0
  146.5195  140.3175  155.3997 C   0  0  0  0  0  0  0  0  0  0  0  0
  148.8270  138.4759  153.8565 N   0  3  0  0  0  0  0  0  0  0  0  0
  150.1331  139.1429  154.0923 C   0  0  0  0  0  0  0  0  0  0  0  0
  151.1887  138.1008  154.4977 C   0  0  0  0  0  0  0  0  0  0  0  0
  150.7475  137.4024  155.6559 O   0  0  0  0  0  0  0  0  0  0  0  0
  149.5354  136.6940  155.4254 C   0  0  0  0  0  0  0  0  0  0  0  0
  148.4211  137.6829  155.0430 C   0  0  0  0  0  0  0  0  0  0  0  0
  146.3329  135.2266  151.4886 N   0  0  0  0  0  0  0  0  0  0  0  0
  145.6973  134.1118  150.8752 C   0  0  0  0  0  0  0  0  0  0  0  0
  146.5199  133.0584  150.4247 C   0  0  0  0  0  0  0  0  0  0  0  0
  145.9212  131.9481  149.7965 C   0  0  0  0  0  0  0  0  0  0  0  0
  144.5915  131.8390  149.5934 N   0  0  0  0  0  0  0  0  0  0  0  0
  143.8060  132.8524  150.0148 C   0  0  0  0  0  0  0  0  0  0  0  0
  144.3024  134.0062  150.6542 C   0  0  0  0  0  0  0  0  0  0  0  0
  147.6877  136.8916  152.4107 H   0  0  0  0  0  0  0  0  0  0  0  0
  145.8353  139.0469  152.2662 H   0  0  0  0  0  0  0  0  0  0  0  0
  145.8443  138.3905  153.8810 H   0  0  0  0  0  0  0  0  0  0  0  0
  148.1229  139.7431  152.3624 H   0  0  0  0  0  0  0  0  0  0  0  0
  148.4435  140.8913  154.6617 H   0  0  0  0  0  0  0  0  0  0  0  0
  147.4945  142.3065  152.9228 H   0  0  0  0  0  0  0  0  0  0  0  0
  145.9802  141.3956  152.9559 H   0  0  0  0  0  0  0  0  0  0  0  0
  147.1035  143.1977  155.1272 H   0  0  0  0  0  0  0  0  0  0  0  0
  145.4561  143.1668  154.4915 H   0  0  0  0  0  0  0  0  0  0  0  0
  145.6896  139.6820  155.0879 H   0  0  0  0  0  0  0  0  0  0  0  0
  146.9974  139.8531  156.2624 H   0  0  0  0  0  0  0  0  0  0  0  0
  150.4645  139.6655  153.1955 H   0  0  0  0  0  0  0  0  0  0  0  0
  150.0415  139.8859  154.8851 H   0  0  0  0  0  0  0  0  0  0  0  0
  151.3786  137.3994  153.6835 H   0  0  0  0  0  0  0  0  0  0  0  0
  152.1355  138.5929  154.7214 H   0  0  0  0  0  0  0  0  0  0  0  0
  149.6801  135.9473  154.6428 H   0  0  0  0  0  0  0  0  0  0  0  0
  149.2637  136.1544  156.3330 H   0  0  0  0  0  0  0  0  0  0  0  0
  148.2118  138.3432  155.8848 H   0  0  0  0  0  0  0  0  0  0  0  0
  147.5040  137.1322  154.8308 H   0  0  0  0  0  0  0  0  0  0  0  0
  147.3266  135.1240  151.6347 H   0  0  0  0  0  0  0  0  0  0  0  0
  147.5913  133.0932  150.5584 H   0  0  0  0  0  0  0  0  0  0  0  0
  146.5282  131.1267  149.4458 H   0  0  0  0  0  0  0  0  0  0  0  0
  142.7471  132.7443  149.8316 H   0  0  0  0  0  0  0  0  0  0  0  0
  143.6085  134.7793  150.9440 H   0  0  0  0  0  0  0  0  0  0  0  0
  148.9996  137.7887  153.1364 H   0  0  0  0  0  0  0  0  0  0  0  0
  1  2  2  0  0  0  0
  2  3  1  0  0  0  0
  2 17  1  0  0  0  0
  3  4  1  0  0  0  0
  3 24  1  0  0  0  0
  4  5  1  0  0  0  0
  4 25  1  0  0  0  0
  4 26  1  0  0  0  0
  5  6  1  0  0  0  0
  5 11  1  0  0  0  0
  5 27  1  0  0  0  0
  6 10  1  0  0  0  0
  6  7  1  0  0  0  0
  6 28  1  0  0  0  0
  7  8  1  0  0  0  0
  7 29  1  0  0  0  0
  7 30  1  0  0  0  0
  8  9  1  0  0  0  0
  8 31  1  0  0  0  0
  8 32  1  0  0  0  0
  9 10  1  0  0  0  0
 10 33  1  0  0  0  0
 10 34  1  0  0  0  0
 11 16  1  0  0  0  0
 11 12  1  0  0  0  0
 11 48  1  0  0  0  0
 12 13  1  0  0  0  0
 12 35  1  0  0  0  0
 12 36  1  0  0  0  0
 13 14  1  0  0  0  0
 13 37  1  0  0  0  0
 13 38  1  0  0  0  0
 14 15  1  0  0  0  0
 15 16  1  0  0  0  0
 15 39  1  0  0  0  0
 15 40  1  0  0  0  0
 16 41  1  0  0  0  0
 16 42  1  0  0  0  0
 17 18  1  0  0  0  0
 17 43  1  0  0  0  0
 18 23  1  0  0  0  0
 18 19  2  0  0  0  0
 19 20  1  0  0  0  0
 19 44  1  0  0  0  0
 20 21  2  0  0  0  0
 20 45  1  0  0  0  0
 21 22  1  0  0  0  0
 22 23  2  0  0  0  0
 22 46  1  0  0  0  0
 23 47  1  0  0  0  0
M  CHG  1  11   1
M  END
> <s_m_source_file>
AV-unprocessed.smi

> <i_m_source_file_index>
1240

> <i_lp_mmshare_version>
43012

> <i_f3d_flags>
0

> <s_epik_input>
W2NIXTFbY0hdbltjSF1bY0hdYzFbTkhdQyg9TylbTkhdW0NIMl1bQ0BIXShbQ0BASF0yW0NIMl1bQ0gyXU9bQ0gyXTIpTjNbQ0gyXVtDSDJdT1tDSDJdW0NIMl0z

> <s_epik_cmdline>
J2VwaWtfcHl0aG9uJywgJy1waCcsICc3LjAnLCAnLXRuJywgJzgnLCAnLW1hJywgJzIwMCcsICctbWV0YWxfYmluZGluZycsICctaW1hZScsICc8aW5maWxlLm1hZT4nLCAnLW9tYWUnLCAnPG91dGZpbGUubWFlPic=

> <r_epik_Ionization_Penalty>
1.08433

> <r_epik_Ionization_Penalty_Charging>
0.98326

> <r_epik_Ionization_Penalty_Neutral>
0.10107

> <r_epik_State_Penalty>
1.11265

> <r_epik_Charging_Adjusted_Penalty>
2.09591

> <i_epik_Tot_Q>
1

> <i_epik_Tot_abs_Q>
1

> <r_epik_Metal_State_Penalty>
1.10731

> <b_epik_Metal_Only>
0

> <s_lp_Force_Field>
OPLS_2005

> <r_lp_Energy>
42.1578

> <b_lp_Chiralities_Consistent>
1

> <s_lp_Variant>
AV-unprocessed.smi:1240-8

> <Gold.Version>
5.8.1

> <Gold.Id.Protein>
6NUR|6NUR_protein|mol2

> <Gold.PLP.Fitness>
53.5825

> <Gold.PLP.PLP>
-37.5284

> <Gold.PLP.part.hbond>
-4.1961

> <Gold.PLP.part.metal>
0.0000

> <Gold.PLP.part.buried>
-3.6933

> <Gold.PLP.part.nonpolar>
-30.9121

> <Gold.PLP.part.repulsive>
1.2119

> <Gold.PLP.ligand.clash>
0.0000

> <Gold.PLP.ligand.torsion>
0.6816

> <Gold.PLP.Chemscore.Hbond>
3.9252

> <Gold.PLP.Chemscore.CHOScore>
1.7881

> <Gold.PLP.Chemscore.Metal>
0.0000

> <Gold.Chemscore.Hbonds>
donor molecule, donor type, donor heavy atom, donor atom, acceptor molecule, acceptor atom, score
      L1  H     3    24       P1  7948  0.98
      L1  H    11    48       P1  7948  2.00
      L1  H    17    43       P1  7948  0.82
      P1  H 10785 10796       L1    21  0.11
      L1  C    20    45       P1 10747  0.74
      L1  C    22    46       P1 10186  1.00

> <Gold.PLP.Chemscore.Internal.Correction>
0.2775

> <Gold.Rescore>
     Score         DG    S(hbond)    S(metal)    S(lipo)     H(rot)  DE(clash)    DE(int)     intcor
     19.94     -21.63       2.91        0.00      92.17       1.70       0.03       1.66       ----

> <Gold.Chemscore.Fitness>
19.9404

> <Gold.Chemscore.DG>
-21.6329

> <Gold.Chemscore.ZeroCoef>
-5.4800

> <Gold.Chemscore.Hbond>
2.9123

> <Gold.Chemscore.Metal>
0.0000

> <Gold.Chemscore.Lipo>
92.1653

> <Gold.Chemscore.Internal_Hbond>
0.0000

> <Gold.Chemscore.DEClash>
0.0291

> <Gold.Chemscore.DEInternal>
1.6633

> <Gold.Chemscore.Rot>
1.7021

> <Gold.Chemscore.Internal.Correction>
   9.000000E+99

> <Gold.Chemscore.Hbonds>
donor molecule, donor type, donor heavy atom, donor atom, acceptor molecule, acceptor atom, score
      L1  H     3    24       P1  7948  0.90
      L1  H    11    48       P1  7948  0.97
      L1  H    17    43       P1  7948  0.71
      P1  H 10785 10796       L1    21  0.08

> <Gold.Chemscore.Hbond.Weighted>
-9.7270

> <Gold.Chemscore.Metal.Weighted>
-0.0000

> <Gold.Chemscore.Lipo.Weighted>
-10.7833

> <Gold.Chemscore.Internal_Hbond.Weighted>
0.0000

> <Gold.Chemscore.DEClash.Weighted>
0.0291

> <Gold.Chemscore.DEInternal.Weighted>
1.6633

> <Gold.Chemscore.Rot.Weighted>
4.3575

> <Gold.Chemscore.Internal.Correction.Weighted>
   9.000000E+99

> <Gold.Protein.RotatedTorsions>
[ 6907 6896 6895 6894 ] final  -46.41 input  -60.11 | X-H torsion
[ 7974 7965 7964 7962 ] final -146.09 input  175.53 | X-H torsion
[ 8008 7997 7996 7995 ] final  -63.79 input   59.86 | X-H torsion
[ 10167 10162 10161 10158 ] final  106.01 input  -65.29 | X-H torsion
[ 10718 10713 10712 10709 ] final -105.16 input   66.30 | X-H torsion
[ 10763 10752 10751 10750 ] final -115.01 input  -60.55 | X-H torsion
[ 11005 11000 10999 10996 ] final -176.31 input  -57.11 | X-H torsion

> <Gold.Protein.ActiveResidues>
 VAL166  LYS551  ARG553  GLY616  TRP617  ASP618  TYR619  PRO620  LYS621  CYS622 
 ASP623  PHE694  ASN695  SER759  ASP760  ASP761  ALA762  ILE779  LEU786  VAL792 
 PHE793  MET794  SER795  GLU796  ALA797  LYS798  CYS799  TRP800  GLU811  SER814 

> <Gold.Protein.RotatedAtoms>
  150.9116  134.8533  159.7428 H   0  0  0  0  0  0  0  0  0  0  0  0  # atno 6907 bound_to 6896
  152.4947  134.4351  159.9535 H   0  0  0  0  0  0  0  0  0  0  0  0  # atno 6908 bound_to 6896
  151.4393  133.3608  159.2814 H   0  0  0  0  0  0  0  0  0  0  0  0  # atno 6909 bound_to 6896
  144.8183  140.5500  143.5596 H   0  0  0  0  0  0  0  0  0  0  0  0  # atno 7974 bound_to 7965
  154.4574  140.0967  156.6798 H   0  0  0  0  0  0  0  0  0  0  0  0  # atno 8008 bound_to 7997
  155.5095  140.3476  155.4367 H   0  0  0  0  0  0  0  0  0  0  0  0  # atno 8009 bound_to 7997
  156.0805  140.1372  156.9707 H   0  0  0  0  0  0  0  0  0  0  0  0  # atno 8010 bound_to 7997
  139.7045  144.7088  151.1130 H   0  0  0  0  0  0  0  0  0  0  0  0  # atno 10167 bound_to 10162
  156.0334  130.5550  150.7500 H   0  0  0  0  0  0  0  0  0  0  0  0  # atno 10718 bound_to 10713
  154.8464  135.4397  154.1596 H   0  0  0  0  0  0  0  0  0  0  0  0  # atno 10763 bound_to 10752
  153.2736  135.6947  153.7461 H   0  0  0  0  0  0  0  0  0  0  0  0  # atno 10764 bound_to 10752
  153.6692  135.3421  155.3124 H   0  0  0  0  0  0  0  0  0  0  0  0  # atno 10765 bound_to 10752
  140.4535  134.6321  157.4812 H   0  0  0  0  0  0  0  0  0  0  0  0  # atno 11005 bound_to 11000
  145.5164  139.1478  143.3576 LP  0  0  0  0  0  0  0  0  0  0  0  0  # atno 17320 bound_to 7965
  146.2487  140.5305  142.8903 LP  0  0  0  0  0  0  0  0  0  0  0  0  # atno 17321 bound_to 7965
  140.7718  143.5378  150.9348 LP  0  0  0  0  0  0  0  0  0  0  0  0  # atno 17342 bound_to 10162
  139.9061  143.6777  152.3123 LP  0  0  0  0  0  0  0  0  0  0  0  0  # atno 17343 bound_to 10162
  157.5047  131.0921  151.0272 LP  0  0  0  0  0  0  0  0  0  0  0  0  # atno 17370 bound_to 10713
  157.0643  130.5838  149.5391 LP  0  0  0  0  0  0  0  0  0  0  0  0  # atno 17371 bound_to 10713
  139.9991  134.6865  155.9560 LP  0  0  0  0  0  0  0  0  0  0  0  0  # atno 17394 bound_to 11000
  141.1653  133.6537  156.4459 LP  0  0  0  0  0  0  0  0  0  0  0  0  # atno 17395 bound_to 11000

$$$$
