AV-unprocessed.smi:2124|AV-procd|sdf|8650|dock9
  -GOLD-   2272011393D 1   1.00000     0.00000
 Structure written by MMmdl.
 47 49  0  0  0  0  0  0  0  0  1 V2000
  145.9429  138.0997  152.4768 C   0  0  0  0  0  0  0  0  0  0  0  0
  147.0276  138.8850  153.1834 C   0  0  0  0  0  0  0  0  0  0  0  0
  148.1136  138.3583  153.6449 N   0  0  0  0  0  0  0  0  0  0  0  0
  149.0483  139.1881  154.2796 C   0  0  0  0  0  0  0  0  0  0  0  0
  150.2987  138.4938  154.7911 C   0  0  0  0  0  0  0  0  0  0  0  0
  148.8363  140.5298  154.4196 C   0  0  0  0  0  0  0  0  0  0  0  0
  149.8369  141.4602  155.1030 C   0  0  0  0  0  0  0  0  0  0  0  0
  149.6222  141.6652  156.6039 C   0  0  0  0  0  0  0  0  0  0  0  0
  149.6212  140.6967  157.3630 O   0  0  0  0  0  0  0  0  0  0  0  0
  149.4482  142.9308  157.0153 N   0  0  0  0  0  0  0  0  0  0  0  0
  149.2464  143.3613  158.3971 C   0  0  2  0  0  0  0  0  0  0  0  0
  147.7498  143.6203  158.6374 C   0  0  0  0  0  0  0  0  0  0  0  0
  150.1164  144.6107  158.6719 C   0  0  2  0  0  0  0  0  0  0  0  0
  151.4175  144.6885  157.8398 C   0  0  0  0  0  0  0  0  0  0  0  0
  152.4902  145.0012  158.8995 C   0  0  2  0  0  0  0  0  0  0  0  0
  152.7673  143.7297  159.7218 C   0  0  0  0  0  0  0  0  0  0  0  0
  151.4974  143.6021  160.5825 C   0  0  0  0  0  0  0  0  0  0  0  0
  150.6441  144.8001  160.1163 C   0  0  1  0  0  0  0  0  0  0  0  0
  151.7204  145.8590  159.8971 C   0  0  0  0  0  0  0  0  0  0  0  0
  147.5908  141.1200  153.8907 C   0  0  0  0  0  0  0  0  0  0  0  0
  147.2957  142.3116  153.9669 O   0  0  0  0  0  0  0  0  0  0  0  0
  146.7497  140.2463  153.2935 N   0  0  0  0  0  0  0  0  0  0  0  0
  145.8837  140.6016  152.9155 H   0  0  0  0  0  0  0  0  0  0  0  0
  145.5363  137.3385  153.1429 H   0  0  0  0  0  0  0  0  0  0  0  0
  146.3526  137.6024  151.5973 H   0  0  0  0  0  0  0  0  0  0  0  0
  145.1239  138.7441  152.1536 H   0  0  0  0  0  0  0  0  0  0  0  0
  151.1872  138.8877  154.2979 H   0  0  0  0  0  0  0  0  0  0  0  0
  150.2607  137.4202  154.6028 H   0  0  0  0  0  0  0  0  0  0  0  0
  150.4042  138.6374  155.8657 H   0  0  0  0  0  0  0  0  0  0  0  0
  150.8424  141.0745  154.9313 H   0  0  0  0  0  0  0  0  0  0  0  0
  149.8363  142.4407  154.6256 H   0  0  0  0  0  0  0  0  0  0  0  0
  149.4654  143.6580  156.3149 H   0  0  0  0  0  0  0  0  0  0  0  0
  149.5689  142.5571  159.0591 H   0  0  0  0  0  0  0  0  0  0  0  0
  147.5556  143.8967  159.6736 H   0  0  0  0  0  0  0  0  0  0  0  0
  147.1573  142.7296  158.4253 H   0  0  0  0  0  0  0  0  0  0  0  0
  147.3791  144.4256  158.0025 H   0  0  0  0  0  0  0  0  0  0  0  0
  149.5135  145.4890  158.4323 H   0  0  0  0  0  0  0  0  0  0  0  0
  151.6397  143.7618  157.3091 H   0  0  0  0  0  0  0  0  0  0  0  0
  151.3508  145.4857  157.0984 H   0  0  0  0  0  0  0  0  0  0  0  0
  153.3896  145.4616  158.4896 H   0  0  0  0  0  0  0  0  0  0  0  0
  152.9324  142.8557  159.0907 H   0  0  0  0  0  0  0  0  0  0  0  0
  153.6471  143.8574  160.3537 H   0  0  0  0  0  0  0  0  0  0  0  0
  150.9999  142.6407  160.4643 H   0  0  0  0  0  0  0  0  0  0  0  0
  151.7487  143.7057  161.6388 H   0  0  0  0  0  0  0  0  0  0  0  0
  149.8713  145.0884  160.8296 H   0  0  0  0  0  0  0  0  0  0  0  0
  152.2908  146.0919  160.7981 H   0  0  0  0  0  0  0  0  0  0  0  0
  151.3389  146.7866  159.4664 H   0  0  0  0  0  0  0  0  0  0  0  0
  1  2  1  0  0  0  0
  1 24  1  0  0  0  0
  1 25  1  0  0  0  0
  1 26  1  0  0  0  0
  2 22  1  0  0  0  0
  2  3  2  0  0  0  0
  3  4  1  0  0  0  0
  4  5  1  0  0  0  0
  4  6  2  0  0  0  0
  5 27  1  0  0  0  0
  5 28  1  0  0  0  0
  5 29  1  0  0  0  0
  6  7  1  0  0  0  0
  6 20  1  0  0  0  0
  7  8  1  0  0  0  0
  7 30  1  0  0  0  0
  7 31  1  0  0  0  0
  8  9  2  0  0  0  0
  8 10  1  0  0  0  0
 10 11  1  0  0  0  0
 10 32  1  0  0  0  0
 11 12  1  0  0  0  0
 11 13  1  0  0  0  0
 11 33  1  0  0  0  0
 12 34  1  0  0  0  0
 12 35  1  0  0  0  0
 12 36  1  0  0  0  0
 13 18  1  0  0  0  0
 13 14  1  0  0  0  0
 13 37  1  0  0  0  0
 14 15  1  0  0  0  0
 14 38  1  0  0  0  0
 14 39  1  0  0  0  0
 15 19  1  0  0  0  0
 15 16  1  0  0  0  0
 15 40  1  0  0  0  0
 16 17  1  0  0  0  0
 16 41  1  0  0  0  0
 16 42  1  0  0  0  0
 17 18  1  0  0  0  0
 17 43  1  0  0  0  0
 17 44  1  0  0  0  0
 18 19  1  0  0  0  0
 18 45  1  0  0  0  0
 19 46  1  0  0  0  0
 19 47  1  0  0  0  0
 20 21  2  0  0  0  0
 20 22  1  0  0  0  0
 22 23  1  0  0  0  0
M  END
> <s_m_source_file>
AV-unprocessed.smi

> <i_m_source_file_index>
2124

> <i_lp_mmshare_version>
43012

> <i_f3d_flags>
0

> <s_epik_input>
W0NIM11jMW5jKFtDSDNdKWMoYyg9TylbbkhdMSlbQ0gyXUMoPU8pW05IXVtDQEhdKFtDSDNdKVtDQEhdKFtDSDJdW0NASF0yMylbQ0BIXShbQ0gyXTMpW0NIMl1bQ0gyXTI=

> <s_epik_cmdline>
J2VwaWtfcHl0aG9uJywgJy1waCcsICc3LjAnLCAnLXRuJywgJzgnLCAnLW1hJywgJzIwMCcsICctbWV0YWxfYmluZGluZycsICctaW1hZScsICc8aW5maWxlLm1hZT4nLCAnLW9tYWUnLCAnPG91dGZpbGUubWFlPic=

> <r_lp_tautomer_probability>
0.839158

> <r_epik_Ionization_Penalty>
0.000383628

> <r_epik_Ionization_Penalty_Charging>
0.00035045

> <r_epik_Ionization_Penalty_Neutral>
3.31781e-05

> <r_epik_State_Penalty>
0.09125

> <r_epik_Charging_Adjusted_Penalty>
0.0916005

> <i_epik_Tot_Q>
0

> <i_epik_Tot_abs_Q>
0

> <r_epik_Metal_State_Penalty>
0.255229

> <b_epik_Metal_Only>
0

> <s_lp_Force_Field>
OPLS_2005

> <r_lp_Energy>
53.1602

> <b_lp_Chiralities_Consistent>
1

> <s_lp_Variant>
AV-unprocessed.smi:2124-1

> <Gold.Version>
5.8.1

> <Gold.Id.Protein>
6NUR|6NUR_protein|mol2

> <Gold.PLP.Fitness>
45.4802

> <Gold.PLP.PLP>
-43.0005

> <Gold.PLP.part.hbond>
-1.6727

> <Gold.PLP.part.metal>
0.0000

> <Gold.PLP.part.buried>
-4.9158

> <Gold.PLP.part.nonpolar>
-40.9432

> <Gold.PLP.part.repulsive>
2.5766

> <Gold.PLP.ligand.clash>
0.0000

> <Gold.PLP.ligand.torsion>
1.3626

> <Gold.PLP.Chemscore.Hbond>
1.7313

> <Gold.PLP.Chemscore.CHOScore>
0.0000

> <Gold.PLP.Chemscore.Metal>
0.0000

> <Gold.Chemscore.Hbonds>
donor molecule, donor type, donor heavy atom, donor atom, acceptor molecule, acceptor atom, score
      L1  H    10    32       P1  8028  0.60
      L1  H    22    23       P1 10175  0.47

> <Gold.PLP.Chemscore.Internal.Correction>
0.0112

> <Gold.Rescore>
     Score         DG    S(hbond)    S(metal)    S(lipo)     H(rot)  DE(clash)    DE(int)     intcor
     17.26     -18.81       1.21        0.00     115.68       1.65       0.37       1.19       ----

> <Gold.Chemscore.Fitness>
17.2566

> <Gold.Chemscore.DG>
-18.8081

> <Gold.Chemscore.ZeroCoef>
-5.4800

> <Gold.Chemscore.Hbond>
1.2056

> <Gold.Chemscore.Metal>
0.0000

> <Gold.Chemscore.Lipo>
115.6762

> <Gold.Chemscore.Internal_Hbond>
0.0000

> <Gold.Chemscore.DEClash>
0.3662

> <Gold.Chemscore.DEInternal>
1.1853

> <Gold.Chemscore.Rot>
1.6534

> <Gold.Chemscore.Internal.Correction>
   9.000000E+99

> <Gold.Chemscore.Hbonds>
donor molecule, donor type, donor heavy atom, donor atom, acceptor molecule, acceptor atom, score
      L1  H    10    32       P1  8028  0.58
      L1  H    22    23       P1 10175  0.33

> <Gold.Chemscore.Hbond.Weighted>
-4.0266

> <Gold.Chemscore.Metal.Weighted>
-0.0000

> <Gold.Chemscore.Lipo.Weighted>
-13.5341

> <Gold.Chemscore.Internal_Hbond.Weighted>
0.0000

> <Gold.Chemscore.DEClash.Weighted>
0.3662

> <Gold.Chemscore.DEInternal.Weighted>
1.1853

> <Gold.Chemscore.Rot.Weighted>
4.2326

> <Gold.Chemscore.Internal.Correction.Weighted>
   9.000000E+99

> <Gold.Protein.RotatedTorsions>
[ 6907 6896 6895 6894 ] final  117.13 input  -60.11 | X-H torsion
[ 7974 7965 7964 7962 ] final -171.88 input  175.53 | X-H torsion
[ 8008 7997 7996 7995 ] final   72.23 input   59.86 | X-H torsion
[ 10167 10162 10161 10158 ] final  -50.79 input  -65.29 | X-H torsion
[ 10718 10713 10712 10709 ] final  152.92 input   66.30 | X-H torsion
[ 10763 10752 10751 10750 ] final  171.65 input  -60.55 | X-H torsion
[ 11005 11000 10999 10996 ] final -113.97 input  -57.11 | X-H torsion

> <Gold.Protein.ActiveResidues>
 VAL166  LYS551  ARG553  GLY616  TRP617  ASP618  TYR619  PRO620  LYS621  CYS622 
 ASP623  PHE694  ASN695  SER759  ASP760  ASP761  ALA762  ILE779  LEU786  VAL792 
 PHE793  MET794  SER795  GLU796  ALA797  LYS798  CYS799  TRP800  GLU811  SER814 

> <Gold.Protein.RotatedAtoms>
  152.4633  133.7868  159.6879 H   0  0  0  0  0  0  0  0  0  0  0  0  # atno 6907 bound_to 6896
  150.8586  133.7668  159.3006 H   0  0  0  0  0  0  0  0  0  0  0  0  # atno 6908 bound_to 6896
  151.5241  135.1070  159.9938 H   0  0  0  0  0  0  0  0  0  0  0  0  # atno 6909 bound_to 6896
  144.7152  140.1855  143.6354 H   0  0  0  0  0  0  0  0  0  0  0  0  # atno 7974 bound_to 7965
  155.7657  140.3485  155.5221 H   0  0  0  0  0  0  0  0  0  0  0  0  # atno 8008 bound_to 7997
  155.8870  140.1011  157.1466 H   0  0  0  0  0  0  0  0  0  0  0  0  # atno 8009 bound_to 7997
  154.4030  140.1311  156.4256 H   0  0  0  0  0  0  0  0  0  0  0  0  # atno 8010 bound_to 7997
  140.6620  143.2644  151.4411 H   0  0  0  0  0  0  0  0  0  0  0  0  # atno 10167 bound_to 10162
  157.2516  131.0780  151.1726 H   0  0  0  0  0  0  0  0  0  0  0  0  # atno 10718 bound_to 10713
  154.4149  135.2757  155.2013 H   0  0  0  0  0  0  0  0  0  0  0  0  # atno 10763 bound_to 10752
  154.3983  135.6050  153.5886 H   0  0  0  0  0  0  0  0  0  0  0  0  # atno 10764 bound_to 10752
  152.9832  135.5920  154.4436 H   0  0  0  0  0  0  0  0  0  0  0  0  # atno 10765 bound_to 10752
  141.0581  133.9580  157.2717 H   0  0  0  0  0  0  0  0  0  0  0  0  # atno 11005 bound_to 11000
  145.8817  139.2326  143.1601 LP  0  0  0  0  0  0  0  0  0  0  0  0  # atno 17320 bound_to 7965
  145.9989  140.8538  143.0029 LP  0  0  0  0  0  0  0  0  0  0  0  0  # atno 17321 bound_to 7965
  139.5857  144.1610  152.2025 LP  0  0  0  0  0  0  0  0  0  0  0  0  # atno 17342 bound_to 10162
  140.0949  144.5589  150.7029 LP  0  0  0  0  0  0  0  0  0  0  0  0  # atno 17343 bound_to 10162
  157.3272  130.6967  149.6303 LP  0  0  0  0  0  0  0  0  0  0  0  0  # atno 17370 bound_to 10713
  155.9666  130.4318  150.4936 LP  0  0  0  0  0  0  0  0  0  0  0  0  # atno 17371 bound_to 10713
  139.9408  135.0191  156.8701 LP  0  0  0  0  0  0  0  0  0  0  0  0  # atno 17394 bound_to 11000
  140.5924  134.0249  155.7505 LP  0  0  0  0  0  0  0  0  0  0  0  0  # atno 17395 bound_to 11000

$$$$
