AV-unprocessed.smi:109|AV-procd|sdf|1033|dock1
  -GOLD-   2262018 43D 1   1.00000     0.00000
 Structure written by MMmdl.
 58 61  0  0  0  0  0  0  0  0  1 V2000
  150.0921  140.7247  154.8129 O   0  0  0  0  0  0  0  0  0  0  0  0
  149.3532  141.2858  155.8760 C   0  0  0  0  0  0  0  0  0  0  0  0
  150.1004  141.0723  157.2037 C   0  0  0  0  0  0  0  0  0  0  0  0
  151.6335  141.2701  157.1073 C   0  0  2  0  0  0  0  0  0  0  0  0
  152.2965  139.9645  157.1495 N   0  0  0  0  0  0  0  0  0  0  0  0
  151.6730  138.8498  157.5929 C   0  0  0  0  0  0  0  0  0  0  0  0
  151.5348  138.5921  158.9191 N   0  0  0  0  0  0  0  0  0  0  0  0
  150.9173  137.4790  159.3237 C   0  0  0  0  0  0  0  0  0  0  0  0
  150.3754  136.5108  158.5826 N   0  0  0  0  0  0  0  0  0  0  0  0
  150.5109  136.7619  157.2484 C   0  0  0  0  0  0  0  0  0  0  0  0
  151.1414  137.9037  156.6793 C   0  0  0  0  0  0  0  0  0  0  0  0
  151.0916  137.8282  155.2940 N   0  0  0  0  0  0  0  0  0  0  0  0
  150.4644  136.7066  155.0622 C   0  0  0  0  0  0  0  0  0  0  0  0
  150.0777  136.0006  156.1799 N   0  0  0  0  0  0  0  0  0  0  0  0
  149.3459  134.6917  156.2129 C   0  0  1  0  0  0  0  0  0  0  0  0
  148.9263  134.3619  154.9207 O   0  0  0  0  0  0  0  0  0  0  0  0
  149.5025  133.1240  154.5037 C   0  0  2  0  0  0  0  0  0  0  0  0
  148.5320  132.3957  153.5626 C   0  0  0  0  0  0  0  0  0  0  0  0
  148.5408  133.0130  152.2933 O   0  0  0  0  0  0  0  0  0  0  0  0
  149.7415  132.3963  155.8276 C   0  0  1  0  0  0  0  0  0  0  0  0
  150.6842  131.3456  155.7252 O   0  0  0  0  0  0  0  0  0  0  0  0
  150.2013  133.5237  156.7414 C   0  0  1  0  0  0  0  0  0  0  0  0
  151.5988  133.7593  156.6650 O   0  0  0  0  0  0  0  0  0  0  0  0
  152.2184  142.1835  158.2233 C   0  0  0  0  0  0  0  0  0  0  0  0
  152.1347  141.5509  159.6358 C   0  0  0  0  0  0  0  0  0  0  0  0
  152.6634  142.4867  160.7355 C   0  0  0  0  0  0  0  0  0  0  0  0
  151.9356  143.8358  160.7225 C   0  0  0  0  0  0  0  0  0  0  0  0
  152.0443  144.4908  159.3410 C   0  0  0  0  0  0  0  0  0  0  0  0
  151.5058  143.5609  158.2430 C   0  0  0  0  0  0  0  0  0  0  0  0
  148.4666  134.8827  156.8292 H   0  0  0  0  0  0  0  0  0  0  0  0
  150.4603  133.3065  154.0138 H   0  0  0  0  0  0  0  0  0  0  0  0
  148.7984  131.9941  156.2012 H   0  0  0  0  0  0  0  0  0  0  0  0
  149.9462  133.3262  157.7829 H   0  0  0  0  0  0  0  0  0  0  0  0
  149.5358  140.1190  154.3472 H   0  0  0  0  0  0  0  0  0  0  0  0
  149.2039  142.3455  155.6697 H   0  0  0  0  0  0  0  0  0  0  0  0
  148.3699  140.8160  155.9096 H   0  0  0  0  0  0  0  0  0  0  0  0
  149.6789  141.7812  157.9141 H   0  0  0  0  0  0  0  0  0  0  0  0
  149.8818  140.0777  157.5948 H   0  0  0  0  0  0  0  0  0  0  0  0
  151.8393  141.7735  156.1630 H   0  0  0  0  0  0  0  0  0  0  0  0
  153.2613  139.9605  156.8507 H   0  0  0  0  0  0  0  0  0  0  0  0
  150.8477  137.3446  160.3931 H   0  0  0  0  0  0  0  0  0  0  0  0
  150.2624  136.3609  154.0589 H   0  0  0  0  0  0  0  0  0  0  0  0
  148.8445  131.3602  153.4250 H   0  0  0  0  0  0  0  0  0  0  0  0
  147.5211  132.3783  153.9708 H   0  0  0  0  0  0  0  0  0  0  0  0
  148.8357  132.3809  151.6553 H   0  0  0  0  0  0  0  0  0  0  0  0
  150.2931  130.5565  156.0679 H   0  0  0  0  0  0  0  0  0  0  0  0
  151.7415  134.6940  156.6442 H   0  0  0  0  0  0  0  0  0  0  0  0
  153.2731  142.3549  158.0015 H   0  0  0  0  0  0  0  0  0  0  0  0
  151.1020  141.2771  159.8559 H   0  0  0  0  0  0  0  0  0  0  0  0
  152.7177  140.6329  159.6857 H   0  0  0  0  0  0  0  0  0  0  0  0
  152.5487  142.0135  161.7111 H   0  0  0  0  0  0  0  0  0  0  0  0
  153.7331  142.6473  160.5951 H   0  0  0  0  0  0  0  0  0  0  0  0
  150.8856  143.6908  160.9802 H   0  0  0  0  0  0  0  0  0  0  0  0
  152.3549  144.4949  161.4831 H   0  0  0  0  0  0  0  0  0  0  0  0
  151.4938  145.4321  159.3325 H   0  0  0  0  0  0  0  0  0  0  0  0
  153.0857  144.7393  159.1327 H   0  0  0  0  0  0  0  0  0  0  0  0
  151.6164  144.0676  157.2843 H   0  0  0  0  0  0  0  0  0  0  0  0
  150.4342  143.4153  158.3870 H   0  0  0  0  0  0  0  0  0  0  0  0
  1  2  1  0  0  0  0
  1 34  1  0  0  0  0
  2  3  1  0  0  0  0
  2 35  1  0  0  0  0
  2 36  1  0  0  0  0
  3  4  1  0  0  0  0
  3 37  1  0  0  0  0
  3 38  1  0  0  0  0
  4  5  1  0  0  0  0
  4 24  1  0  0  0  0
  4 39  1  0  0  0  0
  5  6  1  0  0  0  0
  5 40  1  0  0  0  0
  6 11  1  0  0  0  0
  6  7  2  0  0  0  0
  7  8  1  0  0  0  0
  8  9  2  0  0  0  0
  8 41  1  0  0  0  0
  9 10  1  0  0  0  0
 10 14  1  0  0  0  0
 10 11  2  0  0  0  0
 11 12  1  0  0  0  0
 12 13  2  0  0  0  0
 13 14  1  0  0  0  0
 13 42  1  0  0  0  0
 14 15  1  0  0  0  0
 15 30  1  0  0  0  0
 15 22  1  0  0  0  0
 15 16  1  0  0  0  0
 16 17  1  0  0  0  0
 17 31  1  0  0  0  0
 17 18  1  0  0  0  0
 17 20  1  0  0  0  0
 18 19  1  0  0  0  0
 18 43  1  0  0  0  0
 18 44  1  0  0  0  0
 19 45  1  0  0  0  0
 20 32  1  0  0  0  0
 20 21  1  0  0  0  0
 20 22  1  0  0  0  0
 21 46  1  0  0  0  0
 22 33  1  0  0  0  0
 22 23  1  0  0  0  0
 23 47  1  0  0  0  0
 24 29  1  0  0  0  0
 24 25  1  0  0  0  0
 24 48  1  0  0  0  0
 25 26  1  0  0  0  0
 25 49  1  0  0  0  0
 25 50  1  0  0  0  0
 26 27  1  0  0  0  0
 26 51  1  0  0  0  0
 26 52  1  0  0  0  0
 27 28  1  0  0  0  0
 27 53  1  0  0  0  0
 27 54  1  0  0  0  0
 28 29  1  0  0  0  0
 28 55  1  0  0  0  0
 28 56  1  0  0  0  0
 29 57  1  0  0  0  0
 29 58  1  0  0  0  0
M  END
> <s_m_source_file>
AV-unprocessed.smi

> <i_m_source_file_index>
109

> <i_lp_mmshare_version>
43012

> <i_f3d_flags>
0

> <s_epik_input>
W0NIMl0xW0NIMl1bQ0gyXVtDSDJdW0NIMl1bQ0hdMVtDQEhdKFtDSDJdW0NIMl1bT0hdKVtOSF1jKG5bY0hdbjIpYyhjMjMpbltjSF1uM1tDQEBIXTRPW0NASF0oW0NIMl1bT0hdKVtDQEBIXShbT0hdKVtDQEhdNFtPSF0=

> <s_epik_cmdline>
J2VwaWtfcHl0aG9uJywgJy1waCcsICc3LjAnLCAnLXRuJywgJzgnLCAnLW1hJywgJzIwMCcsICctbWV0YWxfYmluZGluZycsICctaW1hZScsICc8aW5maWxlLm1hZT4nLCAnLW9tYWUnLCAnPG91dGZpbGUubWFlPic=

> <r_lp_tautomer_probability>
1

> <r_epik_Ionization_Penalty>
0.000793976

> <r_epik_Ionization_Penalty_Charging>
0

> <r_epik_Ionization_Penalty_Neutral>
0.000793976

> <r_epik_State_Penalty>
-0

> <r_epik_Charging_Adjusted_Penalty>
0

> <i_epik_Tot_Q>
0

> <i_epik_Tot_abs_Q>
0

> <r_epik_Metal_State_Penalty>
-0

> <b_epik_Metal_Only>
0

> <s_epik_Chemistry_Notes>
This compound contains an acetal/aminal-like group ( X-CH(R)-Y where X, Y are N, S, or O) that may be acid/base labile, releasing an aldehyde.

> <s_lp_Force_Field>
OPLS_2005

> <r_lp_Energy>
57.1061

> <b_lp_Chiralities_Consistent>
1

> <s_lp_Variant>
AV-unprocessed.smi:109-3

> <Gold.Version>
5.8.1

> <Gold.Id.Protein>
6NUR|6NUR_protein|mol2

> <Gold.PLP.Fitness>
51.1265

> <Gold.PLP.PLP>
-43.5357

> <Gold.PLP.part.hbond>
-3.6882

> <Gold.PLP.part.metal>
0.0000

> <Gold.PLP.part.buried>
-7.5140

> <Gold.PLP.part.nonpolar>
-32.3019

> <Gold.PLP.part.repulsive>
0.4354

> <Gold.PLP.ligand.clash>
0.0000

> <Gold.PLP.ligand.torsion>
1.9056

> <Gold.PLP.Chemscore.Hbond>
2.8320

> <Gold.PLP.Chemscore.CHOScore>
0.8711

> <Gold.PLP.Chemscore.Metal>
0.0000

> <Gold.Chemscore.Hbonds>
donor molecule, donor type, donor heavy atom, donor atom, acceptor molecule, acceptor atom, score
      L1  H    19    45       P1 10747  0.98
      P1  H  6896  6907       L1     9  0.95
      P1  H  7989  7998       L1     1  0.82
      L1  C    13    42       P1  7948  0.77
      L1  C    13    42       P1  7949  0.12

> <Gold.PLP.Chemscore.Internal.Correction>
0.2927

> <Gold.Rescore>
     Score         DG    S(hbond)    S(metal)    S(lipo)     H(rot)  DE(clash)    DE(int)     intcor
      8.48     -10.63       2.00        0.00     106.41       5.47       0.20       1.94       ----

> <Gold.Chemscore.Fitness>
8.4835

> <Gold.Chemscore.DG>
-10.6280

> <Gold.Chemscore.ZeroCoef>
-5.4800

> <Gold.Chemscore.Hbond>
2.0033

> <Gold.Chemscore.Metal>
0.0000

> <Gold.Chemscore.Lipo>
106.4143

> <Gold.Chemscore.Internal_Hbond>
0.0000

> <Gold.Chemscore.DEClash>
0.2041

> <Gold.Chemscore.DEInternal>
1.9404

> <Gold.Chemscore.Rot>
5.4662

> <Gold.Chemscore.Internal.Correction>
   9.000000E+99

> <Gold.Chemscore.Hbonds>
donor molecule, donor type, donor heavy atom, donor atom, acceptor molecule, acceptor atom, score
      L1  H    19    45       P1 10747  0.90
      P1  H  6896  6907       L1     9  0.19
      P1  H  7989  7998       L1     1  0.20

> <Gold.Chemscore.Hbond.Weighted>
-6.6911

> <Gold.Chemscore.Metal.Weighted>
-0.0000

> <Gold.Chemscore.Lipo.Weighted>
-12.4505

> <Gold.Chemscore.Internal_Hbond.Weighted>
0.0000

> <Gold.Chemscore.DEClash.Weighted>
0.2041

> <Gold.Chemscore.DEInternal.Weighted>
1.9404

> <Gold.Chemscore.Rot.Weighted>
13.9935

> <Gold.Chemscore.Internal.Correction.Weighted>
   9.000000E+99

> <Gold.Protein.RotatedTorsions>
[ 6907 6896 6895 6894 ] final  -46.20 input  -60.11 | X-H torsion
[ 7974 7965 7964 7962 ] final  151.73 input  175.53 | X-H torsion
[ 8008 7997 7996 7995 ] final  110.57 input   59.86 | X-H torsion
[ 10167 10162 10161 10158 ] final    6.45 input  -65.29 | X-H torsion
[ 10718 10713 10712 10709 ] final  -72.88 input   66.30 | X-H torsion
[ 10763 10752 10751 10750 ] final  -70.22 input  -60.55 | X-H torsion
[ 11005 11000 10999 10996 ] final   -2.35 input  -57.11 | X-H torsion

> <Gold.Protein.ActiveResidues>
 VAL166  LYS551  ARG553  GLY616  TRP617  ASP618  TYR619  PRO620  LYS621  CYS622 
 ASP623  PHE694  ASN695  SER759  ASP760  ASP761  ALA762  ILE779  LEU786  VAL792 
 PHE793  MET794  SER795  GLU796  ALA797  LYS798  CYS799  TRP800  GLU811  SER814 

> <Gold.Protein.RotatedAtoms>
  150.9138  134.8555  159.7442 H   0  0  0  0  0  0  0  0  0  0  0  0  # atno 6907 bound_to 6896
  152.4958  134.4319  159.9525 H   0  0  0  0  0  0  0  0  0  0  0  0  # atno 6908 bound_to 6896
  151.4359  133.3617  159.2810 H   0  0  0  0  0  0  0  0  0  0  0  0  # atno 6909 bound_to 6896
  144.8272  139.6576  143.6075 H   0  0  0  0  0  0  0  0  0  0  0  0  # atno 7974 bound_to 7965
  156.2062  140.3036  155.9633 H   0  0  0  0  0  0  0  0  0  0  0  0  # atno 8008 bound_to 7997
  155.2835  140.0439  157.3034 H   0  0  0  0  0  0  0  0  0  0  0  0  # atno 8009 bound_to 7997
  154.5637  140.2328  155.8305 H   0  0  0  0  0  0  0  0  0  0  0  0  # atno 8010 bound_to 7997
  140.6427  143.7736  150.7452 H   0  0  0  0  0  0  0  0  0  0  0  0  # atno 10167 bound_to 10162
  156.0302  130.4382  150.2659 H   0  0  0  0  0  0  0  0  0  0  0  0  # atno 10718 bound_to 10713
  154.4146  135.6001  153.5973 H   0  0  0  0  0  0  0  0  0  0  0  0  # atno 10763 bound_to 10752
  152.9791  135.5937  154.4029 H   0  0  0  0  0  0  0  0  0  0  0  0  # atno 10764 bound_to 10752
  154.3846  135.2841  155.2169 H   0  0  0  0  0  0  0  0  0  0  0  0  # atno 10765 bound_to 10752
  140.6574  133.9351  155.8415 H   0  0  0  0  0  0  0  0  0  0  0  0  # atno 11005 bound_to 11000
  146.2576  139.6338  142.9384 LP  0  0  0  0  0  0  0  0  0  0  0  0  # atno 17320 bound_to 7965
  145.4975  141.0438  143.2559 LP  0  0  0  0  0  0  0  0  0  0  0  0  # atno 17321 bound_to 7965
  140.1370  143.4474  152.2218 LP  0  0  0  0  0  0  0  0  0  0  0  0  # atno 17342 bound_to 10162
  139.5636  144.7421  151.4084 LP  0  0  0  0  0  0  0  0  0  0  0  0  # atno 17343 bound_to 10162
  157.0761  131.0130  151.3173 LP  0  0  0  0  0  0  0  0  0  0  0  0  # atno 17370 bound_to 10713
  157.4963  130.7852  149.7558 LP  0  0  0  0  0  0  0  0  0  0  0  0  # atno 17371 bound_to 10713
  141.0491  134.0510  157.3806 LP  0  0  0  0  0  0  0  0  0  0  0  0  # atno 17394 bound_to 11000
  139.9025  135.0169  156.7334 LP  0  0  0  0  0  0  0  0  0  0  0  0  # atno 17395 bound_to 11000

$$$$
