AV-unprocessed.smi:1059|AV-procd|sdf|4655|dock1
  -GOLD-   22720 3163D 1   1.00000     0.00000
 Structure written by MMmdl.
 54 55  0  0  0  0  0  0  0  0  1 V2000
  152.4703  143.2994  158.6059 C   0  0  0  0  0  0  0  0  0  0  0  0
  152.0418  142.1857  159.5742 C   0  0  0  0  0  0  0  0  0  0  0  0
  153.1675  141.9053  160.5876 C   0  0  0  0  0  0  0  0  0  0  0  0
  151.6129  140.9201  158.7911 C   0  0  0  0  0  0  0  0  0  0  0  0
  150.5213  141.1323  157.7230 C   0  0  0  0  0  0  0  0  0  0  0  0
  149.3953  141.4851  158.0777 O   0  0  0  0  0  0  0  0  0  0  0  0
  150.8318  140.9313  156.4183 N   0  0  0  0  0  0  0  0  0  0  0  0
  152.1645  140.4990  155.9791 C   0  0  0  0  0  0  0  0  0  0  0  0
  152.0847  139.0379  155.5021 C   0  0  0  0  0  0  0  0  0  0  0  0
  151.0282  138.8654  154.3901 C   0  0  0  0  0  0  0  0  0  0  0  0
  150.8573  137.4454  154.0969 N   0  0  0  0  0  0  0  0  0  0  0  0
  150.5119  136.5044  154.9874 C   0  0  0  0  0  0  0  0  0  0  0  0
  150.3108  136.7370  156.1793 O   0  0  0  0  0  0  0  0  0  0  0  0
  150.3962  135.3008  154.4007 N   0  0  0  0  0  0  0  0  0  0  0  0
  150.0696  134.0564  155.0031 C   0  0  0  0  0  0  0  0  0  0  0  0
  149.5741  133.0277  154.1769 C   0  0  0  0  0  0  0  0  0  0  0  0
  149.2616  131.7791  154.7468 C   0  0  0  0  0  0  0  0  0  0  0  0
  149.4687  131.5949  156.1292 C   0  0  0  0  0  0  0  0  0  0  0  0
  149.1606  130.3555  156.7073 N   0  0  0  0  0  0  0  0  0  0  0  0
  147.7368  130.0549  156.6912 C   0  0  0  0  0  0  0  0  0  0  0  0
  150.0437  129.2888  156.2606 C   0  0  0  0  0  0  0  0  0  0  0  0
  149.9589  132.5709  156.9295 N   0  0  0  0  0  0  0  0  0  0  0  0
  150.2526  133.7679  156.3774 C   0  0  0  0  0  0  0  0  0  0  0  0
  149.6817  139.5121  154.7900 C   0  0  0  0  0  0  0  0  0  0  0  0
  149.8811  140.9512  155.2985 C   0  0  0  0  0  0  0  0  0  0  0  0
  153.3330  142.9973  158.0109 H   0  0  0  0  0  0  0  0  0  0  0  0
  152.7399  144.2077  159.1458 H   0  0  0  0  0  0  0  0  0  0  0  0
  151.6647  143.5562  157.9175 H   0  0  0  0  0  0  0  0  0  0  0  0
  151.1795  142.5631  160.1260 H   0  0  0  0  0  0  0  0  0  0  0  0
  154.0605  141.5261  160.0904 H   0  0  0  0  0  0  0  0  0  0  0  0
  152.8709  141.1732  161.3381 H   0  0  0  0  0  0  0  0  0  0  0  0
  153.4483  142.8143  161.1203 H   0  0  0  0  0  0  0  0  0  0  0  0
  152.4828  140.5038  158.2814 H   0  0  0  0  0  0  0  0  0  0  0  0
  151.2746  140.1704  159.5073 H   0  0  0  0  0  0  0  0  0  0  0  0
  152.5031  141.1421  155.1652 H   0  0  0  0  0  0  0  0  0  0  0  0
  152.9196  140.5927  156.7607 H   0  0  0  0  0  0  0  0  0  0  0  0
  153.0615  138.7096  155.1452 H   0  0  0  0  0  0  0  0  0  0  0  0
  151.8357  138.4004  156.3522 H   0  0  0  0  0  0  0  0  0  0  0  0
  151.4019  139.3700  153.4968 H   0  0  0  0  0  0  0  0  0  0  0  0
  151.0014  137.1612  153.1389 H   0  0  0  0  0  0  0  0  0  0  0  0
  150.4985  135.2829  153.3967 H   0  0  0  0  0  0  0  0  0  0  0  0
  149.4284  133.1916  153.1191 H   0  0  0  0  0  0  0  0  0  0  0  0
  148.8726  130.9794  154.1335 H   0  0  0  0  0  0  0  0  0  0  0  0
  147.1577  130.9002  157.0651 H   0  0  0  0  0  0  0  0  0  0  0  0
  147.5263  129.1953  157.3278 H   0  0  0  0  0  0  0  0  0  0  0  0
  147.3973  129.8230  155.6809 H   0  0  0  0  0  0  0  0  0  0  0  0
  151.0882  129.5969  156.3220 H   0  0  0  0  0  0  0  0  0  0  0  0
  149.8263  129.0090  155.2292 H   0  0  0  0  0  0  0  0  0  0  0  0
  149.9159  128.4064  156.8878 H   0  0  0  0  0  0  0  0  0  0  0  0
  150.6639  134.4929  157.0624 H   0  0  0  0  0  0  0  0  0  0  0  0
  148.9962  139.5130  153.9417 H   0  0  0  0  0  0  0  0  0  0  0  0
  149.2041  138.9201  155.5724 H   0  0  0  0  0  0  0  0  0  0  0  0
  148.9146  141.3863  155.5454 H   0  0  0  0  0  0  0  0  0  0  0  0
  150.2830  141.5756  154.4993 H   0  0  0  0  0  0  0  0  0  0  0  0
  1  2  1  0  0  0  0
  1 26  1  0  0  0  0
  1 27  1  0  0  0  0
  1 28  1  0  0  0  0
  2  3  1  0  0  0  0
  2  4  1  0  0  0  0
  2 29  1  0  0  0  0
  3 30  1  0  0  0  0
  3 31  1  0  0  0  0
  3 32  1  0  0  0  0
  4  5  1  0  0  0  0
  4 33  1  0  0  0  0
  4 34  1  0  0  0  0
  5  6  2  0  0  0  0
  5  7  1  0  0  0  0
  7 25  1  0  0  0  0
  7  8  1  0  0  0  0
  8  9  1  0  0  0  0
  8 35  1  0  0  0  0
  8 36  1  0  0  0  0
  9 10  1  0  0  0  0
  9 37  1  0  0  0  0
  9 38  1  0  0  0  0
 10 11  1  0  0  0  0
 10 24  1  0  0  0  0
 10 39  1  0  0  0  0
 11 12  1  0  0  0  0
 11 40  1  0  0  0  0
 12 13  2  0  0  0  0
 12 14  1  0  0  0  0
 14 15  1  0  0  0  0
 14 41  1  0  0  0  0
 15 23  1  0  0  0  0
 15 16  2  0  0  0  0
 16 17  1  0  0  0  0
 16 42  1  0  0  0  0
 17 18  2  0  0  0  0
 17 43  1  0  0  0  0
 18 19  1  0  0  0  0
 18 22  1  0  0  0  0
 19 20  1  0  0  0  0
 19 21  1  0  0  0  0
 20 44  1  0  0  0  0
 20 45  1  0  0  0  0
 20 46  1  0  0  0  0
 21 47  1  0  0  0  0
 21 48  1  0  0  0  0
 21 49  1  0  0  0  0
 22 23  2  0  0  0  0
 23 50  1  0  0  0  0
 24 25  1  0  0  0  0
 24 51  1  0  0  0  0
 24 52  1  0  0  0  0
 25 53  1  0  0  0  0
 25 54  1  0  0  0  0
M  END
> <s_m_source_file>
AV-unprocessed.smi

> <i_m_source_file_index>
1059

> <i_lp_mmshare_version>
43012

> <i_f3d_flags>
0

> <s_epik_input>
W0NIM11bQ0hdKFtDSDNdKVtDSDJdQyg9TylOMVtDSDJdW0NIMl1bQ0hdKFtDSDJdW0NIMl0xKVtOSF1DKD1PKVtOSF1jMltjSF1bY0hdYyhOKFtDSDNdKVtDSDNdKW5bY0hdMg==

> <s_epik_cmdline>
J2VwaWtfcHl0aG9uJywgJy1waCcsICc3LjAnLCAnLXRuJywgJzgnLCAnLW1hJywgJzIwMCcsICctbWV0YWxfYmluZGluZycsICctaW1hZScsICc8aW5maWxlLm1hZT4nLCAnLW9tYWUnLCAnPG91dGZpbGUubWFlPic=

> <r_lp_tautomer_probability>
1

> <r_epik_Ionization_Penalty>
0.622059

> <r_epik_Ionization_Penalty_Charging>
0

> <r_epik_Ionization_Penalty_Neutral>
0.622059

> <r_epik_State_Penalty>
0.637048

> <r_epik_Charging_Adjusted_Penalty>
0.637048

> <i_epik_Tot_Q>
0

> <i_epik_Tot_abs_Q>
0

> <r_epik_Metal_State_Penalty>
0.306613

> <b_epik_Metal_Only>
0

> <s_lp_Force_Field>
OPLS_2005

> <r_lp_Energy>
31.4899

> <b_lp_Chiralities_Consistent>
1

> <s_lp_Variant>
AV-unprocessed.smi:1059-2

> <Gold.Version>
5.8.1

> <Gold.Id.Protein>
6NUR|6NUR_protein|mol2

> <Gold.PLP.Fitness>
44.4633

> <Gold.PLP.PLP>
-41.6121

> <Gold.PLP.part.hbond>
-3.5751

> <Gold.PLP.part.metal>
0.0000

> <Gold.PLP.part.buried>
-3.6881

> <Gold.PLP.part.nonpolar>
-35.0548

> <Gold.PLP.part.repulsive>
0.2631

> <Gold.PLP.ligand.clash>
0.0000

> <Gold.PLP.ligand.torsion>
0.2701

> <Gold.PLP.Chemscore.Hbond>
1.0390

> <Gold.PLP.Chemscore.CHOScore>
0.0000

> <Gold.PLP.Chemscore.Metal>
0.0000

> <Gold.Chemscore.Hbonds>
donor molecule, donor type, donor heavy atom, donor atom, acceptor molecule, acceptor atom, score
      L1  H    11    40       P1  7949  1.00
      L1  H    14    41       P1  7949  0.04

> <Gold.PLP.Chemscore.Internal.Correction>
0.2744

> <Gold.Rescore>
     Score         DG    S(hbond)    S(metal)    S(lipo)     H(rot)  DE(clash)    DE(int)     intcor
     12.87     -15.57       0.77        0.00      97.67       1.52       0.51       2.19       ----

> <Gold.Chemscore.Fitness>
12.8716

> <Gold.Chemscore.DG>
-15.5740

> <Gold.Chemscore.ZeroCoef>
-5.4800

> <Gold.Chemscore.Hbond>
0.7685

> <Gold.Chemscore.Metal>
0.0000

> <Gold.Chemscore.Lipo>
97.6705

> <Gold.Chemscore.Internal_Hbond>
0.0000

> <Gold.Chemscore.DEClash>
0.5091

> <Gold.Chemscore.DEInternal>
2.1933

> <Gold.Chemscore.Rot>
1.5235

> <Gold.Chemscore.Internal.Correction>
   9.000000E+99

> <Gold.Chemscore.Hbonds>
donor molecule, donor type, donor heavy atom, donor atom, acceptor molecule, acceptor atom, score
      L1  H    11    40       P1  7949  0.28

> <Gold.Chemscore.Hbond.Weighted>
-2.5667

> <Gold.Chemscore.Metal.Weighted>
-0.0000

> <Gold.Chemscore.Lipo.Weighted>
-11.4275

> <Gold.Chemscore.Internal_Hbond.Weighted>
0.0000

> <Gold.Chemscore.DEClash.Weighted>
0.5091

> <Gold.Chemscore.DEInternal.Weighted>
2.1933

> <Gold.Chemscore.Rot.Weighted>
3.9001

> <Gold.Chemscore.Internal.Correction.Weighted>
   9.000000E+99

> <Gold.Protein.RotatedTorsions>
[ 6907 6896 6895 6894 ] final  -53.43 input  -60.11 | X-H torsion
[ 7974 7965 7964 7962 ] final   23.98 input  175.53 | X-H torsion
[ 8008 7997 7996 7995 ] final   52.45 input   59.86 | X-H torsion
[ 10167 10162 10161 10158 ] final   40.24 input  -65.29 | X-H torsion
[ 10718 10713 10712 10709 ] final -138.96 input   66.30 | X-H torsion
[ 10763 10752 10751 10750 ] final -140.55 input  -60.55 | X-H torsion
[ 11005 11000 10999 10996 ] final  -59.53 input  -57.11 | X-H torsion

> <Gold.Protein.ActiveResidues>
 VAL166  LYS551  ARG553  GLY616  TRP617  ASP618  TYR619  PRO620  LYS621  CYS622 
 ASP623  PHE694  ASN695  SER759  ASP760  ASP761  ALA762  ILE779  LEU786  VAL792 
 PHE793  MET794  SER795  GLU796  ALA797  LYS798  CYS799  TRP800  GLU811  SER814 

> <Gold.Protein.RotatedAtoms>
  150.8427  134.7725  159.6945 H   0  0  0  0  0  0  0  0  0  0  0  0  # atno 6907 bound_to 6896
  152.4511  134.5388  159.9842 H   0  0  0  0  0  0  0  0  0  0  0  0  # atno 6908 bound_to 6896
  151.5524  133.3377  159.2991 H   0  0  0  0  0  0  0  0  0  0  0  0  # atno 6909 bound_to 6896
  146.1959  139.7669  142.8797 H   0  0  0  0  0  0  0  0  0  0  0  0  # atno 7974 bound_to 7965
  155.4520  140.3458  155.4302 H   0  0  0  0  0  0  0  0  0  0  0  0  # atno 8008 bound_to 7997
  156.1214  140.1488  156.9228 H   0  0  0  0  0  0  0  0  0  0  0  0  # atno 8009 bound_to 7997
  154.4826  140.0865  156.7393 H   0  0  0  0  0  0  0  0  0  0  0  0  # atno 8010 bound_to 7997
  140.3761  144.2041  150.6131 H   0  0  0  0  0  0  0  0  0  0  0  0  # atno 10167 bound_to 10162
  156.3053  130.7452  151.1514 H   0  0  0  0  0  0  0  0  0  0  0  0  # atno 10718 bound_to 10713
  154.8575  135.3550  154.5725 H   0  0  0  0  0  0  0  0  0  0  0  0  # atno 10763 bound_to 10752
  153.6338  135.7001  153.5270 H   0  0  0  0  0  0  0  0  0  0  0  0  # atno 10764 bound_to 10752
  153.3027  135.4201  155.1226 H   0  0  0  0  0  0  0  0  0  0  0  0  # atno 10765 bound_to 10752
  141.1252  133.6617  156.5085 H   0  0  0  0  0  0  0  0  0  0  0  0  # atno 11005 bound_to 11000
  145.3644  141.0331  143.3266 LP  0  0  0  0  0  0  0  0  0  0  0  0  # atno 17320 bound_to 7965
  144.8580  139.5220  143.6825 LP  0  0  0  0  0  0  0  0  0  0  0  0  # atno 17321 bound_to 7965
  140.4985  143.2325  151.8714 LP  0  0  0  0  0  0  0  0  0  0  0  0  # atno 17342 bound_to 10162
  139.4799  144.5086  151.8963 LP  0  0  0  0  0  0  0  0  0  0  0  0  # atno 17343 bound_to 10162
  157.7378  131.0548  150.5333 LP  0  0  0  0  0  0  0  0  0  0  0  0  # atno 17370 bound_to 10713
  156.5466  130.4221  149.6128 LP  0  0  0  0  0  0  0  0  0  0  0  0  # atno 17371 bound_to 10713
  140.4388  134.7035  157.4981 LP  0  0  0  0  0  0  0  0  0  0  0  0  # atno 17394 bound_to 11000
  140.0243  134.6500  155.9195 LP  0  0  0  0  0  0  0  0  0  0  0  0  # atno 17395 bound_to 11000

$$$$
