AV-unprocessed.smi:249|AV-procd|sdf|1913|dock1
  -GOLD-   2262021 03D 1   1.00000     0.00000
 Structure written by MMmdl.
 64 67  0  0  0  0  0  0  0  0  2 V2000
  152.1202  144.1370  161.7716 C   0  0  0  0  0  0  0  0  0  0  0  0
  151.8910  144.6236  160.3327 C   0  0  0  0  0  0  0  0  0  0  0  0
  151.5559  143.5263  159.3853 N   0  3  1  0  0  0  0  0  0  0  0  0
  152.0203  143.8189  158.0025 C   0  0  0  0  0  0  0  0  0  0  0  0
  151.4625  142.8016  156.9949 C   0  0  0  0  0  0  0  0  0  0  0  0
  151.8311  141.3632  157.4068 C   0  0  2  0  0  0  0  0  0  0  0  0
  151.3921  140.3389  156.4505 N   0  0  0  0  0  0  0  0  0  0  0  0
  152.4020  139.6278  155.6779 C   0  0  0  0  0  0  0  0  0  0  0  0
  150.2009  140.4343  155.8113 C   0  0  0  0  0  0  0  0  0  0  0  0
  150.0388  139.8913  154.5770 N   0  0  0  0  0  0  0  0  0  0  0  0
  148.8589  139.9772  153.9553 C   0  0  0  0  0  0  0  0  0  0  0  0
  147.7335  140.5560  154.3780 N   0  0  0  0  0  0  0  0  0  0  0  0
  147.8924  141.1032  155.6171 C   0  0  0  0  0  0  0  0  0  0  0  0
  149.0796  141.0776  156.4011 C   0  0  0  0  0  0  0  0  0  0  0  0
  148.8662  141.7264  157.6107 N   0  0  0  0  0  0  0  0  0  0  0  0
  147.6225  142.1168  157.5454 C   0  0  0  0  0  0  0  0  0  0  0  0
  146.9699  141.8067  156.3726 N   0  0  0  0  0  0  0  0  0  0  0  0
  145.5923  142.1256  156.0407 C   0  0  0  0  0  0  0  0  0  0  0  0
  145.3964  143.4573  155.2676 C   0  0  1  0  0  0  0  0  0  0  0  0
  145.8727  143.2699  153.8083 C   0  0  0  0  0  0  0  0  0  0  0  0
  147.2812  143.3334  153.7062 O   0  0  0  0  0  0  0  0  0  0  0  0
  143.9618  144.0590  155.3519 C   0  0  1  0  0  0  0  0  0  0  0  0
  143.5453  144.6109  156.7079 C   0  0  0  0  0  0  0  0  0  0  0  0
  142.3865  145.5401  156.3607 C   0  0  0  0  0  0  0  0  0  0  0  0
  142.6270  145.9898  155.0337 O   0  0  0  0  0  0  0  0  0  0  0  0
  143.7544  145.3126  154.4930 C   0  0  0  0  0  0  0  0  0  0  0  0
  151.3666  141.0961  158.8549 C   0  0  0  0  0  0  0  0  0  0  0  0
  151.9139  142.1468  159.8427 C   0  0  1  0  0  0  0  0  0  0  0  0
  153.4198  141.9560  160.1258 C   0  0  0  0  0  0  0  0  0  0  0  0
  152.2254  144.9849  162.4488 H   0  0  0  0  0  0  0  0  0  0  0  0
  153.0292  143.5428  161.8623 H   0  0  0  0  0  0  0  0  0  0  0  0
  151.2823  143.5351  162.1245 H   0  0  0  0  0  0  0  0  0  0  0  0
  151.0567  145.3257  160.3526 H   0  0  0  0  0  0  0  0  0  0  0  0
  152.7510  145.1915  159.9776 H   0  0  0  0  0  0  0  0  0  0  0  0
  151.6904  144.8163  157.7094 H   0  0  0  0  0  0  0  0  0  0  0  0
  153.1101  143.8326  157.9670 H   0  0  0  0  0  0  0  0  0  0  0  0
  150.3819  142.9256  156.9340 H   0  0  0  0  0  0  0  0  0  0  0  0
  151.8540  143.0238  156.0017 H   0  0  0  0  0  0  0  0  0  0  0  0
  152.9195  141.2982  157.4057 H   0  0  0  0  0  0  0  0  0  0  0  0
  152.1160  138.5864  155.5295 H   0  0  0  0  0  0  0  0  0  0  0  0
  153.3641  139.6377  156.1908 H   0  0  0  0  0  0  0  0  0  0  0  0
  152.5360  140.0907  154.6994 H   0  0  0  0  0  0  0  0  0  0  0  0
  148.8098  139.5182  152.9790 H   0  0  0  0  0  0  0  0  0  0  0  0
  147.1490  142.6604  158.3501 H   0  0  0  0  0  0  0  0  0  0  0  0
  145.2043  141.2940  155.4513 H   0  0  0  0  0  0  0  0  0  0  0  0
  145.0119  142.1420  156.9640 H   0  0  0  0  0  0  0  0  0  0  0  0
  146.0754  144.1910  155.7024 H   0  0  0  0  0  0  0  0  0  0  0  0
  145.5333  142.3175  153.4013 H   0  0  0  0  0  0  0  0  0  0  0  0
  145.4435  144.0408  153.1675 H   0  0  0  0  0  0  0  0  0  0  0  0
  147.6285  143.6441  154.5286 H   0  0  0  0  0  0  0  0  0  0  0  0
  143.2331  143.3070  155.0446 H   0  0  0  0  0  0  0  0  0  0  0  0
  143.2355  143.8452  157.4171 H   0  0  0  0  0  0  0  0  0  0  0  0
  144.3601  145.1824  157.1552 H   0  0  0  0  0  0  0  0  0  0  0  0
  141.4426  144.9942  156.3744 H   0  0  0  0  0  0  0  0  0  0  0  0
  142.3046  146.3757  157.0558 H   0  0  0  0  0  0  0  0  0  0  0  0
  144.6169  145.9767  154.5660 H   0  0  0  0  0  0  0  0  0  0  0  0
  143.5960  145.0792  153.4399 H   0  0  0  0  0  0  0  0  0  0  0  0
  150.2782  141.1123  158.9132 H   0  0  0  0  0  0  0  0  0  0  0  0
  151.6699  140.0958  159.1667 H   0  0  0  0  0  0  0  0  0  0  0  0
  151.3923  141.9644  160.7817 H   0  0  0  0  0  0  0  0  0  0  0  0
  153.6237  140.9317  160.4389 H   0  0  0  0  0  0  0  0  0  0  0  0
  153.7655  142.6030  160.9315 H   0  0  0  0  0  0  0  0  0  0  0  0
  154.0378  142.1544  159.2510 H   0  0  0  0  0  0  0  0  0  0  0  0
  150.5474  143.5305  159.3260 H   0  0  0  0  0  0  0  0  0  0  0  0
  1  2  1  0  0  0  0
  1 30  1  0  0  0  0
  1 31  1  0  0  0  0
  1 32  1  0  0  0  0
  2  3  1  0  0  0  0
  2 33  1  0  0  0  0
  2 34  1  0  0  0  0
  3 28  1  0  0  0  0
  3  4  1  0  0  0  0
  3 64  1  0  0  0  0
  4  5  1  0  0  0  0
  4 35  1  0  0  0  0
  4 36  1  0  0  0  0
  5  6  1  0  0  0  0
  5 37  1  0  0  0  0
  5 38  1  0  0  0  0
  6  7  1  0  0  0  0
  6 27  1  0  0  0  0
  6 39  1  0  0  0  0
  7  8  1  0  0  0  0
  7  9  1  0  0  0  0
  8 40  1  0  0  0  0
  8 41  1  0  0  0  0
  8 42  1  0  0  0  0
  9 14  1  0  0  0  0
  9 10  2  0  0  0  0
 10 11  1  0  0  0  0
 11 12  2  0  0  0  0
 11 43  1  0  0  0  0
 12 13  1  0  0  0  0
 13 17  1  0  0  0  0
 13 14  2  0  0  0  0
 14 15  1  0  0  0  0
 15 16  2  0  0  0  0
 16 17  1  0  0  0  0
 16 44  1  0  0  0  0
 17 18  1  0  0  0  0
 18 19  1  0  0  0  0
 18 45  1  0  0  0  0
 18 46  1  0  0  0  0
 19 20  1  0  0  0  0
 19 22  1  0  0  0  0
 19 47  1  0  0  0  0
 20 21  1  0  0  0  0
 20 48  1  0  0  0  0
 20 49  1  0  0  0  0
 21 50  1  0  0  0  0
 22 26  1  0  0  0  0
 22 23  1  0  0  0  0
 22 51  1  0  0  0  0
 23 24  1  0  0  0  0
 23 52  1  0  0  0  0
 23 53  1  0  0  0  0
 24 25  1  0  0  0  0
 24 54  1  0  0  0  0
 24 55  1  0  0  0  0
 25 26  1  0  0  0  0
 26 56  1  0  0  0  0
 26 57  1  0  0  0  0
 27 28  1  0  0  0  0
 27 58  1  0  0  0  0
 27 59  1  0  0  0  0
 28 29  1  0  0  0  0
 28 60  1  0  0  0  0
 29 61  1  0  0  0  0
 29 62  1  0  0  0  0
 29 63  1  0  0  0  0
M  CHG  1   3   1
M  END
> <s_m_source_file>
AV-unprocessed.smi

> <i_m_source_file_index>
249

> <i_lp_mmshare_version>
43012

> <i_f3d_flags>
0

> <s_epik_input>
W0NIM11bQ0gyXU4xW0NIMl1bQ0gyXVtDQEhdKFtDSDJdW0NASF0xW0NIM10pTihbQ0gzXSljKG5bY0hdbjIpYyhjMjMpbltjSF1uM1tDSDJdW0NASF0oW0NIMl1bT0hdKVtDQEBIXTRbQ0gyXVtDSDJdT1tDSDJdNA==

> <s_epik_cmdline>
J2VwaWtfcHl0aG9uJywgJy1waCcsICc3LjAnLCAnLXRuJywgJzgnLCAnLW1hJywgJzIwMCcsICctbWV0YWxfYmluZGluZycsICctaW1hZScsICc8aW5maWxlLm1hZT4nLCAnLW9tYWUnLCAnPG91dGZpbGUubWFlPic=

> <r_lp_tautomer_probability>
1

> <r_epik_Ionization_Penalty>
0.00294688

> <r_epik_Ionization_Penalty_Charging>
0.00169971

> <r_epik_Ionization_Penalty_Neutral>
0.00124717

> <r_epik_State_Penalty>
-0

> <r_epik_Charging_Adjusted_Penalty>
0.00169971

> <i_epik_Tot_Q>
1

> <i_epik_Tot_abs_Q>
1

> <r_epik_Metal_State_Penalty>
-0

> <b_epik_Metal_Only>
0

> <s_lp_Force_Field>
OPLS_2005

> <r_lp_Energy>
54.9966

> <b_lp_Chiralities_Consistent>
1

> <s_lp_Variant>
AV-unprocessed.smi:249-16

> <Gold.Version>
5.8.1

> <Gold.Id.Protein>
6NUR|6NUR_protein|mol2

> <Gold.PLP.Fitness>
52.3093

> <Gold.PLP.PLP>
-46.5104

> <Gold.PLP.part.hbond>
-3.1133

> <Gold.PLP.part.metal>
0.0000

> <Gold.PLP.part.buried>
-1.5948

> <Gold.PLP.part.nonpolar>
-42.3522

> <Gold.PLP.part.repulsive>
0.3934

> <Gold.PLP.ligand.clash>
0.0051

> <Gold.PLP.ligand.torsion>
1.9197

> <Gold.PLP.Chemscore.Hbond>
1.7463

> <Gold.PLP.Chemscore.CHOScore>
1.0000

> <Gold.PLP.Chemscore.Metal>
0.0000

> <Gold.Chemscore.Hbonds>
donor molecule, donor type, donor heavy atom, donor atom, acceptor molecule, acceptor atom, score
      L1  H    21    50       P1  8028  1.00
      P1  H  7989  7998       L1    10  0.70
      L1  C    11    43       P1  7957  1.00

> <Gold.PLP.Chemscore.Internal.Correction>
1.4047

> <Gold.Rescore>
     Score         DG    S(hbond)    S(metal)    S(lipo)     H(rot)  DE(clash)    DE(int)     intcor
      6.95     -15.16       0.53        0.00     125.64       2.65       1.53       6.68       ----

> <Gold.Chemscore.Fitness>
6.9458

> <Gold.Chemscore.DG>
-15.1588

> <Gold.Chemscore.ZeroCoef>
-5.4800

> <Gold.Chemscore.Hbond>
0.5289

> <Gold.Chemscore.Metal>
0.0000

> <Gold.Chemscore.Lipo>
125.6427

> <Gold.Chemscore.Internal_Hbond>
0.0000

> <Gold.Chemscore.DEClash>
1.5349

> <Gold.Chemscore.DEInternal>
6.6781

> <Gold.Chemscore.Rot>
2.6515

> <Gold.Chemscore.Internal.Correction>
   9.000000E+99

> <Gold.Chemscore.Hbonds>
donor molecule, donor type, donor heavy atom, donor atom, acceptor molecule, acceptor atom, score
      L1  H    21    50       P1  8028  0.25
      P1  H  7989  7998       L1    10  0.17

> <Gold.Chemscore.Hbond.Weighted>
-1.7666

> <Gold.Chemscore.Metal.Weighted>
-0.0000

> <Gold.Chemscore.Lipo.Weighted>
-14.7002

> <Gold.Chemscore.Internal_Hbond.Weighted>
0.0000

> <Gold.Chemscore.DEClash.Weighted>
1.5349

> <Gold.Chemscore.DEInternal.Weighted>
6.6781

> <Gold.Chemscore.Rot.Weighted>
6.7880

> <Gold.Chemscore.Internal.Correction.Weighted>
   9.000000E+99

> <Gold.Protein.RotatedTorsions>
[ 6907 6896 6895 6894 ] final   79.58 input  -60.11 | X-H torsion
[ 7974 7965 7964 7962 ] final   59.21 input  175.53 | X-H torsion
[ 8008 7997 7996 7995 ] final   91.35 input   59.86 | X-H torsion
[ 10167 10162 10161 10158 ] final -137.84 input  -65.29 | X-H torsion
[ 10718 10713 10712 10709 ] final  179.37 input   66.30 | X-H torsion
[ 10763 10752 10751 10750 ] final  -13.33 input  -60.55 | X-H torsion
[ 11005 11000 10999 10996 ] final -104.71 input  -57.11 | X-H torsion

> <Gold.Protein.ActiveResidues>
 VAL166  LYS551  ARG553  GLY616  TRP617  ASP618  TYR619  PRO620  LYS621  CYS622 
 ASP623  PHE694  ASN695  SER759  ASP760  ASP761  ALA762  ILE779  LEU786  VAL792 
 PHE793  MET794  SER795  GLU796  ALA797  LYS798  CYS799  TRP800  GLU811  SER814 

> <Gold.Protein.RotatedAtoms>
  152.5203  134.3490  159.9244 H   0  0  0  0  0  0  0  0  0  0  0  0  # atno 6907 bound_to 6896
  151.3440  133.3945  159.2681 H   0  0  0  0  0  0  0  0  0  0  0  0  # atno 6908 bound_to 6896
  150.9780  134.9159  159.7885 H   0  0  0  0  0  0  0  0  0  0  0  0  # atno 6909 bound_to 6896
  145.9096  139.3644  143.0543 H   0  0  0  0  0  0  0  0  0  0  0  0  # atno 7974 bound_to 7965
  156.0227  140.3338  155.7056 H   0  0  0  0  0  0  0  0  0  0  0  0  # atno 8008 bound_to 7997
  155.5999  140.0654  157.2753 H   0  0  0  0  0  0  0  0  0  0  0  0  # atno 8009 bound_to 7997
  154.4322  140.1812  156.1150 H   0  0  0  0  0  0  0  0  0  0  0  0  # atno 8010 bound_to 7997
  139.8537  143.7165  152.2656 H   0  0  0  0  0  0  0  0  0  0  0  0  # atno 10167 bound_to 10162
  156.8768  130.9802  151.3067 H   0  0  0  0  0  0  0  0  0  0  0  0  # atno 10718 bound_to 10713
  153.5118  135.7016  153.5777 H   0  0  0  0  0  0  0  0  0  0  0  0  # atno 10763 bound_to 10752
  153.3864  135.3907  155.1893 H   0  0  0  0  0  0  0  0  0  0  0  0  # atno 10764 bound_to 10752
  154.8702  135.3847  154.4598 H   0  0  0  0  0  0  0  0  0  0  0  0  # atno 10765 bound_to 10752
  141.1088  133.8746  157.1644 H   0  0  0  0  0  0  0  0  0  0  0  0  # atno 11005 bound_to 11000
  145.8688  140.9432  143.0661 LP  0  0  0  0  0  0  0  0  0  0  0  0  # atno 17320 bound_to 7965
  144.6742  140.0627  143.7475 LP  0  0  0  0  0  0  0  0  0  0  0  0  # atno 17321 bound_to 7965
  139.7440  144.7552  151.0608 LP  0  0  0  0  0  0  0  0  0  0  0  0  # atno 17342 bound_to 10162
  140.7784  143.4938  150.9858 LP  0  0  0  0  0  0  0  0  0  0  0  0  # atno 17343 bound_to 10162
  157.6164  130.8621  149.9035 LP  0  0  0  0  0  0  0  0  0  0  0  0  # atno 17370 bound_to 10713
  156.0698  130.3687  150.0801 LP  0  0  0  0  0  0  0  0  0  0  0  0  # atno 17371 bound_to 10713
  139.9971  135.0042  157.0106 LP  0  0  0  0  0  0  0  0  0  0  0  0  # atno 17394 bound_to 11000
  140.4832  134.1269  155.7220 LP  0  0  0  0  0  0  0  0  0  0  0  0  # atno 17395 bound_to 11000

$$$$
