AV-unprocessed.smi:2013|AV-procd|sdf|8157|dock9
  -GOLD-   2272010403D 1   1.00000     0.00000
 Structure written by MMmdl.
 51 52  0  0  0  0  0  0  0  0  2 V2000
  148.0681  128.1871  162.9805 C   0  0  0  0  0  0  0  0  0  0  0  0
  149.4440  128.2456  163.6710 C   0  0  0  0  0  0  0  0  0  0  0  0
  149.2749  127.8517  165.1523 C   0  0  0  0  0  0  0  0  0  0  0  0
  150.1467  129.6256  163.5141 C   0  0  2  0  0  0  0  0  0  0  0  0
  150.1353  130.1405  162.0465 C   0  0  0  0  0  0  0  0  0  0  0  0
  148.9189  130.8710  161.7063 N   0  0  0  0  0  0  0  0  0  0  0  0
  148.5341  131.1999  160.4648 C   0  0  0  0  0  0  0  0  0  0  0  0
  149.1842  130.9172  159.4578 O   0  0  0  0  0  0  0  0  0  0  0  0
  147.2285  131.9983  160.3550 C   0  0  0  0  0  0  0  0  0  0  0  0
  147.3119  133.3215  160.9862 N   0  0  0  0  0  0  0  0  0  0  0  0
  146.6875  133.5410  162.2010 C   0  0  0  0  0  0  0  0  0  0  0  0
  146.7218  134.7232  162.8534 C   0  0  0  0  0  0  0  0  0  0  0  0
  147.4366  135.8635  162.2944 C   0  0  0  0  0  0  0  0  0  0  0  0
  147.5021  136.9614  162.8495 O   0  0  0  0  0  0  0  0  0  0  0  0
  148.0615  135.6156  161.0511 N   0  0  0  0  0  0  0  0  0  0  0  0
  148.7809  136.7254  160.4611 C   0  0  0  0  0  0  0  0  0  0  0  0
  148.0300  134.3731  160.3753 C   0  0  0  0  0  0  0  0  0  0  0  0
  148.5999  134.1910  159.2971 O   0  0  0  0  0  0  0  0  0  0  0  0
  151.5116  129.5691  164.1279 N   0  3  0  0  0  0  0  0  0  0  0  0
  152.4420  128.5536  163.5738 C   0  0  0  0  0  0  0  0  0  0  0  0
  153.7007  128.4621  164.4517 C   0  0  0  0  0  0  0  0  0  0  0  0
  154.3116  129.7440  164.5440 O   0  0  0  0  0  0  0  0  0  0  0  0
  153.4557  130.7027  165.1548 C   0  0  0  0  0  0  0  0  0  0  0  0
  152.1865  130.8789  164.3046 C   0  0  0  0  0  0  0  0  0  0  0  0
  147.4131  128.9858  163.3297 H   0  0  0  0  0  0  0  0  0  0  0  0
  147.5682  127.2393  163.1823 H   0  0  0  0  0  0  0  0  0  0  0  0
  148.1513  128.2656  161.8969 H   0  0  0  0  0  0  0  0  0  0  0  0
  150.0668  127.4838  163.2009 H   0  0  0  0  0  0  0  0  0  0  0  0
  148.6894  128.5947  165.6949 H   0  0  0  0  0  0  0  0  0  0  0  0
  150.2333  127.7459  165.6603 H   0  0  0  0  0  0  0  0  0  0  0  0
  148.7622  126.8941  165.2480 H   0  0  0  0  0  0  0  0  0  0  0  0
  149.5588  130.3321  164.1026 H   0  0  0  0  0  0  0  0  0  0  0  0
  151.0235  130.7462  161.8594 H   0  0  0  0  0  0  0  0  0  0  0  0
  150.1856  129.3048  161.3497 H   0  0  0  0  0  0  0  0  0  0  0  0
  148.3190  131.1414  162.4722 H   0  0  0  0  0  0  0  0  0  0  0  0
  146.9394  132.0998  159.3072 H   0  0  0  0  0  0  0  0  0  0  0  0
  146.4354  131.4131  160.8224 H   0  0  0  0  0  0  0  0  0  0  0  0
  146.1465  132.7248  162.6574 H   0  0  0  0  0  0  0  0  0  0  0  0
  146.2145  134.8266  163.8013 H   0  0  0  0  0  0  0  0  0  0  0  0
  149.1590  136.4734  159.4710 H   0  0  0  0  0  0  0  0  0  0  0  0
  149.6086  136.9636  161.1310 H   0  0  0  0  0  0  0  0  0  0  0  0
  148.0827  137.5604  160.3785 H   0  0  0  0  0  0  0  0  0  0  0  0
  151.9544  127.5798  163.5276 H   0  0  0  0  0  0  0  0  0  0  0  0
  152.7339  128.8168  162.5573 H   0  0  0  0  0  0  0  0  0  0  0  0
  153.4559  128.0892  165.4477 H   0  0  0  0  0  0  0  0  0  0  0  0
  154.4126  127.7615  164.0151 H   0  0  0  0  0  0  0  0  0  0  0  0
  153.2053  130.3894  166.1697 H   0  0  0  0  0  0  0  0  0  0  0  0
  153.9878  131.6506  165.2371 H   0  0  0  0  0  0  0  0  0  0  0  0
  152.4554  131.3086  163.3406 H   0  0  0  0  0  0  0  0  0  0  0  0
  151.5147  131.5833  164.7960 H   0  0  0  0  0  0  0  0  0  0  0  0
  151.3315  129.2648  165.0742 H   0  0  0  0  0  0  0  0  0  0  0  0
  1  2  1  0  0  0  0
  1 25  1  0  0  0  0
  1 26  1  0  0  0  0
  1 27  1  0  0  0  0
  2  3  1  0  0  0  0
  2  4  1  0  0  0  0
  2 28  1  0  0  0  0
  3 29  1  0  0  0  0
  3 30  1  0  0  0  0
  3 31  1  0  0  0  0
  4  5  1  0  0  0  0
  4 19  1  0  0  0  0
  4 32  1  0  0  0  0
  5  6  1  0  0  0  0
  5 33  1  0  0  0  0
  5 34  1  0  0  0  0
  6  7  1  0  0  0  0
  6 35  1  0  0  0  0
  7  8  2  0  0  0  0
  7  9  1  0  0  0  0
  9 10  1  0  0  0  0
  9 36  1  0  0  0  0
  9 37  1  0  0  0  0
 10 17  1  0  0  0  0
 10 11  1  0  0  0  0
 11 12  2  0  0  0  0
 11 38  1  0  0  0  0
 12 13  1  0  0  0  0
 12 39  1  0  0  0  0
 13 14  2  0  0  0  0
 13 15  1  0  0  0  0
 15 16  1  0  0  0  0
 15 17  1  0  0  0  0
 16 40  1  0  0  0  0
 16 41  1  0  0  0  0
 16 42  1  0  0  0  0
 17 18  2  0  0  0  0
 19 24  1  0  0  0  0
 19 20  1  0  0  0  0
 19 51  1  0  0  0  0
 20 21  1  0  0  0  0
 20 43  1  0  0  0  0
 20 44  1  0  0  0  0
 21 22  1  0  0  0  0
 21 45  1  0  0  0  0
 21 46  1  0  0  0  0
 22 23  1  0  0  0  0
 23 24  1  0  0  0  0
 23 47  1  0  0  0  0
 23 48  1  0  0  0  0
 24 49  1  0  0  0  0
 24 50  1  0  0  0  0
M  CHG  1  19   1
M  END
> <s_m_source_file>
AV-unprocessed.smi

> <i_m_source_file_index>
2013

> <i_lp_mmshare_version>
43012

> <i_f3d_flags>
0

> <s_epik_input>
W0NIMl0xW0NIMl1PW0NIMl1bQ0gyXU4xW0NASF0oW0NIXShbQ0gzXSlbQ0gzXSlbQ0gyXVtOSF1DKD1PKVtDSDJdbjJbY0hdW2NIXWMoPU8pbihbQ0gzXSljMj1P

> <s_epik_cmdline>
J2VwaWtfcHl0aG9uJywgJy1waCcsICc3LjAnLCAnLXRuJywgJzgnLCAnLW1hJywgJzIwMCcsICctbWV0YWxfYmluZGluZycsICctaW1hZScsICc8aW5maWxlLm1hZT4nLCAnLW9tYWUnLCAnPG91dGZpbGUubWFlPic=

> <r_lp_tautomer_probability>
1

> <r_epik_Ionization_Penalty>
0.370738

> <r_epik_Ionization_Penalty_Charging>
0.370738

> <r_epik_Ionization_Penalty_Neutral>
8.1827e-08

> <r_epik_State_Penalty>
0.368162

> <r_epik_Charging_Adjusted_Penalty>
0.7389

> <i_epik_Tot_Q>
1

> <i_epik_Tot_abs_Q>
1

> <r_epik_Metal_State_Penalty>
0.368194

> <b_epik_Metal_Only>
0

> <s_lp_Force_Field>
OPLS_2005

> <r_lp_Energy>
40.4187

> <b_lp_Chiralities_Consistent>
1

> <s_lp_Variant>
AV-unprocessed.smi:2013-1

> <Gold.Version>
5.8.1

> <Gold.Id.Protein>
6NUR|6NUR_protein|mol2

> <Gold.PLP.Fitness>
45.2612

> <Gold.PLP.PLP>
-39.6637

> <Gold.PLP.part.hbond>
-3.0000

> <Gold.PLP.part.metal>
0.0000

> <Gold.PLP.part.buried>
-3.9449

> <Gold.PLP.part.nonpolar>
-32.5028

> <Gold.PLP.part.repulsive>
0.0278

> <Gold.PLP.ligand.clash>
0.0000

> <Gold.PLP.ligand.torsion>
0.7471

> <Gold.PLP.Chemscore.Hbond>
2.2395

> <Gold.PLP.Chemscore.CHOScore>
0.0000

> <Gold.PLP.Chemscore.Metal>
0.0000

> <Gold.Chemscore.Hbonds>
donor molecule, donor type, donor heavy atom, donor atom, acceptor molecule, acceptor atom, score
      P1  H  6896  6908       L1    18  0.84
      P1  H  6931  6943       L1    14  0.48

> <Gold.PLP.Chemscore.Internal.Correction>
0.3733

> <Gold.Rescore>
     Score         DG    S(hbond)    S(metal)    S(lipo)     H(rot)  DE(clash)    DE(int)     intcor
     14.62     -15.70       2.08        0.00      77.85       2.28       0.30       0.78       ----

> <Gold.Chemscore.Fitness>
14.6218

> <Gold.Chemscore.DG>
-15.6983

> <Gold.Chemscore.ZeroCoef>
-5.4800

> <Gold.Chemscore.Hbond>
2.0810

> <Gold.Chemscore.Metal>
0.0000

> <Gold.Chemscore.Lipo>
77.8464

> <Gold.Chemscore.Internal_Hbond>
0.0000

> <Gold.Chemscore.DEClash>
0.3004

> <Gold.Chemscore.DEInternal>
0.7760

> <Gold.Chemscore.Rot>
2.2814

> <Gold.Chemscore.Internal.Correction>
   9.000000E+99

> <Gold.Chemscore.Hbonds>
donor molecule, donor type, donor heavy atom, donor atom, acceptor molecule, acceptor atom, score
      P1  H  6896  6908       L1    18  0.74
      P1  H  6931  6943       L1    14  0.39

> <Gold.Chemscore.Hbond.Weighted>
-6.9507

> <Gold.Chemscore.Metal.Weighted>
-0.0000

> <Gold.Chemscore.Lipo.Weighted>
-9.1080

> <Gold.Chemscore.Internal_Hbond.Weighted>
0.0000

> <Gold.Chemscore.DEClash.Weighted>
0.3004

> <Gold.Chemscore.DEInternal.Weighted>
0.7760

> <Gold.Chemscore.Rot.Weighted>
5.8404

> <Gold.Chemscore.Internal.Correction.Weighted>
   9.000000E+99

> <Gold.Protein.RotatedTorsions>
[ 6907 6896 6895 6894 ] final  136.32 input  -60.11 | X-H torsion
[ 7974 7965 7964 7962 ] final   33.04 input  175.53 | X-H torsion
[ 8008 7997 7996 7995 ] final   50.75 input   59.86 | X-H torsion
[ 10167 10162 10161 10158 ] final  173.20 input  -65.29 | X-H torsion
[ 10718 10713 10712 10709 ] final  175.36 input   66.30 | X-H torsion
[ 10763 10752 10751 10750 ] final -128.46 input  -60.55 | X-H torsion
[ 11005 11000 10999 10996 ] final  140.38 input  -57.11 | X-H torsion

> <Gold.Protein.ActiveResidues>
 VAL166  LYS551  ARG553  GLY616  TRP617  ASP618  TYR619  PRO620  LYS621  CYS622 
 ASP623  PHE694  ASN695  SER759  ASP760  ASP761  ALA762  ILE779  LEU786  VAL792 
 PHE793  MET794  SER795  GLU796  ALA797  LYS798  CYS799  TRP800  GLU811  SER814 

> <Gold.Protein.RotatedAtoms>
  152.2907  133.5558  159.5555 H   0  0  0  0  0  0  0  0  0  0  0  0  # atno 6907 bound_to 6896
  150.7234  134.0433  159.3782 H   0  0  0  0  0  0  0  0  0  0  0  0  # atno 6908 bound_to 6896
  151.8339  135.0613  160.0491 H   0  0  0  0  0  0  0  0  0  0  0  0  # atno 6909 bound_to 6896
  146.1447  139.6448  142.9139 H   0  0  0  0  0  0  0  0  0  0  0  0  # atno 7974 bound_to 7965
  155.4238  140.3447  155.4274 H   0  0  0  0  0  0  0  0  0  0  0  0  # atno 8008 bound_to 7997
  156.1377  140.1533  156.9000 H   0  0  0  0  0  0  0  0  0  0  0  0  # atno 8009 bound_to 7997
  154.4945  140.0831  156.7647 H   0  0  0  0  0  0  0  0  0  0  0  0  # atno 8010 bound_to 7997
  139.5100  144.3288  152.0131 H   0  0  0  0  0  0  0  0  0  0  0  0  # atno 10167 bound_to 10162
  156.9360  130.9986  151.2978 H   0  0  0  0  0  0  0  0  0  0  0  0  # atno 10718 bound_to 10713
  154.8756  135.3928  154.3760 H   0  0  0  0  0  0  0  0  0  0  0  0  # atno 10763 bound_to 10752
  153.4513  135.7028  153.6112 H   0  0  0  0  0  0  0  0  0  0  0  0  # atno 10764 bound_to 10752
  153.4650  135.3803  155.2328 H   0  0  0  0  0  0  0  0  0  0  0  0  # atno 10765 bound_to 10752
  140.0323  134.9346  157.0686 H   0  0  0  0  0  0  0  0  0  0  0  0  # atno 11005 bound_to 11000
  145.4965  141.0438  143.2564 LP  0  0  0  0  0  0  0  0  0  0  0  0  # atno 17320 bound_to 7965
  144.7832  139.6481  143.7145 LP  0  0  0  0  0  0  0  0  0  0  0  0  # atno 17321 bound_to 7965
  140.2728  144.3945  150.6145 LP  0  0  0  0  0  0  0  0  0  0  0  0  # atno 17342 bound_to 10162
  140.6076  143.2168  151.6951 LP  0  0  0  0  0  0  0  0  0  0  0  0  # atno 17343 bound_to 10162
  157.5816  130.8380  149.8530 LP  0  0  0  0  0  0  0  0  0  0  0  0  # atno 17370 bound_to 10713
  156.0425  130.3735  150.1399 LP  0  0  0  0  0  0  0  0  0  0  0  0  # atno 17371 bound_to 10713
  140.4205  134.1885  155.7164 LP  0  0  0  0  0  0  0  0  0  0  0  0  # atno 17394 bound_to 11000
  141.1838  133.8357  157.1163 LP  0  0  0  0  0  0  0  0  0  0  0  0  # atno 17395 bound_to 11000

$$$$
