AV-unprocessed.smi:1603|AV-procd|sdf|6444|dock2
  -GOLD-   22720 7 93D 1   1.00000     0.00000
 Structure written by MMmdl.
 45 47  0  0  0  0  0  0  0  0  2 V2000
  152.5790  138.8111  158.0988 O   0  0  0  0  0  0  0  0  0  0  0  0
  152.5305  139.9325  158.6049 C   0  0  0  0  0  0  0  0  0  0  0  0
  153.5172  140.4294  159.5757 C   0  0  0  0  0  0  0  0  0  0  0  0
  154.6423  139.4884  159.9986 C   0  0  0  0  0  0  0  0  0  0  0  0
  155.4242  140.0403  160.9275 F   0  0  0  0  0  0  0  0  0  0  0  0
  154.1464  138.3580  160.5030 F   0  0  0  0  0  0  0  0  0  0  0  0
  155.4076  139.1775  158.9521 F   0  0  0  0  0  0  0  0  0  0  0  0
  153.4078  141.6856  160.0728 C   0  0  0  0  0  0  0  0  0  0  0  0
  152.3217  142.5475  159.6516 C   0  0  0  0  0  0  0  0  0  0  0  0
  152.1449  143.9506  160.1573 C   0  0  0  0  0  0  0  0  0  0  0  0
  150.7853  144.6025  160.2653 C   0  0  0  0  0  0  0  0  0  0  0  0
  151.7770  145.0880  159.2335 C   0  0  0  0  0  0  0  0  0  0  0  0
  151.4549  142.1075  158.8027 N   0  0  0  0  0  0  0  0  0  0  0  0
  151.5462  140.8264  158.2944 N   0  0  0  0  0  0  0  0  0  0  0  0
  150.4842  140.4871  157.3389 C   0  0  0  0  0  0  0  0  0  0  0  0
  150.6873  141.1923  155.9795 C   0  0  1  0  0  0  0  0  0  0  0  0
  151.8446  140.6600  155.3639 O   0  0  0  0  0  0  0  0  0  0  0  0
  149.5056  140.9317  155.0225 C   0  0  0  0  0  0  0  0  0  0  0  0
  148.2831  141.6863  155.4001 N   0  3  0  0  0  0  0  0  0  0  0  0
  147.2893  141.7414  154.3015 C   0  0  0  0  0  0  0  0  0  0  0  0
  146.0723  142.5846  154.7177 C   0  0  0  0  0  0  0  0  0  0  0  0
  145.5015  142.0447  155.9030 O   0  0  0  0  0  0  0  0  0  0  0  0
  146.4167  142.0663  156.9913 C   0  0  0  0  0  0  0  0  0  0  0  0
  147.6450  141.2053  156.6509 C   0  0  0  0  0  0  0  0  0  0  0  0
  154.1223  142.0681  160.7861 H   0  0  0  0  0  0  0  0  0  0  0  0
  152.8576  144.1664  160.9511 H   0  0  0  0  0  0  0  0  0  0  0  0
  149.9181  144.0547  159.9010 H   0  0  0  0  0  0  0  0  0  0  0  0
  150.6035  145.2421  161.1265 H   0  0  0  0  0  0  0  0  0  0  0  0
  152.2544  146.0500  159.4084 H   0  0  0  0  0  0  0  0  0  0  0  0
  151.5693  144.8534  158.1911 H   0  0  0  0  0  0  0  0  0  0  0  0
  150.3756  139.4075  157.2158 H   0  0  0  0  0  0  0  0  0  0  0  0
  149.5348  140.8081  157.7722 H   0  0  0  0  0  0  0  0  0  0  0  0
  150.8197  142.2624  156.1373 H   0  0  0  0  0  0  0  0  0  0  0  0
  152.5835  140.8012  155.9377 H   0  0  0  0  0  0  0  0  0  0  0  0
  149.8105  141.2102  154.0120 H   0  0  0  0  0  0  0  0  0  0  0  0
  149.2678  139.8674  154.9851 H   0  0  0  0  0  0  0  0  0  0  0  0
  147.7450  142.1738  153.4099 H   0  0  0  0  0  0  0  0  0  0  0  0
  146.9727  140.7299  154.0422 H   0  0  0  0  0  0  0  0  0  0  0  0
  146.3550  143.6266  154.8771 H   0  0  0  0  0  0  0  0  0  0  0  0
  145.3211  142.5757  153.9278 H   0  0  0  0  0  0  0  0  0  0  0  0
  146.7104  143.0930  157.2160 H   0  0  0  0  0  0  0  0  0  0  0  0
  145.9190  141.6763  157.8792 H   0  0  0  0  0  0  0  0  0  0  0  0
  147.3457  140.1627  156.5327 H   0  0  0  0  0  0  0  0  0  0  0  0
  148.3490  141.2429  157.4812 H   0  0  0  0  0  0  0  0  0  0  0  0
  148.5779  142.6391  155.5627 H   0  0  0  0  0  0  0  0  0  0  0  0
  1  2  2  0  0  0  0
  2 14  1  0  0  0  0
  2  3  1  0  0  0  0
  3  4  1  0  0  0  0
  3  8  2  0  0  0  0
  4  5  1  0  0  0  0
  4  6  1  0  0  0  0
  4  7  1  0  0  0  0
  8  9  1  0  0  0  0
  8 25  1  0  0  0  0
  9 10  1  0  0  0  0
  9 13  2  0  0  0  0
 10 12  1  0  0  0  0
 10 11  1  0  0  0  0
 10 26  1  0  0  0  0
 11 12  1  0  0  0  0
 11 27  1  0  0  0  0
 11 28  1  0  0  0  0
 12 29  1  0  0  0  0
 12 30  1  0  0  0  0
 13 14  1  0  0  0  0
 14 15  1  0  0  0  0
 15 16  1  0  0  0  0
 15 31  1  0  0  0  0
 15 32  1  0  0  0  0
 16 17  1  0  0  0  0
 16 18  1  0  0  0  0
 16 33  1  0  0  0  0
 17 34  1  0  0  0  0
 18 19  1  0  0  0  0
 18 35  1  0  0  0  0
 18 36  1  0  0  0  0
 19 24  1  0  0  0  0
 19 20  1  0  0  0  0
 19 45  1  0  0  0  0
 20 21  1  0  0  0  0
 20 37  1  0  0  0  0
 20 38  1  0  0  0  0
 21 22  1  0  0  0  0
 21 39  1  0  0  0  0
 21 40  1  0  0  0  0
 22 23  1  0  0  0  0
 23 24  1  0  0  0  0
 23 41  1  0  0  0  0
 23 42  1  0  0  0  0
 24 43  1  0  0  0  0
 24 44  1  0  0  0  0
M  CHG  1  19   1
M  END
> <s_m_source_file>
AV-unprocessed.smi

> <i_m_source_file_index>
1603

> <i_lp_mmshare_version>
43012

> <i_f3d_flags>
0

> <s_epik_input>
Tz1jMWMoQyhGKShGKUYpW2NIXWMoW0NIXTJbQ0gyXVtDSDJdMilubjFbQ0gyXVtDQEhdKFtPSF0pW0NIMl1OM1tDSDJdW0NIMl1PW0NIMl1bQ0gyXTM=

> <s_epik_cmdline>
J2VwaWtfcHl0aG9uJywgJy1waCcsICc3LjAnLCAnLXRuJywgJzgnLCAnLW1hJywgJzIwMCcsICctbWV0YWxfYmluZGluZycsICctaW1hZScsICc8aW5maWxlLm1hZT4nLCAnLW9tYWUnLCAnPG91dGZpbGUubWFlPic=

> <r_lp_tautomer_probability>
1

> <r_epik_Ionization_Penalty>
0.373533

> <r_epik_Ionization_Penalty_Charging>
0.373533

> <r_epik_Ionization_Penalty_Neutral>
6.58334e-07

> <r_epik_State_Penalty>
0.37113

> <r_epik_Charging_Adjusted_Penalty>
0.744662

> <i_epik_Tot_Q>
1

> <i_epik_Tot_abs_Q>
1

> <r_epik_Metal_State_Penalty>
0.37113

> <b_epik_Metal_Only>
0

> <s_lp_Force_Field>
OPLS_2005

> <r_lp_Energy>
42.0637

> <b_lp_Chiralities_Consistent>
1

> <s_lp_Variant>
AV-unprocessed.smi:1603-2

> <Gold.Version>
5.8.1

> <Gold.Id.Protein>
6NUR|6NUR_protein|mol2

> <Gold.PLP.Fitness>
57.0165

> <Gold.PLP.PLP>
-50.3352

> <Gold.PLP.part.hbond>
-2.0000

> <Gold.PLP.part.metal>
0.0000

> <Gold.PLP.part.buried>
-6.9933

> <Gold.PLP.part.nonpolar>
-42.1854

> <Gold.PLP.part.repulsive>
0.2934

> <Gold.PLP.ligand.clash>
0.3905

> <Gold.PLP.ligand.torsion>
0.9802

> <Gold.PLP.Chemscore.Hbond>
2.7840

> <Gold.PLP.Chemscore.CHOScore>
0.0000

> <Gold.PLP.Chemscore.Metal>
0.0000

> <Gold.Chemscore.Hbonds>
donor molecule, donor type, donor heavy atom, donor atom, acceptor molecule, acceptor atom, score
      L1  H    19    45       P1  8028  1.69
      P1  H  7989  7998       L1    17  0.64

> <Gold.PLP.Chemscore.Internal.Correction>
0.6801

> <Gold.Rescore>
     Score         DG    S(hbond)    S(metal)    S(lipo)     H(rot)  DE(clash)    DE(int)     intcor
     13.58     -17.22       1.51        0.00     112.18       2.52       0.29       3.34       ----

> <Gold.Chemscore.Fitness>
13.5833

> <Gold.Chemscore.DG>
-17.2215

> <Gold.Chemscore.ZeroCoef>
-5.4800

> <Gold.Chemscore.Hbond>
1.5142

> <Gold.Chemscore.Metal>
0.0000

> <Gold.Chemscore.Lipo>
112.1810

> <Gold.Chemscore.Internal_Hbond>
0.0000

> <Gold.Chemscore.DEClash>
0.2948

> <Gold.Chemscore.DEInternal>
3.3434

> <Gold.Chemscore.Rot>
2.5160

> <Gold.Chemscore.Internal.Correction>
   9.000000E+99

> <Gold.Chemscore.Hbonds>
donor molecule, donor type, donor heavy atom, donor atom, acceptor molecule, acceptor atom, score
      L1  H    19    45       P1  8028  0.82
      P1  H  7989  7998       L1    17  0.42

> <Gold.Chemscore.Hbond.Weighted>
-5.0574

> <Gold.Chemscore.Metal.Weighted>
-0.0000

> <Gold.Chemscore.Lipo.Weighted>
-13.1252

> <Gold.Chemscore.Internal_Hbond.Weighted>
0.0000

> <Gold.Chemscore.DEClash.Weighted>
0.2948

> <Gold.Chemscore.DEInternal.Weighted>
3.3434

> <Gold.Chemscore.Rot.Weighted>
6.4411

> <Gold.Chemscore.Internal.Correction.Weighted>
   9.000000E+99

> <Gold.Protein.RotatedTorsions>
[ 6907 6896 6895 6894 ] final  -28.33 input  -60.11 | X-H torsion
[ 7974 7965 7964 7962 ] final  -25.47 input  175.53 | X-H torsion
[ 8008 7997 7996 7995 ] final  -38.22 input   59.86 | X-H torsion
[ 10167 10162 10161 10158 ] final  105.30 input  -65.29 | X-H torsion
[ 10718 10713 10712 10709 ] final  -29.79 input   66.30 | X-H torsion
[ 10763 10752 10751 10750 ] final -140.91 input  -60.55 | X-H torsion
[ 11005 11000 10999 10996 ] final -110.15 input  -57.11 | X-H torsion

> <Gold.Protein.ActiveResidues>
 VAL166  LYS551  ARG553  GLY616  TRP617  ASP618  TYR619  PRO620  LYS621  CYS622 
 ASP623  PHE694  ASN695  SER759  ASP760  ASP761  ALA762  ILE779  LEU786  VAL792 
 PHE793  MET794  SER795  GLU796  ALA797  LYS798  CYS799  TRP800  GLU811  SER814 

> <Gold.Protein.RotatedAtoms>
  151.1345  135.0147  159.8597 H   0  0  0  0  0  0  0  0  0  0  0  0  # atno 6907 bound_to 6896
  152.5451  134.1571  159.8553 H   0  0  0  0  0  0  0  0  0  0  0  0  # atno 6908 bound_to 6896
  151.1641  133.4781  159.2627 H   0  0  0  0  0  0  0  0  0  0  0  0  # atno 6909 bound_to 6896
  146.1489  140.4891  142.8620 H   0  0  0  0  0  0  0  0  0  0  0  0  # atno 7974 bound_to 7965
  154.4040  140.1583  156.2665 H   0  0  0  0  0  0  0  0  0  0  0  0  # atno 8008 bound_to 7997
  155.8991  140.3434  155.5990 H   0  0  0  0  0  0  0  0  0  0  0  0  # atno 8009 bound_to 7997
  155.7469  140.0800  157.2210 H   0  0  0  0  0  0  0  0  0  0  0  0  # atno 8010 bound_to 7997
  139.7104  144.7078  151.1036 H   0  0  0  0  0  0  0  0  0  0  0  0  # atno 10167 bound_to 10162
  156.4080  130.4403  149.7273 H   0  0  0  0  0  0  0  0  0  0  0  0  # atno 10718 bound_to 10713
  154.8563  135.3539  154.5783 H   0  0  0  0  0  0  0  0  0  0  0  0  # atno 10763 bound_to 10752
  153.6394  135.6999  153.5251 H   0  0  0  0  0  0  0  0  0  0  0  0  # atno 10764 bound_to 10752
  153.2983  135.4214  155.1188 H   0  0  0  0  0  0  0  0  0  0  0  0  # atno 10765 bound_to 10752
  141.0808  133.9223  157.2292 H   0  0  0  0  0  0  0  0  0  0  0  0  # atno 11005 bound_to 11000
  144.7879  140.5974  143.6561 LP  0  0  0  0  0  0  0  0  0  0  0  0  # atno 17320 bound_to 7965
  145.4871  139.1491  143.3730 LP  0  0  0  0  0  0  0  0  0  0  0  0  # atno 17321 bound_to 7965
  140.7732  143.5301  150.9434 LP  0  0  0  0  0  0  0  0  0  0  0  0  # atno 17342 bound_to 10162
  139.8985  143.6865  152.3135 LP  0  0  0  0  0  0  0  0  0  0  0  0  # atno 17343 bound_to 10162
  156.4263  130.7793  151.2812 LP  0  0  0  0  0  0  0  0  0  0  0  0  # atno 17370 bound_to 10713
  157.7506  131.0168  150.3558 LP  0  0  0  0  0  0  0  0  0  0  0  0  # atno 17371 bound_to 10713
  139.9622  135.0151  156.9291 LP  0  0  0  0  0  0  0  0  0  0  0  0  # atno 17394 bound_to 11000
  140.5472  134.0662  155.7358 LP  0  0  0  0  0  0  0  0  0  0  0  0  # atno 17395 bound_to 11000

$$$$
