AV-unprocessed.smi:1687|AV-procd|sdf|6767|dock2
  -GOLD-   22720 7523D 1   1.00000     0.00000
 Structure written by MMmdl.
 45 46  0  0  0  0  0  0  0  0  2 V2000
  144.7025  135.5675  151.9615 C   0  0  0  0  0  0  0  0  0  0  0  0
  145.3196  136.9133  152.3670 C   0  0  2  0  0  0  0  0  0  0  0  0
  146.1856  137.5056  151.2461 C   0  0  0  0  0  0  0  0  0  0  0  0
  146.8079  138.8427  151.6784 C   0  0  0  0  0  0  0  0  0  0  0  0
  147.6350  138.6936  152.9104 N   0  3  1  0  0  0  0  0  0  0  0  0
  148.4040  139.9432  153.2209 C   0  0  1  0  0  0  0  0  0  0  0  0
  147.5428  141.2295  153.2344 C   0  0  0  0  0  0  0  0  0  0  0  0
  149.1415  139.7826  154.5760 C   0  0  0  0  0  0  0  0  0  0  0  0
  149.5641  141.0558  155.1521 N   0  0  0  0  0  0  0  0  0  0  0  0
  150.2527  141.1809  156.2960 C   0  0  0  0  0  0  0  0  0  0  0  0
  150.6132  140.2176  156.9734 O   0  0  0  0  0  0  0  0  0  0  0  0
  150.4881  142.4721  156.5882 N   0  0  0  0  0  0  0  0  0  0  0  0
  151.1678  143.0056  157.7160 C   0  0  0  0  0  0  0  0  0  0  0  0
  152.0457  142.1087  158.3659 C   0  0  0  0  0  0  0  0  0  0  0  0
  152.7675  142.5416  159.4952 C   0  0  0  0  0  0  0  0  0  0  0  0
  152.5924  143.8618  159.9464 C   0  0  0  0  0  0  0  0  0  0  0  0
  151.6990  144.6901  159.2424 C   0  0  0  0  0  0  0  0  0  0  0  0
  151.0061  144.2773  158.1598 N   0  0  0  0  0  0  0  0  0  0  0  0
  146.8149  138.1346  154.0249 C   0  0  0  0  0  0  0  0  0  0  0  0
  146.1712  136.7910  153.6388 C   0  0  0  0  0  0  0  0  0  0  0  0
  145.4716  134.8246  151.7476 H   0  0  0  0  0  0  0  0  0  0  0  0
  144.0839  135.6725  151.0696 H   0  0  0  0  0  0  0  0  0  0  0  0
  144.0688  135.1716  152.7556 H   0  0  0  0  0  0  0  0  0  0  0  0
  144.5014  137.6063  152.5690 H   0  0  0  0  0  0  0  0  0  0  0  0
  146.9757  136.8049  150.9723 H   0  0  0  0  0  0  0  0  0  0  0  0
  145.5821  137.6565  150.3501 H   0  0  0  0  0  0  0  0  0  0  0  0
  147.4023  139.2293  150.8521 H   0  0  0  0  0  0  0  0  0  0  0  0
  146.0201  139.5764  151.8580 H   0  0  0  0  0  0  0  0  0  0  0  0
  149.1420  140.0760  152.4281 H   0  0  0  0  0  0  0  0  0  0  0  0
  148.1379  142.1084  153.4823 H   0  0  0  0  0  0  0  0  0  0  0  0
  146.7392  141.1654  153.9686 H   0  0  0  0  0  0  0  0  0  0  0  0
  147.1020  141.4365  152.2590 H   0  0  0  0  0  0  0  0  0  0  0  0
  148.4835  139.2932  155.2948 H   0  0  0  0  0  0  0  0  0  0  0  0
  150.0174  139.1401  154.4915 H   0  0  0  0  0  0  0  0  0  0  0  0
  149.3042  141.8945  154.6536 H   0  0  0  0  0  0  0  0  0  0  0  0
  150.1326  143.1539  155.9346 H   0  0  0  0  0  0  0  0  0  0  0  0
  152.1688  141.0973  158.0065 H   0  0  0  0  0  0  0  0  0  0  0  0
  153.4431  141.8714  160.0060 H   0  0  0  0  0  0  0  0  0  0  0  0
  153.1275  144.2302  160.8091 H   0  0  0  0  0  0  0  0  0  0  0  0
  151.5361  145.7104  159.5565 H   0  0  0  0  0  0  0  0  0  0  0  0
  147.4295  137.9479  154.9048 H   0  0  0  0  0  0  0  0  0  0  0  0
  146.0461  138.8537  154.3112 H   0  0  0  0  0  0  0  0  0  0  0  0
  145.5565  136.4309  154.4647 H   0  0  0  0  0  0  0  0  0  0  0  0
  146.9530  136.0445  153.4893 H   0  0  0  0  0  0  0  0  0  0  0  0
  148.3298  137.9887  152.7096 H   0  0  0  0  0  0  0  0  0  0  0  0
  1  2  1  0  0  0  0
  1 21  1  0  0  0  0
  1 22  1  0  0  0  0
  1 23  1  0  0  0  0
  2 20  1  0  0  0  0
  2  3  1  0  0  0  0
  2 24  1  0  0  0  0
  3  4  1  0  0  0  0
  3 25  1  0  0  0  0
  3 26  1  0  0  0  0
  4  5  1  0  0  0  0
  4 27  1  0  0  0  0
  4 28  1  0  0  0  0
  5  6  1  0  0  0  0
  5 19  1  0  0  0  0
  5 45  1  0  0  0  0
  6  7  1  0  0  0  0
  6  8  1  0  0  0  0
  6 29  1  0  0  0  0
  7 30  1  0  0  0  0
  7 31  1  0  0  0  0
  7 32  1  0  0  0  0
  8  9  1  0  0  0  0
  8 33  1  0  0  0  0
  8 34  1  0  0  0  0
  9 10  1  0  0  0  0
  9 35  1  0  0  0  0
 10 11  2  0  0  0  0
 10 12  1  0  0  0  0
 12 13  1  0  0  0  0
 12 36  1  0  0  0  0
 13 18  1  0  0  0  0
 13 14  2  0  0  0  0
 14 15  1  0  0  0  0
 14 37  1  0  0  0  0
 15 16  2  0  0  0  0
 15 38  1  0  0  0  0
 16 17  1  0  0  0  0
 16 39  1  0  0  0  0
 17 18  2  0  0  0  0
 17 40  1  0  0  0  0
 19 20  1  0  0  0  0
 19 41  1  0  0  0  0
 19 42  1  0  0  0  0
 20 43  1  0  0  0  0
 20 44  1  0  0  0  0
M  CHG  1   5   1
M  END
> <s_m_source_file>
AV-unprocessed.smi

> <i_m_source_file_index>
1687

> <i_lp_mmshare_version>
43012

> <i_f3d_flags>
0

> <s_epik_input>
W0NIM11bQ0hdMVtDSDJdW0NIMl1OKFtDSDJdW0NIMl0xKVtDQEhdKFtDSDNdKVtDSDJdW05IXUMoPU8pW05IXWMyW2NIXVtjSF1bY0hdW2NIXW4y

> <s_epik_cmdline>
J2VwaWtfcHl0aG9uJywgJy1waCcsICc3LjAnLCAnLXRuJywgJzgnLCAnLW1hJywgJzIwMCcsICctbWV0YWxfYmluZGluZycsICctaW1hZScsICc8aW5maWxlLm1hZT4nLCAnLW9tYWUnLCAnPG91dGZpbGUubWFlPic=

> <r_epik_Ionization_Penalty>
0.00142891

> <r_epik_Ionization_Penalty_Charging>
0.00139388

> <r_epik_Ionization_Penalty_Neutral>
3.50347e-05

> <r_epik_State_Penalty>
0.000929204

> <r_epik_Charging_Adjusted_Penalty>
0.00232308

> <i_epik_Tot_Q>
1

> <i_epik_Tot_abs_Q>
1

> <r_epik_Metal_State_Penalty>
-0

> <b_epik_Metal_Only>
0

> <s_lp_Force_Field>
OPLS_2005

> <r_lp_Energy>
22.8653

> <b_lp_Chiralities_Consistent>
1

> <s_lp_Variant>
AV-unprocessed.smi:1687-2

> <Gold.Version>
5.8.1

> <Gold.Id.Protein>
6NUR|6NUR_protein|mol2

> <Gold.PLP.Fitness>
43.9365

> <Gold.PLP.PLP>
-35.9353

> <Gold.PLP.part.hbond>
-3.0000

> <Gold.PLP.part.metal>
0.0000

> <Gold.PLP.part.buried>
3.9412

> <Gold.PLP.part.nonpolar>
-37.8676

> <Gold.PLP.part.repulsive>
0.4263

> <Gold.PLP.ligand.clash>
0.0000

> <Gold.PLP.ligand.torsion>
0.4531

> <Gold.PLP.Chemscore.Hbond>
2.9440

> <Gold.PLP.Chemscore.CHOScore>
0.0000

> <Gold.PLP.Chemscore.Metal>
0.0000

> <Gold.Chemscore.Hbonds>
donor molecule, donor type, donor heavy atom, donor atom, acceptor molecule, acceptor atom, score
      L1  H     5    45       P1  7948  2.00
      L1  H    12    36       P1  8028  0.93

> <Gold.PLP.Chemscore.Internal.Correction>
0.0754

> <Gold.Rescore>
     Score         DG    S(hbond)    S(metal)    S(lipo)     H(rot)  DE(clash)    DE(int)     intcor
     15.55     -19.43       1.96        0.00      96.00       1.50       1.81       2.07       ----

> <Gold.Chemscore.Fitness>
15.5452

> <Gold.Chemscore.DG>
-19.4297

> <Gold.Chemscore.ZeroCoef>
-5.4800

> <Gold.Chemscore.Hbond>
1.9601

> <Gold.Chemscore.Metal>
0.0000

> <Gold.Chemscore.Lipo>
95.9989

> <Gold.Chemscore.Internal_Hbond>
0.0000

> <Gold.Chemscore.DEClash>
1.8137

> <Gold.Chemscore.DEInternal>
2.0707

> <Gold.Chemscore.Rot>
1.4956

> <Gold.Chemscore.Internal.Correction>
   9.000000E+99

> <Gold.Chemscore.Hbonds>
donor molecule, donor type, donor heavy atom, donor atom, acceptor molecule, acceptor atom, score
      L1  H     5    45       P1  7948  0.91
      L1  H    12    36       P1  8028  0.85

> <Gold.Chemscore.Hbond.Weighted>
-6.5467

> <Gold.Chemscore.Metal.Weighted>
-0.0000

> <Gold.Chemscore.Lipo.Weighted>
-11.2319

> <Gold.Chemscore.Internal_Hbond.Weighted>
0.0000

> <Gold.Chemscore.DEClash.Weighted>
1.8137

> <Gold.Chemscore.DEInternal.Weighted>
2.0707

> <Gold.Chemscore.Rot.Weighted>
3.8289

> <Gold.Chemscore.Internal.Correction.Weighted>
   9.000000E+99

> <Gold.Protein.RotatedTorsions>
[ 6907 6896 6895 6894 ] final -170.60 input  -60.11 | X-H torsion
[ 7974 7965 7964 7962 ] final  -35.21 input  175.53 | X-H torsion
[ 8008 7997 7996 7995 ] final -133.82 input   59.86 | X-H torsion
[ 10167 10162 10161 10158 ] final   38.09 input  -65.29 | X-H torsion
[ 10718 10713 10712 10709 ] final   12.73 input   66.30 | X-H torsion
[ 10763 10752 10751 10750 ] final  163.96 input  -60.55 | X-H torsion
[ 11005 11000 10999 10996 ] final  -19.84 input  -57.11 | X-H torsion

> <Gold.Protein.ActiveResidues>
 VAL166  LYS551  ARG553  GLY616  TRP617  ASP618  TYR619  PRO620  LYS621  CYS622 
 ASP623  PHE694  ASN695  SER759  ASP760  ASP761  ALA762  ILE779  LEU786  VAL792 
 PHE793  MET794  SER795  GLU796  ALA797  LYS798  CYS799  TRP800  GLU811  SER814 

> <Gold.Protein.RotatedAtoms>
  151.5103  133.3486  159.2883 H   0  0  0  0  0  0  0  0  0  0  0  0  # atno 6907 bound_to 6896
  150.8716  134.8094  159.7170 H   0  0  0  0  0  0  0  0  0  0  0  0  # atno 6908 bound_to 6896
  152.4702  134.4988  159.9770 H   0  0  0  0  0  0  0  0  0  0  0  0  # atno 6909 bound_to 6896
  146.0765  140.6132  142.8928 H   0  0  0  0  0  0  0  0  0  0  0  0  # atno 7974 bound_to 7965
  155.3519  140.0478  157.3046 H   0  0  0  0  0  0  0  0  0  0  0  0  # atno 8008 bound_to 7997
  154.5223  140.2229  155.8918 H   0  0  0  0  0  0  0  0  0  0  0  0  # atno 8009 bound_to 7997
  156.1702  140.3097  155.8966 H   0  0  0  0  0  0  0  0  0  0  0  0  # atno 8010 bound_to 7997
  140.3970  144.1775  150.6132 H   0  0  0  0  0  0  0  0  0  0  0  0  # atno 10167 bound_to 10162
  157.0144  130.6130  149.5712 H   0  0  0  0  0  0  0  0  0  0  0  0  # atno 10718 bound_to 10713
  154.3016  135.2759  155.2608 H   0  0  0  0  0  0  0  0  0  0  0  0  # atno 10763 bound_to 10752
  154.5043  135.5800  153.6558 H   0  0  0  0  0  0  0  0  0  0  0  0  # atno 10764 bound_to 10752
  152.9900  135.6165  154.3187 H   0  0  0  0  0  0  0  0  0  0  0  0  # atno 10765 bound_to 10752
  140.8406  133.7929  155.9856 H   0  0  0  0  0  0  0  0  0  0  0  0  # atno 11005 bound_to 11000
  144.7265  140.4540  143.6969 LP  0  0  0  0  0  0  0  0  0  0  0  0  # atno 17320 bound_to 7965
  145.6296  139.1534  143.2976 LP  0  0  0  0  0  0  0  0  0  0  0  0  # atno 17321 bound_to 7965
  140.4780  143.2389  151.8995 LP  0  0  0  0  0  0  0  0  0  0  0  0  # atno 17342 bound_to 10162
  139.4786  144.5300  151.8681 LP  0  0  0  0  0  0  0  0  0  0  0  0  # atno 17343 bound_to 10162
  156.0124  130.5217  150.8031 LP  0  0  0  0  0  0  0  0  0  0  0  0  # atno 17370 bound_to 10713
  157.5296  131.0936  150.9972 LP  0  0  0  0  0  0  0  0  0  0  0  0  # atno 17371 bound_to 10713
  140.8899  134.2508  157.5100 LP  0  0  0  0  0  0  0  0  0  0  0  0  # atno 17394 bound_to 11000
  139.8703  134.9656  156.4535 LP  0  0  0  0  0  0  0  0  0  0  0  0  # atno 17395 bound_to 11000

$$$$
