AV-unprocessed.smi:207|AV-procd|sdf|1602|dock7
  -GOLD-   2262019513D 1   1.00000     0.00000
 Structure written by MMmdl.
 55 58  0  0  0  0  0  0  0  0  1 V2000
  144.9920  138.7992  154.9622 C   0  0  0  0  0  0  0  0  0  0  0  0
  146.2557  137.9828  154.6217 C   0  0  0  0  0  0  0  0  0  0  0  0
  146.4044  138.0040  153.0765 C   0  0  0  0  0  0  0  0  0  0  0  0
  147.4429  138.7733  155.2345 C   0  0  0  0  0  0  0  0  0  0  0  0
  148.7137  138.0692  155.0557 N   0  0  0  0  0  0  0  0  0  0  0  0
  149.8604  138.7554  155.2927 C   0  0  0  0  0  0  0  0  0  0  0  0
  151.0651  138.1770  155.0389 N   0  0  0  0  0  0  0  0  0  0  0  0
  152.1976  138.8520  155.2555 C   0  0  0  0  0  0  0  0  0  0  0  0
  152.3527  140.0932  155.7194 N   0  0  0  0  0  0  0  0  0  0  0  0
  151.1499  140.6758  155.9891 C   0  0  0  0  0  0  0  0  0  0  0  0
  149.8680  140.0844  155.8032 C   0  0  0  0  0  0  0  0  0  0  0  0
  148.8757  140.9775  156.1890 N   0  0  0  0  0  0  0  0  0  0  0  0
  149.5322  142.0388  156.5698 C   0  0  0  0  0  0  0  0  0  0  0  0
  150.9039  141.9413  156.4941 N   0  0  0  0  0  0  0  0  0  0  0  0
  151.8680  142.9702  156.8572 C   0  0  0  0  0  0  0  0  0  0  0  0
  151.8788  143.3336  158.3576 C   0  0  0  0  0  0  0  0  0  0  0  0
  152.3426  142.1390  159.2101 C   0  0  0  0  0  0  0  0  0  0  0  0
  152.0511  142.3368  160.5789 O   0  0  0  0  0  0  0  0  0  0  0  0
  152.5471  144.6678  158.7220 C   0  0  0  0  0  0  0  0  0  0  0  0
  151.4022  145.0954  159.4888 O   0  0  0  0  0  0  0  0  0  0  0  0
  150.6224  144.0451  158.8798 C   0  0  0  0  0  0  0  0  0  0  0  0
  148.6946  136.7143  155.5947 C   0  0  0  0  0  0  0  0  0  0  0  0
  147.5085  135.9307  155.0145 C   0  0  0  0  0  0  0  0  0  0  0  0
  146.2268  136.6155  155.2176 N   0  0  0  0  0  0  0  0  0  0  0  0
  145.1019  135.7560  154.8159 C   0  0  0  0  0  0  0  0  0  0  0  0
  144.7438  134.6427  155.8159 C   0  0  0  0  0  0  0  0  0  0  0  0
  143.3407  134.5148  155.8914 O   0  0  0  0  0  0  0  0  0  0  0  0
  145.1062  139.8456  154.6755 H   0  0  0  0  0  0  0  0  0  0  0  0
  144.7787  138.7795  156.0316 H   0  0  0  0  0  0  0  0  0  0  0  0
  144.1153  138.4305  154.4301 H   0  0  0  0  0  0  0  0  0  0  0  0
  146.4673  139.0286  152.7086 H   0  0  0  0  0  0  0  0  0  0  0  0
  145.5558  137.5465  152.5697 H   0  0  0  0  0  0  0  0  0  0  0  0
  147.3048  137.4980  152.7304 H   0  0  0  0  0  0  0  0  0  0  0  0
  147.5069  139.7623  154.7778 H   0  0  0  0  0  0  0  0  0  0  0  0
  147.2748  138.9283  156.3017 H   0  0  0  0  0  0  0  0  0  0  0  0
  153.1095  138.3214  155.0243 H   0  0  0  0  0  0  0  0  0  0  0  0
  149.0289  142.9256  156.9263 H   0  0  0  0  0  0  0  0  0  0  0  0
  152.8536  142.6283  156.5392 H   0  0  0  0  0  0  0  0  0  0  0  0
  151.6617  143.8558  156.2547 H   0  0  0  0  0  0  0  0  0  0  0  0
  151.8913  141.2039  158.8773 H   0  0  0  0  0  0  0  0  0  0  0  0
  153.4204  141.9999  159.1183 H   0  0  0  0  0  0  0  0  0  0  0  0
  151.1859  142.0002  160.7544 H   0  0  0  0  0  0  0  0  0  0  0  0
  153.4478  144.5644  159.3283 H   0  0  0  0  0  0  0  0  0  0  0  0
  152.7234  145.3291  157.8725 H   0  0  0  0  0  0  0  0  0  0  0  0
  149.9710  144.4290  158.0928 H   0  0  0  0  0  0  0  0  0  0  0  0
  150.0524  143.4683  159.6093 H   0  0  0  0  0  0  0  0  0  0  0  0
  149.6200  136.1832  155.3747 H   0  0  0  0  0  0  0  0  0  0  0  0
  148.6111  136.7674  156.6813 H   0  0  0  0  0  0  0  0  0  0  0  0
  147.6713  135.7277  153.9560 H   0  0  0  0  0  0  0  0  0  0  0  0
  147.4835  134.9562  155.5036 H   0  0  0  0  0  0  0  0  0  0  0  0
  144.2196  136.3486  154.5806 H   0  0  0  0  0  0  0  0  0  0  0  0
  145.3535  135.2510  153.8820 H   0  0  0  0  0  0  0  0  0  0  0  0
  145.1655  133.6914  155.4898 H   0  0  0  0  0  0  0  0  0  0  0  0
  145.1208  134.8342  156.8174 H   0  0  0  0  0  0  0  0  0  0  0  0
  143.1072  133.6279  155.6628 H   0  0  0  0  0  0  0  0  0  0  0  0
  1  2  1  0  0  0  0
  1 28  1  0  0  0  0
  1 29  1  0  0  0  0
  1 30  1  0  0  0  0
  2 24  1  0  0  0  0
  2  3  1  0  0  0  0
  2  4  1  0  0  0  0
  3 31  1  0  0  0  0
  3 32  1  0  0  0  0
  3 33  1  0  0  0  0
  4  5  1  0  0  0  0
  4 34  1  0  0  0  0
  4 35  1  0  0  0  0
  5  6  1  0  0  0  0
  5 22  1  0  0  0  0
  6 11  1  0  0  0  0
  6  7  2  0  0  0  0
  7  8  1  0  0  0  0
  8  9  2  0  0  0  0
  8 36  1  0  0  0  0
  9 10  1  0  0  0  0
 10 14  1  0  0  0  0
 10 11  2  0  0  0  0
 11 12  1  0  0  0  0
 12 13  2  0  0  0  0
 13 14  1  0  0  0  0
 13 37  1  0  0  0  0
 14 15  1  0  0  0  0
 15 16  1  0  0  0  0
 15 38  1  0  0  0  0
 15 39  1  0  0  0  0
 16 21  1  0  0  0  0
 16 17  1  0  0  0  0
 16 19  1  0  0  0  0
 17 18  1  0  0  0  0
 17 40  1  0  0  0  0
 17 41  1  0  0  0  0
 18 42  1  0  0  0  0
 19 20  1  0  0  0  0
 19 43  1  0  0  0  0
 19 44  1  0  0  0  0
 20 21  1  0  0  0  0
 21 45  1  0  0  0  0
 21 46  1  0  0  0  0
 22 23  1  0  0  0  0
 22 47  1  0  0  0  0
 22 48  1  0  0  0  0
 23 24  1  0  0  0  0
 23 49  1  0  0  0  0
 23 50  1  0  0  0  0
 24 25  1  0  0  0  0
 25 26  1  0  0  0  0
 25 51  1  0  0  0  0
 25 52  1  0  0  0  0
 26 27  1  0  0  0  0
 26 53  1  0  0  0  0
 26 54  1  0  0  0  0
 27 55  1  0  0  0  0
M  END
> <s_m_source_file>
AV-unprocessed.smi

> <i_m_source_file_index>
207

> <i_lp_mmshare_version>
43012

> <i_f3d_flags>
0

> <s_epik_input>
W09IXVtDSDJdW0NIMl1OMVtDSDJdW0NIMl1OKFtDSDJdQzEoW0NIM10pW0NIM10pYyhuW2NIXW4yKWMoYzIzKW5bY0hdbjNbQ0gyXUM0KFtDSDJdW09IXSlbQ0gyXU9bQ0gyXTQ=

> <s_epik_cmdline>
J2VwaWtfcHl0aG9uJywgJy1waCcsICc3LjAnLCAnLXRuJywgJzgnLCAnLW1hJywgJzIwMCcsICctbWV0YWxfYmluZGluZycsICctaW1hZScsICc8aW5maWxlLm1hZT4nLCAnLW9tYWUnLCAnPG91dGZpbGUubWFlPic=

> <r_lp_tautomer_probability>
1

> <r_epik_Ionization_Penalty>
0.411763

> <r_epik_Ionization_Penalty_Charging>
0

> <r_epik_Ionization_Penalty_Neutral>
0.411763

> <r_epik_State_Penalty>
0.407012

> <r_epik_Charging_Adjusted_Penalty>
0.407012

> <i_epik_Tot_Q>
0

> <i_epik_Tot_abs_Q>
0

> <r_epik_Metal_State_Penalty>
0.401279

> <b_epik_Metal_Only>
0

> <s_lp_Force_Field>
OPLS_2005

> <r_lp_Energy>
76.2772

> <b_lp_Chiralities_Consistent>
1

> <s_lp_Variant>
AV-unprocessed.smi:207-1

> <Gold.Version>
5.8.1

> <Gold.Id.Protein>
6NUR|6NUR_protein|mol2

> <Gold.PLP.Fitness>
39.2373

> <Gold.PLP.PLP>
-32.1443

> <Gold.PLP.part.hbond>
-3.1067

> <Gold.PLP.part.metal>
0.0000

> <Gold.PLP.part.buried>
-3.2691

> <Gold.PLP.part.nonpolar>
-25.6299

> <Gold.PLP.part.repulsive>
0.4607

> <Gold.PLP.ligand.clash>
0.0000

> <Gold.PLP.ligand.torsion>
0.9603

> <Gold.PLP.Chemscore.Hbond>
1.9913

> <Gold.PLP.Chemscore.CHOScore>
0.7744

> <Gold.PLP.Chemscore.Metal>
0.0000

> <Gold.Chemscore.Hbonds>
donor molecule, donor type, donor heavy atom, donor atom, acceptor molecule, acceptor atom, score
      L1  H    27    55       P1 10957  0.84
      P1  H  7997  8008       L1     9  0.96
      L1  C    13    37       P1  8028  0.83

> <Gold.PLP.Chemscore.Internal.Correction>
0.7167

> <Gold.Rescore>
     Score         DG    S(hbond)    S(metal)    S(lipo)     H(rot)  DE(clash)    DE(int)     intcor
      4.12      -8.87       1.39        0.00      71.20       3.74       1.56       3.19       ----

> <Gold.Chemscore.Fitness>
4.1234

> <Gold.Chemscore.DG>
-8.8717

> <Gold.Chemscore.ZeroCoef>
-5.4800

> <Gold.Chemscore.Hbond>
1.3904

> <Gold.Chemscore.Metal>
0.0000

> <Gold.Chemscore.Lipo>
71.2001

> <Gold.Chemscore.Internal_Hbond>
0.0000

> <Gold.Chemscore.DEClash>
1.5585

> <Gold.Chemscore.DEInternal>
3.1898

> <Gold.Chemscore.Rot>
3.7432

> <Gold.Chemscore.Internal.Correction>
   9.000000E+99

> <Gold.Chemscore.Hbonds>
donor molecule, donor type, donor heavy atom, donor atom, acceptor molecule, acceptor atom, score
      L1  H    27    55       P1 10957  0.84
      P1  H  7997  8008       L1     9  0.36

> <Gold.Chemscore.Hbond.Weighted>
-4.6438

> <Gold.Chemscore.Metal.Weighted>
-0.0000

> <Gold.Chemscore.Lipo.Weighted>
-8.3304

> <Gold.Chemscore.Internal_Hbond.Weighted>
0.0000

> <Gold.Chemscore.DEClash.Weighted>
1.5585

> <Gold.Chemscore.DEInternal.Weighted>
3.1898

> <Gold.Chemscore.Rot.Weighted>
9.5825

> <Gold.Chemscore.Internal.Correction.Weighted>
   9.000000E+99

> <Gold.Protein.RotatedTorsions>
[ 6907 6896 6895 6894 ] final   56.71 input  -60.11 | X-H torsion
[ 7974 7965 7964 7962 ] final -143.56 input  175.53 | X-H torsion
[ 8008 7997 7996 7995 ] final  -31.73 input   59.86 | X-H torsion
[ 10167 10162 10161 10158 ] final   98.98 input  -65.29 | X-H torsion
[ 10718 10713 10712 10709 ] final  -64.54 input   66.30 | X-H torsion
[ 10763 10752 10751 10750 ] final   56.05 input  -60.55 | X-H torsion
[ 11005 11000 10999 10996 ] final -151.57 input  -57.11 | X-H torsion

> <Gold.Protein.ActiveResidues>
 VAL166  LYS551  ARG553  GLY616  TRP617  ASP618  TYR619  PRO620  LYS621  CYS622 
 ASP623  PHE694  ASN695  SER759  ASP760  ASP761  ALA762  ILE779  LEU786  VAL792 
 PHE793  MET794  SER795  GLU796  ALA797  LYS798  CYS799  TRP800  GLU811  SER814 

> <Gold.Protein.RotatedAtoms>
  152.3662  134.6801  160.0190 H   0  0  0  0  0  0  0  0  0  0  0  0  # atno 6907 bound_to 6896
  151.7109  133.3307  159.3298 H   0  0  0  0  0  0  0  0  0  0  0  0  # atno 6908 bound_to 6896
  150.7640  134.6468  159.6311 H   0  0  0  0  0  0  0  0  0  0  0  0  # atno 6909 bound_to 6896
  144.8361  140.5820  143.5483 H   0  0  0  0  0  0  0  0  0  0  0  0  # atno 7974 bound_to 7965
  154.4204  140.1756  156.1613 H   0  0  0  0  0  0  0  0  0  0  0  0  # atno 8008 bound_to 7997
  155.9836  140.3375  155.6661 H   0  0  0  0  0  0  0  0  0  0  0  0  # atno 8009 bound_to 7997
  155.6467  140.0686  157.2591 H   0  0  0  0  0  0  0  0  0  0  0  0  # atno 8010 bound_to 7997
  139.7659  144.6939  151.0225 H   0  0  0  0  0  0  0  0  0  0  0  0  # atno 10167 bound_to 10162
  156.0723  130.4235  150.1435 H   0  0  0  0  0  0  0  0  0  0  0  0  # atno 10718 bound_to 10713
  152.9826  135.5689  154.5166 H   0  0  0  0  0  0  0  0  0  0  0  0  # atno 10763 bound_to 10752
  154.4661  135.2783  155.1679 H   0  0  0  0  0  0  0  0  0  0  0  0  # atno 10764 bound_to 10752
  154.3246  135.6262  153.5577 H   0  0  0  0  0  0  0  0  0  0  0  0  # atno 10765 bound_to 10752
  140.7281  134.3651  157.5171 H   0  0  0  0  0  0  0  0  0  0  0  0  # atno 11005 bound_to 11000
  145.4792  139.1497  143.3771 LP  0  0  0  0  0  0  0  0  0  0  0  0  # atno 17320 bound_to 7965
  146.2659  140.4928  142.8834 LP  0  0  0  0  0  0  0  0  0  0  0  0  # atno 17321 bound_to 7965
  140.7811  143.4643  151.0234 LP  0  0  0  0  0  0  0  0  0  0  0  0  # atno 17342 bound_to 10162
  139.8328  143.7668  152.3180 LP  0  0  0  0  0  0  0  0  0  0  0  0  # atno 17343 bound_to 10162
  156.9483  130.9766  151.3503 LP  0  0  0  0  0  0  0  0  0  0  0  0  # atno 17370 bound_to 10713
  157.5800  130.8370  149.8509 LP  0  0  0  0  0  0  0  0  0  0  0  0  # atno 17371 bound_to 10713
  139.8832  134.9000  156.2779 LP  0  0  0  0  0  0  0  0  0  0  0  0  # atno 17394 bound_to 11000
  140.9944  133.7189  156.0864 LP  0  0  0  0  0  0  0  0  0  0  0  0  # atno 17395 bound_to 11000

$$$$
