AV-unprocessed.smi:2083|AV-procd|sdf|8512|dock6
  -GOLD-   2272011223D 1   1.00000     0.00000
 Structure written by MMmdl.
 44 45  0  0  0  0  0  0  0  0  3 V2000
  153.4310  142.1337  161.1668 C   0  0  0  0  0  0  0  0  0  0  0  0
  153.2141  141.3466  159.9197 C   0  0  0  0  0  0  0  0  0  0  0  0
  152.2050  141.3276  158.9987 C   0  0  0  0  0  0  0  0  0  0  0  0
  152.6385  140.3473  158.0670 C   0  0  0  0  0  0  0  0  0  0  0  0
  151.8478  140.0285  156.9315 N   0  0  0  0  0  0  0  0  0  0  0  0
  152.2404  139.5321  155.7442 C   0  0  0  0  0  0  0  0  0  0  0  0
  153.4332  139.2802  155.5349 O   0  0  0  0  0  0  0  0  0  0  0  0
  151.1985  139.3709  154.8820 N   0  5  0  0  0  0  0  0  0  0  0  0
  150.7565  138.0869  154.3350 C   0  0  0  0  0  0  0  0  0  0  0  0
  149.4750  137.5797  155.0539 C   0  0  2  0  0  0  0  0  0  0  0  0
  149.5524  137.6268  156.6009 C   0  0  0  0  0  0  0  0  0  0  0  0
  149.0770  136.2347  154.5320 N   0  3  2  0  0  0  0  0  0  0  0  0
  147.6570  135.8931  154.8142 C   0  0  0  0  0  0  0  0  0  0  0  0
  147.2284  134.6381  154.0369 C   0  0  0  0  0  0  0  0  0  0  0  0
  148.1520  133.4523  154.3443 C   0  0  0  0  0  0  0  0  0  0  0  0
  149.6180  133.8330  154.0771 C   0  0  2  0  0  0  0  0  0  0  0  0
  150.5674  132.6704  154.3991 C   0  0  0  0  0  0  0  0  0  0  0  0
  149.9873  135.1003  154.8723 C   0  0  0  0  0  0  0  0  0  0  0  0
  153.8086  139.8168  158.3906 N   0  0  0  0  0  0  0  0  0  0  0  0
  154.1834  140.4544  159.5792 O   0  0  0  0  0  0  0  0  0  0  0  0
  152.5069  142.2128  161.7395 H   0  0  0  0  0  0  0  0  0  0  0  0
  153.7707  143.1422  160.9311 H   0  0  0  0  0  0  0  0  0  0  0  0
  154.1819  141.6635  161.8022 H   0  0  0  0  0  0  0  0  0  0  0  0
  151.3023  141.9201  158.9941 H   0  0  0  0  0  0  0  0  0  0  0  0
  150.8579  140.1995  157.0283 H   0  0  0  0  0  0  0  0  0  0  0  0
  150.5550  138.1583  153.2649 H   0  0  0  0  0  0  0  0  0  0  0  0
  151.5360  137.3301  154.4251 H   0  0  0  0  0  0  0  0  0  0  0  0
  148.6806  138.2694  154.7648 H   0  0  0  0  0  0  0  0  0  0  0  0
  149.6851  138.6458  156.9688 H   0  0  0  0  0  0  0  0  0  0  0  0
  150.3726  137.0292  157.0023 H   0  0  0  0  0  0  0  0  0  0  0  0
  148.6290  137.2560  157.0461 H   0  0  0  0  0  0  0  0  0  0  0  0
  147.5216  135.7412  155.8861 H   0  0  0  0  0  0  0  0  0  0  0  0
  147.0065  136.7197  154.5255 H   0  0  0  0  0  0  0  0  0  0  0  0
  146.1980  134.3806  154.2835 H   0  0  0  0  0  0  0  0  0  0  0  0
  147.2463  134.8481  152.9664 H   0  0  0  0  0  0  0  0  0  0  0  0
  148.0285  133.1525  155.3860 H   0  0  0  0  0  0  0  0  0  0  0  0
  147.8667  132.5929  153.7365 H   0  0  0  0  0  0  0  0  0  0  0  0
  149.7227  134.0584  153.0144 H   0  0  0  0  0  0  0  0  0  0  0  0
  150.5143  132.3942  155.4526 H   0  0  0  0  0  0  0  0  0  0  0  0
  151.6015  132.9346  154.1760 H   0  0  0  0  0  0  0  0  0  0  0  0
  150.3199  131.7867  153.8102 H   0  0  0  0  0  0  0  0  0  0  0  0
  151.0218  135.3678  154.6550 H   0  0  0  0  0  0  0  0  0  0  0  0
  149.9343  134.8887  155.9412 H   0  0  0  0  0  0  0  0  0  0  0  0
  149.1247  136.3359  153.5280 H   0  0  0  0  0  0  0  0  0  0  0  0
  1  2  1  0  0  0  0
  1 21  1  0  0  0  0
  1 22  1  0  0  0  0
  1 23  1  0  0  0  0
  2 20  1  0  0  0  0
  2  3  2  0  0  0  0
  3  4  1  0  0  0  0
  3 24  1  0  0  0  0
  4  5  1  0  0  0  0
  4 19  2  0  0  0  0
  5  6  1  0  0  0  0
  5 25  1  0  0  0  0
  6  7  2  0  0  0  0
  6  8  1  0  0  0  0
  8  9  1  0  0  0  0
  9 10  1  0  0  0  0
  9 26  1  0  0  0  0
  9 27  1  0  0  0  0
 10 11  1  0  0  0  0
 10 12  1  0  0  0  0
 10 28  1  0  0  0  0
 11 29  1  0  0  0  0
 11 30  1  0  0  0  0
 11 31  1  0  0  0  0
 12 18  1  0  0  0  0
 12 13  1  0  0  0  0
 12 44  1  0  0  0  0
 13 14  1  0  0  0  0
 13 32  1  0  0  0  0
 13 33  1  0  0  0  0
 14 15  1  0  0  0  0
 14 34  1  0  0  0  0
 14 35  1  0  0  0  0
 15 16  1  0  0  0  0
 15 36  1  0  0  0  0
 15 37  1  0  0  0  0
 16 17  1  0  0  0  0
 16 18  1  0  0  0  0
 16 38  1  0  0  0  0
 17 39  1  0  0  0  0
 17 40  1  0  0  0  0
 17 41  1  0  0  0  0
 18 42  1  0  0  0  0
 18 43  1  0  0  0  0
 19 20  1  0  0  0  0
M  CHG  1   8  -1
M  CHG  1  12   1
M  END
> <s_m_source_file>
AV-unprocessed.smi

> <i_m_source_file_index>
2083

> <i_lp_mmshare_version>
43012

> <i_f3d_flags>
0

> <s_epik_input>
W0NIM11jMVtjSF1jKG5vMSlbTkhdQyg9TylbTkhdW0NIMl1bQ0BIXShbQ0gzXSlOMltDSDJdW0NIMl1bQ0gyXVtDQEBIXShbQ0gzXSlbQ0gyXTI=

> <s_epik_cmdline>
J2VwaWtfcHl0aG9uJywgJy1waCcsICc3LjAnLCAnLXRuJywgJzgnLCAnLW1hJywgJzIwMCcsICctbWV0YWxfYmluZGluZycsICctaW1hZScsICc8aW5maWxlLm1hZT4nLCAnLW9tYWUnLCAnPG91dGZpbGUubWFlPic=

> <r_epik_Ionization_Penalty>
6.76934

> <r_epik_Ionization_Penalty_Charging>
6.76934

> <r_epik_Ionization_Penalty_Neutral>
5.77849e-06

> <r_epik_State_Penalty>
6.79457

> <r_epik_Charging_Adjusted_Penalty>
13.5639

> <i_epik_Tot_Q>
0

> <i_epik_Tot_abs_Q>
2

> <r_epik_Metal_State_Penalty>
2.72837

> <b_epik_Metal_Only>
1

> <s_lp_Force_Field>
OPLS_2005

> <r_lp_Energy>
16.9315

> <b_lp_Chiralities_Consistent>
1

> <s_lp_Variant>
AV-unprocessed.smi:2083-23

> <Gold.Version>
5.8.1

> <Gold.Id.Protein>
6NUR|6NUR_protein|mol2

> <Gold.PLP.Fitness>
42.9004

> <Gold.PLP.PLP>
-31.5063

> <Gold.PLP.part.hbond>
-3.6611

> <Gold.PLP.part.metal>
0.0000

> <Gold.PLP.part.buried>
-2.8767

> <Gold.PLP.part.nonpolar>
-23.6170

> <Gold.PLP.part.repulsive>
0.1733

> <Gold.PLP.ligand.clash>
0.0000

> <Gold.PLP.ligand.torsion>
1.0187

> <Gold.PLP.Chemscore.Hbond>
4.4240

> <Gold.PLP.Chemscore.CHOScore>
0.0000

> <Gold.PLP.Chemscore.Metal>
0.0000

> <Gold.Chemscore.Hbonds>
donor molecule, donor type, donor heavy atom, donor atom, acceptor molecule, acceptor atom, score
      L1  H    12    44       P1  7948  2.00
      P1  H  7989  7998       L1     8  0.88
      P1  H  7997  8009       L1    19  0.72
      P1  H  7997  8010       L1     7  0.76

> <Gold.PLP.Chemscore.Internal.Correction>
0.1596

> <Gold.Rescore>
     Score         DG    S(hbond)    S(metal)    S(lipo)     H(rot)  DE(clash)    DE(int)     intcor
     15.80     -18.08       2.64        0.00      65.68       1.52       0.07       2.21       ----

> <Gold.Chemscore.Fitness>
15.7986

> <Gold.Chemscore.DG>
-18.0786

> <Gold.Chemscore.ZeroCoef>
-5.4800

> <Gold.Chemscore.Hbond>
2.6356

> <Gold.Chemscore.Metal>
0.0000

> <Gold.Chemscore.Lipo>
65.6795

> <Gold.Chemscore.Internal_Hbond>
0.0000

> <Gold.Chemscore.DEClash>
0.0657

> <Gold.Chemscore.DEInternal>
2.2143

> <Gold.Chemscore.Rot>
1.5190

> <Gold.Chemscore.Internal.Correction>
   9.000000E+99

> <Gold.Chemscore.Hbonds>
donor molecule, donor type, donor heavy atom, donor atom, acceptor molecule, acceptor atom, score
      L1  H    12    44       P1  7948  0.97
      P1  H  7989  7998       L1     8  0.20
      P1  H  7997  8009       L1    19  0.35
      P1  H  7997  8010       L1     7  0.72

> <Gold.Chemscore.Hbond.Weighted>
-8.8028

> <Gold.Chemscore.Metal.Weighted>
-0.0000

> <Gold.Chemscore.Lipo.Weighted>
-7.6845

> <Gold.Chemscore.Internal_Hbond.Weighted>
0.0000

> <Gold.Chemscore.DEClash.Weighted>
0.0657

> <Gold.Chemscore.DEInternal.Weighted>
2.2143

> <Gold.Chemscore.Rot.Weighted>
3.8886

> <Gold.Chemscore.Internal.Correction.Weighted>
   9.000000E+99

> <Gold.Protein.RotatedTorsions>
[ 6907 6896 6895 6894 ] final    4.62 input  -60.11 | X-H torsion
[ 7974 7965 7964 7962 ] final -147.36 input  175.53 | X-H torsion
[ 8008 7997 7996 7995 ] final  117.06 input   59.86 | X-H torsion
[ 10167 10162 10161 10158 ] final  -25.05 input  -65.29 | X-H torsion
[ 10718 10713 10712 10709 ] final  -98.79 input   66.30 | X-H torsion
[ 10763 10752 10751 10750 ] final  142.17 input  -60.55 | X-H torsion
[ 11005 11000 10999 10996 ] final   65.64 input  -57.11 | X-H torsion

> <Gold.Protein.ActiveResidues>
 VAL166  LYS551  ARG553  GLY616  TRP617  ASP618  TYR619  PRO620  LYS621  CYS622 
 ASP623  PHE694  ASN695  SER759  ASP760  ASP761  ALA762  ILE779  LEU786  VAL792 
 PHE793  MET794  SER795  GLU796  ALA797  LYS798  CYS799  TRP800  GLU811  SER814 

> <Gold.Protein.RotatedAtoms>
  151.6442  135.1009  160.0147 H   0  0  0  0  0  0  0  0  0  0  0  0  # atno 6907 bound_to 6896
  152.4037  133.6852  159.6346 H   0  0  0  0  0  0  0  0  0  0  0  0  # atno 6908 bound_to 6896
  150.7934  133.8663  159.3287 H   0  0  0  0  0  0  0  0  0  0  0  0  # atno 6909 bound_to 6896
  144.8098  140.5336  143.5650 H   0  0  0  0  0  0  0  0  0  0  0  0  # atno 7974 bound_to 7965
  156.2474  140.2904  156.0620 H   0  0  0  0  0  0  0  0  0  0  0  0  # atno 8008 bound_to 7997
  155.1765  140.0403  157.2891 H   0  0  0  0  0  0  0  0  0  0  0  0  # atno 8009 bound_to 7997
  154.6289  140.2494  155.7465 H   0  0  0  0  0  0  0  0  0  0  0  0  # atno 8010 bound_to 7997
  140.7287  143.4299  151.0818 H   0  0  0  0  0  0  0  0  0  0  0  0  # atno 10167 bound_to 10162
  156.0116  130.5253  150.6574 H   0  0  0  0  0  0  0  0  0  0  0  0  # atno 10718 bound_to 10713
  153.9513  135.2969  155.3438 H   0  0  0  0  0  0  0  0  0  0  0  0  # atno 10763 bound_to 10752
  154.7425  135.5018  153.9149 H   0  0  0  0  0  0  0  0  0  0  0  0  # atno 10764 bound_to 10752
  153.0992  135.6729  153.9813 H   0  0  0  0  0  0  0  0  0  0  0  0  # atno 10765 bound_to 10752
  139.9882  134.6634  156.0139 H   0  0  0  0  0  0  0  0  0  0  0  0  # atno 11005 bound_to 11000
  145.5351  139.1475  143.3478 LP  0  0  0  0  0  0  0  0  0  0  0  0  # atno 17320 bound_to 7965
  146.2395  140.5491  142.8940 LP  0  0  0  0  0  0  0  0  0  0  0  0  # atno 17321 bound_to 7965
  139.7955  143.8158  152.3157 LP  0  0  0  0  0  0  0  0  0  0  0  0  # atno 17342 bound_to 10162
  139.8157  144.7317  150.9639 LP  0  0  0  0  0  0  0  0  0  0  0  0  # atno 17343 bound_to 10162
  157.4323  131.0851  151.1026 LP  0  0  0  0  0  0  0  0  0  0  0  0  # atno 17370 bound_to 10713
  157.1595  130.6219  149.5606 LP  0  0  0  0  0  0  0  0  0  0  0  0  # atno 17371 bound_to 10713
  141.1543  133.6544  156.4111 LP  0  0  0  0  0  0  0  0  0  0  0  0  # atno 17394 bound_to 11000
  140.4961  134.6530  157.5230 LP  0  0  0  0  0  0  0  0  0  0  0  0  # atno 17395 bound_to 11000

$$$$
