AV-unprocessed.smi:2844|AV-procd|sdf|10940|dock2
  -GOLD-   2272015383D 1   1.00000     0.00000
 Structure written by MMmdl.
 38 40  0  0  0  0  0  0  0  0  1 V2000
  152.8385  143.1317  160.9117 C   0  0  0  0  0  0  0  0  0  0  0  0
  152.2140  142.6804  159.6032 C   0  0  0  0  0  0  0  0  0  0  0  0
  152.7067  141.5157  158.9729 C   0  0  0  0  0  0  0  0  0  0  0  0
  152.1526  141.0610  157.7563 C   0  0  0  0  0  0  0  0  0  0  0  0
  152.4724  139.9616  156.9781 N   0  0  0  0  0  0  0  0  0  0  0  0
  151.6040  140.0799  155.9779 C   0  0  0  0  0  0  0  0  0  0  0  0
  150.7589  141.1281  156.0156 N   0  0  0  0  0  0  0  0  0  0  0  0
  149.7323  141.4642  155.0455 C   0  0  0  0  0  0  0  0  0  0  0  0
  148.7335  140.3128  154.8224 C   0  0  1  0  0  0  0  0  0  0  0  0
  148.0577  140.0256  156.0334 O   0  0  0  0  0  0  0  0  0  0  0  0
  147.7104  140.6453  153.7191 C   0  0  0  0  0  0  0  0  0  0  0  0
  146.7661  141.6736  154.1195 N   0  0  0  0  0  0  0  0  0  0  0  0
  146.4013  142.8136  153.4293 C   0  0  0  0  0  0  0  0  0  0  0  0
  145.4915  143.4421  154.2233 C   0  0  0  0  0  0  0  0  0  0  0  0
  144.6798  144.9265  153.8877 Cl  0  0  0  0  0  0  0  0  0  0  0  0
  145.3428  142.6347  155.3795 C   0  0  0  0  0  0  0  0  0  0  0  0
  146.1170  141.5615  155.3068 N   0  0  0  0  0  0  0  0  0  0  0  0
  151.0846  141.8107  157.1821 C   0  0  0  0  0  0  0  0  0  0  0  0
  150.5868  142.9723  157.7985 C   0  0  0  0  0  0  0  0  0  0  0  0
  151.1506  143.4114  159.0148 C   0  0  0  0  0  0  0  0  0  0  0  0
  150.6046  144.6650  159.6751 C   0  0  0  0  0  0  0  0  0  0  0  0
  153.6177  142.4430  161.2394 H   0  0  0  0  0  0  0  0  0  0  0  0
  152.0853  143.1818  161.6982 H   0  0  0  0  0  0  0  0  0  0  0  0
  153.2892  144.1179  160.7990 H   0  0  0  0  0  0  0  0  0  0  0  0
  153.5171  140.9590  159.4203 H   0  0  0  0  0  0  0  0  0  0  0  0
  151.5819  139.3643  155.1689 H   0  0  0  0  0  0  0  0  0  0  0  0
  149.2136  142.3632  155.3818 H   0  0  0  0  0  0  0  0  0  0  0  0
  150.2248  141.7218  154.1072 H   0  0  0  0  0  0  0  0  0  0  0  0
  149.2864  139.4180  154.5332 H   0  0  0  0  0  0  0  0  0  0  0  0
  148.3598  139.1911  156.3574 H   0  0  0  0  0  0  0  0  0  0  0  0
  148.2217  140.9779  152.8146 H   0  0  0  0  0  0  0  0  0  0  0  0
  147.1464  139.7519  153.4470 H   0  0  0  0  0  0  0  0  0  0  0  0
  146.8109  143.0700  152.4636 H   0  0  0  0  0  0  0  0  0  0  0  0
  144.7151  142.7855  156.2454 H   0  0  0  0  0  0  0  0  0  0  0  0
  149.7775  143.5197  157.3381 H   0  0  0  0  0  0  0  0  0  0  0  0
  149.8015  145.1080  159.0855 H   0  0  0  0  0  0  0  0  0  0  0  0
  151.3901  145.4129  159.7854 H   0  0  0  0  0  0  0  0  0  0  0  0
  150.2055  144.4327  160.6627 H   0  0  0  0  0  0  0  0  0  0  0  0
  1  2  1  0  0  0  0
  1 22  1  0  0  0  0
  1 23  1  0  0  0  0
  1 24  1  0  0  0  0
  2 20  1  0  0  0  0
  2  3  2  0  0  0  0
  3  4  1  0  0  0  0
  3 25  1  0  0  0  0
  4 18  2  0  0  0  0
  4  5  1  0  0  0  0
  5  6  2  0  0  0  0
  6  7  1  0  0  0  0
  6 26  1  0  0  0  0
  7  8  1  0  0  0  0
  7 18  1  0  0  0  0
  8  9  1  0  0  0  0
  8 27  1  0  0  0  0
  8 28  1  0  0  0  0
  9 10  1  0  0  0  0
  9 11  1  0  0  0  0
  9 29  1  0  0  0  0
 10 30  1  0  0  0  0
 11 12  1  0  0  0  0
 11 31  1  0  0  0  0
 11 32  1  0  0  0  0
 12 17  1  0  0  0  0
 12 13  1  0  0  0  0
 13 14  2  0  0  0  0
 13 33  1  0  0  0  0
 14 15  1  0  0  0  0
 14 16  1  0  0  0  0
 16 17  2  0  0  0  0
 16 34  1  0  0  0  0
 18 19  1  0  0  0  0
 19 20  2  0  0  0  0
 19 35  1  0  0  0  0
 20 21  1  0  0  0  0
 21 36  1  0  0  0  0
 21 37  1  0  0  0  0
 21 38  1  0  0  0  0
M  END
> <s_m_source_file>
AV-unprocessed.smi

> <i_m_source_file_index>
2844

> <i_lp_mmshare_version>
43012

> <i_f3d_flags>
0

> <s_epik_input>
W0NIM11jKFtjSF0xKWMoW0NIM10pW2NIXWMoYzEyKW4oW2NIXW4yKVtDSDJdW0NASF0oW09IXSlbQ0gyXW4zW2NIXWMoQ2wpW2NIXW4z

> <s_epik_cmdline>
J2VwaWtfcHl0aG9uJywgJy1waCcsICc3LjAnLCAnLXRuJywgJzgnLCAnLW1hJywgJzIwMCcsICctbWV0YWxfYmluZGluZycsICctaW1hZScsICc8aW5maWxlLm1hZT4nLCAnLW9tYWUnLCAnPG91dGZpbGUubWFlPic=

> <r_lp_tautomer_probability>
1

> <r_epik_Ionization_Penalty>
0.1021

> <r_epik_Ionization_Penalty_Charging>
0

> <r_epik_Ionization_Penalty_Neutral>
0.1021

> <r_epik_State_Penalty>
0.0920694

> <r_epik_Charging_Adjusted_Penalty>
0.0920694

> <i_epik_Tot_Q>
0

> <i_epik_Tot_abs_Q>
0

> <r_epik_Metal_State_Penalty>
0.0784292

> <b_epik_Metal_Only>
0

> <s_lp_Force_Field>
OPLS_2005

> <r_lp_Energy>
10.226

> <b_lp_Chiralities_Consistent>
1

> <s_lp_Variant>
AV-unprocessed.smi:2844-2

> <Gold.Version>
5.8.1

> <Gold.Id.Protein>
6NUR|6NUR_protein|mol2

> <Gold.PLP.Fitness>
48.0689

> <Gold.PLP.PLP>
-45.3608

> <Gold.PLP.part.hbond>
-1.0000

> <Gold.PLP.part.metal>
0.0000

> <Gold.PLP.part.buried>
-5.0269

> <Gold.PLP.part.nonpolar>
-38.1832

> <Gold.PLP.part.repulsive>
0.1139

> <Gold.PLP.ligand.clash>
0.0000

> <Gold.PLP.ligand.torsion>
0.1624

> <Gold.PLP.Chemscore.Hbond>
1.0000

> <Gold.PLP.Chemscore.CHOScore>
0.0000

> <Gold.PLP.Chemscore.Metal>
0.0000

> <Gold.Chemscore.Hbonds>
donor molecule, donor type, donor heavy atom, donor atom, acceptor molecule, acceptor atom, score
      P1  H  7997  8010       L1     5  1.00

> <Gold.PLP.Chemscore.Internal.Correction>
0.0328

> <Gold.Rescore>
     Score         DG    S(hbond)    S(metal)    S(lipo)     H(rot)  DE(clash)    DE(int)     intcor
     14.34     -16.38       0.91        0.00     114.25       2.15       0.31       1.73       ----

> <Gold.Chemscore.Fitness>
14.3358

> <Gold.Chemscore.DG>
-16.3782

> <Gold.Chemscore.ZeroCoef>
-5.4800

> <Gold.Chemscore.Hbond>
0.9112

> <Gold.Chemscore.Metal>
0.0000

> <Gold.Chemscore.Lipo>
114.2533

> <Gold.Chemscore.Internal_Hbond>
0.0000

> <Gold.Chemscore.DEClash>
0.3127

> <Gold.Chemscore.DEInternal>
1.7298

> <Gold.Chemscore.Rot>
2.1534

> <Gold.Chemscore.Internal.Correction>
   9.000000E+99

> <Gold.Chemscore.Hbonds>
donor molecule, donor type, donor heavy atom, donor atom, acceptor molecule, acceptor atom, score
      P1  H  7997  8010       L1     5  0.56

> <Gold.Chemscore.Hbond.Weighted>
-3.0433

> <Gold.Chemscore.Metal.Weighted>
-0.0000

> <Gold.Chemscore.Lipo.Weighted>
-13.3676

> <Gold.Chemscore.Internal_Hbond.Weighted>
0.0000

> <Gold.Chemscore.DEClash.Weighted>
0.3127

> <Gold.Chemscore.DEInternal.Weighted>
1.7298

> <Gold.Chemscore.Rot.Weighted>
5.5127

> <Gold.Chemscore.Internal.Correction.Weighted>
   9.000000E+99

> <Gold.Protein.RotatedTorsions>
[ 6907 6896 6895 6894 ] final  122.39 input  -60.11 | X-H torsion
[ 7974 7965 7964 7962 ] final -106.19 input  175.53 | X-H torsion
[ 8008 7997 7996 7995 ] final   67.33 input   59.86 | X-H torsion
[ 10167 10162 10161 10158 ] final   41.49 input  -65.29 | X-H torsion
[ 10718 10713 10712 10709 ] final -177.73 input   66.30 | X-H torsion
[ 10763 10752 10751 10750 ] final  128.81 input  -60.55 | X-H torsion
[ 11005 11000 10999 10996 ] final  -94.68 input  -57.11 | X-H torsion

> <Gold.Protein.ActiveResidues>
 VAL166  LYS551  ARG553  GLY616  TRP617  ASP618  TYR619  PRO620  LYS621  CYS622 
 ASP623  PHE694  ASN695  SER759  ASP760  ASP761  ALA762  ILE779  LEU786  VAL792 
 PHE793  MET794  SER795  GLU796  ALA797  LYS798  CYS799  TRP800  GLU811  SER814 

> <Gold.Protein.RotatedAtoms>
  152.4247  133.7174  159.6513 H   0  0  0  0  0  0  0  0  0  0  0  0  # atno 6907 bound_to 6896
  150.8123  133.8389  159.3182 H   0  0  0  0  0  0  0  0  0  0  0  0  # atno 6908 bound_to 6896
  151.6095  135.1043  160.0129 H   0  0  0  0  0  0  0  0  0  0  0  0  # atno 6909 bound_to 6896
  145.2210  140.9134  143.3259 H   0  0  0  0  0  0  0  0  0  0  0  0  # atno 7974 bound_to 7965
  155.6913  140.3496  155.4894 H   0  0  0  0  0  0  0  0  0  0  0  0  # atno 8008 bound_to 7997
  155.9522  140.1121  157.0990 H   0  0  0  0  0  0  0  0  0  0  0  0  # atno 8009 bound_to 7997
  154.4124  140.1192  156.5053 H   0  0  0  0  0  0  0  0  0  0  0  0  # atno 8010 bound_to 7997
  140.3638  144.2193  150.6136 H   0  0  0  0  0  0  0  0  0  0  0  0  # atno 10167 bound_to 10162
  156.8338  130.9662  151.3105 H   0  0  0  0  0  0  0  0  0  0  0  0  # atno 10718 bound_to 10713
  153.7316  135.3237  155.3287 H   0  0  0  0  0  0  0  0  0  0  0  0  # atno 10763 bound_to 10752
  154.8324  135.4523  154.1115 H   0  0  0  0  0  0  0  0  0  0  0  0  # atno 10764 bound_to 10752
  153.2265  135.6954  153.8020 H   0  0  0  0  0  0  0  0  0  0  0  0  # atno 10765 bound_to 10752
  141.1463  133.7973  157.0331 H   0  0  0  0  0  0  0  0  0  0  0  0  # atno 11005 bound_to 11000
  144.9765  139.3826  143.6283 LP  0  0  0  0  0  0  0  0  0  0  0  0  # atno 17320 bound_to 7965
  146.3376  139.8887  142.8812 LP  0  0  0  0  0  0  0  0  0  0  0  0  # atno 17321 bound_to 7965
  140.5100  143.2293  151.8549 LP  0  0  0  0  0  0  0  0  0  0  0  0  # atno 17342 bound_to 10162
  139.4811  144.4960  151.9123 LP  0  0  0  0  0  0  0  0  0  0  0  0  # atno 17343 bound_to 10162
  157.6393  130.8792  149.9417 LP  0  0  0  0  0  0  0  0  0  0  0  0  # atno 17370 bound_to 10713
  156.0919  130.3662  150.0378 LP  0  0  0  0  0  0  0  0  0  0  0  0  # atno 17371 bound_to 10713
  140.0741  134.9686  157.1516 LP  0  0  0  0  0  0  0  0  0  0  0  0  # atno 17394 bound_to 11000
  140.3669  134.2433  155.7181 LP  0  0  0  0  0  0  0  0  0  0  0  0  # atno 17395 bound_to 11000

$$$$
