AV-unprocessed.smi:537|AV-procd|sdf|2865|dock6
  -GOLD-   2262023353D 1   1.00000     0.00000
 Structure written by MMmdl.
 32 33  0  0  0  0  0  0  0  0  2 V2000
  150.2585  145.2992  159.8090 C   0  0  0  0  0  0  0  0  0  0  0  0
  150.8634  144.0936  159.2787 N   0  0  0  0  0  0  0  0  0  0  0  0
  151.7794  143.2026  159.8247 C   0  0  0  0  0  0  0  0  0  0  0  0
  152.3048  143.3161  161.0454 N   0  0  0  0  0  0  0  0  0  0  0  0
  153.1331  142.2050  161.1199 C   0  0  0  0  0  0  0  0  0  0  0  0
  153.0868  141.4711  159.9752 C   0  0  0  0  0  0  0  0  0  0  0  0
  153.8555  140.2246  159.7670 C   0  0  0  0  0  0  0  0  0  0  0  0
  153.7717  139.5921  158.7163 O   0  0  0  0  0  0  0  0  0  0  0  0
  154.6238  139.9051  160.8565 N   0  5  0  0  0  0  0  0  0  0  0  0
  154.7045  140.6212  162.0323 C   0  0  0  0  0  0  0  0  0  0  0  0
  155.4269  140.2556  162.9598 O   0  0  0  0  0  0  0  0  0  0  0  0
  153.9681  141.7689  162.1822 N   0  0  0  0  0  0  0  0  0  0  0  0
  153.9980  142.5862  163.3990 C   0  0  0  0  0  0  0  0  0  0  0  0
  152.2008  142.1267  159.1145 N   0  0  0  0  0  0  0  0  0  0  0  0
  151.7972  141.7550  157.7608 C   0  0  0  0  0  0  0  0  0  0  0  0
  151.0556  140.4104  157.7254 C   0  0  0  0  0  0  0  0  0  0  0  0
  150.9375  139.9529  156.3885 O   0  0  0  0  0  0  0  0  0  0  0  0
  152.1920  139.6715  155.7952 C   0  0  0  0  0  0  0  0  0  0  0  0
  149.5903  145.7429  159.0712 H   0  0  0  0  0  0  0  0  0  0  0  0
  151.0280  146.0279  160.0643 H   0  0  0  0  0  0  0  0  0  0  0  0
  149.6839  145.0719  160.7071 H   0  0  0  0  0  0  0  0  0  0  0  0
  150.5635  143.8651  158.3422 H   0  0  0  0  0  0  0  0  0  0  0  0
  154.6638  142.2135  164.1777 H   0  0  0  0  0  0  0  0  0  0  0  0
  152.9978  142.6469  163.8288 H   0  0  0  0  0  0  0  0  0  0  0  0
  154.3199  143.5992  163.1563 H   0  0  0  0  0  0  0  0  0  0  0  0
  151.1600  142.5400  157.3530 H   0  0  0  0  0  0  0  0  0  0  0  0
  152.6697  141.7304  157.1108 H   0  0  0  0  0  0  0  0  0  0  0  0
  151.5966  139.6733  158.3209 H   0  0  0  0  0  0  0  0  0  0  0  0
  150.0658  140.5246  158.1694 H   0  0  0  0  0  0  0  0  0  0  0  0
  152.0431  139.3223  154.7735 H   0  0  0  0  0  0  0  0  0  0  0  0
  152.7215  138.8919  156.3443 H   0  0  0  0  0  0  0  0  0  0  0  0
  152.8197  140.5628  155.7585 H   0  0  0  0  0  0  0  0  0  0  0  0
  1  2  1  0  0  0  0
  1 19  1  0  0  0  0
  1 20  1  0  0  0  0
  1 21  1  0  0  0  0
  2  3  1  0  0  0  0
  2 22  1  0  0  0  0
  3 14  1  0  0  0  0
  3  4  2  0  0  0  0
  4  5  1  0  0  0  0
  5 12  1  0  0  0  0
  5  6  2  0  0  0  0
  6  7  1  0  0  0  0
  6 14  1  0  0  0  0
  7  8  2  0  0  0  0
  7  9  1  0  0  0  0
  9 10  1  0  0  0  0
 10 11  2  0  0  0  0
 10 12  1  0  0  0  0
 12 13  1  0  0  0  0
 13 23  1  0  0  0  0
 13 24  1  0  0  0  0
 13 25  1  0  0  0  0
 14 15  1  0  0  0  0
 15 16  1  0  0  0  0
 15 26  1  0  0  0  0
 15 27  1  0  0  0  0
 16 17  1  0  0  0  0
 16 28  1  0  0  0  0
 16 29  1  0  0  0  0
 17 18  1  0  0  0  0
 18 30  1  0  0  0  0
 18 31  1  0  0  0  0
 18 32  1  0  0  0  0
M  CHG  1   9  -1
M  END
> <s_m_source_file>
AV-unprocessed.smi

> <i_m_source_file_index>
537

> <i_lp_mmshare_version>
43012

> <i_f3d_flags>
0

> <s_epik_input>
W0NIM11PW0NIMl1bQ0gyXW4oYyhuMSlbTkhdW0NIM10pYyhjMTIpYyg9TylbbkhdYyg9TyluMltDSDNd

> <s_epik_cmdline>
J2VwaWtfcHl0aG9uJywgJy1waCcsICc3LjAnLCAnLXRuJywgJzgnLCAnLW1hJywgJzIwMCcsICctbWV0YWxfYmluZGluZycsICctaW1hZScsICc8aW5maWxlLm1hZT4nLCAnLW9tYWUnLCAnPG91dGZpbGUubWFlPic=

> <r_lp_tautomer_probability>
1

> <r_epik_Ionization_Penalty>
6.3083

> <r_epik_Ionization_Penalty_Charging>
1.44173e-08

> <r_epik_Ionization_Penalty_Neutral>
6.3083

> <r_epik_State_Penalty>
6.30819

> <r_epik_Charging_Adjusted_Penalty>
6.30819

> <i_epik_Tot_Q>
-1

> <i_epik_Tot_abs_Q>
1

> <r_epik_Metal_State_Penalty>
2.24297

> <b_epik_Metal_Only>
1

> <s_lp_Force_Field>
OPLS_2005

> <r_lp_Energy>
24.4874

> <b_lp_Chiralities_Consistent>
1

> <s_lp_Variant>
AV-unprocessed.smi:537-2

> <Gold.Version>
5.8.1

> <Gold.Id.Protein>
6NUR|6NUR_protein|mol2

> <Gold.PLP.Fitness>
38.3143

> <Gold.PLP.PLP>
-35.4203

> <Gold.PLP.part.hbond>
-1.4016

> <Gold.PLP.part.metal>
0.0000

> <Gold.PLP.part.buried>
-1.7775

> <Gold.PLP.part.nonpolar>
-29.7935

> <Gold.PLP.part.repulsive>
0.1904

> <Gold.PLP.ligand.clash>
0.0000

> <Gold.PLP.ligand.torsion>
0.0536

> <Gold.PLP.Chemscore.Hbond>
1.0000

> <Gold.PLP.Chemscore.CHOScore>
0.0000

> <Gold.PLP.Chemscore.Metal>
0.0000

> <Gold.Chemscore.Hbonds>
donor molecule, donor type, donor heavy atom, donor atom, acceptor molecule, acceptor atom, score
      P1  H  7997  8010       L1     8  1.00

> <Gold.PLP.Chemscore.Internal.Correction>
0.0012

> <Gold.Rescore>
     Score         DG    S(hbond)    S(metal)    S(lipo)     H(rot)  DE(clash)    DE(int)     intcor
     10.14     -10.29       1.00        0.00      48.65       1.64       0.06       0.09       ----

> <Gold.Chemscore.Fitness>
10.1402

> <Gold.Chemscore.DG>
-10.2939

> <Gold.Chemscore.ZeroCoef>
-5.4800

> <Gold.Chemscore.Hbond>
0.9972

> <Gold.Chemscore.Metal>
0.0000

> <Gold.Chemscore.Lipo>
48.6476

> <Gold.Chemscore.Internal_Hbond>
0.0000

> <Gold.Chemscore.DEClash>
0.0588

> <Gold.Chemscore.DEInternal>
0.0949

> <Gold.Chemscore.Rot>
1.6439

> <Gold.Chemscore.Internal.Correction>
   9.000000E+99

> <Gold.Chemscore.Hbonds>
donor molecule, donor type, donor heavy atom, donor atom, acceptor molecule, acceptor atom, score
      P1  H  7997  8010       L1     8  0.99

> <Gold.Chemscore.Hbond.Weighted>
-3.3305

> <Gold.Chemscore.Metal.Weighted>
-0.0000

> <Gold.Chemscore.Lipo.Weighted>
-5.6918

> <Gold.Chemscore.Internal_Hbond.Weighted>
0.0000

> <Gold.Chemscore.DEClash.Weighted>
0.0588

> <Gold.Chemscore.DEInternal.Weighted>
0.0949

> <Gold.Chemscore.Rot.Weighted>
4.2085

> <Gold.Chemscore.Internal.Correction.Weighted>
   9.000000E+99

> <Gold.Protein.RotatedTorsions>
[ 6907 6896 6895 6894 ] final  106.98 input  -60.11 | X-H torsion
[ 7974 7965 7964 7962 ] final  134.17 input  175.53 | X-H torsion
[ 8008 7997 7996 7995 ] final   20.36 input   59.86 | X-H torsion
[ 10167 10162 10161 10158 ] final -159.68 input  -65.29 | X-H torsion
[ 10718 10713 10712 10709 ] final  138.39 input   66.30 | X-H torsion
[ 10763 10752 10751 10750 ] final  139.03 input  -60.55 | X-H torsion
[ 11005 11000 10999 10996 ] final  159.00 input  -57.11 | X-H torsion

> <Gold.Protein.ActiveResidues>
 VAL166  LYS551  ARG553  GLY616  TRP617  ASP618  TYR619  PRO620  LYS621  CYS622 
 ASP623  PHE694  ASN695  SER759  ASP760  ASP761  ALA762  ILE779  LEU786  VAL792 
 PHE793  MET794  SER795  GLU796  ALA797  LYS798  CYS799  TRP800  GLU811  SER814 

> <Gold.Protein.RotatedAtoms>
  152.5172  133.9301  159.7575 H   0  0  0  0  0  0  0  0  0  0  0  0  # atno 6907 bound_to 6896
  150.9653  133.6393  159.2754 H   0  0  0  0  0  0  0  0  0  0  0  0  # atno 6908 bound_to 6896
  151.3623  135.0912  159.9491 H   0  0  0  0  0  0  0  0  0  0  0  0  # atno 6909 bound_to 6896
  144.9791  139.4523  143.5395 H   0  0  0  0  0  0  0  0  0  0  0  0  # atno 7974 bound_to 7965
  154.9344  140.3044  155.5152 H   0  0  0  0  0  0  0  0  0  0  0  0  # atno 8008 bound_to 7997
  156.3001  140.2348  156.4344 H   0  0  0  0  0  0  0  0  0  0  0  0  # atno 8009 bound_to 7997
  154.8206  140.0423  157.1396 H   0  0  0  0  0  0  0  0  0  0  0  0  # atno 8010 bound_to 7997
  139.6596  143.9936  152.2217 H   0  0  0  0  0  0  0  0  0  0  0  0  # atno 10167 bound_to 10162
  157.4258  131.1043  151.0304 H   0  0  0  0  0  0  0  0  0  0  0  0  # atno 10718 bound_to 10713
  153.8994  135.3024  155.3448 H   0  0  0  0  0  0  0  0  0  0  0  0  # atno 10763 bound_to 10752
  154.7677  135.4902  153.9591 H   0  0  0  0  0  0  0  0  0  0  0  0  # atno 10764 bound_to 10752
  153.1253  135.6791  153.9367 H   0  0  0  0  0  0  0  0  0  0  0  0  # atno 10765 bound_to 10752
  140.1919  134.8401  157.2922 H   0  0  0  0  0  0  0  0  0  0  0  0  # atno 11005 bound_to 11000
  146.3403  139.9052  142.8788 LP  0  0  0  0  0  0  0  0  0  0  0  0  # atno 17320 bound_to 7965
  145.2447  141.0022  143.3915 LP  0  0  0  0  0  0  0  0  0  0  0  0  # atno 17321 bound_to 7965
  139.9671  144.6518  150.8024 LP  0  0  0  0  0  0  0  0  0  0  0  0  # atno 17342 bound_to 10162
  140.7574  143.3086  151.2900 LP  0  0  0  0  0  0  0  0  0  0  0  0  # atno 17343 bound_to 10162
  157.1217  130.6065  149.5507 LP  0  0  0  0  0  0  0  0  0  0  0  0  # atno 17370 bound_to 10713
  155.9896  130.4944  150.7221 LP  0  0  0  0  0  0  0  0  0  0  0  0  # atno 17371 bound_to 10713
  140.2150  134.4093  155.7594 LP  0  0  0  0  0  0  0  0  0  0  0  0  # atno 17394 bound_to 11000
  141.2226  133.7137  156.8399 LP  0  0  0  0  0  0  0  0  0  0  0  0  # atno 17395 bound_to 11000

$$$$
