AV-unprocessed.smi:103|AV-procd|sdf|980|dock5
  -GOLD-   2262017543D 1   1.00000     0.00000
 Structure written by MMmdl.
 53 55  0  0  0  0  0  0  0  0  1 V2000
  154.8200  134.0462  157.8662 C   0  0  0  0  0  0  0  0  0  0  0  0
  154.2225  135.4433  157.7628 C   0  0  0  0  0  0  0  0  0  0  0  0
  153.9915  135.9650  156.6721 O   0  0  0  0  0  0  0  0  0  0  0  0
  153.9930  135.9936  158.9644 O   0  0  0  0  0  0  0  0  0  0  0  0
  153.4298  137.2926  159.0423 C   0  0  0  0  0  0  0  0  0  0  0  0
  152.0086  137.2708  158.4634 C   0  0  1  0  0  0  0  0  0  0  0  0
  151.0830  136.6840  159.3783 O   0  0  0  0  0  0  0  0  0  0  0  0
  149.8283  137.2819  159.2378 C   0  0  2  0  0  0  0  0  0  0  0  0
  148.8142  136.2228  158.9285 N   0  0  0  0  0  0  0  0  0  0  0  0
  147.7441  135.7749  159.6809 C   0  0  0  0  0  0  0  0  0  0  0  0
  147.2258  136.3822  161.2846 S   0  0  0  0  0  0  0  0  0  0  0  0
  146.5108  134.8756  162.0591 C   0  0  0  0  0  0  0  0  0  0  0  0
  148.4459  136.7632  162.0136 O   0  0  0  0  0  0  0  0  0  0  0  0
  146.1582  137.3673  161.0540 O   0  0  0  0  0  0  0  0  0  0  0  0
  146.9878  134.8607  159.1366 N   0  0  0  0  0  0  0  0  0  0  0  0
  147.6218  134.6023  157.9310 C   0  0  0  0  0  0  0  0  0  0  0  0
  147.3671  133.7141  156.8557 C   0  0  0  0  0  0  0  0  0  0  0  0
  146.3269  132.8695  156.8357 N   0  0  0  0  0  0  0  0  0  0  0  0
  148.2141  133.7168  155.8003 N   0  0  0  0  0  0  0  0  0  0  0  0
  149.2600  134.5490  155.7977 C   0  0  0  0  0  0  0  0  0  0  0  0
  149.6234  135.4362  156.7275 N   0  0  0  0  0  0  0  0  0  0  0  0
  148.7691  135.4352  157.7930 C   0  0  0  0  0  0  0  0  0  0  0  0
  149.9335  138.3077  158.1070 C   0  0  1  0  0  0  0  0  0  0  0  0
  149.0773  139.4179  158.3398 O   0  0  0  0  0  0  0  0  0  0  0  0
  149.1587  140.5076  157.5601 C   0  0  0  0  0  0  0  0  0  0  0  0
  148.0890  141.5382  157.8947 C   0  0  0  0  0  0  0  0  0  0  0  0
  149.9864  140.7026  156.6703 O   0  0  0  0  0  0  0  0  0  0  0  0
  151.4156  138.6496  158.1569 C   0  0  1  0  0  0  0  0  0  0  0  0
  151.7164  139.5470  159.2258 O   0  0  0  0  0  0  0  0  0  0  0  0
  152.8658  140.2457  159.2345 C   0  0  0  0  0  0  0  0  0  0  0  0
  152.7869  141.4768  160.1266 C   0  0  0  0  0  0  0  0  0  0  0  0
  153.8880  139.9717  158.6062 O   0  0  0  0  0  0  0  0  0  0  0  0
  155.6185  134.0268  158.6082 H   0  0  0  0  0  0  0  0  0  0  0  0
  155.2338  133.7360  156.9063 H   0  0  0  0  0  0  0  0  0  0  0  0
  154.0542  133.3288  158.1607 H   0  0  0  0  0  0  0  0  0  0  0  0
  153.4207  137.6470  160.0741 H   0  0  0  0  0  0  0  0  0  0  0  0
  154.0503  137.9787  158.4639 H   0  0  0  0  0  0  0  0  0  0  0  0
  152.0022  136.6876  157.5418 H   0  0  0  0  0  0  0  0  0  0  0  0
  149.5368  137.7312  160.1832 H   0  0  0  0  0  0  0  0  0  0  0  0
  146.1939  135.1076  163.0756 H   0  0  0  0  0  0  0  0  0  0  0  0
  147.2636  134.0880  162.0841 H   0  0  0  0  0  0  0  0  0  0  0  0
  145.6513  134.5387  161.4830 H   0  0  0  0  0  0  0  0  0  0  0  0
  145.6819  132.8482  157.6125 H   0  0  0  0  0  0  0  0  0  0  0  0
  146.1925  132.2539  156.0466 H   0  0  0  0  0  0  0  0  0  0  0  0
  149.8951  134.4985  154.9257 H   0  0  0  0  0  0  0  0  0  0  0  0
  149.7019  137.8180  157.1609 H   0  0  0  0  0  0  0  0  0  0  0  0
  147.1025  141.1584  157.6288 H   0  0  0  0  0  0  0  0  0  0  0  0
  148.2639  142.4641  157.3462 H   0  0  0  0  0  0  0  0  0  0  0  0
  148.1003  141.7620  158.9616 H   0  0  0  0  0  0  0  0  0  0  0  0
  151.7806  139.0265  157.2005 H   0  0  0  0  0  0  0  0  0  0  0  0
  151.9786  142.1304  159.7983 H   0  0  0  0  0  0  0  0  0  0  0  0
  153.7214  142.0373  160.0902 H   0  0  0  0  0  0  0  0  0  0  0  0
  152.5989  141.1842  161.1597 H   0  0  0  0  0  0  0  0  0  0  0  0
  1  2  1  0  0  0  0
  1 33  1  0  0  0  0
  1 34  1  0  0  0  0
  1 35  1  0  0  0  0
  2  3  2  0  0  0  0
  2  4  1  0  0  0  0
  4  5  1  0  0  0  0
  5  6  1  0  0  0  0
  5 36  1  0  0  0  0
  5 37  1  0  0  0  0
  6 28  1  0  0  0  0
  6  7  1  0  0  0  0
  6 38  1  0  0  0  0
  7  8  1  0  0  0  0
  8  9  1  0  0  0  0
  8 23  1  0  0  0  0
  8 39  1  0  0  0  0
  9 22  1  0  0  0  0
  9 10  1  0  0  0  0
 10 11  1  0  0  0  0
 10 15  2  0  0  0  0
 11 12  1  0  0  0  0
 11 13  2  0  0  0  0
 11 14  2  0  0  0  0
 12 40  1  0  0  0  0
 12 41  1  0  0  0  0
 12 42  1  0  0  0  0
 15 16  1  0  0  0  0
 16 22  2  0  0  0  0
 16 17  1  0  0  0  0
 17 18  1  0  0  0  0
 17 19  2  0  0  0  0
 18 43  1  0  0  0  0
 18 44  1  0  0  0  0
 19 20  1  0  0  0  0
 20 21  2  0  0  0  0
 20 45  1  0  0  0  0
 21 22  1  0  0  0  0
 23 24  1  0  0  0  0
 23 28  1  0  0  0  0
 23 46  1  0  0  0  0
 24 25  1  0  0  0  0
 25 26  1  0  0  0  0
 25 27  2  0  0  0  0
 26 47  1  0  0  0  0
 26 48  1  0  0  0  0
 26 49  1  0  0  0  0
 28 29  1  0  0  0  0
 28 50  1  0  0  0  0
 29 30  1  0  0  0  0
 30 31  1  0  0  0  0
 30 32  2  0  0  0  0
 31 51  1  0  0  0  0
 31 52  1  0  0  0  0
 31 53  1  0  0  0  0
M  END
> <s_m_source_file>
AV-unprocessed.smi

> <i_m_source_file_index>
103

> <i_lp_mmshare_version>
43012

> <i_f3d_flags>
0

> <s_epik_input>
W0NIM11DKD1PKU9bQ0gyXVtDQEBIXTFPW0NASF0oW0NAQEhdKE9DKD1PKVtDSDNdKVtDQEhdMU9DKD1PKVtDSDNdKW4oYyhuMilTKD1PKSg9TylbQ0gzXSljKGMyMyluW2NIXW5jM1tOSDJd

> <s_epik_cmdline>
J2VwaWtfcHl0aG9uJywgJy1waCcsICc3LjAnLCAnLXRuJywgJzgnLCAnLW1hJywgJzIwMCcsICctbWV0YWxfYmluZGluZycsICctaW1hZScsICc8aW5maWxlLm1hZT4nLCAnLW9tYWUnLCAnPG91dGZpbGUubWFlPic=

> <r_lp_tautomer_probability>
1

> <r_epik_Ionization_Penalty>
1.51338e-05

> <r_epik_Ionization_Penalty_Charging>
0

> <r_epik_Ionization_Penalty_Neutral>
1.51338e-05

> <r_epik_State_Penalty>
-0

> <r_epik_Charging_Adjusted_Penalty>
0

> <i_epik_Tot_Q>
0

> <i_epik_Tot_abs_Q>
0

> <r_epik_Metal_State_Penalty>
-0

> <b_epik_Metal_Only>
0

> <s_epik_Chemistry_Notes>
This compound has an ester and may undergo hydrolysis at high or low pH. This compound contains an acetal/aminal-like group ( X-CH(R)-Y where X, Y are N, S, or O) that may be acid/base labile, releasing an aldehyde.

> <s_lp_Force_Field>
OPLS_2005

> <r_lp_Energy>
20.0914

> <b_lp_Chiralities_Consistent>
1

> <s_lp_Variant>
AV-unprocessed.smi:103-4

> <Gold.Version>
5.8.1

> <Gold.Id.Protein>
6NUR|6NUR_protein|mol2

> <Gold.PLP.Fitness>
46.1903

> <Gold.PLP.PLP>
-32.0545

> <Gold.PLP.part.hbond>
-5.8422

> <Gold.PLP.part.metal>
0.0000

> <Gold.PLP.part.buried>
-6.0067

> <Gold.PLP.part.nonpolar>
-20.7507

> <Gold.PLP.part.repulsive>
0.0390

> <Gold.PLP.ligand.clash>
0.0000

> <Gold.PLP.ligand.torsion>
1.9590

> <Gold.PLP.Chemscore.Hbond>
4.9913

> <Gold.PLP.Chemscore.CHOScore>
0.0000

> <Gold.PLP.Chemscore.Metal>
0.0000

> <Gold.Chemscore.Hbonds>
donor molecule, donor type, donor heavy atom, donor atom, acceptor molecule, acceptor atom, score
      P1  H  6896  6909       L1     7  1.00
      P1  H  6931  6943       L1    13  1.00
      P1  H  6934  6947       L1    14  1.00
      P1  H  7997  8009       L1    32  1.00
      P1  H 10752 10763       L1     3  0.78

> <Gold.PLP.Chemscore.Internal.Correction>
3.0800

> <Gold.Rescore>
     Score         DG    S(hbond)    S(metal)    S(lipo)     H(rot)  DE(clash)    DE(int)     intcor
      8.43     -13.70       4.37        0.00      38.43       4.25       0.35       4.92       ----

> <Gold.Chemscore.Fitness>
8.4263

> <Gold.Chemscore.DG>
-13.7028

> <Gold.Chemscore.ZeroCoef>
-5.4800

> <Gold.Chemscore.Hbond>
4.3699

> <Gold.Chemscore.Metal>
0.0000

> <Gold.Chemscore.Lipo>
38.4288

> <Gold.Chemscore.Internal_Hbond>
0.0000

> <Gold.Chemscore.DEClash>
0.3540

> <Gold.Chemscore.DEInternal>
4.9225

> <Gold.Chemscore.Rot>
4.2456

> <Gold.Chemscore.Internal.Correction>
   9.000000E+99

> <Gold.Chemscore.Hbonds>
donor molecule, donor type, donor heavy atom, donor atom, acceptor molecule, acceptor atom, score
      P1  H  6896  6909       L1     7  0.92
      P1  H  6931  6943       L1    13  0.97
      P1  H  6934  6947       L1    14  0.34
      P1  H  7997  8009       L1    32  0.95
      P1  H 10752 10763       L1     3  0.75

> <Gold.Chemscore.Hbond.Weighted>
-14.5953

> <Gold.Chemscore.Metal.Weighted>
-0.0000

> <Gold.Chemscore.Lipo.Weighted>
-4.4962

> <Gold.Chemscore.Internal_Hbond.Weighted>
0.0000

> <Gold.Chemscore.DEClash.Weighted>
0.3540

> <Gold.Chemscore.DEInternal.Weighted>
4.9225

> <Gold.Chemscore.Rot.Weighted>
10.8687

> <Gold.Chemscore.Internal.Correction.Weighted>
   9.000000E+99

> <Gold.Protein.RotatedTorsions>
[ 6907 6896 6895 6894 ] final   89.63 input  -60.11 | X-H torsion
[ 7974 7965 7964 7962 ] final -122.32 input  175.53 | X-H torsion
[ 8008 7997 7996 7995 ] final  147.25 input   59.86 | X-H torsion
[ 10167 10162 10161 10158 ] final  -92.97 input  -65.29 | X-H torsion
[ 10718 10713 10712 10709 ] final -132.44 input   66.30 | X-H torsion
[ 10763 10752 10751 10750 ] final  128.81 input  -60.55 | X-H torsion
[ 11005 11000 10999 10996 ] final  107.28 input  -57.11 | X-H torsion

> <Gold.Protein.ActiveResidues>
 VAL166  LYS551  ARG553  GLY616  TRP617  ASP618  TYR619  PRO620  LYS621  CYS622 
 ASP623  PHE694  ASN695  SER759  ASP760  ASP761  ALA762  ILE779  LEU786  VAL792 
 PHE793  MET794  SER795  GLU796  ALA797  LYS798  CYS799  TRP800  GLU811  SER814 

> <Gold.Protein.RotatedAtoms>
  152.5438  134.1936  159.8683 H   0  0  0  0  0  0  0  0  0  0  0  0  # atno 6907 bound_to 6896
  151.1930  133.4649  159.2602 H   0  0  0  0  0  0  0  0  0  0  0  0  # atno 6908 bound_to 6896
  151.1065  135.0014  159.8529 H   0  0  0  0  0  0  0  0  0  0  0  0  # atno 6909 bound_to 6896
  145.0308  140.8066  143.4325 H   0  0  0  0  0  0  0  0  0  0  0  0  # atno 7974 bound_to 7965
  156.2830  140.2160  156.5507 H   0  0  0  0  0  0  0  0  0  0  0  0  # atno 8008 bound_to 7997
  154.7293  140.0497  157.0734 H   0  0  0  0  0  0  0  0  0  0  0  0  # atno 8009 bound_to 7997
  155.0374  140.3142  155.4739 H   0  0  0  0  0  0  0  0  0  0  0  0  # atno 8010 bound_to 7997
  140.3294  143.3003  151.9959 H   0  0  0  0  0  0  0  0  0  0  0  0  # atno 10167 bound_to 10162
  156.2346  130.7059  151.0894 H   0  0  0  0  0  0  0  0  0  0  0  0  # atno 10718 bound_to 10713
  153.7316  135.3238  155.3287 H   0  0  0  0  0  0  0  0  0  0  0  0  # atno 10763 bound_to 10752
  154.8324  135.4523  154.1116 H   0  0  0  0  0  0  0  0  0  0  0  0  # atno 10764 bound_to 10752
  153.2265  135.6954  153.8020 H   0  0  0  0  0  0  0  0  0  0  0  0  # atno 10765 bound_to 10752
  139.8826  134.9396  156.5795 H   0  0  0  0  0  0  0  0  0  0  0  0  # atno 11005 bound_to 11000
  145.1773  139.2371  143.5310 LP  0  0  0  0  0  0  0  0  0  0  0  0  # atno 17320 bound_to 7965
  146.3498  140.1539  142.8592 LP  0  0  0  0  0  0  0  0  0  0  0  0  # atno 17321 bound_to 7965
  139.4859  144.6247  151.7187 LP  0  0  0  0  0  0  0  0  0  0  0  0  # atno 17342 bound_to 10162
  140.5411  144.0577  150.6089 LP  0  0  0  0  0  0  0  0  0  0  0  0  # atno 17343 bound_to 10162
  157.7149  131.0715  150.6366 LP  0  0  0  0  0  0  0  0  0  0  0  0  # atno 17370 bound_to 10713
  156.6435  130.4465  149.5744 LP  0  0  0  0  0  0  0  0  0  0  0  0  # atno 17371 bound_to 10713
  140.8038  133.8484  155.8749 LP  0  0  0  0  0  0  0  0  0  0  0  0  # atno 17394 bound_to 11000
  140.9569  134.1706  157.4685 LP  0  0  0  0  0  0  0  0  0  0  0  0  # atno 17395 bound_to 11000

$$$$
