AV-unprocessed.smi:72|AV-procd|sdf|665|dock6
  -GOLD-   2262016563D 1   1.00000     0.00000
 Structure written by MMmdl.
 29 30  0  0  0  0  0  0  0  0  1 V2000
  140.8114  134.7702  153.8087 N   0  0  0  0  0  0  0  0  0  0  0  0
  141.9505  135.2653  153.4790 C   0  0  0  0  0  0  0  0  0  0  0  0
  142.1541  136.5466  152.9460 N   0  0  0  0  0  0  0  0  0  0  0  0
  143.3611  136.9098  152.6384 C   0  0  0  0  0  0  0  0  0  0  0  0
  144.5076  136.0253  152.8096 N   0  0  0  0  0  0  0  0  0  0  0  0
  145.9284  136.4398  152.4612 C   0  0  2  0  0  0  0  0  0  0  0  0
  146.7078  136.4968  153.6215 O   0  0  0  0  0  0  0  0  0  0  0  0
  146.7907  137.8427  154.0815 C   0  0  1  0  0  0  0  0  0  0  0  0
  147.9489  138.0234  155.0781 C   0  0  0  0  0  0  0  0  0  0  0  0
  149.1610  137.6035  154.4885 O   0  0  0  0  0  0  0  0  0  0  0  0
  146.9154  138.6166  152.7661 C   0  0  1  0  0  0  0  0  0  0  0  0
  148.2544  138.5884  152.2982 O   0  0  0  0  0  0  0  0  0  0  0  0
  145.9551  137.8587  151.8494 C   0  0  1  0  0  0  0  0  0  0  0  0
  146.3672  137.8799  150.4954 O   0  0  0  0  0  0  0  0  0  0  0  0
  144.3202  134.7459  153.3894 C   0  0  0  0  0  0  0  0  0  0  0  0
  145.2560  133.9755  153.6034 O   0  0  0  0  0  0  0  0  0  0  0  0
  143.0456  134.4184  153.6913 N   0  0  0  0  0  0  0  0  0  0  0  0
  146.3046  135.6534  151.8041 H   0  0  0  0  0  0  0  0  0  0  0  0
  145.8474  138.1263  154.5523 H   0  0  0  0  0  0  0  0  0  0  0  0
  146.6189  139.6597  152.8811 H   0  0  0  0  0  0  0  0  0  0  0  0
  144.9629  138.3063  151.9273 H   0  0  0  0  0  0  0  0  0  0  0  0
  140.0716  135.4329  153.6290 H   0  0  0  0  0  0  0  0  0  0  0  0
  143.5811  137.8983  152.2354 H   0  0  0  0  0  0  0  0  0  0  0  0
  148.0298  139.0580  155.4130 H   0  0  0  0  0  0  0  0  0  0  0  0
  147.7841  137.4056  155.9614 H   0  0  0  0  0  0  0  0  0  0  0  0
  148.9709  137.2462  153.6345 H   0  0  0  0  0  0  0  0  0  0  0  0
  148.4089  137.7464  151.8972 H   0  0  0  0  0  0  0  0  0  0  0  0
  145.6367  138.1651  149.9669 H   0  0  0  0  0  0  0  0  0  0  0  0
  142.8829  133.5084  154.0970 H   0  0  0  0  0  0  0  0  0  0  0  0
  1  2  2  0  0  0  0
  1 22  1  0  0  0  0
  2 17  1  0  0  0  0
  2  3  1  0  0  0  0
  3  4  2  0  0  0  0
  4  5  1  0  0  0  0
  4 23  1  0  0  0  0
  5  6  1  0  0  0  0
  5 15  1  0  0  0  0
  6 18  1  0  0  0  0
  6 13  1  0  0  0  0
  6  7  1  0  0  0  0
  7  8  1  0  0  0  0
  8 19  1  0  0  0  0
  8  9  1  0  0  0  0
  8 11  1  0  0  0  0
  9 10  1  0  0  0  0
  9 24  1  0  0  0  0
  9 25  1  0  0  0  0
 10 26  1  0  0  0  0
 11 20  1  0  0  0  0
 11 12  1  0  0  0  0
 11 13  1  0  0  0  0
 12 27  1  0  0  0  0
 13 21  1  0  0  0  0
 13 14  1  0  0  0  0
 14 28  1  0  0  0  0
 15 16  2  0  0  0  0
 15 17  1  0  0  0  0
 17 29  1  0  0  0  0
M  END
> <s_m_source_file>
AV-unprocessed.smi

> <i_m_source_file_index>
72

> <i_lp_mmshare_version>
43012

> <i_f3d_flags>
0

> <s_epik_input>
W05IMl1jMW5bY0hdbihjKD1PKW4xKVtDQEBIXTJPW0NASF0oW0NIMl1bT0hdKVtDQEBIXShbT0hdKVtDQEhdMltPSF0=

> <s_epik_cmdline>
J2VwaWtfcHl0aG9uJywgJy1waCcsICc3LjAnLCAnLXRuJywgJzgnLCAnLW1hJywgJzIwMCcsICctbWV0YWxfYmluZGluZycsICctaW1hZScsICc8aW5maWxlLm1hZT4nLCAnLW9tYWUnLCAnPG91dGZpbGUubWFlPic=

> <r_lp_tautomer_probability>
7.17554e-07

> <r_epik_Ionization_Penalty>
0.0066451

> <r_epik_Ionization_Penalty_Charging>
0.00663793

> <r_epik_Ionization_Penalty_Neutral>
7.17052e-06

> <r_epik_State_Penalty>
0.419231

> <r_epik_Charging_Adjusted_Penalty>
0.425868

> <i_epik_Tot_Q>
0

> <i_epik_Tot_abs_Q>
0

> <r_epik_Metal_State_Penalty>
1.44144

> <b_epik_Metal_Only>
0

> <s_epik_Chemistry_Notes>
This compound contains an acetal/aminal-like group ( X-CH(R)-Y where X, Y are N, S, or O) that may be acid/base labile, releasing an aldehyde.

> <s_lp_Force_Field>
OPLS_2005

> <r_lp_Energy>
42.7632

> <b_lp_Chiralities_Consistent>
1

> <s_lp_Variant>
AV-unprocessed.smi:72-3

> <Gold.Version>
5.8.1

> <Gold.Id.Protein>
6NUR|6NUR_protein|mol2

> <Gold.PLP.Fitness>
44.7144

> <Gold.PLP.PLP>
-21.0982

> <Gold.PLP.part.hbond>
-7.0355

> <Gold.PLP.part.metal>
0.0000

> <Gold.PLP.part.buried>
-0.6944

> <Gold.PLP.part.nonpolar>
-13.7077

> <Gold.PLP.part.repulsive>
1.9730

> <Gold.PLP.ligand.clash>
0.0000

> <Gold.PLP.ligand.torsion>
0.0274

> <Gold.PLP.Chemscore.Hbond>
5.9033

> <Gold.PLP.Chemscore.CHOScore>
1.9792

> <Gold.PLP.Chemscore.Metal>
0.0000

> <Gold.Chemscore.Hbonds>
donor molecule, donor type, donor heavy atom, donor atom, acceptor molecule, acceptor atom, score
      L1  H    10    26       P1  7948  1.00
      L1  H    12    27       P1  7948  1.00
      L1  H    14    28       P1 10171  1.00
      L1  H    17    29       P1 10957  1.00
      P1  H  7954  7966       L1    14  0.91
      P1  H 11000 11005       L1     1  0.95
      L1  C     4    23       P1 10171  0.98
      L1  C     4    23       P1 10175  0.97

> <Gold.PLP.Chemscore.Internal.Correction>
0.0236

> <Gold.Rescore>
     Score         DG    S(hbond)    S(metal)    S(lipo)     H(rot)  DE(clash)    DE(int)     intcor
     13.72     -15.41       5.45        0.00      18.14       4.06       0.44       1.26       ----

> <Gold.Chemscore.Fitness>
13.7171

> <Gold.Chemscore.DG>
-15.4117

> <Gold.Chemscore.ZeroCoef>
-5.4800

> <Gold.Chemscore.Hbond>
5.4499

> <Gold.Chemscore.Metal>
0.0000

> <Gold.Chemscore.Lipo>
18.1436

> <Gold.Chemscore.Internal_Hbond>
0.0000

> <Gold.Chemscore.DEClash>
0.4359

> <Gold.Chemscore.DEInternal>
1.2587

> <Gold.Chemscore.Rot>
4.0600

> <Gold.Chemscore.Internal.Correction>
   9.000000E+99

> <Gold.Chemscore.Hbonds>
donor molecule, donor type, donor heavy atom, donor atom, acceptor molecule, acceptor atom, score
      L1  H    10    26       P1  7948  0.93
      L1  H    12    27       P1  7948  0.95
      L1  H    14    28       P1 10171  0.96
      L1  H    17    29       P1 10957  1.00
      P1  H  7954  7966       L1    14  0.87
      P1  H 11000 11005       L1     1  0.20

> <Gold.Chemscore.Hbond.Weighted>
-18.2025

> <Gold.Chemscore.Metal.Weighted>
-0.0000

> <Gold.Chemscore.Lipo.Weighted>
-2.1228

> <Gold.Chemscore.Internal_Hbond.Weighted>
0.0000

> <Gold.Chemscore.DEClash.Weighted>
0.4359

> <Gold.Chemscore.DEInternal.Weighted>
1.2587

> <Gold.Chemscore.Rot.Weighted>
10.3936

> <Gold.Chemscore.Internal.Correction.Weighted>
   9.000000E+99

> <Gold.Protein.RotatedTorsions>
[ 6907 6896 6895 6894 ] final  -10.27 input  -60.11 | X-H torsion
[ 7974 7965 7964 7962 ] final    3.26 input  175.53 | X-H torsion
[ 8008 7997 7996 7995 ] final -179.32 input   59.86 | X-H torsion
[ 10167 10162 10161 10158 ] final   29.77 input  -65.29 | X-H torsion
[ 10718 10713 10712 10709 ] final   51.26 input   66.30 | X-H torsion
[ 10763 10752 10751 10750 ] final  -73.14 input  -60.55 | X-H torsion
[ 11005 11000 10999 10996 ] final   27.18 input  -57.11 | X-H torsion

> <Gold.Protein.ActiveResidues>
 VAL166  LYS551  ARG553  GLY616  TRP617  ASP618  TYR619  PRO620  LYS621  CYS622 
 ASP623  PHE694  ASN695  SER759  ASP760  ASP761  ALA762  ILE779  LEU786  VAL792 
 PHE793  MET794  SER795  GLU796  ALA797  LYS798  CYS799  TRP800  GLU811  SER814 

> <Gold.Protein.RotatedAtoms>
  151.4046  135.0976  159.9566 H   0  0  0  0  0  0  0  0  0  0  0  0  # atno 6907 bound_to 6896
  152.5039  133.8855  159.7378 H   0  0  0  0  0  0  0  0  0  0  0  0  # atno 6908 bound_to 6896
  150.9337  133.6681  159.2833 H   0  0  0  0  0  0  0  0  0  0  0  0  # atno 6909 bound_to 6896
  146.2445  140.0711  142.8362 H   0  0  0  0  0  0  0  0  0  0  0  0  # atno 7974 bound_to 7965
  156.0291  140.1278  157.0277 H   0  0  0  0  0  0  0  0  0  0  0  0  # atno 8008 bound_to 7997
  154.4342  140.1053  156.6144 H   0  0  0  0  0  0  0  0  0  0  0  0  # atno 8009 bound_to 7997
  155.5833  140.3468  155.4548 H   0  0  0  0  0  0  0  0  0  0  0  0  # atno 8010 bound_to 7997
  140.4736  144.0724  150.6244 H   0  0  0  0  0  0  0  0  0  0  0  0  # atno 10167 bound_to 10162
  157.4964  130.8409  149.8264 H   0  0  0  0  0  0  0  0  0  0  0  0  # atno 10718 bound_to 10713
  154.4554  135.5907  153.6219 H   0  0  0  0  0  0  0  0  0  0  0  0  # atno 10763 bound_to 10752
  152.9817  135.6031  154.3553 H   0  0  0  0  0  0  0  0  0  0  0  0  # atno 10764 bound_to 10752
  154.3418  135.2841  155.2397 H   0  0  0  0  0  0  0  0  0  0  0  0  # atno 10765 bound_to 10752
  140.3290  134.2459  155.7705 H   0  0  0  0  0  0  0  0  0  0  0  0  # atno 11005 bound_to 11000
  145.0815  140.9224  143.4822 LP  0  0  0  0  0  0  0  0  0  0  0  0  # atno 17320 bound_to 7965
  145.0865  139.2921  143.5757 LP  0  0  0  0  0  0  0  0  0  0  0  0  # atno 17321 bound_to 7965
  140.3946  143.2735  152.0020 LP  0  0  0  0  0  0  0  0  0  0  0  0  # atno 17342 bound_to 10162
  139.4822  144.6049  151.7539 LP  0  0  0  0  0  0  0  0  0  0  0  0  # atno 17343 bound_to 10162
  156.0203  130.3798  150.1983 LP  0  0  0  0  0  0  0  0  0  0  0  0  # atno 17370 bound_to 10713
  157.0172  130.9968  151.3350 LP  0  0  0  0  0  0  0  0  0  0  0  0  # atno 17371 bound_to 10713
  141.2068  133.7823  157.0156 LP  0  0  0  0  0  0  0  0  0  0  0  0  # atno 17394 bound_to 11000
  140.0877  134.9611  157.1726 LP  0  0  0  0  0  0  0  0  0  0  0  0  # atno 17395 bound_to 11000

$$$$
