AV-unprocessed.smi:1419|AV-procd|sdf|5785|dock7
  -GOLD-   22720 5433D 1   1.00000     0.00000
 Structure written by MMmdl.
 41 42  0  0  0  0  0  0  0  0  1 V2000
  153.8748  139.0854  159.9739 C   0  0  0  0  0  0  0  0  0  0  0  0
  152.9235  140.2928  159.9441 C   0  0  1  0  0  0  0  0  0  0  0  0
  153.5037  141.5407  160.6459 C   0  0  0  0  0  0  0  0  0  0  0  0
  152.5171  142.5867  160.8378 N   0  0  0  0  0  0  0  0  0  0  0  0
  152.1023  143.5315  159.9083 C   0  0  0  0  0  0  0  0  0  0  0  0
  151.1551  144.3093  160.5351 C   0  0  0  0  0  0  0  0  0  0  0  0
  150.9692  143.8610  161.8408 N   0  0  0  0  0  0  0  0  0  0  0  0
  151.8070  142.8375  161.9462 C   0  0  0  0  0  0  0  0  0  0  0  0
  152.5943  140.6028  158.5563 N   0  0  0  0  0  0  0  0  0  0  0  0
  151.3595  140.8201  158.0724 C   0  0  0  0  0  0  0  0  0  0  0  0
  150.3571  140.7694  158.7866 O   0  0  0  0  0  0  0  0  0  0  0  0
  151.3123  141.1021  156.7467 N   0  0  0  0  0  0  0  0  0  0  0  0
  150.1630  141.6176  155.9910 C   0  0  0  0  0  0  0  0  0  0  0  0
  149.6556  140.4976  155.0627 C   0  0  1  0  0  0  0  0  0  0  0  0
  148.4946  140.9645  154.1780 C   0  0  0  0  0  0  0  0  0  0  0  0
  150.7181  140.0697  154.2063 O   0  0  0  0  0  0  0  0  0  0  0  0
  151.9182  139.6519  154.8654 C   0  0  2  0  0  0  0  0  0  0  0  0
  151.7412  138.2766  155.5349 C   0  0  0  0  0  0  0  0  0  0  0  0
  152.3994  140.7601  155.8265 C   0  0  0  0  0  0  0  0  0  0  0  0
  154.0740  138.7573  160.9943 H   0  0  0  0  0  0  0  0  0  0  0  0
  154.8312  139.3234  159.5076 H   0  0  0  0  0  0  0  0  0  0  0  0
  153.4465  138.2360  159.4407 H   0  0  0  0  0  0  0  0  0  0  0  0
  152.0064  139.9977  160.4576 H   0  0  0  0  0  0  0  0  0  0  0  0
  153.9144  141.2704  161.6197 H   0  0  0  0  0  0  0  0  0  0  0  0
  154.3277  141.9592  160.0660 H   0  0  0  0  0  0  0  0  0  0  0  0
  152.5059  143.5732  158.9073 H   0  0  0  0  0  0  0  0  0  0  0  0
  150.5967  145.1495  160.1495 H   0  0  0  0  0  0  0  0  0  0  0  0
  151.9090  142.2578  162.8520 H   0  0  0  0  0  0  0  0  0  0  0  0
  153.3676  140.6610  157.9098 H   0  0  0  0  0  0  0  0  0  0  0  0
  149.3483  141.9797  156.6180 H   0  0  0  0  0  0  0  0  0  0  0  0
  150.4806  142.4791  155.4012 H   0  0  0  0  0  0  0  0  0  0  0  0
  149.3082  139.6555  155.6620 H   0  0  0  0  0  0  0  0  0  0  0  0
  147.6475  141.2917  154.7812 H   0  0  0  0  0  0  0  0  0  0  0  0
  148.1499  140.1571  153.5315 H   0  0  0  0  0  0  0  0  0  0  0  0
  148.7935  141.7970  153.5405 H   0  0  0  0  0  0  0  0  0  0  0  0
  152.6714  139.5344  154.0858 H   0  0  0  0  0  0  0  0  0  0  0  0
  152.6851  137.9272  155.9542 H   0  0  0  0  0  0  0  0  0  0  0  0
  151.4070  137.5335  154.8109 H   0  0  0  0  0  0  0  0  0  0  0  0
  151.0152  138.2985  156.3471 H   0  0  0  0  0  0  0  0  0  0  0  0
  152.6761  141.6491  155.2580 H   0  0  0  0  0  0  0  0  0  0  0  0
  153.3090  140.4439  156.3393 H   0  0  0  0  0  0  0  0  0  0  0  0
  1  2  1  0  0  0  0
  1 20  1  0  0  0  0
  1 21  1  0  0  0  0
  1 22  1  0  0  0  0
  2  3  1  0  0  0  0
  2  9  1  0  0  0  0
  2 23  1  0  0  0  0
  3  4  1  0  0  0  0
  3 24  1  0  0  0  0
  3 25  1  0  0  0  0
  4  8  1  0  0  0  0
  4  5  1  0  0  0  0
  5  6  2  0  0  0  0
  5 26  1  0  0  0  0
  6  7  1  0  0  0  0
  6 27  1  0  0  0  0
  7  8  2  0  0  0  0
  8 28  1  0  0  0  0
  9 10  1  0  0  0  0
  9 29  1  0  0  0  0
 10 11  2  0  0  0  0
 10 12  1  0  0  0  0
 12 19  1  0  0  0  0
 12 13  1  0  0  0  0
 13 14  1  0  0  0  0
 13 30  1  0  0  0  0
 13 31  1  0  0  0  0
 14 15  1  0  0  0  0
 14 16  1  0  0  0  0
 14 32  1  0  0  0  0
 15 33  1  0  0  0  0
 15 34  1  0  0  0  0
 15 35  1  0  0  0  0
 16 17  1  0  0  0  0
 17 18  1  0  0  0  0
 17 19  1  0  0  0  0
 17 36  1  0  0  0  0
 18 37  1  0  0  0  0
 18 38  1  0  0  0  0
 18 39  1  0  0  0  0
 19 40  1  0  0  0  0
 19 41  1  0  0  0  0
M  END
> <s_m_source_file>
AV-unprocessed.smi

> <i_m_source_file_index>
1419

> <i_lp_mmshare_version>
43012

> <i_f3d_flags>
0

> <s_epik_input>
W2NIXTFuW2NIXVtjSF1uMVtDSDJdW0NAQEhdKFtDSDNdKVtOSF1DKD1PKU4yW0NIMl1bQ0BASF0oW0NIM10pT1tDQEBIXShbQ0gzXSlbQ0gyXTI=

> <s_epik_cmdline>
J2VwaWtfcHl0aG9uJywgJy1waCcsICc3LjAnLCAnLXRuJywgJzgnLCAnLW1hJywgJzIwMCcsICctbWV0YWxfYmluZGluZycsICctaW1hZScsICc8aW5maWxlLm1hZT4nLCAnLW9tYWUnLCAnPG91dGZpbGUubWFlPic=

> <r_lp_tautomer_probability>
1

> <r_epik_Ionization_Penalty>
0.625124

> <r_epik_Ionization_Penalty_Charging>
0.625093

> <r_epik_Ionization_Penalty_Neutral>
3.17415e-05

> <r_epik_State_Penalty>
0.641455

> <r_epik_Charging_Adjusted_Penalty>
1.26655

> <i_epik_Tot_Q>
0

> <i_epik_Tot_abs_Q>
0

> <r_epik_Metal_State_Penalty>
0.307717

> <b_epik_Metal_Only>
0

> <s_lp_Force_Field>
OPLS_2005

> <r_lp_Energy>
31.3243

> <b_lp_Chiralities_Consistent>
1

> <s_lp_Variant>
AV-unprocessed.smi:1419-12

> <Gold.Version>
5.8.1

> <Gold.Id.Protein>
6NUR|6NUR_protein|mol2

> <Gold.PLP.Fitness>
43.1979

> <Gold.PLP.PLP>
-43.8584

> <Gold.PLP.part.hbond>
-1.0000

> <Gold.PLP.part.metal>
0.0000

> <Gold.PLP.part.buried>
-3.0535

> <Gold.PLP.part.nonpolar>
-39.1453

> <Gold.PLP.part.repulsive>
0.6526

> <Gold.PLP.ligand.clash>
0.3171

> <Gold.PLP.ligand.torsion>
0.6576

> <Gold.PLP.Chemscore.Hbond>
0.3122

> <Gold.PLP.Chemscore.CHOScore>
0.0000

> <Gold.PLP.Chemscore.Metal>
0.0000

> <Gold.Chemscore.Hbonds>
donor molecule, donor type, donor heavy atom, donor atom, acceptor molecule, acceptor atom, score
      P1  H  7989  7998       L1    16  0.07

> <Gold.PLP.Chemscore.Internal.Correction>
0.0350

> <Gold.Rescore>
     Score         DG    S(hbond)    S(metal)    S(lipo)     H(rot)  DE(clash)    DE(int)     intcor
     11.25     -12.05       0.00        0.00      90.63       1.58       0.02       0.78       ----

> <Gold.Chemscore.Fitness>
11.2506

> <Gold.Chemscore.DG>
-12.0466

> <Gold.Chemscore.ZeroCoef>
-5.4800

> <Gold.Chemscore.Hbond>
0.0000

> <Gold.Chemscore.Metal>
0.0000

> <Gold.Chemscore.Lipo>
90.6280

> <Gold.Chemscore.Internal_Hbond>
0.0000

> <Gold.Chemscore.DEClash>
0.0207

> <Gold.Chemscore.DEInternal>
0.7753

> <Gold.Chemscore.Rot>
1.5769

> <Gold.Chemscore.Internal.Correction>
   9.000000E+99

> <Gold.Chemscore.Hbond.Weighted>
-0.0000

> <Gold.Chemscore.Metal.Weighted>
-0.0000

> <Gold.Chemscore.Lipo.Weighted>
-10.6035

> <Gold.Chemscore.Internal_Hbond.Weighted>
0.0000

> <Gold.Chemscore.DEClash.Weighted>
0.0207

> <Gold.Chemscore.DEInternal.Weighted>
0.7753

> <Gold.Chemscore.Rot.Weighted>
4.0369

> <Gold.Chemscore.Internal.Correction.Weighted>
   9.000000E+99

> <Gold.Protein.RotatedTorsions>
[ 6907 6896 6895 6894 ] final   -4.69 input  -60.11 | X-H torsion
[ 7974 7965 7964 7962 ] final -138.02 input  175.53 | X-H torsion
[ 8008 7997 7996 7995 ] final   96.70 input   59.86 | X-H torsion
[ 10167 10162 10161 10158 ] final  162.86 input  -65.29 | X-H torsion
[ 10718 10713 10712 10709 ] final  -32.98 input   66.30 | X-H torsion
[ 10763 10752 10751 10750 ] final  -38.72 input  -60.55 | X-H torsion
[ 11005 11000 10999 10996 ] final  110.58 input  -57.11 | X-H torsion

> <Gold.Protein.ActiveResidues>
 VAL166  LYS551  ARG553  GLY616  TRP617  ASP618  TYR619  PRO620  LYS621  CYS622 
 ASP623  PHE694  ASN695  SER759  ASP760  ASP761  ALA762  ILE779  LEU786  VAL792 
 PHE793  MET794  SER795  GLU796  ALA797  LYS798  CYS799  TRP800  GLU811  SER814 

> <Gold.Protein.RotatedAtoms>
  151.4936  135.1058  159.9809 H   0  0  0  0  0  0  0  0  0  0  0  0  # atno 6907 bound_to 6896
  152.4731  133.8070  159.6994 H   0  0  0  0  0  0  0  0  0  0  0  0  # atno 6908 bound_to 6896
  150.8751  133.7387  159.2975 H   0  0  0  0  0  0  0  0  0  0  0  0  # atno 6909 bound_to 6896
  144.8793  140.6484  143.5216 H   0  0  0  0  0  0  0  0  0  0  0  0  # atno 7974 bound_to 7965
  156.0824  140.3269  155.7710 H   0  0  0  0  0  0  0  0  0  0  0  0  # atno 8008 bound_to 7997
  155.5132  140.0579  157.2937 H   0  0  0  0  0  0  0  0  0  0  0  0  # atno 8009 bound_to 7997
  154.4589  140.1957  156.0316 H   0  0  0  0  0  0  0  0  0  0  0  0  # atno 8010 bound_to 7997
  139.4866  144.4395  151.8970 H   0  0  0  0  0  0  0  0  0  0  0  0  # atno 10167 bound_to 10162
  156.3683  130.4335  149.7566 H   0  0  0  0  0  0  0  0  0  0  0  0  # atno 10718 bound_to 10713
  153.9176  135.6786  153.4749 H   0  0  0  0  0  0  0  0  0  0  0  0  # atno 10763 bound_to 10752
  153.1045  135.4812  154.8924 H   0  0  0  0  0  0  0  0  0  0  0  0  # atno 10764 bound_to 10752
  154.7495  135.3181  154.8540 H   0  0  0  0  0  0  0  0  0  0  0  0  # atno 10765 bound_to 10752
  139.8885  134.9487  156.6301 H   0  0  0  0  0  0  0  0  0  0  0  0  # atno 11005 bound_to 11000
  145.3984  139.1602  143.4191 LP  0  0  0  0  0  0  0  0  0  0  0  0  # atno 17320 bound_to 7965
  146.2984  140.4079  142.8713 LP  0  0  0  0  0  0  0  0  0  0  0  0  # atno 17321 bound_to 7965
  140.3846  144.2693  150.5905 LP  0  0  0  0  0  0  0  0  0  0  0  0  # atno 17342 bound_to 10162
  140.5202  143.2267  151.8400 LP  0  0  0  0  0  0  0  0  0  0  0  0  # atno 17343 bound_to 10162
  156.4704  130.7994  151.3012 LP  0  0  0  0  0  0  0  0  0  0  0  0  # atno 17370 bound_to 10713
  157.7481  131.0038  150.3050 LP  0  0  0  0  0  0  0  0  0  0  0  0  # atno 17371 bound_to 10713
  140.7673  133.8767  155.8464 LP  0  0  0  0  0  0  0  0  0  0  0  0  # atno 17394 bound_to 11000
  140.9871  134.1328  157.4442 LP  0  0  0  0  0  0  0  0  0  0  0  0  # atno 17395 bound_to 11000

$$$$
