AV-unprocessed.smi:3287|AV-procd|sdf|12596|dock4
  -GOLD-   2272018523D 1   1.00000     0.00000
 Structure written by MMmdl.
 43 44  0  0  0  0  0  0  0  0  2 V2000
  151.6192  143.5346  162.3341 C   0  0  0  0  0  0  0  0  0  0  0  0
  152.1943  144.0339  160.9966 C   0  0  2  0  0  0  0  0  0  0  0  0
  151.1407  144.8873  160.2619 C   0  0  0  0  0  0  0  0  0  0  0  0
  151.6654  145.4250  158.9223 C   0  0  0  0  0  0  0  0  0  0  0  0
  152.1538  144.2907  158.0004 C   0  0  2  0  0  0  0  0  0  0  0  0
  151.0427  143.4442  157.5072 N   0  3  0  0  0  0  0  0  0  0  0  0
  151.4040  142.4566  156.4675 C   0  0  0  0  0  0  0  0  0  0  0  0
  150.3794  141.3106  156.4061 C   0  0  1  0  0  0  0  0  0  0  0  0
  149.1707  141.8112  155.8678 O   0  0  0  0  0  0  0  0  0  0  0  0
  150.9135  140.1385  155.5983 C   0  0  0  0  0  0  0  0  0  0  0  0
  152.1356  139.5157  155.9331 C   0  0  0  0  0  0  0  0  0  0  0  0
  152.5760  138.4304  155.1493 C   0  0  0  0  0  0  0  0  0  0  0  0
  151.8861  137.9517  154.0921 N   0  0  0  0  0  0  0  0  0  0  0  0
  150.7171  138.5491  153.7776 C   0  0  0  0  0  0  0  0  0  0  0  0
  150.1878  139.6401  154.4960 C   0  0  0  0  0  0  0  0  0  0  0  0
  153.2000  143.4297  158.7318 C   0  0  0  0  0  0  0  0  0  0  0  0
  152.6995  142.8821  160.0876 C   0  0  1  0  0  0  0  0  0  0  0  0
  153.8067  142.0411  160.7478 C   0  0  0  0  0  0  0  0  0  0  0  0
  150.8111  142.8194  162.1771 H   0  0  0  0  0  0  0  0  0  0  0  0
  151.2187  144.3619  162.9205 H   0  0  0  0  0  0  0  0  0  0  0  0
  152.3798  143.0531  162.9480 H   0  0  0  0  0  0  0  0  0  0  0  0
  153.0417  144.6819  161.2263 H   0  0  0  0  0  0  0  0  0  0  0  0
  150.2385  144.2978  160.0925 H   0  0  0  0  0  0  0  0  0  0  0  0
  150.8408  145.7265  160.8906 H   0  0  0  0  0  0  0  0  0  0  0  0
  150.9013  146.0305  158.4362 H   0  0  0  0  0  0  0  0  0  0  0  0
  152.4963  146.1042  159.1181 H   0  0  0  0  0  0  0  0  0  0  0  0
  152.6397  144.7310  157.1284 H   0  0  0  0  0  0  0  0  0  0  0  0
  150.6745  142.9305  158.2948 H   0  0  0  0  0  0  0  0  0  0  0  0
  151.4781  142.9404  155.4936 H   0  0  0  0  0  0  0  0  0  0  0  0
  152.3905  142.0534  156.7003 H   0  0  0  0  0  0  0  0  0  0  0  0
  150.1654  140.9629  157.4180 H   0  0  0  0  0  0  0  0  0  0  0  0
  149.1664  142.7519  155.9649 H   0  0  0  0  0  0  0  0  0  0  0  0
  152.7260  139.8578  156.7707 H   0  0  0  0  0  0  0  0  0  0  0  0
  153.5064  137.9328  155.3791 H   0  0  0  0  0  0  0  0  0  0  0  0
  150.1863  138.1455  152.9280 H   0  0  0  0  0  0  0  0  0  0  0  0
  149.2461  140.0798  154.2017 H   0  0  0  0  0  0  0  0  0  0  0  0
  153.5128  142.6068  158.0874 H   0  0  0  0  0  0  0  0  0  0  0  0
  154.0940  144.0320  158.9007 H   0  0  0  0  0  0  0  0  0  0  0  0
  151.8604  142.2133  159.8908 H   0  0  0  0  0  0  0  0  0  0  0  0
  154.6529  142.6615  161.0445 H   0  0  0  0  0  0  0  0  0  0  0  0
  154.1799  141.2786  160.0636 H   0  0  0  0  0  0  0  0  0  0  0  0
  153.4462  141.5192  161.6338 H   0  0  0  0  0  0  0  0  0  0  0  0
  150.3123  144.0434  157.1490 H   0  0  0  0  0  0  0  0  0  0  0  0
  1  2  1  0  0  0  0
  1 19  1  0  0  0  0
  1 20  1  0  0  0  0
  1 21  1  0  0  0  0
  2 17  1  0  0  0  0
  2  3  1  0  0  0  0
  2 22  1  0  0  0  0
  3  4  1  0  0  0  0
  3 23  1  0  0  0  0
  3 24  1  0  0  0  0
  4  5  1  0  0  0  0
  4 25  1  0  0  0  0
  4 26  1  0  0  0  0
  5  6  1  0  0  0  0
  5 16  1  0  0  0  0
  5 27  1  0  0  0  0
  6  7  1  0  0  0  0
  6 28  1  0  0  0  0
  6 43  1  0  0  0  0
  7  8  1  0  0  0  0
  7 29  1  0  0  0  0
  7 30  1  0  0  0  0
  8  9  1  0  0  0  0
  8 10  1  0  0  0  0
  8 31  1  0  0  0  0
  9 32  1  0  0  0  0
 10 15  1  0  0  0  0
 10 11  2  0  0  0  0
 11 12  1  0  0  0  0
 11 33  1  0  0  0  0
 12 13  2  0  0  0  0
 12 34  1  0  0  0  0
 13 14  1  0  0  0  0
 14 15  2  0  0  0  0
 14 35  1  0  0  0  0
 15 36  1  0  0  0  0
 16 17  1  0  0  0  0
 16 37  1  0  0  0  0
 16 38  1  0  0  0  0
 17 18  1  0  0  0  0
 17 39  1  0  0  0  0
 18 40  1  0  0  0  0
 18 41  1  0  0  0  0
 18 42  1  0  0  0  0
M  CHG  1   6   1
M  END
> <s_m_source_file>
AV-unprocessed.smi

> <i_m_source_file_index>
3287

> <i_lp_mmshare_version>
43012

> <i_f3d_flags>
0

> <s_epik_input>
W0NIM11bQ0BASF0xW0NIMl1bQ0gyXVtDQEhdKFtDSDJdW0NASF0xW0NIM10pW05IXVtDSDJdW0NASF0oW09IXSljMltjSF1bY0hdbltjSF1bY0hdMg==

> <s_epik_cmdline>
J2VwaWtfcHl0aG9uJywgJy1waCcsICc3LjAnLCAnLXRuJywgJzgnLCAnLW1hJywgJzIwMCcsICctbWV0YWxfYmluZGluZycsICctaW1hZScsICc8aW5maWxlLm1hZT4nLCAnLW9tYWUnLCAnPG91dGZpbGUubWFlPic=

> <r_lp_tautomer_probability>
1

> <r_epik_Ionization_Penalty>
0.00537262

> <r_epik_Ionization_Penalty_Charging>
0.00321624

> <r_epik_Ionization_Penalty_Neutral>
0.00215638

> <r_epik_State_Penalty>
-0

> <r_epik_Charging_Adjusted_Penalty>
0.00321624

> <i_epik_Tot_Q>
1

> <i_epik_Tot_abs_Q>
1

> <r_epik_Metal_State_Penalty>
-0

> <b_epik_Metal_Only>
0

> <s_lp_Force_Field>
OPLS_2005

> <r_lp_Energy>
19.2096

> <b_lp_Chiralities_Consistent>
1

> <s_lp_Variant>
AV-unprocessed.smi:3287-7

> <Gold.Version>
5.8.1

> <Gold.Id.Protein>
6NUR|6NUR_protein|mol2

> <Gold.PLP.Fitness>
55.9385

> <Gold.PLP.PLP>
-43.5131

> <Gold.PLP.part.hbond>
-2.0000

> <Gold.PLP.part.metal>
0.0000

> <Gold.PLP.part.buried>
2.0297

> <Gold.PLP.part.nonpolar>
-43.8881

> <Gold.PLP.part.repulsive>
0.2196

> <Gold.PLP.ligand.clash>
0.0000

> <Gold.PLP.ligand.torsion>
0.2321

> <Gold.PLP.Chemscore.Hbond>
2.7488

> <Gold.PLP.Chemscore.CHOScore>
1.5435

> <Gold.PLP.Chemscore.Metal>
0.0000

> <Gold.Chemscore.Hbonds>
donor molecule, donor type, donor heavy atom, donor atom, acceptor molecule, acceptor atom, score
      L1  H     6    43       P1  8028  1.40
      L1  H     9    32       P1  8028  1.00
      L1  C    14    35       P1  7948  0.91
      L1  C    14    35       P1  7949  0.08
      L1  C    14    35       P1  7957  0.45

> <Gold.PLP.Chemscore.Internal.Correction>
0.0129

> <Gold.Rescore>
     Score         DG    S(hbond)    S(metal)    S(lipo)     H(rot)  DE(clash)    DE(int)     intcor
     19.77     -22.27       1.22        0.00     150.36       1.90       1.84       0.66       ----

> <Gold.Chemscore.Fitness>
19.7694

> <Gold.Chemscore.DG>
-22.2696

> <Gold.Chemscore.ZeroCoef>
-5.4800

> <Gold.Chemscore.Hbond>
1.2187

> <Gold.Chemscore.Metal>
0.0000

> <Gold.Chemscore.Lipo>
150.3587

> <Gold.Chemscore.Internal_Hbond>
0.0000

> <Gold.Chemscore.DEClash>
1.8418

> <Gold.Chemscore.DEInternal>
0.6584

> <Gold.Chemscore.Rot>
1.9035

> <Gold.Chemscore.Internal.Correction>
   9.000000E+99

> <Gold.Chemscore.Hbonds>
donor molecule, donor type, donor heavy atom, donor atom, acceptor molecule, acceptor atom, score
      L1  H     6    43       P1  8028  0.65
      L1  H     9    32       P1  8028  0.95

> <Gold.Chemscore.Hbond.Weighted>
-4.0705

> <Gold.Chemscore.Metal.Weighted>
-0.0000

> <Gold.Chemscore.Lipo.Weighted>
-17.5920

> <Gold.Chemscore.Internal_Hbond.Weighted>
0.0000

> <Gold.Chemscore.DEClash.Weighted>
1.8418

> <Gold.Chemscore.DEInternal.Weighted>
0.6584

> <Gold.Chemscore.Rot.Weighted>
4.8729

> <Gold.Chemscore.Internal.Correction.Weighted>
   9.000000E+99

> <Gold.Protein.RotatedTorsions>
[ 6907 6896 6895 6894 ] final  -21.36 input  -60.11 | X-H torsion
[ 7974 7965 7964 7962 ] final  -94.94 input  175.53 | X-H torsion
[ 8008 7997 7996 7995 ] final  -74.27 input   59.86 | X-H torsion
[ 10167 10162 10161 10158 ] final -160.52 input  -65.29 | X-H torsion
[ 10718 10713 10712 10709 ] final   70.26 input   66.30 | X-H torsion
[ 10763 10752 10751 10750 ] final  -98.95 input  -60.55 | X-H torsion
[ 11005 11000 10999 10996 ] final   90.99 input  -57.11 | X-H torsion

> <Gold.Protein.ActiveResidues>
 VAL166  LYS551  ARG553  GLY616  TRP617  ASP618  TYR619  PRO620  LYS621  CYS622 
 ASP623  PHE694  ASN695  SER759  ASP760  ASP761  ALA762  ILE779  LEU786  VAL792 
 PHE793  MET794  SER795  GLU796  ALA797  LYS798  CYS799  TRP800  GLU811  SER814 

> <Gold.Protein.RotatedAtoms>
  151.2346  135.0567  159.9000 H   0  0  0  0  0  0  0  0  0  0  0  0  # atno 6907 bound_to 6896
  152.5401  134.0500  159.8116 H   0  0  0  0  0  0  0  0  0  0  0  0  # atno 6908 bound_to 6896
  151.0685  133.5437  159.2660 H   0  0  0  0  0  0  0  0  0  0  0  0  # atno 6909 bound_to 6896
  145.3666  140.9499  143.2471 H   0  0  0  0  0  0  0  0  0  0  0  0  # atno 7974 bound_to 7965
  154.5317  140.0764  156.8356 H   0  0  0  0  0  0  0  0  0  0  0  0  # atno 8008 bound_to 7997
  155.3362  140.3404  155.4221 H   0  0  0  0  0  0  0  0  0  0  0  0  # atno 8009 bound_to 7997
  156.1788  140.1645  156.8300 H   0  0  0  0  0  0  0  0  0  0  0  0  # atno 8010 bound_to 7997
  139.6533  144.0044  152.2177 H   0  0  0  0  0  0  0  0  0  0  0  0  # atno 10167 bound_to 10162
  157.6390  130.9468  150.0626 H   0  0  0  0  0  0  0  0  0  0  0  0  # atno 10718 bound_to 10713
  154.7457  135.4990  153.9200 H   0  0  0  0  0  0  0  0  0  0  0  0  # atno 10763 bound_to 10752
  153.1090  135.6704  153.9543 H   0  0  0  0  0  0  0  0  0  0  0  0  # atno 10764 bound_to 10752
  153.9308  135.3078  155.3425 H   0  0  0  0  0  0  0  0  0  0  0  0  # atno 10765 bound_to 10752
  139.8846  134.8647  156.3364 H   0  0  0  0  0  0  0  0  0  0  0  0  # atno 11005 bound_to 11000
  144.8607  139.5182  143.6813 LP  0  0  0  0  0  0  0  0  0  0  0  0  # atno 17320 bound_to 7965
  146.2904  139.7122  142.9165 LP  0  0  0  0  0  0  0  0  0  0  0  0  # atno 17321 bound_to 7965
  139.9763  144.6459  150.7942 LP  0  0  0  0  0  0  0  0  0  0  0  0  # atno 17342 bound_to 10162
  140.7548  143.3033  151.3024 LP  0  0  0  0  0  0  0  0  0  0  0  0  # atno 17343 bound_to 10162
  156.1654  130.3645  149.9240 LP  0  0  0  0  0  0  0  0  0  0  0  0  # atno 17370 bound_to 10713
  156.7228  130.9013  151.3619 LP  0  0  0  0  0  0  0  0  0  0  0  0  # atno 17371 bound_to 10713
  140.9688  133.7340  156.0505 LP  0  0  0  0  0  0  0  0  0  0  0  0  # atno 17394 bound_to 11000
  140.7897  134.3632  157.5468 LP  0  0  0  0  0  0  0  0  0  0  0  0  # atno 17395 bound_to 11000

$$$$
