AV-unprocessed.smi:1243|AV-procd|sdf|5218|dock10
  -GOLD-   22720 4313D 1   1.00000     0.00000
 Structure written by MMmdl.
 51 52  0  0  0  0  0  0  0  0  2 V2000
  151.8999  137.9801  154.4453 C   0  0  0  0  0  0  0  0  0  0  0  0
  150.5558  138.1685  154.0161 O   0  0  0  0  0  0  0  0  0  0  0  0
  149.9201  139.3521  154.3408 C   0  0  0  0  0  0  0  0  0  0  0  0
  150.6199  140.2962  155.0189 N   0  0  0  0  0  0  0  0  0  0  0  0
  149.9993  141.4504  155.3387 C   0  0  0  0  0  0  0  0  0  0  0  0
  148.6583  141.7213  155.0099 C   0  0  0  0  0  0  0  0  0  0  0  0
  147.9307  140.7441  154.3059 C   0  0  0  0  0  0  0  0  0  0  0  0
  148.5735  139.5343  153.9494 C   0  0  0  0  0  0  0  0  0  0  0  0
  147.9201  138.4779  153.2592 N   0  0  0  0  0  0  0  0  0  0  0  0
  146.6194  138.1448  153.2962 C   0  0  0  0  0  0  0  0  0  0  0  0
  145.7543  138.7365  153.9416 O   0  0  0  0  0  0  0  0  0  0  0  0
  146.3703  137.0900  152.5077 N   0  0  0  0  0  0  0  0  0  0  0  0
  145.0562  136.4959  152.2614 C   0  0  0  0  0  0  0  0  0  0  0  0
  144.8480  135.1583  153.0312 C   0  0  0  0  0  0  0  0  0  0  0  0
  145.2470  135.3736  154.5109 C   0  0  0  0  0  0  0  0  0  0  0  0
  143.3376  134.8146  152.9695 C   0  0  0  0  0  0  0  0  0  0  0  0
  145.6342  134.0632  152.3999 N   0  0  0  0  0  0  0  0  0  0  0  0
  145.1578  133.6494  151.0691 C   0  0  0  0  0  0  0  0  0  0  0  0
  146.1778  132.7070  150.3990 C   0  0  0  0  0  0  0  0  0  0  0  0
  146.4244  131.4999  151.2201 N   0  3  0  0  0  0  0  0  0  0  0  0
  145.3390  130.4944  151.1536 C   0  0  0  0  0  0  0  0  0  0  0  0
  146.8003  131.8878  152.5985 C   0  0  0  0  0  0  0  0  0  0  0  0
  145.7636  132.8460  153.2188 C   0  0  0  0  0  0  0  0  0  0  0  0
  152.2548  137.0082  154.1030 H   0  0  0  0  0  0  0  0  0  0  0  0
  151.9767  137.9955  155.5332 H   0  0  0  0  0  0  0  0  0  0  0  0
  152.5631  138.7394  154.0283 H   0  0  0  0  0  0  0  0  0  0  0  0
  150.5877  142.1772  155.8789 H   0  0  0  0  0  0  0  0  0  0  0  0
  148.1970  142.6549  155.2960 H   0  0  0  0  0  0  0  0  0  0  0  0
  146.8950  140.9310  154.0667 H   0  0  0  0  0  0  0  0  0  0  0  0
  148.4944  137.9694  152.6030 H   0  0  0  0  0  0  0  0  0  0  0  0
  147.1473  136.6806  152.0109 H   0  0  0  0  0  0  0  0  0  0  0  0
  144.2952  137.2313  152.5190 H   0  0  0  0  0  0  0  0  0  0  0  0
  144.9063  136.3263  151.1937 H   0  0  0  0  0  0  0  0  0  0  0  0
  144.6485  136.1686  154.9572 H   0  0  0  0  0  0  0  0  0  0  0  0
  146.2902  135.6695  154.6200 H   0  0  0  0  0  0  0  0  0  0  0  0
  145.0855  134.4840  155.1193 H   0  0  0  0  0  0  0  0  0  0  0  0
  142.7274  135.6841  153.2166 H   0  0  0  0  0  0  0  0  0  0  0  0
  143.0544  134.0393  153.6812 H   0  0  0  0  0  0  0  0  0  0  0  0
  143.0364  134.4824  151.9752 H   0  0  0  0  0  0  0  0  0  0  0  0
  144.1831  133.1666  151.1393 H   0  0  0  0  0  0  0  0  0  0  0  0
  145.0376  134.5059  150.4095 H   0  0  0  0  0  0  0  0  0  0  0  0
  145.8355  132.4177  149.4047 H   0  0  0  0  0  0  0  0  0  0  0  0
  147.1233  133.2327  150.2575 H   0  0  0  0  0  0  0  0  0  0  0  0
  144.4021  130.8760  151.5593 H   0  0  0  0  0  0  0  0  0  0  0  0
  145.6126  129.6011  151.7159 H   0  0  0  0  0  0  0  0  0  0  0  0
  145.1624  130.1924  150.1206 H   0  0  0  0  0  0  0  0  0  0  0  0
  146.9171  130.9975  153.2176 H   0  0  0  0  0  0  0  0  0  0  0  0
  147.7769  132.3736  152.5716 H   0  0  0  0  0  0  0  0  0  0  0  0
  146.1102  133.0803  154.2226 H   0  0  0  0  0  0  0  0  0  0  0  0
  144.8001  132.3476  153.3273 H   0  0  0  0  0  0  0  0  0  0  0  0
  147.2333  131.0451  150.8212 H   0  0  0  0  0  0  0  0  0  0  0  0
  1  2  1  0  0  0  0
  1 24  1  0  0  0  0
  1 25  1  0  0  0  0
  1 26  1  0  0  0  0
  2  3  1  0  0  0  0
  3  8  1  0  0  0  0
  3  4  2  0  0  0  0
  4  5  1  0  0  0  0
  5  6  2  0  0  0  0
  5 27  1  0  0  0  0
  6  7  1  0  0  0  0
  6 28  1  0  0  0  0
  7  8  2  0  0  0  0
  7 29  1  0  0  0  0
  8  9  1  0  0  0  0
  9 10  1  0  0  0  0
  9 30  1  0  0  0  0
 10 11  2  0  0  0  0
 10 12  1  0  0  0  0
 12 13  1  0  0  0  0
 12 31  1  0  0  0  0
 13 14  1  0  0  0  0
 13 32  1  0  0  0  0
 13 33  1  0  0  0  0
 14 15  1  0  0  0  0
 14 16  1  0  0  0  0
 14 17  1  0  0  0  0
 15 34  1  0  0  0  0
 15 35  1  0  0  0  0
 15 36  1  0  0  0  0
 16 37  1  0  0  0  0
 16 38  1  0  0  0  0
 16 39  1  0  0  0  0
 17 23  1  0  0  0  0
 17 18  1  0  0  0  0
 18 19  1  0  0  0  0
 18 40  1  0  0  0  0
 18 41  1  0  0  0  0
 19 20  1  0  0  0  0
 19 42  1  0  0  0  0
 19 43  1  0  0  0  0
 20 21  1  0  0  0  0
 20 22  1  0  0  0  0
 20 51  1  0  0  0  0
 21 44  1  0  0  0  0
 21 45  1  0  0  0  0
 21 46  1  0  0  0  0
 22 23  1  0  0  0  0
 22 47  1  0  0  0  0
 22 48  1  0  0  0  0
 23 49  1  0  0  0  0
 23 50  1  0  0  0  0
M  CHG  1  20   1
M  END
> <s_m_source_file>
AV-unprocessed.smi

> <i_m_source_file_index>
1243

> <i_lp_mmshare_version>
43012

> <i_f3d_flags>
0

> <s_epik_input>
W0NIM11PYzFuW2NIXVtjSF1bY0hdYzFbTkhdQyg9TylbTkhdW0NIMl1DKFtDSDNdKShbQ0gzXSlOMltDSDJdW0NIMl1OKFtDSDNdKVtDSDJdW0NIMl0y

> <s_epik_cmdline>
J2VwaWtfcHl0aG9uJywgJy1waCcsICc3LjAnLCAnLXRuJywgJzgnLCAnLW1hJywgJzIwMCcsICctbWV0YWxfYmluZGluZycsICctaW1hZScsICc8aW5maWxlLm1hZT4nLCAnLW9tYWUnLCAnPG91dGZpbGUubWFlPic=

> <r_lp_tautomer_probability>
1

> <r_epik_Ionization_Penalty>
0.0248754

> <r_epik_Ionization_Penalty_Charging>
0.0238192

> <r_epik_Ionization_Penalty_Neutral>
0.00105626

> <r_epik_State_Penalty>
0.139266

> <r_epik_Charging_Adjusted_Penalty>
0.163085

> <i_epik_Tot_Q>
1

> <i_epik_Tot_abs_Q>
1

> <r_epik_Metal_State_Penalty>
0.139265

> <b_epik_Metal_Only>
0

> <s_lp_Force_Field>
OPLS_2005

> <r_lp_Energy>
29.8064

> <b_lp_Chiralities_Consistent>
1

> <s_lp_Variant>
AV-unprocessed.smi:1243-1

> <Gold.Version>
5.8.1

> <Gold.Id.Protein>
6NUR|6NUR_protein|mol2

> <Gold.PLP.Fitness>
44.3196

> <Gold.PLP.PLP>
-34.2949

> <Gold.PLP.part.hbond>
-4.7783

> <Gold.PLP.part.metal>
0.0000

> <Gold.PLP.part.buried>
-4.9346

> <Gold.PLP.part.nonpolar>
-26.5403

> <Gold.PLP.part.repulsive>
0.9452

> <Gold.PLP.ligand.clash>
0.0000

> <Gold.PLP.ligand.torsion>
0.6498

> <Gold.PLP.Chemscore.Hbond>
3.7600

> <Gold.PLP.Chemscore.CHOScore>
0.0000

> <Gold.PLP.Chemscore.Metal>
0.0000

> <Gold.Chemscore.Hbonds>
donor molecule, donor type, donor heavy atom, donor atom, acceptor molecule, acceptor atom, score
      L1  H     9    30       P1  7948  0.96
      L1  H    12    31       P1  7948  1.00
      L1  H    20    51       P1 10747  1.00
      P1  H  7989  7998       L1     4  0.75

> <Gold.PLP.Chemscore.Internal.Correction>
0.0441

> <Gold.Rescore>
     Score         DG    S(hbond)    S(metal)    S(lipo)     H(rot)  DE(clash)    DE(int)     intcor
     18.63     -20.65       2.96        0.00      82.82       1.72       0.36       1.66       ----

> <Gold.Chemscore.Fitness>
18.6293

> <Gold.Chemscore.DG>
-20.6516

> <Gold.Chemscore.ZeroCoef>
-5.4800

> <Gold.Chemscore.Hbond>
2.9605

> <Gold.Chemscore.Metal>
0.0000

> <Gold.Chemscore.Lipo>
82.8211

> <Gold.Chemscore.Internal_Hbond>
0.0000

> <Gold.Chemscore.DEClash>
0.3599

> <Gold.Chemscore.DEInternal>
1.6625

> <Gold.Chemscore.Rot>
1.7213

> <Gold.Chemscore.Internal.Correction>
   9.000000E+99

> <Gold.Chemscore.Hbonds>
donor molecule, donor type, donor heavy atom, donor atom, acceptor molecule, acceptor atom, score
      L1  H     9    30       P1  7948  0.92
      L1  H    12    31       P1  7948  0.97
      L1  H    20    51       P1 10747  0.99
      P1  H  7989  7998       L1     4  0.02

> <Gold.Chemscore.Hbond.Weighted>
-9.8881

> <Gold.Chemscore.Metal.Weighted>
-0.0000

> <Gold.Chemscore.Lipo.Weighted>
-9.6901

> <Gold.Chemscore.Internal_Hbond.Weighted>
0.0000

> <Gold.Chemscore.DEClash.Weighted>
0.3599

> <Gold.Chemscore.DEInternal.Weighted>
1.6625

> <Gold.Chemscore.Rot.Weighted>
4.4066

> <Gold.Chemscore.Internal.Correction.Weighted>
   9.000000E+99

> <Gold.Protein.RotatedTorsions>
[ 6907 6896 6895 6894 ] final  108.94 input  -60.11 | X-H torsion
[ 7974 7965 7964 7962 ] final -109.83 input  175.53 | X-H torsion
[ 8008 7997 7996 7995 ] final  -95.23 input   59.86 | X-H torsion
[ 10167 10162 10161 10158 ] final   24.11 input  -65.29 | X-H torsion
[ 10718 10713 10712 10709 ] final    3.68 input   66.30 | X-H torsion
[ 10763 10752 10751 10750 ] final   77.39 input  -60.55 | X-H torsion
[ 11005 11000 10999 10996 ] final   64.56 input  -57.11 | X-H torsion

> <Gold.Protein.ActiveResidues>
 VAL166  LYS551  ARG553  GLY616  TRP617  ASP618  TYR619  PRO620  LYS621  CYS622 
 ASP623  PHE694  ASN695  SER759  ASP760  ASP761  ALA762  ILE779  LEU786  VAL792 
 PHE793  MET794  SER795  GLU796  ALA797  LYS798  CYS799  TRP800  GLU811  SER814 

> <Gold.Protein.RotatedAtoms>
  152.5090  133.9017  159.7443 H   0  0  0  0  0  0  0  0  0  0  0  0  # atno 6907 bound_to 6896
  150.9431  133.6625  159.2793 H   0  0  0  0  0  0  0  0  0  0  0  0  # atno 6908 bound_to 6896
  151.3930  135.0964  159.9585 H   0  0  0  0  0  0  0  0  0  0  0  0  # atno 6909 bound_to 6896
  145.1758  140.8947  143.3509 H   0  0  0  0  0  0  0  0  0  0  0  0  # atno 7974 bound_to 7965
  154.7586  140.0482  157.0954 H   0  0  0  0  0  0  0  0  0  0  0  0  # atno 8008 bound_to 7997
  154.9966  140.3119  155.4865 H   0  0  0  0  0  0  0  0  0  0  0  0  # atno 8009 bound_to 7997
  156.2899  140.2209  156.5074 H   0  0  0  0  0  0  0  0  0  0  0  0  # atno 8010 bound_to 7997
  140.5214  143.9996  150.6419 H   0  0  0  0  0  0  0  0  0  0  0  0  # atno 10167 bound_to 10162
  156.8815  130.5655  149.5653 H   0  0  0  0  0  0  0  0  0  0  0  0  # atno 10718 bound_to 10713
  153.0795  135.4916  154.8474 H   0  0  0  0  0  0  0  0  0  0  0  0  # atno 10763 bound_to 10752
  154.7132  135.3024  154.9166 H   0  0  0  0  0  0  0  0  0  0  0  0  # atno 10764 bound_to 10752
  153.9853  135.6785  153.4805 H   0  0  0  0  0  0  0  0  0  0  0  0  # atno 10765 bound_to 10752
  139.9951  134.6530  156.0024 H   0  0  0  0  0  0  0  0  0  0  0  0  # atno 11005 bound_to 11000
  145.0187  139.3444  143.6083 LP  0  0  0  0  0  0  0  0  0  0  0  0  # atno 17320 bound_to 7965
  146.3461  139.9478  142.8732 LP  0  0  0  0  0  0  0  0  0  0  0  0  # atno 17321 bound_to 7965
  140.3346  143.3057  152.0652 LP  0  0  0  0  0  0  0  0  0  0  0  0  # atno 17342 bound_to 10162
  139.4925  144.6485  151.6726 LP  0  0  0  0  0  0  0  0  0  0  0  0  # atno 17343 bound_to 10162
  156.0675  130.5715  150.9317 LP  0  0  0  0  0  0  0  0  0  0  0  0  # atno 17370 bound_to 10713
  157.6138  131.0934  150.8748 LP  0  0  0  0  0  0  0  0  0  0  0  0  # atno 17371 bound_to 10713
  141.1598  133.6540  156.4280 LP  0  0  0  0  0  0  0  0  0  0  0  0  # atno 17394 bound_to 11000
  140.4834  134.6644  157.5180 LP  0  0  0  0  0  0  0  0  0  0  0  0  # atno 17395 bound_to 11000

$$$$
