AV-unprocessed.smi:1389|AV-procd|sdf|5653|dock3
  -GOLD-   22720 5273D 1   1.00000     0.00000
 Structure written by MMmdl.
 53 55  0  0  0  0  0  0  0  0  3 V2000
  149.0879  136.4229  157.1914 C   0  0  0  0  0  0  0  0  0  0  0  0
  149.2558  136.8581  155.7191 C   0  0  1  0  0  0  0  0  0  0  0  0
  150.6869  137.4158  155.4952 C   0  0  0  0  0  0  0  0  0  0  0  0
  151.0281  138.5340  156.3750 N   0  0  0  0  0  0  0  0  0  0  0  0
  151.9854  138.5145  157.3139 C   0  0  0  0  0  0  0  0  0  0  0  0
  152.7354  137.5572  157.5011 O   0  0  0  0  0  0  0  0  0  0  0  0
  151.9990  139.6538  158.0265 N   0  0  0  0  0  0  0  0  0  0  0  0
  152.8172  139.9655  159.1501 C   0  0  0  0  0  0  0  0  0  0  0  0
  153.4375  138.9409  159.9107 C   0  0  0  0  0  0  0  0  0  0  0  0
  154.2215  139.2731  161.0315 C   0  0  0  0  0  0  0  0  0  0  0  0
  154.3785  140.6268  161.3739 C   0  0  0  0  0  0  0  0  0  0  0  0
  153.7933  141.5793  160.6190 N   0  3  0  0  0  0  0  0  0  0  0  0
  153.0391  141.3243  159.5205 C   0  0  0  0  0  0  0  0  0  0  0  0
  152.4989  142.4277  158.8213 N   0  0  0  0  0  0  0  0  0  0  0  0
  151.0544  142.5993  158.7163 C   0  0  0  0  0  0  0  0  0  0  0  0
  150.8609  144.0325  158.2287 C   0  0  0  0  0  0  0  0  0  0  0  0
  152.0036  144.7701  158.9197 C   0  0  0  0  0  0  0  0  0  0  0  0
  153.1329  143.7348  158.9607 C   0  0  0  0  0  0  0  0  0  0  0  0
  148.8902  135.7690  154.7549 N   0  3  0  0  0  0  0  0  0  0  0  0
  149.7564  134.5616  154.8570 C   0  0  0  0  0  0  0  0  0  0  0  0
  149.3384  133.4822  153.8444 C   0  0  0  0  0  0  0  0  0  0  0  0
  147.9741  133.1432  154.0385 O   0  0  0  0  0  0  0  0  0  0  0  0
  147.1276  134.2612  153.8216 C   0  0  0  0  0  0  0  0  0  0  0  0
  147.4590  135.3658  154.8387 C   0  0  0  0  0  0  0  0  0  0  0  0
  149.4856  137.1771  157.8711 H   0  0  0  0  0  0  0  0  0  0  0  0
  149.6092  135.4877  157.3967 H   0  0  0  0  0  0  0  0  0  0  0  0
  148.0407  136.2939  157.4641 H   0  0  0  0  0  0  0  0  0  0  0  0
  148.5627  137.6848  155.5549 H   0  0  0  0  0  0  0  0  0  0  0  0
  151.4251  136.6315  155.6604 H   0  0  0  0  0  0  0  0  0  0  0  0
  150.8231  137.6974  154.4496 H   0  0  0  0  0  0  0  0  0  0  0  0
  150.4543  139.3612  156.2995 H   0  0  0  0  0  0  0  0  0  0  0  0
  151.2600  140.3122  157.8287 H   0  0  0  0  0  0  0  0  0  0  0  0
  153.3256  137.8997  159.6478 H   0  0  0  0  0  0  0  0  0  0  0  0
  154.6929  138.4998  161.6205 H   0  0  0  0  0  0  0  0  0  0  0  0
  154.9570  140.9761  162.2172 H   0  0  0  0  0  0  0  0  0  0  0  0
  150.6149  141.8752  158.0297 H   0  0  0  0  0  0  0  0  0  0  0  0
  150.5833  142.4789  159.6927 H   0  0  0  0  0  0  0  0  0  0  0  0
  150.9874  144.0802  157.1462 H   0  0  0  0  0  0  0  0  0  0  0  0
  149.8788  144.4369  158.4749 H   0  0  0  0  0  0  0  0  0  0  0  0
  152.2891  145.6895  158.4076 H   0  0  0  0  0  0  0  0  0  0  0  0
  151.7067  145.0313  159.9365 H   0  0  0  0  0  0  0  0  0  0  0  0
  153.7122  143.8161  159.8814 H   0  0  0  0  0  0  0  0  0  0  0  0
  153.8079  143.8876  158.1181 H   0  0  0  0  0  0  0  0  0  0  0  0
  150.7978  134.8104  154.6592 H   0  0  0  0  0  0  0  0  0  0  0  0
  149.7056  134.1607  155.8705 H   0  0  0  0  0  0  0  0  0  0  0  0
  149.5012  133.8231  152.8207 H   0  0  0  0  0  0  0  0  0  0  0  0
  149.9454  132.5869  153.9805 H   0  0  0  0  0  0  0  0  0  0  0  0
  147.2362  134.6260  152.7988 H   0  0  0  0  0  0  0  0  0  0  0  0
  146.0908  133.9446  153.9371 H   0  0  0  0  0  0  0  0  0  0  0  0
  147.2363  135.0188  155.8490 H   0  0  0  0  0  0  0  0  0  0  0  0
  146.8027  136.2109  154.6381 H   0  0  0  0  0  0  0  0  0  0  0  0
  149.0326  136.1445  153.8283 H   0  0  0  0  0  0  0  0  0  0  0  0
  153.9340  142.5532  160.8880 H   0  0  0  0  0  0  0  0  0  0  0  0
  1  2  1  0  0  0  0
  1 25  1  0  0  0  0
  1 26  1  0  0  0  0
  1 27  1  0  0  0  0
  2  3  1  0  0  0  0
  2 19  1  0  0  0  0
  2 28  1  0  0  0  0
  3  4  1  0  0  0  0
  3 29  1  0  0  0  0
  3 30  1  0  0  0  0
  4  5  1  0  0  0  0
  4 31  1  0  0  0  0
  5  6  2  0  0  0  0
  5  7  1  0  0  0  0
  7  8  1  0  0  0  0
  7 32  1  0  0  0  0
  8 13  1  0  0  0  0
  8  9  2  0  0  0  0
  9 10  1  0  0  0  0
  9 33  1  0  0  0  0
 10 11  2  0  0  0  0
 10 34  1  0  0  0  0
 11 12  1  0  0  0  0
 11 35  1  0  0  0  0
 12 13  2  0  0  0  0
 12 53  1  0  0  0  0
 13 14  1  0  0  0  0
 14 18  1  0  0  0  0
 14 15  1  0  0  0  0
 15 16  1  0  0  0  0
 15 36  1  0  0  0  0
 15 37  1  0  0  0  0
 16 17  1  0  0  0  0
 16 38  1  0  0  0  0
 16 39  1  0  0  0  0
 17 18  1  0  0  0  0
 17 40  1  0  0  0  0
 17 41  1  0  0  0  0
 18 42  1  0  0  0  0
 18 43  1  0  0  0  0
 19 24  1  0  0  0  0
 19 20  1  0  0  0  0
 19 52  1  0  0  0  0
 20 21  1  0  0  0  0
 20 44  1  0  0  0  0
 20 45  1  0  0  0  0
 21 22  1  0  0  0  0
 21 46  1  0  0  0  0
 21 47  1  0  0  0  0
 22 23  1  0  0  0  0
 23 24  1  0  0  0  0
 23 48  1  0  0  0  0
 23 49  1  0  0  0  0
 24 50  1  0  0  0  0
 24 51  1  0  0  0  0
M  CHG  1  12   1
M  CHG  1  19   1
M  END
> <s_m_source_file>
AV-unprocessed.smi

> <i_m_source_file_index>
1389

> <i_lp_mmshare_version>
43012

> <i_f3d_flags>
0

> <s_epik_input>
W0NIMl0xW0NIMl1PW0NIMl1bQ0gyXU4xW0NASF0oW0NIM10pW0NIMl1bTkhdQyg9TylbTkhdYzJbY0hdW2NIXVtjSF1uYzJOM1tDSDJdW0NIMl1bQ0gyXVtDSDJdMw==

> <s_epik_cmdline>
J2VwaWtfcHl0aG9uJywgJy1waCcsICc3LjAnLCAnLXRuJywgJzgnLCAnLW1hJywgJzIwMCcsICctbWV0YWxfYmluZGluZycsICctaW1hZScsICc8aW5maWxlLm1hZT4nLCAnLW9tYWUnLCAnPG91dGZpbGUubWFlPic=

> <r_lp_tautomer_probability>
0.999994

> <r_epik_Ionization_Penalty>
1.80872

> <r_epik_Ionization_Penalty_Charging>
1.8087

> <r_epik_Ionization_Penalty_Neutral>
2.02981e-05

> <r_epik_State_Penalty>
1.84892

> <r_epik_Charging_Adjusted_Penalty>
3.65762

> <i_epik_Tot_Q>
2

> <i_epik_Tot_abs_Q>
2

> <r_epik_Metal_State_Penalty>
1.9311

> <b_epik_Metal_Only>
0

> <s_lp_Force_Field>
OPLS_2005

> <r_lp_Energy>
68.1678

> <b_lp_Chiralities_Consistent>
1

> <s_lp_Variant>
AV-unprocessed.smi:1389-8

> <Gold.Version>
5.8.1

> <Gold.Id.Protein>
6NUR|6NUR_protein|mol2

> <Gold.PLP.Fitness>
41.4941

> <Gold.PLP.PLP>
-35.9353

> <Gold.PLP.part.hbond>
-1.0000

> <Gold.PLP.part.metal>
0.0000

> <Gold.PLP.part.buried>
-6.2474

> <Gold.PLP.part.nonpolar>
-29.0171

> <Gold.PLP.part.repulsive>
0.2518

> <Gold.PLP.ligand.clash>
0.0000

> <Gold.PLP.ligand.torsion>
0.4474

> <Gold.PLP.Chemscore.Hbond>
2.0000

> <Gold.PLP.Chemscore.CHOScore>
0.0000

> <Gold.PLP.Chemscore.Metal>
0.0000

> <Gold.Chemscore.Hbonds>
donor molecule, donor type, donor heavy atom, donor atom, acceptor molecule, acceptor atom, score
      L1  H    19    52       P1  7948  2.00

> <Gold.PLP.Chemscore.Internal.Correction>
0.4536

> <Gold.Rescore>
     Score         DG    S(hbond)    S(metal)    S(lipo)     H(rot)  DE(clash)    DE(int)     intcor
     14.94     -16.81       0.96        0.00     105.90       1.66       0.08       1.79       ----

> <Gold.Chemscore.Fitness>
14.9365

> <Gold.Chemscore.DG>
-16.8138

> <Gold.Chemscore.ZeroCoef>
-5.4800

> <Gold.Chemscore.Hbond>
0.9576

> <Gold.Chemscore.Metal>
0.0000

> <Gold.Chemscore.Lipo>
105.8977

> <Gold.Chemscore.Internal_Hbond>
0.0000

> <Gold.Chemscore.DEClash>
0.0848

> <Gold.Chemscore.DEInternal>
1.7925

> <Gold.Chemscore.Rot>
1.6620

> <Gold.Chemscore.Internal.Correction>
   9.000000E+99

> <Gold.Chemscore.Hbonds>
donor molecule, donor type, donor heavy atom, donor atom, acceptor molecule, acceptor atom, score
      L1  H    19    52       P1  7948  0.95

> <Gold.Chemscore.Hbond.Weighted>
-3.1984

> <Gold.Chemscore.Metal.Weighted>
-0.0000

> <Gold.Chemscore.Lipo.Weighted>
-12.3900

> <Gold.Chemscore.Internal_Hbond.Weighted>
0.0000

> <Gold.Chemscore.DEClash.Weighted>
0.0848

> <Gold.Chemscore.DEInternal.Weighted>
1.7925

> <Gold.Chemscore.Rot.Weighted>
4.2547

> <Gold.Chemscore.Internal.Correction.Weighted>
   9.000000E+99

> <Gold.Protein.RotatedTorsions>
[ 6907 6896 6895 6894 ] final -105.84 input  -60.11 | X-H torsion
[ 7974 7965 7964 7962 ] final  131.61 input  175.53 | X-H torsion
[ 8008 7997 7996 7995 ] final  -85.13 input   59.86 | X-H torsion
[ 10167 10162 10161 10158 ] final  -82.86 input  -65.29 | X-H torsion
[ 10718 10713 10712 10709 ] final   13.90 input   66.30 | X-H torsion
[ 10763 10752 10751 10750 ] final  -39.59 input  -60.55 | X-H torsion
[ 11005 11000 10999 10996 ] final   31.76 input  -57.11 | X-H torsion

> <Gold.Protein.ActiveResidues>
 VAL166  LYS551  ARG553  GLY616  TRP617  ASP618  TYR619  PRO620  LYS621  CYS622 
 ASP623  PHE694  ASN695  SER759  ASP760  ASP761  ALA762  ILE779  LEU786  VAL792 
 PHE793  MET794  SER795  GLU796  ALA797  LYS798  CYS799  TRP800  GLU811  SER814 

> <Gold.Protein.RotatedAtoms>
  150.7357  134.0066  159.3655 H   0  0  0  0  0  0  0  0  0  0  0  0  # atno 6907 bound_to 6896
  151.8024  135.0703  160.0411 H   0  0  0  0  0  0  0  0  0  0  0  0  # atno 6908 bound_to 6896
  152.3131  133.5738  159.5730 H   0  0  0  0  0  0  0  0  0  0  0  0  # atno 6909 bound_to 6896
  145.0055  139.4270  143.5271 H   0  0  0  0  0  0  0  0  0  0  0  0  # atno 7974 bound_to 7965
  154.6373  140.0595  156.9804 H   0  0  0  0  0  0  0  0  0  0  0  0  # atno 8008 bound_to 7997
  155.1571  140.3279  155.4400 H   0  0  0  0  0  0  0  0  0  0  0  0  # atno 8009 bound_to 7997
  156.2513  140.1937  156.6680 H   0  0  0  0  0  0  0  0  0  0  0  0  # atno 8010 bound_to 7997
  140.4280  143.2559  151.8799 H   0  0  0  0  0  0  0  0  0  0  0  0  # atno 10167 bound_to 10162
  157.0313  130.6194  149.5736 H   0  0  0  0  0  0  0  0  0  0  0  0  # atno 10718 bound_to 10713
  153.9320  135.6771  153.4745 H   0  0  0  0  0  0  0  0  0  0  0  0  # atno 10763 bound_to 10752
  153.0975  135.4844  154.8803 H   0  0  0  0  0  0  0  0  0  0  0  0  # atno 10764 bound_to 10752
  154.7423  135.3164  154.8664 H   0  0  0  0  0  0  0  0  0  0  0  0  # atno 10765 bound_to 10752
  140.2805  134.2978  155.7802 H   0  0  0  0  0  0  0  0  0  0  0  0  # atno 11005 bound_to 11000
  146.3460  139.9469  142.8734 LP  0  0  0  0  0  0  0  0  0  0  0  0  # atno 17320 bound_to 7965
  145.2094  140.9889  143.4109 LP  0  0  0  0  0  0  0  0  0  0  0  0  # atno 17321 bound_to 7965
  139.4784  144.5366  151.8590 LP  0  0  0  0  0  0  0  0  0  0  0  0  # atno 17342 bound_to 10162
  140.4459  144.1922  150.5894 LP  0  0  0  0  0  0  0  0  0  0  0  0  # atno 17343 bound_to 10162
  156.0069  130.5156  150.7858 LP  0  0  0  0  0  0  0  0  0  0  0  0  # atno 17370 bound_to 10713
  157.5175  131.0929  151.0120 LP  0  0  0  0  0  0  0  0  0  0  0  0  # atno 17371 bound_to 10713
  141.2163  133.7522  156.9473 LP  0  0  0  0  0  0  0  0  0  0  0  0  # atno 17394 bound_to 11000
  140.1288  134.9370  157.2307 LP  0  0  0  0  0  0  0  0  0  0  0  0  # atno 17395 bound_to 11000

$$$$
