AV-unprocessed.smi:2685|AV-procd|sdf|10383|dock4
  -GOLD-   2272014413D 1   1.00000     0.00000
 Structure written by MMmdl.
 21 21  0  0  0  0  0  0  0  0  3 V2000
  149.0632  139.5707  155.5270 C   0  0  0  0  0  0  0  0  0  0  0  0
  150.5131  139.3346  155.9099 C   0  0  0  0  0  0  0  0  0  0  0  0
  151.4352  139.4852  155.0288 N   0  0  0  0  0  0  0  0  0  0  0  0
  152.7934  139.2670  155.3295 C   0  0  0  0  0  0  0  0  0  0  0  0
  153.6343  139.4325  154.4483 O   0  0  0  0  0  0  0  0  0  0  0  0
  153.1306  138.8757  156.5993 N   0  5  0  0  0  0  0  0  0  0  0  0
  152.1806  138.7037  157.5523 C   0  0  0  0  0  0  0  0  0  0  0  0
  152.6714  138.2587  158.9222 C   0  0  0  0  0  0  0  0  0  0  0  0
  150.8342  138.9296  157.3058 C   0  0  0  0  0  0  0  0  0  0  0  0
  149.7165  138.7591  158.3383 C   0  0  0  0  0  0  0  0  0  0  0  0
  149.7013  137.4084  159.0654 C   0  0  0  0  0  0  0  0  0  0  0  0
  150.4044  136.5017  158.5680 O   0  0  0  0  0  0  0  0  0  0  0  0
  148.9925  137.2897  160.0898 O   0  5  0  0  0  0  0  0  0  0  0  0
  148.4528  138.7034  155.7788 H   0  0  0  0  0  0  0  0  0  0  0  0
  148.9691  139.7453  154.4546 H   0  0  0  0  0  0  0  0  0  0  0  0
  148.6700  140.4445  156.0464 H   0  0  0  0  0  0  0  0  0  0  0  0
  152.5272  139.0480  159.6597 H   0  0  0  0  0  0  0  0  0  0  0  0
  153.7326  138.0069  158.9123 H   0  0  0  0  0  0  0  0  0  0  0  0
  152.1309  137.3749  159.2614 H   0  0  0  0  0  0  0  0  0  0  0  0
  149.8029  139.5410  159.0921 H   0  0  0  0  0  0  0  0  0  0  0  0
  148.7434  138.9251  157.8768 H   0  0  0  0  0  0  0  0  0  0  0  0
  1  2  1  0  0  0  0
  1 14  1  0  0  0  0
  1 15  1  0  0  0  0
  1 16  1  0  0  0  0
  2  9  1  0  0  0  0
  2  3  2  0  0  0  0
  3  4  1  0  0  0  0
  4  5  2  0  0  0  0
  4  6  1  0  0  0  0
  6  7  1  0  0  0  0
  7  8  1  0  0  0  0
  7  9  2  0  0  0  0
  8 17  1  0  0  0  0
  8 18  1  0  0  0  0
  8 19  1  0  0  0  0
  9 10  1  0  0  0  0
 10 11  1  0  0  0  0
 10 20  1  0  0  0  0
 10 21  1  0  0  0  0
 11 12  2  0  0  0  0
 11 13  1  0  0  0  0
M  CHG  1   6  -1
M  CHG  1  13  -1
M  END
> <s_m_source_file>
AV-unprocessed.smi

> <i_m_source_file_index>
2685

> <i_lp_mmshare_version>
43012

> <i_f3d_flags>
0

> <s_epik_input>
W0NIM11jMW5jKD1PKVtuSF1jKFtDSDNdKWMxW0NIMl1DKD1PKVtPSF0=

> <s_epik_cmdline>
J2VwaWtfcHl0aG9uJywgJy1waCcsICc3LjAnLCAnLXRuJywgJzgnLCAnLW1hJywgJzIwMCcsICctbWV0YWxfYmluZGluZycsICctaW1hZScsICc8aW5maWxlLm1hZT4nLCAnLW9tYWUnLCAnPG91dGZpbGUubWFlPic=

> <r_lp_tautomer_probability>
1

> <r_epik_Ionization_Penalty>
5.93788

> <r_epik_Ionization_Penalty_Charging>
0.439901

> <r_epik_Ionization_Penalty_Neutral>
5.49798

> <r_epik_State_Penalty>
5.49792

> <r_epik_Charging_Adjusted_Penalty>
5.93782

> <i_epik_Tot_Q>
-2

> <i_epik_Tot_abs_Q>
2

> <r_epik_Metal_State_Penalty>
1.50795

> <b_epik_Metal_Only>
1

> <s_lp_Force_Field>
OPLS_2005

> <r_lp_Energy>
12.6786

> <b_lp_Chiralities_Consistent>
1

> <s_lp_Variant>
AV-unprocessed.smi:2685-2

> <Gold.Version>
5.8.1

> <Gold.Id.Protein>
6NUR|6NUR_protein|mol2

> <Gold.PLP.Fitness>
32.3569

> <Gold.PLP.PLP>
-15.2407

> <Gold.PLP.part.hbond>
-6.3029

> <Gold.PLP.part.metal>
0.0000

> <Gold.PLP.part.buried>
-0.9108

> <Gold.PLP.part.nonpolar>
-8.7589

> <Gold.PLP.part.repulsive>
0.0662

> <Gold.PLP.ligand.clash>
0.0000

> <Gold.PLP.ligand.torsion>
0.2200

> <Gold.PLP.Chemscore.Hbond>
5.8517

> <Gold.PLP.Chemscore.CHOScore>
0.0000

> <Gold.PLP.Chemscore.Metal>
0.0000

> <Gold.Chemscore.Hbonds>
donor molecule, donor type, donor heavy atom, donor atom, acceptor molecule, acceptor atom, score
      P1  H  6896  6907       L1    12  2.00
      P1  H  6931  6943       L1    13  0.90
      P1  H  7989  7998       L1     3  0.86
      P1  H  7997  8009       L1     6  1.44
      P1  H  7997  8010       L1     5  0.62

> <Gold.PLP.Chemscore.Internal.Correction>
0.0014

> <Gold.Rescore>
     Score         DG    S(hbond)    S(metal)    S(lipo)     H(rot)  DE(clash)    DE(int)     intcor
      9.02     -12.03       2.29        0.00      23.37       1.50       0.91       2.09       ----

> <Gold.Chemscore.Fitness>
9.0204

> <Gold.Chemscore.DG>
-12.0260

> <Gold.Chemscore.ZeroCoef>
-5.4800

> <Gold.Chemscore.Hbond>
2.2889

> <Gold.Chemscore.Metal>
0.0000

> <Gold.Chemscore.Lipo>
23.3659

> <Gold.Chemscore.Internal_Hbond>
0.0000

> <Gold.Chemscore.DEClash>
0.9120

> <Gold.Chemscore.DEInternal>
2.0935

> <Gold.Chemscore.Rot>
1.4972

> <Gold.Chemscore.Internal.Correction>
   9.000000E+99

> <Gold.Chemscore.Hbonds>
donor molecule, donor type, donor heavy atom, donor atom, acceptor molecule, acceptor atom, score
      P1  H  6896  6907       L1    12  0.88
      P1  H  6931  6943       L1    13  0.43
      P1  H  7989  7998       L1     3  0.19
      P1  H  7997  8009       L1     6  0.21
      P1  H  7997  8010       L1     5  0.24

> <Gold.Chemscore.Hbond.Weighted>
-7.6451

> <Gold.Chemscore.Metal.Weighted>
-0.0000

> <Gold.Chemscore.Lipo.Weighted>
-2.7338

> <Gold.Chemscore.Internal_Hbond.Weighted>
0.0000

> <Gold.Chemscore.DEClash.Weighted>
0.9120

> <Gold.Chemscore.DEInternal.Weighted>
2.0935

> <Gold.Chemscore.Rot.Weighted>
3.8329

> <Gold.Chemscore.Internal.Correction.Weighted>
   9.000000E+99

> <Gold.Protein.RotatedTorsions>
[ 6907 6896 6895 6894 ] final  -43.35 input  -60.11 | X-H torsion
[ 7974 7965 7964 7962 ] final -148.30 input  175.53 | X-H torsion
[ 8008 7997 7996 7995 ] final  156.74 input   59.86 | X-H torsion
[ 10167 10162 10161 10158 ] final -101.13 input  -65.29 | X-H torsion
[ 10718 10713 10712 10709 ] final  106.53 input   66.30 | X-H torsion
[ 10763 10752 10751 10750 ] final  -84.23 input  -60.55 | X-H torsion
[ 11005 11000 10999 10996 ] final  148.05 input  -57.11 | X-H torsion

> <Gold.Protein.ActiveResidues>
 VAL166  LYS551  ARG553  GLY616  TRP617  ASP618  TYR619  PRO620  LYS621  CYS622 
 ASP623  PHE694  ASN695  SER759  ASP760  ASP761  ALA762  ILE779  LEU786  VAL792 
 PHE793  MET794  SER795  GLU796  ALA797  LYS798  CYS799  TRP800  GLU811  SER814 

> <Gold.Protein.RotatedAtoms>
  150.9449  134.8855  159.7635 H   0  0  0  0  0  0  0  0  0  0  0  0  # atno 6907 bound_to 6896
  152.5096  134.3888  159.9387 H   0  0  0  0  0  0  0  0  0  0  0  0  # atno 6908 bound_to 6896
  151.3907  133.3749  159.2755 H   0  0  0  0  0  0  0  0  0  0  0  0  # atno 6909 bound_to 6896
  144.8038  140.5215  143.5689 H   0  0  0  0  0  0  0  0  0  0  0  0  # atno 7974 bound_to 7965
  156.2405  140.1904  156.7002 H   0  0  0  0  0  0  0  0  0  0  0  0  # atno 8008 bound_to 7997
  154.6187  140.0611  156.9614 H   0  0  0  0  0  0  0  0  0  0  0  0  # atno 8009 bound_to 7997
  155.1896  140.3283  155.4363 H   0  0  0  0  0  0  0  0  0  0  0  0  # atno 8010 bound_to 7997
  140.2445  143.3515  152.0771 H   0  0  0  0  0  0  0  0  0  0  0  0  # atno 10167 bound_to 10162
  157.6664  131.0853  150.6020 H   0  0  0  0  0  0  0  0  0  0  0  0  # atno 10718 bound_to 10713
  154.5971  135.5528  153.7336 H   0  0  0  0  0  0  0  0  0  0  0  0  # atno 10763 bound_to 10752
  153.0139  135.6357  154.1767 H   0  0  0  0  0  0  0  0  0  0  0  0  # atno 10764 bound_to 10752
  154.1708  135.2892  155.3061 H   0  0  0  0  0  0  0  0  0  0  0  0  # atno 10765 bound_to 10752
  140.0927  134.9031  157.1676 H   0  0  0  0  0  0  0  0  0  0  0  0  # atno 11005 bound_to 11000
  145.5487  139.1476  143.3406 LP  0  0  0  0  0  0  0  0  0  0  0  0  # atno 17320 bound_to 7965
  146.2325  140.5626  142.8969 LP  0  0  0  0  0  0  0  0  0  0  0  0  # atno 17321 bound_to 7965
  139.5066  144.6817  151.5992 LP  0  0  0  0  0  0  0  0  0  0  0  0  # atno 17342 bound_to 10162
  140.6088  143.9475  150.6438 LP  0  0  0  0  0  0  0  0  0  0  0  0  # atno 17343 bound_to 10162
  156.6321  130.4435  149.5783 LP  0  0  0  0  0  0  0  0  0  0  0  0  # atno 17370 bound_to 10713
  156.2274  130.6774  151.1429 LP  0  0  0  0  0  0  0  0  0  0  0  0  # atno 17371 bound_to 10713
  140.3329  134.2789  155.7225 LP  0  0  0  0  0  0  0  0  0  0  0  0  # atno 17394 bound_to 11000
  141.2083  133.7782  157.0069 LP  0  0  0  0  0  0  0  0  0  0  0  0  # atno 17395 bound_to 11000

$$$$
