AV-unprocessed.smi:2352|AV-procd|sdf|9378|dock8
  -GOLD-   2272013 03D 1   1.00000     0.00000
 Structure written by MMmdl.
 37 38  0  0  0  0  0  0  0  0  1 V2000
  154.7449  132.9395  161.9231 C   0  0  0  0  0  0  0  0  0  0  0  0
  154.6936  134.4325  162.1959 C   0  0  0  0  0  0  0  0  0  0  0  0
  154.5091  135.2450  161.0735 N   0  0  0  0  0  0  0  0  0  0  0  0
  154.4560  136.5296  161.2092 C   0  0  0  0  0  0  0  0  0  0  0  0
  154.5808  137.1447  162.4657 N   0  0  0  0  0  0  0  0  0  0  0  0
  154.5043  138.6155  162.4828 C   0  0  0  0  0  0  0  0  0  0  0  0
  155.0709  139.2476  161.1920 C   0  0  2  0  0  0  0  0  0  0  0  0
  156.4063  139.6470  161.4315 O   0  0  0  0  0  0  0  0  0  0  0  0
  154.2146  140.4209  160.7389 C   0  0  0  0  0  0  0  0  0  0  0  0
  153.6931  140.4718  159.4278 C   0  0  0  0  0  0  0  0  0  0  0  0
  152.9066  141.5656  159.0171 C   0  0  0  0  0  0  0  0  0  0  0  0
  152.6306  142.6223  159.9117 C   0  0  0  0  0  0  0  0  0  0  0  0
  151.7883  143.8104  159.4701 C   0  0  0  0  0  0  0  0  0  0  0  0
  152.3430  144.4159  158.4196 F   0  0  0  0  0  0  0  0  0  0  0  0
  150.5735  143.3833  159.1275 F   0  0  0  0  0  0  0  0  0  0  0  0
  151.6671  144.7060  160.4507 F   0  0  0  0  0  0  0  0  0  0  0  0
  153.1634  142.5762  161.2179 C   0  0  0  0  0  0  0  0  0  0  0  0
  153.9499  141.4827  161.6291 C   0  0  0  0  0  0  0  0  0  0  0  0
  154.7532  136.4259  163.6128 C   0  0  0  0  0  0  0  0  0  0  0  0
  154.8463  136.9754  164.7123 O   0  0  0  0  0  0  0  0  0  0  0  0
  154.8163  134.9654  163.4423 C   0  0  0  0  0  0  0  0  0  0  0  0
  155.0187  134.1307  164.7007 C   0  0  0  0  0  0  0  0  0  0  0  0
  155.7004  132.5247  162.2449 H   0  0  0  0  0  0  0  0  0  0  0  0
  154.6293  132.7256  160.8598 H   0  0  0  0  0  0  0  0  0  0  0  0
  153.9440  132.4258  162.4555 H   0  0  0  0  0  0  0  0  0  0  0  0
  154.3087  137.2074  160.3664 H   0  0  0  0  0  0  0  0  0  0  0  0
  153.4536  138.8941  162.5861 H   0  0  0  0  0  0  0  0  0  0  0  0
  154.9838  139.0477  163.3640 H   0  0  0  0  0  0  0  0  0  0  0  0
  155.0885  138.5113  160.3873 H   0  0  0  0  0  0  0  0  0  0  0  0
  156.9803  138.9437  161.1683 H   0  0  0  0  0  0  0  0  0  0  0  0
  153.8970  139.6729  158.7298 H   0  0  0  0  0  0  0  0  0  0  0  0
  152.5192  141.5892  158.0092 H   0  0  0  0  0  0  0  0  0  0  0  0
  152.9729  143.3828  161.9105 H   0  0  0  0  0  0  0  0  0  0  0  0
  154.3519  141.4645  162.6317 H   0  0  0  0  0  0  0  0  0  0  0  0
  154.1964  134.2959  165.3976 H   0  0  0  0  0  0  0  0  0  0  0  0
  155.9463  134.4176  165.1974 H   0  0  0  0  0  0  0  0  0  0  0  0
  155.0710  133.0614  164.5028 H   0  0  0  0  0  0  0  0  0  0  0  0
  1  2  1  0  0  0  0
  1 23  1  0  0  0  0
  1 24  1  0  0  0  0
  1 25  1  0  0  0  0
  2 21  2  0  0  0  0
  2  3  1  0  0  0  0
  3  4  2  0  0  0  0
  4  5  1  0  0  0  0
  4 26  1  0  0  0  0
  5  6  1  0  0  0  0
  5 19  1  0  0  0  0
  6  7  1  0  0  0  0
  6 27  1  0  0  0  0
  6 28  1  0  0  0  0
  7  8  1  0  0  0  0
  7  9  1  0  0  0  0
  7 29  1  0  0  0  0
  8 30  1  0  0  0  0
  9 18  1  0  0  0  0
  9 10  2  0  0  0  0
 10 11  1  0  0  0  0
 10 31  1  0  0  0  0
 11 12  2  0  0  0  0
 11 32  1  0  0  0  0
 12 13  1  0  0  0  0
 12 17  1  0  0  0  0
 13 14  1  0  0  0  0
 13 15  1  0  0  0  0
 13 16  1  0  0  0  0
 17 18  2  0  0  0  0
 17 33  1  0  0  0  0
 18 34  1  0  0  0  0
 19 20  2  0  0  0  0
 19 21  1  0  0  0  0
 21 22  1  0  0  0  0
 22 35  1  0  0  0  0
 22 36  1  0  0  0  0
 22 37  1  0  0  0  0
M  END
> <s_m_source_file>
AV-unprocessed.smi

> <i_m_source_file_index>
2352

> <i_lp_mmshare_version>
43012

> <i_f3d_flags>
0

> <s_epik_input>
W0NIM11jMW5bY0hdbihjKD1PKWMxW0NIM10pW0NIMl1bQ0BIXShbT0hdKWMyW2NIXVtjSF1jKEMoRikoRilGKVtjSF1bY0hdMg==

> <s_epik_cmdline>
J2VwaWtfcHl0aG9uJywgJy1waCcsICc3LjAnLCAnLXRuJywgJzgnLCAnLW1hJywgJzIwMCcsICctbWV0YWxfYmluZGluZycsICctaW1hZScsICc8aW5maWxlLm1hZT4nLCAnLW9tYWUnLCAnPG91dGZpbGUubWFlPic=

> <r_lp_tautomer_probability>
1

> <r_epik_Ionization_Penalty>
5.07001e-05

> <r_epik_Ionization_Penalty_Charging>
7.56727e-08

> <r_epik_Ionization_Penalty_Neutral>
5.06244e-05

> <r_epik_State_Penalty>
-0

> <r_epik_Charging_Adjusted_Penalty>
7.56727e-08

> <i_epik_Tot_Q>
0

> <i_epik_Tot_abs_Q>
0

> <r_epik_Metal_State_Penalty>
-0

> <b_epik_Metal_Only>
0

> <s_lp_Force_Field>
OPLS_2005

> <r_lp_Energy>
21.4473

> <b_lp_Chiralities_Consistent>
1

> <s_lp_Variant>
AV-unprocessed.smi:2352-1

> <Gold.Version>
5.8.1

> <Gold.Id.Protein>
6NUR|6NUR_protein|mol2

> <Gold.PLP.Fitness>
48.3112

> <Gold.PLP.PLP>
-49.0860

> <Gold.PLP.part.hbond>
-0.4868

> <Gold.PLP.part.metal>
0.0000

> <Gold.PLP.part.buried>
-5.3351

> <Gold.PLP.part.nonpolar>
-44.0047

> <Gold.PLP.part.repulsive>
0.0904

> <Gold.PLP.ligand.clash>
1.3152

> <Gold.PLP.ligand.torsion>
0.9960

> <Gold.PLP.Chemscore.Hbond>
0.5038

> <Gold.PLP.Chemscore.CHOScore>
0.0000

> <Gold.PLP.Chemscore.Metal>
0.0000

> <Gold.Chemscore.Hbonds>
donor molecule, donor type, donor heavy atom, donor atom, acceptor molecule, acceptor atom, score
      P1  H  6896  6907       L1     3  0.16

> <Gold.PLP.Chemscore.Internal.Correction>
1.0211

> <Gold.Rescore>
     Score         DG    S(hbond)    S(metal)    S(lipo)     H(rot)  DE(clash)    DE(int)     intcor
     13.81     -14.61       0.84        0.00     100.79       2.13       0.04       0.77       ----

> <Gold.Chemscore.Fitness>
13.8099

> <Gold.Chemscore.DG>
-14.6147

> <Gold.Chemscore.ZeroCoef>
-5.4800

> <Gold.Chemscore.Hbond>
0.8404

> <Gold.Chemscore.Metal>
0.0000

> <Gold.Chemscore.Lipo>
100.7928

> <Gold.Chemscore.Internal_Hbond>
0.0000

> <Gold.Chemscore.DEClash>
0.0367

> <Gold.Chemscore.DEInternal>
0.7682

> <Gold.Chemscore.Rot>
2.1347

> <Gold.Chemscore.Internal.Correction>
   9.000000E+99

> <Gold.Chemscore.Hbonds>
donor molecule, donor type, donor heavy atom, donor atom, acceptor molecule, acceptor atom, score
      P1  H  6896  6907       L1     3  0.06

> <Gold.Chemscore.Hbond.Weighted>
-2.8069

> <Gold.Chemscore.Metal.Weighted>
-0.0000

> <Gold.Chemscore.Lipo.Weighted>
-11.7928

> <Gold.Chemscore.Internal_Hbond.Weighted>
0.0000

> <Gold.Chemscore.DEClash.Weighted>
0.0367

> <Gold.Chemscore.DEInternal.Weighted>
0.7682

> <Gold.Chemscore.Rot.Weighted>
5.4649

> <Gold.Chemscore.Internal.Correction.Weighted>
   9.000000E+99

> <Gold.Protein.RotatedTorsions>
[ 6907 6896 6895 6894 ] final   63.96 input  -60.11 | X-H torsion
[ 7974 7965 7964 7962 ] final   77.16 input  175.53 | X-H torsion
[ 8008 7997 7996 7995 ] final   11.49 input   59.86 | X-H torsion
[ 10167 10162 10161 10158 ] final  -93.34 input  -65.29 | X-H torsion
[ 10718 10713 10712 10709 ] final  -36.46 input   66.30 | X-H torsion
[ 10763 10752 10751 10750 ] final   94.82 input  -60.55 | X-H torsion
[ 11005 11000 10999 10996 ] final   62.17 input  -57.11 | X-H torsion

> <Gold.Protein.ActiveResidues>
 VAL166  LYS551  ARG553  GLY616  TRP617  ASP618  TYR619  PRO620  LYS621  CYS622 
 ASP623  PHE694  ASN695  SER759  ASP760  ASP761  ALA762  ILE779  LEU786  VAL792 
 PHE793  MET794  SER795  GLU796  ALA797  LYS798  CYS799  TRP800  GLU811  SER814 

> <Gold.Protein.RotatedAtoms>
  152.4294  134.5806  159.9946 H   0  0  0  0  0  0  0  0  0  0  0  0  # atno 6907 bound_to 6896
  151.5933  133.3358  159.3040 H   0  0  0  0  0  0  0  0  0  0  0  0  # atno 6908 bound_to 6896
  150.8186  134.7418  159.6817 H   0  0  0  0  0  0  0  0  0  0  0  0  # atno 6909 bound_to 6896
  145.6936  139.2560  143.1746 H   0  0  0  0  0  0  0  0  0  0  0  0  # atno 7974 bound_to 7965
  154.8076  140.2862  155.5876 H   0  0  0  0  0  0  0  0  0  0  0  0  # atno 8008 bound_to 7997
  156.2984  140.2574  156.2888 H   0  0  0  0  0  0  0  0  0  0  0  0  # atno 8009 bound_to 7997
  154.9484  140.0380  157.2121 H   0  0  0  0  0  0  0  0  0  0  0  0  # atno 8010 bound_to 7997
  140.3256  143.3024  151.9998 H   0  0  0  0  0  0  0  0  0  0  0  0  # atno 10167 bound_to 10162
  156.3266  130.4273  149.7911 H   0  0  0  0  0  0  0  0  0  0  0  0  # atno 10718 bound_to 10713
  153.2461  135.4276  155.0749 H   0  0  0  0  0  0  0  0  0  0  0  0  # atno 10763 bound_to 10752
  154.8362  135.3414  154.6580 H   0  0  0  0  0  0  0  0  0  0  0  0  # atno 10764 bound_to 10752
  153.7002  135.7029  153.5122 H   0  0  0  0  0  0  0  0  0  0  0  0  # atno 10765 bound_to 10752
  140.0110  134.6295  155.9780 H   0  0  0  0  0  0  0  0  0  0  0  0  # atno 11005 bound_to 11000
  146.0860  140.7710  142.9618 LP  0  0  0  0  0  0  0  0  0  0  0  0  # atno 17320 bound_to 7965
  144.6989  140.3563  143.7172 LP  0  0  0  0  0  0  0  0  0  0  0  0  # atno 17321 bound_to 7965
  139.4866  144.6276  151.7134 LP  0  0  0  0  0  0  0  0  0  0  0  0  # atno 17342 bound_to 10162
  140.5444  144.0528  150.6101 LP  0  0  0  0  0  0  0  0  0  0  0  0  # atno 17343 bound_to 10162
  156.5199  130.8210  151.3200 LP  0  0  0  0  0  0  0  0  0  0  0  0  # atno 17370 bound_to 10713
  157.7422  130.9886  150.2502 LP  0  0  0  0  0  0  0  0  0  0  0  0  # atno 17371 bound_to 10713
  141.1711  133.6537  156.4655 LP  0  0  0  0  0  0  0  0  0  0  0  0  # atno 17394 bound_to 11000
  140.4554  134.6890  157.5060 LP  0  0  0  0  0  0  0  0  0  0  0  0  # atno 17395 bound_to 11000

$$$$
