AV-unprocessed.smi:338|AV-procd|sdf|2374|dock9
  -GOLD-   2262022293D 1   1.00000     0.00000
 Structure written by MMmdl.
 41 43  0  0  0  0  0  0  0  0  1 V2000
  148.1626  135.4922  155.1570 C   0  0  0  0  0  0  0  0  0  0  0  0
  147.0684  136.5486  155.0111 C   0  0  0  0  0  0  0  0  0  0  0  0
  145.8946  136.2042  155.1471 O   0  0  0  0  0  0  0  0  0  0  0  0
  147.4868  137.9483  154.7110 C   0  0  0  0  0  0  0  0  0  0  0  0
  146.5400  138.9608  154.4304 C   0  0  0  0  0  0  0  0  0  0  0  0
  146.9649  140.2721  154.1498 C   0  0  0  0  0  0  0  0  0  0  0  0
  148.3358  140.5853  154.1475 C   0  0  0  0  0  0  0  0  0  0  0  0
  149.2993  139.5961  154.4257 C   0  0  0  0  0  0  0  0  0  0  0  0
  150.6207  139.9892  154.4037 O   0  0  0  0  0  0  0  0  0  0  0  0
  151.6011  139.0903  154.9060 C   0  0  0  0  0  0  0  0  0  0  0  0
  152.2555  139.7056  156.1516 C   0  0  2  0  0  0  0  0  0  0  0  0
  153.2795  138.8360  156.5928 O   0  0  0  0  0  0  0  0  0  0  0  0
  151.2463  139.9444  157.2916 C   0  0  0  0  0  0  0  0  0  0  0  0
  151.7798  140.8015  158.3352 N   0  0  0  0  0  0  0  0  0  0  0  0
  152.3966  140.4102  159.4669 C   0  0  0  0  0  0  0  0  0  0  0  0
  152.8137  141.3638  160.2947 N   0  0  0  0  0  0  0  0  0  0  0  0
  152.4236  142.5088  159.6214 C   0  0  0  0  0  0  0  0  0  0  0  0
  152.5732  143.8714  159.9654 C   0  0  0  0  0  0  0  0  0  0  0  0
  152.0863  144.8820  159.1102 C   0  0  0  0  0  0  0  0  0  0  0  0
  151.4423  144.5469  157.9013 C   0  0  0  0  0  0  0  0  0  0  0  0
  151.2820  143.1963  157.5368 C   0  0  0  0  0  0  0  0  0  0  0  0
  151.7716  142.1911  158.3915 C   0  0  0  0  0  0  0  0  0  0  0  0
  148.8632  138.2762  154.7066 C   0  0  0  0  0  0  0  0  0  0  0  0
  148.8392  135.7522  155.9711 H   0  0  0  0  0  0  0  0  0  0  0  0
  148.7376  135.4071  154.2349 H   0  0  0  0  0  0  0  0  0  0  0  0
  147.7256  134.5177  155.3766 H   0  0  0  0  0  0  0  0  0  0  0  0
  145.4801  138.7549  154.4244 H   0  0  0  0  0  0  0  0  0  0  0  0
  146.2364  141.0404  153.9361 H   0  0  0  0  0  0  0  0  0  0  0  0
  148.6512  141.5955  153.9309 H   0  0  0  0  0  0  0  0  0  0  0  0
  151.1511  138.1283  155.1572 H   0  0  0  0  0  0  0  0  0  0  0  0
  152.3613  138.9202  154.1412 H   0  0  0  0  0  0  0  0  0  0  0  0
  152.7242  140.6509  155.8756 H   0  0  0  0  0  0  0  0  0  0  0  0
  153.0653  137.9575  156.3177 H   0  0  0  0  0  0  0  0  0  0  0  0
  150.3390  140.4086  156.9025 H   0  0  0  0  0  0  0  0  0  0  0  0
  150.9417  138.9970  157.7381 H   0  0  0  0  0  0  0  0  0  0  0  0
  152.5459  139.3651  159.6959 H   0  0  0  0  0  0  0  0  0  0  0  0
  153.0642  144.1400  160.8891 H   0  0  0  0  0  0  0  0  0  0  0  0
  152.2069  145.9199  159.3837 H   0  0  0  0  0  0  0  0  0  0  0  0
  151.0712  145.3277  157.2538 H   0  0  0  0  0  0  0  0  0  0  0  0
  150.7875  142.9358  156.6127 H   0  0  0  0  0  0  0  0  0  0  0  0
  149.5811  137.4987  154.9201 H   0  0  0  0  0  0  0  0  0  0  0  0
  1  2  1  0  0  0  0
  1 24  1  0  0  0  0
  1 25  1  0  0  0  0
  1 26  1  0  0  0  0
  2  3  2  0  0  0  0
  2  4  1  0  0  0  0
  4 23  1  0  0  0  0
  4  5  2  0  0  0  0
  5  6  1  0  0  0  0
  5 27  1  0  0  0  0
  6  7  2  0  0  0  0
  6 28  1  0  0  0  0
  7  8  1  0  0  0  0
  7 29  1  0  0  0  0
  8  9  1  0  0  0  0
  8 23  2  0  0  0  0
  9 10  1  0  0  0  0
 10 11  1  0  0  0  0
 10 30  1  0  0  0  0
 10 31  1  0  0  0  0
 11 12  1  0  0  0  0
 11 13  1  0  0  0  0
 11 32  1  0  0  0  0
 12 33  1  0  0  0  0
 13 14  1  0  0  0  0
 13 34  1  0  0  0  0
 13 35  1  0  0  0  0
 14 22  1  0  0  0  0
 14 15  1  0  0  0  0
 15 16  2  0  0  0  0
 15 36  1  0  0  0  0
 16 17  1  0  0  0  0
 17 22  2  0  0  0  0
 17 18  1  0  0  0  0
 18 19  2  0  0  0  0
 18 37  1  0  0  0  0
 19 20  1  0  0  0  0
 19 38  1  0  0  0  0
 20 21  2  0  0  0  0
 20 39  1  0  0  0  0
 21 22  1  0  0  0  0
 21 40  1  0  0  0  0
 23 41  1  0  0  0  0
M  END
> <s_m_source_file>
AV-unprocessed.smi

> <i_m_source_file_index>
338

> <i_lp_mmshare_version>
43012

> <i_f3d_flags>
0

> <s_epik_input>
W0NIM11DKD1PKWMxW2NIXVtjSF1bY0hdYyhbY0hdMSlPW0NIMl1bQ0BIXShbT0hdKVtDSDJdbihbY0hdbjIpYyhjMjMpW2NIXVtjSF1bY0hdW2NIXTM=

> <s_epik_cmdline>
J2VwaWtfcHl0aG9uJywgJy1waCcsICc3LjAnLCAnLXRuJywgJzgnLCAnLW1hJywgJzIwMCcsICctbWV0YWxfYmluZGluZycsICctaW1hZScsICc8aW5maWxlLm1hZT4nLCAnLW9tYWUnLCAnPG91dGZpbGUubWFlPic=

> <r_lp_tautomer_probability>
0.99995

> <r_epik_Ionization_Penalty>
0.0640132

> <r_epik_Ionization_Penalty_Charging>
0

> <r_epik_Ionization_Penalty_Neutral>
0.0640132

> <r_epik_State_Penalty>
0.0557325

> <r_epik_Charging_Adjusted_Penalty>
0.0557325

> <i_epik_Tot_Q>
0

> <i_epik_Tot_abs_Q>
0

> <r_epik_Metal_State_Penalty>
5.8435e-05

> <b_epik_Metal_Only>
0

> <s_lp_Force_Field>
OPLS_2005

> <r_lp_Energy>
20.8584

> <b_lp_Chiralities_Consistent>
1

> <s_lp_Variant>
AV-unprocessed.smi:338-1

> <Gold.Version>
5.8.1

> <Gold.Id.Protein>
6NUR|6NUR_protein|mol2

> <Gold.PLP.Fitness>
47.2315

> <Gold.PLP.PLP>
-44.0078

> <Gold.PLP.part.hbond>
-2.0000

> <Gold.PLP.part.metal>
0.0000

> <Gold.PLP.part.buried>
-4.9530

> <Gold.PLP.part.nonpolar>
-37.7625

> <Gold.PLP.part.repulsive>
0.1367

> <Gold.PLP.ligand.clash>
0.0000

> <Gold.PLP.ligand.torsion>
0.9453

> <Gold.PLP.Chemscore.Hbond>
1.6800

> <Gold.PLP.Chemscore.CHOScore>
0.0000

> <Gold.PLP.Chemscore.Metal>
0.0000

> <Gold.Chemscore.Hbonds>
donor molecule, donor type, donor heavy atom, donor atom, acceptor molecule, acceptor atom, score
      P1  H  7989  7998       L1     9  0.85
      P1  H  7997  8009       L1    12  0.74

> <Gold.PLP.Chemscore.Internal.Correction>
0.0742

> <Gold.Rescore>
     Score         DG    S(hbond)    S(metal)    S(lipo)     H(rot)  DE(clash)    DE(int)     intcor
     15.04     -16.33       0.91        0.00     119.11       2.40       0.32       0.97       ----

> <Gold.Chemscore.Fitness>
15.0358

> <Gold.Chemscore.DG>
-16.3254

> <Gold.Chemscore.ZeroCoef>
-5.4800

> <Gold.Chemscore.Hbond>
0.9146

> <Gold.Chemscore.Metal>
0.0000

> <Gold.Chemscore.Lipo>
119.1117

> <Gold.Chemscore.Internal_Hbond>
0.0000

> <Gold.Chemscore.DEClash>
0.3218

> <Gold.Chemscore.DEInternal>
0.9678

> <Gold.Chemscore.Rot>
2.4005

> <Gold.Chemscore.Internal.Correction>
   9.000000E+99

> <Gold.Chemscore.Hbonds>
donor molecule, donor type, donor heavy atom, donor atom, acceptor molecule, acceptor atom, score
      P1  H  7989  7998       L1     9  0.15
      P1  H  7997  8009       L1    12  0.17

> <Gold.Chemscore.Hbond.Weighted>
-3.0547

> <Gold.Chemscore.Metal.Weighted>
-0.0000

> <Gold.Chemscore.Lipo.Weighted>
-13.9361

> <Gold.Chemscore.Internal_Hbond.Weighted>
0.0000

> <Gold.Chemscore.DEClash.Weighted>
0.3218

> <Gold.Chemscore.DEInternal.Weighted>
0.9678

> <Gold.Chemscore.Rot.Weighted>
6.1453

> <Gold.Chemscore.Internal.Correction.Weighted>
   9.000000E+99

> <Gold.Protein.RotatedTorsions>
[ 6907 6896 6895 6894 ] final    9.85 input  -60.11 | X-H torsion
[ 7974 7965 7964 7962 ] final   67.63 input  175.53 | X-H torsion
[ 8008 7997 7996 7995 ] final  160.85 input   59.86 | X-H torsion
[ 10167 10162 10161 10158 ] final  -68.23 input  -65.29 | X-H torsion
[ 10718 10713 10712 10709 ] final  104.75 input   66.30 | X-H torsion
[ 10763 10752 10751 10750 ] final  127.36 input  -60.55 | X-H torsion
[ 11005 11000 10999 10996 ] final   41.98 input  -57.11 | X-H torsion

> <Gold.Protein.ActiveResidues>
 VAL166  LYS551  ARG553  GLY616  TRP617  ASP618  TYR619  PRO620  LYS621  CYS622 
 ASP623  PHE694  ASN695  SER759  ASP760  ASP761  ALA762  ILE779  LEU786  VAL792 
 PHE793  MET794  SER795  GLU796  ALA797  LYS798  CYS799  TRP800  GLU811  SER814 

> <Gold.Protein.RotatedAtoms>
  151.7289  135.0879  160.0296 H   0  0  0  0  0  0  0  0  0  0  0  0  # atno 6907 bound_to 6896
  152.3554  133.6226  159.5984 H   0  0  0  0  0  0  0  0  0  0  0  0  # atno 6908 bound_to 6896
  150.7568  133.9424  159.3502 H   0  0  0  0  0  0  0  0  0  0  0  0  # atno 6909 bound_to 6896
  145.8123  139.3039  143.1092 H   0  0  0  0  0  0  0  0  0  0  0  0  # atno 7974 bound_to 7965
  156.2144  140.1793  156.7622 H   0  0  0  0  0  0  0  0  0  0  0  0  # atno 8008 bound_to 7997
  154.5769  140.0673  156.9077 H   0  0  0  0  0  0  0  0  0  0  0  0  # atno 8009 bound_to 7997
  155.2571  140.3333  155.4279 H   0  0  0  0  0  0  0  0  0  0  0  0  # atno 8010 bound_to 7997
  140.5523  143.2312  151.6888 H   0  0  0  0  0  0  0  0  0  0  0  0  # atno 10167 bound_to 10162
  157.6729  131.0811  150.5754 H   0  0  0  0  0  0  0  0  0  0  0  0  # atno 10718 bound_to 10713
  153.7082  135.3272  155.3240 H   0  0  0  0  0  0  0  0  0  0  0  0  # atno 10763 bound_to 10752
  154.8393  135.4470  154.1341 H   0  0  0  0  0  0  0  0  0  0  0  0  # atno 10764 bound_to 10752
  153.2427  135.6973  153.7844 H   0  0  0  0  0  0  0  0  0  0  0  0  # atno 10765 bound_to 10752
  140.1782  134.4136  155.8215 H   0  0  0  0  0  0  0  0  0  0  0  0  # atno 11005 bound_to 11000
  145.9764  140.8719  143.0136 LP  0  0  0  0  0  0  0  0  0  0  0  0  # atno 17320 bound_to 7965
  144.6756  140.2018  143.7386 LP  0  0  0  0  0  0  0  0  0  0  0  0  # atno 17321 bound_to 7965
  139.5032  144.3798  152.0387 LP  0  0  0  0  0  0  0  0  0  0  0  0  # atno 17342 bound_to 10162
  140.2916  144.3747  150.6087 LP  0  0  0  0  0  0  0  0  0  0  0  0  # atno 17343 bound_to 10162
  156.6055  130.4366  149.5880 LP  0  0  0  0  0  0  0  0  0  0  0  0  # atno 17370 bound_to 10713
  156.2472  130.6886  151.1611 LP  0  0  0  0  0  0  0  0  0  0  0  0  # atno 17371 bound_to 10713
  141.2221  133.6988  156.7885 LP  0  0  0  0  0  0  0  0  0  0  0  0  # atno 17394 bound_to 11000
  140.2297  134.8695  157.3464 LP  0  0  0  0  0  0  0  0  0  0  0  0  # atno 17395 bound_to 11000

$$$$
