AV-unprocessed.smi:671|AV-procd|sdf|3282|dock10
  -GOLD-   22720 0243D 1   1.00000     0.00000
 Structure written by MMmdl.
 50 51  0  0  0  0  0  0  0  0  2 V2000
  148.8849  141.4054  154.5458 C   0  0  0  0  0  0  0  0  0  0  0  0
  149.9192  141.3961  155.6209 C   0  0  0  0  0  0  0  0  0  0  0  0
  150.4361  142.5147  156.1963 N   0  3  0  0  0  0  0  0  0  0  0  0
  151.3501  142.1815  157.1191 N   0  0  0  0  0  0  0  0  0  0  0  0
  152.0368  143.2406  157.8590 C   0  0  0  0  0  0  0  0  0  0  0  0
  151.4725  140.8264  157.1928 C   0  0  0  0  0  0  0  0  0  0  0  0
  152.4102  140.1110  158.1102 C   0  0  0  0  0  0  0  0  0  0  0  0
  150.5657  140.3252  156.2499 C   0  0  0  0  0  0  0  0  0  0  0  0
  150.3331  138.8703  155.9537 C   0  0  0  0  0  0  0  0  0  0  0  0
  150.8475  138.4378  154.5614 C   0  0  1  0  0  0  0  0  0  0  0  0
  152.3777  138.3075  154.5081 C   0  0  0  0  0  0  0  0  0  0  0  0
  150.2511  137.1561  154.1774 N   0  0  0  0  0  0  0  0  0  0  0  0
  150.1697  136.0244  154.9014 C   0  0  0  0  0  0  0  0  0  0  0  0
  150.6206  135.9504  156.0424 O   0  0  0  0  0  0  0  0  0  0  0  0
  149.5607  135.0035  154.2757 N   0  0  0  0  0  0  0  0  0  0  0  0
  149.2998  133.6874  154.8501 C   0  0  2  0  0  0  0  0  0  0  0  0
  150.5107  133.2239  155.6814 C   0  0  0  0  0  0  0  0  0  0  0  0
  151.1620  132.0930  154.8861 C   0  0  0  0  0  0  0  0  0  0  0  0
  149.9969  131.4457  154.1460 C   0  0  0  0  0  0  0  0  0  0  0  0
  149.1025  132.6235  153.7447 C   0  0  1  0  0  0  0  0  0  0  0  0
  147.6373  132.2226  153.5226 C   0  0  0  0  0  0  0  0  0  0  0  0
  149.2949  140.9846  153.6274 H   0  0  0  0  0  0  0  0  0  0  0  0
  148.5500  142.4230  154.3424 H   0  0  0  0  0  0  0  0  0  0  0  0
  148.0217  140.8116  154.8457 H   0  0  0  0  0  0  0  0  0  0  0  0
  153.1129  143.0734  157.8052 H   0  0  0  0  0  0  0  0  0  0  0  0
  151.7143  143.2130  158.9001 H   0  0  0  0  0  0  0  0  0  0  0  0
  151.8009  144.2156  157.4301 H   0  0  0  0  0  0  0  0  0  0  0  0
  152.1410  139.0594  158.2000 H   0  0  0  0  0  0  0  0  0  0  0  0
  152.3829  140.5566  159.1046 H   0  0  0  0  0  0  0  0  0  0  0  0
  153.4288  140.1743  157.7274 H   0  0  0  0  0  0  0  0  0  0  0  0
  150.7999  138.2501  156.7198 H   0  0  0  0  0  0  0  0  0  0  0  0
  149.2655  138.6626  156.0333 H   0  0  0  0  0  0  0  0  0  0  0  0
  150.5671  139.1912  153.8238 H   0  0  0  0  0  0  0  0  0  0  0  0
  152.8670  139.2582  154.7194 H   0  0  0  0  0  0  0  0  0  0  0  0
  152.7085  137.9878  153.5194 H   0  0  0  0  0  0  0  0  0  0  0  0
  152.7400  137.5766  155.2315 H   0  0  0  0  0  0  0  0  0  0  0  0
  149.8755  137.1127  153.2407 H   0  0  0  0  0  0  0  0  0  0  0  0
  149.2326  135.1575  153.3341 H   0  0  0  0  0  0  0  0  0  0  0  0
  148.4289  133.7349  155.5069 H   0  0  0  0  0  0  0  0  0  0  0  0
  151.2163  134.0249  155.9073 H   0  0  0  0  0  0  0  0  0  0  0  0
  150.1586  132.8319  156.6367 H   0  0  0  0  0  0  0  0  0  0  0  0
  151.8712  132.5054  154.1677 H   0  0  0  0  0  0  0  0  0  0  0  0
  151.7008  131.3892  155.5211 H   0  0  0  0  0  0  0  0  0  0  0  0
  150.3214  130.8554  153.2885 H   0  0  0  0  0  0  0  0  0  0  0  0
  149.4627  130.7792  154.8247 H   0  0  0  0  0  0  0  0  0  0  0  0
  149.4939  133.0140  152.8032 H   0  0  0  0  0  0  0  0  0  0  0  0
  147.1961  131.8099  154.4304 H   0  0  0  0  0  0  0  0  0  0  0  0
  147.5529  131.4699  152.7385 H   0  0  0  0  0  0  0  0  0  0  0  0
  147.0378  133.0817  153.2218 H   0  0  0  0  0  0  0  0  0  0  0  0
  150.2157  143.4837  156.0038 H   0  0  0  0  0  0  0  0  0  0  0  0
  1  2  1  0  0  0  0
  1 22  1  0  0  0  0
  1 23  1  0  0  0  0
  1 24  1  0  0  0  0
  2  8  1  0  0  0  0
  2  3  2  0  0  0  0
  3  4  1  0  0  0  0
  3 50  1  0  0  0  0
  4  5  1  0  0  0  0
  4  6  1  0  0  0  0
  5 25  1  0  0  0  0
  5 26  1  0  0  0  0
  5 27  1  0  0  0  0
  6  7  1  0  0  0  0
  6  8  2  0  0  0  0
  7 28  1  0  0  0  0
  7 29  1  0  0  0  0
  7 30  1  0  0  0  0
  8  9  1  0  0  0  0
  9 10  1  0  0  0  0
  9 31  1  0  0  0  0
  9 32  1  0  0  0  0
 10 11  1  0  0  0  0
 10 12  1  0  0  0  0
 10 33  1  0  0  0  0
 11 34  1  0  0  0  0
 11 35  1  0  0  0  0
 11 36  1  0  0  0  0
 12 13  1  0  0  0  0
 12 37  1  0  0  0  0
 13 14  2  0  0  0  0
 13 15  1  0  0  0  0
 15 16  1  0  0  0  0
 15 38  1  0  0  0  0
 16 20  1  0  0  0  0
 16 17  1  0  0  0  0
 16 39  1  0  0  0  0
 17 18  1  0  0  0  0
 17 40  1  0  0  0  0
 17 41  1  0  0  0  0
 18 19  1  0  0  0  0
 18 42  1  0  0  0  0
 18 43  1  0  0  0  0
 19 20  1  0  0  0  0
 19 44  1  0  0  0  0
 19 45  1  0  0  0  0
 20 21  1  0  0  0  0
 20 46  1  0  0  0  0
 21 47  1  0  0  0  0
 21 48  1  0  0  0  0
 21 49  1  0  0  0  0
M  CHG  1   3   1
M  END
> <s_m_source_file>
AV-unprocessed.smi

> <i_m_source_file_index>
671

> <i_lp_mmshare_version>
43012

> <i_f3d_flags>
0

> <s_epik_input>
W0NIM11jMW5uKFtDSDNdKWMoW0NIM10pYzFbQ0gyXVtDQEhdKFtDSDNdKVtOSF1DKD1PKVtOSF1bQ0BASF0yW0NIMl1bQ0gyXVtDSDJdW0NASF0yW0NIM10=

> <s_epik_cmdline>
J2VwaWtfcHl0aG9uJywgJy1waCcsICc3LjAnLCAnLXRuJywgJzgnLCAnLW1hJywgJzIwMCcsICctbWV0YWxfYmluZGluZycsICctaW1hZScsICc8aW5maWxlLm1hZT4nLCAnLW9tYWUnLCAnPG91dGZpbGUubWFlPic=

> <r_lp_tautomer_probability>
1

> <r_epik_Ionization_Penalty>
2.28705

> <r_epik_Ionization_Penalty_Charging>
2.28698

> <r_epik_Ionization_Penalty_Neutral>
6.23157e-05

> <r_epik_State_Penalty>
2.43671

> <r_epik_Charging_Adjusted_Penalty>
4.72369

> <i_epik_Tot_Q>
1

> <i_epik_Tot_abs_Q>
1

> <r_epik_Metal_State_Penalty>
2.44911

> <b_epik_Metal_Only>
0

> <s_lp_Force_Field>
OPLS_2005

> <r_lp_Energy>
34.579

> <b_lp_Chiralities_Consistent>
1

> <s_lp_Variant>
AV-unprocessed.smi:671-10

> <Gold.Version>
5.8.1

> <Gold.Id.Protein>
6NUR|6NUR_protein|mol2

> <Gold.PLP.Fitness>
50.5011

> <Gold.PLP.PLP>
-40.3134

> <Gold.PLP.part.hbond>
-3.4594

> <Gold.PLP.part.metal>
0.0000

> <Gold.PLP.part.buried>
-4.4630

> <Gold.PLP.part.nonpolar>
-33.2572

> <Gold.PLP.part.repulsive>
0.2476

> <Gold.PLP.ligand.clash>
0.0000

> <Gold.PLP.ligand.torsion>
0.6449

> <Gold.PLP.Chemscore.Hbond>
3.8160

> <Gold.PLP.Chemscore.CHOScore>
0.0000

> <Gold.PLP.Chemscore.Metal>
0.0000

> <Gold.Chemscore.Hbonds>
donor molecule, donor type, donor heavy atom, donor atom, acceptor molecule, acceptor atom, score
      L1  H     3    50       P1  8028  1.89
      L1  H    12    37       P1  7948  1.00
      L1  H    15    38       P1  7948  0.85

> <Gold.PLP.Chemscore.Internal.Correction>
0.0294

> <Gold.Rescore>
     Score         DG    S(hbond)    S(metal)    S(lipo)     H(rot)  DE(clash)    DE(int)     intcor
     17.96     -20.86       2.65        0.00      88.78       1.51       0.03       2.86       ----

> <Gold.Chemscore.Fitness>
17.9618

> <Gold.Chemscore.DG>
-20.8553

> <Gold.Chemscore.ZeroCoef>
-5.4800

> <Gold.Chemscore.Hbond>
2.6476

> <Gold.Chemscore.Metal>
0.0000

> <Gold.Chemscore.Lipo>
88.7767

> <Gold.Chemscore.Internal_Hbond>
0.0000

> <Gold.Chemscore.DEClash>
0.0318

> <Gold.Chemscore.DEInternal>
2.8617

> <Gold.Chemscore.Rot>
1.5057

> <Gold.Chemscore.Internal.Correction>
   9.000000E+99

> <Gold.Chemscore.Hbonds>
donor molecule, donor type, donor heavy atom, donor atom, acceptor molecule, acceptor atom, score
      L1  H     3    50       P1  8028  0.91
      L1  H    12    37       P1  7948  0.34
      L1  H    15    38       P1  7948  0.14

> <Gold.Chemscore.Hbond.Weighted>
-8.8431

> <Gold.Chemscore.Metal.Weighted>
-0.0000

> <Gold.Chemscore.Lipo.Weighted>
-10.3869

> <Gold.Chemscore.Internal_Hbond.Weighted>
0.0000

> <Gold.Chemscore.DEClash.Weighted>
0.0318

> <Gold.Chemscore.DEInternal.Weighted>
2.8617

> <Gold.Chemscore.Rot.Weighted>
3.8547

> <Gold.Chemscore.Internal.Correction.Weighted>
   9.000000E+99

> <Gold.Protein.RotatedTorsions>
[ 6907 6896 6895 6894 ] final  -87.32 input  -60.11 | X-H torsion
[ 7974 7965 7964 7962 ] final   69.82 input  175.53 | X-H torsion
[ 8008 7997 7996 7995 ] final   87.61 input   59.86 | X-H torsion
[ 10167 10162 10161 10158 ] final -139.70 input  -65.29 | X-H torsion
[ 10718 10713 10712 10709 ] final  154.65 input   66.30 | X-H torsion
[ 10763 10752 10751 10750 ] final -138.19 input  -60.55 | X-H torsion
[ 11005 11000 10999 10996 ] final   31.61 input  -57.11 | X-H torsion

> <Gold.Protein.ActiveResidues>
 VAL166  LYS551  ARG553  GLY616  TRP617  ASP618  TYR619  PRO620  LYS621  CYS622 
 ASP623  PHE694  ASN695  SER759  ASP760  ASP761  ALA762  ILE779  LEU786  VAL792 
 PHE793  MET794  SER795  GLU796  ALA797  LYS798  CYS799  TRP800  GLU811  SER814 

> <Gold.Protein.RotatedAtoms>
  150.6866  134.2914  159.4668 H   0  0  0  0  0  0  0  0  0  0  0  0  # atno 6907 bound_to 6896
  152.0819  134.9463  160.0582 H   0  0  0  0  0  0  0  0  0  0  0  0  # atno 6908 bound_to 6896
  152.0812  133.4119  159.4539 H   0  0  0  0  0  0  0  0  0  0  0  0  # atno 6909 bound_to 6896
  145.7858  139.2909  143.1239 H   0  0  0  0  0  0  0  0  0  0  0  0  # atno 7974 bound_to 7965
  155.9775  140.3380  155.6632 H   0  0  0  0  0  0  0  0  0  0  0  0  # atno 8008 bound_to 7997
  155.6592  140.0714  157.2578 H   0  0  0  0  0  0  0  0  0  0  0  0  # atno 8009 bound_to 7997
  154.4183  140.1711  156.1746 H   0  0  0  0  0  0  0  0  0  0  0  0  # atno 8010 bound_to 7997
  139.8353  143.7393  152.2665 H   0  0  0  0  0  0  0  0  0  0  0  0  # atno 10167 bound_to 10162
  157.2288  131.0734  151.1866 H   0  0  0  0  0  0  0  0  0  0  0  0  # atno 10718 bound_to 10713
  154.8643  135.3619  154.5344 H   0  0  0  0  0  0  0  0  0  0  0  0  # atno 10763 bound_to 10752
  153.5968  135.7014  153.5405 H   0  0  0  0  0  0  0  0  0  0  0  0  # atno 10764 bound_to 10752
  153.3325  135.4120  155.1468 H   0  0  0  0  0  0  0  0  0  0  0  0  # atno 10765 bound_to 10752
  140.2821  134.2961  155.7798 H   0  0  0  0  0  0  0  0  0  0  0  0  # atno 11005 bound_to 11000
  146.0028  140.8505  143.0010 LP  0  0  0  0  0  0  0  0  0  0  0  0  # atno 17320 bound_to 7965
  144.6789  140.2376  143.7347 LP  0  0  0  0  0  0  0  0  0  0  0  0  # atno 17321 bound_to 7965
  139.7613  144.7505  151.0360 LP  0  0  0  0  0  0  0  0  0  0  0  0  # atno 17342 bound_to 10162
  140.7803  143.4748  151.0097 LP  0  0  0  0  0  0  0  0  0  0  0  0  # atno 17343 bound_to 10162
  157.3500  130.7077  149.6434 LP  0  0  0  0  0  0  0  0  0  0  0  0  # atno 17370 bound_to 10713
  155.9677  130.4255  150.4658 LP  0  0  0  0  0  0  0  0  0  0  0  0  # atno 17371 bound_to 10713
  141.2161  133.7532  156.9496 LP  0  0  0  0  0  0  0  0  0  0  0  0  # atno 17394 bound_to 11000
  140.1274  134.9378  157.2289 LP  0  0  0  0  0  0  0  0  0  0  0  0  # atno 17395 bound_to 11000

$$$$
