AV-unprocessed.smi:49|AV-procd|sdf|486|dock9
  -GOLD-   2262016353D 1   1.00000     0.00000
 Structure written by MMmdl.
 27 28  0  0  0  0  0  0  0  0  3 V2000
  152.7200  140.9619  159.3503 C   0  0  0  0  0  0  0  0  0  0  0  0
  152.2979  139.7039  158.5849 C   0  0  0  0  0  0  0  0  0  0  0  0
  151.7682  140.0280  157.2051 C   0  0  0  0  0  0  0  0  0  0  0  0
  150.6609  140.7125  156.9363 N   0  0  0  0  0  0  0  0  0  0  0  0
  150.5925  140.7884  155.6007 C   0  0  0  0  0  0  0  0  0  0  0  0
  149.4946  141.5103  154.8434 C   0  0  1  0  0  0  0  0  0  0  0  0
  148.6280  140.5487  154.0174 C   0  0  0  0  0  0  0  0  0  0  0  0
  147.4093  140.3059  154.9034 C   0  0  2  0  0  0  0  0  0  0  0  0
  146.2754  139.9199  154.1557 O   0  0  0  0  0  0  0  0  0  0  0  0
  147.2187  141.6584  155.5880 C   0  0  0  0  0  0  0  0  0  0  0  0
  148.5792  142.1918  155.7836 N   0  3  0  0  0  0  0  0  0  0  0  0
  151.6522  140.1864  155.0368 N   0  0  0  0  0  0  0  0  0  0  0  0
  152.3660  139.7212  156.0402 N   0  5  0  0  0  0  0  0  0  0  0  0
  149.9577  142.2525  154.1921 H   0  0  0  0  0  0  0  0  0  0  0  0
  147.6381  139.5405  155.6466 H   0  0  0  0  0  0  0  0  0  0  0  0
  153.0995  140.7060  160.3396 H   0  0  0  0  0  0  0  0  0  0  0  0
  151.8782  141.6425  159.4805 H   0  0  0  0  0  0  0  0  0  0  0  0
  153.5067  141.4985  158.8189 H   0  0  0  0  0  0  0  0  0  0  0  0
  153.1453  139.0249  158.4870 H   0  0  0  0  0  0  0  0  0  0  0  0
  151.5286  139.1686  159.1422 H   0  0  0  0  0  0  0  0  0  0  0  0
  148.3143  141.0544  153.1024 H   0  0  0  0  0  0  0  0  0  0  0  0
  149.1453  139.6338  153.7250 H   0  0  0  0  0  0  0  0  0  0  0  0
  145.9994  139.0641  154.4474 H   0  0  0  0  0  0  0  0  0  0  0  0
  146.6776  142.3450  154.9354 H   0  0  0  0  0  0  0  0  0  0  0  0
  146.6735  141.5841  156.5293 H   0  0  0  0  0  0  0  0  0  0  0  0
  148.8874  141.9725  156.7207 H   0  0  0  0  0  0  0  0  0  0  0  0
  148.5969  143.1916  155.6445 H   0  0  0  0  0  0  0  0  0  0  0  0
  1  2  1  0  0  0  0
  1 16  1  0  0  0  0
  1 17  1  0  0  0  0
  1 18  1  0  0  0  0
  2  3  1  0  0  0  0
  2 19  1  0  0  0  0
  2 20  1  0  0  0  0
  3 13  1  0  0  0  0
  3  4  2  0  0  0  0
  4  5  1  0  0  0  0
  5  6  1  0  0  0  0
  5 12  2  0  0  0  0
  6 14  1  0  0  0  0
  6 11  1  0  0  0  0
  6  7  1  0  0  0  0
  7  8  1  0  0  0  0
  7 21  1  0  0  0  0
  7 22  1  0  0  0  0
  8 15  1  0  0  0  0
  8  9  1  0  0  0  0
  8 10  1  0  0  0  0
  9 23  1  0  0  0  0
 10 11  1  0  0  0  0
 10 24  1  0  0  0  0
 10 25  1  0  0  0  0
 11 26  1  0  0  0  0
 11 27  1  0  0  0  0
 12 13  1  0  0  0  0
M  CHG  1  11   1
M  CHG  1  13  -1
M  END
> <s_m_source_file>
AV-unprocessed.smi

> <i_m_source_file_index>
49

> <i_lp_mmshare_version>
43012

> <i_f3d_flags>
0

> <s_epik_input>
W0NIM11bQ0gyXWMxbmMobltuSF0xKVtDQEBIXTJbQ0gyXVtDQEBIXShbT0hdKVtDSDJdW05IXTI=

> <s_epik_cmdline>
J2VwaWtfcHl0aG9uJywgJy1waCcsICc3LjAnLCAnLXRuJywgJzgnLCAnLW1hJywgJzIwMCcsICctbWV0YWxfYmluZGluZycsICctaW1hZScsICc8aW5maWxlLm1hZT4nLCAnLW9tYWUnLCAnPG91dGZpbGUubWFlPic=

> <r_lp_tautomer_probability>
0.948284

> <r_epik_Ionization_Penalty>
3.22013

> <r_epik_Ionization_Penalty_Charging>
3.22013

> <r_epik_Ionization_Penalty_Neutral>
3.9133e-08

> <r_epik_State_Penalty>
2.79459

> <r_epik_Charging_Adjusted_Penalty>
6.01472

> <i_epik_Tot_Q>
0

> <i_epik_Tot_abs_Q>
2

> <r_epik_Metal_State_Penalty>
0.589377

> <b_epik_Metal_Only>
1

> <s_lp_Force_Field>
OPLS_2005

> <r_lp_Energy>
10.3781

> <b_lp_Chiralities_Consistent>
1

> <s_lp_Variant>
AV-unprocessed.smi:49-24

> <Gold.Version>
5.8.1

> <Gold.Id.Protein>
6NUR|6NUR_protein|mol2

> <Gold.PLP.Fitness>
35.3339

> <Gold.PLP.PLP>
-20.6490

> <Gold.PLP.part.hbond>
-3.4799

> <Gold.PLP.part.metal>
0.0000

> <Gold.PLP.part.buried>
-2.0257

> <Gold.PLP.part.nonpolar>
-14.6894

> <Gold.PLP.part.repulsive>
0.1610

> <Gold.PLP.ligand.clash>
0.0000

> <Gold.PLP.ligand.torsion>
0.1290

> <Gold.PLP.Chemscore.Hbond>
4.9760

> <Gold.PLP.Chemscore.CHOScore>
0.0000

> <Gold.PLP.Chemscore.Metal>
0.0000

> <Gold.Chemscore.Hbonds>
donor molecule, donor type, donor heavy atom, donor atom, acceptor molecule, acceptor atom, score
      L1  H    11    27       P1  8028  2.00
      P1  H  7989  7998       L1    12  0.96
      P1  H  7997  8008       L1    13  2.00

> <Gold.PLP.Chemscore.Internal.Correction>
0.0148

> <Gold.Rescore>
     Score         DG    S(hbond)    S(metal)    S(lipo)     H(rot)  DE(clash)    DE(int)     intcor
     12.60     -12.93       2.41        0.00      35.45       1.86       0.05       0.27       ----

> <Gold.Chemscore.Fitness>
12.5978

> <Gold.Chemscore.DG>
-12.9262

> <Gold.Chemscore.ZeroCoef>
-5.4800

> <Gold.Chemscore.Hbond>
2.4107

> <Gold.Chemscore.Metal>
0.0000

> <Gold.Chemscore.Lipo>
35.4502

> <Gold.Chemscore.Internal_Hbond>
0.0000

> <Gold.Chemscore.DEClash>
0.0546

> <Gold.Chemscore.DEInternal>
0.2738

> <Gold.Chemscore.Rot>
1.8567

> <Gold.Chemscore.Internal.Correction>
   9.000000E+99

> <Gold.Chemscore.Hbonds>
donor molecule, donor type, donor heavy atom, donor atom, acceptor molecule, acceptor atom, score
      L1  H    11    27       P1  8028  0.94
      P1  H  7989  7998       L1    12  0.32
      P1  H  7997  8008       L1    13  0.51

> <Gold.Chemscore.Hbond.Weighted>
-8.0516

> <Gold.Chemscore.Metal.Weighted>
-0.0000

> <Gold.Chemscore.Lipo.Weighted>
-4.1477

> <Gold.Chemscore.Internal_Hbond.Weighted>
0.0000

> <Gold.Chemscore.DEClash.Weighted>
0.0546

> <Gold.Chemscore.DEInternal.Weighted>
0.2738

> <Gold.Chemscore.Rot.Weighted>
4.7531

> <Gold.Chemscore.Internal.Correction.Weighted>
   9.000000E+99

> <Gold.Protein.RotatedTorsions>
[ 6907 6896 6895 6894 ] final  -75.51 input  -60.11 | X-H torsion
[ 7974 7965 7964 7962 ] final  -12.38 input  175.53 | X-H torsion
[ 8008 7997 7996 7995 ] final  -41.62 input   59.86 | X-H torsion
[ 10167 10162 10161 10158 ] final  -40.78 input  -65.29 | X-H torsion
[ 10718 10713 10712 10709 ] final  151.15 input   66.30 | X-H torsion
[ 10763 10752 10751 10750 ] final  105.81 input  -60.55 | X-H torsion
[ 11005 11000 10999 10996 ] final  121.28 input  -57.11 | X-H torsion

> <Gold.Protein.ActiveResidues>
 VAL166  LYS551  ARG553  GLY616  TRP617  ASP618  TYR619  PRO620  LYS621  CYS622 
 ASP623  PHE694  ASN695  SER759  ASP760  ASP761  ALA762  ILE779  LEU786  VAL792 
 PHE793  MET794  SER795  GLU796  ALA797  LYS798  CYS799  TRP800  GLU811  SER814 

> <Gold.Protein.RotatedAtoms>
  150.7057  134.4710  159.5425 H   0  0  0  0  0  0  0  0  0  0  0  0  # atno 6907 bound_to 6896
  152.2367  134.8266  160.0475 H   0  0  0  0  0  0  0  0  0  0  0  0  # atno 6908 bound_to 6896
  151.9063  133.3515  159.3885 H   0  0  0  0  0  0  0  0  0  0  0  0  # atno 6909 bound_to 6896
  146.2154  140.3049  142.8378 H   0  0  0  0  0  0  0  0  0  0  0  0  # atno 7974 bound_to 7965
  154.4003  140.1494  156.3221 H   0  0  0  0  0  0  0  0  0  0  0  0  # atno 8008 bound_to 7997
  155.8520  140.3457  155.5678 H   0  0  0  0  0  0  0  0  0  0  0  0  # atno 8009 bound_to 7997
  155.7974  140.0865  157.1966 H   0  0  0  0  0  0  0  0  0  0  0  0  # atno 8010 bound_to 7997
  140.7023  143.3133  151.2973 H   0  0  0  0  0  0  0  0  0  0  0  0  # atno 10167 bound_to 10162
  157.2744  131.0823  151.1577 H   0  0  0  0  0  0  0  0  0  0  0  0  # atno 10718 bound_to 10713
  153.3844  135.3898  155.1879 H   0  0  0  0  0  0  0  0  0  0  0  0  # atno 10763 bound_to 10752
  154.8711  135.3733  154.4817 H   0  0  0  0  0  0  0  0  0  0  0  0  # atno 10764 bound_to 10752
  153.5297  135.7086  153.5751 H   0  0  0  0  0  0  0  0  0  0  0  0  # atno 10765 bound_to 10752
  139.9219  134.9638  156.7934 H   0  0  0  0  0  0  0  0  0  0  0  0  # atno 11005 bound_to 11000
  144.9030  140.7665  143.5855 LP  0  0  0  0  0  0  0  0  0  0  0  0  # atno 17320 bound_to 7965
  145.2976  139.1861  143.4707 LP  0  0  0  0  0  0  0  0  0  0  0  0  # atno 17321 bound_to 7965
  139.6563  144.0270  152.2662 LP  0  0  0  0  0  0  0  0  0  0  0  0  # atno 17342 bound_to 10162
  139.9823  144.6420  150.7889 LP  0  0  0  0  0  0  0  0  0  0  0  0  # atno 17343 bound_to 10162
  157.3035  130.6855  149.6177 LP  0  0  0  0  0  0  0  0  0  0  0  0  # atno 17370 bound_to 10713
  155.9663  130.4385  150.5218 LP  0  0  0  0  0  0  0  0  0  0  0  0  # atno 17371 bound_to 10713
  140.6448  133.9785  155.7725 LP  0  0  0  0  0  0  0  0  0  0  0  0  # atno 17394 bound_to 11000
  141.0747  134.0152  157.3475 LP  0  0  0  0  0  0  0  0  0  0  0  0  # atno 17395 bound_to 11000

$$$$
