AV-unprocessed.smi:315|AV-procd|sdf|2321|dock3
  -GOLD-   2262022223D 1   1.00000     0.00000
 Structure written by MMmdl.
 47 49  0  0  0  0  0  0  0  0  2 V2000
  152.6377  138.9912  154.6950 C   0  0  0  0  0  0  0  0  0  0  0  0
  151.5530  138.0275  155.1827 C   0  0  0  0  0  0  0  0  0  0  0  0
  150.4444  138.1098  154.2936 O   0  0  0  0  0  0  0  0  0  0  0  0
  149.6434  139.2356  154.3288 C   0  0  0  0  0  0  0  0  0  0  0  0
  150.2024  140.4184  154.6867 N   0  0  0  0  0  0  0  0  0  0  0  0
  149.4170  141.5149  154.7184 C   0  0  0  0  0  0  0  0  0  0  0  0
  148.0485  141.4927  154.3913 C   0  0  0  0  0  0  0  0  0  0  0  0
  147.4668  140.2664  154.0190 C   0  0  0  0  0  0  0  0  0  0  0  0
  148.2758  139.1050  153.9955 C   0  0  0  0  0  0  0  0  0  0  0  0
  147.8068  137.8174  153.6214 N   0  0  0  0  0  0  0  0  0  0  0  0
  146.6314  137.2243  153.9030 C   0  0  0  0  0  0  0  0  0  0  0  0
  145.6996  137.7562  154.5014 O   0  0  0  0  0  0  0  0  0  0  0  0
  146.5497  135.9516  153.4765 N   0  0  0  0  0  0  0  0  0  0  0  0
  145.4220  135.0287  153.6185 C   0  0  1  0  0  0  0  0  0  0  0  0
  144.0416  135.7161  153.6699 C   0  0  0  0  0  0  0  0  0  0  0  0
  143.0963  134.8009  152.8675 C   0  0  0  0  0  0  0  0  0  0  0  0
  143.9106  133.6275  152.4982 N   0  3  1  0  0  0  0  0  0  0  0  0
  143.4884  132.8601  151.3062 C   0  0  0  0  0  0  0  0  0  0  0  0
  144.4125  131.6371  151.1363 C   0  0  0  0  0  0  0  0  0  0  0  0
  145.9009  132.0423  151.1138 C   0  0  0  0  0  0  0  0  0  0  0  0
  146.2578  132.9162  152.3317 C   0  0  0  0  0  0  0  0  0  0  0  0
  145.2955  134.1127  152.4023 C   0  0  2  0  0  0  0  0  0  0  0  0
  153.5089  138.9609  155.3494 H   0  0  0  0  0  0  0  0  0  0  0  0
  152.2696  140.0173  154.6748 H   0  0  0  0  0  0  0  0  0  0  0  0
  152.9664  138.7321  153.6882 H   0  0  0  0  0  0  0  0  0  0  0  0
  151.9503  137.0115  155.2060 H   0  0  0  0  0  0  0  0  0  0  0  0
  151.2494  138.2971  156.1954 H   0  0  0  0  0  0  0  0  0  0  0  0
  149.8949  142.4391  155.0076 H   0  0  0  0  0  0  0  0  0  0  0  0
  147.4588  142.3969  154.4210 H   0  0  0  0  0  0  0  0  0  0  0  0
  146.4230  140.2457  153.7480 H   0  0  0  0  0  0  0  0  0  0  0  0
  148.4930  137.2322  153.1680 H   0  0  0  0  0  0  0  0  0  0  0  0
  147.3622  135.5861  153.0008 H   0  0  0  0  0  0  0  0  0  0  0  0
  145.5539  134.4123  154.5103 H   0  0  0  0  0  0  0  0  0  0  0  0
  143.7034  135.8433  154.6990 H   0  0  0  0  0  0  0  0  0  0  0  0
  144.0728  136.7055  153.2113 H   0  0  0  0  0  0  0  0  0  0  0  0
  142.2213  134.4989  153.4439 H   0  0  0  0  0  0  0  0  0  0  0  0
  142.7504  135.3162  151.9699 H   0  0  0  0  0  0  0  0  0  0  0  0
  142.4534  132.5377  151.4254 H   0  0  0  0  0  0  0  0  0  0  0  0
  143.5293  133.4960  150.4206 H   0  0  0  0  0  0  0  0  0  0  0  0
  144.2433  130.9411  151.9590 H   0  0  0  0  0  0  0  0  0  0  0  0
  144.1576  131.0997  150.2225 H   0  0  0  0  0  0  0  0  0  0  0  0
  146.5320  131.1535  151.0913 H   0  0  0  0  0  0  0  0  0  0  0  0
  146.1116  132.5947  150.1971 H   0  0  0  0  0  0  0  0  0  0  0  0
  146.1907  132.3237  153.2454 H   0  0  0  0  0  0  0  0  0  0  0  0
  147.2893  133.2620  152.2567 H   0  0  0  0  0  0  0  0  0  0  0  0
  145.3911  134.7100  151.4921 H   0  0  0  0  0  0  0  0  0  0  0  0
  143.8821  132.9983  153.2878 H   0  0  0  0  0  0  0  0  0  0  0  0
  1  2  1  0  0  0  0
  1 23  1  0  0  0  0
  1 24  1  0  0  0  0
  1 25  1  0  0  0  0
  2  3  1  0  0  0  0
  2 26  1  0  0  0  0
  2 27  1  0  0  0  0
  3  4  1  0  0  0  0
  4  9  1  0  0  0  0
  4  5  2  0  0  0  0
  5  6  1  0  0  0  0
  6  7  2  0  0  0  0
  6 28  1  0  0  0  0
  7  8  1  0  0  0  0
  7 29  1  0  0  0  0
  8  9  2  0  0  0  0
  8 30  1  0  0  0  0
  9 10  1  0  0  0  0
 10 11  1  0  0  0  0
 10 31  1  0  0  0  0
 11 12  2  0  0  0  0
 11 13  1  0  0  0  0
 13 14  1  0  0  0  0
 13 32  1  0  0  0  0
 14 22  1  0  0  0  0
 14 15  1  0  0  0  0
 14 33  1  0  0  0  0
 15 16  1  0  0  0  0
 15 34  1  0  0  0  0
 15 35  1  0  0  0  0
 16 17  1  0  0  0  0
 16 36  1  0  0  0  0
 16 37  1  0  0  0  0
 17 22  1  0  0  0  0
 17 18  1  0  0  0  0
 17 47  1  0  0  0  0
 18 19  1  0  0  0  0
 18 38  1  0  0  0  0
 18 39  1  0  0  0  0
 19 20  1  0  0  0  0
 19 40  1  0  0  0  0
 19 41  1  0  0  0  0
 20 21  1  0  0  0  0
 20 42  1  0  0  0  0
 20 43  1  0  0  0  0
 21 22  1  0  0  0  0
 21 44  1  0  0  0  0
 21 45  1  0  0  0  0
 22 46  1  0  0  0  0
M  CHG  1  17   1
M  END
> <s_m_source_file>
AV-unprocessed.smi

> <i_m_source_file_index>
315

> <i_lp_mmshare_version>
43012

> <i_f3d_flags>
0

> <s_epik_input>
W0NIM11bQ0gyXU9jMW5bY0hdW2NIXVtjSF1jMVtOSF1DKD1PKVtOSF1bQ0BIXShbQ0gyXVtDSDJdMilbQ0BASF0oTjIzKVtDSDJdW0NIMl1bQ0gyXVtDSDJdMw==

> <s_epik_cmdline>
J2VwaWtfcHl0aG9uJywgJy1waCcsICc3LjAnLCAnLXRuJywgJzgnLCAnLW1hJywgJzIwMCcsICctbWV0YWxfYmluZGluZycsICctaW1hZScsICc8aW5maWxlLm1hZT4nLCAnLW9tYWUnLCAnPG91dGZpbGUubWFlPic=

> <r_lp_tautomer_probability>
1

> <r_epik_Ionization_Penalty>
0.00106455

> <r_epik_Ionization_Penalty_Charging>
0.000974069

> <r_epik_Ionization_Penalty_Neutral>
9.04821e-05

> <r_epik_State_Penalty>
0.000633842

> <r_epik_Charging_Adjusted_Penalty>
0.00160791

> <i_epik_Tot_Q>
1

> <i_epik_Tot_abs_Q>
1

> <r_epik_Metal_State_Penalty>
-0

> <b_epik_Metal_Only>
0

> <s_lp_Force_Field>
OPLS_2005

> <r_lp_Energy>
47.5767

> <b_lp_Chiralities_Consistent>
1

> <s_lp_Variant>
AV-unprocessed.smi:315-6

> <Gold.Version>
5.8.1

> <Gold.Id.Protein>
6NUR|6NUR_protein|mol2

> <Gold.PLP.Fitness>
48.0913

> <Gold.PLP.PLP>
-36.8329

> <Gold.PLP.part.hbond>
-3.4787

> <Gold.PLP.part.metal>
0.0000

> <Gold.PLP.part.buried>
-5.4223

> <Gold.PLP.part.nonpolar>
-28.0821

> <Gold.PLP.part.repulsive>
0.4169

> <Gold.PLP.ligand.clash>
0.0000

> <Gold.PLP.ligand.torsion>
1.0680

> <Gold.PLP.Chemscore.Hbond>
3.5481

> <Gold.PLP.Chemscore.CHOScore>
0.9071

> <Gold.PLP.Chemscore.Metal>
0.0000

> <Gold.Chemscore.Hbonds>
donor molecule, donor type, donor heavy atom, donor atom, acceptor molecule, acceptor atom, score
      L1  H    10    31       P1  7948  1.00
      L1  H    13    32       P1  7948  0.78
      L1  H    17    47       P1 10957  0.74
      P1  H  7989  7998       L1     5  0.99
      L1  C     6    28       P1  8028  0.90

> <Gold.PLP.Chemscore.Internal.Correction>
0.0290

> <Gold.Rescore>
     Score         DG    S(hbond)    S(metal)    S(lipo)     H(rot)  DE(clash)    DE(int)     intcor
     16.45     -20.45       2.53        0.00      85.80       1.38       0.20       3.80       ----

> <Gold.Chemscore.Fitness>
16.4487

> <Gold.Chemscore.DG>
-20.4455

> <Gold.Chemscore.ZeroCoef>
-5.4800

> <Gold.Chemscore.Hbond>
2.5305

> <Gold.Chemscore.Metal>
0.0000

> <Gold.Chemscore.Lipo>
85.8013

> <Gold.Chemscore.Internal_Hbond>
0.0000

> <Gold.Chemscore.DEClash>
0.1970

> <Gold.Chemscore.DEInternal>
3.7998

> <Gold.Chemscore.Rot>
1.3770

> <Gold.Chemscore.Internal.Correction>
   9.000000E+99

> <Gold.Chemscore.Hbonds>
donor molecule, donor type, donor heavy atom, donor atom, acceptor molecule, acceptor atom, score
      L1  H    10    31       P1  7948  0.95
      L1  H    13    32       P1  7948  0.73
      L1  H    17    47       P1 10957  0.25
      P1  H  7989  7998       L1     5  0.33

> <Gold.Chemscore.Hbond.Weighted>
-8.4519

> <Gold.Chemscore.Metal.Weighted>
-0.0000

> <Gold.Chemscore.Lipo.Weighted>
-10.0388

> <Gold.Chemscore.Internal_Hbond.Weighted>
0.0000

> <Gold.Chemscore.DEClash.Weighted>
0.1970

> <Gold.Chemscore.DEInternal.Weighted>
3.7998

> <Gold.Chemscore.Rot.Weighted>
3.5252

> <Gold.Chemscore.Internal.Correction.Weighted>
   9.000000E+99

> <Gold.Protein.RotatedTorsions>
[ 6907 6896 6895 6894 ] final  103.18 input  -60.11 | X-H torsion
[ 7974 7965 7964 7962 ] final  101.48 input  175.53 | X-H torsion
[ 8008 7997 7996 7995 ] final -109.76 input   59.86 | X-H torsion
[ 10167 10162 10161 10158 ] final  -16.77 input  -65.29 | X-H torsion
[ 10718 10713 10712 10709 ] final  -69.92 input   66.30 | X-H torsion
[ 10763 10752 10751 10750 ] final  117.68 input  -60.55 | X-H torsion
[ 11005 11000 10999 10996 ] final -156.43 input  -57.11 | X-H torsion

> <Gold.Protein.ActiveResidues>
 VAL166  LYS551  ARG553  GLY616  TRP617  ASP618  TYR619  PRO620  LYS621  CYS622 
 ASP623  PHE694  ASN695  SER759  ASP760  ASP761  ALA762  ILE779  LEU786  VAL792 
 PHE793  MET794  SER795  GLU796  ALA797  LYS798  CYS799  TRP800  GLU811  SER814 

> <Gold.Protein.RotatedAtoms>
  152.5303  133.9865  159.7830 H   0  0  0  0  0  0  0  0  0  0  0  0  # atno 6907 bound_to 6896
  151.0109  133.5958  159.2690 H   0  0  0  0  0  0  0  0  0  0  0  0  # atno 6908 bound_to 6896
  151.3033  135.0781  159.9300 H   0  0  0  0  0  0  0  0  0  0  0  0  # atno 6909 bound_to 6896
  145.3718  139.2396  143.3451 H   0  0  0  0  0  0  0  0  0  0  0  0  # atno 7974 bound_to 7965
  154.9642  140.0398  157.2204 H   0  0  0  0  0  0  0  0  0  0  0  0  # atno 8008 bound_to 7997
  154.7860  140.2827  155.6005 H   0  0  0  0  0  0  0  0  0  0  0  0  # atno 8009 bound_to 7997
  156.2943  140.2582  156.2697 H   0  0  0  0  0  0  0  0  0  0  0  0  # atno 8010 bound_to 7997
  140.7238  143.5083  150.9782 H   0  0  0  0  0  0  0  0  0  0  0  0  # atno 10167 bound_to 10162
  156.0432  130.4321  150.2219 H   0  0  0  0  0  0  0  0  0  0  0  0  # atno 10718 bound_to 10713
  153.5560  135.3530  155.2779 H   0  0  0  0  0  0  0  0  0  0  0  0  # atno 10763 bound_to 10752
  154.8701  135.4125  154.2884 H   0  0  0  0  0  0  0  0  0  0  0  0  # atno 10764 bound_to 10752
  153.3619  135.7060  153.6774 H   0  0  0  0  0  0  0  0  0  0  0  0  # atno 10765 bound_to 10752
  140.6756  134.4200  157.5229 H   0  0  0  0  0  0  0  0  0  0  0  0  # atno 11005 bound_to 11000
  146.2882  140.4371  142.8750 LP  0  0  0  0  0  0  0  0  0  0  0  0  # atno 17320 bound_to 7965
  144.8571  140.7085  143.6131 LP  0  0  0  0  0  0  0  0  0  0  0  0  # atno 17321 bound_to 7965
  139.8795  143.7089  152.3158 LP  0  0  0  0  0  0  0  0  0  0  0  0  # atno 17342 bound_to 10162
  139.7367  144.7569  151.0717 LP  0  0  0  0  0  0  0  0  0  0  0  0  # atno 17343 bound_to 10162
  157.0312  131.0008  151.3312 LP  0  0  0  0  0  0  0  0  0  0  0  0  # atno 17370 bound_to 10713
  157.5276  130.8038  149.7880 LP  0  0  0  0  0  0  0  0  0  0  0  0  # atno 17371 bound_to 10713
  139.8968  134.8652  156.2073 LP  0  0  0  0  0  0  0  0  0  0  0  0  # atno 17394 bound_to 11000
  141.0358  133.6964  156.1510 LP  0  0  0  0  0  0  0  0  0  0  0  0  # atno 17395 bound_to 11000

$$$$
