AV-unprocessed.smi:2356|AV-procd|sdf|9399|dock5
  -GOLD-   2272013 33D 1   1.00000     0.00000
 Structure written by MMmdl.
 54 57  0  0  0  0  0  0  0  0  2 V2000
  146.3692  142.2525  154.1648 C   0  0  0  0  0  0  0  0  0  0  0  0
  147.4468  141.2603  154.5633 C   0  0  0  0  0  0  0  0  0  0  0  0
  148.4959  141.7318  155.2733 N   0  3  0  0  0  0  0  0  0  0  0  0
  149.5279  140.9648  155.6980 C   0  0  0  0  0  0  0  0  0  0  0  0
  150.5662  141.5718  156.4297 N   0  0  0  0  0  0  0  0  0  0  0  0
  150.3530  142.8071  157.1673 C   0  0  0  0  0  0  0  0  0  0  0  0
  151.6463  143.0143  157.9535 C   0  0  0  0  0  0  0  0  0  0  0  0
  152.1024  141.5858  158.2519 C   0  0  0  0  0  0  0  0  0  0  0  0
  151.6211  140.7761  157.0420 C   0  0  0  0  0  0  0  0  0  0  0  0
  149.5241  139.5893  155.3716 C   0  0  0  0  0  0  0  0  0  0  0  0
  148.4526  139.0485  154.6332 C   0  0  0  0  0  0  0  0  0  0  0  0
  147.3843  139.8869  154.2297 C   0  0  0  0  0  0  0  0  0  0  0  0
  146.2777  139.4230  153.4670 N   0  0  0  0  0  0  0  0  0  0  0  0
  145.8333  138.1608  153.3113 C   0  0  0  0  0  0  0  0  0  0  0  0
  146.3384  137.1731  153.8400 O   0  0  0  0  0  0  0  0  0  0  0  0
  144.7415  138.0532  152.5325 N   0  0  0  0  0  0  0  0  0  0  0  0
  144.0065  136.8427  152.1588 C   0  0  2  0  0  0  0  0  0  0  0  0
  143.4388  136.1347  153.4012 C   0  0  0  0  0  0  0  0  0  0  0  0
  142.8123  134.7862  153.0151 C   0  0  0  0  0  0  0  0  0  0  0  0
  143.7739  133.9771  152.3475 O   0  0  0  0  0  0  0  0  0  0  0  0
  144.2374  134.5414  151.1216 C   0  0  2  0  0  0  0  0  0  0  0  0
  145.1604  133.5697  150.4037 C   0  0  0  0  0  0  0  0  0  0  0  0
  144.8211  132.0984  150.2924 C   0  0  0  0  0  0  0  0  0  0  0  0
  145.9655  132.5401  151.1678 C   0  0  0  0  0  0  0  0  0  0  0  0
  144.9425  135.8797  151.4136 C   0  0  0  0  0  0  0  0  0  0  0  0
  146.2595  142.2808  153.0804 H   0  0  0  0  0  0  0  0  0  0  0  0
  146.6090  143.2598  154.5073 H   0  0  0  0  0  0  0  0  0  0  0  0
  145.4117  141.9667  154.6006 H   0  0  0  0  0  0  0  0  0  0  0  0
  150.1480  143.6453  156.5004 H   0  0  0  0  0  0  0  0  0  0  0  0
  149.5062  142.6868  157.8445 H   0  0  0  0  0  0  0  0  0  0  0  0
  152.3858  143.5135  157.3256 H   0  0  0  0  0  0  0  0  0  0  0  0
  151.5060  143.6149  158.8529 H   0  0  0  0  0  0  0  0  0  0  0  0
  153.1780  141.5074  158.4124 H   0  0  0  0  0  0  0  0  0  0  0  0
  151.6035  141.2275  159.1534 H   0  0  0  0  0  0  0  0  0  0  0  0
  151.2705  139.7903  157.3501 H   0  0  0  0  0  0  0  0  0  0  0  0
  152.4267  140.6433  156.3194 H   0  0  0  0  0  0  0  0  0  0  0  0
  150.3361  138.9423  155.6687 H   0  0  0  0  0  0  0  0  0  0  0  0
  148.4798  138.0009  154.3763 H   0  0  0  0  0  0  0  0  0  0  0  0
  145.7083  140.1432  153.0473 H   0  0  0  0  0  0  0  0  0  0  0  0
  144.3652  138.9183  152.1712 H   0  0  0  0  0  0  0  0  0  0  0  0
  143.1879  137.0994  151.4838 H   0  0  0  0  0  0  0  0  0  0  0  0
  144.2347  135.9646  154.1275 H   0  0  0  0  0  0  0  0  0  0  0  0
  142.6947  136.7594  153.8955 H   0  0  0  0  0  0  0  0  0  0  0  0
  142.4717  134.2624  153.9083 H   0  0  0  0  0  0  0  0  0  0  0  0
  141.9378  134.9312  152.3791 H   0  0  0  0  0  0  0  0  0  0  0  0
  143.3799  134.7153  150.4694 H   0  0  0  0  0  0  0  0  0  0  0  0
  145.6525  134.0033  149.5352 H   0  0  0  0  0  0  0  0  0  0  0  0
  143.9204  131.7399  150.7866 H   0  0  0  0  0  0  0  0  0  0  0  0
  145.0680  131.5971  149.3588 H   0  0  0  0  0  0  0  0  0  0  0  0
  146.9747  132.3339  150.8176 H   0  0  0  0  0  0  0  0  0  0  0  0
  145.8267  132.4787  152.2453 H   0  0  0  0  0  0  0  0  0  0  0  0
  145.2816  136.3350  150.4822 H   0  0  0  0  0  0  0  0  0  0  0  0
  145.8353  135.6932  152.0127 H   0  0  0  0  0  0  0  0  0  0  0  0
  148.5097  142.7252  155.5039 H   0  0  0  0  0  0  0  0  0  0  0  0
  1  2  1  0  0  0  0
  1 26  1  0  0  0  0
  1 27  1  0  0  0  0
  1 28  1  0  0  0  0
  2 12  1  0  0  0  0
  2  3  2  0  0  0  0
  3  4  1  0  0  0  0
  3 54  1  0  0  0  0
  4  5  1  0  0  0  0
  4 10  2  0  0  0  0
  5  9  1  0  0  0  0
  5  6  1  0  0  0  0
  6  7  1  0  0  0  0
  6 29  1  0  0  0  0
  6 30  1  0  0  0  0
  7  8  1  0  0  0  0
  7 31  1  0  0  0  0
  7 32  1  0  0  0  0
  8  9  1  0  0  0  0
  8 33  1  0  0  0  0
  8 34  1  0  0  0  0
  9 35  1  0  0  0  0
  9 36  1  0  0  0  0
 10 11  1  0  0  0  0
 10 37  1  0  0  0  0
 11 12  2  0  0  0  0
 11 38  1  0  0  0  0
 12 13  1  0  0  0  0
 13 14  1  0  0  0  0
 13 39  1  0  0  0  0
 14 15  2  0  0  0  0
 14 16  1  0  0  0  0
 16 17  1  0  0  0  0
 16 40  1  0  0  0  0
 17 25  1  0  0  0  0
 17 18  1  0  0  0  0
 17 41  1  0  0  0  0
 18 19  1  0  0  0  0
 18 42  1  0  0  0  0
 18 43  1  0  0  0  0
 19 20  1  0  0  0  0
 19 44  1  0  0  0  0
 19 45  1  0  0  0  0
 20 21  1  0  0  0  0
 21 22  1  0  0  0  0
 21 25  1  0  0  0  0
 21 46  1  0  0  0  0
 22 24  1  0  0  0  0
 22 23  1  0  0  0  0
 22 47  1  0  0  0  0
 23 24  1  0  0  0  0
 23 48  1  0  0  0  0
 23 49  1  0  0  0  0
 24 50  1  0  0  0  0
 24 51  1  0  0  0  0
 25 52  1  0  0  0  0
 25 53  1  0  0  0  0
M  CHG  1   3   1
M  END
> <s_m_source_file>
AV-unprocessed.smi

> <i_m_source_file_index>
2356

> <i_lp_mmshare_version>
43012

> <i_f3d_flags>
0

> <s_epik_input>
W0NIMl0xW0NIMl1bQ0gyXVtDSDJdTjFjKG5jMltDSDNdKVtjSF1bY0hdYzJbTkhdQyg9TylbTkhdW0NAQEhdM1tDSDJdW0NIMl1PW0NASF0oW0NIMl0zKVtDSF00W0NIMl1bQ0gyXTQ=

> <s_epik_cmdline>
J2VwaWtfcHl0aG9uJywgJy1waCcsICc3LjAnLCAnLXRuJywgJzgnLCAnLW1hJywgJzIwMCcsICctbWV0YWxfYmluZGluZycsICctaW1hZScsICc8aW5maWxlLm1hZT4nLCAnLW9tYWUnLCAnPG91dGZpbGUubWFlPic=

> <r_lp_tautomer_probability>
0.999994

> <r_epik_Ionization_Penalty>
0.534681

> <r_epik_Ionization_Penalty_Charging>
0.534661

> <r_epik_Ionization_Penalty_Neutral>
1.99132e-05

> <r_epik_State_Penalty>
0.543738

> <r_epik_Charging_Adjusted_Penalty>
1.0784

> <i_epik_Tot_Q>
1

> <i_epik_Tot_abs_Q>
1

> <r_epik_Metal_State_Penalty>
0.74699

> <b_epik_Metal_Only>
0

> <s_lp_Force_Field>
OPLS_2005

> <r_lp_Energy>
57.2966

> <b_lp_Chiralities_Consistent>
1

> <s_lp_Variant>
AV-unprocessed.smi:2356-7

> <Gold.Version>
5.8.1

> <Gold.Id.Protein>
6NUR|6NUR_protein|mol2

> <Gold.PLP.Fitness>
51.2974

> <Gold.PLP.PLP>
-40.7833

> <Gold.PLP.part.hbond>
-4.0000

> <Gold.PLP.part.metal>
0.0000

> <Gold.PLP.part.buried>
-3.0347

> <Gold.PLP.part.nonpolar>
-34.7094

> <Gold.PLP.part.repulsive>
0.3980

> <Gold.PLP.ligand.clash>
0.0000

> <Gold.PLP.ligand.torsion>
0.7681

> <Gold.PLP.Chemscore.Hbond>
3.5875

> <Gold.PLP.Chemscore.CHOScore>
0.0000

> <Gold.PLP.Chemscore.Metal>
0.0000

> <Gold.Chemscore.Hbonds>
donor molecule, donor type, donor heavy atom, donor atom, acceptor molecule, acceptor atom, score
      L1  H     3    54       P1  8028  2.00
      L1  H    13    39       P1 10175  0.60
      L1  H    16    40       P1 10175  1.00

> <Gold.PLP.Chemscore.Internal.Correction>
1.2877

> <Gold.Rescore>
     Score         DG    S(hbond)    S(metal)    S(lipo)     H(rot)  DE(clash)    DE(int)     intcor
     19.50     -22.77       2.48        0.00     102.06       1.15       0.78       2.49       ----

> <Gold.Chemscore.Fitness>
19.5025

> <Gold.Chemscore.DG>
-22.7746

> <Gold.Chemscore.ZeroCoef>
-5.4800

> <Gold.Chemscore.Hbond>
2.4836

> <Gold.Chemscore.Metal>
0.0000

> <Gold.Chemscore.Lipo>
102.0639

> <Gold.Chemscore.Internal_Hbond>
0.0000

> <Gold.Chemscore.DEClash>
0.7840

> <Gold.Chemscore.DEInternal>
2.4882

> <Gold.Chemscore.Rot>
1.1493

> <Gold.Chemscore.Internal.Correction>
   9.000000E+99

> <Gold.Chemscore.Hbonds>
donor molecule, donor type, donor heavy atom, donor atom, acceptor molecule, acceptor atom, score
      L1  H     3    54       P1  8028  0.93
      L1  H    13    39       P1 10175  0.59
      L1  H    16    40       P1 10175  0.94

> <Gold.Chemscore.Hbond.Weighted>
-8.2953

> <Gold.Chemscore.Metal.Weighted>
-0.0000

> <Gold.Chemscore.Lipo.Weighted>
-11.9415

> <Gold.Chemscore.Internal_Hbond.Weighted>
0.0000

> <Gold.Chemscore.DEClash.Weighted>
0.7840

> <Gold.Chemscore.DEInternal.Weighted>
2.4882

> <Gold.Chemscore.Rot.Weighted>
2.9421

> <Gold.Chemscore.Internal.Correction.Weighted>
   9.000000E+99

> <Gold.Protein.RotatedTorsions>
[ 6907 6896 6895 6894 ] final   16.10 input  -60.11 | X-H torsion
[ 7974 7965 7964 7962 ] final  -28.30 input  175.53 | X-H torsion
[ 8008 7997 7996 7995 ] final   63.90 input   59.86 | X-H torsion
[ 10167 10162 10161 10158 ] final  -59.53 input  -65.29 | X-H torsion
[ 10718 10713 10712 10709 ] final   77.29 input   66.30 | X-H torsion
[ 10763 10752 10751 10750 ] final  116.82 input  -60.55 | X-H torsion
[ 11005 11000 10999 10996 ] final  162.94 input  -57.11 | X-H torsion

> <Gold.Protein.ActiveResidues>
 VAL166  LYS551  ARG553  GLY616  TRP617  ASP618  TYR619  PRO620  LYS621  CYS622 
 ASP623  PHE694  ASN695  SER759  ASP760  ASP761  ALA762  ILE779  LEU786  VAL792 
 PHE793  MET794  SER795  GLU796  ALA797  LYS798  CYS799  TRP800  GLU811  SER814 

> <Gold.Protein.RotatedAtoms>
  151.8286  135.0629  160.0433 H   0  0  0  0  0  0  0  0  0  0  0  0  # atno 6907 bound_to 6896
  152.2898  133.5545  159.5558 H   0  0  0  0  0  0  0  0  0  0  0  0  # atno 6908 bound_to 6896
  150.7225  134.0361  159.3792 H   0  0  0  0  0  0  0  0  0  0  0  0  # atno 6909 bound_to 6896
  146.1297  140.5265  142.8698 H   0  0  0  0  0  0  0  0  0  0  0  0  # atno 7974 bound_to 7965
  155.6375  140.3496  155.4703 H   0  0  0  0  0  0  0  0  0  0  0  0  # atno 8008 bound_to 7997
  155.9953  140.1202  157.0623 H   0  0  0  0  0  0  0  0  0  0  0  0  # atno 8009 bound_to 7997
  154.4231  140.1111  156.5608 H   0  0  0  0  0  0  0  0  0  0  0  0  # atno 8010 bound_to 7997
  140.6129  143.2393  151.5667 H   0  0  0  0  0  0  0  0  0  0  0  0  # atno 10167 bound_to 10162
  157.6705  130.9814  150.1619 H   0  0  0  0  0  0  0  0  0  0  0  0  # atno 10718 bound_to 10713
  153.5430  135.3555  155.2726 H   0  0  0  0  0  0  0  0  0  0  0  0  # atno 10763 bound_to 10752
  154.8715  135.4095  154.3022 H   0  0  0  0  0  0  0  0  0  0  0  0  # atno 10764 bound_to 10752
  153.3733  135.7065  153.6689 H   0  0  0  0  0  0  0  0  0  0  0  0  # atno 10765 bound_to 10752
  140.2308  134.8125  157.3315 H   0  0  0  0  0  0  0  0  0  0  0  0  # atno 11005 bound_to 11000
  144.7678  140.5570  143.6691 LP  0  0  0  0  0  0  0  0  0  0  0  0  # atno 17320 bound_to 7965
  145.5287  139.1475  143.3512 LP  0  0  0  0  0  0  0  0  0  0  0  0  # atno 17321 bound_to 7965
  139.5375  144.2739  152.1282 LP  0  0  0  0  0  0  0  0  0  0  0  0  # atno 17342 bound_to 10162
  140.1942  144.4721  150.6463 LP  0  0  0  0  0  0  0  0  0  0  0  0  # atno 17343 bound_to 10162
  156.2394  130.3689  149.8354 LP  0  0  0  0  0  0  0  0  0  0  0  0  # atno 17370 bound_to 10713
  156.6159  130.8606  151.3465 LP  0  0  0  0  0  0  0  0  0  0  0  0  # atno 17371 bound_to 10713
  140.1752  134.4558  155.7806 LP  0  0  0  0  0  0  0  0  0  0  0  0  # atno 17394 bound_to 11000
  141.2218  133.6959  156.7776 LP  0  0  0  0  0  0  0  0  0  0  0  0  # atno 17395 bound_to 11000

$$$$
