AV-unprocessed.smi:3308|AV-procd|sdf|12715|dock9
  -GOLD-   2272019 53D 1   1.00000     0.00000
 Structure written by MMmdl.
 40 41  0  0  0  0  0  0  0  0  1 V2000
  148.5241  139.9854  157.2429 C   0  0  0  0  0  0  0  0  0  0  0  0
  149.6253  140.9084  156.6929 C   0  0  1  0  0  0  0  0  0  0  0  0
  150.8640  140.5014  157.3612 N   0  0  0  0  0  0  0  0  0  0  0  0
  151.7468  141.6127  157.7556 C   0  0  0  0  0  0  0  0  0  0  0  0
  152.7153  141.2595  158.9004 C   0  0  0  0  0  0  0  0  0  0  0  0
  153.4492  140.2795  158.7643 O   0  0  0  0  0  0  0  0  0  0  0  0
  152.7347  142.0158  160.0195 N   0  0  0  0  0  0  0  0  0  0  0  0
  153.5939  141.7215  161.1652 C   0  0  0  0  0  0  0  0  0  0  0  0
  153.1046  142.6256  162.2963 C   0  0  0  0  0  0  0  0  0  0  0  0
  152.4687  143.8061  161.5773 C   0  0  0  0  0  0  0  0  0  0  0  0
  151.9251  143.2056  160.2809 C   0  0  0  0  0  0  0  0  0  0  0  0
  149.7969  140.8056  155.1511 C   0  0  1  0  0  0  0  0  0  0  0  0
  150.4257  139.4729  154.6975 C   0  0  0  0  0  0  0  0  0  0  0  0
  148.5329  141.0200  154.4544 N   0  0  0  0  0  0  0  0  0  0  0  0
  147.6786  142.0991  154.5528 C   0  0  0  0  0  0  0  0  0  0  0  0
  146.6085  141.8500  153.7422 C   0  0  0  0  0  0  0  0  0  0  0  0
  146.8978  140.5745  153.1829 C   0  0  0  0  0  0  0  0  0  0  0  0
  148.0471  140.0794  153.6115 N   0  0  0  0  0  0  0  0  0  0  0  0
  147.5382  140.2786  156.8829 H   0  0  0  0  0  0  0  0  0  0  0  0
  148.4844  140.0269  158.3323 H   0  0  0  0  0  0  0  0  0  0  0  0
  148.6909  138.9466  156.9553 H   0  0  0  0  0  0  0  0  0  0  0  0
  149.3517  141.9327  156.9492 H   0  0  0  0  0  0  0  0  0  0  0  0
  150.6373  139.9235  158.1581 H   0  0  0  0  0  0  0  0  0  0  0  0
  152.3486  141.8929  156.8912 H   0  0  0  0  0  0  0  0  0  0  0  0
  151.1333  142.4812  157.9819 H   0  0  0  0  0  0  0  0  0  0  0  0
  153.5499  140.6701  161.4536 H   0  0  0  0  0  0  0  0  0  0  0  0
  154.6263  141.9588  160.9041 H   0  0  0  0  0  0  0  0  0  0  0  0
  152.3457  142.1028  162.8800 H   0  0  0  0  0  0  0  0  0  0  0  0
  153.9035  142.9229  162.9761 H   0  0  0  0  0  0  0  0  0  0  0  0
  151.6976  144.2983  162.1707 H   0  0  0  0  0  0  0  0  0  0  0  0
  153.2351  144.5466  161.3447 H   0  0  0  0  0  0  0  0  0  0  0  0
  151.9773  143.9295  159.4665 H   0  0  0  0  0  0  0  0  0  0  0  0
  150.8847  142.9055  160.4104 H   0  0  0  0  0  0  0  0  0  0  0  0
  150.4729  141.6003  154.8309 H   0  0  0  0  0  0  0  0  0  0  0  0
  151.4524  139.3730  155.0482 H   0  0  0  0  0  0  0  0  0  0  0  0
  150.4551  139.4060  153.6094 H   0  0  0  0  0  0  0  0  0  0  0  0
  149.8615  138.6162  155.0679 H   0  0  0  0  0  0  0  0  0  0  0  0
  147.8991  142.9436  155.1889 H   0  0  0  0  0  0  0  0  0  0  0  0
  145.7481  142.4814  153.5768 H   0  0  0  0  0  0  0  0  0  0  0  0
  146.3100  139.9959  152.4858 H   0  0  0  0  0  0  0  0  0  0  0  0
  1  2  1  0  0  0  0
  1 19  1  0  0  0  0
  1 20  1  0  0  0  0
  1 21  1  0  0  0  0
  2  3  1  0  0  0  0
  2 12  1  0  0  0  0
  2 22  1  0  0  0  0
  3  4  1  0  0  0  0
  3 23  1  0  0  0  0
  4  5  1  0  0  0  0
  4 24  1  0  0  0  0
  4 25  1  0  0  0  0
  5  6  2  0  0  0  0
  5  7  1  0  0  0  0
  7 11  1  0  0  0  0
  7  8  1  0  0  0  0
  8  9  1  0  0  0  0
  8 26  1  0  0  0  0
  8 27  1  0  0  0  0
  9 10  1  0  0  0  0
  9 28  1  0  0  0  0
  9 29  1  0  0  0  0
 10 11  1  0  0  0  0
 10 30  1  0  0  0  0
 10 31  1  0  0  0  0
 11 32  1  0  0  0  0
 11 33  1  0  0  0  0
 12 13  1  0  0  0  0
 12 14  1  0  0  0  0
 12 34  1  0  0  0  0
 13 35  1  0  0  0  0
 13 36  1  0  0  0  0
 13 37  1  0  0  0  0
 14 18  1  0  0  0  0
 14 15  1  0  0  0  0
 15 16  2  0  0  0  0
 15 38  1  0  0  0  0
 16 17  1  0  0  0  0
 16 39  1  0  0  0  0
 17 18  2  0  0  0  0
 17 40  1  0  0  0  0
M  END
> <s_m_source_file>
AV-unprocessed.smi

> <i_m_source_file_index>
3308

> <i_lp_mmshare_version>
43012

> <i_f3d_flags>
0

> <s_epik_input>
bjFbY0hdW2NIXVtjSF1uMVtDQEBIXShbQ0gzXSlbQ0BIXShbQ0gzXSlbTkhdW0NIMl1DKD1PKU4yW0NIMl1bQ0gyXVtDSDJdW0NIMl0y

> <s_epik_cmdline>
J2VwaWtfcHl0aG9uJywgJy1waCcsICc3LjAnLCAnLXRuJywgJzgnLCAnLW1hJywgJzIwMCcsICctbWV0YWxfYmluZGluZycsICctaW1hZScsICc8aW5maWxlLm1hZT4nLCAnLW9tYWUnLCAnPG91dGZpbGUubWFlPic=

> <r_lp_tautomer_probability>
1

> <r_epik_Ionization_Penalty>
0.918676

> <r_epik_Ionization_Penalty_Charging>
0

> <r_epik_Ionization_Penalty_Neutral>
0.918676

> <r_epik_State_Penalty>
0.958258

> <r_epik_Charging_Adjusted_Penalty>
0.958258

> <i_epik_Tot_Q>
0

> <i_epik_Tot_abs_Q>
0

> <r_epik_Metal_State_Penalty>
0.956879

> <b_epik_Metal_Only>
0

> <s_lp_Force_Field>
OPLS_2005

> <r_lp_Energy>
35.595

> <b_lp_Chiralities_Consistent>
1

> <s_lp_Variant>
AV-unprocessed.smi:3308-8

> <Gold.Version>
5.8.1

> <Gold.Id.Protein>
6NUR|6NUR_protein|mol2

> <Gold.PLP.Fitness>
47.2939

> <Gold.PLP.PLP>
-40.7333

> <Gold.PLP.part.hbond>
-1.0000

> <Gold.PLP.part.metal>
0.0000

> <Gold.PLP.part.buried>
-2.5953

> <Gold.PLP.part.nonpolar>
-37.1273

> <Gold.PLP.part.repulsive>
1.1548

> <Gold.PLP.ligand.clash>
0.0000

> <Gold.PLP.ligand.torsion>
0.8032

> <Gold.PLP.Chemscore.Hbond>
0.9120

> <Gold.PLP.Chemscore.CHOScore>
1.7758

> <Gold.PLP.Chemscore.Metal>
0.0000

> <Gold.Chemscore.Hbonds>
donor molecule, donor type, donor heavy atom, donor atom, acceptor molecule, acceptor atom, score
      P1  H  7997  8009       L1     6  0.82
      L1  C    15    38       P1  8028  1.00
      L1  C    17    40       P1 10175  0.49

> <Gold.PLP.Chemscore.Internal.Correction>
0.1036

> <Gold.Rescore>
     Score         DG    S(hbond)    S(metal)    S(lipo)     H(rot)  DE(clash)    DE(int)     intcor
     14.12     -14.99       0.86        0.00      94.32       1.72       0.05       0.82       ----

> <Gold.Chemscore.Fitness>
14.1192

> <Gold.Chemscore.DG>
-14.9859

> <Gold.Chemscore.ZeroCoef>
-5.4800

> <Gold.Chemscore.Hbond>
0.8604

> <Gold.Chemscore.Metal>
0.0000

> <Gold.Chemscore.Lipo>
94.3195

> <Gold.Chemscore.Internal_Hbond>
0.0000

> <Gold.Chemscore.DEClash>
0.0456

> <Gold.Chemscore.DEInternal>
0.8211

> <Gold.Chemscore.Rot>
1.7200

> <Gold.Chemscore.Internal.Correction>
   9.000000E+99

> <Gold.Chemscore.Hbonds>
donor molecule, donor type, donor heavy atom, donor atom, acceptor molecule, acceptor atom, score
      P1  H  7997  8009       L1     6  0.76

> <Gold.Chemscore.Hbond.Weighted>
-2.8736

> <Gold.Chemscore.Metal.Weighted>
-0.0000

> <Gold.Chemscore.Lipo.Weighted>
-11.0354

> <Gold.Chemscore.Internal_Hbond.Weighted>
0.0000

> <Gold.Chemscore.DEClash.Weighted>
0.0456

> <Gold.Chemscore.DEInternal.Weighted>
0.8211

> <Gold.Chemscore.Rot.Weighted>
4.4031

> <Gold.Chemscore.Internal.Correction.Weighted>
   9.000000E+99

> <Gold.Protein.RotatedTorsions>
[ 6907 6896 6895 6894 ] final  -12.00 input  -60.11 | X-H torsion
[ 7974 7965 7964 7962 ] final  168.87 input  175.53 | X-H torsion
[ 8008 7997 7996 7995 ] final  148.80 input   59.86 | X-H torsion
[ 10167 10162 10161 10158 ] final   36.39 input  -65.29 | X-H torsion
[ 10718 10713 10712 10709 ] final  178.61 input   66.30 | X-H torsion
[ 10763 10752 10751 10750 ] final  153.12 input  -60.55 | X-H torsion
[ 11005 11000 10999 10996 ] final   -2.80 input  -57.11 | X-H torsion

> <Gold.Protein.ActiveResidues>
 VAL166  LYS551  ARG553  GLY616  TRP617  ASP618  TYR619  PRO620  LYS621  CYS622 
 ASP623  PHE694  ASN695  SER759  ASP760  ASP761  ALA762  ILE779  LEU786  VAL792 
 PHE793  MET794  SER795  GLU796  ALA797  LYS798  CYS799  TRP800  GLU811  SER814 

> <Gold.Protein.RotatedAtoms>
  151.3773  135.0933  159.9484 H   0  0  0  0  0  0  0  0  0  0  0  0  # atno 6907 bound_to 6896
  152.5118  133.9106  159.7496 H   0  0  0  0  0  0  0  0  0  0  0  0  # atno 6908 bound_to 6896
  150.9532  133.6471  159.2797 H   0  0  0  0  0  0  0  0  0  0  0  0  # atno 6909 bound_to 6896
  144.7374  139.8970  143.6407 H   0  0  0  0  0  0  0  0  0  0  0  0  # atno 7974 bound_to 7965
  156.2778  140.2119  156.5756 H   0  0  0  0  0  0  0  0  0  0  0  0  # atno 8008 bound_to 7997
  154.7100  140.0513  157.0564 H   0  0  0  0  0  0  0  0  0  0  0  0  # atno 8009 bound_to 7997
  155.0619  140.3167  155.4661 H   0  0  0  0  0  0  0  0  0  0  0  0  # atno 8010 bound_to 7997
  140.4132  144.1564  150.6141 H   0  0  0  0  0  0  0  0  0  0  0  0  # atno 10167 bound_to 10162
  156.8880  130.9838  151.3053 H   0  0  0  0  0  0  0  0  0  0  0  0  # atno 10718 bound_to 10713
  154.1310  135.2826  155.3185 H   0  0  0  0  0  0  0  0  0  0  0  0  # atno 10763 bound_to 10752
  154.6355  135.5420  153.7733 H   0  0  0  0  0  0  0  0  0  0  0  0  # atno 10764 bound_to 10752
  153.0281  135.6473  154.1460 H   0  0  0  0  0  0  0  0  0  0  0  0  # atno 10765 bound_to 10752
  140.6624  133.9309  155.8444 H   0  0  0  0  0  0  0  0  0  0  0  0  # atno 11005 bound_to 11000
  146.1100  139.4103  143.0294 LP  0  0  0  0  0  0  0  0  0  0  0  0  # atno 17320 bound_to 7965
  145.7457  140.9991  143.1277 LP  0  0  0  0  0  0  0  0  0  0  0  0  # atno 17321 bound_to 7965
  140.4615  143.2447  151.9213 LP  0  0  0  0  0  0  0  0  0  0  0  0  # atno 17342 bound_to 10162
  139.4782  144.5462  151.8454 LP  0  0  0  0  0  0  0  0  0  0  0  0  # atno 17343 bound_to 10162
  157.6101  130.8576  149.8937 LP  0  0  0  0  0  0  0  0  0  0  0  0  # atno 17370 bound_to 10713
  156.0643  130.3694  150.0912 LP  0  0  0  0  0  0  0  0  0  0  0  0  # atno 17371 bound_to 10713
  141.0455  134.0560  157.3849 LP  0  0  0  0  0  0  0  0  0  0  0  0  # atno 17394 bound_to 11000
  139.9008  135.0164  156.7261 LP  0  0  0  0  0  0  0  0  0  0  0  0  # atno 17395 bound_to 11000

$$$$
