AV-unprocessed.smi:3135|AV-procd|sdf|11945|dock2
  -GOLD-   2272017333D 1   1.00000     0.00000
 Structure written by MMmdl.
 38 39  0  0  0  0  0  0  0  0  2 V2000
  147.5330  141.2600  153.3518 C   0  0  0  0  0  0  0  0  0  0  0  0
  148.7059  140.5086  153.9125 C   0  0  0  0  0  0  0  0  0  0  0  0
  149.8021  141.0303  154.6567 C   0  0  0  0  0  0  0  0  0  0  0  0
  150.6751  140.0998  155.0069 N   0  0  0  0  0  0  0  0  0  0  0  0
  150.1692  138.9542  154.5015 N   0  0  0  0  0  0  0  0  0  0  0  0
  150.8751  137.6997  154.7000 C   0  0  0  0  0  0  0  0  0  0  0  0
  150.0373  136.6854  155.4845 C   0  0  0  0  0  0  0  0  0  0  0  0
  150.2869  136.4716  156.6706 O   0  0  0  0  0  0  0  0  0  0  0  0
  149.0585  136.0534  154.8157 N   0  0  0  0  0  0  0  0  0  0  0  0
  148.1528  135.0710  155.3993 C   0  0  0  0  0  0  0  0  0  0  0  0
  147.6376  134.0787  154.3393 C   0  0  0  0  0  0  0  0  0  0  0  0
  146.9463  134.7442  153.2061 N   0  3  1  0  0  0  0  0  0  0  0  0
  146.5707  133.7665  152.1592 C   0  0  0  0  0  0  0  0  0  0  0  0
  145.7805  135.5529  153.6388 C   0  0  0  0  0  0  0  0  0  0  0  0
  145.5182  136.7690  152.7763 C   0  0  0  0  0  0  0  0  0  0  0  0
  146.1357  136.9341  154.1440 C   0  0  0  0  0  0  0  0  0  0  0  0
  148.9831  139.1733  153.8329 C   0  0  0  0  0  0  0  0  0  0  0  0
  147.1948  142.0439  154.0295 H   0  0  0  0  0  0  0  0  0  0  0  0
  146.6809  140.6045  153.1699 H   0  0  0  0  0  0  0  0  0  0  0  0
  147.7794  141.7379  152.4036 H   0  0  0  0  0  0  0  0  0  0  0  0
  149.9883  142.0528  154.9511 H   0  0  0  0  0  0  0  0  0  0  0  0
  151.1356  137.2805  153.7275 H   0  0  0  0  0  0  0  0  0  0  0  0
  151.8114  137.8995  155.2243 H   0  0  0  0  0  0  0  0  0  0  0  0
  148.9185  136.2886  153.8435 H   0  0  0  0  0  0  0  0  0  0  0  0
  148.6683  134.5541  156.2093 H   0  0  0  0  0  0  0  0  0  0  0  0
  147.3160  135.6044  155.8510 H   0  0  0  0  0  0  0  0  0  0  0  0
  148.4916  133.5185  153.9550 H   0  0  0  0  0  0  0  0  0  0  0  0
  146.9651  133.3462  154.7884 H   0  0  0  0  0  0  0  0  0  0  0  0
  145.8667  133.0302  152.5492 H   0  0  0  0  0  0  0  0  0  0  0  0
  147.4501  133.2373  151.7907 H   0  0  0  0  0  0  0  0  0  0  0  0
  146.1071  134.2602  151.3051 H   0  0  0  0  0  0  0  0  0  0  0  0
  144.9420  135.0010  154.0603 H   0  0  0  0  0  0  0  0  0  0  0  0
  146.1610  136.9494  151.9165 H   0  0  0  0  0  0  0  0  0  0  0  0
  144.4838  137.0847  152.6563 H   0  0  0  0  0  0  0  0  0  0  0  0
  145.5096  137.3568  154.9271 H   0  0  0  0  0  0  0  0  0  0  0  0
  147.1860  137.2166  154.1857 H   0  0  0  0  0  0  0  0  0  0  0  0
  148.4383  138.3685  153.3616 H   0  0  0  0  0  0  0  0  0  0  0  0
  147.6097  135.3775  152.7831 H   0  0  0  0  0  0  0  0  0  0  0  0
  1  2  1  0  0  0  0
  1 18  1  0  0  0  0
  1 19  1  0  0  0  0
  1 20  1  0  0  0  0
  2 17  2  0  0  0  0
  2  3  1  0  0  0  0
  3  4  2  0  0  0  0
  3 21  1  0  0  0  0
  4  5  1  0  0  0  0
  5  6  1  0  0  0  0
  5 17  1  0  0  0  0
  6  7  1  0  0  0  0
  6 22  1  0  0  0  0
  6 23  1  0  0  0  0
  7  8  2  0  0  0  0
  7  9  1  0  0  0  0
  9 10  1  0  0  0  0
  9 24  1  0  0  0  0
 10 11  1  0  0  0  0
 10 25  1  0  0  0  0
 10 26  1  0  0  0  0
 11 12  1  0  0  0  0
 11 27  1  0  0  0  0
 11 28  1  0  0  0  0
 12 13  1  0  0  0  0
 12 14  1  0  0  0  0
 12 38  1  0  0  0  0
 13 29  1  0  0  0  0
 13 30  1  0  0  0  0
 13 31  1  0  0  0  0
 14 16  1  0  0  0  0
 14 15  1  0  0  0  0
 14 32  1  0  0  0  0
 15 16  1  0  0  0  0
 15 33  1  0  0  0  0
 15 34  1  0  0  0  0
 16 35  1  0  0  0  0
 16 36  1  0  0  0  0
 17 37  1  0  0  0  0
M  CHG  1  12   1
M  END
> <s_m_source_file>
AV-unprocessed.smi

> <i_m_source_file_index>
3135

> <i_lp_mmshare_version>
43012

> <i_f3d_flags>
0

> <s_epik_input>
W0NIM11jMVtjSF1ubihbY0hdMSlbQ0gyXUMoPU8pW05IXVtDSDJdW0NIMl1OKFtDSDNdKVtDSF0yW0NIMl1bQ0gyXTI=

> <s_epik_cmdline>
J2VwaWtfcHl0aG9uJywgJy1waCcsICc3LjAnLCAnLXRuJywgJzgnLCAnLW1hJywgJzIwMCcsICctbWV0YWxfYmluZGluZycsICctaW1hZScsICc8aW5maWxlLm1hZT4nLCAnLW9tYWUnLCAnPG91dGZpbGUubWFlPic=

> <r_lp_tautomer_probability>
1

> <r_epik_Ionization_Penalty>
0.174318

> <r_epik_Ionization_Penalty_Charging>
0.174302

> <r_epik_Ionization_Penalty_Neutral>
1.62778e-05

> <r_epik_State_Penalty>
0.163722

> <r_epik_Charging_Adjusted_Penalty>
0.338024

> <i_epik_Tot_Q>
1

> <i_epik_Tot_abs_Q>
1

> <r_epik_Metal_State_Penalty>
0.163727

> <b_epik_Metal_Only>
0

> <s_lp_Force_Field>
OPLS_2005

> <r_lp_Energy>
17.6271

> <b_lp_Chiralities_Consistent>
1

> <s_lp_Variant>
AV-unprocessed.smi:3135-1

> <Gold.Version>
5.8.1

> <Gold.Id.Protein>
6NUR|6NUR_protein|mol2

> <Gold.PLP.Fitness>
46.9334

> <Gold.PLP.PLP>
-29.0329

> <Gold.PLP.part.hbond>
-4.8215

> <Gold.PLP.part.metal>
0.0000

> <Gold.PLP.part.buried>
0.4694

> <Gold.PLP.part.nonpolar>
-23.3324

> <Gold.PLP.part.repulsive>
0.1782

> <Gold.PLP.ligand.clash>
0.0000

> <Gold.PLP.ligand.torsion>
1.0397

> <Gold.PLP.Chemscore.Hbond>
5.0000

> <Gold.PLP.Chemscore.CHOScore>
1.2210

> <Gold.PLP.Chemscore.Metal>
0.0000

> <Gold.Chemscore.Hbonds>
donor molecule, donor type, donor heavy atom, donor atom, acceptor molecule, acceptor atom, score
      L1  H     9    24       P1  7948  1.00
      L1  H    12    38       P1  7948  2.00
      P1  H  7989  7998       L1     4  0.05
      L1  C    17    37       P1  7948  0.72

> <Gold.PLP.Chemscore.Internal.Correction>
1.3169

> <Gold.Rescore>
     Score         DG    S(hbond)    S(metal)    S(lipo)     H(rot)  DE(clash)    DE(int)     intcor
     13.47     -14.80       2.50        0.00      51.11       1.96       0.05       1.28       ----

> <Gold.Chemscore.Fitness>
13.4651

> <Gold.Chemscore.DG>
-14.7973

> <Gold.Chemscore.ZeroCoef>
-5.4800

> <Gold.Chemscore.Hbond>
2.4980

> <Gold.Chemscore.Metal>
0.0000

> <Gold.Chemscore.Lipo>
51.1094

> <Gold.Chemscore.Internal_Hbond>
0.0000

> <Gold.Chemscore.DEClash>
0.0475

> <Gold.Chemscore.DEInternal>
1.2847

> <Gold.Chemscore.Rot>
1.9555

> <Gold.Chemscore.Internal.Correction>
   9.000000E+99

> <Gold.Chemscore.Hbonds>
donor molecule, donor type, donor heavy atom, donor atom, acceptor molecule, acceptor atom, score
      L1  H     9    24       P1  7948  0.98
      L1  H    12    38       P1  7948  1.00

> <Gold.Chemscore.Hbond.Weighted>
-8.3435

> <Gold.Chemscore.Metal.Weighted>
-0.0000

> <Gold.Chemscore.Lipo.Weighted>
-5.9798

> <Gold.Chemscore.Internal_Hbond.Weighted>
0.0000

> <Gold.Chemscore.DEClash.Weighted>
0.0475

> <Gold.Chemscore.DEInternal.Weighted>
1.2847

> <Gold.Chemscore.Rot.Weighted>
5.0060

> <Gold.Chemscore.Internal.Correction.Weighted>
   9.000000E+99

> <Gold.Protein.RotatedTorsions>
[ 6907 6896 6895 6894 ] final  126.85 input  -60.11 | X-H torsion
[ 7974 7965 7964 7962 ] final  -95.52 input  175.53 | X-H torsion
[ 8008 7997 7996 7995 ] final -146.44 input   59.86 | X-H torsion
[ 10167 10162 10161 10158 ] final  101.40 input  -65.29 | X-H torsion
[ 10718 10713 10712 10709 ] final  142.87 input   66.30 | X-H torsion
[ 10763 10752 10751 10750 ] final -143.44 input  -60.55 | X-H torsion
[ 11005 11000 10999 10996 ] final  137.69 input  -57.11 | X-H torsion

> <Gold.Protein.ActiveResidues>
 VAL166  LYS551  ARG553  GLY616  TRP617  ASP618  TYR619  PRO620  LYS621  CYS622 
 ASP623  PHE694  ASN695  SER759  ASP760  ASP761  ALA762  ILE779  LEU786  VAL792 
 PHE793  MET794  SER795  GLU796  ALA797  LYS798  CYS799  TRP800  GLU811  SER814 

> <Gold.Protein.RotatedAtoms>
  152.3866  133.6620  159.6203 H   0  0  0  0  0  0  0  0  0  0  0  0  # atno 6907 bound_to 6896
  150.7784  133.9024  159.3354 H   0  0  0  0  0  0  0  0  0  0  0  0  # atno 6908 bound_to 6896
  151.6820  135.0961  160.0269 H   0  0  0  0  0  0  0  0  0  0  0  0  # atno 6909 bound_to 6896
  145.3589  140.9488  143.2512 H   0  0  0  0  0  0  0  0  0  0  0  0  # atno 7974 bound_to 7965
  155.5594  140.0624  157.2832 H   0  0  0  0  0  0  0  0  0  0  0  0  # atno 8008 bound_to 7997
  154.4395  140.1888  156.0812 H   0  0  0  0  0  0  0  0  0  0  0  0  # atno 8009 bound_to 7997
  156.0458  140.3290  155.7299 H   0  0  0  0  0  0  0  0  0  0  0  0  # atno 8010 bound_to 7997
  139.7441  144.7003  151.0531 H   0  0  0  0  0  0  0  0  0  0  0  0  # atno 10167 bound_to 10162
  157.3755  131.0985  151.0788 H   0  0  0  0  0  0  0  0  0  0  0  0  # atno 10718 bound_to 10713
  154.8470  135.3468  154.6187 H   0  0  0  0  0  0  0  0  0  0  0  0  # atno 10763 bound_to 10752
  153.6796  135.6981  153.5126 H   0  0  0  0  0  0  0  0  0  0  0  0  # atno 10764 bound_to 10752
  153.2679  135.4302  155.0914 H   0  0  0  0  0  0  0  0  0  0  0  0  # atno 10765 bound_to 10752
  140.0132  134.9430  157.0321 H   0  0  0  0  0  0  0  0  0  0  0  0  # atno 11005 bound_to 11000
  144.8661  139.5106  143.6789 LP  0  0  0  0  0  0  0  0  0  0  0  0  # atno 17320 bound_to 7965
  146.2936  139.7211  142.9143 LP  0  0  0  0  0  0  0  0  0  0  0  0  # atno 17321 bound_to 7965
  140.7790  143.4888  150.9920 LP  0  0  0  0  0  0  0  0  0  0  0  0  # atno 17342 bound_to 10162
  139.8576  143.7356  152.3175 LP  0  0  0  0  0  0  0  0  0  0  0  0  # atno 17343 bound_to 10162
  157.1876  130.6337  149.5693 LP  0  0  0  0  0  0  0  0  0  0  0  0  # atno 17370 bound_to 10713
  155.9764  130.4733  150.6528 LP  0  0  0  0  0  0  0  0  0  0  0  0  # atno 17371 bound_to 10713
  140.4518  134.1575  155.7182 LP  0  0  0  0  0  0  0  0  0  0  0  0  # atno 17394 bound_to 11000
  141.1725  133.8580  157.1526 LP  0  0  0  0  0  0  0  0  0  0  0  0  # atno 17395 bound_to 11000

$$$$
