AV-unprocessed.smi:1986|AV-procd|sdf|8050|dock1
  -GOLD-   2272010253D 1   1.00000     0.00000
 Structure written by MMmdl.
 47 48  0  0  0  0  0  0  0  0  1 V2000
  148.5835  134.5112  157.7250 C   0  0  0  0  0  0  0  0  0  0  0  0
  149.0793  135.7818  157.0110 C   0  0  0  0  0  0  0  0  0  0  0  0
  148.9914  135.7585  155.4512 C   0  0  1  0  0  0  0  0  0  0  0  0
  149.7556  134.4889  154.9868 C   0  0  0  0  0  0  0  0  0  0  0  0
  147.4907  135.6001  155.0512 C   0  0  0  0  0  0  0  0  0  0  0  0
  147.2968  135.5043  153.6057 N   0  0  0  0  0  0  0  0  0  0  0  0
  146.2574  134.9208  152.9923 C   0  0  0  0  0  0  0  0  0  0  0  0
  145.3026  134.4280  153.5941 O   0  0  0  0  0  0  0  0  0  0  0  0
  146.3019  134.9132  151.4576 C   0  0  0  0  0  0  0  0  0  0  0  0
  145.4594  133.8666  150.8618 N   0  0  0  0  0  0  0  0  0  0  0  0
  144.7056  134.2919  149.7786 N   0  0  0  0  0  0  0  0  0  0  0  0
  143.9213  133.4644  149.1748 C   0  0  0  0  0  0  0  0  0  0  0  0
  143.1914  133.9282  148.1083 O   0  0  0  0  0  0  0  0  0  0  0  0
  143.8110  132.0877  149.6044 C   0  0  0  0  0  0  0  0  0  0  0  0
  144.5533  131.6814  150.6574 C   0  0  0  0  0  0  0  0  0  0  0  0
  145.4549  132.5932  151.3638 C   0  0  0  0  0  0  0  0  0  0  0  0
  146.1475  132.2491  152.3217 O   0  0  0  0  0  0  0  0  0  0  0  0
  149.6053  136.9813  154.8597 N   0  0  0  0  0  0  0  0  0  0  0  0
  148.9200  138.2401  155.1760 C   0  0  0  0  0  0  0  0  0  0  0  0
  149.5237  139.4322  154.4140 C   0  0  0  0  0  0  0  0  0  0  0  0
  150.9132  139.5322  154.7020 O   0  0  0  0  0  0  0  0  0  0  0  0
  151.6255  138.3501  154.3574 C   0  0  0  0  0  0  0  0  0  0  0  0
  151.0396  137.1518  155.1228 C   0  0  0  0  0  0  0  0  0  0  0  0
  142.3069  134.0152  148.4292 H   0  0  0  0  0  0  0  0  0  0  0  0
  148.6907  134.6158  158.8047 H   0  0  0  0  0  0  0  0  0  0  0  0
  149.1510  133.6297  157.4270 H   0  0  0  0  0  0  0  0  0  0  0  0
  147.5306  134.3177  157.5222 H   0  0  0  0  0  0  0  0  0  0  0  0
  148.5028  136.6194  157.4054 H   0  0  0  0  0  0  0  0  0  0  0  0
  150.1016  135.9873  157.3284 H   0  0  0  0  0  0  0  0  0  0  0  0
  149.4970  133.6122  155.5817 H   0  0  0  0  0  0  0  0  0  0  0  0
  150.8354  134.6192  155.0634 H   0  0  0  0  0  0  0  0  0  0  0  0
  149.5322  134.2339  153.9507 H   0  0  0  0  0  0  0  0  0  0  0  0
  147.0660  134.7202  155.5350 H   0  0  0  0  0  0  0  0  0  0  0  0
  146.9024  136.4520  155.3910 H   0  0  0  0  0  0  0  0  0  0  0  0
  148.0291  135.8894  153.0269 H   0  0  0  0  0  0  0  0  0  0  0  0
  145.9899  135.8987  151.1073 H   0  0  0  0  0  0  0  0  0  0  0  0
  147.3322  134.7938  151.1164 H   0  0  0  0  0  0  0  0  0  0  0  0
  143.1484  131.4083  149.0888 H   0  0  0  0  0  0  0  0  0  0  0  0
  144.4808  130.6561  150.9891 H   0  0  0  0  0  0  0  0  0  0  0  0
  147.8631  138.1844  154.9212 H   0  0  0  0  0  0  0  0  0  0  0  0
  148.9783  138.4449  156.2448 H   0  0  0  0  0  0  0  0  0  0  0  0
  149.3744  139.3194  153.3390 H   0  0  0  0  0  0  0  0  0  0  0  0
  149.0320  140.3589  154.7100 H   0  0  0  0  0  0  0  0  0  0  0  0
  151.5717  138.1837  153.2803 H   0  0  0  0  0  0  0  0  0  0  0  0
  152.6778  138.4825  154.6091 H   0  0  0  0  0  0  0  0  0  0  0  0
  151.2144  137.3001  156.1883 H   0  0  0  0  0  0  0  0  0  0  0  0
  151.5998  136.2654  154.8312 H   0  0  0  0  0  0  0  0  0  0  0  0
  1  2  1  0  0  0  0
  1 25  1  0  0  0  0
  1 26  1  0  0  0  0
  1 27  1  0  0  0  0
  2  3  1  0  0  0  0
  2 28  1  0  0  0  0
  2 29  1  0  0  0  0
  3  4  1  0  0  0  0
  3  5  1  0  0  0  0
  3 18  1  0  0  0  0
  4 30  1  0  0  0  0
  4 31  1  0  0  0  0
  4 32  1  0  0  0  0
  5  6  1  0  0  0  0
  5 33  1  0  0  0  0
  5 34  1  0  0  0  0
  6  7  1  0  0  0  0
  6 35  1  0  0  0  0
  7  8  2  0  0  0  0
  7  9  1  0  0  0  0
  9 36  1  0  0  0  0
  9 37  1  0  0  0  0
  9 10  1  0  0  0  0
 10 11  1  0  0  0  0
 10 16  1  0  0  0  0
 11 12  2  0  0  0  0
 12 13  1  0  0  0  0
 12 14  1  0  0  0  0
 13 24  1  0  0  0  0
 14 38  1  0  0  0  0
 14 15  2  0  0  0  0
 15 39  1  0  0  0  0
 15 16  1  0  0  0  0
 16 17  2  0  0  0  0
 18 23  1  0  0  0  0
 18 19  1  0  0  0  0
 19 20  1  0  0  0  0
 19 40  1  0  0  0  0
 19 41  1  0  0  0  0
 20 21  1  0  0  0  0
 20 42  1  0  0  0  0
 20 43  1  0  0  0  0
 21 22  1  0  0  0  0
 22 23  1  0  0  0  0
 22 44  1  0  0  0  0
 22 45  1  0  0  0  0
 23 46  1  0  0  0  0
 23 47  1  0  0  0  0
M  END
> <s_m_source_file>
AV-unprocessed.smi

> <i_m_source_file_index>
1986

> <i_lp_mmshare_version>
43012

> <i_f3d_flags>
0

> <s_epik_input>
W0NIMl0xW0NIMl1PW0NIMl1bQ0gyXU4xW0NAQF0oW0NIM10pKFtDSDJdW0NIM10pW0NIMl1bTkhdQyg9TylbQ0gyXW4yW25IXWMoPU8pW2NIXVtjSF1jMj1P

> <s_epik_cmdline>
J2VwaWtfcHl0aG9uJywgJy1waCcsICc3LjAnLCAnLXRuJywgJzgnLCAnLW1hJywgJzIwMCcsICctbWV0YWxfYmluZGluZycsICctaW1hZScsICc8aW5maWxlLm1hZT4nLCAnLW9tYWUnLCAnPG91dGZpbGUubWFlPic=

> <r_epik_Ionization_Penalty>
2.44436

> <r_epik_Ionization_Penalty_Charging>
3.63754e-08

> <r_epik_Ionization_Penalty_Neutral>
2.44436

> <r_epik_State_Penalty>
2.04701

> <r_epik_Charging_Adjusted_Penalty>
2.04701

> <i_epik_Tot_Q>
0

> <i_epik_Tot_abs_Q>
0

> <r_epik_Metal_State_Penalty>
2.04701

> <b_epik_Metal_Only>
0

> <s_lp_Force_Field>
OPLS_2005

> <r_lp_Energy>
55.4417

> <b_lp_Chiralities_Consistent>
1

> <s_lp_Variant>
AV-unprocessed.smi:1986-5

> <Gold.Version>
5.8.1

> <Gold.Id.Protein>
6NUR|6NUR_protein|mol2

> <Gold.PLP.Fitness>
38.5819

> <Gold.PLP.PLP>
-30.7680

> <Gold.PLP.part.hbond>
-5.8026

> <Gold.PLP.part.metal>
0.0000

> <Gold.PLP.part.buried>
-1.3922

> <Gold.PLP.part.nonpolar>
-26.7315

> <Gold.PLP.part.repulsive>
3.7601

> <Gold.PLP.ligand.clash>
0.0000

> <Gold.PLP.ligand.torsion>
0.7340

> <Gold.PLP.Chemscore.Hbond>
3.0000

> <Gold.PLP.Chemscore.CHOScore>
0.0000

> <Gold.PLP.Chemscore.Metal>
0.0000

> <Gold.Chemscore.Hbonds>
donor molecule, donor type, donor heavy atom, donor atom, acceptor molecule, acceptor atom, score
      L1  H     6    35       P1  7948  0.98
      L1  H    13    24       P1 10186  1.00
      P1  H  7989  7998       L1    21  1.00

> <Gold.PLP.Chemscore.Internal.Correction>
0.2819

> <Gold.Rescore>
     Score         DG    S(hbond)    S(metal)    S(lipo)     H(rot)  DE(clash)    DE(int)     intcor
      7.73     -13.00       2.30        0.00      65.63       3.06       0.29       4.98       ----

> <Gold.Chemscore.Fitness>
7.7301

> <Gold.Chemscore.DG>
-13.0048

> <Gold.Chemscore.ZeroCoef>
-5.4800

> <Gold.Chemscore.Hbond>
2.3008

> <Gold.Chemscore.Metal>
0.0000

> <Gold.Chemscore.Lipo>
65.6299

> <Gold.Chemscore.Internal_Hbond>
0.0000

> <Gold.Chemscore.DEClash>
0.2948

> <Gold.Chemscore.DEInternal>
4.9799

> <Gold.Chemscore.Rot>
3.0620

> <Gold.Chemscore.Internal.Correction>
   9.000000E+99

> <Gold.Chemscore.Hbonds>
donor molecule, donor type, donor heavy atom, donor atom, acceptor molecule, acceptor atom, score
      L1  H     6    35       P1  7948  0.91
      L1  H    13    24       P1 10186  0.99
      P1  H  7989  7998       L1    21  0.24

> <Gold.Chemscore.Hbond.Weighted>
-7.6848

> <Gold.Chemscore.Metal.Weighted>
-0.0000

> <Gold.Chemscore.Lipo.Weighted>
-7.6787

> <Gold.Chemscore.Internal_Hbond.Weighted>
0.0000

> <Gold.Chemscore.DEClash.Weighted>
0.2948

> <Gold.Chemscore.DEInternal.Weighted>
4.9799

> <Gold.Chemscore.Rot.Weighted>
7.8387

> <Gold.Chemscore.Internal.Correction.Weighted>
   9.000000E+99

> <Gold.Protein.RotatedTorsions>
[ 6907 6896 6895 6894 ] final  -11.16 input  -60.11 | X-H torsion
[ 7974 7965 7964 7962 ] final -136.33 input  175.53 | X-H torsion
[ 8008 7997 7996 7995 ] final   88.17 input   59.86 | X-H torsion
[ 10167 10162 10161 10158 ] final   71.73 input  -65.29 | X-H torsion
[ 10718 10713 10712 10709 ] final   73.10 input   66.30 | X-H torsion
[ 10763 10752 10751 10750 ] final  -70.72 input  -60.55 | X-H torsion
[ 11005 11000 10999 10996 ] final   64.13 input  -57.11 | X-H torsion

> <Gold.Protein.ActiveResidues>
 VAL166  LYS551  ARG553  GLY616  TRP617  ASP618  TYR619  PRO620  LYS621  CYS622 
 ASP623  PHE694  ASN695  SER759  ASP760  ASP761  ALA762  ILE779  LEU786  VAL792 
 PHE793  MET794  SER795  GLU796  ALA797  LYS798  CYS799  TRP800  GLU811  SER814 

> <Gold.Protein.RotatedAtoms>
  151.3906  135.0955  159.9524 H   0  0  0  0  0  0  0  0  0  0  0  0  # atno 6907 bound_to 6896
  152.5081  133.8983  159.7439 H   0  0  0  0  0  0  0  0  0  0  0  0  # atno 6908 bound_to 6896
  150.9436  133.6572  159.2814 H   0  0  0  0  0  0  0  0  0  0  0  0  # atno 6909 bound_to 6896
  144.8936  140.6676  143.5129 H   0  0  0  0  0  0  0  0  0  0  0  0  # atno 7974 bound_to 7965
  155.9844  140.3374  155.6694 H   0  0  0  0  0  0  0  0  0  0  0  0  # atno 8008 bound_to 7997
  155.6505  140.0705  157.2606 H   0  0  0  0  0  0  0  0  0  0  0  0  # atno 8009 bound_to 7997
  154.4201  140.1726  156.1657 H   0  0  0  0  0  0  0  0  0  0  0  0  # atno 8010 bound_to 7997
  140.0429  144.5374  150.7420 H   0  0  0  0  0  0  0  0  0  0  0  0  # atno 10167 bound_to 10162
  157.6532  130.9612  150.1022 H   0  0  0  0  0  0  0  0  0  0  0  0  # atno 10718 bound_to 10713
  154.4216  135.5985  153.6013 H   0  0  0  0  0  0  0  0  0  0  0  0  # atno 10763 bound_to 10752
  152.9794  135.5953  154.3948 H   0  0  0  0  0  0  0  0  0  0  0  0  # atno 10764 bound_to 10752
  154.3774  135.2841  155.2209 H   0  0  0  0  0  0  0  0  0  0  0  0  # atno 10765 bound_to 10752
  139.9979  134.6489  155.9980 H   0  0  0  0  0  0  0  0  0  0  0  0  # atno 11005 bound_to 11000
  145.3739  139.1652  143.4317 LP  0  0  0  0  0  0  0  0  0  0  0  0  # atno 17320 bound_to 7965
  146.3068  140.3814  142.8684 LP  0  0  0  0  0  0  0  0  0  0  0  0  # atno 17321 bound_to 7965
  140.7252  143.2628  151.4145 LP  0  0  0  0  0  0  0  0  0  0  0  0  # atno 17342 bound_to 10162
  139.6002  144.1312  152.2189 LP  0  0  0  0  0  0  0  0  0  0  0  0  # atno 17343 bound_to 10162
  156.1942  130.3656  149.8871 LP  0  0  0  0  0  0  0  0  0  0  0  0  # atno 17370 bound_to 10713
  156.6791  130.8851  151.3573 LP  0  0  0  0  0  0  0  0  0  0  0  0  # atno 17371 bound_to 10713
  141.1619  133.6538  156.4346 LP  0  0  0  0  0  0  0  0  0  0  0  0  # atno 17394 bound_to 11000
  140.4784  134.6688  157.5160 LP  0  0  0  0  0  0  0  0  0  0  0  0  # atno 17395 bound_to 11000

$$$$
