AV-unprocessed.smi:148|AV-procd|sdf|1205|dock6
  -GOLD-   2262018373D 1   1.00000     0.00000
 Structure written by MMmdl.
 63 67  0  0  0  0  0  0  0  0  1 V2000
  148.6876  136.5682  154.7542 O   0  0  0  0  0  0  0  0  0  0  0  0
  148.5762  135.2020  155.0948 C   0  0  0  0  0  0  0  0  0  0  0  0
  149.9669  134.5246  155.1006 C   0  0  1  0  0  0  0  0  0  0  0  0
  150.6525  134.7132  156.4778 C   0  0  0  0  0  0  0  0  0  0  0  0
  150.6513  136.0890  156.9431 N   0  0  0  0  0  0  0  0  0  0  0  0
  149.9443  136.5998  158.0091 C   0  0  0  0  0  0  0  0  0  0  0  0
  150.1165  137.8744  158.2309 N   0  0  0  0  0  0  0  0  0  0  0  0
  151.0006  138.2719  157.2363 C   0  0  0  0  0  0  0  0  0  0  0  0
  151.6014  139.5102  156.8885 C   0  0  0  0  0  0  0  0  0  0  0  0
  151.3711  140.6404  157.5988 N   0  0  0  0  0  0  0  0  0  0  0  0
  152.6132  141.0371  158.2656 C   0  0  0  0  0  0  0  0  0  0  0  0
  152.3874  142.1847  159.2571 C   0  0  0  0  0  0  0  0  0  0  0  0
  151.7160  143.3667  158.5531 C   0  0  0  0  0  0  0  0  0  0  0  0
  150.4030  142.9009  157.9138 C   0  0  0  0  0  0  0  0  0  0  0  0
  150.6245  141.7234  156.9272 C   0  0  2  0  0  0  0  0  0  0  0  0
  149.2966  141.2381  156.2564 C   0  0  2  0  0  0  0  0  0  0  0  0
  148.3585  140.4494  157.1862 C   0  0  0  0  0  0  0  0  0  0  0  0
  147.4824  139.5745  156.2742 C   0  0  0  0  0  0  0  0  0  0  0  0
  147.9980  139.7838  154.8456 C   0  0  0  0  0  0  0  0  0  0  0  0
  149.4132  140.3380  155.0147 C   0  0  1  0  0  0  0  0  0  0  0  0
  149.8230  141.0416  153.8609 O   0  0  0  0  0  0  0  0  0  0  0  0
  152.4565  139.5260  155.8307 N   0  0  0  0  0  0  0  0  0  0  0  0
  152.6870  138.4043  155.1413 C   0  0  0  0  0  0  0  0  0  0  0  0
  152.1864  137.1831  155.3419 N   0  0  0  0  0  0  0  0  0  0  0  0
  151.3434  137.1635  156.4141 C   0  0  0  0  0  0  0  0  0  0  0  0
  149.9346  133.0381  154.6456 C   0  0  2  0  0  0  0  0  0  0  0  0
  149.2266  132.7632  153.3175 C   0  0  0  0  0  0  0  0  0  0  0  0
  148.3055  131.5811  153.6218 C   0  0  0  0  0  0  0  0  0  0  0  0
  148.8666  130.9895  154.7828 O   0  0  0  0  0  0  0  0  0  0  0  0
  149.2769  132.0554  155.6215 C   0  0  0  0  0  0  0  0  0  0  0  0
  148.8897  136.6333  153.8334 H   0  0  0  0  0  0  0  0  0  0  0  0
  148.0948  135.1238  156.0696 H   0  0  0  0  0  0  0  0  0  0  0  0
  147.9051  134.7395  154.3727 H   0  0  0  0  0  0  0  0  0  0  0  0
  150.5777  135.0455  154.3616 H   0  0  0  0  0  0  0  0  0  0  0  0
  150.1579  134.1072  157.2376 H   0  0  0  0  0  0  0  0  0  0  0  0
  151.6858  134.3664  156.4327 H   0  0  0  0  0  0  0  0  0  0  0  0
  149.2991  135.9924  158.6270 H   0  0  0  0  0  0  0  0  0  0  0  0
  153.0433  140.1862  158.7966 H   0  0  0  0  0  0  0  0  0  0  0  0
  153.3427  141.3416  157.5132 H   0  0  0  0  0  0  0  0  0  0  0  0
  151.7625  141.8403  160.0823 H   0  0  0  0  0  0  0  0  0  0  0  0
  153.3376  142.4951  159.6922 H   0  0  0  0  0  0  0  0  0  0  0  0
  151.5247  144.1690  159.2662 H   0  0  0  0  0  0  0  0  0  0  0  0
  152.3791  143.7745  157.7892 H   0  0  0  0  0  0  0  0  0  0  0  0
  149.7300  142.6016  158.7165 H   0  0  0  0  0  0  0  0  0  0  0  0
  149.9339  143.7483  157.4168 H   0  0  0  0  0  0  0  0  0  0  0  0
  151.2705  142.0930  156.1293 H   0  0  0  0  0  0  0  0  0  0  0  0
  148.7072  142.1051  155.9574 H   0  0  0  0  0  0  0  0  0  0  0  0
  148.9117  139.8054  157.8679 H   0  0  0  0  0  0  0  0  0  0  0  0
  147.7579  141.1200  157.8018 H   0  0  0  0  0  0  0  0  0  0  0  0
  147.5772  138.5269  156.5627 H   0  0  0  0  0  0  0  0  0  0  0  0
  146.4274  139.8397  156.3524 H   0  0  0  0  0  0  0  0  0  0  0  0
  147.9736  138.8693  154.2524 H   0  0  0  0  0  0  0  0  0  0  0  0
  147.3665  140.5187  154.3433 H   0  0  0  0  0  0  0  0  0  0  0  0
  150.0921  139.5041  155.1881 H   0  0  0  0  0  0  0  0  0  0  0  0
  149.3974  140.6602  153.1084 H   0  0  0  0  0  0  0  0  0  0  0  0
  153.3732  138.4975  154.3124 H   0  0  0  0  0  0  0  0  0  0  0  0
  150.9589  132.6957  154.4960 H   0  0  0  0  0  0  0  0  0  0  0  0
  148.6684  133.6124  152.9251 H   0  0  0  0  0  0  0  0  0  0  0  0
  149.9603  132.4870  152.5590 H   0  0  0  0  0  0  0  0  0  0  0  0
  147.2959  131.9284  153.8473 H   0  0  0  0  0  0  0  0  0  0  0  0
  148.2459  130.8703  152.7972 H   0  0  0  0  0  0  0  0  0  0  0  0
  149.9625  131.7131  156.3970 H   0  0  0  0  0  0  0  0  0  0  0  0
  148.3973  132.4778  156.1073 H   0  0  0  0  0  0  0  0  0  0  0  0
  1  2  1  0  0  0  0
  1 31  1  0  0  0  0
  2  3  1  0  0  0  0
  2 32  1  0  0  0  0
  2 33  1  0  0  0  0
  3  4  1  0  0  0  0
  3 26  1  0  0  0  0
  3 34  1  0  0  0  0
  4  5  1  0  0  0  0
  4 35  1  0  0  0  0
  4 36  1  0  0  0  0
  5 25  1  0  0  0  0
  5  6  1  0  0  0  0
  6  7  2  0  0  0  0
  6 37  1  0  0  0  0
  7  8  1  0  0  0  0
  8 25  2  0  0  0  0
  8  9  1  0  0  0  0
  9 10  1  0  0  0  0
  9 22  2  0  0  0  0
 10 15  1  0  0  0  0
 10 11  1  0  0  0  0
 11 12  1  0  0  0  0
 11 38  1  0  0  0  0
 11 39  1  0  0  0  0
 12 13  1  0  0  0  0
 12 40  1  0  0  0  0
 12 41  1  0  0  0  0
 13 14  1  0  0  0  0
 13 42  1  0  0  0  0
 13 43  1  0  0  0  0
 14 15  1  0  0  0  0
 14 44  1  0  0  0  0
 14 45  1  0  0  0  0
 15 16  1  0  0  0  0
 15 46  1  0  0  0  0
 16 20  1  0  0  0  0
 16 17  1  0  0  0  0
 16 47  1  0  0  0  0
 17 18  1  0  0  0  0
 17 48  1  0  0  0  0
 17 49  1  0  0  0  0
 18 19  1  0  0  0  0
 18 50  1  0  0  0  0
 18 51  1  0  0  0  0
 19 20  1  0  0  0  0
 19 52  1  0  0  0  0
 19 53  1  0  0  0  0
 20 21  1  0  0  0  0
 20 54  1  0  0  0  0
 21 55  1  0  0  0  0
 22 23  1  0  0  0  0
 23 24  2  0  0  0  0
 23 56  1  0  0  0  0
 24 25  1  0  0  0  0
 26 30  1  0  0  0  0
 26 27  1  0  0  0  0
 26 57  1  0  0  0  0
 27 28  1  0  0  0  0
 27 58  1  0  0  0  0
 27 59  1  0  0  0  0
 28 29  1  0  0  0  0
 28 60  1  0  0  0  0
 28 61  1  0  0  0  0
 29 30  1  0  0  0  0
 30 62  1  0  0  0  0
 30 63  1  0  0  0  0
M  END
> <s_m_source_file>
AV-unprocessed.smi

> <i_m_source_file_index>
148

> <i_lp_mmshare_version>
43012

> <i_f3d_flags>
0

> <s_epik_input>
W0NIMl0xT1tDSDJdW0NIMl1bQ0BIXTFbQ0BIXShbQ0gyXVtPSF0pW0NIMl1uKFtjSF1uMiljKGMyMyluW2NIXW5jM040W0NIMl1bQ0gyXVtDSDJdW0NIMl1bQ0BIXTRbQ0BASF01W0NIMl1bQ0gyXVtDSDJdW0NASF01W09IXQ==

> <s_epik_cmdline>
J2VwaWtfcHl0aG9uJywgJy1waCcsICc3LjAnLCAnLXRuJywgJzgnLCAnLW1hJywgJzIwMCcsICctbWV0YWxfYmluZGluZycsICctaW1hZScsICc8aW5maWxlLm1hZT4nLCAnLW9tYWUnLCAnPG91dGZpbGUubWFlPic=

> <r_lp_tautomer_probability>
1

> <r_epik_Ionization_Penalty>
0.00556303

> <r_epik_Ionization_Penalty_Charging>
0

> <r_epik_Ionization_Penalty_Neutral>
0.00556303

> <r_epik_State_Penalty>
0.00401767

> <r_epik_Charging_Adjusted_Penalty>
0.00401767

> <i_epik_Tot_Q>
0

> <i_epik_Tot_abs_Q>
0

> <r_epik_Metal_State_Penalty>
-0

> <b_epik_Metal_Only>
0

> <s_lp_Force_Field>
OPLS_2005

> <r_lp_Energy>
67.6364

> <b_lp_Chiralities_Consistent>
1

> <s_lp_Variant>
AV-unprocessed.smi:148-4

> <Gold.Version>
5.8.1

> <Gold.Id.Protein>
6NUR|6NUR_protein|mol2

> <Gold.PLP.Fitness>
52.6395

> <Gold.PLP.PLP>
-41.1217

> <Gold.PLP.part.hbond>
-5.4342

> <Gold.PLP.part.metal>
0.0000

> <Gold.PLP.part.buried>
-5.2558

> <Gold.PLP.part.nonpolar>
-30.5513

> <Gold.PLP.part.repulsive>
0.0826

> <Gold.PLP.ligand.clash>
0.0843

> <Gold.PLP.ligand.torsion>
0.7551

> <Gold.PLP.Chemscore.Hbond>
4.2153

> <Gold.PLP.Chemscore.CHOScore>
0.0000

> <Gold.PLP.Chemscore.Metal>
0.0000

> <Gold.Chemscore.Hbonds>
donor molecule, donor type, donor heavy atom, donor atom, acceptor molecule, acceptor atom, score
      L1  H     1    31       P1  7948  1.00
      L1  H    21    55       P1  7957  0.86
      P1  H  7989  7998       L1    21  0.38
      P1  H  7997  8010       L1    22  1.00
      P1  H 10752 10765       L1    24  0.85

> <Gold.PLP.Chemscore.Internal.Correction>
0.4665

> <Gold.Rescore>
     Score         DG    S(hbond)    S(metal)    S(lipo)     H(rot)  DE(clash)    DE(int)     intcor
     18.79     -21.12       3.80        0.00      97.79       3.32       0.06       2.27       ----

> <Gold.Chemscore.Fitness>
18.7912

> <Gold.Chemscore.DG>
-21.1234

> <Gold.Chemscore.ZeroCoef>
-5.4800

> <Gold.Chemscore.Hbond>
3.8030

> <Gold.Chemscore.Metal>
0.0000

> <Gold.Chemscore.Lipo>
97.7892

> <Gold.Chemscore.Internal_Hbond>
0.0000

> <Gold.Chemscore.DEClash>
0.0605

> <Gold.Chemscore.DEInternal>
2.2717

> <Gold.Chemscore.Rot>
3.3203

> <Gold.Chemscore.Internal.Correction>
   9.000000E+99

> <Gold.Chemscore.Hbonds>
donor molecule, donor type, donor heavy atom, donor atom, acceptor molecule, acceptor atom, score
      L1  H     1    31       P1  7948  0.96
      L1  H    21    55       P1  7957  0.81
      P1  H  7989  7998       L1    21  0.15
      P1  H  7997  8010       L1    22  0.26
      P1  H 10752 10765       L1    24  0.80

> <Gold.Chemscore.Hbond.Weighted>
-12.7021

> <Gold.Chemscore.Metal.Weighted>
-0.0000

> <Gold.Chemscore.Lipo.Weighted>
-11.4413

> <Gold.Chemscore.Internal_Hbond.Weighted>
0.0000

> <Gold.Chemscore.DEClash.Weighted>
0.0605

> <Gold.Chemscore.DEInternal.Weighted>
2.2717

> <Gold.Chemscore.Rot.Weighted>
8.5000

> <Gold.Chemscore.Internal.Correction.Weighted>
   9.000000E+99

> <Gold.Protein.RotatedTorsions>
[ 6907 6896 6895 6894 ] final  120.44 input  -60.11 | X-H torsion
[ 7974 7965 7964 7962 ] final  134.69 input  175.53 | X-H torsion
[ 8008 7997 7996 7995 ] final   86.78 input   59.86 | X-H torsion
[ 10167 10162 10161 10158 ] final   96.77 input  -65.29 | X-H torsion
[ 10718 10713 10712 10709 ] final  122.95 input   66.30 | X-H torsion
[ 10763 10752 10751 10750 ] final -168.27 input  -60.55 | X-H torsion
[ 11005 11000 10999 10996 ] final  110.21 input  -57.11 | X-H torsion

> <Gold.Protein.ActiveResidues>
 VAL166  LYS551  ARG553  GLY616  TRP617  ASP618  TYR619  PRO620  LYS621  CYS622 
 ASP623  PHE694  ASN695  SER759  ASP760  ASP761  ALA762  ILE779  LEU786  VAL792 
 PHE793  MET794  SER795  GLU796  ALA797  LYS798  CYS799  TRP800  GLU811  SER814 

> <Gold.Protein.RotatedAtoms>
  152.4398  133.7427  159.6649 H   0  0  0  0  0  0  0  0  0  0  0  0  # atno 6907 bound_to 6896
  150.8287  133.8117  159.3114 H   0  0  0  0  0  0  0  0  0  0  0  0  # atno 6908 bound_to 6896
  151.5778  135.1062  160.0062 H   0  0  0  0  0  0  0  0  0  0  0  0  # atno 6909 bound_to 6896
  144.9738  139.4577  143.5420 H   0  0  0  0  0  0  0  0  0  0  0  0  # atno 7974 bound_to 7965
  155.9671  140.3388  155.6542 H   0  0  0  0  0  0  0  0  0  0  0  0  # atno 8008 bound_to 7997
  155.6723  140.0728  157.2534 H   0  0  0  0  0  0  0  0  0  0  0  0  # atno 8009 bound_to 7997
  154.4157  140.1689  156.1880 H   0  0  0  0  0  0  0  0  0  0  0  0  # atno 8010 bound_to 7997
  139.7863  144.6869  150.9953 H   0  0  0  0  0  0  0  0  0  0  0  0  # atno 10167 bound_to 10162
  157.5703  131.1083  150.8380 H   0  0  0  0  0  0  0  0  0  0  0  0  # atno 10718 bound_to 10713
  154.6646  135.2930  154.9822 H   0  0  0  0  0  0  0  0  0  0  0  0  # atno 10763 bound_to 10752
  154.0871  135.6596  153.4850 H   0  0  0  0  0  0  0  0  0  0  0  0  # atno 10764 bound_to 10752
  153.0449  135.5211  154.7612 H   0  0  0  0  0  0  0  0  0  0  0  0  # atno 10765 bound_to 10752
  139.8877  134.9478  156.6243 H   0  0  0  0  0  0  0  0  0  0  0  0  # atno 11005 bound_to 11000
  146.3389  139.8967  142.8800 LP  0  0  0  0  0  0  0  0  0  0  0  0  # atno 17320 bound_to 7965
  145.2520  141.0047  143.3876 LP  0  0  0  0  0  0  0  0  0  0  0  0  # atno 17321 bound_to 7965
  140.7819  143.4428  151.0526 LP  0  0  0  0  0  0  0  0  0  0  0  0  # atno 17342 bound_to 10162
  139.8107  143.7955  152.3171 LP  0  0  0  0  0  0  0  0  0  0  0  0  # atno 17343 bound_to 10162
  156.8853  130.5194  149.5289 LP  0  0  0  0  0  0  0  0  0  0  0  0  # atno 17370 bound_to 10713
  156.0748  130.5773  150.9453 LP  0  0  0  0  0  0  0  0  0  0  0  0  # atno 17371 bound_to 10713
  140.7715  133.8734  155.8495 LP  0  0  0  0  0  0  0  0  0  0  0  0  # atno 17394 bound_to 11000
  140.9838  134.1370  157.4471 LP  0  0  0  0  0  0  0  0  0  0  0  0  # atno 17395 bound_to 11000

$$$$
