AV-unprocessed.smi:2439|AV-procd|sdf|9610|dock2
  -GOLD-   2272013243D 1   1.00000     0.00000
 Structure written by MMmdl.
 41 43  0  0  0  0  0  0  0  0  2 V2000
  150.5516  136.7195  158.7810 N   0  0  0  0  0  0  0  0  0  0  0  0
  150.4959  137.7838  158.3310 C   0  0  0  0  0  0  0  0  0  0  0  0
  150.4267  139.1256  157.7648 C   0  0  0  0  0  0  0  0  0  0  0  0
  151.3149  140.1136  158.2388 C   0  0  0  0  0  0  0  0  0  0  0  0
  151.2493  141.4108  157.6987 C   0  0  0  0  0  0  0  0  0  0  0  0
  150.2936  141.6684  156.6995 C   0  0  0  0  0  0  0  0  0  0  0  0
  149.4379  140.7331  156.2371 N   0  0  0  0  0  0  0  0  0  0  0  0
  149.4944  139.4802  156.7526 C   0  0  0  0  0  0  0  0  0  0  0  0
  148.5923  138.5242  156.2490 N   0  0  0  0  0  0  0  0  0  0  0  0
  147.4130  138.9012  155.4788 C   0  0  0  0  0  0  0  0  0  0  0  0
  147.2852  138.1029  154.1704 C   0  0  1  0  0  0  0  0  0  0  0  0
  146.8065  136.6635  154.4305 C   0  0  0  0  0  0  0  0  0  0  0  0
  146.6249  135.9373  153.1524 N   0  3  1  0  0  0  0  0  0  0  0  0
  146.2060  134.5277  153.3571 C   0  0  0  0  0  0  0  0  0  0  0  0
  146.1191  133.7773  152.0185 C   0  0  0  0  0  0  0  0  0  0  0  0
  145.1743  134.4989  151.0490 C   0  0  0  0  0  0  0  0  0  0  0  0
  145.6126  135.9594  150.8767 C   0  0  0  0  0  0  0  0  0  0  0  0
  145.7138  136.6773  152.2373 C   0  0  2  0  0  0  0  0  0  0  0  0
  146.2035  138.1294  152.0700 C   0  0  0  0  0  0  0  0  0  0  0  0
  146.3232  138.7496  153.3439 O   0  0  0  0  0  0  0  0  0  0  0  0
  152.0398  139.8855  159.0074 H   0  0  0  0  0  0  0  0  0  0  0  0
  151.9155  142.1886  158.0414 H   0  0  0  0  0  0  0  0  0  0  0  0
  150.2125  142.6516  156.2603 H   0  0  0  0  0  0  0  0  0  0  0  0
  148.7011  137.5555  156.5144 H   0  0  0  0  0  0  0  0  0  0  0  0
  146.5223  138.7691  156.0944 H   0  0  0  0  0  0  0  0  0  0  0  0
  147.4710  139.9672  155.2577 H   0  0  0  0  0  0  0  0  0  0  0  0
  148.2493  138.0732  153.6600 H   0  0  0  0  0  0  0  0  0  0  0  0
  147.5360  136.1366  155.0471 H   0  0  0  0  0  0  0  0  0  0  0  0
  145.8655  136.6732  154.9832 H   0  0  0  0  0  0  0  0  0  0  0  0
  146.9212  134.0262  154.0103 H   0  0  0  0  0  0  0  0  0  0  0  0
  145.2403  134.5025  153.8648 H   0  0  0  0  0  0  0  0  0  0  0  0
  147.1129  133.7008  151.5752 H   0  0  0  0  0  0  0  0  0  0  0  0
  145.7742  132.7565  152.1850 H   0  0  0  0  0  0  0  0  0  0  0  0
  145.1655  133.9916  150.0837 H   0  0  0  0  0  0  0  0  0  0  0  0
  144.1535  134.4622  151.4316 H   0  0  0  0  0  0  0  0  0  0  0  0
  146.5779  135.9908  150.3690 H   0  0  0  0  0  0  0  0  0  0  0  0
  144.9068  136.4810  150.2294 H   0  0  0  0  0  0  0  0  0  0  0  0
  144.7225  136.7011  152.6939 H   0  0  0  0  0  0  0  0  0  0  0  0
  147.1604  138.1655  151.5465 H   0  0  0  0  0  0  0  0  0  0  0  0
  145.4933  138.6998  151.4710 H   0  0  0  0  0  0  0  0  0  0  0  0
  147.5289  135.9102  152.7027 H   0  0  0  0  0  0  0  0  0  0  0  0
  1  2  3  0  0  0  0
  2  3  1  0  0  0  0
  3  8  1  0  0  0  0
  3  4  2  0  0  0  0
  4  5  1  0  0  0  0
  4 21  1  0  0  0  0
  5  6  2  0  0  0  0
  5 22  1  0  0  0  0
  6  7  1  0  0  0  0
  6 23  1  0  0  0  0
  7  8  2  0  0  0  0
  8  9  1  0  0  0  0
  9 10  1  0  0  0  0
  9 24  1  0  0  0  0
 10 11  1  0  0  0  0
 10 25  1  0  0  0  0
 10 26  1  0  0  0  0
 11 20  1  0  0  0  0
 11 12  1  0  0  0  0
 11 27  1  0  0  0  0
 12 13  1  0  0  0  0
 12 28  1  0  0  0  0
 12 29  1  0  0  0  0
 13 18  1  0  0  0  0
 13 14  1  0  0  0  0
 13 41  1  0  0  0  0
 14 15  1  0  0  0  0
 14 30  1  0  0  0  0
 14 31  1  0  0  0  0
 15 16  1  0  0  0  0
 15 32  1  0  0  0  0
 15 33  1  0  0  0  0
 16 17  1  0  0  0  0
 16 34  1  0  0  0  0
 16 35  1  0  0  0  0
 17 18  1  0  0  0  0
 17 36  1  0  0  0  0
 17 37  1  0  0  0  0
 18 19  1  0  0  0  0
 18 38  1  0  0  0  0
 19 20  1  0  0  0  0
 19 39  1  0  0  0  0
 19 40  1  0  0  0  0
M  CHG  1  13   1
M  END
> <s_m_source_file>
AV-unprocessed.smi

> <i_m_source_file_index>
2439

> <i_lp_mmshare_version>
43012

> <i_f3d_flags>
0

> <s_epik_input>
TiNDYzFbY0hdW2NIXVtjSF1uYzFbTkhdW0NIMl1bQ0BIXShbQ0gyXTIpT1tDSDJdW0NAQEhdKE4yMylbQ0gyXVtDSDJdW0NIMl1bQ0gyXTM=

> <s_epik_cmdline>
J2VwaWtfcHl0aG9uJywgJy1waCcsICc3LjAnLCAnLXRuJywgJzgnLCAnLW1hJywgJzIwMCcsICctbWV0YWxfYmluZGluZycsICctaW1hZScsICc8aW5maWxlLm1hZT4nLCAnLW9tYWUnLCAnPG91dGZpbGUubWFlPic=

> <r_epik_Ionization_Penalty>
0.0803594

> <r_epik_Ionization_Penalty_Charging>
0.0803403

> <r_epik_Ionization_Penalty_Neutral>
1.90988e-05

> <r_epik_State_Penalty>
0.0711481

> <r_epik_Charging_Adjusted_Penalty>
0.151488

> <i_epik_Tot_Q>
1

> <i_epik_Tot_abs_Q>
1

> <r_epik_Metal_State_Penalty>
0.0711482

> <b_epik_Metal_Only>
0

> <s_lp_Force_Field>
OPLS_2005

> <r_lp_Energy>
27.3027

> <b_lp_Chiralities_Consistent>
1

> <s_lp_Variant>
AV-unprocessed.smi:2439-8

> <Gold.Version>
5.8.1

> <Gold.Id.Protein>
6NUR|6NUR_protein|mol2

> <Gold.PLP.Fitness>
37.0203

> <Gold.PLP.PLP>
-25.4693

> <Gold.PLP.part.hbond>
-2.0000

> <Gold.PLP.part.metal>
0.0000

> <Gold.PLP.part.buried>
-4.7937

> <Gold.PLP.part.nonpolar>
-20.3559

> <Gold.PLP.part.repulsive>
0.2766

> <Gold.PLP.ligand.clash>
0.0000

> <Gold.PLP.ligand.torsion>
0.2126

> <Gold.PLP.Chemscore.Hbond>
2.9913

> <Gold.PLP.Chemscore.CHOScore>
1.0000

> <Gold.PLP.Chemscore.Metal>
0.0000

> <Gold.Chemscore.Hbonds>
donor molecule, donor type, donor heavy atom, donor atom, acceptor molecule, acceptor atom, score
      L1  H    13    41       P1  7948  2.00
      P1  H  6896  6908       L1     1  1.00
      L1  C     6    23       P1  8028  1.00

> <Gold.PLP.Chemscore.Internal.Correction>
0.0025

> <Gold.Rescore>
     Score         DG    S(hbond)    S(metal)    S(lipo)     H(rot)  DE(clash)    DE(int)     intcor
     15.76     -15.89       1.99        0.00      59.90       1.27       0.03       0.10       ----

> <Gold.Chemscore.Fitness>
15.7633

> <Gold.Chemscore.DG>
-15.8930

> <Gold.Chemscore.ZeroCoef>
-5.4800

> <Gold.Chemscore.Hbond>
1.9897

> <Gold.Chemscore.Metal>
0.0000

> <Gold.Chemscore.Lipo>
59.8989

> <Gold.Chemscore.Internal_Hbond>
0.0000

> <Gold.Chemscore.DEClash>
0.0251

> <Gold.Chemscore.DEInternal>
0.1046

> <Gold.Chemscore.Rot>
1.2659

> <Gold.Chemscore.Internal.Correction>
   9.000000E+99

> <Gold.Chemscore.Hbonds>
donor molecule, donor type, donor heavy atom, donor atom, acceptor molecule, acceptor atom, score
      L1  H    13    41       P1  7948  1.00
      P1  H  6896  6908       L1     1  0.92

> <Gold.Chemscore.Hbond.Weighted>
-6.6456

> <Gold.Chemscore.Metal.Weighted>
-0.0000

> <Gold.Chemscore.Lipo.Weighted>
-7.0082

> <Gold.Chemscore.Internal_Hbond.Weighted>
0.0000

> <Gold.Chemscore.DEClash.Weighted>
0.0251

> <Gold.Chemscore.DEInternal.Weighted>
0.1046

> <Gold.Chemscore.Rot.Weighted>
3.2408

> <Gold.Chemscore.Internal.Correction.Weighted>
   9.000000E+99

> <Gold.Protein.RotatedTorsions>
[ 6907 6896 6895 6894 ] final -151.85 input  -60.11 | X-H torsion
[ 7974 7965 7964 7962 ] final  -90.66 input  175.53 | X-H torsion
[ 8008 7997 7996 7995 ] final  151.22 input   59.86 | X-H torsion
[ 10167 10162 10161 10158 ] final -108.42 input  -65.29 | X-H torsion
[ 10718 10713 10712 10709 ] final   -7.37 input   66.30 | X-H torsion
[ 10763 10752 10751 10750 ] final   49.08 input  -60.55 | X-H torsion
[ 11005 11000 10999 10996 ] final -179.93 input  -57.11 | X-H torsion

> <Gold.Protein.ActiveResidues>
 VAL166  LYS551  ARG553  GLY616  TRP617  ASP618  TYR619  PRO620  LYS621  CYS622 
 ASP623  PHE694  ASN695  SER759  ASP760  ASP761  ALA762  ILE779  LEU786  VAL792 
 PHE793  MET794  SER795  GLU796  ALA797  LYS798  CYS799  TRP800  GLU811  SER814 

> <Gold.Protein.RotatedAtoms>
  151.2191  133.4512  159.2599 H   0  0  0  0  0  0  0  0  0  0  0  0  # atno 6907 bound_to 6896
  151.0902  134.9911  159.8409 H   0  0  0  0  0  0  0  0  0  0  0  0  # atno 6908 bound_to 6896
  152.5434  134.2125  159.8808 H   0  0  0  0  0  0  0  0  0  0  0  0  # atno 6909 bound_to 6896
  145.4235  140.9552  143.2168 H   0  0  0  0  0  0  0  0  0  0  0  0  # atno 7974 bound_to 7965
  156.2683  140.2054  156.6141 H   0  0  0  0  0  0  0  0  0  0  0  0  # atno 8008 bound_to 7997
  154.6809  140.0540  157.0288 H   0  0  0  0  0  0  0  0  0  0  0  0  # atno 8009 bound_to 7997
  155.1002  140.3205  155.4552 H   0  0  0  0  0  0  0  0  0  0  0  0  # atno 8010 bound_to 7997
  140.1663  143.4079  152.1388 H   0  0  0  0  0  0  0  0  0  0  0  0  # atno 10167 bound_to 10162
  156.7182  130.5142  149.5875 H   0  0  0  0  0  0  0  0  0  0  0  0  # atno 10718 bound_to 10713
  152.9788  135.5923  154.4030 H   0  0  0  0  0  0  0  0  0  0  0  0  # atno 10763 bound_to 10752
  154.3674  135.2767  155.2288 H   0  0  0  0  0  0  0  0  0  0  0  0  # atno 10764 bound_to 10752
  154.4258  135.6048  153.6093 H   0  0  0  0  0  0  0  0  0  0  0  0  # atno 10765 bound_to 10752
  140.4132  134.6673  157.4625 H   0  0  0  0  0  0  0  0  0  0  0  0  # atno 11005 bound_to 11000
  144.8229  139.5759  143.6978 LP  0  0  0  0  0  0  0  0  0  0  0  0  # atno 17320 bound_to 7965
  146.2644  139.6485  142.9339 LP  0  0  0  0  0  0  0  0  0  0  0  0  # atno 17321 bound_to 7965
  139.5358  144.7208  151.4899 LP  0  0  0  0  0  0  0  0  0  0  0  0  # atno 17342 bound_to 10162
  140.6611  143.8497  150.6888 LP  0  0  0  0  0  0  0  0  0  0  0  0  # atno 17343 bound_to 10162
  156.1613  130.6376  151.0722 LP  0  0  0  0  0  0  0  0  0  0  0  0  # atno 17370 bound_to 10713
  157.6909  131.0810  150.7111 LP  0  0  0  0  0  0  0  0  0  0  0  0  # atno 17371 bound_to 10713
  140.0253  134.6487  155.9182 LP  0  0  0  0  0  0  0  0  0  0  0  0  # atno 17394 bound_to 11000
  141.1813  133.6547  156.5032 LP  0  0  0  0  0  0  0  0  0  0  0  0  # atno 17395 bound_to 11000

$$$$
