AV-unprocessed.smi:3156|AV-procd|sdf|12029|dock1
  -GOLD-   2272017443D 1   1.00000     0.00000
 Structure written by MMmdl.
 41 42  0  0  0  0  0  0  0  0  2 V2000
  147.6211  141.6120  156.6714 C   0  0  0  0  0  0  0  0  0  0  0  0
  149.1281  141.3505  156.4807 C   0  0  2  0  0  0  0  0  0  0  0  0
  149.9138  142.5051  156.9789 N   0  3  0  0  0  0  0  0  0  0  0  0
  150.0643  142.5914  158.4467 C   0  0  0  0  0  0  0  0  0  0  0  0
  151.5450  142.5446  158.8475 C   0  0  2  0  0  0  0  0  0  0  0  0
  152.1566  141.1483  158.6217 C   0  0  0  0  0  0  0  0  0  0  0  0
  153.6095  141.1110  159.1091 C   0  0  0  0  0  0  0  0  0  0  0  0
  153.6800  141.5990  160.5597 C   0  0  0  0  0  0  0  0  0  0  0  0
  152.9857  142.9631  160.6989 C   0  0  0  0  0  0  0  0  0  0  0  0
  151.6423  142.8742  160.2319 O   0  0  0  0  0  0  0  0  0  0  0  0
  149.4936  141.0617  154.9977 C   0  0  2  0  0  0  0  0  0  0  0  0
  148.2777  140.6666  154.1388 C   0  0  0  0  0  0  0  0  0  0  0  0
  150.5235  140.0344  154.8761 N   0  0  0  0  0  0  0  0  0  0  0  0
  151.7530  139.9853  155.5008 C   0  0  0  0  0  0  0  0  0  0  0  0
  152.3853  138.8539  155.0721 C   0  0  0  0  0  0  0  0  0  0  0  0
  151.4590  138.2728  154.1622 C   0  0  0  0  0  0  0  0  0  0  0  0
  150.3497  138.9836  154.0422 N   0  0  0  0  0  0  0  0  0  0  0  0
  147.0219  140.7525  156.3731 H   0  0  0  0  0  0  0  0  0  0  0  0
  147.2897  142.4692  156.0846 H   0  0  0  0  0  0  0  0  0  0  0  0
  147.3735  141.8092  157.7138 H   0  0  0  0  0  0  0  0  0  0  0  0
  149.4022  140.4764  157.0737 H   0  0  0  0  0  0  0  0  0  0  0  0
  150.8436  142.4160  156.5934 H   0  0  0  0  0  0  0  0  0  0  0  0
  149.6023  143.5040  158.8229 H   0  0  0  0  0  0  0  0  0  0  0  0
  149.5401  141.7512  158.9039 H   0  0  0  0  0  0  0  0  0  0  0  0
  152.0959  143.2809  158.2587 H   0  0  0  0  0  0  0  0  0  0  0  0
  151.5733  140.3992  159.1591 H   0  0  0  0  0  0  0  0  0  0  0  0
  152.1119  140.8803  157.5656 H   0  0  0  0  0  0  0  0  0  0  0  0
  154.0136  140.1016  159.0270 H   0  0  0  0  0  0  0  0  0  0  0  0
  154.2264  141.7494  158.4756 H   0  0  0  0  0  0  0  0  0  0  0  0
  153.1936  140.8747  161.2141 H   0  0  0  0  0  0  0  0  0  0  0  0
  154.7183  141.6678  160.8852 H   0  0  0  0  0  0  0  0  0  0  0  0
  152.9757  143.2734  161.7436 H   0  0  0  0  0  0  0  0  0  0  0  0
  153.5251  143.7325  160.1440 H   0  0  0  0  0  0  0  0  0  0  0  0
  149.9134  141.9748  154.5724 H   0  0  0  0  0  0  0  0  0  0  0  0
  147.5548  141.4776  154.0596 H   0  0  0  0  0  0  0  0  0  0  0  0
  147.7634  139.7980  154.5512 H   0  0  0  0  0  0  0  0  0  0  0  0
  148.5836  140.4165  153.1223 H   0  0  0  0  0  0  0  0  0  0  0  0
  152.0727  140.7507  156.1928 H   0  0  0  0  0  0  0  0  0  0  0  0
  153.3639  138.4984  155.3597 H   0  0  0  0  0  0  0  0  0  0  0  0
  151.5599  137.3636  153.5881 H   0  0  0  0  0  0  0  0  0  0  0  0
  149.5064  143.3621  156.6328 H   0  0  0  0  0  0  0  0  0  0  0  0
  1  2  1  0  0  0  0
  1 18  1  0  0  0  0
  1 19  1  0  0  0  0
  1 20  1  0  0  0  0
  2  3  1  0  0  0  0
  2 11  1  0  0  0  0
  2 21  1  0  0  0  0
  3  4  1  0  0  0  0
  3 22  1  0  0  0  0
  3 41  1  0  0  0  0
  4  5  1  0  0  0  0
  4 23  1  0  0  0  0
  4 24  1  0  0  0  0
  5 10  1  0  0  0  0
  5  6  1  0  0  0  0
  5 25  1  0  0  0  0
  6  7  1  0  0  0  0
  6 26  1  0  0  0  0
  6 27  1  0  0  0  0
  7  8  1  0  0  0  0
  7 28  1  0  0  0  0
  7 29  1  0  0  0  0
  8  9  1  0  0  0  0
  8 30  1  0  0  0  0
  8 31  1  0  0  0  0
  9 10  1  0  0  0  0
  9 32  1  0  0  0  0
  9 33  1  0  0  0  0
 11 12  1  0  0  0  0
 11 13  1  0  0  0  0
 11 34  1  0  0  0  0
 12 35  1  0  0  0  0
 12 36  1  0  0  0  0
 12 37  1  0  0  0  0
 13 17  1  0  0  0  0
 13 14  1  0  0  0  0
 14 15  2  0  0  0  0
 14 38  1  0  0  0  0
 15 16  1  0  0  0  0
 15 39  1  0  0  0  0
 16 17  2  0  0  0  0
 16 40  1  0  0  0  0
M  CHG  1   3   1
M  END
> <s_m_source_file>
AV-unprocessed.smi

> <i_m_source_file_index>
3156

> <i_lp_mmshare_version>
43012

> <i_f3d_flags>
0

> <s_epik_input>
bjFbY0hdW2NIXVtjSF1uMVtDQEBIXShbQ0gzXSlbQ0BIXShbQ0gzXSlbTkhdW0NIMl1bQ0BASF0yW0NIMl1bQ0gyXVtDSDJdW0NIMl1PMg==

> <s_epik_cmdline>
J2VwaWtfcHl0aG9uJywgJy1waCcsICc3LjAnLCAnLXRuJywgJzgnLCAnLW1hJywgJzIwMCcsICctbWV0YWxfYmluZGluZycsICctaW1hZScsICc8aW5maWxlLm1hZT4nLCAnLW9tYWUnLCAnPG91dGZpbGUubWFlPic=

> <r_lp_tautomer_probability>
1

> <r_epik_Ionization_Penalty>
0.00658015

> <r_epik_Ionization_Penalty_Charging>
0.00656881

> <r_epik_Ionization_Penalty_Neutral>
1.13431e-05

> <r_epik_State_Penalty>
0.0048654

> <r_epik_Charging_Adjusted_Penalty>
0.0114342

> <i_epik_Tot_Q>
1

> <i_epik_Tot_abs_Q>
1

> <r_epik_Metal_State_Penalty>
-0

> <b_epik_Metal_Only>
0

> <s_lp_Force_Field>
OPLS_2005

> <r_lp_Energy>
17.2589

> <b_lp_Chiralities_Consistent>
1

> <s_lp_Variant>
AV-unprocessed.smi:3156-1

> <Gold.Version>
5.8.1

> <Gold.Id.Protein>
6NUR|6NUR_protein|mol2

> <Gold.PLP.Fitness>
42.7866

> <Gold.PLP.PLP>
-37.1822

> <Gold.PLP.part.hbond>
-1.6843

> <Gold.PLP.part.metal>
0.0000

> <Gold.PLP.part.buried>
-4.1832

> <Gold.PLP.part.nonpolar>
-31.4254

> <Gold.PLP.part.repulsive>
0.2613

> <Gold.PLP.ligand.clash>
0.0000

> <Gold.PLP.ligand.torsion>
1.7606

> <Gold.PLP.Chemscore.Hbond>
2.0000

> <Gold.PLP.Chemscore.CHOScore>
1.0000

> <Gold.PLP.Chemscore.Metal>
0.0000

> <Gold.Chemscore.Hbonds>
donor molecule, donor type, donor heavy atom, donor atom, acceptor molecule, acceptor atom, score
      L1  H     3    41       P1  8028  2.00
      L1  C    16    40       P1  7949  0.98

> <Gold.PLP.Chemscore.Internal.Correction>
0.1256

> <Gold.Rescore>
     Score         DG    S(hbond)    S(metal)    S(lipo)     H(rot)  DE(clash)    DE(int)     intcor
     14.97     -16.63       1.00        0.00     101.68       1.59       0.05       1.61       ----

> <Gold.Chemscore.Fitness>
14.9679

> <Gold.Chemscore.DG>
-16.6332

> <Gold.Chemscore.ZeroCoef>
-5.4800

> <Gold.Chemscore.Hbond>
0.9989

> <Gold.Chemscore.Metal>
0.0000

> <Gold.Chemscore.Lipo>
101.6836

> <Gold.Chemscore.Internal_Hbond>
0.0000

> <Gold.Chemscore.DEClash>
0.0515

> <Gold.Chemscore.DEInternal>
1.6138

> <Gold.Chemscore.Rot>
1.5938

> <Gold.Chemscore.Internal.Correction>
   9.000000E+99

> <Gold.Chemscore.Hbonds>
donor molecule, donor type, donor heavy atom, donor atom, acceptor molecule, acceptor atom, score
      L1  H     3    41       P1  8028  1.00

> <Gold.Chemscore.Hbond.Weighted>
-3.3365

> <Gold.Chemscore.Metal.Weighted>
-0.0000

> <Gold.Chemscore.Lipo.Weighted>
-11.8970

> <Gold.Chemscore.Internal_Hbond.Weighted>
0.0000

> <Gold.Chemscore.DEClash.Weighted>
0.0515

> <Gold.Chemscore.DEInternal.Weighted>
1.6138

> <Gold.Chemscore.Rot.Weighted>
4.0802

> <Gold.Chemscore.Internal.Correction.Weighted>
   9.000000E+99

> <Gold.Protein.RotatedTorsions>
[ 6907 6896 6895 6894 ] final  -38.15 input  -60.11 | X-H torsion
[ 7974 7965 7964 7962 ] final   86.32 input  175.53 | X-H torsion
[ 8008 7997 7996 7995 ] final   89.01 input   59.86 | X-H torsion
[ 10167 10162 10161 10158 ] final  159.25 input  -65.29 | X-H torsion
[ 10718 10713 10712 10709 ] final    3.36 input   66.30 | X-H torsion
[ 10763 10752 10751 10750 ] final  -93.87 input  -60.55 | X-H torsion
[ 11005 11000 10999 10996 ] final   53.42 input  -57.11 | X-H torsion

> <Gold.Protein.ActiveResidues>
 VAL166  LYS551  ARG553  GLY616  TRP617  ASP618  TYR619  PRO620  LYS621  CYS622 
 ASP623  PHE694  ASN695  SER759  ASP760  ASP761  ALA762  ILE779  LEU786  VAL792 
 PHE793  MET794  SER795  GLU796  ALA797  LYS798  CYS799  TRP800  GLU811  SER814 

> <Gold.Protein.RotatedAtoms>
  151.0060  134.9359  159.7980 H   0  0  0  0  0  0  0  0  0  0  0  0  # atno 6907 bound_to 6896
  152.5290  134.3092  159.9117 H   0  0  0  0  0  0  0  0  0  0  0  0  # atno 6908 bound_to 6896
  151.3097  133.4044  159.2680 H   0  0  0  0  0  0  0  0  0  0  0  0  # atno 6909 bound_to 6896
  145.5739  139.2317  143.2391 H   0  0  0  0  0  0  0  0  0  0  0  0  # atno 7974 bound_to 7965
  155.9948  140.3365  155.6788 H   0  0  0  0  0  0  0  0  0  0  0  0  # atno 8008 bound_to 7997
  155.6372  140.0691  157.2648 H   0  0  0  0  0  0  0  0  0  0  0  0  # atno 8009 bound_to 7997
  154.4230  140.1749  156.1522 H   0  0  0  0  0  0  0  0  0  0  0  0  # atno 8010 bound_to 7997
  139.4831  144.4747  151.8527 H   0  0  0  0  0  0  0  0  0  0  0  0  # atno 10167 bound_to 10162
  156.8767  130.5639  149.5655 H   0  0  0  0  0  0  0  0  0  0  0  0  # atno 10718 bound_to 10713
  154.7001  135.5178  153.8514 H   0  0  0  0  0  0  0  0  0  0  0  0  # atno 10763 bound_to 10752
  153.0697  135.6597  154.0284 H   0  0  0  0  0  0  0  0  0  0  0  0  # atno 10764 bound_to 10752
  154.0145  135.2999  155.3368 H   0  0  0  0  0  0  0  0  0  0  0  0  # atno 10765 bound_to 10752
  140.0768  134.5393  155.8988 H   0  0  0  0  0  0  0  0  0  0  0  0  # atno 11005 bound_to 11000
  146.1765  140.6565  142.9209 LP  0  0  0  0  0  0  0  0  0  0  0  0  # atno 17320 bound_to 7965
  144.7425  140.4980  143.6859 LP  0  0  0  0  0  0  0  0  0  0  0  0  # atno 17321 bound_to 7965
  140.4219  144.2232  150.5887 LP  0  0  0  0  0  0  0  0  0  0  0  0  # atno 17342 bound_to 10162
  140.4865  143.2361  151.8880 LP  0  0  0  0  0  0  0  0  0  0  0  0  # atno 17343 bound_to 10162
  156.0698  130.5733  150.9361 LP  0  0  0  0  0  0  0  0  0  0  0  0  # atno 17370 bound_to 10713
  157.6164  131.0933  150.8702 LP  0  0  0  0  0  0  0  0  0  0  0  0  # atno 17371 bound_to 10713
  141.2032  133.6630  156.6051 LP  0  0  0  0  0  0  0  0  0  0  0  0  # atno 17394 bound_to 11000
  140.3546  134.7740  157.4491 LP  0  0  0  0  0  0  0  0  0  0  0  0  # atno 17395 bound_to 11000

$$$$
