AV-unprocessed.smi:60|AV-procd|sdf|593|dock9
  -GOLD-   2262016483D 1   1.00000     0.00000
 Structure written by MMmdl.
 36 37  0  0  0  0  0  0  0  0  1 V2000
  151.3077  139.9533  154.7965 O   0  0  0  0  0  0  0  0  0  0  0  0
  150.2139  140.4293  155.0963 C   0  0  0  0  0  0  0  0  0  0  0  0
  149.2492  140.6183  154.1019 N   0  0  0  0  0  0  0  0  0  0  0  0
  147.9710  141.1388  154.2994 C   0  0  0  0  0  0  0  0  0  0  0  0
  147.2015  141.2696  153.3473 O   0  0  0  0  0  0  0  0  0  0  0  0
  147.6290  141.4910  155.6215 N   0  0  0  0  0  0  0  0  0  0  0  0
  146.3156  142.0708  155.8387 C   0  0  0  0  0  0  0  0  0  0  0  0
  146.1387  143.1359  154.9616 O   0  0  0  0  0  0  0  0  0  0  0  0
  144.7736  143.4229  154.7013 C   0  0  0  0  0  0  0  0  0  0  0  0
  144.6831  144.6731  153.8181 C   0  0  0  0  0  0  0  0  0  0  0  0
  143.3369  144.9352  153.4842 O   0  0  0  0  0  0  0  0  0  0  0  0
  148.5585  141.3410  156.6369 C   0  0  0  0  0  0  0  0  0  0  0  0
  149.8030  140.8337  156.4456 C   0  0  0  0  0  0  0  0  0  0  0  0
  150.7941  140.6786  157.5898 C   0  0  0  0  0  0  0  0  0  0  0  0
  151.4019  141.9952  158.0396 C   0  0  0  0  0  0  0  0  0  0  0  0
  152.2540  142.0355  159.1638 C   0  0  0  0  0  0  0  0  0  0  0  0
  152.8232  143.2553  159.5782 C   0  0  0  0  0  0  0  0  0  0  0  0
  152.5411  144.4404  158.8720 C   0  0  0  0  0  0  0  0  0  0  0  0
  151.6893  144.4049  157.7509 C   0  0  0  0  0  0  0  0  0  0  0  0
  151.1211  143.1849  157.3348 C   0  0  0  0  0  0  0  0  0  0  0  0
  149.5007  140.3568  153.1597 H   0  0  0  0  0  0  0  0  0  0  0  0
  145.5560  141.2986  155.6937 H   0  0  0  0  0  0  0  0  0  0  0  0
  146.2491  142.4233  156.8698 H   0  0  0  0  0  0  0  0  0  0  0  0
  144.3368  142.5774  154.1673 H   0  0  0  0  0  0  0  0  0  0  0  0
  144.2052  143.5515  155.6242 H   0  0  0  0  0  0  0  0  0  0  0  0
  145.1329  145.5385  154.3059 H   0  0  0  0  0  0  0  0  0  0  0  0
  145.2266  144.5071  152.8878 H   0  0  0  0  0  0  0  0  0  0  0  0
  142.9436  144.1346  153.1716 H   0  0  0  0  0  0  0  0  0  0  0  0
  148.2755  141.6386  157.6366 H   0  0  0  0  0  0  0  0  0  0  0  0
  150.3167  140.1730  158.4305 H   0  0  0  0  0  0  0  0  0  0  0  0
  151.6060  140.0218  157.2753 H   0  0  0  0  0  0  0  0  0  0  0  0
  152.4756  141.1304  159.7100 H   0  0  0  0  0  0  0  0  0  0  0  0
  153.4769  143.2817  160.4374 H   0  0  0  0  0  0  0  0  0  0  0  0
  152.9776  145.3758  159.1897 H   0  0  0  0  0  0  0  0  0  0  0  0
  151.4731  145.3136  157.2084 H   0  0  0  0  0  0  0  0  0  0  0  0
  150.4721  143.1658  156.4714 H   0  0  0  0  0  0  0  0  0  0  0  0
  1  2  2  0  0  0  0
  2 13  1  0  0  0  0
  2  3  1  0  0  0  0
  3 21  1  0  0  0  0
  3  4  1  0  0  0  0
  4  5  2  0  0  0  0
  4  6  1  0  0  0  0
  6  7  1  0  0  0  0
  6 12  1  0  0  0  0
  7  8  1  0  0  0  0
  7 22  1  0  0  0  0
  7 23  1  0  0  0  0
  8  9  1  0  0  0  0
  9 10  1  0  0  0  0
  9 24  1  0  0  0  0
  9 25  1  0  0  0  0
 10 11  1  0  0  0  0
 10 26  1  0  0  0  0
 10 27  1  0  0  0  0
 11 28  1  0  0  0  0
 12 13  2  0  0  0  0
 12 29  1  0  0  0  0
 13 14  1  0  0  0  0
 14 15  1  0  0  0  0
 14 30  1  0  0  0  0
 14 31  1  0  0  0  0
 15 20  1  0  0  0  0
 15 16  2  0  0  0  0
 16 17  1  0  0  0  0
 16 32  1  0  0  0  0
 17 18  2  0  0  0  0
 17 33  1  0  0  0  0
 18 19  1  0  0  0  0
 18 34  1  0  0  0  0
 19 20  2  0  0  0  0
 19 35  1  0  0  0  0
 20 36  1  0  0  0  0
M  END
> <s_m_source_file>
AV-unprocessed.smi

> <i_m_source_file_index>
60

> <i_lp_mmshare_version>
43012

> <i_f3d_flags>
0

> <s_epik_input>
W09IXVtDSDJdW0NIMl1PW0NIMl1uKGMoPU8pW25IXWMxPU8pW2NIXWMxW0NIMl1jMltjSF1bY0hdW2NIXVtjSF1bY0hdMg==

> <s_epik_cmdline>
J2VwaWtfcHl0aG9uJywgJy1waCcsICc3LjAnLCAnLXRuJywgJzgnLCAnLW1hJywgJzIwMCcsICctbWV0YWxfYmluZGluZycsICctaW1hZScsICc8aW5maWxlLm1hZT4nLCAnLW9tYWUnLCAnPG91dGZpbGUubWFlPic=

> <r_lp_tautomer_probability>
0.999537

> <r_epik_Ionization_Penalty>
0.00298861

> <r_epik_Ionization_Penalty_Charging>
0.00298856

> <r_epik_Ionization_Penalty_Neutral>
5.3532e-08

> <r_epik_State_Penalty>
0.00209779

> <r_epik_Charging_Adjusted_Penalty>
0.00508635

> <i_epik_Tot_Q>
0

> <i_epik_Tot_abs_Q>
0

> <r_epik_Metal_State_Penalty>
1.06718

> <b_epik_Metal_Only>
0

> <s_epik_Chemistry_Notes>
This compound contains an acetal/aminal-like group ( X-CH(R)-Y where X, Y are N, S, or O) that may be acid/base labile, releasing an aldehyde.

> <s_lp_Force_Field>
OPLS_2005

> <r_lp_Energy>
6.34754

> <b_lp_Chiralities_Consistent>
1

> <s_lp_Variant>
AV-unprocessed.smi:60-1

> <Gold.Version>
5.8.1

> <Gold.Id.Protein>
6NUR|6NUR_protein|mol2

> <Gold.PLP.Fitness>
49.7198

> <Gold.PLP.PLP>
-41.6050

> <Gold.PLP.part.hbond>
-4.0000

> <Gold.PLP.part.metal>
0.0000

> <Gold.PLP.part.buried>
-4.7677

> <Gold.PLP.part.nonpolar>
-33.9444

> <Gold.PLP.part.repulsive>
0.6331

> <Gold.PLP.ligand.clash>
0.0000

> <Gold.PLP.ligand.torsion>
0.3915

> <Gold.PLP.Chemscore.Hbond>
2.9500

> <Gold.PLP.Chemscore.CHOScore>
0.0000

> <Gold.PLP.Chemscore.Metal>
0.0000

> <Gold.Chemscore.Hbonds>
donor molecule, donor type, donor heavy atom, donor atom, acceptor molecule, acceptor atom, score
      L1  H     3    21       P1  7957  1.00
      L1  H    11    28       P1 10174  1.00
      P1  H  7989  7998       L1     1  0.95

> <Gold.PLP.Chemscore.Internal.Correction>
0.0478

> <Gold.Rescore>
     Score         DG    S(hbond)    S(metal)    S(lipo)     H(rot)  DE(clash)    DE(int)     intcor
     13.35     -15.80       2.28        0.00      94.87       3.28       0.49       1.96       ----

> <Gold.Chemscore.Fitness>
13.3543

> <Gold.Chemscore.DG>
-15.7998

> <Gold.Chemscore.ZeroCoef>
-5.4800

> <Gold.Chemscore.Hbond>
2.2829

> <Gold.Chemscore.Metal>
0.0000

> <Gold.Chemscore.Lipo>
94.8708

> <Gold.Chemscore.Internal_Hbond>
0.0000

> <Gold.Chemscore.DEClash>
0.4903

> <Gold.Chemscore.DEInternal>
1.9552

> <Gold.Chemscore.Rot>
3.2832

> <Gold.Chemscore.Internal.Correction>
   9.000000E+99

> <Gold.Chemscore.Hbonds>
donor molecule, donor type, donor heavy atom, donor atom, acceptor molecule, acceptor atom, score
      L1  H     3    21       P1  7957  0.93
      L1  H    11    28       P1 10174  0.98
      P1  H  7989  7998       L1     1  0.21

> <Gold.Chemscore.Hbond.Weighted>
-7.6249

> <Gold.Chemscore.Metal.Weighted>
-0.0000

> <Gold.Chemscore.Lipo.Weighted>
-11.0999

> <Gold.Chemscore.Internal_Hbond.Weighted>
0.0000

> <Gold.Chemscore.DEClash.Weighted>
0.4903

> <Gold.Chemscore.DEInternal.Weighted>
1.9552

> <Gold.Chemscore.Rot.Weighted>
8.4050

> <Gold.Chemscore.Internal.Correction.Weighted>
   9.000000E+99

> <Gold.Protein.RotatedTorsions>
[ 6907 6896 6895 6894 ] final  -70.77 input  -60.11 | X-H torsion
[ 7974 7965 7964 7962 ] final  104.91 input  175.53 | X-H torsion
[ 8008 7997 7996 7995 ] final  -10.46 input   59.86 | X-H torsion
[ 10167 10162 10161 10158 ] final  109.73 input  -65.29 | X-H torsion
[ 10718 10713 10712 10709 ] final -163.61 input   66.30 | X-H torsion
[ 10763 10752 10751 10750 ] final  176.00 input  -60.55 | X-H torsion
[ 11005 11000 10999 10996 ] final   58.06 input  -57.11 | X-H torsion

> <Gold.Protein.ActiveResidues>
 VAL166  LYS551  ARG553  GLY616  TRP617  ASP618  TYR619  PRO620  LYS621  CYS622 
 ASP623  PHE694  ASN695  SER759  ASP760  ASP761  ALA762  ILE779  LEU786  VAL792 
 PHE793  MET794  SER795  GLU796  ALA797  LYS798  CYS799  TRP800  GLU811  SER814 

> <Gold.Protein.RotatedAtoms>
  150.7242  134.5405  159.5744 H   0  0  0  0  0  0  0  0  0  0  0  0  # atno 6907 bound_to 6896
  152.2916  134.7711  160.0385 H   0  0  0  0  0  0  0  0  0  0  0  0  # atno 6908 bound_to 6896
  151.8323  133.3375  159.3654 H   0  0  0  0  0  0  0  0  0  0  0  0  # atno 6909 bound_to 6896
  145.3266  139.2498  143.3683 H   0  0  0  0  0  0  0  0  0  0  0  0  # atno 7974 bound_to 7965
  154.5553  140.2328  155.8421 H   0  0  0  0  0  0  0  0  0  0  0  0  # atno 8008 bound_to 7997
  156.1982  140.3059  155.9432 H   0  0  0  0  0  0  0  0  0  0  0  0  # atno 8009 bound_to 7997
  155.2993  140.0430  157.3019 H   0  0  0  0  0  0  0  0  0  0  0  0  # atno 8010 bound_to 7997
  139.6743  144.7123  151.1630 H   0  0  0  0  0  0  0  0  0  0  0  0  # atno 10167 bound_to 10162
  156.6271  130.8914  151.2970 H   0  0  0  0  0  0  0  0  0  0  0  0  # atno 10718 bound_to 10713
  154.4751  135.2772  155.1613 H   0  0  0  0  0  0  0  0  0  0  0  0  # atno 10763 bound_to 10752
  154.3346  135.6183  153.5571 H   0  0  0  0  0  0  0  0  0  0  0  0  # atno 10764 bound_to 10752
  152.9868  135.5773  154.5141 H   0  0  0  0  0  0  0  0  0  0  0  0  # atno 10765 bound_to 10752
  140.0406  134.5880  155.9387 H   0  0  0  0  0  0  0  0  0  0  0  0  # atno 11005 bound_to 11000
  146.3062  140.3835  142.8686 LP  0  0  0  0  0  0  0  0  0  0  0  0  # atno 17320 bound_to 7965
  144.8897  140.7508  143.5934 LP  0  0  0  0  0  0  0  0  0  0  0  0  # atno 17321 bound_to 7965
  140.7630  143.5795  150.8910 LP  0  0  0  0  0  0  0  0  0  0  0  0  # atno 17342 bound_to 10162
  139.9463  143.6324  152.3041 LP  0  0  0  0  0  0  0  0  0  0  0  0  # atno 17343 bound_to 10162
  157.7211  130.9559  150.1442 LP  0  0  0  0  0  0  0  0  0  0  0  0  # atno 17370 bound_to 10713
  156.2264  130.3678  149.8495 LP  0  0  0  0  0  0  0  0  0  0  0  0  # atno 17371 bound_to 10713
  141.1881  133.6561  156.5308 LP  0  0  0  0  0  0  0  0  0  0  0  0  # atno 17394 bound_to 11000
  140.4076  134.7301  157.4817 LP  0  0  0  0  0  0  0  0  0  0  0  0  # atno 17395 bound_to 11000

$$$$
