AV-unprocessed.smi:449|AV-procd|sdf|2606|dock4
  -GOLD-   2262023 03D 1   1.00000     0.00000
 Structure written by MMmdl.
 38 39  0  0  0  0  0  0  0  0  1 V2000
  145.4983  134.4642  151.5598 C   0  0  0  0  0  0  0  0  0  0  0  0
  145.6015  136.1317  150.8597 S   0  0  0  0  0  0  0  0  0  0  0  0
  145.8800  137.0788  152.3803 C   0  0  0  0  0  0  0  0  0  0  0  0
  146.4270  138.4819  152.0743 C   0  0  0  0  0  0  0  0  0  0  0  0
  146.9561  139.1940  153.3226 C   0  0  0  0  0  0  0  0  0  0  0  0
  146.1780  139.5046  154.2249 O   0  0  0  0  0  0  0  0  0  0  0  0
  148.2794  139.4423  153.3348 N   0  0  0  0  0  0  0  0  0  0  0  0
  149.0494  140.0680  154.3508 C   0  0  0  0  0  0  0  0  0  0  0  0
  150.3529  139.5544  154.5154 C   0  0  0  0  0  0  0  0  0  0  0  0
  151.1963  140.1031  155.4998 C   0  0  0  0  0  0  0  0  0  0  0  0
  150.7263  141.1653  156.3082 C   0  0  0  0  0  0  0  0  0  0  0  0
  151.5120  141.7622  157.3179 N   0  0  0  0  0  0  0  0  0  0  0  0
  151.9899  140.8675  158.3693 C   0  0  0  0  0  0  0  0  0  0  0  0
  153.0875  141.5557  159.1997 C   0  0  0  0  0  0  0  0  0  0  0  0
  152.6050  142.7971  159.7034 O   0  0  0  0  0  0  0  0  0  0  0  0
  152.2557  143.6930  158.6536 C   0  0  0  0  0  0  0  0  0  0  0  0
  151.1263  143.0832  157.8055 C   0  0  0  0  0  0  0  0  0  0  0  0
  149.4052  141.6078  156.0668 C   0  0  0  0  0  0  0  0  0  0  0  0
  148.5946  141.0819  155.1249 N   0  0  0  0  0  0  0  0  0  0  0  0
  145.3284  133.7339  150.7689 H   0  0  0  0  0  0  0  0  0  0  0  0
  144.6763  134.4004  152.2730 H   0  0  0  0  0  0  0  0  0  0  0  0
  146.4256  134.2088  152.0729 H   0  0  0  0  0  0  0  0  0  0  0  0
  144.9373  137.1427  152.9249 H   0  0  0  0  0  0  0  0  0  0  0  0
  146.5805  136.5281  153.0095 H   0  0  0  0  0  0  0  0  0  0  0  0
  147.2223  138.4078  151.3309 H   0  0  0  0  0  0  0  0  0  0  0  0
  145.6435  139.0983  151.6326 H   0  0  0  0  0  0  0  0  0  0  0  0
  148.7971  139.1372  152.5237 H   0  0  0  0  0  0  0  0  0  0  0  0
  150.7096  138.7452  153.8948 H   0  0  0  0  0  0  0  0  0  0  0  0
  152.1923  139.7018  155.6092 H   0  0  0  0  0  0  0  0  0  0  0  0
  151.1500  140.6007  159.0121 H   0  0  0  0  0  0  0  0  0  0  0  0
  152.3846  139.9380  157.9619 H   0  0  0  0  0  0  0  0  0  0  0  0
  153.3773  140.9217  160.0375 H   0  0  0  0  0  0  0  0  0  0  0  0
  153.9837  141.7183  158.5988 H   0  0  0  0  0  0  0  0  0  0  0  0
  151.9299  144.6385  159.0872 H   0  0  0  0  0  0  0  0  0  0  0  0
  153.1310  143.9095  158.0390 H   0  0  0  0  0  0  0  0  0  0  0  0
  150.9083  143.7464  156.9676 H   0  0  0  0  0  0  0  0  0  0  0  0
  150.2182  142.9971  158.4038 H   0  0  0  0  0  0  0  0  0  0  0  0
  148.9652  142.3978  156.6570 H   0  0  0  0  0  0  0  0  0  0  0  0
  1  2  1  0  0  0  0
  1 20  1  0  0  0  0
  1 21  1  0  0  0  0
  1 22  1  0  0  0  0
  2  3  1  0  0  0  0
  3  4  1  0  0  0  0
  3 23  1  0  0  0  0
  3 24  1  0  0  0  0
  4  5  1  0  0  0  0
  4 25  1  0  0  0  0
  4 26  1  0  0  0  0
  5  6  2  0  0  0  0
  5  7  1  0  0  0  0
  7  8  1  0  0  0  0
  7 27  1  0  0  0  0
  8 19  1  0  0  0  0
  8  9  2  0  0  0  0
  9 10  1  0  0  0  0
  9 28  1  0  0  0  0
 10 11  2  0  0  0  0
 10 29  1  0  0  0  0
 11 12  1  0  0  0  0
 11 18  1  0  0  0  0
 12 17  1  0  0  0  0
 12 13  1  0  0  0  0
 13 14  1  0  0  0  0
 13 30  1  0  0  0  0
 13 31  1  0  0  0  0
 14 15  1  0  0  0  0
 14 32  1  0  0  0  0
 14 33  1  0  0  0  0
 15 16  1  0  0  0  0
 16 17  1  0  0  0  0
 16 34  1  0  0  0  0
 16 35  1  0  0  0  0
 17 36  1  0  0  0  0
 17 37  1  0  0  0  0
 18 19  2  0  0  0  0
 18 38  1  0  0  0  0
M  END
> <s_m_source_file>
AV-unprocessed.smi

> <i_m_source_file_index>
449

> <i_lp_mmshare_version>
43012

> <i_f3d_flags>
0

> <s_epik_input>
W0NIM11TW0NIMl1bQ0gyXUMoPU8pW05IXWMxW2NIXVtjSF1jKFtjSF1uMSlOMltDSDJdW0NIMl1PW0NIMl1bQ0gyXTI=

> <s_epik_cmdline>
J2VwaWtfcHl0aG9uJywgJy1waCcsICc3LjAnLCAnLXRuJywgJzgnLCAnLW1hJywgJzIwMCcsICctbWV0YWxfYmluZGluZycsICctaW1hZScsICc8aW5maWxlLm1hZT4nLCAnLW9tYWUnLCAnPG91dGZpbGUubWFlPic=

> <r_lp_tautomer_probability>
1

> <r_epik_Ionization_Penalty>
0.00212969

> <r_epik_Ionization_Penalty_Charging>
0

> <r_epik_Ionization_Penalty_Neutral>
0.00212969

> <r_epik_State_Penalty>
0.00229518

> <r_epik_Charging_Adjusted_Penalty>
0.00229518

> <i_epik_Tot_Q>
0

> <i_epik_Tot_abs_Q>
0

> <r_epik_Metal_State_Penalty>
-0

> <b_epik_Metal_Only>
0

> <s_lp_Force_Field>
OPLS_2005

> <r_lp_Energy>
23.7251

> <b_lp_Chiralities_Consistent>
1

> <s_lp_Variant>
AV-unprocessed.smi:449-1

> <Gold.Version>
5.8.1

> <Gold.Id.Protein>
6NUR|6NUR_protein|mol2

> <Gold.PLP.Fitness>
41.3308

> <Gold.PLP.PLP>
-37.9534

> <Gold.PLP.part.hbond>
-1.0000

> <Gold.PLP.part.metal>
0.0000

> <Gold.PLP.part.buried>
-2.2001

> <Gold.PLP.part.nonpolar>
-35.3134

> <Gold.PLP.part.repulsive>
0.3606

> <Gold.PLP.ligand.clash>
0.0000

> <Gold.PLP.ligand.torsion>
0.6534

> <Gold.PLP.Chemscore.Hbond>
0.4960

> <Gold.PLP.Chemscore.CHOScore>
0.9272

> <Gold.PLP.Chemscore.Metal>
0.0000

> <Gold.Chemscore.Hbonds>
donor molecule, donor type, donor heavy atom, donor atom, acceptor molecule, acceptor atom, score
      L1  H     7    27       P1  7957  0.67
      L1  C    18    38       P1  8028  0.77

> <Gold.PLP.Chemscore.Internal.Correction>
0.4146

> <Gold.Rescore>
     Score         DG    S(hbond)    S(metal)    S(lipo)     H(rot)  DE(clash)    DE(int)     intcor
     12.23     -14.21       0.52        0.00      91.61       1.45       0.14       1.84       ----

> <Gold.Chemscore.Fitness>
12.2302

> <Gold.Chemscore.DG>
-14.2122

> <Gold.Chemscore.ZeroCoef>
-5.4800

> <Gold.Chemscore.Hbond>
0.5163

> <Gold.Chemscore.Metal>
0.0000

> <Gold.Chemscore.Lipo>
91.6064

> <Gold.Chemscore.Internal_Hbond>
0.0000

> <Gold.Chemscore.DEClash>
0.1443

> <Gold.Chemscore.DEInternal>
1.8377

> <Gold.Chemscore.Rot>
1.4493

> <Gold.Chemscore.Internal.Correction>
   9.000000E+99

> <Gold.Chemscore.Hbonds>
donor molecule, donor type, donor heavy atom, donor atom, acceptor molecule, acceptor atom, score
      L1  H     7    27       P1  7957  0.68

> <Gold.Chemscore.Hbond.Weighted>
-1.7246

> <Gold.Chemscore.Metal.Weighted>
-0.0000

> <Gold.Chemscore.Lipo.Weighted>
-10.7179

> <Gold.Chemscore.Internal_Hbond.Weighted>
0.0000

> <Gold.Chemscore.DEClash.Weighted>
0.1443

> <Gold.Chemscore.DEInternal.Weighted>
1.8377

> <Gold.Chemscore.Rot.Weighted>
3.7103

> <Gold.Chemscore.Internal.Correction.Weighted>
   9.000000E+99

> <Gold.Protein.RotatedTorsions>
[ 6907 6896 6895 6894 ] final   25.96 input  -60.11 | X-H torsion
[ 7974 7965 7964 7962 ] final   64.15 input  175.53 | X-H torsion
[ 8008 7997 7996 7995 ] final  -84.91 input   59.86 | X-H torsion
[ 10167 10162 10161 10158 ] final   -2.66 input  -65.29 | X-H torsion
[ 10718 10713 10712 10709 ] final -107.56 input   66.30 | X-H torsion
[ 10763 10752 10751 10750 ] final  100.59 input  -60.55 | X-H torsion
[ 11005 11000 10999 10996 ] final  175.38 input  -57.11 | X-H torsion

> <Gold.Protein.ActiveResidues>
 VAL166  LYS551  ARG553  GLY616  TRP617  ASP618  TYR619  PRO620  LYS621  CYS622 
 ASP623  PHE694  ASN695  SER759  ASP760  ASP761  ALA762  ILE779  LEU786  VAL792 
 PHE793  MET794  SER795  GLU796  ALA797  LYS798  CYS799  TRP800  GLU811  SER814 

> <Gold.Protein.RotatedAtoms>
  151.9803  135.0032  160.0556 H   0  0  0  0  0  0  0  0  0  0  0  0  # atno 6907 bound_to 6896
  152.1702  133.4634  159.4913 H   0  0  0  0  0  0  0  0  0  0  0  0  # atno 6908 bound_to 6896
  150.6900  134.1880  159.4317 H   0  0  0  0  0  0  0  0  0  0  0  0  # atno 6909 bound_to 6896
  145.8536  139.3269  143.0861 H   0  0  0  0  0  0  0  0  0  0  0  0  # atno 7974 bound_to 7965
  154.6350  140.0598  156.9777 H   0  0  0  0  0  0  0  0  0  0  0  0  # atno 8008 bound_to 7997
  155.1606  140.3282  155.4394 H   0  0  0  0  0  0  0  0  0  0  0  0  # atno 8009 bound_to 7997
  156.2502  140.1931  156.6713 H   0  0  0  0  0  0  0  0  0  0  0  0  # atno 8010 bound_to 7997
  140.6859  143.6631  150.8249 H   0  0  0  0  0  0  0  0  0  0  0  0  # atno 10167 bound_to 10162
  156.0442  130.5669  150.7839 H   0  0  0  0  0  0  0  0  0  0  0  0  # atno 10718 bound_to 10713
  153.3159  135.4074  155.1375 H   0  0  0  0  0  0  0  0  0  0  0  0  # atno 10763 bound_to 10752
  154.8588  135.3575  154.5662 H   0  0  0  0  0  0  0  0  0  0  0  0  # atno 10764 bound_to 10752
  153.6093  135.7068  153.5412 H   0  0  0  0  0  0  0  0  0  0  0  0  # atno 10765 bound_to 10752
  140.3616  134.7108  157.4334 H   0  0  0  0  0  0  0  0  0  0  0  0  # atno 11005 bound_to 11000
  145.9329  140.9035  143.0347 LP  0  0  0  0  0  0  0  0  0  0  0  0  # atno 17320 bound_to 7965
  144.6728  140.1443  143.7435 LP  0  0  0  0  0  0  0  0  0  0  0  0  # atno 17321 bound_to 7965
  140.0338  143.5416  152.2748 LP  0  0  0  0  0  0  0  0  0  0  0  0  # atno 17342 bound_to 10162
  139.6218  144.7630  151.2723 LP  0  0  0  0  0  0  0  0  0  0  0  0  # atno 17343 bound_to 10162
  157.5298  131.0936  150.9969 LP  0  0  0  0  0  0  0  0  0  0  0  0  # atno 17370 bound_to 10713
  157.0278  130.5699  149.5339 LP  0  0  0  0  0  0  0  0  0  0  0  0  # atno 17371 bound_to 10713
  140.0622  134.5979  155.8735 LP  0  0  0  0  0  0  0  0  0  0  0  0  # atno 17394 bound_to 11000
  141.1982  133.6600  156.5782 LP  0  0  0  0  0  0  0  0  0  0  0  0  # atno 17395 bound_to 11000

$$$$
