AV-unprocessed.smi:1920|AV-procd|sdf|7778|dock3
  -GOLD-   22720 9523D 1   1.00000     0.00000
 Structure written by MMmdl.
 37 38  0  0  0  0  0  0  0  0  2 V2000
  149.2876  140.1120  156.5691 C   0  0  0  0  0  0  0  0  0  0  0  0
  149.6294  141.1371  155.4794 C   0  0  1  0  0  0  0  0  0  0  0  0
  148.4056  141.4324  154.5861 C   0  0  0  0  0  0  0  0  0  0  0  0
  148.0132  140.2876  153.7571 N   0  0  0  0  0  0  0  0  0  0  0  0
  146.9152  140.1917  152.9408 C   0  0  0  0  0  0  0  0  0  0  0  0
  146.9545  138.9422  152.3781 C   0  0  0  0  0  0  0  0  0  0  0  0
  148.0771  138.3312  152.8687 N   0  3  0  0  0  0  0  0  0  0  0  0
  148.7223  139.1525  153.7035 C   0  0  0  0  0  0  0  0  0  0  0  0
  150.1257  142.3555  156.1182 N   0  0  0  0  0  0  0  0  0  0  0  0
  151.1350  142.4245  157.0010 C   0  0  0  0  0  0  0  0  0  0  0  0
  151.7979  141.4472  157.3490 O   0  0  0  0  0  0  0  0  0  0  0  0
  151.4523  143.8124  157.5680 C   0  0  0  0  0  0  0  0  0  0  0  0
  151.1176  143.9603  159.0685 C   0  0  2  0  0  0  0  0  0  0  0  0
  151.4579  145.3174  159.6363 C   0  0  0  0  0  0  0  0  0  0  0  0
  152.2190  145.2426  160.7257 C   0  0  0  0  0  0  0  0  0  0  0  0
  152.5417  143.8244  161.1059 C   0  0  0  0  0  0  0  0  0  0  0  0
  151.9153  142.9841  159.9707 C   0  0  0  0  0  0  0  0  0  0  0  0
  148.9480  139.1726  156.1321 H   0  0  0  0  0  0  0  0  0  0  0  0
  148.4977  140.4775  157.2262 H   0  0  0  0  0  0  0  0  0  0  0  0
  150.1586  139.8896  157.1865 H   0  0  0  0  0  0  0  0  0  0  0  0
  150.4175  140.6984  154.8643 H   0  0  0  0  0  0  0  0  0  0  0  0
  147.5422  141.6871  155.2021 H   0  0  0  0  0  0  0  0  0  0  0  0
  148.5932  142.2897  153.9372 H   0  0  0  0  0  0  0  0  0  0  0  0
  146.2018  140.9957  152.8309 H   0  0  0  0  0  0  0  0  0  0  0  0
  146.2848  138.4549  151.6844 H   0  0  0  0  0  0  0  0  0  0  0  0
  149.6312  138.9363  154.2362 H   0  0  0  0  0  0  0  0  0  0  0  0
  149.6412  143.2128  155.8936 H   0  0  0  0  0  0  0  0  0  0  0  0
  152.5141  144.0036  157.4101 H   0  0  0  0  0  0  0  0  0  0  0  0
  150.9147  144.5708  156.9961 H   0  0  0  0  0  0  0  0  0  0  0  0
  150.0498  143.8006  159.2262 H   0  0  0  0  0  0  0  0  0  0  0  0
  151.0949  146.2359  159.1985 H   0  0  0  0  0  0  0  0  0  0  0  0
  152.5678  146.0874  161.3012 H   0  0  0  0  0  0  0  0  0  0  0  0
  153.6202  143.6778  161.1722 H   0  0  0  0  0  0  0  0  0  0  0  0
  152.0966  143.5907  162.0734 H   0  0  0  0  0  0  0  0  0  0  0  0
  151.2730  142.1973  160.3673 H   0  0  0  0  0  0  0  0  0  0  0  0
  152.7070  142.4913  159.4047 H   0  0  0  0  0  0  0  0  0  0  0  0
  148.3772  137.3926  152.6362 H   0  0  0  0  0  0  0  0  0  0  0  0
  1  2  1  0  0  0  0
  1 18  1  0  0  0  0
  1 19  1  0  0  0  0
  1 20  1  0  0  0  0
  2  3  1  0  0  0  0
  2  9  1  0  0  0  0
  2 21  1  0  0  0  0
  3  4  1  0  0  0  0
  3 22  1  0  0  0  0
  3 23  1  0  0  0  0
  4  8  1  0  0  0  0
  4  5  1  0  0  0  0
  5  6  2  0  0  0  0
  5 24  1  0  0  0  0
  6  7  1  0  0  0  0
  6 25  1  0  0  0  0
  7  8  2  0  0  0  0
  7 37  1  0  0  0  0
  8 26  1  0  0  0  0
  9 10  1  0  0  0  0
  9 27  1  0  0  0  0
 10 11  2  0  0  0  0
 10 12  1  0  0  0  0
 12 13  1  0  0  0  0
 12 28  1  0  0  0  0
 12 29  1  0  0  0  0
 13 17  1  0  0  0  0
 13 14  1  0  0  0  0
 13 30  1  0  0  0  0
 14 15  2  0  0  0  0
 14 31  1  0  0  0  0
 15 16  1  0  0  0  0
 15 32  1  0  0  0  0
 16 17  1  0  0  0  0
 16 33  1  0  0  0  0
 16 34  1  0  0  0  0
 17 35  1  0  0  0  0
 17 36  1  0  0  0  0
M  CHG  1   7   1
M  END
> <s_m_source_file>
AV-unprocessed.smi

> <i_m_source_file_index>
1920

> <i_lp_mmshare_version>
43012

> <i_f3d_flags>
0

> <s_epik_input>
W2NIXTFuW2NIXVtjSF1uMVtDSDJdW0NAQEhdKFtDSDNdKVtOSF1DKD1PKVtDSDJdW0NAQEhdMltDSF09W0NIXVtDSDJdW0NIMl0y

> <s_epik_cmdline>
J2VwaWtfcHl0aG9uJywgJy1waCcsICc3LjAnLCAnLXRuJywgJzgnLCAnLW1hJywgJzIwMCcsICctbWV0YWxfYmluZGluZycsICctaW1hZScsICc8aW5maWxlLm1hZT4nLCAnLW9tYWUnLCAnPG91dGZpbGUubWFlPic=

> <r_lp_tautomer_probability>
1

> <r_epik_Ionization_Penalty>
0.24816

> <r_epik_Ionization_Penalty_Charging>
0

> <r_epik_Ionization_Penalty_Neutral>
0.24816

> <r_epik_State_Penalty>
0.2394

> <r_epik_Charging_Adjusted_Penalty>
0.2394

> <i_epik_Tot_Q>
1

> <i_epik_Tot_abs_Q>
1

> <r_epik_Metal_State_Penalty>
0.531457

> <b_epik_Metal_Only>
0

> <s_lp_Force_Field>
OPLS_2005

> <r_lp_Energy>
20.1539

> <b_lp_Chiralities_Consistent>
1

> <s_lp_Variant>
AV-unprocessed.smi:1920-2

> <Gold.Version>
5.8.1

> <Gold.Id.Protein>
6NUR|6NUR_protein|mol2

> <Gold.PLP.Fitness>
48.1920

> <Gold.PLP.PLP>
-37.1060

> <Gold.PLP.part.hbond>
-3.0000

> <Gold.PLP.part.metal>
0.0000

> <Gold.PLP.part.buried>
-0.5435

> <Gold.PLP.part.nonpolar>
-34.2905

> <Gold.PLP.part.repulsive>
0.1771

> <Gold.PLP.ligand.clash>
0.0000

> <Gold.PLP.ligand.torsion>
0.1685

> <Gold.PLP.Chemscore.Hbond>
3.0000

> <Gold.PLP.Chemscore.CHOScore>
0.7972

> <Gold.PLP.Chemscore.Metal>
0.0000

> <Gold.Chemscore.Hbonds>
donor molecule, donor type, donor heavy atom, donor atom, acceptor molecule, acceptor atom, score
      L1  H     7    37       P1  7948  1.82
      L1  H     9    27       P1  8028  1.00
      L1  C     5    24       P1 10175  0.71

> <Gold.PLP.Chemscore.Internal.Correction>
0.0315

> <Gold.Rescore>
     Score         DG    S(hbond)    S(metal)    S(lipo)     H(rot)  DE(clash)    DE(int)     intcor
     16.93     -18.44       1.94        0.00      99.43       2.01       0.61       0.89       ----

> <Gold.Chemscore.Fitness>
16.9345

> <Gold.Chemscore.DG>
-18.4433

> <Gold.Chemscore.ZeroCoef>
-5.4800

> <Gold.Chemscore.Hbond>
1.9409

> <Gold.Chemscore.Metal>
0.0000

> <Gold.Chemscore.Lipo>
99.4340

> <Gold.Chemscore.Internal_Hbond>
0.0000

> <Gold.Chemscore.DEClash>
0.6146

> <Gold.Chemscore.DEInternal>
0.8941

> <Gold.Chemscore.Rot>
2.0130

> <Gold.Chemscore.Internal.Correction>
   9.000000E+99

> <Gold.Chemscore.Hbonds>
donor molecule, donor type, donor heavy atom, donor atom, acceptor molecule, acceptor atom, score
      L1  H     7    37       P1  7948  0.88
      L1  H     9    27       P1  8028  1.00

> <Gold.Chemscore.Hbond.Weighted>
-6.4827

> <Gold.Chemscore.Metal.Weighted>
-0.0000

> <Gold.Chemscore.Lipo.Weighted>
-11.6338

> <Gold.Chemscore.Internal_Hbond.Weighted>
0.0000

> <Gold.Chemscore.DEClash.Weighted>
0.6146

> <Gold.Chemscore.DEInternal.Weighted>
0.8941

> <Gold.Chemscore.Rot.Weighted>
5.1533

> <Gold.Chemscore.Internal.Correction.Weighted>
   9.000000E+99

> <Gold.Protein.RotatedTorsions>
[ 6907 6896 6895 6894 ] final  -55.27 input  -60.11 | X-H torsion
[ 7974 7965 7964 7962 ] final   -4.80 input  175.53 | X-H torsion
[ 8008 7997 7996 7995 ] final    3.24 input   59.86 | X-H torsion
[ 10167 10162 10161 10158 ] final  143.36 input  -65.29 | X-H torsion
[ 10718 10713 10712 10709 ] final -170.46 input   66.30 | X-H torsion
[ 10763 10752 10751 10750 ] final   20.71 input  -60.55 | X-H torsion
[ 11005 11000 10999 10996 ] final  115.17 input  -57.11 | X-H torsion

> <Gold.Protein.ActiveResidues>
 VAL166  LYS551  ARG553  GLY616  TRP617  ASP618  TYR619  PRO620  LYS621  CYS622 
 ASP623  PHE694  ASN695  SER759  ASP760  ASP761  ALA762  ILE779  LEU786  VAL792 
 PHE793  MET794  SER795  GLU796  ALA797  LYS798  CYS799  TRP800  GLU811  SER814 

> <Gold.Protein.RotatedAtoms>
  150.8266  134.7500  159.6817 H   0  0  0  0  0  0  0  0  0  0  0  0  # atno 6907 bound_to 6896
  152.4376  134.5652  159.9915 H   0  0  0  0  0  0  0  0  0  0  0  0  # atno 6908 bound_to 6896
  151.5823  133.3338  159.3047 H   0  0  0  0  0  0  0  0  0  0  0  0  # atno 6909 bound_to 6896
  146.2365  140.1925  142.8333 H   0  0  0  0  0  0  0  0  0  0  0  0  # atno 7974 bound_to 7965
  154.7012  140.2673  155.6717 H   0  0  0  0  0  0  0  0  0  0  0  0  # atno 8008 bound_to 7997
  156.2765  140.2771  156.1547 H   0  0  0  0  0  0  0  0  0  0  0  0  # atno 8009 bound_to 7997
  155.0761  140.0372  157.2614 H   0  0  0  0  0  0  0  0  0  0  0  0  # atno 8010 bound_to 7997
  139.4971  144.6045  151.6408 H   0  0  0  0  0  0  0  0  0  0  0  0  # atno 10167 bound_to 10162
  156.7265  130.9290  151.3101 H   0  0  0  0  0  0  0  0  0  0  0  0  # atno 10718 bound_to 10713
  153.1055  135.6683  153.9595 H   0  0  0  0  0  0  0  0  0  0  0  0  # atno 10763 bound_to 10752
  153.9153  135.3020  155.3449 H   0  0  0  0  0  0  0  0  0  0  0  0  # atno 10764 bound_to 10752
  154.7476  135.5050  153.9307 H   0  0  0  0  0  0  0  0  0  0  0  0  # atno 10765 bound_to 10752
  139.9002  134.9579  156.7003 H   0  0  0  0  0  0  0  0  0  0  0  0  # atno 11005 bound_to 11000
  144.9847  140.8491  143.5376 LP  0  0  0  0  0  0  0  0  0  0  0  0  # atno 17320 bound_to 7965
  145.1923  139.2295  143.5236 LP  0  0  0  0  0  0  0  0  0  0  0  0  # atno 17321 bound_to 7965
  140.5703  144.0119  150.6213 LP  0  0  0  0  0  0  0  0  0  0  0  0  # atno 17342 bound_to 10162
  140.3235  143.3122  152.0760 LP  0  0  0  0  0  0  0  0  0  0  0  0  # atno 17343 bound_to 10162
  157.6876  130.9201  150.0428 LP  0  0  0  0  0  0  0  0  0  0  0  0  # atno 17370 bound_to 10713
  156.1558  130.3643  149.9371 LP  0  0  0  0  0  0  0  0  0  0  0  0  # atno 17371 bound_to 10713
  140.7155  133.9186  155.8112 LP  0  0  0  0  0  0  0  0  0  0  0  0  # atno 17394 bound_to 11000
  141.0267  134.0813  157.4060 LP  0  0  0  0  0  0  0  0  0  0  0  0  # atno 17395 bound_to 11000

$$$$
