AV-unprocessed.smi:2129|AV-procd|sdf|8683|dock4
  -GOLD-   2272011433D 1   1.00000     0.00000
 Structure written by MMmdl.
 34 34  0  0  0  0  0  0  0  0  1 V2000
  152.5060  143.1599  161.9482 C   0  0  0  0  0  0  0  0  0  0  0  0
  151.9106  144.1036  160.8881 C   0  0  0  0  0  0  0  0  0  0  0  0
  152.1093  143.6679  159.4105 C   0  0  0  0  0  0  0  0  0  0  0  0
  151.9355  144.8769  158.4706 C   0  0  0  0  0  0  0  0  0  0  0  0
  153.5358  143.1097  159.2144 C   0  0  0  0  0  0  0  0  0  0  0  0
  151.1128  142.6698  159.0058 N   0  0  0  0  0  0  0  0  0  0  0  0
  150.7391  142.3013  157.7649 C   0  0  0  0  0  0  0  0  0  0  0  0
  151.2022  142.8028  156.7419 O   0  0  0  0  0  0  0  0  0  0  0  0
  149.6861  141.1871  157.6350 C   0  0  0  0  0  0  0  0  0  0  0  0
  149.0086  141.1314  156.3287 N   0  0  0  0  0  0  0  0  0  0  0  0
  147.6519  141.4068  156.2329 C   0  0  0  0  0  0  0  0  0  0  0  0
  146.9621  141.3596  155.0685 C   0  0  0  0  0  0  0  0  0  0  0  0
  147.6364  141.0052  153.8242 C   0  0  0  0  0  0  0  0  0  0  0  0
  147.0987  140.9349  152.7215 O   0  0  0  0  0  0  0  0  0  0  0  0
  149.0005  140.7343  153.9618 N   0  0  0  0  0  0  0  0  0  0  0  0
  149.7173  140.7802  155.1584 C   0  0  0  0  0  0  0  0  0  0  0  0
  150.9181  140.5128  155.1701 O   0  0  0  0  0  0  0  0  0  0  0  0
  149.5093  140.4828  153.1266 H   0  0  0  0  0  0  0  0  0  0  0  0
  152.3326  143.5553  162.9490 H   0  0  0  0  0  0  0  0  0  0  0  0
  153.5831  143.0434  161.8281 H   0  0  0  0  0  0  0  0  0  0  0  0
  152.0531  142.1696  161.9093 H   0  0  0  0  0  0  0  0  0  0  0  0
  150.8445  144.2204  161.0864 H   0  0  0  0  0  0  0  0  0  0  0  0
  152.3392  145.0948  161.0387 H   0  0  0  0  0  0  0  0  0  0  0  0
  152.6184  145.6858  158.7326 H   0  0  0  0  0  0  0  0  0  0  0  0
  150.9221  145.2777  158.5045 H   0  0  0  0  0  0  0  0  0  0  0  0
  152.1357  144.6031  157.4337 H   0  0  0  0  0  0  0  0  0  0  0  0
  154.2863  143.8765  159.4092 H   0  0  0  0  0  0  0  0  0  0  0  0
  153.6883  142.7544  158.1946 H   0  0  0  0  0  0  0  0  0  0  0  0
  153.7494  142.2790  159.8868 H   0  0  0  0  0  0  0  0  0  0  0  0
  150.6628  142.1807  159.7658 H   0  0  0  0  0  0  0  0  0  0  0  0
  150.1790  140.2355  157.8383 H   0  0  0  0  0  0  0  0  0  0  0  0
  148.9533  141.3020  158.4361 H   0  0  0  0  0  0  0  0  0  0  0  0
  147.1107  141.6688  157.1309 H   0  0  0  0  0  0  0  0  0  0  0  0
  145.9051  141.5835  155.0584 H   0  0  0  0  0  0  0  0  0  0  0  0
  1  2  1  0  0  0  0
  1 19  1  0  0  0  0
  1 20  1  0  0  0  0
  1 21  1  0  0  0  0
  2  3  1  0  0  0  0
  2 22  1  0  0  0  0
  2 23  1  0  0  0  0
  3  4  1  0  0  0  0
  3  5  1  0  0  0  0
  3  6  1  0  0  0  0
  4 24  1  0  0  0  0
  4 25  1  0  0  0  0
  4 26  1  0  0  0  0
  5 27  1  0  0  0  0
  5 28  1  0  0  0  0
  5 29  1  0  0  0  0
  6  7  1  0  0  0  0
  6 30  1  0  0  0  0
  7  8  2  0  0  0  0
  7  9  1  0  0  0  0
  9 10  1  0  0  0  0
  9 31  1  0  0  0  0
  9 32  1  0  0  0  0
 10 16  1  0  0  0  0
 10 11  1  0  0  0  0
 11 12  2  0  0  0  0
 11 33  1  0  0  0  0
 12 13  1  0  0  0  0
 12 34  1  0  0  0  0
 13 14  2  0  0  0  0
 13 15  1  0  0  0  0
 15 18  1  0  0  0  0
 15 16  1  0  0  0  0
 16 17  2  0  0  0  0
M  END
> <s_m_source_file>
AV-unprocessed.smi

> <i_m_source_file_index>
2129

> <i_lp_mmshare_version>
43012

> <i_f3d_flags>
0

> <s_epik_input>
W0NIM11bQ0gyXUMoW0NIM10pKFtDSDNdKVtOSF1DKD1PKVtDSDJdbjFbY0hdW2NIXWMoPU8pW25IXWMxPU8=

> <s_epik_cmdline>
J2VwaWtfcHl0aG9uJywgJy1waCcsICc3LjAnLCAnLXRuJywgJzgnLCAnLW1hJywgJzIwMCcsICctbWV0YWxfYmluZGluZycsICctaW1hZScsICc8aW5maWxlLm1hZT4nLCAnLW9tYWUnLCAnPG91dGZpbGUubWFlPic=

> <r_lp_tautomer_probability>
0.999537

> <r_epik_Ionization_Penalty>
0.00293907

> <r_epik_Ionization_Penalty_Charging>
0.00293905

> <r_epik_Ionization_Penalty_Neutral>
1.95902e-08

> <r_epik_State_Penalty>
0.0020607

> <r_epik_Charging_Adjusted_Penalty>
0.00499975

> <i_epik_Tot_Q>
0

> <i_epik_Tot_abs_Q>
0

> <r_epik_Metal_State_Penalty>
0.360223

> <b_epik_Metal_Only>
0

> <s_lp_Force_Field>
OPLS_2005

> <r_lp_Energy>
5.65175

> <b_lp_Chiralities_Consistent>
1

> <s_lp_Variant>
AV-unprocessed.smi:2129-1

> <Gold.Version>
5.8.1

> <Gold.Id.Protein>
6NUR|6NUR_protein|mol2

> <Gold.PLP.Fitness>
37.1167

> <Gold.PLP.PLP>
-32.9739

> <Gold.PLP.part.hbond>
-2.0000

> <Gold.PLP.part.metal>
0.0000

> <Gold.PLP.part.buried>
-3.9107

> <Gold.PLP.part.nonpolar>
-27.8617

> <Gold.PLP.part.repulsive>
0.9512

> <Gold.PLP.ligand.clash>
0.0000

> <Gold.PLP.ligand.torsion>
0.9526

> <Gold.PLP.Chemscore.Hbond>
2.0000

> <Gold.PLP.Chemscore.CHOScore>
0.0000

> <Gold.PLP.Chemscore.Metal>
0.0000

> <Gold.Chemscore.Hbonds>
donor molecule, donor type, donor heavy atom, donor atom, acceptor molecule, acceptor atom, score
      L1  H    15    18       P1  7957  1.00
      P1  H  7989  7998       L1    17  0.99

> <Gold.PLP.Chemscore.Internal.Correction>
0.0479

> <Gold.Rescore>
     Score         DG    S(hbond)    S(metal)    S(lipo)     H(rot)  DE(clash)    DE(int)     intcor
     10.48     -15.00       1.81        0.00      72.34       1.95       0.18       4.35       ----

> <Gold.Chemscore.Fitness>
10.4760

> <Gold.Chemscore.DG>
-15.0045

> <Gold.Chemscore.ZeroCoef>
-5.4800

> <Gold.Chemscore.Hbond>
1.8107

> <Gold.Chemscore.Metal>
0.0000

> <Gold.Chemscore.Lipo>
72.3449

> <Gold.Chemscore.Internal_Hbond>
0.0000

> <Gold.Chemscore.DEClash>
0.1820

> <Gold.Chemscore.DEInternal>
4.3465

> <Gold.Chemscore.Rot>
1.9483

> <Gold.Chemscore.Internal.Correction>
   9.000000E+99

> <Gold.Chemscore.Hbonds>
donor molecule, donor type, donor heavy atom, donor atom, acceptor molecule, acceptor atom, score
      L1  H    15    18       P1  7957  0.92
      P1  H  7989  7998       L1    17  0.65

> <Gold.Chemscore.Hbond.Weighted>
-6.0478

> <Gold.Chemscore.Metal.Weighted>
-0.0000

> <Gold.Chemscore.Lipo.Weighted>
-8.4644

> <Gold.Chemscore.Internal_Hbond.Weighted>
0.0000

> <Gold.Chemscore.DEClash.Weighted>
0.1820

> <Gold.Chemscore.DEInternal.Weighted>
4.3465

> <Gold.Chemscore.Rot.Weighted>
4.9876

> <Gold.Chemscore.Internal.Correction.Weighted>
   9.000000E+99

> <Gold.Protein.RotatedTorsions>
[ 6907 6896 6895 6894 ] final  -39.06 input  -60.11 | X-H torsion
[ 7974 7965 7964 7962 ] final  139.16 input  175.53 | X-H torsion
[ 8008 7997 7996 7995 ] final  -84.80 input   59.86 | X-H torsion
[ 10167 10162 10161 10158 ] final   55.13 input  -65.29 | X-H torsion
[ 10718 10713 10712 10709 ] final  -87.58 input   66.30 | X-H torsion
[ 10763 10752 10751 10750 ] final  -30.79 input  -60.55 | X-H torsion
[ 11005 11000 10999 10996 ] final   95.59 input  -57.11 | X-H torsion

> <Gold.Protein.ActiveResidues>
 VAL166  LYS551  ARG553  GLY616  TRP617  ASP618  TYR619  PRO620  LYS621  CYS622 
 ASP623  PHE694  ASN695  SER759  ASP760  ASP761  ALA762  ILE779  LEU786  VAL792 
 PHE793  MET794  SER795  GLU796  ALA797  LYS798  CYS799  TRP800  GLU811  SER814 

> <Gold.Protein.RotatedAtoms>
  150.9948  134.9275  159.7920 H   0  0  0  0  0  0  0  0  0  0  0  0  # atno 6907 bound_to 6896
  152.5261  134.3233  159.9166 H   0  0  0  0  0  0  0  0  0  0  0  0  # atno 6908 bound_to 6896
  151.3238  133.3987  159.2691 H   0  0  0  0  0  0  0  0  0  0  0  0  # atno 6909 bound_to 6896
  144.9305  139.5053  143.5620 H   0  0  0  0  0  0  0  0  0  0  0  0  # atno 7974 bound_to 7965
  154.6338  140.0600  156.9764 H   0  0  0  0  0  0  0  0  0  0  0  0  # atno 8008 bound_to 7997
  155.1624  140.3284  155.4390 H   0  0  0  0  0  0  0  0  0  0  0  0  # atno 8009 bound_to 7997
  156.2496  140.1928  156.6731 H   0  0  0  0  0  0  0  0  0  0  0  0  # atno 8010 bound_to 7997
  140.2228  144.3770  150.6444 H   0  0  0  0  0  0  0  0  0  0  0  0  # atno 10167 bound_to 10162
  155.9985  130.4805  150.4888 H   0  0  0  0  0  0  0  0  0  0  0  0  # atno 10718 bound_to 10713
  153.7867  135.6901  153.4878 H   0  0  0  0  0  0  0  0  0  0  0  0  # atno 10763 bound_to 10752
  153.1776  135.4519  154.9984 H   0  0  0  0  0  0  0  0  0  0  0  0  # atno 10764 bound_to 10752
  154.8060  135.3357  154.7366 H   0  0  0  0  0  0  0  0  0  0  0  0  # atno 10765 bound_to 10752
  139.8788  134.8907  156.4033 H   0  0  0  0  0  0  0  0  0  0  0  0  # atno 11005 bound_to 11000
  146.3245  139.8252  142.8919 LP  0  0  0  0  0  0  0  0  0  0  0  0  # atno 17320 bound_to 7965
  145.3150  141.0229  143.3533 LP  0  0  0  0  0  0  0  0  0  0  0  0  # atno 17321 bound_to 7965
  140.6243  143.2179  151.6630 LP  0  0  0  0  0  0  0  0  0  0  0  0  # atno 17342 bound_to 10162
  139.5138  144.3431  152.0721 LP  0  0  0  0  0  0  0  0  0  0  0  0  # atno 17343 bound_to 10162
  157.2885  131.0621  151.2149 LP  0  0  0  0  0  0  0  0  0  0  0  0  # atno 17370 bound_to 10713
  157.3170  130.6918  149.6248 LP  0  0  0  0  0  0  0  0  0  0  0  0  # atno 17371 bound_to 10713
  140.9251  133.7618  155.9955 LP  0  0  0  0  0  0  0  0  0  0  0  0  # atno 17394 bound_to 11000
  140.8395  134.3084  157.5319 LP  0  0  0  0  0  0  0  0  0  0  0  0  # atno 17395 bound_to 11000

$$$$
