AV-unprocessed.smi:2727|AV-procd|sdf|10524|dock2
  -GOLD-   2272014563D 1   1.00000     0.00000
 Structure written by MMmdl.
 39 40  0  0  0  0  0  0  0  0  2 V2000
  149.0114  138.6894  158.9095 O   0  0  0  0  0  0  0  0  0  0  0  0
  149.9010  137.8362  158.9482 C   0  0  0  0  0  0  0  0  0  0  0  0
  151.0848  138.0822  158.3712 N   0  0  0  0  0  0  0  0  0  0  0  0
  151.4413  139.3134  157.6724 C   0  0  0  0  0  0  0  0  0  0  0  0
  151.9388  140.3976  158.6493 C   0  0  0  0  0  0  0  0  0  0  0  0
  151.7431  141.8449  158.1538 C   0  0  0  0  0  0  0  0  0  0  0  0
  150.8321  142.0838  157.3591 O   0  0  0  0  0  0  0  0  0  0  0  0
  152.5742  142.8192  158.6003 N   0  0  0  0  0  0  0  0  0  0  0  0
  153.5982  142.5443  159.6160 C   0  0  0  0  0  0  0  0  0  0  0  0
  153.0162  142.5722  161.0441 C   0  0  0  0  0  0  0  0  0  0  0  0
  151.8944  143.6046  161.2955 C   0  0  0  0  0  0  0  0  0  0  0  0
  152.1102  144.9860  160.6451 C   0  0  0  0  0  0  0  0  0  0  0  0
  151.6542  145.0573  159.1719 C   0  0  0  0  0  0  0  0  0  0  0  0
  152.5147  144.2310  158.1970 C   0  0  0  0  0  0  0  0  0  0  0  0
  149.8221  136.6197  159.5333 N   0  5  0  0  0  0  0  0  0  0  0  0
  148.6785  136.2347  160.1226 C   0  0  0  0  0  0  0  0  0  0  0  0
  148.2551  134.9797  160.2844 N   0  0  0  0  0  0  0  0  0  0  0  0
  147.0322  135.0725  160.9308 C   0  0  0  0  0  0  0  0  0  0  0  0
  146.7615  136.3991  161.1283 C   0  0  0  0  0  0  0  0  0  0  0  0
  147.7905  137.1421  160.6193 O   0  0  0  0  0  0  0  0  0  0  0  0
  151.7864  137.3580  158.4176 H   0  0  0  0  0  0  0  0  0  0  0  0
  152.1974  139.1019  156.9144 H   0  0  0  0  0  0  0  0  0  0  0  0
  150.5630  139.6832  157.1414 H   0  0  0  0  0  0  0  0  0  0  0  0
  151.4146  140.2944  159.5996 H   0  0  0  0  0  0  0  0  0  0  0  0
  152.9918  140.2032  158.8495 H   0  0  0  0  0  0  0  0  0  0  0  0
  154.0883  141.5871  159.4295 H   0  0  0  0  0  0  0  0  0  0  0  0
  154.4019  143.2786  159.5530 H   0  0  0  0  0  0  0  0  0  0  0  0
  152.6281  141.5833  161.2917 H   0  0  0  0  0  0  0  0  0  0  0  0
  153.8334  142.7490  161.7439 H   0  0  0  0  0  0  0  0  0  0  0  0
  150.9389  143.1967  160.9622 H   0  0  0  0  0  0  0  0  0  0  0  0
  151.7915  143.7318  162.3735 H   0  0  0  0  0  0  0  0  0  0  0  0
  151.5260  145.7168  161.2054 H   0  0  0  0  0  0  0  0  0  0  0  0
  153.1504  145.2983  160.7442 H   0  0  0  0  0  0  0  0  0  0  0  0
  150.6111  144.7478  159.1030 H   0  0  0  0  0  0  0  0  0  0  0  0
  151.6738  146.0988  158.8494 H   0  0  0  0  0  0  0  0  0  0  0  0
  153.5182  144.6556  158.1543 H   0  0  0  0  0  0  0  0  0  0  0  0
  152.1394  144.3401  157.1795 H   0  0  0  0  0  0  0  0  0  0  0  0
  146.4575  134.1971  161.1941 H   0  0  0  0  0  0  0  0  0  0  0  0
  145.9444  136.9423  161.5787 H   0  0  0  0  0  0  0  0  0  0  0  0
  1  2  2  0  0  0  0
  2  3  1  0  0  0  0
  2 15  1  0  0  0  0
  3  4  1  0  0  0  0
  3 21  1  0  0  0  0
  4  5  1  0  0  0  0
  4 22  1  0  0  0  0
  4 23  1  0  0  0  0
  5  6  1  0  0  0  0
  5 24  1  0  0  0  0
  5 25  1  0  0  0  0
  6  7  2  0  0  0  0
  6  8  1  0  0  0  0
  8 14  1  0  0  0  0
  8  9  1  0  0  0  0
  9 10  1  0  0  0  0
  9 26  1  0  0  0  0
  9 27  1  0  0  0  0
 10 11  1  0  0  0  0
 10 28  1  0  0  0  0
 10 29  1  0  0  0  0
 11 12  1  0  0  0  0
 11 30  1  0  0  0  0
 11 31  1  0  0  0  0
 12 13  1  0  0  0  0
 12 32  1  0  0  0  0
 12 33  1  0  0  0  0
 13 14  1  0  0  0  0
 13 34  1  0  0  0  0
 13 35  1  0  0  0  0
 14 36  1  0  0  0  0
 14 37  1  0  0  0  0
 15 16  1  0  0  0  0
 16 20  1  0  0  0  0
 16 17  2  0  0  0  0
 17 18  1  0  0  0  0
 18 19  2  0  0  0  0
 18 38  1  0  0  0  0
 19 20  1  0  0  0  0
 19 39  1  0  0  0  0
M  CHG  1  15  -1
M  END
> <s_m_source_file>
AV-unprocessed.smi

> <i_m_source_file_index>
2727

> <i_lp_mmshare_version>
43012

> <i_f3d_flags>
0

> <s_epik_input>
bzFbY0hdW2NIXW5jMVtOSF1DKD1PKVtOSF1bQ0gyXVtDSDJdQyg9TylOMltDSDJdW0NIMl1bQ0gyXVtDSDJdW0NIMl1bQ0gyXTI=

> <s_epik_cmdline>
J2VwaWtfcHl0aG9uJywgJy1waCcsICc3LjAnLCAnLXRuJywgJzgnLCAnLW1hJywgJzIwMCcsICctbWV0YWxfYmluZGluZycsICctaW1hZScsICc8aW5maWxlLm1hZT4nLCAnLW9tYWUnLCAnPG91dGZpbGUubWFlPic=

> <r_lp_tautomer_probability>
0.785861

> <r_epik_Ionization_Penalty>
9.14426

> <r_epik_Ionization_Penalty_Charging>
6.65642

> <r_epik_Ionization_Penalty_Neutral>
2.48784

> <r_epik_State_Penalty>
6.67734

> <r_epik_Charging_Adjusted_Penalty>
13.3338

> <i_epik_Tot_Q>
-1

> <i_epik_Tot_abs_Q>
1

> <r_epik_Metal_State_Penalty>
2.58025

> <b_epik_Metal_Only>
1

> <s_lp_Force_Field>
OPLS_2005

> <r_lp_Energy>
17.6318

> <b_lp_Chiralities_Consistent>
1

> <s_lp_Variant>
AV-unprocessed.smi:2727-4

> <Gold.Version>
5.8.1

> <Gold.Id.Protein>
6NUR|6NUR_protein|mol2

> <Gold.PLP.Fitness>
51.6373

> <Gold.PLP.PLP>
-42.1539

> <Gold.PLP.part.hbond>
-4.8996

> <Gold.PLP.part.metal>
0.0000

> <Gold.PLP.part.buried>
-4.2444

> <Gold.PLP.part.nonpolar>
-34.1043

> <Gold.PLP.part.repulsive>
0.1719

> <Gold.PLP.ligand.clash>
0.0000

> <Gold.PLP.ligand.torsion>
0.8399

> <Gold.PLP.Chemscore.Hbond>
3.7047

> <Gold.PLP.Chemscore.CHOScore>
0.0000

> <Gold.PLP.Chemscore.Metal>
0.0000

> <Gold.Chemscore.Hbonds>
donor molecule, donor type, donor heavy atom, donor atom, acceptor molecule, acceptor atom, score
      P1  H  6896  6909       L1    15  1.90
      P1  H  6931  6943       L1    20  0.68
      P1  H  6934  6947       L1    20  0.88

> <Gold.PLP.Chemscore.Internal.Correction>
0.0491

> <Gold.Rescore>
     Score         DG    S(hbond)    S(metal)    S(lipo)     H(rot)  DE(clash)    DE(int)     intcor
     15.20     -17.76       1.66        0.00      94.33       1.67       0.08       2.49       ----

> <Gold.Chemscore.Fitness>
15.1960

> <Gold.Chemscore.DG>
-17.7635

> <Gold.Chemscore.ZeroCoef>
-5.4800

> <Gold.Chemscore.Hbond>
1.6569

> <Gold.Chemscore.Metal>
0.0000

> <Gold.Chemscore.Lipo>
94.3258

> <Gold.Chemscore.Internal_Hbond>
0.0000

> <Gold.Chemscore.DEClash>
0.0808

> <Gold.Chemscore.DEInternal>
2.4868

> <Gold.Chemscore.Rot>
1.6745

> <Gold.Chemscore.Internal.Correction>
   9.000000E+99

> <Gold.Chemscore.Hbonds>
donor molecule, donor type, donor heavy atom, donor atom, acceptor molecule, acceptor atom, score
      P1  H  6896  6909       L1    15  0.20
      P1  H  6931  6943       L1    20  0.20
      P1  H  6934  6947       L1    20  0.37

> <Gold.Chemscore.Hbond.Weighted>
-5.5341

> <Gold.Chemscore.Metal.Weighted>
-0.0000

> <Gold.Chemscore.Lipo.Weighted>
-11.0361

> <Gold.Chemscore.Internal_Hbond.Weighted>
0.0000

> <Gold.Chemscore.DEClash.Weighted>
0.0808

> <Gold.Chemscore.DEInternal.Weighted>
2.4868

> <Gold.Chemscore.Rot.Weighted>
4.2866

> <Gold.Chemscore.Internal.Correction.Weighted>
   9.000000E+99

> <Gold.Protein.RotatedTorsions>
[ 6907 6896 6895 6894 ] final   73.31 input  -60.11 | X-H torsion
[ 7974 7965 7964 7962 ] final  151.44 input  175.53 | X-H torsion
[ 8008 7997 7996 7995 ] final   38.81 input   59.86 | X-H torsion
[ 10167 10162 10161 10158 ] final   12.04 input  -65.29 | X-H torsion
[ 10718 10713 10712 10709 ] final  -90.63 input   66.30 | X-H torsion
[ 10763 10752 10751 10750 ] final -172.52 input  -60.55 | X-H torsion
[ 11005 11000 10999 10996 ] final   23.14 input  -57.11 | X-H torsion

> <Gold.Protein.ActiveResidues>
 VAL166  LYS551  ARG553  GLY616  TRP617  ASP618  TYR619  PRO620  LYS621  CYS622 
 ASP623  PHE694  ASN695  SER759  ASP760  ASP761  ALA762  ILE779  LEU786  VAL792 
 PHE793  MET794  SER795  GLU796  ALA797  LYS798  CYS799  TRP800  GLU811  SER814 

> <Gold.Protein.RotatedAtoms>
  152.4916  134.4440  159.9552 H   0  0  0  0  0  0  0  0  0  0  0  0  # atno 6907 bound_to 6896
  151.4426  133.3633  159.2792 H   0  0  0  0  0  0  0  0  0  0  0  0  # atno 6908 bound_to 6896
  150.9077  134.8516  159.7464 H   0  0  0  0  0  0  0  0  0  0  0  0  # atno 6909 bound_to 6896
  144.8292  139.6539  143.6066 H   0  0  0  0  0  0  0  0  0  0  0  0  # atno 7974 bound_to 7965
  155.2263  140.3335  155.4309 H   0  0  0  0  0  0  0  0  0  0  0  0  # atno 8008 bound_to 7997
  156.2313  140.1852  156.7282 H   0  0  0  0  0  0  0  0  0  0  0  0  # atno 8009 bound_to 7997
  154.5982  140.0627  156.9318 H   0  0  0  0  0  0  0  0  0  0  0  0  # atno 8010 bound_to 7997
  140.6093  143.8441  150.7048 H   0  0  0  0  0  0  0  0  0  0  0  0  # atno 10167 bound_to 10162
  155.9989  130.4917  150.5352 H   0  0  0  0  0  0  0  0  0  0  0  0  # atno 10718 bound_to 10713
  154.6184  135.2872  155.0354 H   0  0  0  0  0  0  0  0  0  0  0  0  # atno 10763 bound_to 10752
  154.1558  135.6496  153.4978 H   0  0  0  0  0  0  0  0  0  0  0  0  # atno 10764 bound_to 10752
  153.0225  135.5366  154.6964 H   0  0  0  0  0  0  0  0  0  0  0  0  # atno 10765 bound_to 10752
  140.3728  134.2004  155.7666 H   0  0  0  0  0  0  0  0  0  0  0  0  # atno 11005 bound_to 11000
  146.2596  139.6379  142.9371 LP  0  0  0  0  0  0  0  0  0  0  0  0  # atno 17320 bound_to 7965
  145.4933  141.0438  143.2581 LP  0  0  0  0  0  0  0  0  0  0  0  0  # atno 17321 bound_to 7965
  140.2006  143.3963  152.1795 LP  0  0  0  0  0  0  0  0  0  0  0  0  # atno 17342 bound_to 10162
  139.5349  144.7199  151.4928 LP  0  0  0  0  0  0  0  0  0  0  0  0  # atno 17343 bound_to 10162
  157.3296  131.0697  151.1871 LP  0  0  0  0  0  0  0  0  0  0  0  0  # atno 17370 bound_to 10713
  157.2756  130.6725  149.6041 LP  0  0  0  0  0  0  0  0  0  0  0  0  # atno 17371 bound_to 10713
  141.1949  133.8118  157.0738 LP  0  0  0  0  0  0  0  0  0  0  0  0  # atno 17394 bound_to 11000
  140.0538  134.9791  157.1184 LP  0  0  0  0  0  0  0  0  0  0  0  0  # atno 17395 bound_to 11000

$$$$
