AV-unprocessed.smi:1209|AV-procd|sdf|5074|dock7
  -GOLD-   22720 4123D 1   1.00000     0.00000
 Structure written by MMmdl.
 49 51  0  0  0  0  0  0  0  0  2 V2000
  146.1344  132.3538  151.5243 C   0  0  0  0  0  0  0  0  0  0  0  0
  146.4405  133.4636  152.4708 C   0  0  0  0  0  0  0  0  0  0  0  0
  147.3895  133.6281  153.4393 C   0  0  0  0  0  0  0  0  0  0  0  0
  147.1138  134.9210  153.9634 C   0  0  0  0  0  0  0  0  0  0  0  0
  147.8344  135.6533  155.0616 C   0  0  0  0  0  0  0  0  0  0  0  0
  149.2796  135.8105  154.7537 N   0  3  2  0  0  0  0  0  0  0  0  0
  149.9924  134.5127  154.6852 C   0  0  0  0  0  0  0  0  0  0  0  0
  149.9659  136.7738  155.6524 C   0  0  0  0  0  0  0  0  0  0  0  0
  150.9788  137.6577  154.8984 C   0  0  2  0  0  0  0  0  0  0  0  0
  151.8222  136.8256  154.1256 O   0  0  0  0  0  0  0  0  0  0  0  0
  151.8387  138.4965  155.8628 C   0  0  0  0  0  0  0  0  0  0  0  0
  151.3387  139.8516  156.0082 N   0  0  0  0  0  0  0  0  0  0  0  0
  150.4530  140.4856  155.2156 C   0  0  0  0  0  0  0  0  0  0  0  0
  150.1295  141.7335  155.5420 N   0  0  0  0  0  0  0  0  0  0  0  0
  150.9010  141.9363  156.6734 C   0  0  0  0  0  0  0  0  0  0  0  0
  151.0214  143.0655  157.5124 C   0  0  0  0  0  0  0  0  0  0  0  0
  151.8829  143.0474  158.6327 C   0  0  0  0  0  0  0  0  0  0  0  0
  151.9789  144.2827  159.5103 C   0  0  0  0  0  0  0  0  0  0  0  0
  152.6438  141.8870  158.9258 C   0  0  0  0  0  0  0  0  0  0  0  0
  153.5766  141.8449  160.1231 C   0  0  0  0  0  0  0  0  0  0  0  0
  152.5362  140.7507  158.0973 C   0  0  0  0  0  0  0  0  0  0  0  0
  151.6722  140.7796  156.9885 C   0  0  0  0  0  0  0  0  0  0  0  0
  146.0858  135.4886  153.3543 N   0  0  0  0  0  0  0  0  0  0  0  0
  145.6478  134.5636  152.4001 O   0  0  0  0  0  0  0  0  0  0  0  0
  146.6548  131.4405  151.8132 H   0  0  0  0  0  0  0  0  0  0  0  0
  146.4437  132.6143  150.5120 H   0  0  0  0  0  0  0  0  0  0  0  0
  145.0652  132.1418  151.5078 H   0  0  0  0  0  0  0  0  0  0  0  0
  148.1614  132.9302  153.7283 H   0  0  0  0  0  0  0  0  0  0  0  0
  147.3661  136.6283  155.1891 H   0  0  0  0  0  0  0  0  0  0  0  0
  147.7187  135.1422  156.0192 H   0  0  0  0  0  0  0  0  0  0  0  0
  149.9909  134.0155  155.6561 H   0  0  0  0  0  0  0  0  0  0  0  0
  151.0285  134.6577  154.3774 H   0  0  0  0  0  0  0  0  0  0  0  0
  149.5335  133.8432  153.9577 H   0  0  0  0  0  0  0  0  0  0  0  0
  149.2176  137.3872  156.1569 H   0  0  0  0  0  0  0  0  0  0  0  0
  150.4973  136.2380  156.4411 H   0  0  0  0  0  0  0  0  0  0  0  0
  150.4608  138.3330  154.2183 H   0  0  0  0  0  0  0  0  0  0  0  0
  151.4097  136.6745  153.2880 H   0  0  0  0  0  0  0  0  0  0  0  0
  151.8541  138.0362  156.8515 H   0  0  0  0  0  0  0  0  0  0  0  0
  152.8738  138.5364  155.5201 H   0  0  0  0  0  0  0  0  0  0  0  0
  150.0163  140.0025  154.3534 H   0  0  0  0  0  0  0  0  0  0  0  0
  150.4433  143.9499  157.2880 H   0  0  0  0  0  0  0  0  0  0  0  0
  152.9995  144.6661  159.5201 H   0  0  0  0  0  0  0  0  0  0  0  0
  151.6862  144.0482  160.5340 H   0  0  0  0  0  0  0  0  0  0  0  0
  151.3259  145.0786  159.1504 H   0  0  0  0  0  0  0  0  0  0  0  0
  154.0882  140.8847  160.1955 H   0  0  0  0  0  0  0  0  0  0  0  0
  153.0181  141.9972  161.0468 H   0  0  0  0  0  0  0  0  0  0  0  0
  154.3361  142.6230  160.0444 H   0  0  0  0  0  0  0  0  0  0  0  0
  153.1107  139.8612  158.3089 H   0  0  0  0  0  0  0  0  0  0  0  0
  149.3382  136.2120  153.8283 H   0  0  0  0  0  0  0  0  0  0  0  0
  1  2  1  0  0  0  0
  1 25  1  0  0  0  0
  1 26  1  0  0  0  0
  1 27  1  0  0  0  0
  2 24  1  0  0  0  0
  2  3  2  0  0  0  0
  3  4  1  0  0  0  0
  3 28  1  0  0  0  0
  4  5  1  0  0  0  0
  4 23  2  0  0  0  0
  5  6  1  0  0  0  0
  5 29  1  0  0  0  0
  5 30  1  0  0  0  0
  6  7  1  0  0  0  0
  6  8  1  0  0  0  0
  6 49  1  0  0  0  0
  7 31  1  0  0  0  0
  7 32  1  0  0  0  0
  7 33  1  0  0  0  0
  8  9  1  0  0  0  0
  8 34  1  0  0  0  0
  8 35  1  0  0  0  0
  9 10  1  0  0  0  0
  9 11  1  0  0  0  0
  9 36  1  0  0  0  0
 10 37  1  0  0  0  0
 11 12  1  0  0  0  0
 11 38  1  0  0  0  0
 11 39  1  0  0  0  0
 12 22  1  0  0  0  0
 12 13  1  0  0  0  0
 13 14  2  0  0  0  0
 13 40  1  0  0  0  0
 14 15  1  0  0  0  0
 15 22  2  0  0  0  0
 15 16  1  0  0  0  0
 16 17  2  0  0  0  0
 16 41  1  0  0  0  0
 17 18  1  0  0  0  0
 17 19  1  0  0  0  0
 18 42  1  0  0  0  0
 18 43  1  0  0  0  0
 18 44  1  0  0  0  0
 19 20  1  0  0  0  0
 19 21  2  0  0  0  0
 20 45  1  0  0  0  0
 20 46  1  0  0  0  0
 20 47  1  0  0  0  0
 21 22  1  0  0  0  0
 21 48  1  0  0  0  0
 23 24  1  0  0  0  0
M  CHG  1   6   1
M  END
> <s_m_source_file>
AV-unprocessed.smi

> <i_m_source_file_index>
1209

> <i_lp_mmshare_version>
43012

> <i_f3d_flags>
0

> <s_epik_input>
W0NIM11jMVtjSF1jKG5vMSlbQ0gyXU4oW0NIM10pW0NIMl1bQ0BIXShbT0hdKVtDSDJdbihbY0hdbjIpYyhjMjMpW2NIXWMoW0NIM10pYyhbY0hdMylbQ0gzXQ==

> <s_epik_cmdline>
J2VwaWtfcHl0aG9uJywgJy1waCcsICc3LjAnLCAnLXRuJywgJzgnLCAnLW1hJywgJzIwMCcsICctbWV0YWxfYmluZGluZycsICctaW1hZScsICc8aW5maWxlLm1hZT4nLCAnLW9tYWUnLCAnPG91dGZpbGUubWFlPic=

> <r_epik_Ionization_Penalty>
2.05249

> <r_epik_Ionization_Penalty_Charging>
1.96618

> <r_epik_Ionization_Penalty_Neutral>
0.0863156

> <r_epik_State_Penalty>
2.19215

> <r_epik_Charging_Adjusted_Penalty>
4.15833

> <i_epik_Tot_Q>
1

> <i_epik_Tot_abs_Q>
1

> <r_epik_Metal_State_Penalty>
2.17654

> <b_epik_Metal_Only>
0

> <s_lp_Force_Field>
OPLS_2005

> <r_lp_Energy>
8.61119

> <b_lp_Chiralities_Consistent>
1

> <s_lp_Variant>
AV-unprocessed.smi:1209-6

> <Gold.Version>
5.8.1

> <Gold.Id.Protein>
6NUR|6NUR_protein|mol2

> <Gold.PLP.Fitness>
52.6286

> <Gold.PLP.PLP>
-43.0504

> <Gold.PLP.part.hbond>
-3.0000

> <Gold.PLP.part.metal>
0.0000

> <Gold.PLP.part.buried>
-3.1327

> <Gold.PLP.part.nonpolar>
-36.7992

> <Gold.PLP.part.repulsive>
0.3071

> <Gold.PLP.ligand.clash>
0.0000

> <Gold.PLP.ligand.torsion>
1.3042

> <Gold.PLP.Chemscore.Hbond>
4.0000

> <Gold.PLP.Chemscore.CHOScore>
0.0000

> <Gold.PLP.Chemscore.Metal>
0.0000

> <Gold.Chemscore.Hbonds>
donor molecule, donor type, donor heavy atom, donor atom, acceptor molecule, acceptor atom, score
      L1  H     6    49       P1  7948  2.00
      L1  H    10    37       P1  7949  1.00
      P1  H 10752 10765       L1    10  1.00

> <Gold.PLP.Chemscore.Internal.Correction>
0.1867

> <Gold.Rescore>
     Score         DG    S(hbond)    S(metal)    S(lipo)     H(rot)  DE(clash)    DE(int)     intcor
     18.21     -20.11       2.37        0.00     112.84       2.53       0.55       1.34       ----

> <Gold.Chemscore.Fitness>
18.2110

> <Gold.Chemscore.DG>
-20.1068

> <Gold.Chemscore.ZeroCoef>
-5.4800

> <Gold.Chemscore.Hbond>
2.3681

> <Gold.Chemscore.Metal>
0.0000

> <Gold.Chemscore.Lipo>
112.8405

> <Gold.Chemscore.Internal_Hbond>
0.0000

> <Gold.Chemscore.DEClash>
0.5522

> <Gold.Chemscore.DEInternal>
1.3437

> <Gold.Chemscore.Rot>
2.5332

> <Gold.Chemscore.Internal.Correction>
   9.000000E+99

> <Gold.Chemscore.Hbonds>
donor molecule, donor type, donor heavy atom, donor atom, acceptor molecule, acceptor atom, score
      L1  H     6    49       P1  7948  0.78
      L1  H    10    37       P1  7949  0.81
      P1  H 10752 10765       L1    10  0.30

> <Gold.Chemscore.Hbond.Weighted>
-7.9096

> <Gold.Chemscore.Metal.Weighted>
-0.0000

> <Gold.Chemscore.Lipo.Weighted>
-13.2023

> <Gold.Chemscore.Internal_Hbond.Weighted>
0.0000

> <Gold.Chemscore.DEClash.Weighted>
0.5522

> <Gold.Chemscore.DEInternal.Weighted>
1.3437

> <Gold.Chemscore.Rot.Weighted>
6.4851

> <Gold.Chemscore.Internal.Correction.Weighted>
   9.000000E+99

> <Gold.Protein.RotatedTorsions>
[ 6907 6896 6895 6894 ] final  168.57 input  -60.11 | X-H torsion
[ 7974 7965 7964 7962 ] final -130.31 input  175.53 | X-H torsion
[ 8008 7997 7996 7995 ] final  168.39 input   59.86 | X-H torsion
[ 10167 10162 10161 10158 ] final  -84.24 input  -65.29 | X-H torsion
[ 10718 10713 10712 10709 ] final  -90.19 input   66.30 | X-H torsion
[ 10763 10752 10751 10750 ] final  151.25 input  -60.55 | X-H torsion
[ 11005 11000 10999 10996 ] final -106.66 input  -57.11 | X-H torsion

> <Gold.Protein.ActiveResidues>
 VAL166  LYS551  ARG553  GLY616  TRP617  ASP618  TYR619  PRO620  LYS621  CYS622 
 ASP623  PHE694  ASN695  SER759  ASP760  ASP761  ALA762  ILE779  LEU786  VAL792 
 PHE793  MET794  SER795  GLU796  ALA797  LYS798  CYS799  TRP800  GLU811  SER814 

> <Gold.Protein.RotatedAtoms>
  151.8455  133.3431  159.3656 H   0  0  0  0  0  0  0  0  0  0  0  0  # atno 6907 bound_to 6896
  150.7222  134.5349  159.5728 H   0  0  0  0  0  0  0  0  0  0  0  0  # atno 6908 bound_to 6896
  152.2832  134.7806  160.0443 H   0  0  0  0  0  0  0  0  0  0  0  0  # atno 6909 bound_to 6896
  144.9487  140.7320  143.4801 H   0  0  0  0  0  0  0  0  0  0  0  0  # atno 7974 bound_to 7965
  156.1550  140.1591  156.8707 H   0  0  0  0  0  0  0  0  0  0  0  0  # atno 8008 bound_to 7997
  154.5107  140.0802  156.8019 H   0  0  0  0  0  0  0  0  0  0  0  0  # atno 8009 bound_to 7997
  155.3820  140.3405  155.4249 H   0  0  0  0  0  0  0  0  0  0  0  0  # atno 8010 bound_to 7997
  140.4151  143.2607  151.8966 H   0  0  0  0  0  0  0  0  0  0  0  0  # atno 10167 bound_to 10162
  155.9987  130.4900  150.5285 H   0  0  0  0  0  0  0  0  0  0  0  0  # atno 10718 bound_to 10713
  154.1007  135.2846  155.3252 H   0  0  0  0  0  0  0  0  0  0  0  0  # atno 10763 bound_to 10752
  154.6557  135.5353  153.7959 H   0  0  0  0  0  0  0  0  0  0  0  0  # atno 10764 bound_to 10752
  153.0380  135.6521  154.1171 H   0  0  0  0  0  0  0  0  0  0  0  0  # atno 10765 bound_to 10752
  141.0993  133.8913  157.1883 H   0  0  0  0  0  0  0  0  0  0  0  0  # atno 11005 bound_to 11000
  145.2877  139.1895  143.4757 LP  0  0  0  0  0  0  0  0  0  0  0  0  # atno 17320 bound_to 7965
  146.3313  140.2849  142.8612 LP  0  0  0  0  0  0  0  0  0  0  0  0  # atno 17321 bound_to 7965
  139.4782  144.5496  151.8405 LP  0  0  0  0  0  0  0  0  0  0  0  0  # atno 17342 bound_to 10162
  140.4595  144.1741  150.5905 LP  0  0  0  0  0  0  0  0  0  0  0  0  # atno 17343 bound_to 10162
  157.3237  131.0686  151.1912 LP  0  0  0  0  0  0  0  0  0  0  0  0  # atno 17370 bound_to 10713
  157.2817  130.6753  149.6069 LP  0  0  0  0  0  0  0  0  0  0  0  0  # atno 17371 bound_to 10713
  139.9840  135.0088  156.9817 LP  0  0  0  0  0  0  0  0  0  0  0  0  # atno 17394 bound_to 11000
  140.5061  134.1048  155.7260 LP  0  0  0  0  0  0  0  0  0  0  0  0  # atno 17395 bound_to 11000

$$$$
