AV-unprocessed.smi:1555|AV-procd|sdf|6265|dock6
  -GOLD-   22720 6453D 1   1.00000     0.00000
 Structure written by MMmdl.
 42 43  0  0  0  0  0  0  0  0  2 V2000
  154.2225  140.4850  160.3464 C   0  0  0  0  0  0  0  0  0  0  0  0
  153.0994  141.4662  159.9814 C   0  0  1  0  0  0  0  0  0  0  0  0
  153.6443  142.7073  159.2499 C   0  0  0  0  0  0  0  0  0  0  0  0
  152.6729  143.8053  159.2076 N   0  0  0  0  0  0  0  0  0  0  0  0
  152.1972  144.5375  160.2653 C   0  0  0  0  0  0  0  0  0  0  0  0
  151.3176  145.4509  159.7437 C   0  0  0  0  0  0  0  0  0  0  0  0
  151.2932  145.2372  158.3915 N   0  3  0  0  0  0  0  0  0  0  0  0
  152.1168  144.2350  158.0676 C   0  0  0  0  0  0  0  0  0  0  0  0
  152.1100  140.7895  159.1457 N   0  0  0  0  0  0  0  0  0  0  0  0
  152.3742  140.0079  158.0848 C   0  0  0  0  0  0  0  0  0  0  0  0
  153.5243  139.7925  157.7003 O   0  0  0  0  0  0  0  0  0  0  0  0
  151.2773  139.4807  157.4841 N   0  0  0  0  0  0  0  0  0  0  0  0
  149.8823  139.6163  157.9361 C   0  0  0  0  0  0  0  0  0  0  0  0
  149.1472  140.5767  156.9846 C   0  0  0  0  0  0  0  0  0  0  0  0
  149.2178  140.0835  155.5220 C   0  0  0  0  0  0  0  0  0  0  0  0
  148.5715  141.1000  154.5634 C   0  0  0  0  0  0  0  0  0  0  0  0
  149.0339  140.9084  153.2430 O   0  0  0  0  0  0  0  0  0  0  0  0
  150.6769  139.7519  155.1291 C   0  0  0  0  0  0  0  0  0  0  0  0
  151.3445  138.8328  156.1687 C   0  0  0  0  0  0  0  0  0  0  0  0
  154.9675  140.9610  160.9843 H   0  0  0  0  0  0  0  0  0  0  0  0
  154.7334  140.1157  159.4564 H   0  0  0  0  0  0  0  0  0  0  0  0
  153.8309  139.6230  160.8876 H   0  0  0  0  0  0  0  0  0  0  0  0
  152.6338  141.8016  160.9099 H   0  0  0  0  0  0  0  0  0  0  0  0
  154.5421  143.0805  159.7449 H   0  0  0  0  0  0  0  0  0  0  0  0
  153.9261  142.4631  158.2243 H   0  0  0  0  0  0  0  0  0  0  0  0
  152.5129  144.3611  161.2833 H   0  0  0  0  0  0  0  0  0  0  0  0
  150.7235  146.2167  160.2209 H   0  0  0  0  0  0  0  0  0  0  0  0
  152.2997  143.8515  157.0795 H   0  0  0  0  0  0  0  0  0  0  0  0
  151.1403  140.9264  159.3911 H   0  0  0  0  0  0  0  0  0  0  0  0
  149.4037  138.6361  157.9167 H   0  0  0  0  0  0  0  0  0  0  0  0
  149.7791  139.9624  158.9644 H   0  0  0  0  0  0  0  0  0  0  0  0
  148.1064  140.6760  157.2945 H   0  0  0  0  0  0  0  0  0  0  0  0
  149.5892  141.5712  157.0621 H   0  0  0  0  0  0  0  0  0  0  0  0
  148.6414  139.1582  155.4684 H   0  0  0  0  0  0  0  0  0  0  0  0
  147.4872  140.9853  154.5628 H   0  0  0  0  0  0  0  0  0  0  0  0
  148.7866  142.1220  154.8770 H   0  0  0  0  0  0  0  0  0  0  0  0
  148.6065  140.1465  152.8825 H   0  0  0  0  0  0  0  0  0  0  0  0
  150.7046  139.2744  154.1493 H   0  0  0  0  0  0  0  0  0  0  0  0
  151.2543  140.6731  155.0386 H   0  0  0  0  0  0  0  0  0  0  0  0
  152.3657  138.6060  155.8598 H   0  0  0  0  0  0  0  0  0  0  0  0
  150.8280  137.8728  156.2083 H   0  0  0  0  0  0  0  0  0  0  0  0
  150.7343  145.7614  157.7298 H   0  0  0  0  0  0  0  0  0  0  0  0
  1  2  1  0  0  0  0
  1 20  1  0  0  0  0
  1 21  1  0  0  0  0
  1 22  1  0  0  0  0
  2  3  1  0  0  0  0
  2  9  1  0  0  0  0
  2 23  1  0  0  0  0
  3  4  1  0  0  0  0
  3 24  1  0  0  0  0
  3 25  1  0  0  0  0
  4  8  1  0  0  0  0
  4  5  1  0  0  0  0
  5  6  2  0  0  0  0
  5 26  1  0  0  0  0
  6  7  1  0  0  0  0
  6 27  1  0  0  0  0
  7  8  2  0  0  0  0
  7 42  1  0  0  0  0
  8 28  1  0  0  0  0
  9 10  1  0  0  0  0
  9 29  1  0  0  0  0
 10 11  2  0  0  0  0
 10 12  1  0  0  0  0
 12 19  1  0  0  0  0
 12 13  1  0  0  0  0
 13 14  1  0  0  0  0
 13 30  1  0  0  0  0
 13 31  1  0  0  0  0
 14 15  1  0  0  0  0
 14 32  1  0  0  0  0
 14 33  1  0  0  0  0
 15 16  1  0  0  0  0
 15 18  1  0  0  0  0
 15 34  1  0  0  0  0
 16 17  1  0  0  0  0
 16 35  1  0  0  0  0
 16 36  1  0  0  0  0
 17 37  1  0  0  0  0
 18 19  1  0  0  0  0
 18 38  1  0  0  0  0
 18 39  1  0  0  0  0
 19 40  1  0  0  0  0
 19 41  1  0  0  0  0
M  CHG  1   7   1
M  END
> <s_m_source_file>
AV-unprocessed.smi

> <i_m_source_file_index>
1555

> <i_lp_mmshare_version>
43012

> <i_f3d_flags>
0

> <s_epik_input>
W2NIXTFuW2NIXVtjSF1uMVtDSDJdW0NAQEhdKFtDSDNdKVtOSF1DKD1PKU4yW0NIMl1bQ0gyXVtDSF0oW0NIMl1bT0hdKVtDSDJdW0NIMl0y

> <s_epik_cmdline>
J2VwaWtfcHl0aG9uJywgJy1waCcsICc3LjAnLCAnLXRuJywgJzgnLCAnLW1hJywgJzIwMCcsICctbWV0YWxfYmluZGluZycsICctaW1hZScsICc8aW5maWxlLm1hZT4nLCAnLW9tYWUnLCAnPG91dGZpbGUubWFlPic=

> <r_lp_tautomer_probability>
1

> <r_epik_Ionization_Penalty>
0.253261

> <r_epik_Ionization_Penalty_Charging>
0

> <r_epik_Ionization_Penalty_Neutral>
0.253261

> <r_epik_State_Penalty>
0.244619

> <r_epik_Charging_Adjusted_Penalty>
0.244619

> <i_epik_Tot_Q>
1

> <i_epik_Tot_abs_Q>
1

> <r_epik_Metal_State_Penalty>
0.535039

> <b_epik_Metal_Only>
0

> <s_lp_Force_Field>
OPLS_2005

> <r_lp_Energy>
35.1674

> <b_lp_Chiralities_Consistent>
1

> <s_lp_Variant>
AV-unprocessed.smi:1555-2

> <Gold.Version>
5.8.1

> <Gold.Id.Protein>
6NUR|6NUR_protein|mol2

> <Gold.PLP.Fitness>
50.0065

> <Gold.PLP.PLP>
-43.9022

> <Gold.PLP.part.hbond>
-3.5179

> <Gold.PLP.part.metal>
0.0000

> <Gold.PLP.part.buried>
-3.9553

> <Gold.PLP.part.nonpolar>
-36.4008

> <Gold.PLP.part.repulsive>
0.3494

> <Gold.PLP.ligand.clash>
0.0000

> <Gold.PLP.ligand.torsion>
0.6143

> <Gold.PLP.Chemscore.Hbond>
2.4340

> <Gold.PLP.Chemscore.CHOScore>
0.0000

> <Gold.PLP.Chemscore.Metal>
0.0000

> <Gold.Chemscore.Hbonds>
donor molecule, donor type, donor heavy atom, donor atom, acceptor molecule, acceptor atom, score
      P1  H  7997  8009       L1    11  0.44
      P1  H  8011  8017       L1    17  1.00

> <Gold.PLP.Chemscore.Internal.Correction>
0.0309

> <Gold.Rescore>
     Score         DG    S(hbond)    S(metal)    S(lipo)     H(rot)  DE(clash)    DE(int)     intcor
     14.36     -16.18       2.28        0.00      82.35       2.56       0.01       1.80       ----

> <Gold.Chemscore.Fitness>
14.3614

> <Gold.Chemscore.DG>
-16.1806

> <Gold.Chemscore.ZeroCoef>
-5.4800

> <Gold.Chemscore.Hbond>
2.2835

> <Gold.Chemscore.Metal>
0.0000

> <Gold.Chemscore.Lipo>
82.3502

> <Gold.Chemscore.Internal_Hbond>
0.0000

> <Gold.Chemscore.DEClash>
0.0148

> <Gold.Chemscore.DEInternal>
1.8044

> <Gold.Chemscore.Rot>
2.5630

> <Gold.Chemscore.Internal.Correction>
   9.000000E+99

> <Gold.Chemscore.Hbonds>
donor molecule, donor type, donor heavy atom, donor atom, acceptor molecule, acceptor atom, score
      L1  H    17    37       P1  7957  0.04
      P1  H  7997  8009       L1    11  0.43
      P1  H  8011  8017       L1    17  0.95

> <Gold.Chemscore.Hbond.Weighted>
-7.6267

> <Gold.Chemscore.Metal.Weighted>
-0.0000

> <Gold.Chemscore.Lipo.Weighted>
-9.6350

> <Gold.Chemscore.Internal_Hbond.Weighted>
0.0000

> <Gold.Chemscore.DEClash.Weighted>
0.0148

> <Gold.Chemscore.DEInternal.Weighted>
1.8044

> <Gold.Chemscore.Rot.Weighted>
6.5612

> <Gold.Chemscore.Internal.Correction.Weighted>
   9.000000E+99

> <Gold.Protein.RotatedTorsions>
[ 6907 6896 6895 6894 ] final  -11.43 input  -60.11 | X-H torsion
[ 7974 7965 7964 7962 ] final   43.84 input  175.53 | X-H torsion
[ 8008 7997 7996 7995 ] final  148.61 input   59.86 | X-H torsion
[ 10167 10162 10161 10158 ] final  169.81 input  -65.29 | X-H torsion
[ 10718 10713 10712 10709 ] final  -47.71 input   66.30 | X-H torsion
[ 10763 10752 10751 10750 ] final  -47.09 input  -60.55 | X-H torsion
[ 11005 11000 10999 10996 ] final   12.21 input  -57.11 | X-H torsion

> <Gold.Protein.ActiveResidues>
 VAL166  LYS551  ARG553  GLY616  TRP617  ASP618  TYR619  PRO620  LYS621  CYS622 
 ASP623  PHE694  ASN695  SER759  ASP760  ASP761  ALA762  ILE779  LEU786  VAL792 
 PHE793  MET794  SER795  GLU796  ALA797  LYS798  CYS799  TRP800  GLU811  SER814 

> <Gold.Protein.RotatedAtoms>
  151.3864  135.0948  159.9511 H   0  0  0  0  0  0  0  0  0  0  0  0  # atno 6907 bound_to 6896
  152.5093  133.9022  159.7457 H   0  0  0  0  0  0  0  0  0  0  0  0  # atno 6908 bound_to 6896
  150.9466  133.6540  159.2809 H   0  0  0  0  0  0  0  0  0  0  0  0  # atno 6909 bound_to 6896
  146.0621  139.5142  142.9652 H   0  0  0  0  0  0  0  0  0  0  0  0  # atno 7974 bound_to 7965
  156.2785  140.2124  156.5726 H   0  0  0  0  0  0  0  0  0  0  0  0  # atno 8008 bound_to 7997
  154.7123  140.0511  157.0585 H   0  0  0  0  0  0  0  0  0  0  0  0  # atno 8009 bound_to 7997
  155.0589  140.3164  155.4670 H   0  0  0  0  0  0  0  0  0  0  0  0  # atno 8010 bound_to 7997
  139.5002  144.3665  151.9770 H   0  0  0  0  0  0  0  0  0  0  0  0  # atno 10167 bound_to 10162
  156.2058  130.4158  149.9179 H   0  0  0  0  0  0  0  0  0  0  0  0  # atno 10718 bound_to 10713
  154.0557  135.6625  153.4805 H   0  0  0  0  0  0  0  0  0  0  0  0  # atno 10763 bound_to 10752
  153.0446  135.5123  154.7708 H   0  0  0  0  0  0  0  0  0  0  0  0  # atno 10764 bound_to 10752
  154.6728  135.3032  154.9685 H   0  0  0  0  0  0  0  0  0  0  0  0  # atno 10765 bound_to 10752
  140.4945  134.0807  155.7779 H   0  0  0  0  0  0  0  0  0  0  0  0  # atno 11005 bound_to 11000
  145.6542  141.0256  143.1744 LP  0  0  0  0  0  0  0  0  0  0  0  0  # atno 17320 bound_to 7965
  144.7181  139.8126  143.7392 LP  0  0  0  0  0  0  0  0  0  0  0  0  # atno 17321 bound_to 7965
  140.3101  144.3548  150.6036 LP  0  0  0  0  0  0  0  0  0  0  0  0  # atno 17342 bound_to 10162
  140.5805  143.2173  151.7436 LP  0  0  0  0  0  0  0  0  0  0  0  0  # atno 17343 bound_to 10162
  156.6874  130.8882  151.3584 LP  0  0  0  0  0  0  0  0  0  0  0  0  # atno 17370 bound_to 10713
  157.7011  130.9334  150.0790 LP  0  0  0  0  0  0  0  0  0  0  0  0  # atno 17371 bound_to 10713
  141.1467  133.9042  157.2198 LP  0  0  0  0  0  0  0  0  0  0  0  0  # atno 17394 bound_to 11000
  139.9749  135.0117  156.9606 LP  0  0  0  0  0  0  0  0  0  0  0  0  # atno 17395 bound_to 11000

$$$$
