AV-unprocessed.smi:241|AV-procd|sdf|1841|dock9
  -GOLD-   2262020453D 1   1.00000     0.00000
 Structure written by MMmdl.
 54 57  0  0  0  0  0  0  0  0  1 V2000
  154.4072  138.5718  159.7273 C   0  0  0  0  0  0  0  0  0  0  0  0
  153.3028  139.4032  159.4187 O   0  0  0  0  0  0  0  0  0  0  0  0
  153.5088  140.7511  159.8064 C   0  0  0  0  0  0  0  0  0  0  0  0
  152.3152  141.6257  159.3781 C   0  0  1  0  0  0  0  0  0  0  0  0
  152.3877  143.0363  159.9681 C   0  0  0  0  0  0  0  0  0  0  0  0
  151.5095  143.8439  159.0130 C   0  0  1  0  0  0  0  0  0  0  0  0
  151.8139  145.2308  158.9976 O   0  0  0  0  0  0  0  0  0  0  0  0
  151.8377  145.8198  160.2878 C   0  0  0  0  0  0  0  0  0  0  0  0
  151.8129  143.2071  157.6543 C   0  0  0  0  0  0  0  0  0  0  0  0
  152.2575  141.8453  157.9322 N   0  0  0  0  0  0  0  0  0  0  0  0
  151.7933  140.8914  157.0854 C   0  0  0  0  0  0  0  0  0  0  0  0
  152.5115  139.7581  156.8686 N   0  0  0  0  0  0  0  0  0  0  0  0
  152.0510  138.8124  156.0449 C   0  0  0  0  0  0  0  0  0  0  0  0
  150.9106  138.7926  155.3530 N   0  0  0  0  0  0  0  0  0  0  0  0
  150.1810  139.9240  155.5707 C   0  0  0  0  0  0  0  0  0  0  0  0
  150.5472  141.0147  156.4090 C   0  0  0  0  0  0  0  0  0  0  0  0
  149.5655  141.9976  156.3623 N   0  0  0  0  0  0  0  0  0  0  0  0
  148.6704  141.5149  155.5443 C   0  0  0  0  0  0  0  0  0  0  0  0
  148.9454  140.2608  155.0472 N   0  0  0  0  0  0  0  0  0  0  0  0
  148.1569  139.5139  154.1124 C   0  0  0  0  0  0  0  0  0  0  0  0
  146.6982  139.8813  153.8332 C   0  0  0  0  0  0  0  0  0  0  0  0
  146.3708  138.3874  153.6099 C   0  0  0  0  0  0  0  0  0  0  0  0
  145.0585  137.8779  154.2305 C   0  0  0  0  0  0  0  0  0  0  0  0
  143.9532  138.1206  153.3855 O   0  0  0  0  0  0  0  0  0  0  0  0
  146.4843  137.8683  152.1615 C   0  0  0  0  0  0  0  0  0  0  0  0
  147.2892  138.7044  151.3555 O   0  0  0  0  0  0  0  0  0  0  0  0
  147.6282  138.1224  154.4672 C   0  0  0  0  0  0  0  0  0  0  0  0
  151.3839  141.1716  159.7201 H   0  0  0  0  0  0  0  0  0  0  0  0
  150.4564  143.6797  159.2499 H   0  0  0  0  0  0  0  0  0  0  0  0
  154.1966  137.5508  159.4097 H   0  0  0  0  0  0  0  0  0  0  0  0
  154.6030  138.5571  160.8003 H   0  0  0  0  0  0  0  0  0  0  0  0
  155.3081  138.9056  159.2106 H   0  0  0  0  0  0  0  0  0  0  0  0
  153.6099  140.7836  160.8925 H   0  0  0  0  0  0  0  0  0  0  0  0
  154.4374  141.1399  159.3842 H   0  0  0  0  0  0  0  0  0  0  0  0
  152.0471  143.0784  161.0031 H   0  0  0  0  0  0  0  0  0  0  0  0
  153.4126  143.4098  159.9325 H   0  0  0  0  0  0  0  0  0  0  0  0
  152.0457  146.8859  160.1974 H   0  0  0  0  0  0  0  0  0  0  0  0
  152.6146  145.3812  160.9146 H   0  0  0  0  0  0  0  0  0  0  0  0
  150.8764  145.7077  160.7910 H   0  0  0  0  0  0  0  0  0  0  0  0
  150.9414  143.2451  156.9989 H   0  0  0  0  0  0  0  0  0  0  0  0
  152.6286  143.7340  157.1578 H   0  0  0  0  0  0  0  0  0  0  0  0
  152.6854  137.9466  155.9267 H   0  0  0  0  0  0  0  0  0  0  0  0
  147.7756  142.0627  155.2869 H   0  0  0  0  0  0  0  0  0  0  0  0
  148.7325  139.4859  153.1857 H   0  0  0  0  0  0  0  0  0  0  0  0
  146.1954  140.2960  154.7090 H   0  0  0  0  0  0  0  0  0  0  0  0
  146.5537  140.5214  152.9622 H   0  0  0  0  0  0  0  0  0  0  0  0
  145.1102  136.8112  154.4494 H   0  0  0  0  0  0  0  0  0  0  0  0
  144.8572  138.3756  155.1795 H   0  0  0  0  0  0  0  0  0  0  0  0
  143.9004  139.0510  153.2256 H   0  0  0  0  0  0  0  0  0  0  0  0
  146.9217  136.8702  152.1352 H   0  0  0  0  0  0  0  0  0  0  0  0
  145.5009  137.7782  151.6989 H   0  0  0  0  0  0  0  0  0  0  0  0
  147.9695  139.0773  151.8954 H   0  0  0  0  0  0  0  0  0  0  0  0
  148.2568  137.3011  154.1216 H   0  0  0  0  0  0  0  0  0  0  0  0
  147.4127  138.0234  155.5328 H   0  0  0  0  0  0  0  0  0  0  0  0
  1  2  1  0  0  0  0
  1 30  1  0  0  0  0
  1 31  1  0  0  0  0
  1 32  1  0  0  0  0
  2  3  1  0  0  0  0
  3  4  1  0  0  0  0
  3 33  1  0  0  0  0
  3 34  1  0  0  0  0
  4 28  1  0  0  0  0
  4 10  1  0  0  0  0
  4  5  1  0  0  0  0
  5  6  1  0  0  0  0
  5 35  1  0  0  0  0
  5 36  1  0  0  0  0
  6 29  1  0  0  0  0
  6  7  1  0  0  0  0
  6  9  1  0  0  0  0
  7  8  1  0  0  0  0
  8 37  1  0  0  0  0
  8 38  1  0  0  0  0
  8 39  1  0  0  0  0
  9 10  1  0  0  0  0
  9 40  1  0  0  0  0
  9 41  1  0  0  0  0
 10 11  1  0  0  0  0
 11 16  1  0  0  0  0
 11 12  2  0  0  0  0
 12 13  1  0  0  0  0
 13 14  2  0  0  0  0
 13 42  1  0  0  0  0
 14 15  1  0  0  0  0
 15 19  1  0  0  0  0
 15 16  2  0  0  0  0
 16 17  1  0  0  0  0
 17 18  2  0  0  0  0
 18 19  1  0  0  0  0
 18 43  1  0  0  0  0
 19 20  1  0  0  0  0
 20 27  1  0  0  0  0
 20 21  1  0  0  0  0
 20 44  1  0  0  0  0
 21 22  1  0  0  0  0
 21 45  1  0  0  0  0
 21 46  1  0  0  0  0
 22 23  1  0  0  0  0
 22 25  1  0  0  0  0
 22 27  1  0  0  0  0
 23 24  1  0  0  0  0
 23 47  1  0  0  0  0
 23 48  1  0  0  0  0
 24 49  1  0  0  0  0
 25 26  1  0  0  0  0
 25 50  1  0  0  0  0
 25 51  1  0  0  0  0
 26 52  1  0  0  0  0
 27 53  1  0  0  0  0
 27 54  1  0  0  0  0
M  END
> <s_m_source_file>
AV-unprocessed.smi

> <i_m_source_file_index>
241

> <i_lp_mmshare_version>
43012

> <i_f3d_flags>
0

> <s_epik_input>
W0NIM11PW0NIMl1bQ0BASF0xW0NIMl1bQ0BASF0oT1tDSDNdKVtDSDJdTjFjKG5bY0hdbjIpYyhjMjMpbltjSF1uM1tDSF0oW0NIMl00KVtDSDJdQzQoW0NIMl1bT0hdKVtDSDJdW09IXQ==

> <s_epik_cmdline>
J2VwaWtfcHl0aG9uJywgJy1waCcsICc3LjAnLCAnLXRuJywgJzgnLCAnLW1hJywgJzIwMCcsICctbWV0YWxfYmluZGluZycsICctaW1hZScsICc8aW5maWxlLm1hZT4nLCAnLW9tYWUnLCAnPG91dGZpbGUubWFlPic=

> <r_lp_tautomer_probability>
1

> <r_epik_Ionization_Penalty>
0.00568677

> <r_epik_Ionization_Penalty_Charging>
0

> <r_epik_Ionization_Penalty_Neutral>
0.00568677

> <r_epik_State_Penalty>
0.00400877

> <r_epik_Charging_Adjusted_Penalty>
0.00400877

> <i_epik_Tot_Q>
0

> <i_epik_Tot_abs_Q>
0

> <r_epik_Metal_State_Penalty>
-0

> <b_epik_Metal_Only>
0

> <s_lp_Force_Field>
OPLS_2005

> <r_lp_Energy>
53.235

> <b_lp_Chiralities_Consistent>
1

> <s_lp_Variant>
AV-unprocessed.smi:241-2

> <Gold.Version>
5.8.1

> <Gold.Id.Protein>
6NUR|6NUR_protein|mol2

> <Gold.PLP.Fitness>
48.1127

> <Gold.PLP.PLP>
-39.5804

> <Gold.PLP.part.hbond>
-4.7978

> <Gold.PLP.part.metal>
0.0000

> <Gold.PLP.part.buried>
-2.5952

> <Gold.PLP.part.nonpolar>
-33.1311

> <Gold.PLP.part.repulsive>
1.7650

> <Gold.PLP.ligand.clash>
0.0000

> <Gold.PLP.ligand.torsion>
1.4238

> <Gold.PLP.Chemscore.Hbond>
3.4400

> <Gold.PLP.Chemscore.CHOScore>
0.0639

> <Gold.PLP.Chemscore.Metal>
0.0000

> <Gold.Chemscore.Hbonds>
donor molecule, donor type, donor heavy atom, donor atom, acceptor molecule, acceptor atom, score
      L1  H    24    49       P1 10175  1.00
      L1  H    26    52       P1  7957  0.45
      P1  H  7954  7966       L1    26  0.98
      P1  H  7997  8008       L1    12  1.00
      L1  C    18    43       P1  8028  0.04

> <Gold.PLP.Chemscore.Internal.Correction>
0.8682

> <Gold.Rescore>
     Score         DG    S(hbond)    S(metal)    S(lipo)     H(rot)  DE(clash)    DE(int)     intcor
      9.13     -16.57       2.77        0.00     102.71       3.97       2.10       5.34       ----

> <Gold.Chemscore.Fitness>
9.1274

> <Gold.Chemscore.DG>
-16.5668

> <Gold.Chemscore.ZeroCoef>
-5.4800

> <Gold.Chemscore.Hbond>
2.7666

> <Gold.Chemscore.Metal>
0.0000

> <Gold.Chemscore.Lipo>
102.7065

> <Gold.Chemscore.Internal_Hbond>
0.0000

> <Gold.Chemscore.DEClash>
2.1000

> <Gold.Chemscore.DEInternal>
5.3394

> <Gold.Chemscore.Rot>
3.9727

> <Gold.Chemscore.Internal.Correction>
   9.000000E+99

> <Gold.Chemscore.Hbonds>
donor molecule, donor type, donor heavy atom, donor atom, acceptor molecule, acceptor atom, score
      L1  H    24    49       P1 10175  0.98
      L1  H    26    52       P1  7957  0.41
      P1  H  7954  7966       L1    26  0.49
      P1  H  7997  8008       L1    12  0.57

> <Gold.Chemscore.Hbond.Weighted>
-9.2404

> <Gold.Chemscore.Metal.Weighted>
-0.0000

> <Gold.Chemscore.Lipo.Weighted>
-12.0167

> <Gold.Chemscore.Internal_Hbond.Weighted>
0.0000

> <Gold.Chemscore.DEClash.Weighted>
2.1000

> <Gold.Chemscore.DEInternal.Weighted>
5.3394

> <Gold.Chemscore.Rot.Weighted>
10.1702

> <Gold.Chemscore.Internal.Correction.Weighted>
   9.000000E+99

> <Gold.Protein.RotatedTorsions>
[ 6907 6896 6895 6894 ] final   74.35 input  -60.11 | X-H torsion
[ 7974 7965 7964 7962 ] final   96.64 input  175.53 | X-H torsion
[ 8008 7997 7996 7995 ] final  -47.40 input   59.86 | X-H torsion
[ 10167 10162 10161 10158 ] final  107.53 input  -65.29 | X-H torsion
[ 10718 10713 10712 10709 ] final  -74.60 input   66.30 | X-H torsion
[ 10763 10752 10751 10750 ] final -146.48 input  -60.55 | X-H torsion
[ 11005 11000 10999 10996 ] final   11.36 input  -57.11 | X-H torsion

> <Gold.Protein.ActiveResidues>
 VAL166  LYS551  ARG553  GLY616  TRP617  ASP618  TYR619  PRO620  LYS621  CYS622 
 ASP623  PHE694  ASN695  SER759  ASP760  ASP761  ALA762  ILE779  LEU786  VAL792 
 PHE793  MET794  SER795  GLU796  ALA797  LYS798  CYS799  TRP800  GLU811  SER814 

> <Gold.Protein.RotatedAtoms>
  152.4971  134.4285  159.9504 H   0  0  0  0  0  0  0  0  0  0  0  0  # atno 6907 bound_to 6896
  151.4262  133.3677  159.2770 H   0  0  0  0  0  0  0  0  0  0  0  0  # atno 6908 bound_to 6896
  150.9187  134.8627  159.7534 H   0  0  0  0  0  0  0  0  0  0  0  0  # atno 6909 bound_to 6896
  145.4362  139.2305  143.3117 H   0  0  0  0  0  0  0  0  0  0  0  0  # atno 7974 bound_to 7965
  154.4016  140.1347  156.4168 H   0  0  0  0  0  0  0  0  0  0  0  0  # atno 8008 bound_to 7997
  155.7681  140.3484  155.5212 H   0  0  0  0  0  0  0  0  0  0  0  0  # atno 8009 bound_to 7997
  155.8794  140.0985  157.1486 H   0  0  0  0  0  0  0  0  0  0  0  0  # atno 8010 bound_to 7997
  139.6920  144.7106  151.1332 H   0  0  0  0  0  0  0  0  0  0  0  0  # atno 10167 bound_to 10162
  156.0237  130.4421  150.2916 H   0  0  0  0  0  0  0  0  0  0  0  0  # atno 10718 bound_to 10713
  154.8333  135.3385  154.6669 H   0  0  0  0  0  0  0  0  0  0  0  0  # atno 10763 bound_to 10752
  153.7286  135.6953  153.4999 H   0  0  0  0  0  0  0  0  0  0  0  0  # atno 10764 bound_to 10752
  153.2329  135.4410  155.0567 H   0  0  0  0  0  0  0  0  0  0  0  0  # atno 10765 bound_to 10752
  140.5041  134.0717  155.7801 H   0  0  0  0  0  0  0  0  0  0  0  0  # atno 11005 bound_to 11000
  146.2581  140.5105  142.8865 LP  0  0  0  0  0  0  0  0  0  0  0  0  # atno 17320 bound_to 7965
  144.8151  140.6453  143.6390 LP  0  0  0  0  0  0  0  0  0  0  0  0  # atno 17321 bound_to 7965
  140.7685  143.5546  150.9166 LP  0  0  0  0  0  0  0  0  0  0  0  0  # atno 17342 bound_to 10162
  139.9224  143.6590  152.3094 LP  0  0  0  0  0  0  0  0  0  0  0  0  # atno 17343 bound_to 10162
  157.1020  131.0198  151.3082 LP  0  0  0  0  0  0  0  0  0  0  0  0  # atno 17370 bound_to 10713
  157.4772  130.7744  149.7379 LP  0  0  0  0  0  0  0  0  0  0  0  0  # atno 17371 bound_to 10713
  141.1420  133.9121  157.2303 LP  0  0  0  0  0  0  0  0  0  0  0  0  # atno 17394 bound_to 11000
  139.9696  135.0132  156.9478 LP  0  0  0  0  0  0  0  0  0  0  0  0  # atno 17395 bound_to 11000

$$$$
