AV-unprocessed.smi:2160|AV-procd|sdf|8800|dock7
  -GOLD-   2272011583D 1   1.00000     0.00000
 Structure written by MMmdl.
 44 46  0  0  0  0  0  0  0  0  2 V2000
  148.9281  130.4119  153.2297 C   0  0  0  0  0  0  0  0  0  0  0  0
  148.8603  131.8167  153.0322 O   0  0  0  0  0  0  0  0  0  0  0  0
  149.4451  132.6329  153.9766 C   0  0  0  0  0  0  0  0  0  0  0  0
  150.3332  132.1772  154.9829 C   0  0  0  0  0  0  0  0  0  0  0  0
  150.8865  133.0823  155.9091 C   0  0  0  0  0  0  0  0  0  0  0  0
  150.5685  134.4537  155.8462 C   0  0  0  0  0  0  0  0  0  0  0  0
  151.1637  135.4061  156.8678 C   0  0  0  0  0  0  0  0  0  0  0  0
  151.8459  136.4990  156.2722 O   0  0  0  0  0  0  0  0  0  0  0  0
  152.6467  137.2152  157.1980 C   0  0  0  0  0  0  0  0  0  0  0  0
  152.5647  138.7171  156.8823 C   0  0  1  0  0  0  0  0  0  0  0  0
  153.1151  138.9352  155.5977 O   0  0  0  0  0  0  0  0  0  0  0  0
  151.1113  139.2313  156.9068 C   0  0  0  0  0  0  0  0  0  0  0  0
  151.0272  140.6993  156.8990 N   0  0  0  0  0  0  0  0  0  0  0  0
  150.4317  141.5266  155.9977 C   0  0  0  0  0  0  0  0  0  0  0  0
  150.6170  142.8056  156.4264 N   0  3  0  0  0  0  0  0  0  0  0  0
  151.3408  142.7970  157.6204 C   0  0  0  0  0  0  0  0  0  0  0  0
  151.7691  143.8429  158.4320 C   0  0  0  0  0  0  0  0  0  0  0  0
  152.4892  143.4899  159.5919 C   0  0  0  0  0  0  0  0  0  0  0  0
  152.7576  142.1423  159.9076 C   0  0  0  0  0  0  0  0  0  0  0  0
  152.3190  141.0900  159.0773 C   0  0  0  0  0  0  0  0  0  0  0  0
  151.6085  141.4465  157.9311 C   0  0  0  0  0  0  0  0  0  0  0  0
  149.6784  134.9109  154.8519 C   0  0  0  0  0  0  0  0  0  0  0  0
  149.1269  134.0054  153.9251 C   0  0  0  0  0  0  0  0  0  0  0  0
  148.4240  129.9074  152.4055 H   0  0  0  0  0  0  0  0  0  0  0  0
  148.4286  130.1146  154.1527 H   0  0  0  0  0  0  0  0  0  0  0  0
  149.9608  130.0610  153.2478 H   0  0  0  0  0  0  0  0  0  0  0  0
  150.6056  131.1362  155.0676 H   0  0  0  0  0  0  0  0  0  0  0  0
  151.5588  132.7185  156.6723 H   0  0  0  0  0  0  0  0  0  0  0  0
  150.3557  135.7759  157.5008 H   0  0  0  0  0  0  0  0  0  0  0  0
  151.8512  134.8500  157.5074 H   0  0  0  0  0  0  0  0  0  0  0  0
  152.3468  137.0141  158.2281 H   0  0  0  0  0  0  0  0  0  0  0  0
  153.6767  136.8717  157.0900 H   0  0  0  0  0  0  0  0  0  0  0  0
  153.1480  139.2780  157.6140 H   0  0  0  0  0  0  0  0  0  0  0  0
  153.4092  138.1068  155.2519 H   0  0  0  0  0  0  0  0  0  0  0  0
  150.5334  138.8279  156.0752 H   0  0  0  0  0  0  0  0  0  0  0  0
  150.6136  138.8902  157.8154 H   0  0  0  0  0  0  0  0  0  0  0  0
  149.9040  141.2227  155.1051 H   0  0  0  0  0  0  0  0  0  0  0  0
  151.5627  144.8759  158.1933 H   0  0  0  0  0  0  0  0  0  0  0  0
  152.8417  144.2681  160.2534 H   0  0  0  0  0  0  0  0  0  0  0  0
  153.3106  141.9102  160.8063 H   0  0  0  0  0  0  0  0  0  0  0  0
  152.5285  140.0626  159.3339 H   0  0  0  0  0  0  0  0  0  0  0  0
  149.4108  135.9556  154.7916 H   0  0  0  0  0  0  0  0  0  0  0  0
  148.4489  134.3691  153.1669 H   0  0  0  0  0  0  0  0  0  0  0  0
  150.2716  143.6224  155.9390 H   0  0  0  0  0  0  0  0  0  0  0  0
  1  2  1  0  0  0  0
  1 24  1  0  0  0  0
  1 25  1  0  0  0  0
  1 26  1  0  0  0  0
  2  3  1  0  0  0  0
  3 23  1  0  0  0  0
  3  4  2  0  0  0  0
  4  5  1  0  0  0  0
  4 27  1  0  0  0  0
  5  6  2  0  0  0  0
  5 28  1  0  0  0  0
  6  7  1  0  0  0  0
  6 22  1  0  0  0  0
  7  8  1  0  0  0  0
  7 29  1  0  0  0  0
  7 30  1  0  0  0  0
  8  9  1  0  0  0  0
  9 10  1  0  0  0  0
  9 31  1  0  0  0  0
  9 32  1  0  0  0  0
 10 11  1  0  0  0  0
 10 12  1  0  0  0  0
 10 33  1  0  0  0  0
 11 34  1  0  0  0  0
 12 13  1  0  0  0  0
 12 35  1  0  0  0  0
 12 36  1  0  0  0  0
 13 21  1  0  0  0  0
 13 14  1  0  0  0  0
 14 15  2  0  0  0  0
 14 37  1  0  0  0  0
 15 16  1  0  0  0  0
 15 44  1  0  0  0  0
 16 21  2  0  0  0  0
 16 17  1  0  0  0  0
 17 18  2  0  0  0  0
 17 38  1  0  0  0  0
 18 19  1  0  0  0  0
 18 39  1  0  0  0  0
 19 20  2  0  0  0  0
 19 40  1  0  0  0  0
 20 21  1  0  0  0  0
 20 41  1  0  0  0  0
 22 23  2  0  0  0  0
 22 42  1  0  0  0  0
 23 43  1  0  0  0  0
M  CHG  1  15   1
M  END
> <s_m_source_file>
AV-unprocessed.smi

> <i_m_source_file_index>
2160

> <i_lp_mmshare_version>
43012

> <i_f3d_flags>
0

> <s_epik_input>
W0NIM11PYzFbY0hdW2NIXWMoW2NIXVtjSF0xKVtDSDJdT1tDSDJdW0NASF0oW09IXSlbQ0gyXW4oW2NIXW4yKWMoYzIzKVtjSF1bY0hdW2NIXVtjSF0z

> <s_epik_cmdline>
J2VwaWtfcHl0aG9uJywgJy1waCcsICc3LjAnLCAnLXRuJywgJzgnLCAnLW1hJywgJzIwMCcsICctbWV0YWxfYmluZGluZycsICctaW1hZScsICc8aW5maWxlLm1hZT4nLCAnLW9tYWUnLCAnPG91dGZpbGUubWFlPic=

> <r_lp_tautomer_probability>
1

> <r_epik_Ionization_Penalty>
1.28975

> <r_epik_Ionization_Penalty_Charging>
1.28975

> <r_epik_Ionization_Penalty_Neutral>
9.74819e-07

> <r_epik_State_Penalty>
1.36276

> <r_epik_Charging_Adjusted_Penalty>
2.65251

> <i_epik_Tot_Q>
1

> <i_epik_Tot_abs_Q>
1

> <r_epik_Metal_State_Penalty>
5.39298

> <b_epik_Metal_Only>
0

> <s_lp_Force_Field>
OPLS_2005

> <r_lp_Energy>
25.2455

> <b_lp_Chiralities_Consistent>
1

> <s_lp_Variant>
AV-unprocessed.smi:2160-4

> <Gold.Version>
5.8.1

> <Gold.Id.Protein>
6NUR|6NUR_protein|mol2

> <Gold.PLP.Fitness>
54.8693

> <Gold.PLP.PLP>
-44.2385

> <Gold.PLP.part.hbond>
-3.0000

> <Gold.PLP.part.metal>
0.0000

> <Gold.PLP.part.buried>
-4.9901

> <Gold.PLP.part.nonpolar>
-36.9549

> <Gold.PLP.part.repulsive>
0.4431

> <Gold.PLP.ligand.clash>
0.0000

> <Gold.PLP.ligand.torsion>
0.5705

> <Gold.PLP.Chemscore.Hbond>
3.8933

> <Gold.PLP.Chemscore.CHOScore>
0.0000

> <Gold.PLP.Chemscore.Metal>
0.0000

> <Gold.Chemscore.Hbonds>
donor molecule, donor type, donor heavy atom, donor atom, acceptor molecule, acceptor atom, score
      L1  H    15    44       P1  8028  1.89
      P1  H  7997  8010       L1    11  1.00
      P1  H 10752 10765       L1     8  0.96

> <Gold.PLP.Chemscore.Internal.Correction>
0.0920

> <Gold.Rescore>
     Score         DG    S(hbond)    S(metal)    S(lipo)     H(rot)  DE(clash)    DE(int)     intcor
     17.28     -17.82       1.72        0.00     116.33       2.74       0.04       0.51       ----

> <Gold.Chemscore.Fitness>
17.2793

> <Gold.Chemscore.DG>
-17.8235

> <Gold.Chemscore.ZeroCoef>
-5.4800

> <Gold.Chemscore.Hbond>
1.7199

> <Gold.Chemscore.Metal>
0.0000

> <Gold.Chemscore.Lipo>
116.3315

> <Gold.Chemscore.Internal_Hbond>
0.0000

> <Gold.Chemscore.DEClash>
0.0381

> <Gold.Chemscore.DEInternal>
0.5062

> <Gold.Chemscore.Rot>
2.7390

> <Gold.Chemscore.Internal.Correction>
   9.000000E+99

> <Gold.Chemscore.Hbonds>
donor molecule, donor type, donor heavy atom, donor atom, acceptor molecule, acceptor atom, score
      L1  H    15    44       P1  8028  0.92
      P1  H  7997  8010       L1    11  0.39
      P1  H 10752 10765       L1     8  0.14

> <Gold.Chemscore.Hbond.Weighted>
-5.7445

> <Gold.Chemscore.Metal.Weighted>
-0.0000

> <Gold.Chemscore.Lipo.Weighted>
-13.6108

> <Gold.Chemscore.Internal_Hbond.Weighted>
0.0000

> <Gold.Chemscore.DEClash.Weighted>
0.0381

> <Gold.Chemscore.DEInternal.Weighted>
0.5062

> <Gold.Chemscore.Rot.Weighted>
7.0118

> <Gold.Chemscore.Internal.Correction.Weighted>
   9.000000E+99

> <Gold.Protein.RotatedTorsions>
[ 6907 6896 6895 6894 ] final  113.82 input  -60.11 | X-H torsion
[ 7974 7965 7964 7962 ] final  -13.71 input  175.53 | X-H torsion
[ 8008 7997 7996 7995 ] final  104.99 input   59.86 | X-H torsion
[ 10167 10162 10161 10158 ] final  152.05 input  -65.29 | X-H torsion
[ 10718 10713 10712 10709 ] final -107.27 input   66.30 | X-H torsion
[ 10763 10752 10751 10750 ] final -152.51 input  -60.55 | X-H torsion
[ 11005 11000 10999 10996 ] final   22.76 input  -57.11 | X-H torsion

> <Gold.Protein.ActiveResidues>
 VAL166  LYS551  ARG553  GLY616  TRP617  ASP618  TYR619  PRO620  LYS621  CYS622 
 ASP623  PHE694  ASN695  SER759  ASP760  ASP761  ALA762  ILE779  LEU786  VAL792 
 PHE793  MET794  SER795  GLU796  ALA797  LYS798  CYS799  TRP800  GLU811  SER814 

> <Gold.Protein.RotatedAtoms>
  152.4838  133.8322  159.7108 H   0  0  0  0  0  0  0  0  0  0  0  0  # atno 6907 bound_to 6896
  150.8909  133.7235  159.2911 H   0  0  0  0  0  0  0  0  0  0  0  0  # atno 6908 bound_to 6896
  151.4709  135.1049  159.9803 H   0  0  0  0  0  0  0  0  0  0  0  0  # atno 6909 bound_to 6896
  146.2103  140.3242  142.8393 H   0  0  0  0  0  0  0  0  0  0  0  0  # atno 7974 bound_to 7965
  156.1620  140.3138  155.8824 H   0  0  0  0  0  0  0  0  0  0  0  0  # atno 8008 bound_to 7997
  155.3762  140.0485  157.3061 H   0  0  0  0  0  0  0  0  0  0  0  0  # atno 8009 bound_to 7997
  154.5156  140.2180  155.9084 H   0  0  0  0  0  0  0  0  0  0  0  0  # atno 8010 bound_to 7997
  139.4836  144.5390  151.7596 H   0  0  0  0  0  0  0  0  0  0  0  0  # atno 10167 bound_to 10162
  156.0429  130.5654  150.7798 H   0  0  0  0  0  0  0  0  0  0  0  0  # atno 10718 bound_to 10713
  154.7989  135.3234  154.7599 H   0  0  0  0  0  0  0  0  0  0  0  0  # atno 10763 bound_to 10752
  153.8271  135.6882  153.4823 H   0  0  0  0  0  0  0  0  0  0  0  0  # atno 10764 bound_to 10752
  153.1695  135.4629  154.9826 H   0  0  0  0  0  0  0  0  0  0  0  0  # atno 10765 bound_to 10752
  140.3771  134.1961  155.7664 H   0  0  0  0  0  0  0  0  0  0  0  0  # atno 11005 bound_to 11000
  144.8898  140.7509  143.5934 LP  0  0  0  0  0  0  0  0  0  0  0  0  # atno 17320 bound_to 7965
  145.3165  139.1802  143.4611 LP  0  0  0  0  0  0  0  0  0  0  0  0  # atno 17321 bound_to 7965
  140.4927  144.1286  150.5953 LP  0  0  0  0  0  0  0  0  0  0  0  0  # atno 17342 bound_to 10162
  140.4153  143.2637  151.9783 LP  0  0  0  0  0  0  0  0  0  0  0  0  # atno 17343 bound_to 10162
  157.5269  131.0934  151.0006 LP  0  0  0  0  0  0  0  0  0  0  0  0  # atno 17370 bound_to 10713
  157.0323  130.5716  149.5345 LP  0  0  0  0  0  0  0  0  0  0  0  0  # atno 17371 bound_to 10713
  141.1936  133.8148  157.0793 LP  0  0  0  0  0  0  0  0  0  0  0  0  # atno 17394 bound_to 11000
  140.0507  134.9807  157.1131 LP  0  0  0  0  0  0  0  0  0  0  0  0  # atno 17395 bound_to 11000

$$$$
