AV-unprocessed.smi:2516|AV-procd|sdf|9898|dock6
  -GOLD-   2272013533D 1   1.00000     0.00000
 Structure written by MMmdl.
 47 48  0  0  0  0  0  0  0  0  1 V2000
  145.1121  132.7029  150.6376 C   0  0  0  0  0  0  0  0  0  0  0  0
  145.8158  133.4021  151.8062 C   0  0  0  0  0  0  0  0  0  0  0  0
  145.3656  134.7761  151.9575 N   0  0  0  0  0  0  0  0  0  0  0  0
  146.2813  135.7703  151.8596 N   0  0  0  0  0  0  0  0  0  0  0  0
  145.6036  136.8919  152.0375 C   0  0  0  0  0  0  0  0  0  0  0  0
  146.3192  138.2105  151.9769 C   0  0  0  0  0  0  0  0  0  0  0  0
  144.2328  136.6176  152.2871 C   0  0  0  0  0  0  0  0  0  0  0  0
  143.2440  137.6092  152.5048 N   0  0  0  0  0  0  0  0  0  0  0  0
  142.1108  137.4675  153.2094 C   0  0  0  0  0  0  0  0  0  0  0  0
  141.7325  136.4183  153.7306 O   0  0  0  0  0  0  0  0  0  0  0  0
  141.4422  138.6265  153.2935 N   0  0  0  0  0  0  0  0  0  0  0  0
  140.1883  138.8365  154.0163 C   0  0  2  0  0  0  0  0  0  0  0  0
  139.1874  137.7453  153.5936 C   0  0  0  0  0  0  0  0  0  0  0  0
  139.6695  140.2778  153.7724 C   0  0  0  0  0  0  0  0  0  0  0  0
  140.3922  141.3202  154.6531 C   0  0  0  0  0  0  0  0  0  0  0  0
  139.8113  142.7280  154.4452 C   0  0  0  0  0  0  0  0  0  0  0  0
  138.4160  142.7232  154.7196 O   0  0  0  0  0  0  0  0  0  0  0  0
  137.6885  141.8704  153.8445 C   0  0  0  0  0  0  0  0  0  0  0  0
  138.1530  140.4151  154.0174 C   0  0  0  0  0  0  0  0  0  0  0  0
  144.0868  135.2582  152.1970 C   0  0  0  0  0  0  0  0  0  0  0  0
  142.8895  134.3640  152.2982 C   0  0  0  0  0  0  0  0  0  0  0  0
  145.4452  131.6691  150.5470 H   0  0  0  0  0  0  0  0  0  0  0  0
  145.3218  133.2038  149.6922 H   0  0  0  0  0  0  0  0  0  0  0  0
  144.0309  132.6933  150.7795 H   0  0  0  0  0  0  0  0  0  0  0  0
  145.6237  132.8592  152.7331 H   0  0  0  0  0  0  0  0  0  0  0  0
  146.8962  133.3925  151.6650 H   0  0  0  0  0  0  0  0  0  0  0  0
  145.6528  139.0384  152.2189 H   0  0  0  0  0  0  0  0  0  0  0  0
  146.7223  138.3909  150.9801 H   0  0  0  0  0  0  0  0  0  0  0  0
  147.1496  138.2389  152.6830 H   0  0  0  0  0  0  0  0  0  0  0  0
  143.4878  138.5473  152.2226 H   0  0  0  0  0  0  0  0  0  0  0  0
  141.8368  139.4330  152.8323 H   0  0  0  0  0  0  0  0  0  0  0  0
  140.3737  138.7277  155.0867 H   0  0  0  0  0  0  0  0  0  0  0  0
  138.2786  137.7751  154.1936 H   0  0  0  0  0  0  0  0  0  0  0  0
  139.6149  136.7501  153.7220 H   0  0  0  0  0  0  0  0  0  0  0  0
  138.9030  137.8508  152.5461 H   0  0  0  0  0  0  0  0  0  0  0  0
  139.8623  140.5341  152.7290 H   0  0  0  0  0  0  0  0  0  0  0  0
  140.2979  141.0434  155.7041 H   0  0  0  0  0  0  0  0  0  0  0  0
  141.4598  141.3428  154.4334 H   0  0  0  0  0  0  0  0  0  0  0  0
  140.2980  143.4358  155.1163 H   0  0  0  0  0  0  0  0  0  0  0  0
  139.9933  143.0781  153.4279 H   0  0  0  0  0  0  0  0  0  0  0  0
  136.6267  141.9535  154.0770 H   0  0  0  0  0  0  0  0  0  0  0  0
  137.8138  142.1986  152.8114 H   0  0  0  0  0  0  0  0  0  0  0  0
  137.5907  139.7852  153.3287 H   0  0  0  0  0  0  0  0  0  0  0  0
  137.9086  140.0748  155.0244 H   0  0  0  0  0  0  0  0  0  0  0  0
  141.9788  134.8988  152.0296 H   0  0  0  0  0  0  0  0  0  0  0  0
  142.7742  133.9874  153.3146 H   0  0  0  0  0  0  0  0  0  0  0  0
  142.9661  133.5095  151.6271 H   0  0  0  0  0  0  0  0  0  0  0  0
  1  2  1  0  0  0  0
  1 22  1  0  0  0  0
  1 23  1  0  0  0  0
  1 24  1  0  0  0  0
  2  3  1  0  0  0  0
  2 25  1  0  0  0  0
  2 26  1  0  0  0  0
  3 20  1  0  0  0  0
  3  4  1  0  0  0  0
  4  5  2  0  0  0  0
  5  6  1  0  0  0  0
  5  7  1  0  0  0  0
  6 27  1  0  0  0  0
  6 28  1  0  0  0  0
  6 29  1  0  0  0  0
  7  8  1  0  0  0  0
  7 20  2  0  0  0  0
  8  9  1  0  0  0  0
  8 30  1  0  0  0  0
  9 10  2  0  0  0  0
  9 11  1  0  0  0  0
 11 12  1  0  0  0  0
 11 31  1  0  0  0  0
 12 13  1  0  0  0  0
 12 14  1  0  0  0  0
 12 32  1  0  0  0  0
 13 33  1  0  0  0  0
 13 34  1  0  0  0  0
 13 35  1  0  0  0  0
 14 19  1  0  0  0  0
 14 15  1  0  0  0  0
 14 36  1  0  0  0  0
 15 16  1  0  0  0  0
 15 37  1  0  0  0  0
 15 38  1  0  0  0  0
 16 17  1  0  0  0  0
 16 39  1  0  0  0  0
 16 40  1  0  0  0  0
 17 18  1  0  0  0  0
 18 19  1  0  0  0  0
 18 41  1  0  0  0  0
 18 42  1  0  0  0  0
 19 43  1  0  0  0  0
 19 44  1  0  0  0  0
 20 21  1  0  0  0  0
 21 45  1  0  0  0  0
 21 46  1  0  0  0  0
 21 47  1  0  0  0  0
M  END
> <s_m_source_file>
AV-unprocessed.smi

> <i_m_source_file_index>
2516

> <i_lp_mmshare_version>
43012

> <i_f3d_flags>
0

> <s_epik_input>
W0NIM11bQ0gyXW4xbmMoW0NIM10pYyhjMVtDSDNdKVtOSF1DKD1PKVtOSF1bQ0BIXShbQ0gzXSlbQ0hdMltDSDJdW0NIMl1PW0NIMl1bQ0gyXTI=

> <s_epik_cmdline>
J2VwaWtfcHl0aG9uJywgJy1waCcsICc3LjAnLCAnLXRuJywgJzgnLCAnLW1hJywgJzIwMCcsICctbWV0YWxfYmluZGluZycsICctaW1hZScsICc8aW5maWxlLm1hZT4nLCAnLW9tYWUnLCAnPG91dGZpbGUubWFlPic=

> <r_lp_tautomer_probability>
1

> <r_epik_Ionization_Penalty>
0.00383358

> <r_epik_Ionization_Penalty_Charging>
0

> <r_epik_Ionization_Penalty_Neutral>
0.00383358

> <r_epik_State_Penalty>
0.00270714

> <r_epik_Charging_Adjusted_Penalty>
0.00270714

> <i_epik_Tot_Q>
0

> <i_epik_Tot_abs_Q>
0

> <r_epik_Metal_State_Penalty>
-0

> <b_epik_Metal_Only>
0

> <s_lp_Force_Field>
OPLS_2005

> <r_lp_Energy>
15.1794

> <b_lp_Chiralities_Consistent>
1

> <s_lp_Variant>
AV-unprocessed.smi:2516-1

> <Gold.Version>
5.8.1

> <Gold.Id.Protein>
6NUR|6NUR_protein|mol2

> <Gold.PLP.Fitness>
38.2582

> <Gold.PLP.PLP>
-33.5319

> <Gold.PLP.part.hbond>
-3.4674

> <Gold.PLP.part.metal>
0.0000

> <Gold.PLP.part.buried>
-3.4317

> <Gold.PLP.part.nonpolar>
-29.4526

> <Gold.PLP.part.repulsive>
3.0841

> <Gold.PLP.ligand.clash>
0.0000

> <Gold.PLP.ligand.torsion>
0.6817

> <Gold.PLP.Chemscore.Hbond>
1.8960

> <Gold.PLP.Chemscore.CHOScore>
0.0000

> <Gold.PLP.Chemscore.Metal>
0.0000

> <Gold.Chemscore.Hbonds>
donor molecule, donor type, donor heavy atom, donor atom, acceptor molecule, acceptor atom, score
      L1  H     8    30       P1 10175  1.00
      L1  H    11    31       P1 10175  0.86

> <Gold.PLP.Chemscore.Internal.Correction>
0.4018

> <Gold.Rescore>
     Score         DG    S(hbond)    S(metal)    S(lipo)     H(rot)  DE(clash)    DE(int)     intcor
     11.39     -16.97       1.78        0.00      75.66       1.30       1.63       3.95       ----

> <Gold.Chemscore.Fitness>
11.3934

> <Gold.Chemscore.DG>
-16.9674

> <Gold.Chemscore.ZeroCoef>
-5.4800

> <Gold.Chemscore.Hbond>
1.7846

> <Gold.Chemscore.Metal>
0.0000

> <Gold.Chemscore.Lipo>
75.6602

> <Gold.Chemscore.Internal_Hbond>
0.0000

> <Gold.Chemscore.DEClash>
1.6268

> <Gold.Chemscore.DEInternal>
3.9473

> <Gold.Chemscore.Rot>
1.2990

> <Gold.Chemscore.Internal.Correction>
   9.000000E+99

> <Gold.Chemscore.Hbonds>
donor molecule, donor type, donor heavy atom, donor atom, acceptor molecule, acceptor atom, score
      L1  H     8    30       P1 10175  0.98
      L1  H    11    31       P1 10175  0.48

> <Gold.Chemscore.Hbond.Weighted>
-5.9606

> <Gold.Chemscore.Metal.Weighted>
-0.0000

> <Gold.Chemscore.Lipo.Weighted>
-8.8522

> <Gold.Chemscore.Internal_Hbond.Weighted>
0.0000

> <Gold.Chemscore.DEClash.Weighted>
1.6268

> <Gold.Chemscore.DEInternal.Weighted>
3.9473

> <Gold.Chemscore.Rot.Weighted>
3.3254

> <Gold.Chemscore.Internal.Correction.Weighted>
   9.000000E+99

> <Gold.Protein.RotatedTorsions>
[ 6907 6896 6895 6894 ] final -133.00 input  -60.11 | X-H torsion
[ 7974 7965 7964 7962 ] final  -41.05 input  175.53 | X-H torsion
[ 8008 7997 7996 7995 ] final  -13.66 input   59.86 | X-H torsion
[ 10167 10162 10161 10158 ] final  177.27 input  -65.29 | X-H torsion
[ 10718 10713 10712 10709 ] final  -19.41 input   66.30 | X-H torsion
[ 10763 10752 10751 10750 ] final   -4.63 input  -60.55 | X-H torsion
[ 11005 11000 10999 10996 ] final  165.25 input  -57.11 | X-H torsion

> <Gold.Protein.ActiveResidues>
 VAL166  LYS551  ARG553  GLY616  TRP617  ASP618  TYR619  PRO620  LYS621  CYS622 
 ASP623  PHE694  ASN695  SER759  ASP760  ASP761  ALA762  ILE779  LEU786  VAL792 
 PHE793  MET794  SER795  GLU796  ALA797  LYS798  CYS799  TRP800  GLU811  SER814 

> <Gold.Protein.RotatedAtoms>
  150.9689  133.6365  159.2741 H   0  0  0  0  0  0  0  0  0  0  0  0  # atno 6907 bound_to 6896
  151.3661  135.0912  159.9460 H   0  0  0  0  0  0  0  0  0  0  0  0  # atno 6908 bound_to 6896
  152.5175  133.9252  159.7608 H   0  0  0  0  0  0  0  0  0  0  0  0  # atno 6909 bound_to 6896
  146.0247  140.6806  142.9161 H   0  0  0  0  0  0  0  0  0  0  0  0  # atno 7974 bound_to 7965
  154.5274  140.2243  155.8865 H   0  0  0  0  0  0  0  0  0  0  0  0  # atno 8008 bound_to 7997
  156.1728  140.3118  155.8968 H   0  0  0  0  0  0  0  0  0  0  0  0  # atno 8009 bound_to 7997
  155.3523  140.0456  157.3037 H   0  0  0  0  0  0  0  0  0  0  0  0  # atno 8010 bound_to 7997
  139.5247  144.2818  152.0540 H   0  0  0  0  0  0  0  0  0  0  0  0  # atno 10167 bound_to 10162
  156.5460  130.4690  149.6475 H   0  0  0  0  0  0  0  0  0  0  0  0  # atno 10718 bound_to 10713
  153.3875  135.7000  153.6519 H   0  0  0  0  0  0  0  0  0  0  0  0  # atno 10763 bound_to 10752
  153.5105  135.3633  155.2585 H   0  0  0  0  0  0  0  0  0  0  0  0  # atno 10764 bound_to 10752
  154.8699  135.4134  154.3185 H   0  0  0  0  0  0  0  0  0  0  0  0  # atno 10765 bound_to 10752
  140.2542  134.7953  157.3530 H   0  0  0  0  0  0  0  0  0  0  0  0  # atno 11005 bound_to 11000
  144.7004  140.3628  143.7160 LP  0  0  0  0  0  0  0  0  0  0  0  0  # atno 17320 bound_to 7965
  145.7137  139.1691  143.2524 LP  0  0  0  0  0  0  0  0  0  0  0  0  # atno 17321 bound_to 7965
  140.2272  144.4405  150.6315 LP  0  0  0  0  0  0  0  0  0  0  0  0  # atno 17342 bound_to 10162
  140.6379  143.2198  151.6354 LP  0  0  0  0  0  0  0  0  0  0  0  0  # atno 17343 bound_to 10162
  156.2928  130.7133  151.1986 LP  0  0  0  0  0  0  0  0  0  0  0  0  # atno 17370 bound_to 10713
  157.7396  131.0526  150.5218 LP  0  0  0  0  0  0  0  0  0  0  0  0  # atno 17371 bound_to 10713
  140.1528  134.4828  155.7949 LP  0  0  0  0  0  0  0  0  0  0  0  0  # atno 17394 bound_to 11000
  141.2198  133.6869  156.7408 LP  0  0  0  0  0  0  0  0  0  0  0  0  # atno 17395 bound_to 11000

$$$$
