AV-unprocessed.smi:1913|AV-procd|sdf|7753|dock6
  -GOLD-   22720 9493D 1   1.00000     0.00000
 Structure written by MMmdl.
 40 42  0  0  0  0  0  0  0  0  1 V2000
  151.2735  143.6005  158.6126 C   0  0  0  0  0  0  0  0  0  0  0  0
  150.9521  142.2817  159.0306 O   0  0  0  0  0  0  0  0  0  0  0  0
  150.9876  141.2756  158.0887 C   0  0  0  0  0  0  0  0  0  0  0  0
  151.3152  141.4717  156.7266 C   0  0  0  0  0  0  0  0  0  0  0  0
  151.3189  140.3870  155.8303 C   0  0  0  0  0  0  0  0  0  0  0  0
  151.0000  139.0788  156.2718 C   0  0  0  0  0  0  0  0  0  0  0  0
  150.9709  137.9813  155.4349 O   0  0  0  0  0  0  0  0  0  0  0  0
  151.4393  138.1316  154.1032 C   0  0  0  0  0  0  0  0  0  0  0  0
  150.6865  138.8765  157.6378 C   0  0  0  0  0  0  0  0  0  0  0  0
  150.3352  137.4794  158.1417 C   0  0  1  0  0  0  0  0  0  0  0  0
  151.2590  136.9840  159.0936 O   0  0  0  0  0  0  0  0  0  0  0  0
  148.9141  137.4435  158.7347 C   0  0  0  0  0  0  0  0  0  0  0  0
  148.5046  136.1007  159.1019 N   0  0  0  0  0  0  0  0  0  0  0  0
  148.4852  135.0065  158.3167 C   0  0  0  0  0  0  0  0  0  0  0  0
  148.0659  133.8700  158.8668 N   0  0  0  0  0  0  0  0  0  0  0  0
  147.7797  134.2742  160.1597 C   0  0  0  0  0  0  0  0  0  0  0  0
  147.2893  133.5411  161.2640 C   0  0  0  0  0  0  0  0  0  0  0  0
  147.0717  134.1773  162.5041 C   0  0  0  0  0  0  0  0  0  0  0  0
  147.3388  135.5532  162.6593 C   0  0  0  0  0  0  0  0  0  0  0  0
  147.8277  136.3046  161.5735 C   0  0  0  0  0  0  0  0  0  0  0  0
  148.0445  135.6654  160.3387 C   0  0  0  0  0  0  0  0  0  0  0  0
  150.6739  139.9749  158.5267 C   0  0  0  0  0  0  0  0  0  0  0  0
  151.1980  144.2765  159.4642 H   0  0  0  0  0  0  0  0  0  0  0  0
  150.5823  143.9564  157.8476 H   0  0  0  0  0  0  0  0  0  0  0  0
  152.2947  143.6606  158.2336 H   0  0  0  0  0  0  0  0  0  0  0  0
  151.5636  142.4485  156.3405 H   0  0  0  0  0  0  0  0  0  0  0  0
  151.5699  140.5897  154.8004 H   0  0  0  0  0  0  0  0  0  0  0  0
  151.3341  137.1825  153.5779 H   0  0  0  0  0  0  0  0  0  0  0  0
  152.4947  138.4062  154.0800 H   0  0  0  0  0  0  0  0  0  0  0  0
  150.8581  138.8763  153.5575 H   0  0  0  0  0  0  0  0  0  0  0  0
  150.3853  136.7873  157.3006 H   0  0  0  0  0  0  0  0  0  0  0  0
  151.1721  137.4915  159.8861 H   0  0  0  0  0  0  0  0  0  0  0  0
  148.8440  138.0904  159.6104 H   0  0  0  0  0  0  0  0  0  0  0  0
  148.1944  137.8228  158.0083 H   0  0  0  0  0  0  0  0  0  0  0  0
  148.7929  135.0478  157.2820 H   0  0  0  0  0  0  0  0  0  0  0  0
  147.0803  132.4870  161.1567 H   0  0  0  0  0  0  0  0  0  0  0  0
  146.6974  133.6064  163.3411 H   0  0  0  0  0  0  0  0  0  0  0  0
  147.1679  136.0319  163.6123 H   0  0  0  0  0  0  0  0  0  0  0  0
  148.0332  137.3589  161.6867 H   0  0  0  0  0  0  0  0  0  0  0  0
  150.4158  139.8261  159.5651 H   0  0  0  0  0  0  0  0  0  0  0  0
  1  2  1  0  0  0  0
  1 23  1  0  0  0  0
  1 24  1  0  0  0  0
  1 25  1  0  0  0  0
  2  3  1  0  0  0  0
  3 22  1  0  0  0  0
  3  4  2  0  0  0  0
  4  5  1  0  0  0  0
  4 26  1  0  0  0  0
  5  6  2  0  0  0  0
  5 27  1  0  0  0  0
  6  7  1  0  0  0  0
  6  9  1  0  0  0  0
  7  8  1  0  0  0  0
  8 28  1  0  0  0  0
  8 29  1  0  0  0  0
  8 30  1  0  0  0  0
  9 10  1  0  0  0  0
  9 22  2  0  0  0  0
 10 11  1  0  0  0  0
 10 12  1  0  0  0  0
 10 31  1  0  0  0  0
 11 32  1  0  0  0  0
 12 13  1  0  0  0  0
 12 33  1  0  0  0  0
 12 34  1  0  0  0  0
 13 21  1  0  0  0  0
 13 14  1  0  0  0  0
 14 15  2  0  0  0  0
 14 35  1  0  0  0  0
 15 16  1  0  0  0  0
 16 21  2  0  0  0  0
 16 17  1  0  0  0  0
 17 18  2  0  0  0  0
 17 36  1  0  0  0  0
 18 19  1  0  0  0  0
 18 37  1  0  0  0  0
 19 20  2  0  0  0  0
 19 38  1  0  0  0  0
 20 21  1  0  0  0  0
 20 39  1  0  0  0  0
 22 40  1  0  0  0  0
M  END
> <s_m_source_file>
AV-unprocessed.smi

> <i_m_source_file_index>
1913

> <i_lp_mmshare_version>
43012

> <i_f3d_flags>
0

> <s_epik_input>
W0NIM11PYzFbY0hdW2NIXWMoT1tDSDNdKWMoW2NIXTEpW0NASF0oW09IXSlbQ0gyXW4oW2NIXW4yKWMoYzIzKVtjSF1bY0hdW2NIXVtjSF0z

> <s_epik_cmdline>
J2VwaWtfcHl0aG9uJywgJy1waCcsICc3LjAnLCAnLXRuJywgJzgnLCAnLW1hJywgJzIwMCcsICctbWV0YWxfYmluZGluZycsICctaW1hZScsICc8aW5maWxlLm1hZT4nLCAnLW9tYWUnLCAnPG91dGZpbGUubWFlPic=

> <r_lp_tautomer_probability>
1

> <r_epik_Ionization_Penalty>
0.0696512

> <r_epik_Ionization_Penalty_Charging>
0

> <r_epik_Ionization_Penalty_Neutral>
0.0696512

> <r_epik_State_Penalty>
0.0610247

> <r_epik_Charging_Adjusted_Penalty>
0.0610247

> <i_epik_Tot_Q>
0

> <i_epik_Tot_abs_Q>
0

> <r_epik_Metal_State_Penalty>
6.42746e-05

> <b_epik_Metal_Only>
0

> <s_lp_Force_Field>
OPLS_2005

> <r_lp_Energy>
19.1382

> <b_lp_Chiralities_Consistent>
1

> <s_lp_Variant>
AV-unprocessed.smi:1913-2

> <Gold.Version>
5.8.1

> <Gold.Id.Protein>
6NUR|6NUR_protein|mol2

> <Gold.PLP.Fitness>
43.8353

> <Gold.PLP.PLP>
-41.0159

> <Gold.PLP.part.hbond>
-1.0858

> <Gold.PLP.part.metal>
0.0000

> <Gold.PLP.part.buried>
-6.0718

> <Gold.PLP.part.nonpolar>
-33.5800

> <Gold.PLP.part.repulsive>
0.0645

> <Gold.PLP.ligand.clash>
0.0000

> <Gold.PLP.ligand.torsion>
0.1091

> <Gold.PLP.Chemscore.Hbond>
1.0000

> <Gold.PLP.Chemscore.CHOScore>
0.0000

> <Gold.PLP.Chemscore.Metal>
0.0000

> <Gold.Chemscore.Hbonds>
donor molecule, donor type, donor heavy atom, donor atom, acceptor molecule, acceptor atom, score
      P1  H  6896  6907       L1    11  0.99

> <Gold.PLP.Chemscore.Internal.Correction>
0.0376

> <Gold.Rescore>
     Score         DG    S(hbond)    S(metal)    S(lipo)     H(rot)  DE(clash)    DE(int)     intcor
     14.29     -14.49       0.71        0.00     107.69       2.33       0.05       0.15       ----

> <Gold.Chemscore.Fitness>
14.2897

> <Gold.Chemscore.DG>
-14.4901

> <Gold.Chemscore.ZeroCoef>
-5.4800

> <Gold.Chemscore.Hbond>
0.7129

> <Gold.Chemscore.Metal>
0.0000

> <Gold.Chemscore.Lipo>
107.6914

> <Gold.Chemscore.Internal_Hbond>
0.0000

> <Gold.Chemscore.DEClash>
0.0485

> <Gold.Chemscore.DEInternal>
0.1519

> <Gold.Chemscore.Rot>
2.3323

> <Gold.Chemscore.Internal.Correction>
   9.000000E+99

> <Gold.Chemscore.Hbonds>
donor molecule, donor type, donor heavy atom, donor atom, acceptor molecule, acceptor atom, score
      P1  H  6896  6907       L1    11  0.23

> <Gold.Chemscore.Hbond.Weighted>
-2.3810

> <Gold.Chemscore.Metal.Weighted>
-0.0000

> <Gold.Chemscore.Lipo.Weighted>
-12.5999

> <Gold.Chemscore.Internal_Hbond.Weighted>
0.0000

> <Gold.Chemscore.DEClash.Weighted>
0.0485

> <Gold.Chemscore.DEInternal.Weighted>
0.1519

> <Gold.Chemscore.Rot.Weighted>
5.9708

> <Gold.Chemscore.Internal.Correction.Weighted>
   9.000000E+99

> <Gold.Protein.RotatedTorsions>
[ 6907 6896 6895 6894 ] final  -24.89 input  -60.11 | X-H torsion
[ 7974 7965 7964 7962 ] final -116.94 input  175.53 | X-H torsion
[ 8008 7997 7996 7995 ] final  -14.35 input   59.86 | X-H torsion
[ 10167 10162 10161 10158 ] final  170.60 input  -65.29 | X-H torsion
[ 10718 10713 10712 10709 ] final   79.83 input   66.30 | X-H torsion
[ 10763 10752 10751 10750 ] final   32.01 input  -60.55 | X-H torsion
[ 11005 11000 10999 10996 ] final  106.80 input  -57.11 | X-H torsion

> <Gold.Protein.ActiveResidues>
 VAL166  LYS551  ARG553  GLY616  TRP617  ASP618  TYR619  PRO620  LYS621  CYS622 
 ASP623  PHE694  ASN695  SER759  ASP760  ASP761  ALA762  ILE779  LEU786  VAL792 
 PHE793  MET794  SER795  GLU796  ALA797  LYS798  CYS799  TRP800  GLU811  SER814 

> <Gold.Protein.RotatedAtoms>
  151.1831  135.0369  159.8800 H   0  0  0  0  0  0  0  0  0  0  0  0  # atno 6907 bound_to 6896
  152.5443  134.1041  159.8340 H   0  0  0  0  0  0  0  0  0  0  0  0  # atno 6908 bound_to 6896
  151.1160  133.5091  159.2636 H   0  0  0  0  0  0  0  0  0  0  0  0  # atno 6909 bound_to 6896
  145.0909  140.8489  143.3983 H   0  0  0  0  0  0  0  0  0  0  0  0  # atno 7974 bound_to 7965
  154.5217  140.2225  155.8964 H   0  0  0  0  0  0  0  0  0  0  0  0  # atno 8008 bound_to 7997
  156.1669  140.3130  155.8869 H   0  0  0  0  0  0  0  0  0  0  0  0  # atno 8009 bound_to 7997
  155.3638  140.0462  157.3037 H   0  0  0  0  0  0  0  0  0  0  0  0  # atno 8010 bound_to 7997
  139.5023  144.3579  151.9855 H   0  0  0  0  0  0  0  0  0  0  0  0  # atno 10167 bound_to 10162
  157.6788  130.9932  150.1990 H   0  0  0  0  0  0  0  0  0  0  0  0  # atno 10718 bound_to 10713
  153.0285  135.6424  154.1288 H   0  0  0  0  0  0  0  0  0  0  0  0  # atno 10763 bound_to 10752
  154.1014  135.2859  155.3252 H   0  0  0  0  0  0  0  0  0  0  0  0  # atno 10764 bound_to 10752
  154.6396  135.5464  153.7837 H   0  0  0  0  0  0  0  0  0  0  0  0  # atno 10765 bound_to 10752
  139.8819  134.9381  156.5722 H   0  0  0  0  0  0  0  0  0  0  0  0  # atno 11005 bound_to 11000
  145.1066  139.2785  143.5658 LP  0  0  0  0  0  0  0  0  0  0  0  0  # atno 17320 bound_to 7965
  146.3531  140.0650  142.8627 LP  0  0  0  0  0  0  0  0  0  0  0  0  # atno 17321 bound_to 7965
  140.3015  144.3641  150.6059 LP  0  0  0  0  0  0  0  0  0  0  0  0  # atno 17342 bound_to 10162
  140.5869  143.2169  151.7324 LP  0  0  0  0  0  0  0  0  0  0  0  0  # atno 17343 bound_to 10162
  156.2685  130.3719  149.8056 LP  0  0  0  0  0  0  0  0  0  0  0  0  # atno 17370 bound_to 10713
  156.5781  130.8453  151.3375 LP  0  0  0  0  0  0  0  0  0  0  0  0  # atno 17371 bound_to 10713
  140.8090  133.8444  155.8793 LP  0  0  0  0  0  0  0  0  0  0  0  0  # atno 17394 bound_to 11000
  140.9524  134.1762  157.4718 LP  0  0  0  0  0  0  0  0  0  0  0  0  # atno 17395 bound_to 11000

$$$$
