AV-unprocessed.smi:3317|AV-procd|sdf|12761|dock3
  -GOLD-   2272019 93D 1   1.00000     0.00000
 Structure written by MMmdl.
 36 37  0  0  0  0  0  0  0  0  1 V2000
  151.0356  138.6987  154.6061 C   0  0  0  0  0  0  0  0  0  0  0  0
  150.5368  140.0277  154.5705 O   0  0  0  0  0  0  0  0  0  0  0  0
  149.1831  140.2131  154.3671 C   0  0  0  0  0  0  0  0  0  0  0  0
  148.3685  139.3097  153.6378 C   0  0  0  0  0  0  0  0  0  0  0  0
  146.9987  139.5849  153.4854 C   0  0  0  0  0  0  0  0  0  0  0  0
  146.4881  140.7564  154.0679 C   0  0  0  0  0  0  0  0  0  0  0  0
  147.2504  141.6240  154.7618 N   0  0  0  0  0  0  0  0  0  0  0  0
  148.5739  141.3710  154.9174 C   0  0  0  0  0  0  0  0  0  0  0  0
  149.4462  142.2364  155.6323 N   0  0  0  0  0  0  0  0  0  0  0  0
  150.3404  141.9289  156.5909 C   0  0  0  0  0  0  0  0  0  0  0  0
  150.5439  140.7950  157.0242 O   0  0  0  0  0  0  0  0  0  0  0  0
  151.1243  143.1045  157.1731 C   0  0  0  0  0  0  0  0  0  0  0  0
  151.3032  142.9007  158.5684 O   0  0  0  0  0  0  0  0  0  0  0  0
  152.4002  143.6146  159.1227 C   0  0  0  0  0  0  0  0  0  0  0  0
  152.3892  143.3870  160.6343 C   0  0  0  0  0  0  0  0  0  0  0  0
  151.3510  144.3724  161.1826 C   0  0  0  0  0  0  0  0  0  0  0  0
  151.2398  145.4998  160.1449 C   0  0  0  0  0  0  0  0  0  0  0  0
  152.1902  145.1283  159.0005 C   0  0  0  0  0  0  0  0  0  0  0  0
  152.1118  138.7236  154.7770 H   0  0  0  0  0  0  0  0  0  0  0  0
  150.8643  138.1840  153.6597 H   0  0  0  0  0  0  0  0  0  0  0  0
  150.5872  138.1240  155.4176 H   0  0  0  0  0  0  0  0  0  0  0  0
  148.7658  138.4104  153.1921 H   0  0  0  0  0  0  0  0  0  0  0  0
  146.3557  138.9141  152.9352 H   0  0  0  0  0  0  0  0  0  0  0  0
  145.4412  141.0042  153.9742 H   0  0  0  0  0  0  0  0  0  0  0  0
  149.3898  143.2116  155.3764 H   0  0  0  0  0  0  0  0  0  0  0  0
  152.0905  143.1660  156.6704 H   0  0  0  0  0  0  0  0  0  0  0  0
  150.5874  144.0334  156.9781 H   0  0  0  0  0  0  0  0  0  0  0  0
  153.3428  143.2832  158.6834 H   0  0  0  0  0  0  0  0  0  0  0  0
  152.1737  142.3529  160.9054 H   0  0  0  0  0  0  0  0  0  0  0  0
  153.3701  143.6344  161.0422 H   0  0  0  0  0  0  0  0  0  0  0  0
  150.3856  143.8761  161.2889 H   0  0  0  0  0  0  0  0  0  0  0  0
  151.6358  144.7464  162.1663 H   0  0  0  0  0  0  0  0  0  0  0  0
  150.2149  145.5615  159.7768 H   0  0  0  0  0  0  0  0  0  0  0  0
  151.4925  146.4714  160.5702 H   0  0  0  0  0  0  0  0  0  0  0  0
  153.1455  145.6323  159.1526 H   0  0  0  0  0  0  0  0  0  0  0  0
  151.8135  145.4429  158.0276 H   0  0  0  0  0  0  0  0  0  0  0  0
  1  2  1  0  0  0  0
  1 19  1  0  0  0  0
  1 20  1  0  0  0  0
  1 21  1  0  0  0  0
  2  3  1  0  0  0  0
  3  8  1  0  0  0  0
  3  4  2  0  0  0  0
  4  5  1  0  0  0  0
  4 22  1  0  0  0  0
  5  6  2  0  0  0  0
  5 23  1  0  0  0  0
  6  7  1  0  0  0  0
  6 24  1  0  0  0  0
  7  8  2  0  0  0  0
  8  9  1  0  0  0  0
  9 10  1  0  0  0  0
  9 25  1  0  0  0  0
 10 11  2  0  0  0  0
 10 12  1  0  0  0  0
 12 13  1  0  0  0  0
 12 26  1  0  0  0  0
 12 27  1  0  0  0  0
 13 14  1  0  0  0  0
 14 18  1  0  0  0  0
 14 15  1  0  0  0  0
 14 28  1  0  0  0  0
 15 16  1  0  0  0  0
 15 29  1  0  0  0  0
 15 30  1  0  0  0  0
 16 17  1  0  0  0  0
 16 31  1  0  0  0  0
 16 32  1  0  0  0  0
 17 18  1  0  0  0  0
 17 33  1  0  0  0  0
 17 34  1  0  0  0  0
 18 35  1  0  0  0  0
 18 36  1  0  0  0  0
M  END
> <s_m_source_file>
AV-unprocessed.smi

> <i_m_source_file_index>
3317

> <i_lp_mmshare_version>
43012

> <i_f3d_flags>
0

> <s_epik_input>
W0NIM11PYzFbY0hdW2NIXVtjSF1uYzFbTkhdQyg9TylbQ0gyXU9bQ0hdMltDSDJdW0NIMl1bQ0gyXVtDSDJdMg==

> <s_epik_cmdline>
J2VwaWtfcHl0aG9uJywgJy1waCcsICc3LjAnLCAnLXRuJywgJzgnLCAnLW1hJywgJzIwMCcsICctbWV0YWxfYmluZGluZycsICctaW1hZScsICc8aW5maWxlLm1hZT4nLCAnLW9tYWUnLCAnPG91dGZpbGUubWFlPic=

> <r_lp_tautomer_probability>
1

> <r_epik_Ionization_Penalty>
0.000545986

> <r_epik_Ionization_Penalty_Charging>
0

> <r_epik_Ionization_Penalty_Neutral>
0.000545986

> <r_epik_State_Penalty>
-0

> <r_epik_Charging_Adjusted_Penalty>
0

> <i_epik_Tot_Q>
0

> <i_epik_Tot_abs_Q>
0

> <r_epik_Metal_State_Penalty>
-0

> <b_epik_Metal_Only>
0

> <s_lp_Force_Field>
OPLS_2005

> <r_lp_Energy>
28.4297

> <b_lp_Chiralities_Consistent>
1

> <s_lp_Variant>
AV-unprocessed.smi:3317-1

> <Gold.Version>
5.8.1

> <Gold.Id.Protein>
6NUR|6NUR_protein|mol2

> <Gold.PLP.Fitness>
47.5803

> <Gold.PLP.PLP>
-41.0266

> <Gold.PLP.part.hbond>
-2.0000

> <Gold.PLP.part.metal>
0.0000

> <Gold.PLP.part.buried>
-4.7087

> <Gold.PLP.part.nonpolar>
-34.9500

> <Gold.PLP.part.repulsive>
0.4198

> <Gold.PLP.ligand.clash>
0.0000

> <Gold.PLP.ligand.torsion>
1.2420

> <Gold.PLP.Chemscore.Hbond>
2.0000

> <Gold.PLP.Chemscore.CHOScore>
1.0000

> <Gold.PLP.Chemscore.Metal>
0.0000

> <Gold.Chemscore.Hbonds>
donor molecule, donor type, donor heavy atom, donor atom, acceptor molecule, acceptor atom, score
      L1  H     9    25       P1  8028  1.00
      P1  H  7989  7998       L1     2  1.00
      L1  C     6    24       P1 10175  1.00

> <Gold.PLP.Chemscore.Internal.Correction>
0.0375

> <Gold.Rescore>
     Score         DG    S(hbond)    S(metal)    S(lipo)     H(rot)  DE(clash)    DE(int)     intcor
     14.60     -18.86       1.68        0.00     101.72       1.61       0.24       4.01       ----

> <Gold.Chemscore.Fitness>
14.6046

> <Gold.Chemscore.DG>
-18.8584

> <Gold.Chemscore.ZeroCoef>
-5.4800

> <Gold.Chemscore.Hbond>
1.6785

> <Gold.Chemscore.Metal>
0.0000

> <Gold.Chemscore.Lipo>
101.7159

> <Gold.Chemscore.Internal_Hbond>
0.0000

> <Gold.Chemscore.DEClash>
0.2446

> <Gold.Chemscore.DEInternal>
4.0092

> <Gold.Chemscore.Rot>
1.6127

> <Gold.Chemscore.Internal.Correction>
   9.000000E+99

> <Gold.Chemscore.Hbonds>
donor molecule, donor type, donor heavy atom, donor atom, acceptor molecule, acceptor atom, score
      L1  H     9    25       P1  8028  0.95
      P1  H  7989  7998       L1     2  0.42

> <Gold.Chemscore.Hbond.Weighted>
-5.6061

> <Gold.Chemscore.Metal.Weighted>
-0.0000

> <Gold.Chemscore.Lipo.Weighted>
-11.9008

> <Gold.Chemscore.Internal_Hbond.Weighted>
0.0000

> <Gold.Chemscore.DEClash.Weighted>
0.2446

> <Gold.Chemscore.DEInternal.Weighted>
4.0092

> <Gold.Chemscore.Rot.Weighted>
4.1285

> <Gold.Chemscore.Internal.Correction.Weighted>
   9.000000E+99

> <Gold.Protein.RotatedTorsions>
[ 6907 6896 6895 6894 ] final  -55.59 input  -60.11 | X-H torsion
[ 7974 7965 7964 7962 ] final  160.46 input  175.53 | X-H torsion
[ 8008 7997 7996 7995 ] final -104.22 input   59.86 | X-H torsion
[ 10167 10162 10161 10158 ] final  -13.54 input  -65.29 | X-H torsion
[ 10718 10713 10712 10709 ] final   12.58 input   66.30 | X-H torsion
[ 10763 10752 10751 10750 ] final   -3.19 input  -60.55 | X-H torsion
[ 11005 11000 10999 10996 ] final  104.58 input  -57.11 | X-H torsion

> <Gold.Protein.ActiveResidues>
 VAL166  LYS551  ARG553  GLY616  TRP617  ASP618  TYR619  PRO620  LYS621  CYS622 
 ASP623  PHE694  ASN695  SER759  ASP760  ASP761  ALA762  ILE779  LEU786  VAL792 
 PHE793  MET794  SER795  GLU796  ALA797  LYS798  CYS799  TRP800  GLU811  SER814 

> <Gold.Protein.RotatedAtoms>
  150.8239  134.7460  159.6795 H   0  0  0  0  0  0  0  0  0  0  0  0  # atno 6907 bound_to 6896
  152.4352  134.5697  159.9927 H   0  0  0  0  0  0  0  0  0  0  0  0  # atno 6908 bound_to 6896
  151.5874  133.3333  159.3056 H   0  0  0  0  0  0  0  0  0  0  0  0  # atno 6909 bound_to 6896
  144.7736  139.7760  143.6287 H   0  0  0  0  0  0  0  0  0  0  0  0  # atno 7974 bound_to 7965
  154.8822  140.0419  157.1789 H   0  0  0  0  0  0  0  0  0  0  0  0  # atno 8008 bound_to 7997
  154.8628  140.2946  155.5508 H   0  0  0  0  0  0  0  0  0  0  0  0  # atno 8009 bound_to 7997
  156.2998  140.2444  156.3604 H   0  0  0  0  0  0  0  0  0  0  0  0  # atno 8010 bound_to 7997
  140.7184  143.5416  150.9403 H   0  0  0  0  0  0  0  0  0  0  0  0  # atno 10167 bound_to 10162
  157.0121  130.6121  149.5709 H   0  0  0  0  0  0  0  0  0  0  0  0  # atno 10718 bound_to 10713
  153.3680  135.6993  153.6660 H   0  0  0  0  0  0  0  0  0  0  0  0  # atno 10763 bound_to 10752
  153.5322  135.3590  155.2681 H   0  0  0  0  0  0  0  0  0  0  0  0  # atno 10764 bound_to 10752
  154.8677  135.4183  154.2952 H   0  0  0  0  0  0  0  0  0  0  0  0  # atno 10765 bound_to 10752
  139.8793  134.9305  156.5384 H   0  0  0  0  0  0  0  0  0  0  0  0  # atno 11005 bound_to 11000
  146.1900  139.5135  142.9811 LP  0  0  0  0  0  0  0  0  0  0  0  0  # atno 17320 bound_to 7965
  145.6252  141.0315  143.1893 LP  0  0  0  0  0  0  0  0  0  0  0  0  # atno 17321 bound_to 7965
  139.9138  143.6688  152.3110 LP  0  0  0  0  0  0  0  0  0  0  0  0  # atno 17342 bound_to 10162
  139.7080  144.7625  151.1160 LP  0  0  0  0  0  0  0  0  0  0  0  0  # atno 17343 bound_to 10162
  156.0132  130.5225  150.8054 LP  0  0  0  0  0  0  0  0  0  0  0  0  # atno 17370 bound_to 10713
  157.5312  131.0936  150.9952 LP  0  0  0  0  0  0  0  0  0  0  0  0  # atno 17371 bound_to 10713
  140.8329  133.8265  155.9001 LP  0  0  0  0  0  0  0  0  0  0  0  0  # atno 17394 bound_to 11000
  140.9312  134.2020  157.4863 LP  0  0  0  0  0  0  0  0  0  0  0  0  # atno 17395 bound_to 11000

$$$$
