AV-unprocessed.smi:2816|AV-procd|sdf|10844|dock4
  -GOLD-   2272015283D 1   1.00000     0.00000
 Structure written by MMmdl.
 43 45  0  0  0  0  0  0  0  0  1 V2000
  149.3592  131.4627  158.2025 C   0  0  0  0  0  0  0  0  0  0  0  0
  150.3325  130.4221  157.6219 C   0  0  0  0  0  0  0  0  0  0  0  0
  151.2408  129.8888  158.7451 C   0  0  0  0  0  0  0  0  0  0  0  0
  149.5347  129.2704  156.9837 C   0  0  0  0  0  0  0  0  0  0  0  0
  151.3565  131.2692  156.3180 S   0  0  0  0  0  0  0  0  0  0  0  0
  151.9267  132.4869  156.9160 O   0  0  0  0  0  0  0  0  0  0  0  0
  152.2600  130.2746  155.7178 O   0  0  0  0  0  0  0  0  0  0  0  0
  150.2025  131.7848  155.0445 C   0  0  0  0  0  0  0  0  0  0  0  0
  149.6979  130.8416  154.1268 C   0  0  0  0  0  0  0  0  0  0  0  0
  148.8305  131.2969  153.1165 C   0  0  0  0  0  0  0  0  0  0  0  0
  148.5098  132.6740  153.0552 C   0  0  0  0  0  0  0  0  0  0  0  0
  147.6626  133.2278  152.0843 N   0  0  0  0  0  0  0  0  0  0  0  0
  146.5391  132.4770  151.5349 C   0  0  2  0  0  0  0  0  0  0  0  0
  146.2228  132.7999  150.0699 C   0  0  0  0  0  0  0  0  0  0  0  0
  144.7291  133.1465  150.1397 C   0  0  2  0  0  0  0  0  0  0  0  0
  144.5032  134.5363  150.7470 C   0  0  0  0  0  0  0  0  0  0  0  0
  144.8294  134.2873  152.2180 C   0  0  0  0  0  0  0  0  0  0  0  0
  145.1955  132.7924  152.2168 C   0  0  1  0  0  0  0  0  0  0  0  0
  144.3084  132.3231  151.2152 O   0  0  0  0  0  0  0  0  0  0  0  0
  149.0805  133.5261  154.0253 C   0  0  0  0  0  0  0  0  0  0  0  0
  149.9147  133.1031  154.9980 N   0  0  0  0  0  0  0  0  0  0  0  0
  148.7281  131.0285  158.9786 H   0  0  0  0  0  0  0  0  0  0  0  0
  148.7015  131.8645  157.4310 H   0  0  0  0  0  0  0  0  0  0  0  0
  149.8959  132.3024  158.6453 H   0  0  0  0  0  0  0  0  0  0  0  0
  151.8566  130.6813  159.1710 H   0  0  0  0  0  0  0  0  0  0  0  0
  151.9076  129.1046  158.3886 H   0  0  0  0  0  0  0  0  0  0  0  0
  150.6508  129.4618  159.5567 H   0  0  0  0  0  0  0  0  0  0  0  0
  148.8828  128.7908  157.7145 H   0  0  0  0  0  0  0  0  0  0  0  0
  150.1927  128.4996  156.5829 H   0  0  0  0  0  0  0  0  0  0  0  0
  148.9057  129.6255  156.1669 H   0  0  0  0  0  0  0  0  0  0  0  0
  149.9683  129.7981  154.1892 H   0  0  0  0  0  0  0  0  0  0  0  0
  148.4309  130.5879  152.4075 H   0  0  0  0  0  0  0  0  0  0  0  0
  147.9436  134.0763  151.6138 H   0  0  0  0  0  0  0  0  0  0  0  0
  146.7319  131.4089  151.6426 H   0  0  0  0  0  0  0  0  0  0  0  0
  146.8124  133.6225  149.6621 H   0  0  0  0  0  0  0  0  0  0  0  0
  146.3908  131.9218  149.4452 H   0  0  0  0  0  0  0  0  0  0  0  0
  144.1916  132.9797  149.2060 H   0  0  0  0  0  0  0  0  0  0  0  0
  145.1395  135.2974  150.2941 H   0  0  0  0  0  0  0  0  0  0  0  0
  143.4640  134.8467  150.6330 H   0  0  0  0  0  0  0  0  0  0  0  0
  145.6299  134.9264  152.5904 H   0  0  0  0  0  0  0  0  0  0  0  0
  143.9469  134.4635  152.8342 H   0  0  0  0  0  0  0  0  0  0  0  0
  145.0701  132.3080  153.1855 H   0  0  0  0  0  0  0  0  0  0  0  0
  148.8671  134.5851  154.0174 H   0  0  0  0  0  0  0  0  0  0  0  0
  1  2  1  0  0  0  0
  1 22  1  0  0  0  0
  1 23  1  0  0  0  0
  1 24  1  0  0  0  0
  2  3  1  0  0  0  0
  2  4  1  0  0  0  0
  2  5  1  0  0  0  0
  3 25  1  0  0  0  0
  3 26  1  0  0  0  0
  3 27  1  0  0  0  0
  4 28  1  0  0  0  0
  4 29  1  0  0  0  0
  4 30  1  0  0  0  0
  5  6  2  0  0  0  0
  5  7  2  0  0  0  0
  5  8  1  0  0  0  0
  8 21  1  0  0  0  0
  8  9  2  0  0  0  0
  9 10  1  0  0  0  0
  9 31  1  0  0  0  0
 10 11  2  0  0  0  0
 10 32  1  0  0  0  0
 11 12  1  0  0  0  0
 11 20  1  0  0  0  0
 12 13  1  0  0  0  0
 12 33  1  0  0  0  0
 13 18  1  0  0  0  0
 13 14  1  0  0  0  0
 13 34  1  0  0  0  0
 14 15  1  0  0  0  0
 14 35  1  0  0  0  0
 14 36  1  0  0  0  0
 15 19  1  0  0  0  0
 15 16  1  0  0  0  0
 15 37  1  0  0  0  0
 16 17  1  0  0  0  0
 16 38  1  0  0  0  0
 16 39  1  0  0  0  0
 17 18  1  0  0  0  0
 17 40  1  0  0  0  0
 17 41  1  0  0  0  0
 18 19  1  0  0  0  0
 18 42  1  0  0  0  0
 20 21  2  0  0  0  0
 20 43  1  0  0  0  0
M  END
> <s_m_source_file>
AV-unprocessed.smi

> <i_m_source_file_index>
2816

> <i_lp_mmshare_version>
43012

> <i_f3d_flags>
0

> <s_epik_input>
W0NIM11DKFtDSDNdKShbQ0gzXSlTKD1PKSg9TyljMVtjSF1bY0hdYyhbY0hdbjEpW05IXVtDQEhdKFtDSDJdW0NAQEhdMjMpW0NAQEhdKE8zKVtDSDJdW0NIMl0y

> <s_epik_cmdline>
J2VwaWtfcHl0aG9uJywgJy1waCcsICc3LjAnLCAnLXRuJywgJzgnLCAnLW1hJywgJzIwMCcsICctbWV0YWxfYmluZGluZycsICctaW1hZScsICc8aW5maWxlLm1hZT4nLCAnLW9tYWUnLCAnPG91dGZpbGUubWFlPic=

> <r_lp_tautomer_probability>
1

> <r_epik_Ionization_Penalty>
1.94439e-07

> <r_epik_Ionization_Penalty_Charging>
0

> <r_epik_Ionization_Penalty_Neutral>
1.94439e-07

> <r_epik_State_Penalty>
-0

> <r_epik_Charging_Adjusted_Penalty>
0

> <i_epik_Tot_Q>
0

> <i_epik_Tot_abs_Q>
0

> <r_epik_Metal_State_Penalty>
-0

> <b_epik_Metal_Only>
0

> <s_lp_Force_Field>
OPLS_2005

> <r_lp_Energy>
43.8741

> <b_lp_Chiralities_Consistent>
1

> <s_lp_Variant>
AV-unprocessed.smi:2816-3

> <Gold.Version>
5.8.1

> <Gold.Id.Protein>
6NUR|6NUR_protein|mol2

> <Gold.PLP.Fitness>
35.6997

> <Gold.PLP.PLP>
-30.9806

> <Gold.PLP.part.hbond>
-1.4134

> <Gold.PLP.part.metal>
0.0000

> <Gold.PLP.part.buried>
-4.3670

> <Gold.PLP.part.nonpolar>
-25.7298

> <Gold.PLP.part.repulsive>
0.2301

> <Gold.PLP.ligand.clash>
0.0000

> <Gold.PLP.ligand.torsion>
1.7243

> <Gold.PLP.Chemscore.Hbond>
0.9769

> <Gold.PLP.Chemscore.CHOScore>
1.0000

> <Gold.PLP.Chemscore.Metal>
0.0000

> <Gold.Chemscore.Hbonds>
donor molecule, donor type, donor heavy atom, donor atom, acceptor molecule, acceptor atom, score
      L1  H    12    33       P1  7948  0.10
      L1  C    20    43       P1  7948  0.57

> <Gold.PLP.Chemscore.Internal.Correction>
2.2370

> <Gold.Rescore>
     Score         DG    S(hbond)    S(metal)    S(lipo)     H(rot)  DE(clash)    DE(int)     intcor
     13.98     -15.76       1.84        0.00      60.54       1.15       0.11       1.67       ----

> <Gold.Chemscore.Fitness>
13.9833

> <Gold.Chemscore.DG>
-15.7562

> <Gold.Chemscore.ZeroCoef>
-5.4800

> <Gold.Chemscore.Hbond>
1.8351

> <Gold.Chemscore.Metal>
0.0000

> <Gold.Chemscore.Lipo>
60.5431

> <Gold.Chemscore.Internal_Hbond>
0.0000

> <Gold.Chemscore.DEClash>
0.1075

> <Gold.Chemscore.DEInternal>
1.6654

> <Gold.Chemscore.Rot>
1.1471

> <Gold.Chemscore.Internal.Correction>
   9.000000E+99

> <Gold.Chemscore.Hbonds>
donor molecule, donor type, donor heavy atom, donor atom, acceptor molecule, acceptor atom, score
      P1  H  6896  6908       L1     6  0.02

> <Gold.Chemscore.Hbond.Weighted>
-6.1292

> <Gold.Chemscore.Metal.Weighted>
-0.0000

> <Gold.Chemscore.Lipo.Weighted>
-7.0835

> <Gold.Chemscore.Internal_Hbond.Weighted>
0.0000

> <Gold.Chemscore.DEClash.Weighted>
0.1075

> <Gold.Chemscore.DEInternal.Weighted>
1.6654

> <Gold.Chemscore.Rot.Weighted>
2.9366

> <Gold.Chemscore.Internal.Correction.Weighted>
   9.000000E+99

> <Gold.Protein.RotatedTorsions>
[ 6907 6896 6895 6894 ] final   73.87 input  -60.11 | X-H torsion
[ 7974 7965 7964 7962 ] final   86.09 input  175.53 | X-H torsion
[ 8008 7997 7996 7995 ] final   66.10 input   59.86 | X-H torsion
[ 10167 10162 10161 10158 ] final   51.74 input  -65.29 | X-H torsion
[ 10718 10713 10712 10709 ] final  134.59 input   66.30 | X-H torsion
[ 10763 10752 10751 10750 ] final  122.63 input  -60.55 | X-H torsion
[ 11005 11000 10999 10996 ] final  -27.55 input  -57.11 | X-H torsion

> <Gold.Protein.ActiveResidues>
 VAL166  LYS551  ARG553  GLY616  TRP617  ASP618  TYR619  PRO620  LYS621  CYS622 
 ASP623  PHE694  ASN695  SER759  ASP760  ASP761  ALA762  ILE779  LEU786  VAL792 
 PHE793  MET794  SER795  GLU796  ALA797  LYS798  CYS799  TRP800  GLU811  SER814 

> <Gold.Protein.RotatedAtoms>
  152.4946  134.4356  159.9526 H   0  0  0  0  0  0  0  0  0  0  0  0  # atno 6907 bound_to 6896
  151.4337  133.3657  159.2780 H   0  0  0  0  0  0  0  0  0  0  0  0  # atno 6908 bound_to 6896
  150.9136  134.8577  159.7502 H   0  0  0  0  0  0  0  0  0  0  0  0  # atno 6909 bound_to 6896
  145.5768  139.2320  143.2375 H   0  0  0  0  0  0  0  0  0  0  0  0  # atno 7974 bound_to 7965
  155.6721  140.3497  155.4822 H   0  0  0  0  0  0  0  0  0  0  0  0  # atno 8008 bound_to 7997
  155.9679  140.1150  157.0861 H   0  0  0  0  0  0  0  0  0  0  0  0  # atno 8009 bound_to 7997
  154.4159  140.1163  156.5253 H   0  0  0  0  0  0  0  0  0  0  0  0  # atno 8010 bound_to 7997
  140.2588  144.3397  150.6324 H   0  0  0  0  0  0  0  0  0  0  0  0  # atno 10167 bound_to 10162
  157.4658  131.1076  150.9864 H   0  0  0  0  0  0  0  0  0  0  0  0  # atno 10718 bound_to 10713
  153.6328  135.3393  155.3047 H   0  0  0  0  0  0  0  0  0  0  0  0  # atno 10763 bound_to 10752
  154.8576  135.4299  154.2088 H   0  0  0  0  0  0  0  0  0  0  0  0  # atno 10764 bound_to 10752
  153.2987  135.7023  153.7297 H   0  0  0  0  0  0  0  0  0  0  0  0  # atno 10765 bound_to 10752
  140.9129  133.7449  156.0695 H   0  0  0  0  0  0  0  0  0  0  0  0  # atno 11005 bound_to 11000
  146.1745  140.6595  142.9218 LP  0  0  0  0  0  0  0  0  0  0  0  0  # atno 17320 bound_to 7965
  144.7412  140.4947  143.6868 LP  0  0  0  0  0  0  0  0  0  0  0  0  # atno 17321 bound_to 7965
  140.5983  143.2167  151.7122 LP  0  0  0  0  0  0  0  0  0  0  0  0  # atno 17342 bound_to 10162
  139.5023  144.3833  152.0354 LP  0  0  0  0  0  0  0  0  0  0  0  0  # atno 17343 bound_to 10162
  157.0646  130.5839  149.5392 LP  0  0  0  0  0  0  0  0  0  0  0  0  # atno 17370 bound_to 10713
  156.0049  130.5135  150.7796 LP  0  0  0  0  0  0  0  0  0  0  0  0  # atno 17371 bound_to 10713
  140.8087  134.3425  157.5418 LP  0  0  0  0  0  0  0  0  0  0  0  0  # atno 17394 bound_to 11000
  139.8761  134.9241  156.3341 LP  0  0  0  0  0  0  0  0  0  0  0  0  # atno 17395 bound_to 11000

$$$$
