AV-unprocessed.smi:1947|AV-procd|sdf|7866|dock8
  -GOLD-   2272010 13D 1   1.00000     0.00000
 Structure written by MMmdl.
 39 40  0  0  0  0  0  0  0  0  1 V2000
  147.7909  133.4902  152.7176 C   0  0  0  0  0  0  0  0  0  0  0  0
  146.7975  132.8191  151.7558 C   0  0  1  0  0  0  0  0  0  0  0  0
  146.0563  131.6446  152.4250 C   0  0  0  0  0  0  0  0  0  0  0  0
  145.0897  130.9589  151.4463 C   0  0  0  0  0  0  0  0  0  0  0  0
  144.0903  131.9639  150.8536 C   0  0  0  0  0  0  0  0  0  0  0  0
  144.8145  133.1452  150.1860 C   0  0  0  0  0  0  0  0  0  0  0  0
  145.8014  133.8321  151.1484 C   0  0  1  0  0  0  0  0  0  0  0  0
  145.0572  134.4368  152.1989 O   0  0  0  0  0  0  0  0  0  0  0  0
  144.1514  135.4406  151.7697 C   0  0  0  0  0  0  0  0  0  0  0  0
  143.6474  136.2101  152.9996 C   0  0  0  0  0  0  0  0  0  0  0  0
  144.1926  137.5629  153.0466 N   0  0  0  0  0  0  0  0  0  0  0  0
  145.2820  137.9336  153.7334 C   0  0  0  0  0  0  0  0  0  0  0  0
  145.9835  137.1467  154.3687 O   0  0  0  0  0  0  0  0  0  0  0  0
  145.4873  139.2571  153.6392 N   0  0  0  0  0  0  0  0  0  0  0  0
  146.4973  140.0290  154.2655 C   0  0  0  0  0  0  0  0  0  0  0  0
  147.6774  139.4448  154.5043 N   0  0  0  0  0  0  0  0  0  0  0  0
  148.5732  140.3124  155.1174 N   0  0  0  0  0  0  0  0  0  0  0  0
  148.0334  141.5188  155.3154 C   0  0  0  0  0  0  0  0  0  0  0  0
  146.3766  141.7166  154.7722 S   0  0  0  0  0  0  0  0  0  0  0  0
  147.2875  133.8878  153.5989 H   0  0  0  0  0  0  0  0  0  0  0  0
  148.3118  134.3158  152.2319 H   0  0  0  0  0  0  0  0  0  0  0  0
  148.5445  132.7810  153.0607 H   0  0  0  0  0  0  0  0  0  0  0  0
  147.3831  132.4083  150.9321 H   0  0  0  0  0  0  0  0  0  0  0  0
  146.7749  130.9147  152.7989 H   0  0  0  0  0  0  0  0  0  0  0  0
  145.5020  132.0022  153.2940 H   0  0  0  0  0  0  0  0  0  0  0  0
  145.6564  130.4893  150.6412 H   0  0  0  0  0  0  0  0  0  0  0  0
  144.5529  130.1574  151.9547 H   0  0  0  0  0  0  0  0  0  0  0  0
  143.4477  131.4647  150.1280 H   0  0  0  0  0  0  0  0  0  0  0  0
  143.4342  132.3342  151.6422 H   0  0  0  0  0  0  0  0  0  0  0  0
  145.3571  132.7851  149.3110 H   0  0  0  0  0  0  0  0  0  0  0  0
  144.0865  133.8690  149.8184 H   0  0  0  0  0  0  0  0  0  0  0  0
  146.3658  134.5792  150.5865 H   0  0  0  0  0  0  0  0  0  0  0  0
  144.6419  136.1224  151.0730 H   0  0  0  0  0  0  0  0  0  0  0  0
  143.3145  134.9809  151.2425 H   0  0  0  0  0  0  0  0  0  0  0  0
  142.5571  136.2475  153.0032 H   0  0  0  0  0  0  0  0  0  0  0  0
  143.9455  135.6887  153.9096 H   0  0  0  0  0  0  0  0  0  0  0  0
  143.6748  138.2757  152.5537 H   0  0  0  0  0  0  0  0  0  0  0  0
  144.8339  139.7764  153.0714 H   0  0  0  0  0  0  0  0  0  0  0  0
  148.6157  142.2981  155.7842 H   0  0  0  0  0  0  0  0  0  0  0  0
  1  2  1  0  0  0  0
  1 20  1  0  0  0  0
  1 21  1  0  0  0  0
  1 22  1  0  0  0  0
  2  7  1  0  0  0  0
  2  3  1  0  0  0  0
  2 23  1  0  0  0  0
  3  4  1  0  0  0  0
  3 24  1  0  0  0  0
  3 25  1  0  0  0  0
  4  5  1  0  0  0  0
  4 26  1  0  0  0  0
  4 27  1  0  0  0  0
  5  6  1  0  0  0  0
  5 28  1  0  0  0  0
  5 29  1  0  0  0  0
  6  7  1  0  0  0  0
  6 30  1  0  0  0  0
  6 31  1  0  0  0  0
  7  8  1  0  0  0  0
  7 32  1  0  0  0  0
  8  9  1  0  0  0  0
  9 10  1  0  0  0  0
  9 33  1  0  0  0  0
  9 34  1  0  0  0  0
 10 11  1  0  0  0  0
 10 35  1  0  0  0  0
 10 36  1  0  0  0  0
 11 12  1  0  0  0  0
 11 37  1  0  0  0  0
 12 13  2  0  0  0  0
 12 14  1  0  0  0  0
 14 15  1  0  0  0  0
 14 38  1  0  0  0  0
 15 19  1  0  0  0  0
 15 16  2  0  0  0  0
 16 17  1  0  0  0  0
 17 18  2  0  0  0  0
 18 19  1  0  0  0  0
 18 39  1  0  0  0  0
M  END
> <s_m_source_file>
AV-unprocessed.smi

> <i_m_source_file_index>
1947

> <i_lp_mmshare_version>
43012

> <i_f3d_flags>
0

> <s_epik_input>
W0NIM11bQ0BASF0xW0NIMl1bQ0gyXVtDSDJdW0NIMl1bQ0BIXTFPW0NIMl1bQ0gyXVtOSF1DKD1PKVtOSF1jMm5uW2NIXXMy

> <s_epik_cmdline>
J2VwaWtfcHl0aG9uJywgJy1waCcsICc3LjAnLCAnLXRuJywgJzgnLCAnLW1hJywgJzIwMCcsICctbWV0YWxfYmluZGluZycsICctaW1hZScsICc8aW5maWxlLm1hZT4nLCAnLW9tYWUnLCAnPG91dGZpbGUubWFlPic=

> <r_lp_tautomer_probability>
1

> <r_epik_Ionization_Penalty>
0.00220897

> <r_epik_Ionization_Penalty_Charging>
0

> <r_epik_Ionization_Penalty_Neutral>
0.00220897

> <r_epik_State_Penalty>
-0

> <r_epik_Charging_Adjusted_Penalty>
0

> <i_epik_Tot_Q>
0

> <i_epik_Tot_abs_Q>
0

> <r_epik_Metal_State_Penalty>
0.345002

> <b_epik_Metal_Only>
0

> <s_lp_Force_Field>
OPLS_2005

> <r_lp_Energy>
8.88806

> <b_lp_Chiralities_Consistent>
1

> <s_lp_Variant>
AV-unprocessed.smi:1947-2

> <Gold.Version>
5.8.1

> <Gold.Id.Protein>
6NUR|6NUR_protein|mol2

> <Gold.PLP.Fitness>
40.3744

> <Gold.PLP.PLP>
-35.4222

> <Gold.PLP.part.hbond>
-3.0000

> <Gold.PLP.part.metal>
0.0000

> <Gold.PLP.part.buried>
-3.8626

> <Gold.PLP.part.nonpolar>
-28.5429

> <Gold.PLP.part.repulsive>
0.5771

> <Gold.PLP.ligand.clash>
0.0000

> <Gold.PLP.ligand.torsion>
0.7543

> <Gold.PLP.Chemscore.Hbond>
1.2960

> <Gold.PLP.Chemscore.CHOScore>
0.8491

> <Gold.PLP.Chemscore.Metal>
0.0000

> <Gold.Chemscore.Hbonds>
donor molecule, donor type, donor heavy atom, donor atom, acceptor molecule, acceptor atom, score
      L1  H    11    37       P1 10175  0.51
      L1  H    14    38       P1 10175  0.86
      L1  C    18    39       P1  8028  1.00

> <Gold.PLP.Chemscore.Internal.Correction>
0.0256

> <Gold.Rescore>
     Score         DG    S(hbond)    S(metal)    S(lipo)     H(rot)  DE(clash)    DE(int)     intcor
     12.28     -14.38       1.37        0.00      79.46       1.94       0.14       1.96       ----

> <Gold.Chemscore.Fitness>
12.2759

> <Gold.Chemscore.DG>
-14.3751

> <Gold.Chemscore.ZeroCoef>
-5.4800

> <Gold.Chemscore.Hbond>
1.3654

> <Gold.Chemscore.Metal>
0.0000

> <Gold.Chemscore.Lipo>
79.4645

> <Gold.Chemscore.Internal_Hbond>
0.0000

> <Gold.Chemscore.DEClash>
0.1352

> <Gold.Chemscore.DEInternal>
1.9640

> <Gold.Chemscore.Rot>
1.9385

> <Gold.Chemscore.Internal.Correction>
   9.000000E+99

> <Gold.Chemscore.Hbonds>
donor molecule, donor type, donor heavy atom, donor atom, acceptor molecule, acceptor atom, score
      L1  H    11    37       P1 10175  0.51
      L1  H    14    38       P1 10175  0.84

> <Gold.Chemscore.Hbond.Weighted>
-4.5603

> <Gold.Chemscore.Metal.Weighted>
-0.0000

> <Gold.Chemscore.Lipo.Weighted>
-9.2973

> <Gold.Chemscore.Internal_Hbond.Weighted>
0.0000

> <Gold.Chemscore.DEClash.Weighted>
0.1352

> <Gold.Chemscore.DEInternal.Weighted>
1.9640

> <Gold.Chemscore.Rot.Weighted>
4.9625

> <Gold.Chemscore.Internal.Correction.Weighted>
   9.000000E+99

> <Gold.Protein.RotatedTorsions>
[ 6907 6896 6895 6894 ] final -137.92 input  -60.11 | X-H torsion
[ 7974 7965 7964 7962 ] final  -50.95 input  175.53 | X-H torsion
[ 8008 7997 7996 7995 ] final -120.20 input   59.86 | X-H torsion
[ 10167 10162 10161 10158 ] final -147.16 input  -65.29 | X-H torsion
[ 10718 10713 10712 10709 ] final -125.94 input   66.30 | X-H torsion
[ 10763 10752 10751 10750 ] final  -85.02 input  -60.55 | X-H torsion
[ 11005 11000 10999 10996 ] final -129.99 input  -57.11 | X-H torsion

> <Gold.Protein.ActiveResidues>
 VAL166  LYS551  ARG553  GLY616  TRP617  ASP618  TYR619  PRO620  LYS621  CYS622 
 ASP623  PHE694  ASN695  SER759  ASP760  ASP761  ALA762  ILE779  LEU786  VAL792 
 PHE793  MET794  SER795  GLU796  ALA797  LYS798  CYS799  TRP800  GLU811  SER814 

> <Gold.Protein.RotatedAtoms>
  151.0285  133.5812  159.2663 H   0  0  0  0  0  0  0  0  0  0  0  0  # atno 6907 bound_to 6896
  151.2902  135.0739  159.9211 H   0  0  0  0  0  0  0  0  0  0  0  0  # atno 6908 bound_to 6896
  152.5339  133.9984  159.7937 H   0  0  0  0  0  0  0  0  0  0  0  0  # atno 6909 bound_to 6896
  145.9243  140.7806  142.9632 H   0  0  0  0  0  0  0  0  0  0  0  0  # atno 7974 bound_to 7965
  155.1280  140.0399  157.2767 H   0  0  0  0  0  0  0  0  0  0  0  0  # atno 8008 bound_to 7997
  154.6564  140.2581  155.7131 H   0  0  0  0  0  0  0  0  0  0  0  0  # atno 8009 bound_to 7997
  156.2600  140.2826  156.1018 H   0  0  0  0  0  0  0  0  0  0  0  0  # atno 8010 bound_to 7997
  139.7647  143.8325  152.2614 H   0  0  0  0  0  0  0  0  0  0  0  0  # atno 10167 bound_to 10162
  156.1720  130.6674  151.0193 H   0  0  0  0  0  0  0  0  0  0  0  0  # atno 10718 bound_to 10713
  154.6063  135.5500  153.7426 H   0  0  0  0  0  0  0  0  0  0  0  0  # atno 10763 bound_to 10752
  153.0176  135.6378  154.1642 H   0  0  0  0  0  0  0  0  0  0  0  0  # atno 10764 bound_to 10752
  154.1581  135.2899  155.3096 H   0  0  0  0  0  0  0  0  0  0  0  0  # atno 10765 bound_to 10752
  140.9384  134.1226  157.4173 H   0  0  0  0  0  0  0  0  0  0  0  0  # atno 11005 bound_to 11000
  144.6756  140.2025  143.7385 LP  0  0  0  0  0  0  0  0  0  0  0  0  # atno 17320 bound_to 7965
  145.8509  139.2175  143.1772 LP  0  0  0  0  0  0  0  0  0  0  0  0  # atno 17321 bound_to 7965
  139.8342  144.7240  150.9412 LP  0  0  0  0  0  0  0  0  0  0  0  0  # atno 17342 bound_to 10162
  140.7810  143.4042  151.1099 LP  0  0  0  0  0  0  0  0  0  0  0  0  # atno 17343 bound_to 10162
  157.6809  131.0838  150.7371 LP  0  0  0  0  0  0  0  0  0  0  0  0  # atno 17370 bound_to 10713
  156.7430  130.4745  149.5473 LP  0  0  0  0  0  0  0  0  0  0  0  0  # atno 17371 bound_to 10713
  139.8814  135.0028  156.6151 LP  0  0  0  0  0  0  0  0  0  0  0  0  # atno 17394 bound_to 11000
  140.7768  133.8693  155.8535 LP  0  0  0  0  0  0  0  0  0  0  0  0  # atno 17395 bound_to 11000

$$$$
