AV-unprocessed.smi:2538|AV-procd|sdf|9984|dock2
  -GOLD-   2272014 33D 1   1.00000     0.00000
 Structure written by MMmdl.
 49 50  0  0  0  0  0  0  0  0  2 V2000
  151.8573  144.6858  160.6214 C   0  0  0  0  0  0  0  0  0  0  0  0
  151.7946  143.5878  159.5736 C   0  0  0  0  0  0  0  0  0  0  0  0
  151.0254  143.8102  158.4089 C   0  0  0  0  0  0  0  0  0  0  0  0
  150.9872  142.7874  157.4689 C   0  0  0  0  0  0  0  0  0  0  0  0
  150.3313  142.6965  156.2389 N   0  3  0  0  0  0  0  0  0  0  0  0
  150.5932  141.4860  155.6723 C   0  0  0  0  0  0  0  0  0  0  0  0
  151.4066  140.8033  156.5231 N   0  0  0  0  0  0  0  0  0  0  0  0
  151.9808  139.4562  156.4096 C   0  0  0  0  0  0  0  0  0  0  0  0
  152.2796  139.0590  154.9501 C   0  0  1  0  0  0  0  0  0  0  0  0
  153.6635  138.7880  154.8450 O   0  0  0  0  0  0  0  0  0  0  0  0
  151.4893  137.8038  154.5206 C   0  0  0  0  0  0  0  0  0  0  0  0
  150.0469  137.8935  154.8182 N   0  0  0  0  0  0  0  0  0  0  0  0
  149.2723  138.8240  153.9856 C   0  0  0  0  0  0  0  0  0  0  0  0
  149.2202  136.5604  155.5657 S   0  0  0  0  0  0  0  0  0  0  0  0
  149.4026  136.6860  157.0204 O   0  0  0  0  0  0  0  0  0  0  0  0
  147.8614  136.5314  155.0020 O   0  0  0  0  0  0  0  0  0  0  0  0
  150.1479  135.0679  154.9569 C   0  0  0  0  0  0  0  0  0  0  0  0
  149.2190  134.1338  154.1682 C   0  0  0  0  0  0  0  0  0  0  0  0
  150.8203  134.3358  156.1273 C   0  0  0  0  0  0  0  0  0  0  0  0
  151.6805  141.5763  157.6559 C   0  0  0  0  0  0  0  0  0  0  0  0
  152.4439  141.3402  158.7965 C   0  0  0  0  0  0  0  0  0  0  0  0
  152.4947  142.3682  159.7648 C   0  0  0  0  0  0  0  0  0  0  0  0
  153.3174  142.1391  161.0213 C   0  0  0  0  0  0  0  0  0  0  0  0
  151.2568  145.5487  160.3321 H   0  0  0  0  0  0  0  0  0  0  0  0
  152.8840  145.0255  160.7588 H   0  0  0  0  0  0  0  0  0  0  0  0
  151.4804  144.3243  161.5783 H   0  0  0  0  0  0  0  0  0  0  0  0
  150.4896  144.7359  158.2568 H   0  0  0  0  0  0  0  0  0  0  0  0
  150.2188  141.1301  154.7231 H   0  0  0  0  0  0  0  0  0  0  0  0
  152.8930  139.4328  157.0079 H   0  0  0  0  0  0  0  0  0  0  0  0
  151.2876  138.7523  156.8724 H   0  0  0  0  0  0  0  0  0  0  0  0
  152.0428  139.9064  154.3088 H   0  0  0  0  0  0  0  0  0  0  0  0
  153.8798  138.6776  153.9317 H   0  0  0  0  0  0  0  0  0  0  0  0
  151.6457  137.5736  153.4662 H   0  0  0  0  0  0  0  0  0  0  0  0
  151.8733  136.9341  155.0552 H   0  0  0  0  0  0  0  0  0  0  0  0
  149.8599  139.7087  153.7391 H   0  0  0  0  0  0  0  0  0  0  0  0
  148.3787  139.1514  154.5168 H   0  0  0  0  0  0  0  0  0  0  0  0
  148.9611  138.3417  153.0591 H   0  0  0  0  0  0  0  0  0  0  0  0
  150.9294  135.4148  154.2851 H   0  0  0  0  0  0  0  0  0  0  0  0
  149.7677  133.2793  153.7713 H   0  0  0  0  0  0  0  0  0  0  0  0
  148.7651  134.6535  153.3238 H   0  0  0  0  0  0  0  0  0  0  0  0
  148.4156  133.7488  154.7968 H   0  0  0  0  0  0  0  0  0  0  0  0
  151.3707  133.4616  155.7787 H   0  0  0  0  0  0  0  0  0  0  0  0
  150.0831  133.9972  156.8561 H   0  0  0  0  0  0  0  0  0  0  0  0
  151.5292  134.9819  156.6453 H   0  0  0  0  0  0  0  0  0  0  0  0
  152.9751  140.4109  158.9410 H   0  0  0  0  0  0  0  0  0  0  0  0
  153.8039  141.1632  161.0075 H   0  0  0  0  0  0  0  0  0  0  0  0
  152.6829  142.1824  161.9067 H   0  0  0  0  0  0  0  0  0  0  0  0
  154.0954  142.8970  161.1142 H   0  0  0  0  0  0  0  0  0  0  0  0
  149.7461  143.4056  155.8160 H   0  0  0  0  0  0  0  0  0  0  0  0
  1  2  1  0  0  0  0
  1 24  1  0  0  0  0
  1 25  1  0  0  0  0
  1 26  1  0  0  0  0
  2 22  1  0  0  0  0
  2  3  2  0  0  0  0
  3  4  1  0  0  0  0
  3 27  1  0  0  0  0
  4 20  2  0  0  0  0
  4  5  1  0  0  0  0
  5  6  2  0  0  0  0
  5 49  1  0  0  0  0
  6  7  1  0  0  0  0
  6 28  1  0  0  0  0
  7  8  1  0  0  0  0
  7 20  1  0  0  0  0
  8  9  1  0  0  0  0
  8 29  1  0  0  0  0
  8 30  1  0  0  0  0
  9 10  1  0  0  0  0
  9 11  1  0  0  0  0
  9 31  1  0  0  0  0
 10 32  1  0  0  0  0
 11 12  1  0  0  0  0
 11 33  1  0  0  0  0
 11 34  1  0  0  0  0
 12 13  1  0  0  0  0
 12 14  1  0  0  0  0
 13 35  1  0  0  0  0
 13 36  1  0  0  0  0
 13 37  1  0  0  0  0
 14 15  2  0  0  0  0
 14 16  2  0  0  0  0
 14 17  1  0  0  0  0
 17 18  1  0  0  0  0
 17 19  1  0  0  0  0
 17 38  1  0  0  0  0
 18 39  1  0  0  0  0
 18 40  1  0  0  0  0
 18 41  1  0  0  0  0
 19 42  1  0  0  0  0
 19 43  1  0  0  0  0
 19 44  1  0  0  0  0
 20 21  1  0  0  0  0
 21 22  2  0  0  0  0
 21 45  1  0  0  0  0
 22 23  1  0  0  0  0
 23 46  1  0  0  0  0
 23 47  1  0  0  0  0
 23 48  1  0  0  0  0
M  CHG  1   5   1
M  END
> <s_m_source_file>
AV-unprocessed.smi

> <i_m_source_file_index>
2538

> <i_lp_mmshare_version>
43012

> <i_f3d_flags>
0

> <s_epik_input>
W0NIM11jKFtjSF0xKWMoW0NIM10pW2NIXWMoYzEyKW4oW2NIXW4yKVtDSDJdW0NASF0oW09IXSlbQ0gyXU4oW0NIM10pUyg9TykoPU8pW0NIXShbQ0gzXSlbQ0gzXQ==

> <s_epik_cmdline>
J2VwaWtfcHl0aG9uJywgJy1waCcsICc3LjAnLCAnLXRuJywgJzgnLCAnLW1hJywgJzIwMCcsICctbWV0YWxfYmluZGluZycsICctaW1hZScsICc8aW5maWxlLm1hZT4nLCAnLW9tYWUnLCAnPG91dGZpbGUubWFlPic=

> <r_epik_Ionization_Penalty>
1.07686

> <r_epik_Ionization_Penalty_Charging>
1.07685

> <r_epik_Ionization_Penalty_Neutral>
1.40866e-06

> <r_epik_State_Penalty>
1.13193

> <r_epik_Charging_Adjusted_Penalty>
2.20879

> <i_epik_Tot_Q>
1

> <i_epik_Tot_abs_Q>
1

> <r_epik_Metal_State_Penalty>
5.12988

> <b_epik_Metal_Only>
0

> <s_lp_Force_Field>
OPLS_2005

> <r_lp_Energy>
10.053

> <b_lp_Chiralities_Consistent>
1

> <s_lp_Variant>
AV-unprocessed.smi:2538-4

> <Gold.Version>
5.8.1

> <Gold.Id.Protein>
6NUR|6NUR_protein|mol2

> <Gold.PLP.Fitness>
56.8991

> <Gold.PLP.PLP>
-50.4219

> <Gold.PLP.part.hbond>
-2.0000

> <Gold.PLP.part.metal>
0.0000

> <Gold.PLP.part.buried>
-5.9474

> <Gold.PLP.part.nonpolar>
-42.8352

> <Gold.PLP.part.repulsive>
0.1860

> <Gold.PLP.ligand.clash>
0.0000

> <Gold.PLP.ligand.torsion>
2.5451

> <Gold.PLP.Chemscore.Hbond>
3.0000

> <Gold.PLP.Chemscore.CHOScore>
0.0000

> <Gold.PLP.Chemscore.Metal>
0.0000

> <Gold.Chemscore.Hbonds>
donor molecule, donor type, donor heavy atom, donor atom, acceptor molecule, acceptor atom, score
      L1  H     5    49       P1  8028  2.00
      P1  H  7997  8009       L1    10  0.96

> <Gold.PLP.Chemscore.Internal.Correction>
2.5674

> <Gold.Rescore>
     Score         DG    S(hbond)    S(metal)    S(lipo)     H(rot)  DE(clash)    DE(int)     intcor
     17.52     -20.11       1.80        0.00     125.30       2.36       0.11       2.49       ----

> <Gold.Chemscore.Fitness>
17.5175

> <Gold.Chemscore.DG>
-20.1139

> <Gold.Chemscore.ZeroCoef>
-5.4800

> <Gold.Chemscore.Hbond>
1.8007

> <Gold.Chemscore.Metal>
0.0000

> <Gold.Chemscore.Lipo>
125.2962

> <Gold.Chemscore.Internal_Hbond>
0.0000

> <Gold.Chemscore.DEClash>
0.1052

> <Gold.Chemscore.DEInternal>
2.4912

> <Gold.Chemscore.Rot>
2.3595

> <Gold.Chemscore.Internal.Correction>
   9.000000E+99

> <Gold.Chemscore.Hbonds>
donor molecule, donor type, donor heavy atom, donor atom, acceptor molecule, acceptor atom, score
      L1  H     5    49       P1  8028  0.97
      P1  H  7997  8009       L1    10  0.51

> <Gold.Chemscore.Hbond.Weighted>
-6.0145

> <Gold.Chemscore.Metal.Weighted>
-0.0000

> <Gold.Chemscore.Lipo.Weighted>
-14.6597

> <Gold.Chemscore.Internal_Hbond.Weighted>
0.0000

> <Gold.Chemscore.DEClash.Weighted>
0.1052

> <Gold.Chemscore.DEInternal.Weighted>
2.4912

> <Gold.Chemscore.Rot.Weighted>
6.0403

> <Gold.Chemscore.Internal.Correction.Weighted>
   9.000000E+99

> <Gold.Protein.RotatedTorsions>
[ 6907 6896 6895 6894 ] final   25.88 input  -60.11 | X-H torsion
[ 7974 7965 7964 7962 ] final   52.70 input  175.53 | X-H torsion
[ 8008 7997 7996 7995 ] final -125.25 input   59.86 | X-H torsion
[ 10167 10162 10161 10158 ] final   27.82 input  -65.29 | X-H torsion
[ 10718 10713 10712 10709 ] final  105.04 input   66.30 | X-H torsion
[ 10763 10752 10751 10750 ] final  178.97 input  -60.55 | X-H torsion
[ 11005 11000 10999 10996 ] final -157.42 input  -57.11 | X-H torsion

> <Gold.Protein.ActiveResidues>
 VAL166  LYS551  ARG553  GLY616  TRP617  ASP618  TYR619  PRO620  LYS621  CYS622 
 ASP623  PHE694  ASN695  SER759  ASP760  ASP761  ALA762  ILE779  LEU786  VAL792 
 PHE793  MET794  SER795  GLU796  ALA797  LYS798  CYS799  TRP800  GLU811  SER814 

> <Gold.Protein.RotatedAtoms>
  151.9792  135.0037  160.0556 H   0  0  0  0  0  0  0  0  0  0  0  0  # atno 6907 bound_to 6896
  152.1712  133.4640  159.4918 H   0  0  0  0  0  0  0  0  0  0  0  0  # atno 6908 bound_to 6896
  150.6902  134.1868  159.4313 H   0  0  0  0  0  0  0  0  0  0  0  0  # atno 6909 bound_to 6896
  145.9787  139.4221  143.0145 H   0  0  0  0  0  0  0  0  0  0  0  0  # atno 7974 bound_to 7965
  155.2101  140.0418  157.2932 H   0  0  0  0  0  0  0  0  0  0  0  0  # atno 8008 bound_to 7997
  154.6017  140.2454  155.7755 H   0  0  0  0  0  0  0  0  0  0  0  0  # atno 8009 bound_to 7997
  156.2325  140.2933  156.0235 H   0  0  0  0  0  0  0  0  0  0  0  0  # atno 8010 bound_to 7997
  140.4905  144.0474  150.6295 H   0  0  0  0  0  0  0  0  0  0  0  0  # atno 10167 bound_to 10162
  157.6719  131.0818  150.5796 H   0  0  0  0  0  0  0  0  0  0  0  0  # atno 10718 bound_to 10713
  154.5146  135.2790  155.1314 H   0  0  0  0  0  0  0  0  0  0  0  0  # atno 10763 bound_to 10752
  154.2895  135.6269  153.5383 H   0  0  0  0  0  0  0  0  0  0  0  0  # atno 10764 bound_to 10752
  152.9925  135.5670  154.5620 H   0  0  0  0  0  0  0  0  0  0  0  0  # atno 10765 bound_to 10752
  140.6648  134.4310  157.5233 H   0  0  0  0  0  0  0  0  0  0  0  0  # atno 11005 bound_to 11000
  145.7801  140.9860  143.1104 LP  0  0  0  0  0  0  0  0  0  0  0  0  # atno 17320 bound_to 7965
  144.6855  139.9554  143.7479 LP  0  0  0  0  0  0  0  0  0  0  0  0  # atno 17321 bound_to 7965
  140.3741  143.2838  152.0244 LP  0  0  0  0  0  0  0  0  0  0  0  0  # atno 17342 bound_to 10162
  139.4850  144.6206  151.7262 LP  0  0  0  0  0  0  0  0  0  0  0  0  # atno 17343 bound_to 10162
  156.6097  130.4376  149.5864 LP  0  0  0  0  0  0  0  0  0  0  0  0  # atno 17370 bound_to 10713
  156.2440  130.6868  151.1583 LP  0  0  0  0  0  0  0  0  0  0  0  0  # atno 17371 bound_to 10713
  139.9001  134.8577  156.1934 LP  0  0  0  0  0  0  0  0  0  0  0  0  # atno 17394 bound_to 11000
  141.0437  133.6924  156.1644 LP  0  0  0  0  0  0  0  0  0  0  0  0  # atno 17395 bound_to 11000

$$$$
