AV-unprocessed.smi:2024|AV-procd|sdf|8193|dock8
  -GOLD-   2272010453D 1   1.00000     0.00000
 Structure written by MMmdl.
 43 44  0  0  0  0  0  0  0  0  1 V2000
  152.3631  142.2485  159.2327 C   0  0  0  0  0  0  0  0  0  0  0  0
  152.0004  141.4793  158.0525 N   0  0  0  0  0  0  0  0  0  0  0  0
  151.0733  142.2134  157.1971 C   0  0  0  0  0  0  0  0  0  0  0  0
  150.7066  141.4037  155.9402 C   0  0  0  0  0  0  0  0  0  0  0  0
  150.0930  140.1102  156.2834 N   0  0  0  0  0  0  0  0  0  0  0  0
  149.5878  139.3289  155.1197 C   0  0  0  0  0  0  0  0  0  0  0  0
  148.6651  140.1543  154.1904 C   0  0  0  0  0  0  0  0  0  0  0  0
  150.7602  138.8069  154.2508 C   0  0  0  0  0  0  0  0  0  0  0  0
  148.7785  138.0776  155.5732 C   0  0  0  0  0  0  0  0  0  0  0  0
  148.2371  137.3111  154.4511 N   0  0  0  0  0  0  0  0  0  0  0  0
  146.9774  136.8668  154.3394 C   0  0  0  0  0  0  0  0  0  0  0  0
  146.1117  137.0491  155.1954 O   0  0  0  0  0  0  0  0  0  0  0  0
  146.7972  136.2123  153.1810 N   0  0  0  0  0  0  0  0  0  0  0  0
  145.6102  135.6042  152.7034 C   0  0  0  0  0  0  0  0  0  0  0  0
  144.7991  135.0010  153.5743 N   0  0  0  0  0  0  0  0  0  0  0  0
  143.6748  134.4517  152.9513 C   0  0  0  0  0  0  0  0  0  0  0  0
  143.6456  134.6478  151.5928 C   0  0  0  0  0  0  0  0  0  0  0  0
  145.0379  135.5357  151.0345 S   0  0  0  0  0  0  0  0  0  0  0  0
  151.0260  139.3818  157.1589 C   0  0  0  0  0  0  0  0  0  0  0  0
  151.3944  140.2005  158.4101 C   0  0  0  0  0  0  0  0  0  0  0  0
  152.8334  143.1908  158.9493 H   0  0  0  0  0  0  0  0  0  0  0  0
  153.0723  141.6963  159.8501 H   0  0  0  0  0  0  0  0  0  0  0  0
  151.4866  142.4752  159.8411 H   0  0  0  0  0  0  0  0  0  0  0  0
  150.1659  142.4596  157.7514 H   0  0  0  0  0  0  0  0  0  0  0  0
  151.5218  143.1608  156.8963 H   0  0  0  0  0  0  0  0  0  0  0  0
  150.0257  142.0110  155.3468 H   0  0  0  0  0  0  0  0  0  0  0  0
  151.6030  141.2530  155.3383 H   0  0  0  0  0  0  0  0  0  0  0  0
  148.3224  139.5531  153.3473 H   0  0  0  0  0  0  0  0  0  0  0  0
  149.1721  141.0224  153.7700 H   0  0  0  0  0  0  0  0  0  0  0  0
  147.7728  140.5088  154.7058 H   0  0  0  0  0  0  0  0  0  0  0  0
  150.4174  138.0844  153.5092 H   0  0  0  0  0  0  0  0  0  0  0  0
  151.5225  138.3143  154.8554 H   0  0  0  0  0  0  0  0  0  0  0  0
  151.2492  139.6053  153.6927 H   0  0  0  0  0  0  0  0  0  0  0  0
  149.4003  137.4044  156.1628 H   0  0  0  0  0  0  0  0  0  0  0  0
  147.9796  138.3716  156.2565 H   0  0  0  0  0  0  0  0  0  0  0  0
  148.8734  137.1223  153.6904 H   0  0  0  0  0  0  0  0  0  0  0  0
  147.5983  136.1413  152.5712 H   0  0  0  0  0  0  0  0  0  0  0  0
  142.9415  133.9354  153.5530 H   0  0  0  0  0  0  0  0  0  0  0  0
  142.8924  134.3247  150.8896 H   0  0  0  0  0  0  0  0  0  0  0  0
  150.5886  138.4445  157.4974 H   0  0  0  0  0  0  0  0  0  0  0  0
  151.9380  139.1287  156.6176 H   0  0  0  0  0  0  0  0  0  0  0  0
  152.0868  139.6251  159.0255 H   0  0  0  0  0  0  0  0  0  0  0  0
  150.5017  140.3648  159.0160 H   0  0  0  0  0  0  0  0  0  0  0  0
  1  2  1  0  0  0  0
  1 21  1  0  0  0  0
  1 22  1  0  0  0  0
  1 23  1  0  0  0  0
  2 20  1  0  0  0  0
  2  3  1  0  0  0  0
  3  4  1  0  0  0  0
  3 24  1  0  0  0  0
  3 25  1  0  0  0  0
  4  5  1  0  0  0  0
  4 26  1  0  0  0  0
  4 27  1  0  0  0  0
  5  6  1  0  0  0  0
  5 19  1  0  0  0  0
  6  7  1  0  0  0  0
  6  8  1  0  0  0  0
  6  9  1  0  0  0  0
  7 28  1  0  0  0  0
  7 29  1  0  0  0  0
  7 30  1  0  0  0  0
  8 31  1  0  0  0  0
  8 32  1  0  0  0  0
  8 33  1  0  0  0  0
  9 10  1  0  0  0  0
  9 34  1  0  0  0  0
  9 35  1  0  0  0  0
 10 11  1  0  0  0  0
 10 36  1  0  0  0  0
 11 12  2  0  0  0  0
 11 13  1  0  0  0  0
 13 14  1  0  0  0  0
 13 37  1  0  0  0  0
 14 18  1  0  0  0  0
 14 15  2  0  0  0  0
 15 16  1  0  0  0  0
 16 17  2  0  0  0  0
 16 38  1  0  0  0  0
 17 18  1  0  0  0  0
 17 39  1  0  0  0  0
 19 20  1  0  0  0  0
 19 40  1  0  0  0  0
 19 41  1  0  0  0  0
 20 42  1  0  0  0  0
 20 43  1  0  0  0  0
M  END
> <s_m_source_file>
AV-unprocessed.smi

> <i_m_source_file_index>
2024

> <i_lp_mmshare_version>
43012

> <i_f3d_flags>
0

> <s_epik_input>
W0NIM11OMVtDSDJdW0NIMl1OKFtDSDJdW0NIMl0xKUMoW0NIM10pKFtDSDNdKVtDSDJdW05IXUMoPU8pW05IXWMybltjSF1bY0hdczI=

> <s_epik_cmdline>
J2VwaWtfcHl0aG9uJywgJy1waCcsICc3LjAnLCAnLXRuJywgJzgnLCAnLW1hJywgJzIwMCcsICctbWV0YWxfYmluZGluZycsICctaW1hZScsICc8aW5maWxlLm1hZT4nLCAnLW9tYWUnLCAnPG91dGZpbGUubWFlPic=

> <r_lp_tautomer_probability>
0.999

> <r_epik_Ionization_Penalty>
3.01774

> <r_epik_Ionization_Penalty_Charging>
0

> <r_epik_Ionization_Penalty_Neutral>
3.01774

> <r_epik_State_Penalty>
2.1369

> <r_epik_Charging_Adjusted_Penalty>
2.1369

> <i_epik_Tot_Q>
0

> <i_epik_Tot_abs_Q>
0

> <r_epik_Metal_State_Penalty>
2.1694

> <b_epik_Metal_Only>
0

> <s_lp_Force_Field>
OPLS_2005

> <r_lp_Energy>
47.9803

> <b_lp_Chiralities_Consistent>
1

> <s_lp_Variant>
AV-unprocessed.smi:2024-3

> <Gold.Version>
5.8.1

> <Gold.Id.Protein>
6NUR|6NUR_protein|mol2

> <Gold.PLP.Fitness>
38.4064

> <Gold.PLP.PLP>
-27.5321

> <Gold.PLP.part.hbond>
-2.0000

> <Gold.PLP.part.metal>
0.0000

> <Gold.PLP.part.buried>
-3.6613

> <Gold.PLP.part.nonpolar>
-23.0414

> <Gold.PLP.part.repulsive>
0.0980

> <Gold.PLP.ligand.clash>
0.0000

> <Gold.PLP.ligand.torsion>
0.4048

> <Gold.PLP.Chemscore.Hbond>
1.8800

> <Gold.PLP.Chemscore.CHOScore>
1.9998

> <Gold.PLP.Chemscore.Metal>
0.0000

> <Gold.Chemscore.Hbonds>
donor molecule, donor type, donor heavy atom, donor atom, acceptor molecule, acceptor atom, score
      L1  H    10    36       P1  7948  0.85
      L1  H    13    37       P1  7948  0.99
      L1  C    16    38       P1 10957  1.00
      L1  C    17    39       P1 10186  1.00

> <Gold.PLP.Chemscore.Internal.Correction>
0.0445

> <Gold.Rescore>
     Score         DG    S(hbond)    S(metal)    S(lipo)     H(rot)  DE(clash)    DE(int)     intcor
     14.83     -16.50       1.92        0.00      73.60       1.56       0.07       1.60       ----

> <Gold.Chemscore.Fitness>
14.8254

> <Gold.Chemscore.DG>
-16.5023

> <Gold.Chemscore.ZeroCoef>
-5.4800

> <Gold.Chemscore.Hbond>
1.9194

> <Gold.Chemscore.Metal>
0.0000

> <Gold.Chemscore.Lipo>
73.6010

> <Gold.Chemscore.Internal_Hbond>
0.0000

> <Gold.Chemscore.DEClash>
0.0749

> <Gold.Chemscore.DEInternal>
1.6020

> <Gold.Chemscore.Rot>
1.5624

> <Gold.Chemscore.Internal.Correction>
   9.000000E+99

> <Gold.Chemscore.Hbonds>
donor molecule, donor type, donor heavy atom, donor atom, acceptor molecule, acceptor atom, score
      L1  H    10    36       P1  7948  0.80
      L1  H    13    37       P1  7948  0.92

> <Gold.Chemscore.Hbond.Weighted>
-6.4107

> <Gold.Chemscore.Metal.Weighted>
-0.0000

> <Gold.Chemscore.Lipo.Weighted>
-8.6113

> <Gold.Chemscore.Internal_Hbond.Weighted>
0.0000

> <Gold.Chemscore.DEClash.Weighted>
0.0749

> <Gold.Chemscore.DEInternal.Weighted>
1.6020

> <Gold.Chemscore.Rot.Weighted>
3.9998

> <Gold.Chemscore.Internal.Correction.Weighted>
   9.000000E+99

> <Gold.Protein.RotatedTorsions>
[ 6907 6896 6895 6894 ] final   86.26 input  -60.11 | X-H torsion
[ 7974 7965 7964 7962 ] final  128.96 input  175.53 | X-H torsion
[ 8008 7997 7996 7995 ] final  145.14 input   59.86 | X-H torsion
[ 10167 10162 10161 10158 ] final   14.44 input  -65.29 | X-H torsion
[ 10718 10713 10712 10709 ] final   55.96 input   66.30 | X-H torsion
[ 10763 10752 10751 10750 ] final  -37.42 input  -60.55 | X-H torsion
[ 11005 11000 10999 10996 ] final -145.53 input  -57.11 | X-H torsion

> <Gold.Protein.ActiveResidues>
 VAL166  LYS551  ARG553  GLY616  TRP617  ASP618  TYR619  PRO620  LYS621  CYS622 
 ASP623  PHE694  ASN695  SER759  ASP760  ASP761  ALA762  ILE779  LEU786  VAL792 
 PHE793  MET794  SER795  GLU796  ALA797  LYS798  CYS799  TRP800  GLU811  SER814 

> <Gold.Protein.RotatedAtoms>
  152.5391  134.2459  159.8879 H   0  0  0  0  0  0  0  0  0  0  0  0  # atno 6907 bound_to 6896
  151.2425  133.4385  159.2615 H   0  0  0  0  0  0  0  0  0  0  0  0  # atno 6908 bound_to 6896
  151.0614  134.9753  159.8318 H   0  0  0  0  0  0  0  0  0  0  0  0  # atno 6909 bound_to 6896
  145.0338  139.4022  143.5136 H   0  0  0  0  0  0  0  0  0  0  0  0  # atno 7974 bound_to 7965
  156.2891  140.2217  156.5167 H   0  0  0  0  0  0  0  0  0  0  0  0  # atno 8008 bound_to 7997
  154.7563  140.0476  157.0957 H   0  0  0  0  0  0  0  0  0  0  0  0  # atno 8009 bound_to 7997
  155.0047  140.3106  155.4856 H   0  0  0  0  0  0  0  0  0  0  0  0  # atno 8010 bound_to 7997
  140.5936  143.8747  150.6896 H   0  0  0  0  0  0  0  0  0  0  0  0  # atno 10167 bound_to 10162
  157.5390  130.8683  149.8794 H   0  0  0  0  0  0  0  0  0  0  0  0  # atno 10718 bound_to 10713
  153.8960  135.6807  153.4758 H   0  0  0  0  0  0  0  0  0  0  0  0  # atno 10763 bound_to 10752
  153.1155  135.4763  154.9106 H   0  0  0  0  0  0  0  0  0  0  0  0  # atno 10764 bound_to 10752
  154.7599  135.3208  154.8352 H   0  0  0  0  0  0  0  0  0  0  0  0  # atno 10765 bound_to 10752
  140.7913  134.2965  157.5012 H   0  0  0  0  0  0  0  0  0  0  0  0  # atno 11005 bound_to 11000
  146.3502  139.9903  142.8686 LP  0  0  0  0  0  0  0  0  0  0  0  0  # atno 17320 bound_to 7965
  145.1735  140.9733  143.4307 LP  0  0  0  0  0  0  0  0  0  0  0  0  # atno 17321 bound_to 7965
  140.2276  143.3760  152.1592 LP  0  0  0  0  0  0  0  0  0  0  0  0  # atno 17342 bound_to 10162
  139.5243  144.7082  151.5288 LP  0  0  0  0  0  0  0  0  0  0  0  0  # atno 17343 bound_to 10162
  156.0481  130.3723  150.1267 LP  0  0  0  0  0  0  0  0  0  0  0  0  # atno 17370 bound_to 10713
  156.9448  130.9756  151.3509 LP  0  0  0  0  0  0  0  0  0  0  0  0  # atno 17371 bound_to 10713
  139.8731  134.9376  156.3692 LP  0  0  0  0  0  0  0  0  0  0  0  0  # atno 17394 bound_to 11000
  140.9387  133.7529  156.0118 LP  0  0  0  0  0  0  0  0  0  0  0  0  # atno 17395 bound_to 11000

$$$$
