AV-unprocessed.smi:1240|AV-procd|sdf|5210|dock7
  -GOLD-   22720 4303D 1   1.00000     0.00000
 Structure written by MMmdl.
 49 51  0  0  0  0  0  0  0  0  3 V2000
  144.8293  137.2898  152.1360 O   0  0  0  0  0  0  0  0  0  0  0  0
  146.0173  137.0172  151.9657 C   0  0  0  0  0  0  0  0  0  0  0  0
  147.0069  137.9047  152.1404 N   0  0  0  0  0  0  0  0  0  0  0  0
  146.8153  139.2982  152.5284 C   0  0  0  0  0  0  0  0  0  0  0  0
  146.6454  139.5076  154.0607 C   0  0  1  0  0  0  0  0  0  0  0  0
  147.9860  139.5032  154.8488 C   0  0  1  0  0  0  0  0  0  0  0  0
  148.7725  138.2076  154.7256 C   0  0  0  0  0  0  0  0  0  0  0  0
  150.1632  138.6259  155.1864 C   0  0  0  0  0  0  0  0  0  0  0  0
  150.3112  139.9735  154.7583 O   0  0  0  0  0  0  0  0  0  0  0  0
  149.0472  140.5046  154.3744 C   0  0  0  0  0  0  0  0  0  0  0  0
  145.8811  140.7544  154.3673 N   0  3  0  0  0  0  0  0  0  0  0  0
  145.4805  140.9433  155.7850 C   0  0  0  0  0  0  0  0  0  0  0  0
  144.5595  142.1679  155.9113 C   0  0  0  0  0  0  0  0  0  0  0  0
  145.2261  143.3179  155.4043 O   0  0  0  0  0  0  0  0  0  0  0  0
  145.5504  143.1852  154.0252 C   0  0  0  0  0  0  0  0  0  0  0  0
  146.4990  141.9906  153.8276 C   0  0  0  0  0  0  0  0  0  0  0  0
  146.4977  135.8124  151.6121 N   0  0  0  0  0  0  0  0  0  0  0  0
  145.7796  134.6204  151.3194 C   0  0  0  0  0  0  0  0  0  0  0  0
  146.5125  133.5271  150.8057 C   0  0  0  0  0  0  0  0  0  0  0  0
  145.8425  132.3291  150.4839 C   0  0  0  0  0  0  0  0  0  0  0  0
  144.5069  132.2378  150.6594 N   0  3  0  0  0  0  0  0  0  0  0  0
  143.7617  133.2587  151.1344 C   0  0  0  0  0  0  0  0  0  0  0  0
  144.3764  134.4814  151.4739 C   0  0  0  0  0  0  0  0  0  0  0  0
  147.9574  137.6010  151.9845 H   0  0  0  0  0  0  0  0  0  0  0  0
  147.6820  139.8516  152.1668 H   0  0  0  0  0  0  0  0  0  0  0  0
  145.9561  139.6890  151.9823 H   0  0  0  0  0  0  0  0  0  0  0  0
  146.0516  138.6811  154.4540 H   0  0  0  0  0  0  0  0  0  0  0  0
  147.7955  139.6908  155.9063 H   0  0  0  0  0  0  0  0  0  0  0  0
  148.3628  137.3945  155.3255 H   0  0  0  0  0  0  0  0  0  0  0  0
  148.8079  137.8797  153.6853 H   0  0  0  0  0  0  0  0  0  0  0  0
  150.2285  138.5963  156.2746 H   0  0  0  0  0  0  0  0  0  0  0  0
  150.9489  137.9884  154.7804 H   0  0  0  0  0  0  0  0  0  0  0  0
  149.0361  140.5984  153.2878 H   0  0  0  0  0  0  0  0  0  0  0  0
  148.9058  141.4973  154.8021 H   0  0  0  0  0  0  0  0  0  0  0  0
  144.9628  140.0601  156.1581 H   0  0  0  0  0  0  0  0  0  0  0  0
  146.3605  141.0922  156.4116 H   0  0  0  0  0  0  0  0  0  0  0  0
  143.6215  142.0086  155.3768 H   0  0  0  0  0  0  0  0  0  0  0  0
  144.3051  142.3400  156.9572 H   0  0  0  0  0  0  0  0  0  0  0  0
  144.6402  143.0618  153.4361 H   0  0  0  0  0  0  0  0  0  0  0  0
  146.0278  144.1040  153.6844 H   0  0  0  0  0  0  0  0  0  0  0  0
  147.4473  142.1886  154.3279 H   0  0  0  0  0  0  0  0  0  0  0  0
  146.7154  141.8694  152.7657 H   0  0  0  0  0  0  0  0  0  0  0  0
  147.5034  135.7255  151.5938 H   0  0  0  0  0  0  0  0  0  0  0  0
  147.5808  133.6000  150.6618 H   0  0  0  0  0  0  0  0  0  0  0  0
  146.3310  131.4489  150.0921 H   0  0  0  0  0  0  0  0  0  0  0  0
  142.7015  133.0712  151.2221 H   0  0  0  0  0  0  0  0  0  0  0  0
  143.7561  135.2886  151.8321 H   0  0  0  0  0  0  0  0  0  0  0  0
  145.0172  140.6553  153.8534 H   0  0  0  0  0  0  0  0  0  0  0  0
  144.0402  131.3628  150.4182 H   0  0  0  0  0  0  0  0  0  0  0  0
  1  2  2  0  0  0  0
  2  3  1  0  0  0  0
  2 17  1  0  0  0  0
  3  4  1  0  0  0  0
  3 24  1  0  0  0  0
  4  5  1  0  0  0  0
  4 25  1  0  0  0  0
  4 26  1  0  0  0  0
  5  6  1  0  0  0  0
  5 11  1  0  0  0  0
  5 27  1  0  0  0  0
  6 10  1  0  0  0  0
  6  7  1  0  0  0  0
  6 28  1  0  0  0  0
  7  8  1  0  0  0  0
  7 29  1  0  0  0  0
  7 30  1  0  0  0  0
  8  9  1  0  0  0  0
  8 31  1  0  0  0  0
  8 32  1  0  0  0  0
  9 10  1  0  0  0  0
 10 33  1  0  0  0  0
 10 34  1  0  0  0  0
 11 16  1  0  0  0  0
 11 12  1  0  0  0  0
 11 48  1  0  0  0  0
 12 13  1  0  0  0  0
 12 35  1  0  0  0  0
 12 36  1  0  0  0  0
 13 14  1  0  0  0  0
 13 37  1  0  0  0  0
 13 38  1  0  0  0  0
 14 15  1  0  0  0  0
 15 16  1  0  0  0  0
 15 39  1  0  0  0  0
 15 40  1  0  0  0  0
 16 41  1  0  0  0  0
 16 42  1  0  0  0  0
 17 18  1  0  0  0  0
 17 43  1  0  0  0  0
 18 23  1  0  0  0  0
 18 19  2  0  0  0  0
 19 20  1  0  0  0  0
 19 44  1  0  0  0  0
 20 21  2  0  0  0  0
 20 45  1  0  0  0  0
 21 22  1  0  0  0  0
 21 49  1  0  0  0  0
 22 23  2  0  0  0  0
 22 46  1  0  0  0  0
 23 47  1  0  0  0  0
M  CHG  1  11   1
M  CHG  1  21   1
M  END
> <s_m_source_file>
AV-unprocessed.smi

> <i_m_source_file_index>
1240

> <i_lp_mmshare_version>
43012

> <i_f3d_flags>
0

> <s_epik_input>
W2NIXTFbY0hdbltjSF1bY0hdYzFbTkhdQyg9TylbTkhdW0NIMl1bQ0BIXShbQ0BASF0yW0NIMl1bQ0gyXU9bQ0gyXTIpTjNbQ0gyXVtDSDJdT1tDSDJdW0NIMl0z

> <s_epik_cmdline>
J2VwaWtfcHl0aG9uJywgJy1waCcsICc3LjAnLCAnLXRuJywgJzgnLCAnLW1hJywgJzIwMCcsICctbWV0YWxfYmluZGluZycsICctaW1hZScsICc8aW5maWxlLm1hZT4nLCAnLW9tYWUnLCAnPG91dGZpbGUubWFlPic=

> <r_epik_Ionization_Penalty>
2.08105

> <r_epik_Ionization_Penalty_Charging>
2.08103

> <r_epik_Ionization_Penalty_Neutral>
2.04144e-05

> <r_epik_State_Penalty>
2.15598

> <r_epik_Charging_Adjusted_Penalty>
4.23701

> <i_epik_Tot_Q>
2

> <i_epik_Tot_abs_Q>
2

> <r_epik_Metal_State_Penalty>
2.25158

> <b_epik_Metal_Only>
0

> <s_lp_Force_Field>
OPLS_2005

> <r_lp_Energy>
49.3852

> <b_lp_Chiralities_Consistent>
1

> <s_lp_Variant>
AV-unprocessed.smi:1240-16

> <Gold.Version>
5.8.1

> <Gold.Id.Protein>
6NUR|6NUR_protein|mol2

> <Gold.PLP.Fitness>
51.6579

> <Gold.PLP.PLP>
-37.5121

> <Gold.PLP.part.hbond>
-4.0000

> <Gold.PLP.part.metal>
0.0000

> <Gold.PLP.part.buried>
-6.8671

> <Gold.PLP.part.nonpolar>
-29.7756

> <Gold.PLP.part.repulsive>
1.9564

> <Gold.PLP.ligand.clash>
0.0000

> <Gold.PLP.ligand.torsion>
0.4970

> <Gold.PLP.Chemscore.Hbond>
4.9600

> <Gold.PLP.Chemscore.CHOScore>
0.0000

> <Gold.PLP.Chemscore.Metal>
0.0000

> <Gold.Chemscore.Hbonds>
donor molecule, donor type, donor heavy atom, donor atom, acceptor molecule, acceptor atom, score
      L1  H     3    24       P1  7948  0.90
      L1  H    11    48       P1 10175  2.00
      L1  H    17    43       P1  7948  0.96
      P1  H  7989  7998       L1     9  0.99

> <Gold.PLP.Chemscore.Internal.Correction>
0.2597

> <Gold.Rescore>
     Score         DG    S(hbond)    S(metal)    S(lipo)     H(rot)  DE(clash)    DE(int)     intcor
     20.20     -23.81       3.79        0.00      86.71       1.74       1.02       2.59       ----

> <Gold.Chemscore.Fitness>
20.1983

> <Gold.Chemscore.DG>
-23.8110

> <Gold.Chemscore.ZeroCoef>
-5.4800

> <Gold.Chemscore.Hbond>
3.7862

> <Gold.Chemscore.Metal>
0.0000

> <Gold.Chemscore.Lipo>
86.7077

> <Gold.Chemscore.Internal_Hbond>
0.0000

> <Gold.Chemscore.DEClash>
1.0203

> <Gold.Chemscore.DEInternal>
2.5924

> <Gold.Chemscore.Rot>
1.7421

> <Gold.Chemscore.Internal.Correction>
   9.000000E+99

> <Gold.Chemscore.Hbonds>
donor molecule, donor type, donor heavy atom, donor atom, acceptor molecule, acceptor atom, score
      L1  H     3    24       P1  7948  0.88
      L1  H    11    48       P1 10175  0.98
      L1  H    17    43       P1  7948  0.89
      P1  H  7989  7998       L1     9  0.41

> <Gold.Chemscore.Hbond.Weighted>
-12.6459

> <Gold.Chemscore.Metal.Weighted>
-0.0000

> <Gold.Chemscore.Lipo.Weighted>
-10.1448

> <Gold.Chemscore.Internal_Hbond.Weighted>
0.0000

> <Gold.Chemscore.DEClash.Weighted>
1.0203

> <Gold.Chemscore.DEInternal.Weighted>
2.5924

> <Gold.Chemscore.Rot.Weighted>
4.4597

> <Gold.Chemscore.Internal.Correction.Weighted>
   9.000000E+99

> <Gold.Protein.RotatedTorsions>
[ 6907 6896 6895 6894 ] final  139.58 input  -60.11 | X-H torsion
[ 7974 7965 7964 7962 ] final  -41.02 input  175.53 | X-H torsion
[ 8008 7997 7996 7995 ] final -147.56 input   59.86 | X-H torsion
[ 10167 10162 10161 10158 ] final -121.85 input  -65.29 | X-H torsion
[ 10718 10713 10712 10709 ] final  -60.52 input   66.30 | X-H torsion
[ 10763 10752 10751 10750 ] final -115.74 input  -60.55 | X-H torsion
[ 11005 11000 10999 10996 ] final  166.58 input  -57.11 | X-H torsion

> <Gold.Protein.ActiveResidues>
 VAL166  LYS551  ARG553  GLY616  TRP617  ASP618  TYR619  PRO620  LYS621  CYS622 
 ASP623  PHE694  ASN695  SER759  ASP760  ASP761  ALA762  ILE779  LEU786  VAL792 
 PHE793  MET794  SER795  GLU796  ALA797  LYS798  CYS799  TRP800  GLU811  SER814 

> <Gold.Protein.RotatedAtoms>
  152.2532  133.5233  159.5337 H   0  0  0  0  0  0  0  0  0  0  0  0  # atno 6907 bound_to 6896
  150.7100  134.0932  159.3948 H   0  0  0  0  0  0  0  0  0  0  0  0  # atno 6908 bound_to 6896
  151.8851  135.0438  160.0543 H   0  0  0  0  0  0  0  0  0  0  0  0  # atno 6909 bound_to 6896
  146.0250  140.6803  142.9160 H   0  0  0  0  0  0  0  0  0  0  0  0  # atno 7974 bound_to 7965
  155.5775  140.0640  157.2791 H   0  0  0  0  0  0  0  0  0  0  0  0  # atno 8008 bound_to 7997
  154.4342  140.1858  156.0988 H   0  0  0  0  0  0  0  0  0  0  0  0  # atno 8009 bound_to 7997
  156.0330  140.3304  155.7164 H   0  0  0  0  0  0  0  0  0  0  0  0  # atno 8010 bound_to 7997
  140.0206  143.5348  152.2222 H   0  0  0  0  0  0  0  0  0  0  0  0  # atno 10167 bound_to 10162
  156.0985  130.4189  150.0865 H   0  0  0  0  0  0  0  0  0  0  0  0  # atno 10718 bound_to 10713
  154.8493  135.4370  154.1711 H   0  0  0  0  0  0  0  0  0  0  0  0  # atno 10763 bound_to 10752
  153.2824  135.6954  153.7378 H   0  0  0  0  0  0  0  0  0  0  0  0  # atno 10764 bound_to 10752
  153.6577  135.3440  155.3093 H   0  0  0  0  0  0  0  0  0  0  0  0  # atno 10765 bound_to 10752
  140.2679  134.7850  157.3649 H   0  0  0  0  0  0  0  0  0  0  0  0  # atno 11005 bound_to 11000
  144.7006  140.3633  143.7159 LP  0  0  0  0  0  0  0  0  0  0  0  0  # atno 17320 bound_to 7965
  145.7132  139.1690  143.2526 LP  0  0  0  0  0  0  0  0  0  0  0  0  # atno 17321 bound_to 7965
  139.6142  144.7616  151.2883 LP  0  0  0  0  0  0  0  0  0  0  0  0  # atno 17342 bound_to 10162
  140.7344  143.6767  150.8035 LP  0  0  0  0  0  0  0  0  0  0  0  0  # atno 17343 bound_to 10162
  156.8858  130.9572  151.3594 LP  0  0  0  0  0  0  0  0  0  0  0  0  # atno 17370 bound_to 10713
  157.6151  130.8612  149.9014 LP  0  0  0  0  0  0  0  0  0  0  0  0  # atno 17371 bound_to 10713
  140.1401  134.4982  155.8038 LP  0  0  0  0  0  0  0  0  0  0  0  0  # atno 17394 bound_to 11000
  141.2181  133.6822  156.7195 LP  0  0  0  0  0  0  0  0  0  0  0  0  # atno 17395 bound_to 11000

$$$$
