AV-unprocessed.smi:2406|AV-procd|sdf|9516|dock9
  -GOLD-   2272013143D 1   1.00000     0.00000
 Structure written by MMmdl.
 36 37  0  0  0  0  0  0  0  0  1 V2000
  150.9762  141.3029  156.4453 C   0  0  0  0  0  0  0  0  0  0  0  0
  150.7221  140.4970  155.3001 O   0  0  0  0  0  0  0  0  0  0  0  0
  149.4252  140.4135  154.8376 C   0  0  0  0  0  0  0  0  0  0  0  0
  149.0363  139.2971  154.0692 C   0  0  0  0  0  0  0  0  0  0  0  0
  147.6976  139.2477  153.6197 C   0  0  0  0  0  0  0  0  0  0  0  0
  147.3453  138.1027  152.8573 N   0  0  0  0  0  0  0  0  0  0  0  0
  146.1146  137.6486  152.5628 C   0  0  0  0  0  0  0  0  0  0  0  0
  145.0592  138.1871  152.8982 O   0  0  0  0  0  0  0  0  0  0  0  0
  146.1764  136.5192  151.8404 N   0  0  0  0  0  0  0  0  0  0  0  0
  145.0324  135.7454  151.3593 C   0  0  2  0  0  0  0  0  0  0  0  0
  143.9597  135.7030  152.4561 C   0  0  0  0  0  0  0  0  0  0  0  0
  145.4630  134.3267  150.9361 C   0  0  0  0  0  0  0  0  0  0  0  0
  144.4320  133.6045  150.0864 C   0  0  0  0  0  0  0  0  0  0  0  0
  143.5784  132.5046  150.6703 C   0  0  0  0  0  0  0  0  0  0  0  0
  144.6483  132.1737  149.6552 C   0  0  0  0  0  0  0  0  0  0  0  0
  146.8428  140.2541  153.9285 N   0  0  0  0  0  0  0  0  0  0  0  0
  147.3090  141.2681  154.6601 C   0  0  0  0  0  0  0  0  0  0  0  0
  148.5488  141.4041  155.1319 N   0  0  0  0  0  0  0  0  0  0  0  0
  152.0385  141.2633  156.6859 H   0  0  0  0  0  0  0  0  0  0  0  0
  150.4261  140.9422  157.3156 H   0  0  0  0  0  0  0  0  0  0  0  0
  150.7167  142.3471  156.2653 H   0  0  0  0  0  0  0  0  0  0  0  0
  149.7407  138.5107  153.8397 H   0  0  0  0  0  0  0  0  0  0  0  0
  148.1202  137.5595  152.5068 H   0  0  0  0  0  0  0  0  0  0  0  0
  147.0901  136.1572  151.6105 H   0  0  0  0  0  0  0  0  0  0  0  0
  144.5870  136.2377  150.4929 H   0  0  0  0  0  0  0  0  0  0  0  0
  143.0797  135.1526  152.1223 H   0  0  0  0  0  0  0  0  0  0  0  0
  143.6344  136.7081  152.7263 H   0  0  0  0  0  0  0  0  0  0  0  0
  144.3323  135.2183  153.3591 H   0  0  0  0  0  0  0  0  0  0  0  0
  146.4007  134.3670  150.3807 H   0  0  0  0  0  0  0  0  0  0  0  0
  145.6595  133.7289  151.8272 H   0  0  0  0  0  0  0  0  0  0  0  0
  143.9421  134.2429  149.3537 H   0  0  0  0  0  0  0  0  0  0  0  0
  143.7599  132.2176  151.7044 H   0  0  0  0  0  0  0  0  0  0  0  0
  142.5408  132.4529  150.3471 H   0  0  0  0  0  0  0  0  0  0  0  0
  144.3234  131.8959  148.6547 H   0  0  0  0  0  0  0  0  0  0  0  0
  145.5388  131.6621  150.0150 H   0  0  0  0  0  0  0  0  0  0  0  0
  146.6112  142.0578  154.8954 H   0  0  0  0  0  0  0  0  0  0  0  0
  1  2  1  0  0  0  0
  1 19  1  0  0  0  0
  1 20  1  0  0  0  0
  1 21  1  0  0  0  0
  2  3  1  0  0  0  0
  3 18  1  0  0  0  0
  3  4  2  0  0  0  0
  4  5  1  0  0  0  0
  4 22  1  0  0  0  0
  5  6  1  0  0  0  0
  5 16  2  0  0  0  0
  6  7  1  0  0  0  0
  6 23  1  0  0  0  0
  7  8  2  0  0  0  0
  7  9  1  0  0  0  0
  9 10  1  0  0  0  0
  9 24  1  0  0  0  0
 10 11  1  0  0  0  0
 10 12  1  0  0  0  0
 10 25  1  0  0  0  0
 11 26  1  0  0  0  0
 11 27  1  0  0  0  0
 11 28  1  0  0  0  0
 12 13  1  0  0  0  0
 12 29  1  0  0  0  0
 12 30  1  0  0  0  0
 13 15  1  0  0  0  0
 13 14  1  0  0  0  0
 13 31  1  0  0  0  0
 14 15  1  0  0  0  0
 14 32  1  0  0  0  0
 14 33  1  0  0  0  0
 15 34  1  0  0  0  0
 15 35  1  0  0  0  0
 16 17  1  0  0  0  0
 17 18  2  0  0  0  0
 17 36  1  0  0  0  0
M  END
> <s_m_source_file>
AV-unprocessed.smi

> <i_m_source_file_index>
2406

> <i_lp_mmshare_version>
43012

> <i_f3d_flags>
0

> <s_epik_input>
W0NIM11PYzFbY0hdYyhuW2NIXW4xKVtOSF1DKD1PKVtOSF1bQ0BIXShbQ0gzXSlbQ0gyXVtDSF0yW0NIMl1bQ0gyXTI=

> <s_epik_cmdline>
J2VwaWtfcHl0aG9uJywgJy1waCcsICc3LjAnLCAnLXRuJywgJzgnLCAnLW1hJywgJzIwMCcsICctbWV0YWxfYmluZGluZycsICctaW1hZScsICc8aW5maWxlLm1hZT4nLCAnLW9tYWUnLCAnPG91dGZpbGUubWFlPic=

> <r_lp_tautomer_probability>
1

> <r_epik_Ionization_Penalty>
2.82876e-05

> <r_epik_Ionization_Penalty_Charging>
0

> <r_epik_Ionization_Penalty_Neutral>
2.82876e-05

> <r_epik_State_Penalty>
-0

> <r_epik_Charging_Adjusted_Penalty>
0

> <i_epik_Tot_Q>
0

> <i_epik_Tot_abs_Q>
0

> <r_epik_Metal_State_Penalty>
-0

> <b_epik_Metal_Only>
0

> <s_lp_Force_Field>
OPLS_2005

> <r_lp_Energy>
11.282

> <b_lp_Chiralities_Consistent>
1

> <s_lp_Variant>
AV-unprocessed.smi:2406-1

> <Gold.Version>
5.8.1

> <Gold.Id.Protein>
6NUR|6NUR_protein|mol2

> <Gold.PLP.Fitness>
38.3147

> <Gold.PLP.PLP>
-31.0188

> <Gold.PLP.part.hbond>
-3.0000

> <Gold.PLP.part.metal>
0.0000

> <Gold.PLP.part.buried>
-3.9071

> <Gold.PLP.part.nonpolar>
-27.7383

> <Gold.PLP.part.repulsive>
3.7619

> <Gold.PLP.ligand.clash>
0.0000

> <Gold.PLP.ligand.torsion>
1.0675

> <Gold.PLP.Chemscore.Hbond>
2.9520

> <Gold.PLP.Chemscore.CHOScore>
0.0000

> <Gold.PLP.Chemscore.Metal>
0.0000

> <Gold.Chemscore.Hbonds>
donor molecule, donor type, donor heavy atom, donor atom, acceptor molecule, acceptor atom, score
      L1  H     6    23       P1  7948  1.00
      L1  H     9    24       P1  7948  0.99
      P1  H  7989  7998       L1     2  0.86

> <Gold.PLP.Chemscore.Internal.Correction>
0.5749

> <Gold.Rescore>
     Score         DG    S(hbond)    S(metal)    S(lipo)     H(rot)  DE(clash)    DE(int)     intcor
      9.21     -14.56       2.18        0.00      55.66       1.85       1.55       3.81       ----

> <Gold.Chemscore.Fitness>
9.2056

> <Gold.Chemscore.DG>
-14.5607

> <Gold.Chemscore.ZeroCoef>
-5.4800

> <Gold.Chemscore.Hbond>
2.1837

> <Gold.Chemscore.Metal>
0.0000

> <Gold.Chemscore.Lipo>
55.6621

> <Gold.Chemscore.Internal_Hbond>
0.0000

> <Gold.Chemscore.DEClash>
1.5493

> <Gold.Chemscore.DEInternal>
3.8058

> <Gold.Chemscore.Rot>
1.8458

> <Gold.Chemscore.Internal.Correction>
   9.000000E+99

> <Gold.Chemscore.Hbonds>
donor molecule, donor type, donor heavy atom, donor atom, acceptor molecule, acceptor atom, score
      L1  H     6    23       P1  7948  0.99
      L1  H     9    24       P1  7948  0.94
      P1  H  7989  7998       L1     2  0.15

> <Gold.Chemscore.Hbond.Weighted>
-7.2936

> <Gold.Chemscore.Metal.Weighted>
-0.0000

> <Gold.Chemscore.Lipo.Weighted>
-6.5125

> <Gold.Chemscore.Internal_Hbond.Weighted>
0.0000

> <Gold.Chemscore.DEClash.Weighted>
1.5493

> <Gold.Chemscore.DEInternal.Weighted>
3.8058

> <Gold.Chemscore.Rot.Weighted>
4.7254

> <Gold.Chemscore.Internal.Correction.Weighted>
   9.000000E+99

> <Gold.Protein.RotatedTorsions>
[ 6907 6896 6895 6894 ] final -108.02 input  -60.11 | X-H torsion
[ 7974 7965 7964 7962 ] final  -26.44 input  175.53 | X-H torsion
[ 8008 7997 7996 7995 ] final  144.23 input   59.86 | X-H torsion
[ 10167 10162 10161 10158 ] final  123.20 input  -65.29 | X-H torsion
[ 10718 10713 10712 10709 ] final   81.00 input   66.30 | X-H torsion
[ 10763 10752 10751 10750 ] final  -47.01 input  -60.55 | X-H torsion
[ 11005 11000 10999 10996 ] final   -2.10 input  -57.11 | X-H torsion

> <Gold.Protein.ActiveResidues>
 VAL166  LYS551  ARG553  GLY616  TRP617  ASP618  TYR619  PRO620  LYS621  CYS622 
 ASP623  PHE694  ASN695  SER759  ASP760  ASP761  ALA762  ILE779  LEU786  VAL792 
 PHE793  MET794  SER795  GLU796  ALA797  LYS798  CYS799  TRP800  GLU811  SER814 

> <Gold.Protein.RotatedAtoms>
  150.7477  133.9740  159.3554 H   0  0  0  0  0  0  0  0  0  0  0  0  # atno 6907 bound_to 6896
  151.7676  135.0792  160.0364 H   0  0  0  0  0  0  0  0  0  0  0  0  # atno 6908 bound_to 6896
  152.3361  133.5976  159.5879 H   0  0  0  0  0  0  0  0  0  0  0  0  # atno 6909 bound_to 6896
  146.1425  140.5020  142.8646 H   0  0  0  0  0  0  0  0  0  0  0  0  # atno 7974 bound_to 7965
  156.2913  140.2241  156.5020 H   0  0  0  0  0  0  0  0  0  0  0  0  # atno 8008 bound_to 7997
  154.7682  140.0468  157.1051 H   0  0  0  0  0  0  0  0  0  0  0  0  # atno 8009 bound_to 7997
  154.9907  140.3090  155.4911 H   0  0  0  0  0  0  0  0  0  0  0  0  # atno 8010 bound_to 7997
  139.5813  144.6987  151.3520 H   0  0  0  0  0  0  0  0  0  0  0  0  # atno 10167 bound_to 10162
  157.6821  130.9984  150.2162 H   0  0  0  0  0  0  0  0  0  0  0  0  # atno 10718 bound_to 10713
  154.0543  135.6627  153.4804 H   0  0  0  0  0  0  0  0  0  0  0  0  # atno 10763 bound_to 10752
  153.0451  135.5119  154.7720 H   0  0  0  0  0  0  0  0  0  0  0  0  # atno 10764 bound_to 10752
  154.6737  135.3033  154.9674 H   0  0  0  0  0  0  0  0  0  0  0  0  # atno 10765 bound_to 10752
  140.6546  133.9374  155.8400 H   0  0  0  0  0  0  0  0  0  0  0  0  # atno 11005 bound_to 11000
  144.7809  140.5838  143.6606 LP  0  0  0  0  0  0  0  0  0  0  0  0  # atno 17320 bound_to 7965
  145.5013  139.1483  143.3655 LP  0  0  0  0  0  0  0  0  0  0  0  0  # atno 17321 bound_to 7965
  140.7091  143.7437  150.7535 LP  0  0  0  0  0  0  0  0  0  0  0  0  # atno 17342 bound_to 10162
  140.0970  143.4823  152.2447 LP  0  0  0  0  0  0  0  0  0  0  0  0  # atno 17343 bound_to 10162
  156.2823  130.3735  149.7923 LP  0  0  0  0  0  0  0  0  0  0  0  0  # atno 17370 bound_to 10713
  156.5608  130.8382  151.3328 LP  0  0  0  0  0  0  0  0  0  0  0  0  # atno 17371 bound_to 10713
  141.0511  134.0484  157.3782 LP  0  0  0  0  0  0  0  0  0  0  0  0  # atno 17394 bound_to 11000
  139.9034  135.0172  156.7373 LP  0  0  0  0  0  0  0  0  0  0  0  0  # atno 17395 bound_to 11000

$$$$
