AV-unprocessed.smi:2761|AV-procd|sdf|10633|dock5
  -GOLD-   2272015 83D 1   1.00000     0.00000
 Structure written by MMmdl.
 27 28  0  0  0  0  0  0  0  0  1 V2000
  151.2091  140.6741  156.6056 O   0  0  0  0  0  0  0  0  0  0  0  0
  150.7700  141.8232  156.5203 C   0  0  0  0  0  0  0  0  0  0  0  0
  149.7826  142.2156  155.6859 N   0  0  0  0  0  0  0  0  0  0  0  0
  149.0769  141.4470  154.7536 C   0  0  0  0  0  0  0  0  0  0  0  0
  147.7606  141.9857  154.5085 C   0  0  0  0  0  0  0  0  0  0  0  0
  146.9722  141.3370  153.6244 C   0  0  0  0  0  0  0  0  0  0  0  0
  147.4392  140.1328  152.9384 C   0  0  0  0  0  0  0  0  0  0  0  0
  146.7796  139.4935  152.1226 O   0  0  0  0  0  0  0  0  0  0  0  0
  148.7014  139.7698  153.2890 N   0  0  0  0  0  0  0  0  0  0  0  0
  149.5674  140.3830  154.1868 N   0  0  0  0  0  0  0  0  0  0  0  0
  151.3371  142.9282  157.4241 C   0  0  1  0  0  0  0  0  0  0  0  0
  150.2592  143.6169  158.2938 C   0  0  0  0  0  0  0  0  0  0  0  0
  150.8776  144.5916  159.1237 O   0  0  0  0  0  0  0  0  0  0  0  0
  151.8462  144.0026  159.9799 C   0  0  0  0  0  0  0  0  0  0  0  0
  152.9270  143.3287  159.1196 C   0  0  0  0  0  0  0  0  0  0  0  0
  152.3146  142.3523  158.2877 O   0  0  0  0  0  0  0  0  0  0  0  0
  149.5333  143.1920  155.7494 H   0  0  0  0  0  0  0  0  0  0  0  0
  147.3830  142.8731  154.9960 H   0  0  0  0  0  0  0  0  0  0  0  0
  145.9803  141.7119  153.4183 H   0  0  0  0  0  0  0  0  0  0  0  0
  149.0944  138.9463  152.8559 H   0  0  0  0  0  0  0  0  0  0  0  0
  151.8166  143.6676  156.7801 H   0  0  0  0  0  0  0  0  0  0  0  0
  149.5212  144.1197  157.6679 H   0  0  0  0  0  0  0  0  0  0  0  0
  149.7215  142.8920  158.9076 H   0  0  0  0  0  0  0  0  0  0  0  0
  152.2880  144.7782  160.6054 H   0  0  0  0  0  0  0  0  0  0  0  0
  151.3721  143.2811  160.6473 H   0  0  0  0  0  0  0  0  0  0  0  0
  153.4567  144.0638  158.5119 H   0  0  0  0  0  0  0  0  0  0  0  0
  153.6675  142.8416  159.7541 H   0  0  0  0  0  0  0  0  0  0  0  0
  1  2  2  0  0  0  0
  2  3  1  0  0  0  0
  2 11  1  0  0  0  0
  3 17  1  0  0  0  0
  3  4  1  0  0  0  0
  4  5  1  0  0  0  0
  4 10  2  0  0  0  0
  5  6  2  0  0  0  0
  5 18  1  0  0  0  0
  6  7  1  0  0  0  0
  6 19  1  0  0  0  0
  7  8  2  0  0  0  0
  7  9  1  0  0  0  0
  9 10  1  0  0  0  0
  9 20  1  0  0  0  0
 11 16  1  0  0  0  0
 11 12  1  0  0  0  0
 11 21  1  0  0  0  0
 12 13  1  0  0  0  0
 12 22  1  0  0  0  0
 12 23  1  0  0  0  0
 13 14  1  0  0  0  0
 14 15  1  0  0  0  0
 14 24  1  0  0  0  0
 14 25  1  0  0  0  0
 15 16  1  0  0  0  0
 15 26  1  0  0  0  0
 15 27  1  0  0  0  0
M  END
> <s_m_source_file>
AV-unprocessed.smi

> <i_m_source_file_index>
2761

> <i_lp_mmshare_version>
43012

> <i_f3d_flags>
0

> <s_epik_input>
TzFbQ0gyXVtDSDJdT1tDSDJdW0NASF0xQyg9TylbTkhdYzJbY0hdW2NIXWMoW09IXSlubjI=

> <s_epik_cmdline>
J2VwaWtfcHl0aG9uJywgJy1waCcsICc3LjAnLCAnLXRuJywgJzgnLCAnLW1hJywgJzIwMCcsICctbWV0YWxfYmluZGluZycsICctaW1hZScsICc8aW5maWxlLm1hZT4nLCAnLW9tYWUnLCAnPG91dGZpbGUubWFlPic=

> <r_lp_tautomer_probability>
1

> <r_epik_Ionization_Penalty>
0.000593199

> <r_epik_Ionization_Penalty_Charging>
0.000590119

> <r_epik_Ionization_Penalty_Neutral>
3.08036e-06

> <r_epik_State_Penalty>
-0

> <r_epik_Charging_Adjusted_Penalty>
0.000590119

> <i_epik_Tot_Q>
0

> <i_epik_Tot_abs_Q>
0

> <r_epik_Metal_State_Penalty>
0.240077

> <b_epik_Metal_Only>
0

> <s_lp_Force_Field>
OPLS_2005

> <r_lp_Energy>
26.3126

> <b_lp_Chiralities_Consistent>
1

> <s_lp_Variant>
AV-unprocessed.smi:2761-2

> <Gold.Version>
5.8.1

> <Gold.Id.Protein>
6NUR|6NUR_protein|mol2

> <Gold.PLP.Fitness>
32.3220

> <Gold.PLP.PLP>
-28.4016

> <Gold.PLP.part.hbond>
-2.2613

> <Gold.PLP.part.metal>
0.0000

> <Gold.PLP.part.buried>
-1.8896

> <Gold.PLP.part.nonpolar>
-25.4178

> <Gold.PLP.part.repulsive>
2.4380

> <Gold.PLP.ligand.clash>
0.0000

> <Gold.PLP.ligand.torsion>
0.1684

> <Gold.PLP.Chemscore.Hbond>
1.4186

> <Gold.PLP.Chemscore.CHOScore>
0.0000

> <Gold.PLP.Chemscore.Metal>
0.0000

> <Gold.Chemscore.Hbonds>
donor molecule, donor type, donor heavy atom, donor atom, acceptor molecule, acceptor atom, score
      L1  H     3    17       P1  8028  1.00
      P1  H  7989  7998       L1    10  0.39

> <Gold.PLP.Chemscore.Internal.Correction>
0.0012

> <Gold.Rescore>
     Score         DG    S(hbond)    S(metal)    S(lipo)     H(rot)  DE(clash)    DE(int)     intcor
     11.39     -12.85       1.01        0.00      56.08       1.00       0.10       1.37       ----

> <Gold.Chemscore.Fitness>
11.3905

> <Gold.Chemscore.DG>
-12.8527

> <Gold.Chemscore.ZeroCoef>
-5.4800

> <Gold.Chemscore.Hbond>
1.0095

> <Gold.Chemscore.Metal>
0.0000

> <Gold.Chemscore.Lipo>
56.0773

> <Gold.Chemscore.Internal_Hbond>
0.0000

> <Gold.Chemscore.DEClash>
0.0970

> <Gold.Chemscore.DEInternal>
1.3652

> <Gold.Chemscore.Rot>
1.0000

> <Gold.Chemscore.Internal.Correction>
   9.000000E+99

> <Gold.Chemscore.Hbonds>
donor molecule, donor type, donor heavy atom, donor atom, acceptor molecule, acceptor atom, score
      L1  H     3    17       P1  8028  1.00
      L1  H     9    20       P1  7957  0.01
      P1  H  7989  7998       L1    10  0.23

> <Gold.Chemscore.Hbond.Weighted>
-3.3716

> <Gold.Chemscore.Metal.Weighted>
-0.0000

> <Gold.Chemscore.Lipo.Weighted>
-6.5610

> <Gold.Chemscore.Internal_Hbond.Weighted>
0.0000

> <Gold.Chemscore.DEClash.Weighted>
0.0970

> <Gold.Chemscore.DEInternal.Weighted>
1.3652

> <Gold.Chemscore.Rot.Weighted>
2.5600

> <Gold.Chemscore.Internal.Correction.Weighted>
   9.000000E+99

> <Gold.Protein.RotatedTorsions>
[ 6907 6896 6895 6894 ] final  119.00 input  -60.11 | X-H torsion
[ 7974 7965 7964 7962 ] final  152.85 input  175.53 | X-H torsion
[ 8008 7997 7996 7995 ] final -166.39 input   59.86 | X-H torsion
[ 10167 10162 10161 10158 ] final   45.92 input  -65.29 | X-H torsion
[ 10718 10713 10712 10709 ] final  174.95 input   66.30 | X-H torsion
[ 10763 10752 10751 10750 ] final  122.84 input  -60.55 | X-H torsion
[ 11005 11000 10999 10996 ] final -169.63 input  -57.11 | X-H torsion

> <Gold.Protein.ActiveResidues>
 VAL166  LYS551  ARG553  GLY616  TRP617  ASP618  TYR619  PRO620  LYS621  CYS622 
 ASP623  PHE694  ASN695  SER759  ASP760  ASP761  ALA762  ILE779  LEU786  VAL792 
 PHE793  MET794  SER795  GLU796  ALA797  LYS798  CYS799  TRP800  GLU811  SER814 

> <Gold.Protein.RotatedAtoms>
  152.4503  133.7616  159.6749 H   0  0  0  0  0  0  0  0  0  0  0  0  # atno 6907 bound_to 6896
  150.8413  133.7921  159.3066 H   0  0  0  0  0  0  0  0  0  0  0  0  # atno 6908 bound_to 6896
  151.5545  135.1069  160.0009 H   0  0  0  0  0  0  0  0  0  0  0  0  # atno 6909 bound_to 6896
  144.8194  139.6722  143.6107 H   0  0  0  0  0  0  0  0  0  0  0  0  # atno 7974 bound_to 7965
  155.8632  140.0981  157.1600 H   0  0  0  0  0  0  0  0  0  0  0  0  # atno 8008 bound_to 7997
  154.3992  140.1361  156.4049 H   0  0  0  0  0  0  0  0  0  0  0  0  # atno 8009 bound_to 7997
  155.7834  140.3458  155.5312 H   0  0  0  0  0  0  0  0  0  0  0  0  # atno 8010 bound_to 7997
  140.3192  144.2726  150.6186 H   0  0  0  0  0  0  0  0  0  0  0  0  # atno 10167 bound_to 10162
  156.9420  131.0004  151.2966 H   0  0  0  0  0  0  0  0  0  0  0  0  # atno 10718 bound_to 10713
  153.6361  135.3387  155.3057 H   0  0  0  0  0  0  0  0  0  0  0  0  # atno 10763 bound_to 10752
  154.8570  135.4307  154.2054 H   0  0  0  0  0  0  0  0  0  0  0  0  # atno 10764 bound_to 10752
  153.2961  135.7021  153.7320 H   0  0  0  0  0  0  0  0  0  0  0  0  # atno 10765 bound_to 10752
  140.5286  134.5639  157.5068 H   0  0  0  0  0  0  0  0  0  0  0  0  # atno 11005 bound_to 11000
  146.2499  139.6177  142.9434 LP  0  0  0  0  0  0  0  0  0  0  0  0  # atno 17320 bound_to 7965
  145.5139  141.0434  143.2473 LP  0  0  0  0  0  0  0  0  0  0  0  0  # atno 17321 bound_to 7965
  140.5499  143.2208  151.7944 LP  0  0  0  0  0  0  0  0  0  0  0  0  # atno 17342 bound_to 10162
  139.4878  144.4490  151.9676 LP  0  0  0  0  0  0  0  0  0  0  0  0  # atno 17343 bound_to 10162
  157.5779  130.8355  149.8481 LP  0  0  0  0  0  0  0  0  0  0  0  0  # atno 17370 bound_to 10713
  156.0400  130.3741  150.1460 LP  0  0  0  0  0  0  0  0  0  0  0  0  # atno 17371 bound_to 10713
  139.9567  134.7523  156.0327 LP  0  0  0  0  0  0  0  0  0  0  0  0  # atno 17394 bound_to 11000
  141.1294  133.6590  156.3424 LP  0  0  0  0  0  0  0  0  0  0  0  0  # atno 17395 bound_to 11000

$$$$
