AV-unprocessed.smi:739|AV-procd|sdf|3544|dock2
  -GOLD-   22720 0533D 1   1.00000     0.00000
 Structure written by MMmdl.
 33 35  0  0  0  0  0  0  0  0  2 V2000
  152.7638  139.9583  156.9238 O   0  0  0  0  0  0  0  0  0  0  0  0
  151.5144  140.4603  157.3490 C   0  0  2  0  0  0  0  0  0  0  0  0
  150.5774  140.5110  156.1257 C   0  0  0  0  0  0  0  0  0  0  0  0
  150.3259  139.1831  155.5518 N   0  0  0  0  0  0  0  0  0  0  0  0
  150.3569  138.7707  154.2553 C   0  0  0  0  0  0  0  0  0  0  0  0
  150.0415  137.4458  154.2385 N   0  3  0  0  0  0  0  0  0  0  0  0
  149.8084  137.0050  155.5435 C   0  0  0  0  0  0  0  0  0  0  0  0
  149.4608  135.7509  156.0352 C   0  0  0  0  0  0  0  0  0  0  0  0
  149.2954  135.6394  157.4318 C   0  0  0  0  0  0  0  0  0  0  0  0
  148.9576  134.4408  157.9633 F   0  0  0  0  0  0  0  0  0  0  0  0
  149.4745  136.7506  158.2832 C   0  0  0  0  0  0  0  0  0  0  0  0
  149.3049  136.6005  159.6182 F   0  0  0  0  0  0  0  0  0  0  0  0
  149.8268  138.0174  157.7727 C   0  0  0  0  0  0  0  0  0  0  0  0
  149.9893  138.1170  156.3920 C   0  0  0  0  0  0  0  0  0  0  0  0
  151.6409  141.8137  158.0350 C   0  0  0  0  0  0  0  0  0  0  0  0
  150.9376  142.9368  157.5457 C   0  0  0  0  0  0  0  0  0  0  0  0
  151.0486  144.1819  158.1947 C   0  0  0  0  0  0  0  0  0  0  0  0
  151.8618  144.3116  159.3366 C   0  0  0  0  0  0  0  0  0  0  0  0
  151.9675  145.5083  159.9611 F   0  0  0  0  0  0  0  0  0  0  0  0
  152.5629  143.1949  159.8307 C   0  0  0  0  0  0  0  0  0  0  0  0
  152.4521  141.9493  159.1823 C   0  0  0  0  0  0  0  0  0  0  0  0
  152.6502  139.0596  156.6539 H   0  0  0  0  0  0  0  0  0  0  0  0
  151.1240  139.7403  158.0694 H   0  0  0  0  0  0  0  0  0  0  0  0
  149.6132  140.9441  156.3960 H   0  0  0  0  0  0  0  0  0  0  0  0
  150.9919  141.1460  155.3413 H   0  0  0  0  0  0  0  0  0  0  0  0
  150.5840  139.3853  153.3958 H   0  0  0  0  0  0  0  0  0  0  0  0
  149.3216  134.8982  155.3873 H   0  0  0  0  0  0  0  0  0  0  0  0
  149.9611  138.8616  158.4327 H   0  0  0  0  0  0  0  0  0  0  0  0
  150.3084  142.8469  156.6723 H   0  0  0  0  0  0  0  0  0  0  0  0
  150.5085  145.0375  157.8162 H   0  0  0  0  0  0  0  0  0  0  0  0
  153.1853  143.2934  160.7080 H   0  0  0  0  0  0  0  0  0  0  0  0
  152.9901  141.0976  159.5720 H   0  0  0  0  0  0  0  0  0  0  0  0
  149.9903  136.8867  153.3964 H   0  0  0  0  0  0  0  0  0  0  0  0
  1  2  1  0  0  0  0
  1 22  1  0  0  0  0
  2  3  1  0  0  0  0
  2 15  1  0  0  0  0
  2 23  1  0  0  0  0
  3  4  1  0  0  0  0
  3 24  1  0  0  0  0
  3 25  1  0  0  0  0
  4 14  1  0  0  0  0
  4  5  1  0  0  0  0
  5  6  2  0  0  0  0
  5 26  1  0  0  0  0
  6  7  1  0  0  0  0
  6 33  1  0  0  0  0
  7 14  2  0  0  0  0
  7  8  1  0  0  0  0
  8  9  2  0  0  0  0
  8 27  1  0  0  0  0
  9 10  1  0  0  0  0
  9 11  1  0  0  0  0
 11 12  1  0  0  0  0
 11 13  2  0  0  0  0
 13 14  1  0  0  0  0
 13 28  1  0  0  0  0
 15 21  1  0  0  0  0
 15 16  2  0  0  0  0
 16 17  1  0  0  0  0
 16 29  1  0  0  0  0
 17 18  2  0  0  0  0
 17 30  1  0  0  0  0
 18 19  1  0  0  0  0
 18 20  1  0  0  0  0
 20 21  2  0  0  0  0
 20 31  1  0  0  0  0
 21 32  1  0  0  0  0
M  CHG  1   6   1
M  END
> <s_m_source_file>
AV-unprocessed.smi

> <i_m_source_file_index>
739

> <i_lp_mmshare_version>
43012

> <i_f3d_flags>
0

> <s_epik_input>
W2NIXTFbY0hdYyhGKVtjSF1bY0hdYzFbQ0BIXShbT0hdKVtDSDJdbihbY0hdbjIpYyhjMjMpW2NIXWMoRiljKEYpW2NIXTM=

> <s_epik_cmdline>
J2VwaWtfcHl0aG9uJywgJy1waCcsICc3LjAnLCAnLXRuJywgJzgnLCAnLW1hJywgJzIwMCcsICctbWV0YWxfYmluZGluZycsICctaW1hZScsICc8aW5maWxlLm1hZT4nLCAnLW9tYWUnLCAnPG91dGZpbGUubWFlPic=

> <r_epik_Ionization_Penalty>
2.16139

> <r_epik_Ionization_Penalty_Charging>
2.16138

> <r_epik_Ionization_Penalty_Neutral>
1.79538e-06

> <r_epik_State_Penalty>
2.30198

> <r_epik_Charging_Adjusted_Penalty>
4.46337

> <i_epik_Tot_Q>
1

> <i_epik_Tot_abs_Q>
1

> <r_epik_Metal_State_Penalty>
6.38245

> <b_epik_Metal_Only>
0

> <s_lp_Force_Field>
OPLS_2005

> <r_lp_Energy>
16.88

> <b_lp_Chiralities_Consistent>
1

> <s_lp_Variant>
AV-unprocessed.smi:739-3

> <Gold.Version>
5.8.1

> <Gold.Id.Protein>
6NUR|6NUR_protein|mol2

> <Gold.PLP.Fitness>
51.2634

> <Gold.PLP.PLP>
-39.6096

> <Gold.PLP.part.hbond>
-2.0493

> <Gold.PLP.part.metal>
0.0000

> <Gold.PLP.part.buried>
-4.9281

> <Gold.PLP.part.nonpolar>
-32.5436

> <Gold.PLP.part.repulsive>
0.0374

> <Gold.PLP.ligand.clash>
0.0261

> <Gold.PLP.ligand.torsion>
0.1676

> <Gold.PLP.Chemscore.Hbond>
3.0000

> <Gold.PLP.Chemscore.CHOScore>
1.0000

> <Gold.PLP.Chemscore.Metal>
0.0000

> <Gold.Chemscore.Hbonds>
donor molecule, donor type, donor heavy atom, donor atom, acceptor molecule, acceptor atom, score
      L1  H     6    33       P1  7948  1.90
      P1  H  7997  8010       L1     1  0.85
      L1  C     5    26       P1  7957  1.00

> <Gold.PLP.Chemscore.Internal.Correction>
0.0150

> <Gold.Rescore>
     Score         DG    S(hbond)    S(metal)    S(lipo)     H(rot)  DE(clash)    DE(int)     intcor
     16.05     -16.20       1.86        0.00      84.84       2.12       0.11       0.03       ----

> <Gold.Chemscore.Fitness>
16.0537

> <Gold.Chemscore.DG>
-16.1990

> <Gold.Chemscore.ZeroCoef>
-5.4800

> <Gold.Chemscore.Hbond>
1.8603

> <Gold.Chemscore.Metal>
0.0000

> <Gold.Chemscore.Lipo>
84.8445

> <Gold.Chemscore.Internal_Hbond>
0.0000

> <Gold.Chemscore.DEClash>
0.1140

> <Gold.Chemscore.DEInternal>
0.0313

> <Gold.Chemscore.Rot>
2.1176

> <Gold.Chemscore.Internal.Correction>
   9.000000E+99

> <Gold.Chemscore.Hbonds>
donor molecule, donor type, donor heavy atom, donor atom, acceptor molecule, acceptor atom, score
      L1  H     6    33       P1  7948  0.20
      P1  H  7997  8010       L1     1  0.14

> <Gold.Chemscore.Hbond.Weighted>
-6.2132

> <Gold.Chemscore.Metal.Weighted>
-0.0000

> <Gold.Chemscore.Lipo.Weighted>
-9.9268

> <Gold.Chemscore.Internal_Hbond.Weighted>
0.0000

> <Gold.Chemscore.DEClash.Weighted>
0.1140

> <Gold.Chemscore.DEInternal.Weighted>
0.0313

> <Gold.Chemscore.Rot.Weighted>
5.4211

> <Gold.Chemscore.Internal.Correction.Weighted>
   9.000000E+99

> <Gold.Protein.RotatedTorsions>
[ 6907 6896 6895 6894 ] final   28.45 input  -60.11 | X-H torsion
[ 7974 7965 7964 7962 ] final  -78.24 input  175.53 | X-H torsion
[ 8008 7997 7996 7995 ] final   76.76 input   59.86 | X-H torsion
[ 10167 10162 10161 10158 ] final  148.21 input  -65.29 | X-H torsion
[ 10718 10713 10712 10709 ] final  -98.15 input   66.30 | X-H torsion
[ 10763 10752 10751 10750 ] final  121.78 input  -60.55 | X-H torsion
[ 11005 11000 10999 10996 ] final  -19.47 input  -57.11 | X-H torsion

> <Gold.Protein.ActiveResidues>
 VAL166  LYS551  ARG553  GLY616  TRP617  ASP618  TYR619  PRO620  LYS621  CYS622 
 ASP623  PHE694  ASN695  SER759  ASP760  ASP761  ALA762  ILE779  LEU786  VAL792 
 PHE793  MET794  SER795  GLU796  ALA797  LYS798  CYS799  TRP800  GLU811  SER814 

> <Gold.Protein.RotatedAtoms>
  152.0172  134.9843  160.0569 H   0  0  0  0  0  0  0  0  0  0  0  0  # atno 6907 bound_to 6896
  152.1372  133.4438  159.4758 H   0  0  0  0  0  0  0  0  0  0  0  0  # atno 6908 bound_to 6896
  150.6861  134.2267  159.4461 H   0  0  0  0  0  0  0  0  0  0  0  0  # atno 6909 bound_to 6896
  145.5890  140.9433  143.1302 H   0  0  0  0  0  0  0  0  0  0  0  0  # atno 7974 bound_to 7965
  155.8319  140.3466  155.5578 H   0  0  0  0  0  0  0  0  0  0  0  0  # atno 8008 bound_to 7997
  155.8233  140.0916  157.1856 H   0  0  0  0  0  0  0  0  0  0  0  0  # atno 8009 bound_to 7997
  154.4004  140.1426  156.3513 H   0  0  0  0  0  0  0  0  0  0  0  0  # atno 8010 bound_to 7997
  139.4878  144.5696  151.7079 H   0  0  0  0  0  0  0  0  0  0  0  0  # atno 10167 bound_to 10162
  156.0100  130.5225  150.6480 H   0  0  0  0  0  0  0  0  0  0  0  0  # atno 10718 bound_to 10713
  153.6194  135.3416  155.3005 H   0  0  0  0  0  0  0  0  0  0  0  0  # atno 10763 bound_to 10752
  154.8603  135.4269  154.2224 H   0  0  0  0  0  0  0  0  0  0  0  0  # atno 10764 bound_to 10752
  153.3093  135.7030  153.7203 H   0  0  0  0  0  0  0  0  0  0  0  0  # atno 10765 bound_to 10752
  140.8370  133.7954  155.9820 H   0  0  0  0  0  0  0  0  0  0  0  0  # atno 11005 bound_to 11000
  144.7359  139.7586  143.7329 LP  0  0  0  0  0  0  0  0  0  0  0  0  # atno 17320 bound_to 7965
  146.1660  139.4792  142.9958 LP  0  0  0  0  0  0  0  0  0  0  0  0  # atno 17321 bound_to 7965
  140.5281  144.0774  150.6044 LP  0  0  0  0  0  0  0  0  0  0  0  0  # atno 17342 bound_to 10162
  140.3754  143.2831  152.0230 LP  0  0  0  0  0  0  0  0  0  0  0  0  # atno 17343 bound_to 10162
  157.4247  131.0841  151.1097 LP  0  0  0  0  0  0  0  0  0  0  0  0  # atno 17370 bound_to 10713
  157.1688  130.6258  149.5634 LP  0  0  0  0  0  0  0  0  0  0  0  0  # atno 17371 bound_to 10713
  140.8936  134.2465  157.5081 LP  0  0  0  0  0  0  0  0  0  0  0  0  # atno 17394 bound_to 11000
  139.8704  134.9673  156.4593 LP  0  0  0  0  0  0  0  0  0  0  0  0  # atno 17395 bound_to 11000

$$$$
