AV-unprocessed.smi:3161|AV-procd|sdf|12060|dock5
  -GOLD-   2272017483D 1   1.00000     0.00000
 Structure written by MMmdl.
 40 41  0  0  0  0  0  0  0  0  1 V2000
  153.6313  134.7641  163.7556 C   0  0  0  0  0  0  0  0  0  0  0  0
  154.0076  136.1459  163.3049 C   0  0  0  0  0  0  0  0  0  0  0  0
  154.6887  137.1527  164.0459 C   0  0  0  0  0  0  0  0  0  0  0  0
  154.8708  138.2656  163.3544 N   0  0  0  0  0  0  0  0  0  0  0  0
  154.2978  138.0185  162.1566 N   0  0  0  0  0  0  0  0  0  0  0  0
  154.3300  139.0278  161.1105 C   0  0  0  0  0  0  0  0  0  0  0  0
  155.1875  140.2735  161.4514 C   0  0  1  0  0  0  0  0  0  0  0  0
  156.6752  139.9791  161.2106 C   0  0  0  0  0  0  0  0  0  0  0  0
  154.8151  141.4623  160.6741 N   0  0  0  0  0  0  0  0  0  0  0  0
  153.3824  141.7173  160.5329 C   0  0  0  0  0  0  0  0  0  0  0  0
  153.1098  143.1836  160.1672 C   0  0  2  0  0  0  0  0  0  0  0  0
  151.8782  143.7595  160.8967 C   0  0  0  0  0  0  0  0  0  0  0  0
  151.5925  145.1896  160.4247 C   0  0  0  0  0  0  0  0  0  0  0  0
  151.4844  145.2174  158.8966 C   0  0  0  0  0  0  0  0  0  0  0  0
  152.7222  144.5638  158.2625 C   0  0  0  0  0  0  0  0  0  0  0  0
  152.8811  143.2388  158.7607 O   0  0  0  0  0  0  0  0  0  0  0  0
  153.7865  136.7389  162.0942 C   0  0  0  0  0  0  0  0  0  0  0  0
  154.2046  134.4530  164.6293 H   0  0  0  0  0  0  0  0  0  0  0  0
  153.8083  134.0231  162.9758 H   0  0  0  0  0  0  0  0  0  0  0  0
  152.5767  134.7033  164.0247 H   0  0  0  0  0  0  0  0  0  0  0  0
  155.0588  137.1054  165.0594 H   0  0  0  0  0  0  0  0  0  0  0  0
  154.7261  138.5390  160.2194 H   0  0  0  0  0  0  0  0  0  0  0  0
  153.3084  139.3211  160.8645 H   0  0  0  0  0  0  0  0  0  0  0  0
  155.0856  140.4985  162.5137 H   0  0  0  0  0  0  0  0  0  0  0  0
  157.0144  139.1432  161.8229 H   0  0  0  0  0  0  0  0  0  0  0  0
  157.2944  140.8399  161.4652 H   0  0  0  0  0  0  0  0  0  0  0  0
  156.8673  139.7266  160.1669 H   0  0  0  0  0  0  0  0  0  0  0  0
  155.2608  142.2788  161.0803 H   0  0  0  0  0  0  0  0  0  0  0  0
  152.9750  141.0895  159.7429 H   0  0  0  0  0  0  0  0  0  0  0  0
  152.8522  141.4577  161.4500 H   0  0  0  0  0  0  0  0  0  0  0  0
  153.9956  143.7788  160.3982 H   0  0  0  0  0  0  0  0  0  0  0  0
  151.0077  143.1311  160.7035 H   0  0  0  0  0  0  0  0  0  0  0  0
  152.0352  143.7523  161.9756 H   0  0  0  0  0  0  0  0  0  0  0  0
  150.6755  145.5653  160.8792 H   0  0  0  0  0  0  0  0  0  0  0  0
  152.3980  145.8502  160.7479 H   0  0  0  0  0  0  0  0  0  0  0  0
  150.5883  144.6810  158.5823 H   0  0  0  0  0  0  0  0  0  0  0  0
  151.3753  146.2435  158.5443 H   0  0  0  0  0  0  0  0  0  0  0  0
  152.6097  144.5212  157.1791 H   0  0  0  0  0  0  0  0  0  0  0  0
  153.6192  145.1503  158.4660 H   0  0  0  0  0  0  0  0  0  0  0  0
  153.3057  136.3624  161.2033 H   0  0  0  0  0  0  0  0  0  0  0  0
  1  2  1  0  0  0  0
  1 18  1  0  0  0  0
  1 19  1  0  0  0  0
  1 20  1  0  0  0  0
  2 17  2  0  0  0  0
  2  3  1  0  0  0  0
  3  4  2  0  0  0  0
  3 21  1  0  0  0  0
  4  5  1  0  0  0  0
  5  6  1  0  0  0  0
  5 17  1  0  0  0  0
  6  7  1  0  0  0  0
  6 22  1  0  0  0  0
  6 23  1  0  0  0  0
  7  8  1  0  0  0  0
  7  9  1  0  0  0  0
  7 24  1  0  0  0  0
  8 25  1  0  0  0  0
  8 26  1  0  0  0  0
  8 27  1  0  0  0  0
  9 10  1  0  0  0  0
  9 28  1  0  0  0  0
 10 11  1  0  0  0  0
 10 29  1  0  0  0  0
 10 30  1  0  0  0  0
 11 16  1  0  0  0  0
 11 12  1  0  0  0  0
 11 31  1  0  0  0  0
 12 13  1  0  0  0  0
 12 32  1  0  0  0  0
 12 33  1  0  0  0  0
 13 14  1  0  0  0  0
 13 34  1  0  0  0  0
 13 35  1  0  0  0  0
 14 15  1  0  0  0  0
 14 36  1  0  0  0  0
 14 37  1  0  0  0  0
 15 16  1  0  0  0  0
 15 38  1  0  0  0  0
 15 39  1  0  0  0  0
 17 40  1  0  0  0  0
M  END
> <s_m_source_file>
AV-unprocessed.smi

> <i_m_source_file_index>
3161

> <i_lp_mmshare_version>
43012

> <i_f3d_flags>
0

> <s_epik_input>
W0NIM11jMVtjSF1ubihbY0hdMSlbQ0gyXVtDQEhdKFtDSDNdKVtOSF1bQ0gyXVtDQEBIXTJbQ0gyXVtDSDJdW0NIMl1bQ0gyXU8y

> <s_epik_cmdline>
J2VwaWtfcHl0aG9uJywgJy1waCcsICc3LjAnLCAnLXRuJywgJzgnLCAnLW1hJywgJzIwMCcsICctbWV0YWxfYmluZGluZycsICctaW1hZScsICc8aW5maWxlLm1hZT4nLCAnLW9tYWUnLCAnPG91dGZpbGUubWFlPic=

> <r_lp_tautomer_probability>
1

> <r_epik_Ionization_Penalty>
2.51986

> <r_epik_Ionization_Penalty_Charging>
0

> <r_epik_Ionization_Penalty_Neutral>
2.51986

> <r_epik_State_Penalty>
2.68614

> <r_epik_Charging_Adjusted_Penalty>
2.68614

> <i_epik_Tot_Q>
0

> <i_epik_Tot_abs_Q>
0

> <r_epik_Metal_State_Penalty>
2.68606

> <b_epik_Metal_Only>
0

> <s_lp_Force_Field>
OPLS_2005

> <r_lp_Energy>
14.6841

> <b_lp_Chiralities_Consistent>
1

> <s_lp_Variant>
AV-unprocessed.smi:3161-6

> <Gold.Version>
5.8.1

> <Gold.Id.Protein>
6NUR|6NUR_protein|mol2

> <Gold.PLP.Fitness>
42.6087

> <Gold.PLP.PLP>
-44.6370

> <Gold.PLP.part.hbond>
-0.8342

> <Gold.PLP.part.metal>
0.0000

> <Gold.PLP.part.buried>
-4.5397

> <Gold.PLP.part.nonpolar>
-39.8536

> <Gold.PLP.part.repulsive>
0.0000

> <Gold.PLP.ligand.clash>
0.0000

> <Gold.PLP.ligand.torsion>
1.0388

> <Gold.PLP.Chemscore.Hbond>
0.0000

> <Gold.PLP.Chemscore.CHOScore>
0.0000

> <Gold.PLP.Chemscore.Metal>
0.0000

> <Gold.PLP.Chemscore.Internal.Correction>
0.0492

> <Gold.Rescore>
     Score         DG    S(hbond)    S(metal)    S(lipo)     H(rot)  DE(clash)    DE(int)     intcor
     15.60     -16.61       0.00        0.00     128.00       1.50       0.05       0.96       ----

> <Gold.Chemscore.Fitness>
15.5957

> <Gold.Chemscore.DG>
-16.6084

> <Gold.Chemscore.ZeroCoef>
-5.4800

> <Gold.Chemscore.Hbond>
0.0000

> <Gold.Chemscore.Metal>
0.0000

> <Gold.Chemscore.Lipo>
128.0009

> <Gold.Chemscore.Internal_Hbond>
0.0000

> <Gold.Chemscore.DEClash>
0.0520

> <Gold.Chemscore.DEInternal>
0.9607

> <Gold.Chemscore.Rot>
1.5030

> <Gold.Chemscore.Internal.Correction>
   9.000000E+99

> <Gold.Chemscore.Hbond.Weighted>
-0.0000

> <Gold.Chemscore.Metal.Weighted>
-0.0000

> <Gold.Chemscore.Lipo.Weighted>
-14.9761

> <Gold.Chemscore.Internal_Hbond.Weighted>
0.0000

> <Gold.Chemscore.DEClash.Weighted>
0.0520

> <Gold.Chemscore.DEInternal.Weighted>
0.9607

> <Gold.Chemscore.Rot.Weighted>
3.8477

> <Gold.Chemscore.Internal.Correction.Weighted>
   9.000000E+99

> <Gold.Protein.RotatedTorsions>
[ 6907 6896 6895 6894 ] final  -49.85 input  -60.11 | X-H torsion
[ 7974 7965 7964 7962 ] final   70.35 input  175.53 | X-H torsion
[ 8008 7997 7996 7995 ] final  117.28 input   59.86 | X-H torsion
[ 10167 10162 10161 10158 ] final   32.99 input  -65.29 | X-H torsion
[ 10718 10713 10712 10709 ] final -130.12 input   66.30 | X-H torsion
[ 10763 10752 10751 10750 ] final  147.67 input  -60.55 | X-H torsion
[ 11005 11000 10999 10996 ] final  -40.28 input  -57.11 | X-H torsion

> <Gold.Protein.ActiveResidues>
 VAL166  LYS551  ARG553  GLY616  TRP617  ASP618  TYR619  PRO620  LYS621  CYS622 
 ASP623  PHE694  ASN695  SER759  ASP760  ASP761  ALA762  ILE779  LEU786  VAL792 
 PHE793  MET794  SER795  GLU796  ALA797  LYS798  CYS799  TRP800  GLU811  SER814 

> <Gold.Protein.RotatedAtoms>
  150.8764  134.8148  159.7192 H   0  0  0  0  0  0  0  0  0  0  0  0  # atno 6907 bound_to 6896
  152.4749  134.4865  159.9691 H   0  0  0  0  0  0  0  0  0  0  0  0  # atno 6908 bound_to 6896
  151.4946  133.3479  159.2894 H   0  0  0  0  0  0  0  0  0  0  0  0  # atno 6909 bound_to 6896
  145.7792  139.2879  143.1275 H   0  0  0  0  0  0  0  0  0  0  0  0  # atno 7974 bound_to 7965
  156.2485  140.2899  156.0653 H   0  0  0  0  0  0  0  0  0  0  0  0  # atno 8008 bound_to 7997
  155.1730  140.0402  157.2884 H   0  0  0  0  0  0  0  0  0  0  0  0  # atno 8009 bound_to 7997
  154.6312  140.2500  155.7438 H   0  0  0  0  0  0  0  0  0  0  0  0  # atno 8010 bound_to 7997
  140.4448  144.1134  150.6180 H   0  0  0  0  0  0  0  0  0  0  0  0  # atno 10167 bound_to 10162
  156.2113  130.6920  151.0653 H   0  0  0  0  0  0  0  0  0  0  0  0  # atno 10718 bound_to 10713
  154.0421  135.2888  155.3353 H   0  0  0  0  0  0  0  0  0  0  0  0  # atno 10763 bound_to 10752
  154.6922  135.5222  153.8411 H   0  0  0  0  0  0  0  0  0  0  0  0  # atno 10764 bound_to 10752
  153.0595  135.6608  154.0625 H   0  0  0  0  0  0  0  0  0  0  0  0  # atno 10765 bound_to 10752
  141.0163  133.6884  156.2300 H   0  0  0  0  0  0  0  0  0  0  0  0  # atno 11005 bound_to 11000
  146.0091  140.8452  142.9980 LP  0  0  0  0  0  0  0  0  0  0  0  0  # atno 17320 bound_to 7965
  144.6799  140.2464  143.7337 LP  0  0  0  0  0  0  0  0  0  0  0  0  # atno 17321 bound_to 7965
  140.4276  143.2583  151.9637 LP  0  0  0  0  0  0  0  0  0  0  0  0  # atno 17342 bound_to 10162
  139.4792  144.5774  151.7989 LP  0  0  0  0  0  0  0  0  0  0  0  0  # atno 17343 bound_to 10162
  157.7040  131.0764  150.6728 LP  0  0  0  0  0  0  0  0  0  0  0  0  # atno 17370 bound_to 10713
  156.6788  130.4561  149.5634 LP  0  0  0  0  0  0  0  0  0  0  0  0  # atno 17371 bound_to 10713
  140.6649  134.4929  157.5585 LP  0  0  0  0  0  0  0  0  0  0  0  0  # atno 17394 bound_to 11000
  139.9119  134.8327  156.1499 LP  0  0  0  0  0  0  0  0  0  0  0  0  # atno 17395 bound_to 11000

$$$$
