AV-unprocessed.smi:2848|AV-procd|sdf|10956|dock2
  -GOLD-   2272015413D 1   1.00000     0.00000
 Structure written by MMmdl.
 26 27  0  0  0  0  0  0  0  0  1 V2000
  152.8420  141.1358  160.8163 Cl  0  0  0  0  0  0  0  0  0  0  0  0
  152.0415  142.5855  160.3186 C   0  0  0  0  0  0  0  0  0  0  0  0
  151.9156  143.6595  161.2234 C   0  0  0  0  0  0  0  0  0  0  0  0
  151.3070  144.8242  160.9162 N   0  0  0  0  0  0  0  0  0  0  0  0
  150.7948  144.9561  159.6749 C   0  0  0  0  0  0  0  0  0  0  0  0
  150.8656  143.9464  158.6945 C   0  0  0  0  0  0  0  0  0  0  0  0
  151.5049  142.7260  159.0178 C   0  0  0  0  0  0  0  0  0  0  0  0
  151.6195  141.6673  158.1040 N   0  0  0  0  0  0  0  0  0  0  0  0
  151.2046  141.8315  156.7187 C   0  0  0  0  0  0  0  0  0  0  0  0
  151.2002  140.5290  155.9424 C   0  0  0  0  0  0  0  0  0  0  0  0
  150.1070  140.0033  155.3523 C   0  0  0  0  0  0  0  0  0  0  0  0
  150.1336  138.8676  154.5833 O   0  0  0  0  0  0  0  0  0  0  0  0
  151.4394  138.4483  154.2022 C   0  0  0  0  0  0  0  0  0  0  0  0
  152.4135  138.5790  155.3843 C   0  0  0  0  0  0  0  0  0  0  0  0
  152.4283  139.9122  155.8863 O   0  0  0  0  0  0  0  0  0  0  0  0
  152.3155  143.5816  162.2238 H   0  0  0  0  0  0  0  0  0  0  0  0
  150.3118  145.8966  159.4553 H   0  0  0  0  0  0  0  0  0  0  0  0
  150.4306  144.1235  157.7225 H   0  0  0  0  0  0  0  0  0  0  0  0
  152.2522  140.9103  158.3214 H   0  0  0  0  0  0  0  0  0  0  0  0
  150.1969  142.2465  156.6881 H   0  0  0  0  0  0  0  0  0  0  0  0
  151.8689  142.5411  156.2241 H   0  0  0  0  0  0  0  0  0  0  0  0
  149.1250  140.4521  155.3801 H   0  0  0  0  0  0  0  0  0  0  0  0
  151.3968  137.4160  153.8547 H   0  0  0  0  0  0  0  0  0  0  0  0
  151.7791  139.0557  153.3620 H   0  0  0  0  0  0  0  0  0  0  0  0
  152.1256  137.9006  156.1884 H   0  0  0  0  0  0  0  0  0  0  0  0
  153.4226  138.3023  155.0790 H   0  0  0  0  0  0  0  0  0  0  0  0
  1  2  1  0  0  0  0
  2  7  1  0  0  0  0
  2  3  2  0  0  0  0
  3  4  1  0  0  0  0
  3 16  1  0  0  0  0
  4  5  2  0  0  0  0
  5  6  1  0  0  0  0
  5 17  1  0  0  0  0
  6  7  2  0  0  0  0
  6 18  1  0  0  0  0
  7  8  1  0  0  0  0
  8  9  1  0  0  0  0
  8 19  1  0  0  0  0
  9 10  1  0  0  0  0
  9 20  1  0  0  0  0
  9 21  1  0  0  0  0
 10 15  1  0  0  0  0
 10 11  2  0  0  0  0
 11 12  1  0  0  0  0
 11 22  1  0  0  0  0
 12 13  1  0  0  0  0
 13 14  1  0  0  0  0
 13 23  1  0  0  0  0
 13 24  1  0  0  0  0
 14 15  1  0  0  0  0
 14 25  1  0  0  0  0
 14 26  1  0  0  0  0
M  END
> <s_m_source_file>
AV-unprocessed.smi

> <i_m_source_file_index>
2848

> <i_lp_mmshare_version>
43012

> <i_f3d_flags>
0

> <s_epik_input>
Q2xjMVtjSF1uW2NIXVtjSF1jMVtOSF1bQ0gyXUMyPVtDSF1PW0NIMl1bQ0gyXU8y

> <s_epik_cmdline>
J2VwaWtfcHl0aG9uJywgJy1waCcsICc3LjAnLCAnLXRuJywgJzgnLCAnLW1hJywgJzIwMCcsICctbWV0YWxfYmluZGluZycsICctaW1hZScsICc8aW5maWxlLm1hZT4nLCAnLW9tYWUnLCAnPG91dGZpbGUubWFlPic=

> <r_lp_tautomer_probability>
0.999999

> <r_epik_Ionization_Penalty>
1.20444

> <r_epik_Ionization_Penalty_Charging>
0

> <r_epik_Ionization_Penalty_Neutral>
1.20444

> <r_epik_State_Penalty>
1.27033

> <r_epik_Charging_Adjusted_Penalty>
1.27033

> <i_epik_Tot_Q>
0

> <i_epik_Tot_abs_Q>
0

> <r_epik_Metal_State_Penalty>
0.00444713

> <b_epik_Metal_Only>
0

> <s_lp_Force_Field>
OPLS_2005

> <r_lp_Energy>
2.57385

> <b_lp_Chiralities_Consistent>
1

> <s_lp_Variant>
AV-unprocessed.smi:2848-2

> <Gold.Version>
5.8.1

> <Gold.Id.Protein>
6NUR|6NUR_protein|mol2

> <Gold.PLP.Fitness>
37.7276

> <Gold.PLP.PLP>
-34.8243

> <Gold.PLP.part.hbond>
-1.0000

> <Gold.PLP.part.metal>
0.0000

> <Gold.PLP.part.buried>
-4.8500

> <Gold.PLP.part.nonpolar>
-27.6898

> <Gold.PLP.part.repulsive>
0.4008

> <Gold.PLP.ligand.clash>
0.0000

> <Gold.PLP.ligand.torsion>
0.0484

> <Gold.PLP.Chemscore.Hbond>
1.0000

> <Gold.PLP.Chemscore.CHOScore>
0.0000

> <Gold.PLP.Chemscore.Metal>
0.0000

> <Gold.Chemscore.Hbonds>
donor molecule, donor type, donor heavy atom, donor atom, acceptor molecule, acceptor atom, score
      P1  H  7997  8009       L1    15  1.00

> <Gold.PLP.Chemscore.Internal.Correction>
0.0000

> <Gold.Rescore>
     Score         DG    S(hbond)    S(metal)    S(lipo)     H(rot)  DE(clash)    DE(int)     intcor
     16.31     -17.89       0.97        0.00     104.59       1.19       1.44       0.13       ----

> <Gold.Chemscore.Fitness>
16.3149

> <Gold.Chemscore.DG>
-17.8874

> <Gold.Chemscore.ZeroCoef>
-5.4800

> <Gold.Chemscore.Hbond>
0.9660

> <Gold.Chemscore.Metal>
0.0000

> <Gold.Chemscore.Lipo>
104.5867

> <Gold.Chemscore.Internal_Hbond>
0.0000

> <Gold.Chemscore.DEClash>
1.4384

> <Gold.Chemscore.DEInternal>
0.1342

> <Gold.Chemscore.Rot>
1.1937

> <Gold.Chemscore.Internal.Correction>
   9.000000E+99

> <Gold.Chemscore.Hbonds>
donor molecule, donor type, donor heavy atom, donor atom, acceptor molecule, acceptor atom, score
      P1  H  7997  8009       L1    15  0.30

> <Gold.Chemscore.Hbond.Weighted>
-3.2266

> <Gold.Chemscore.Metal.Weighted>
-0.0000

> <Gold.Chemscore.Lipo.Weighted>
-12.2366

> <Gold.Chemscore.Internal_Hbond.Weighted>
0.0000

> <Gold.Chemscore.DEClash.Weighted>
1.4384

> <Gold.Chemscore.DEInternal.Weighted>
0.1342

> <Gold.Chemscore.Rot.Weighted>
3.0558

> <Gold.Chemscore.Internal.Correction.Weighted>
   9.000000E+99

> <Gold.Protein.RotatedTorsions>
[ 6907 6896 6895 6894 ] final -153.64 input  -60.11 | X-H torsion
[ 7974 7965 7964 7962 ] final   17.42 input  175.53 | X-H torsion
[ 8008 7997 7996 7995 ] final -160.82 input   59.86 | X-H torsion
[ 10167 10162 10161 10158 ] final   80.39 input  -65.29 | X-H torsion
[ 10718 10713 10712 10709 ] final  -75.90 input   66.30 | X-H torsion
[ 10763 10752 10751 10750 ] final -173.46 input  -60.55 | X-H torsion
[ 11005 11000 10999 10996 ] final -115.82 input  -57.11 | X-H torsion

> <Gold.Protein.ActiveResidues>
 VAL166  LYS551  ARG553  GLY616  TRP617  ASP618  TYR619  PRO620  LYS621  CYS622 
 ASP623  PHE694  ASN695  SER759  ASP760  ASP761  ALA762  ILE779  LEU786  VAL792 
 PHE793  MET794  SER795  GLU796  ALA797  LYS798  CYS799  TRP800  GLU811  SER814 

> <Gold.Protein.RotatedAtoms>
  151.2456  133.4376  159.2608 H   0  0  0  0  0  0  0  0  0  0  0  0  # atno 6907 bound_to 6896
  151.0665  134.9771  159.8297 H   0  0  0  0  0  0  0  0  0  0  0  0  # atno 6908 bound_to 6896
  152.5406  134.2404  159.8912 H   0  0  0  0  0  0  0  0  0  0  0  0  # atno 6909 bound_to 6896
  146.2219  139.8605  142.8605 H   0  0  0  0  0  0  0  0  0  0  0  0  # atno 7974 bound_to 7965
  155.7832  140.0868  157.2048 H   0  0  0  0  0  0  0  0  0  0  0  0  # atno 8008 bound_to 7997
  154.3989  140.1504  156.3134 H   0  0  0  0  0  0  0  0  0  0  0  0  # atno 8009 bound_to 7997
  155.8633  140.3429  155.5774 H   0  0  0  0  0  0  0  0  0  0  0  0  # atno 8010 bound_to 7997
  139.9503  144.6030  150.8167 H   0  0  0  0  0  0  0  0  0  0  0  0  # atno 10167 bound_to 10162
  156.0192  130.4452  150.3112 H   0  0  0  0  0  0  0  0  0  0  0  0  # atno 10718 bound_to 10713
  154.6076  135.2861  155.0467 H   0  0  0  0  0  0  0  0  0  0  0  0  # atno 10763 bound_to 10752
  154.1709  135.6473  153.5013 H   0  0  0  0  0  0  0  0  0  0  0  0  # atno 10764 bound_to 10752
  153.0182  135.5400  154.6818 H   0  0  0  0  0  0  0  0  0  0  0  0  # atno 10765 bound_to 10752
  141.0463  133.9757  157.2912 H   0  0  0  0  0  0  0  0  0  0  0  0  # atno 11005 bound_to 11000
  145.2709  141.0108  143.3772 LP  0  0  0  0  0  0  0  0  0  0  0  0  # atno 17320 bound_to 7965
  144.9224  139.4395  143.6534 LP  0  0  0  0  0  0  0  0  0  0  0  0  # atno 17321 bound_to 7965
  140.7585  143.3108  151.2850 LP  0  0  0  0  0  0  0  0  0  0  0  0  # atno 17342 bound_to 10162
  139.6634  144.0149  152.2707 LP  0  0  0  0  0  0  0  0  0  0  0  0  # atno 17343 bound_to 10162
  157.1214  131.0248  151.3007 LP  0  0  0  0  0  0  0  0  0  0  0  0  # atno 17370 bound_to 10713
  157.4625  130.7661  149.7249 LP  0  0  0  0  0  0  0  0  0  0  0  0  # atno 17371 bound_to 10713
  139.9314  135.0199  156.8413 LP  0  0  0  0  0  0  0  0  0  0  0  0  # atno 17394 bound_to 11000
  140.6140  134.0055  155.7589 LP  0  0  0  0  0  0  0  0  0  0  0  0  # atno 17395 bound_to 11000

$$$$
