AV-unprocessed.smi:438|AV-procd|sdf|2564|dock2
  -GOLD-   2262022533D 1   1.00000     0.00000
 Structure written by MMmdl.
 48 49  0  0  0  0  0  0  0  0  1 V2000
  147.6387  136.5322  162.7721 C   0  0  0  0  0  0  0  0  0  0  0  0
  147.7018  136.2907  161.2741 C   0  0  0  0  0  0  0  0  0  0  0  0
  148.7733  136.8979  160.6086 N   0  0  0  0  0  0  0  0  0  0  0  0
  148.9159  136.7470  159.3305 C   0  0  0  0  0  0  0  0  0  0  0  0
  150.2105  137.3924  158.2274 S   0  0  0  0  0  0  0  0  0  0  0  0
  151.1761  138.4590  159.3406 C   0  0  0  0  0  0  0  0  0  0  0  0
  151.9779  139.5145  158.5799 C   0  0  0  0  0  0  0  0  0  0  0  0
  152.8485  139.1689  157.7820 O   0  0  0  0  0  0  0  0  0  0  0  0
  151.6899  140.7952  158.8592 N   0  0  0  0  0  0  0  0  0  0  0  0
  152.3875  141.9766  158.3517 C   0  0  1  0  0  0  0  0  0  0  0  0
  151.3840  142.9148  157.6524 C   0  0  0  0  0  0  0  0  0  0  0  0
  150.4174  143.5769  158.6488 C   0  0  0  0  0  0  0  0  0  0  0  0
  151.1804  144.3178  159.7564 C   0  0  0  0  0  0  0  0  0  0  0  0
  152.1723  143.3889  160.4736 C   0  0  0  0  0  0  0  0  0  0  0  0
  153.1470  142.7190  159.4827 C   0  0  1  0  0  0  0  0  0  0  0  0
  154.1637  141.8273  160.2160 C   0  0  0  0  0  0  0  0  0  0  0  0
  148.0030  135.9828  158.6041 N   0  0  0  0  0  0  0  0  0  0  0  0
  146.9471  135.3427  159.1531 C   0  0  0  0  0  0  0  0  0  0  0  0
  146.1997  134.6638  158.4510 O   0  0  0  0  0  0  0  0  0  0  0  0
  146.7890  135.5316  160.6054 C   0  0  0  0  0  0  0  0  0  0  0  0
  145.6204  134.8327  161.2995 C   0  0  0  0  0  0  0  0  0  0  0  0
  146.0641  133.8227  162.3724 C   0  0  0  0  0  0  0  0  0  0  0  0
  144.9656  133.3699  163.1344 O   0  0  0  0  0  0  0  0  0  0  0  0
  146.6643  136.9228  163.0636 H   0  0  0  0  0  0  0  0  0  0  0  0
  148.3923  137.2549  163.0873 H   0  0  0  0  0  0  0  0  0  0  0  0
  147.8175  135.6040  163.3150 H   0  0  0  0  0  0  0  0  0  0  0  0
  151.8321  137.8610  159.9740 H   0  0  0  0  0  0  0  0  0  0  0  0
  150.4796  138.9657  160.0092 H   0  0  0  0  0  0  0  0  0  0  0  0
  150.9528  140.9678  159.5278 H   0  0  0  0  0  0  0  0  0  0  0  0
  153.1166  141.6669  157.6011 H   0  0  0  0  0  0  0  0  0  0  0  0
  151.9330  143.6919  157.1191 H   0  0  0  0  0  0  0  0  0  0  0  0
  150.8216  142.3680  156.8943 H   0  0  0  0  0  0  0  0  0  0  0  0
  149.7605  144.2707  158.1238 H   0  0  0  0  0  0  0  0  0  0  0  0
  149.7711  142.8193  159.0917 H   0  0  0  0  0  0  0  0  0  0  0  0
  151.7193  145.1623  159.3251 H   0  0  0  0  0  0  0  0  0  0  0  0
  150.4766  144.7359  160.4768 H   0  0  0  0  0  0  0  0  0  0  0  0
  152.7311  143.9603  161.2154 H   0  0  0  0  0  0  0  0  0  0  0  0
  151.6243  142.6282  161.0289 H   0  0  0  0  0  0  0  0  0  0  0  0
  153.7194  143.5169  159.0073 H   0  0  0  0  0  0  0  0  0  0  0  0
  153.6719  141.0410  160.7895 H   0  0  0  0  0  0  0  0  0  0  0  0
  154.7641  142.4122  160.9131 H   0  0  0  0  0  0  0  0  0  0  0  0
  154.8466  141.3506  159.5126 H   0  0  0  0  0  0  0  0  0  0  0  0
  148.1432  135.8826  157.6093 H   0  0  0  0  0  0  0  0  0  0  0  0
  145.0241  134.3113  160.5510 H   0  0  0  0  0  0  0  0  0  0  0  0
  144.9406  135.5672  161.7332 H   0  0  0  0  0  0  0  0  0  0  0  0
  146.5326  132.9597  161.8991 H   0  0  0  0  0  0  0  0  0  0  0  0
  146.8046  134.2614  163.0410 H   0  0  0  0  0  0  0  0  0  0  0  0
  144.2232  133.9252  162.9519 H   0  0  0  0  0  0  0  0  0  0  0  0
  1 24  1  0  0  0  0
  1 25  1  0  0  0  0
  1 26  1  0  0  0  0
  1  2  1  0  0  0  0
  2 20  2  0  0  0  0
  2  3  1  0  0  0  0
  3  4  2  0  0  0  0
  4  5  1  0  0  0  0
  4 17  1  0  0  0  0
  5  6  1  0  0  0  0
  6  7  1  0  0  0  0
  6 27  1  0  0  0  0
  6 28  1  0  0  0  0
  7  8  2  0  0  0  0
  7  9  1  0  0  0  0
  9 10  1  0  0  0  0
  9 29  1  0  0  0  0
 10 15  1  0  0  0  0
 10 11  1  0  0  0  0
 10 30  1  0  0  0  0
 11 12  1  0  0  0  0
 11 31  1  0  0  0  0
 11 32  1  0  0  0  0
 12 13  1  0  0  0  0
 12 33  1  0  0  0  0
 12 34  1  0  0  0  0
 13 14  1  0  0  0  0
 13 35  1  0  0  0  0
 13 36  1  0  0  0  0
 14 15  1  0  0  0  0
 14 37  1  0  0  0  0
 14 38  1  0  0  0  0
 15 16  1  0  0  0  0
 15 39  1  0  0  0  0
 16 40  1  0  0  0  0
 16 41  1  0  0  0  0
 16 42  1  0  0  0  0
 17 43  1  0  0  0  0
 17 18  1  0  0  0  0
 18 19  2  0  0  0  0
 18 20  1  0  0  0  0
 20 21  1  0  0  0  0
 21 22  1  0  0  0  0
 21 44  1  0  0  0  0
 21 45  1  0  0  0  0
 22 23  1  0  0  0  0
 22 46  1  0  0  0  0
 22 47  1  0  0  0  0
 23 48  1  0  0  0  0
M  END
> <s_m_source_file>
AV-unprocessed.smi

> <i_m_source_file_index>
438

> <i_lp_mmshare_version>
43012

> <i_f3d_flags>
0

> <s_epik_input>
W09IXVtDSDJdW0NIMl1jMWMoW09IXSluYyhuYzFbQ0gzXSlTW0NIMl1DKD1PKVtOSF1bQ0BASF0yW0NIMl1bQ0gyXVtDSDJdW0NIMl1bQ0BIXTJbQ0gzXQ==

> <s_epik_cmdline>
J2VwaWtfcHl0aG9uJywgJy1waCcsICc3LjAnLCAnLXRuJywgJzgnLCAnLW1hJywgJzIwMCcsICctbWV0YWxfYmluZGluZycsICctaW1hZScsICc8aW5maWxlLm1hZT4nLCAnLW9tYWUnLCAnPG91dGZpbGUubWFlPic=

> <r_lp_tautomer_probability>
0.660323

> <r_epik_Ionization_Penalty>
0.00860626

> <r_epik_Ionization_Penalty_Charging>
0.00860522

> <r_epik_Ionization_Penalty_Neutral>
1.04215e-06

> <r_epik_State_Penalty>
0.156825

> <r_epik_Charging_Adjusted_Penalty>
0.16543

> <i_epik_Tot_Q>
0

> <i_epik_Tot_abs_Q>
0

> <r_epik_Metal_State_Penalty>
0.752038

> <b_epik_Metal_Only>
0

> <s_lp_Force_Field>
OPLS_2005

> <r_lp_Energy>
10.8925

> <b_lp_Chiralities_Consistent>
1

> <s_lp_Variant>
AV-unprocessed.smi:438-2

> <Gold.Version>
5.8.1

> <Gold.Id.Protein>
6NUR|6NUR_protein|mol2

> <Gold.PLP.Fitness>
46.4371

> <Gold.PLP.PLP>
-41.8495

> <Gold.PLP.part.hbond>
-3.2553

> <Gold.PLP.part.metal>
0.0000

> <Gold.PLP.part.buried>
-6.3973

> <Gold.PLP.part.nonpolar>
-32.2894

> <Gold.PLP.part.repulsive>
0.2101

> <Gold.PLP.ligand.clash>
0.0000

> <Gold.PLP.ligand.torsion>
0.2039

> <Gold.PLP.Chemscore.Hbond>
1.6406

> <Gold.PLP.Chemscore.CHOScore>
0.0000

> <Gold.PLP.Chemscore.Metal>
0.0000

> <Gold.Chemscore.Hbonds>
donor molecule, donor type, donor heavy atom, donor atom, acceptor molecule, acceptor atom, score
      P1  H  6931  6943       L1     3  0.67
      P1  H  7997  8009       L1     8  0.93

> <Gold.PLP.Chemscore.Internal.Correction>
0.0736

> <Gold.Rescore>
     Score         DG    S(hbond)    S(metal)    S(lipo)     H(rot)  DE(clash)    DE(int)     intcor
     15.31     -15.63       1.01        0.00     120.62       2.86       0.01       0.30       ----

> <Gold.Chemscore.Fitness>
15.3113

> <Gold.Chemscore.DG>
-15.6286

> <Gold.Chemscore.ZeroCoef>
-5.4800

> <Gold.Chemscore.Hbond>
1.0089

> <Gold.Chemscore.Metal>
0.0000

> <Gold.Chemscore.Lipo>
120.6156

> <Gold.Chemscore.Internal_Hbond>
0.0000

> <Gold.Chemscore.DEClash>
0.0144

> <Gold.Chemscore.DEInternal>
0.3028

> <Gold.Chemscore.Rot>
2.8645

> <Gold.Chemscore.Internal.Correction>
   9.000000E+99

> <Gold.Chemscore.Hbonds>
donor molecule, donor type, donor heavy atom, donor atom, acceptor molecule, acceptor atom, score
      P1  H  6931  6943       L1     3  0.10
      P1  H  7997  8009       L1     8  0.89

> <Gold.Chemscore.Hbond.Weighted>
-3.3697

> <Gold.Chemscore.Metal.Weighted>
-0.0000

> <Gold.Chemscore.Lipo.Weighted>
-14.1120

> <Gold.Chemscore.Internal_Hbond.Weighted>
0.0000

> <Gold.Chemscore.DEClash.Weighted>
0.0144

> <Gold.Chemscore.DEInternal.Weighted>
0.3028

> <Gold.Chemscore.Rot.Weighted>
7.3331

> <Gold.Chemscore.Internal.Correction.Weighted>
   9.000000E+99

> <Gold.Protein.RotatedTorsions>
[ 6907 6896 6895 6894 ] final -101.88 input  -60.11 | X-H torsion
[ 7974 7965 7964 7962 ] final   70.69 input  175.53 | X-H torsion
[ 8008 7997 7996 7995 ] final  166.48 input   59.86 | X-H torsion
[ 10167 10162 10161 10158 ] final  -69.16 input  -65.29 | X-H torsion
[ 10718 10713 10712 10709 ] final  -65.49 input   66.30 | X-H torsion
[ 10763 10752 10751 10750 ] final  179.19 input  -60.55 | X-H torsion
[ 11005 11000 10999 10996 ] final   22.70 input  -57.11 | X-H torsion

> <Gold.Protein.ActiveResidues>
 VAL166  LYS551  ARG553  GLY616  TRP617  ASP618  TYR619  PRO620  LYS621  CYS622 
 ASP623  PHE694  ASN695  SER759  ASP760  ASP761  ALA762  ILE779  LEU786  VAL792 
 PHE793  MET794  SER795  GLU796  ALA797  LYS798  CYS799  TRP800  GLU811  SER814 

> <Gold.Protein.RotatedAtoms>
  150.7173  134.0666  159.3849 H   0  0  0  0  0  0  0  0  0  0  0  0  # atno 6907 bound_to 6896
  151.8647  135.0509  160.0482 H   0  0  0  0  0  0  0  0  0  0  0  0  # atno 6908 bound_to 6896
  152.2690  133.5329  159.5464 H   0  0  0  0  0  0  0  0  0  0  0  0  # atno 6909 bound_to 6896
  145.7751  139.2861  143.1298 H   0  0  0  0  0  0  0  0  0  0  0  0  # atno 7974 bound_to 7965
  156.1714  140.1642  156.8440 H   0  0  0  0  0  0  0  0  0  0  0  0  # atno 8008 bound_to 7997
  154.5261  140.0767  156.8295 H   0  0  0  0  0  0  0  0  0  0  0  0  # atno 8009 bound_to 7997
  155.3503  140.3389  155.4241 H   0  0  0  0  0  0  0  0  0  0  0  0  # atno 8010 bound_to 7997
  140.5452  143.2313  151.7016 H   0  0  0  0  0  0  0  0  0  0  0  0  # atno 10167 bound_to 10162
  156.0667  130.4248  150.1571 H   0  0  0  0  0  0  0  0  0  0  0  0  # atno 10718 bound_to 10713
  154.5175  135.2792  155.1291 H   0  0  0  0  0  0  0  0  0  0  0  0  # atno 10763 bound_to 10752
  154.2861  135.6276  153.5370 H   0  0  0  0  0  0  0  0  0  0  0  0  # atno 10764 bound_to 10752
  152.9930  135.5663  154.5656 H   0  0  0  0  0  0  0  0  0  0  0  0  # atno 10765 bound_to 10752
  140.3777  134.1954  155.7664 H   0  0  0  0  0  0  0  0  0  0  0  0  # atno 11005 bound_to 11000
  146.0131  140.8417  142.9961 LP  0  0  0  0  0  0  0  0  0  0  0  0  # atno 17320 bound_to 7965
  144.6806  140.2518  143.7330 LP  0  0  0  0  0  0  0  0  0  0  0  0  # atno 17321 bound_to 7965
  139.5004  144.3906  152.0283 LP  0  0  0  0  0  0  0  0  0  0  0  0  # atno 17342 bound_to 10162
  140.3018  144.3637  150.6058 LP  0  0  0  0  0  0  0  0  0  0  0  0  # atno 17343 bound_to 10162
  156.9630  130.9811  151.3475 LP  0  0  0  0  0  0  0  0  0  0  0  0  # atno 17370 bound_to 10713
  157.5712  130.8312  149.8395 LP  0  0  0  0  0  0  0  0  0  0  0  0  # atno 17371 bound_to 10713
  141.1934  133.8152  157.0801 LP  0  0  0  0  0  0  0  0  0  0  0  0  # atno 17394 bound_to 11000
  140.0502  134.9809  157.1123 LP  0  0  0  0  0  0  0  0  0  0  0  0  # atno 17395 bound_to 11000

$$$$
