AV-unprocessed.smi:49|AV-procd|sdf|472|dock1
  -GOLD-   2262016333D 1   1.00000     0.00000
 Structure written by MMmdl.
 27 28  0  0  0  0  0  0  0  0  1 V2000
  154.1402  141.7452  160.0672 C   0  0  0  0  0  0  0  0  0  0  0  0
  152.7828  141.0342  160.0775 C   0  0  0  0  0  0  0  0  0  0  0  0
  152.2005  140.8908  158.7097 C   0  0  0  0  0  0  0  0  0  0  0  0
  152.7760  140.2535  157.6959 N   0  0  0  0  0  0  0  0  0  0  0  0
  151.8232  140.4218  156.7295 C   0  0  0  0  0  0  0  0  0  0  0  0
  151.9662  139.8314  155.3598 C   0  0  1  0  0  0  0  0  0  0  0  0
  152.3064  138.3348  155.3976 C   0  0  0  0  0  0  0  0  0  0  0  0
  151.7059  137.8230  154.0963 C   0  0  1  0  0  0  0  0  0  0  0  0
  151.4451  136.4358  154.1182 O   0  0  0  0  0  0  0  0  0  0  0  0
  150.4303  138.6530  153.9873 C   0  0  0  0  0  0  0  0  0  0  0  0
  150.7700  139.9708  154.5181 N   0  0  0  0  0  0  0  0  0  0  0  0
  150.7263  141.0829  157.1032 N   0  0  0  0  0  0  0  0  0  0  0  0
  151.0018  141.3819  158.3897 N   0  0  0  0  0  0  0  0  0  0  0  0
  152.7871  140.3462  154.8588 H   0  0  0  0  0  0  0  0  0  0  0  0
  152.3722  138.0531  153.2637 H   0  0  0  0  0  0  0  0  0  0  0  0
  150.3660  141.8918  158.9862 H   0  0  0  0  0  0  0  0  0  0  0  0
  154.5403  141.8337  161.0773 H   0  0  0  0  0  0  0  0  0  0  0  0
  154.0540  142.7506  159.6539 H   0  0  0  0  0  0  0  0  0  0  0  0
  154.8667  141.1971  159.4667 H   0  0  0  0  0  0  0  0  0  0  0  0
  152.8850  140.0457  160.5270 H   0  0  0  0  0  0  0  0  0  0  0  0
  152.0786  141.5875  160.6998 H   0  0  0  0  0  0  0  0  0  0  0  0
  153.3751  138.1411  155.4924 H   0  0  0  0  0  0  0  0  0  0  0  0
  151.8037  137.8571  156.2409 H   0  0  0  0  0  0  0  0  0  0  0  0
  151.2274  136.1570  153.2419 H   0  0  0  0  0  0  0  0  0  0  0  0
  150.0512  138.7096  152.9667 H   0  0  0  0  0  0  0  0  0  0  0  0
  149.6493  138.2088  154.6062 H   0  0  0  0  0  0  0  0  0  0  0  0
  150.9956  140.5843  153.7419 H   0  0  0  0  0  0  0  0  0  0  0  0
  1  2  1  0  0  0  0
  1 17  1  0  0  0  0
  1 18  1  0  0  0  0
  1 19  1  0  0  0  0
  2  3  1  0  0  0  0
  2 20  1  0  0  0  0
  2 21  1  0  0  0  0
  3 13  1  0  0  0  0
  3  4  2  0  0  0  0
  4  5  1  0  0  0  0
  5  6  1  0  0  0  0
  5 12  2  0  0  0  0
  6 14  1  0  0  0  0
  6 11  1  0  0  0  0
  6  7  1  0  0  0  0
  7  8  1  0  0  0  0
  7 22  1  0  0  0  0
  7 23  1  0  0  0  0
  8 15  1  0  0  0  0
  8  9  1  0  0  0  0
  8 10  1  0  0  0  0
  9 24  1  0  0  0  0
 10 11  1  0  0  0  0
 10 25  1  0  0  0  0
 10 26  1  0  0  0  0
 11 27  1  0  0  0  0
 12 13  1  0  0  0  0
 13 16  1  0  0  0  0
M  END
> <s_m_source_file>
AV-unprocessed.smi

> <i_m_source_file_index>
49

> <i_lp_mmshare_version>
43012

> <i_f3d_flags>
0

> <s_epik_input>
W0NIM11bQ0gyXWMxbmMobltuSF0xKVtDQEBIXTJbQ0gyXVtDQEBIXShbT0hdKVtDSDJdW05IXTI=

> <s_epik_cmdline>
J2VwaWtfcHl0aG9uJywgJy1waCcsICc3LjAnLCAnLXRuJywgJzgnLCAnLW1hJywgJzIwMCcsICctbWV0YWxfYmluZGluZycsICctaW1hZScsICc8aW5maWxlLm1hZT4nLCAnLW9tYWUnLCAnPG91dGZpbGUubWFlPic=

> <r_lp_tautomer_probability>
0.948284

> <r_epik_Ionization_Penalty>
1.6657

> <r_epik_Ionization_Penalty_Charging>
0

> <r_epik_Ionization_Penalty_Neutral>
1.6657

> <r_epik_State_Penalty>
2.01417

> <r_epik_Charging_Adjusted_Penalty>
2.01417

> <i_epik_Tot_Q>
0

> <i_epik_Tot_abs_Q>
0

> <r_epik_Metal_State_Penalty>
2.28256

> <b_epik_Metal_Only>
0

> <s_lp_Force_Field>
OPLS_2005

> <r_lp_Energy>
18.9273

> <b_lp_Chiralities_Consistent>
1

> <s_lp_Variant>
AV-unprocessed.smi:49-10

> <Gold.Version>
5.8.1

> <Gold.Id.Protein>
6NUR|6NUR_protein|mol2

> <Gold.PLP.Fitness>
35.2735

> <Gold.PLP.PLP>
-26.4667

> <Gold.PLP.part.hbond>
-4.2576

> <Gold.PLP.part.metal>
0.0000

> <Gold.PLP.part.buried>
-1.7343

> <Gold.PLP.part.nonpolar>
-19.9598

> <Gold.PLP.part.repulsive>
0.1595

> <Gold.PLP.ligand.clash>
0.0000

> <Gold.PLP.ligand.torsion>
0.0937

> <Gold.PLP.Chemscore.Hbond>
2.9920

> <Gold.PLP.Chemscore.CHOScore>
0.0000

> <Gold.PLP.Chemscore.Metal>
0.0000

> <Gold.Chemscore.Hbonds>
donor molecule, donor type, donor heavy atom, donor atom, acceptor molecule, acceptor atom, score
      L1  H     9    24       P1  7949  1.00
      P1  H  7997  8008       L1     4  0.98
      P1  H 10752 10763       L1     9  1.00

> <Gold.PLP.Chemscore.Internal.Correction>
0.0182

> <Gold.Rescore>
     Score         DG    S(hbond)    S(metal)    S(lipo)     H(rot)  DE(clash)    DE(int)     intcor
     14.41     -14.86       2.40        0.00      52.31       1.86       0.41       0.05       ----

> <Gold.Chemscore.Fitness>
14.4065

> <Gold.Chemscore.DG>
-14.8582

> <Gold.Chemscore.ZeroCoef>
-5.4800

> <Gold.Chemscore.Hbond>
2.3978

> <Gold.Chemscore.Metal>
0.0000

> <Gold.Chemscore.Lipo>
52.3104

> <Gold.Chemscore.Internal_Hbond>
0.0000

> <Gold.Chemscore.DEClash>
0.4058

> <Gold.Chemscore.DEInternal>
0.0459

> <Gold.Chemscore.Rot>
1.8558

> <Gold.Chemscore.Internal.Correction>
   9.000000E+99

> <Gold.Chemscore.Hbonds>
donor molecule, donor type, donor heavy atom, donor atom, acceptor molecule, acceptor atom, score
      L1  H     9    24       P1  7949  0.50
      P1  H  7997  8008       L1     4  0.56
      P1  H 10752 10763       L1     9  0.20

> <Gold.Chemscore.Hbond.Weighted>
-8.0086

> <Gold.Chemscore.Metal.Weighted>
-0.0000

> <Gold.Chemscore.Lipo.Weighted>
-6.1203

> <Gold.Chemscore.Internal_Hbond.Weighted>
0.0000

> <Gold.Chemscore.DEClash.Weighted>
0.4058

> <Gold.Chemscore.DEInternal.Weighted>
0.0459

> <Gold.Chemscore.Rot.Weighted>
4.7507

> <Gold.Chemscore.Internal.Correction.Weighted>
   9.000000E+99

> <Gold.Protein.RotatedTorsions>
[ 6907 6896 6895 6894 ] final   79.27 input  -60.11 | X-H torsion
[ 7974 7965 7964 7962 ] final   81.12 input  175.53 | X-H torsion
[ 8008 7997 7996 7995 ] final  -69.66 input   59.86 | X-H torsion
[ 10167 10162 10161 10158 ] final  -15.05 input  -65.29 | X-H torsion
[ 10718 10713 10712 10709 ] final   58.43 input   66.30 | X-H torsion
[ 10763 10752 10751 10750 ] final   47.20 input  -60.55 | X-H torsion
[ 11005 11000 10999 10996 ] final  -44.97 input  -57.11 | X-H torsion

> <Gold.Protein.ActiveResidues>
 VAL166  LYS551  ARG553  GLY616  TRP617  ASP618  TYR619  PRO620  LYS621  CYS622 
 ASP623  PHE694  ASN695  SER759  ASP760  ASP761  ALA762  ILE779  LEU786  VAL792 
 PHE793  MET794  SER795  GLU796  ALA797  LYS798  CYS799  TRP800  GLU811  SER814 

> <Gold.Protein.RotatedAtoms>
  152.5192  134.3537  159.9259 H   0  0  0  0  0  0  0  0  0  0  0  0  # atno 6907 bound_to 6896
  151.3488  133.3927  159.2686 H   0  0  0  0  0  0  0  0  0  0  0  0  # atno 6908 bound_to 6896
  150.9743  134.9129  159.7865 H   0  0  0  0  0  0  0  0  0  0  0  0  # atno 6909 bound_to 6896
  145.6423  139.2428  143.2024 H   0  0  0  0  0  0  0  0  0  0  0  0  # atno 7974 bound_to 7965
  154.4955  140.0849  156.7687 H   0  0  0  0  0  0  0  0  0  0  0  0  # atno 8008 bound_to 7997
  155.4127  140.3442  155.4247 H   0  0  0  0  0  0  0  0  0  0  0  0  # atno 8009 bound_to 7997
  156.1388  140.1523  156.8941 H   0  0  0  0  0  0  0  0  0  0  0  0  # atno 8010 bound_to 7997
  140.7212  143.5258  150.9579 H   0  0  0  0  0  0  0  0  0  0  0  0  # atno 10167 bound_to 10162
  157.5595  130.8825  149.9089 H   0  0  0  0  0  0  0  0  0  0  0  0  # atno 10718 bound_to 10713
  152.9802  135.5984  154.3724 H   0  0  0  0  0  0  0  0  0  0  0  0  # atno 10763 bound_to 10752
  154.3396  135.2768  155.2431 H   0  0  0  0  0  0  0  0  0  0  0  0  # atno 10764 bound_to 10752
  154.4519  135.5987  153.6252 H   0  0  0  0  0  0  0  0  0  0  0  0  # atno 10765 bound_to 10752
  141.0485  133.6752  156.2947 H   0  0  0  0  0  0  0  0  0  0  0  0  # atno 11005 bound_to 11000
  146.1271  140.7234  142.9430 LP  0  0  0  0  0  0  0  0  0  0  0  0  # atno 17320 bound_to 7965
  144.7153  140.4187  143.7049 LP  0  0  0  0  0  0  0  0  0  0  0  0  # atno 17321 bound_to 7965
  139.8977  143.6875  152.3136 LP  0  0  0  0  0  0  0  0  0  0  0  0  # atno 17342 bound_to 10162
  139.7213  144.7602  151.0951 LP  0  0  0  0  0  0  0  0  0  0  0  0  # atno 17343 bound_to 10162
  156.0650  130.3693  150.0899 LP  0  0  0  0  0  0  0  0  0  0  0  0  # atno 17370 bound_to 10713
  156.9064  130.9637  151.3569 LP  0  0  0  0  0  0  0  0  0  0  0  0  # atno 17371 bound_to 10713
  140.6101  134.5467  157.5532 LP  0  0  0  0  0  0  0  0  0  0  0  0  # atno 17394 bound_to 11000
  139.9331  134.7926  156.0876 LP  0  0  0  0  0  0  0  0  0  0  0  0  # atno 17395 bound_to 11000

$$$$
