AV-unprocessed.smi:1679|AV-procd|sdf|6731|dock3
  -GOLD-   22720 7473D 1   1.00000     0.00000
 Structure written by MMmdl.
 45 46  0  0  0  0  0  0  0  0  1 V2000
  153.6809  141.0878  160.1618 C   0  0  0  0  0  0  0  0  0  0  0  0
  153.2032  142.5453  160.2542 C   0  0  2  0  0  0  0  0  0  0  0  0
  152.3180  142.7809  161.4967 C   0  0  0  0  0  0  0  0  0  0  0  0
  151.8728  144.2478  161.6058 C   0  0  0  0  0  0  0  0  0  0  0  0
  151.1793  144.7184  160.3191 C   0  0  0  0  0  0  0  0  0  0  0  0
  152.0668  144.4856  159.0868 C   0  0  0  0  0  0  0  0  0  0  0  0
  152.4830  143.0036  158.9659 C   0  0  2  0  0  0  0  0  0  0  0  0
  151.3450  142.1686  158.7880 O   0  0  0  0  0  0  0  0  0  0  0  0
  150.4346  142.5656  157.7743 C   0  0  0  0  0  0  0  0  0  0  0  0
  151.0549  142.2540  156.4028 C   0  0  0  0  0  0  0  0  0  0  0  0
  150.0365  142.1311  155.3634 N   0  0  0  0  0  0  0  0  0  0  0  0
  149.8684  141.0626  154.5678 C   0  0  0  0  0  0  0  0  0  0  0  0
  150.6013  140.0743  154.6071 O   0  0  0  0  0  0  0  0  0  0  0  0
  148.7135  141.1293  153.5582 C   0  0  0  0  0  0  0  0  0  0  0  0
  147.5000  141.7204  154.1418 N   0  0  0  0  0  0  0  0  0  0  0  0
  146.7596  142.6386  153.4103 C   0  0  0  0  0  0  0  0  0  0  0  0
  145.6519  143.2550  153.8859 C   0  0  0  0  0  0  0  0  0  0  0  0
  145.1704  142.9716  155.2331 C   0  0  0  0  0  0  0  0  0  0  0  0
  144.1845  143.4852  155.7564 O   0  0  0  0  0  0  0  0  0  0  0  0
  145.9343  142.0357  155.9346 N   0  0  0  0  0  0  0  0  0  0  0  0
  147.0744  141.3933  155.4487 C   0  0  0  0  0  0  0  0  0  0  0  0
  147.6706  140.5802  156.1535 O   0  0  0  0  0  0  0  0  0  0  0  0
  145.6387  141.8052  156.8721 H   0  0  0  0  0  0  0  0  0  0  0  0
  152.8427  140.3979  160.0597 H   0  0  0  0  0  0  0  0  0  0  0  0
  154.2377  140.8016  161.0540 H   0  0  0  0  0  0  0  0  0  0  0  0
  154.3372  140.9439  159.3034 H   0  0  0  0  0  0  0  0  0  0  0  0
  154.0957  143.1626  160.3674 H   0  0  0  0  0  0  0  0  0  0  0  0
  151.4383  142.1374  161.4548 H   0  0  0  0  0  0  0  0  0  0  0  0
  152.8596  142.4982  162.3998 H   0  0  0  0  0  0  0  0  0  0  0  0
  151.2009  144.3692  162.4558 H   0  0  0  0  0  0  0  0  0  0  0  0
  152.7400  144.8787  161.8040 H   0  0  0  0  0  0  0  0  0  0  0  0
  150.2442  144.1744  160.1923 H   0  0  0  0  0  0  0  0  0  0  0  0
  150.9173  145.7733  160.4006 H   0  0  0  0  0  0  0  0  0  0  0  0
  151.5531  144.8264  158.1890 H   0  0  0  0  0  0  0  0  0  0  0  0
  152.9617  145.1039  159.1676 H   0  0  0  0  0  0  0  0  0  0  0  0
  153.1604  142.8806  158.1192 H   0  0  0  0  0  0  0  0  0  0  0  0
  149.4756  142.0571  157.8707 H   0  0  0  0  0  0  0  0  0  0  0  0
  150.2465  143.6365  157.8601 H   0  0  0  0  0  0  0  0  0  0  0  0
  151.7212  143.0671  156.1145 H   0  0  0  0  0  0  0  0  0  0  0  0
  151.6703  141.3543  156.4532 H   0  0  0  0  0  0  0  0  0  0  0  0
  149.3996  142.9070  155.2560 H   0  0  0  0  0  0  0  0  0  0  0  0
  149.0169  141.6962  152.6759 H   0  0  0  0  0  0  0  0  0  0  0  0
  148.5139  140.1212  153.1908 H   0  0  0  0  0  0  0  0  0  0  0  0
  147.0857  142.8896  152.4110 H   0  0  0  0  0  0  0  0  0  0  0  0
  145.1241  143.9679  153.2690 H   0  0  0  0  0  0  0  0  0  0  0  0
  1  2  1  0  0  0  0
  1 24  1  0  0  0  0
  1 25  1  0  0  0  0
  1 26  1  0  0  0  0
  2  7  1  0  0  0  0
  2  3  1  0  0  0  0
  2 27  1  0  0  0  0
  3  4  1  0  0  0  0
  3 28  1  0  0  0  0
  3 29  1  0  0  0  0
  4  5  1  0  0  0  0
  4 30  1  0  0  0  0
  4 31  1  0  0  0  0
  5  6  1  0  0  0  0
  5 32  1  0  0  0  0
  5 33  1  0  0  0  0
  6  7  1  0  0  0  0
  6 34  1  0  0  0  0
  6 35  1  0  0  0  0
  7  8  1  0  0  0  0
  7 36  1  0  0  0  0
  8  9  1  0  0  0  0
  9 10  1  0  0  0  0
  9 37  1  0  0  0  0
  9 38  1  0  0  0  0
 10 11  1  0  0  0  0
 10 39  1  0  0  0  0
 10 40  1  0  0  0  0
 11 12  1  0  0  0  0
 11 41  1  0  0  0  0
 12 13  2  0  0  0  0
 12 14  1  0  0  0  0
 14 15  1  0  0  0  0
 14 42  1  0  0  0  0
 14 43  1  0  0  0  0
 15 21  1  0  0  0  0
 15 16  1  0  0  0  0
 16 17  2  0  0  0  0
 16 44  1  0  0  0  0
 17 18  1  0  0  0  0
 17 45  1  0  0  0  0
 18 19  2  0  0  0  0
 18 20  1  0  0  0  0
 20 23  1  0  0  0  0
 20 21  1  0  0  0  0
 21 22  2  0  0  0  0
M  END
> <s_m_source_file>
AV-unprocessed.smi

> <i_m_source_file_index>
1679

> <i_lp_mmshare_version>
43012

> <i_f3d_flags>
0

> <s_epik_input>
W0NIM11bQ0BASF0xW0NIMl1bQ0gyXVtDSDJdW0NIMl1bQ0BIXTFPW0NIMl1bQ0gyXVtOSF1DKD1PKVtDSDJdbjJbY0hdW2NIXWMoPU8pW25IXWMyPU8=

> <s_epik_cmdline>
J2VwaWtfcHl0aG9uJywgJy1waCcsICc3LjAnLCAnLXRuJywgJzgnLCAnLW1hJywgJzIwMCcsICctbWV0YWxfYmluZGluZycsICctaW1hZScsICc8aW5maWxlLm1hZT4nLCAnLW9tYWUnLCAnPG91dGZpbGUubWFlPic=

> <r_lp_tautomer_probability>
0.999537

> <r_epik_Ionization_Penalty>
0.0033132

> <r_epik_Ionization_Penalty_Charging>
0.00331317

> <r_epik_Ionization_Penalty_Neutral>
2.78599e-08

> <r_epik_State_Penalty>
0.002342

> <r_epik_Charging_Adjusted_Penalty>
0.00565517

> <i_epik_Tot_Q>
0

> <i_epik_Tot_abs_Q>
0

> <r_epik_Metal_State_Penalty>
0.365595

> <b_epik_Metal_Only>
0

> <s_lp_Force_Field>
OPLS_2005

> <r_lp_Energy>
9.94053

> <b_lp_Chiralities_Consistent>
1

> <s_lp_Variant>
AV-unprocessed.smi:1679-3

> <Gold.Version>
5.8.1

> <Gold.Id.Protein>
6NUR|6NUR_protein|mol2

> <Gold.PLP.Fitness>
58.1895

> <Gold.PLP.PLP>
-53.5578

> <Gold.PLP.part.hbond>
-2.0000

> <Gold.PLP.part.metal>
0.0000

> <Gold.PLP.part.buried>
-5.2884

> <Gold.PLP.part.nonpolar>
-45.3552

> <Gold.PLP.part.repulsive>
0.3609

> <Gold.PLP.ligand.clash>
0.0000

> <Gold.PLP.ligand.torsion>
0.7267

> <Gold.PLP.Chemscore.Hbond>
2.0000

> <Gold.PLP.Chemscore.CHOScore>
0.0000

> <Gold.PLP.Chemscore.Metal>
0.0000

> <Gold.Chemscore.Hbonds>
donor molecule, donor type, donor heavy atom, donor atom, acceptor molecule, acceptor atom, score
      L1  H    11    41       P1  8028  1.00
      P1  H  7989  7998       L1    13  0.40

> <Gold.PLP.Chemscore.Internal.Correction>
0.0851

> <Gold.Rescore>
     Score         DG    S(hbond)    S(metal)    S(lipo)     H(rot)  DE(clash)    DE(int)     intcor
     16.16     -18.32       1.61        0.00     118.78       2.52       0.23       1.93       ----

> <Gold.Chemscore.Fitness>
16.1577

> <Gold.Chemscore.DG>
-18.3203

> <Gold.Chemscore.ZeroCoef>
-5.4800

> <Gold.Chemscore.Hbond>
1.6137

> <Gold.Chemscore.Metal>
0.0000

> <Gold.Chemscore.Lipo>
118.7844

> <Gold.Chemscore.Internal_Hbond>
0.0000

> <Gold.Chemscore.DEClash>
0.2295

> <Gold.Chemscore.DEInternal>
1.9330

> <Gold.Chemscore.Rot>
2.5185

> <Gold.Chemscore.Internal.Correction>
   9.000000E+99

> <Gold.Chemscore.Hbonds>
donor molecule, donor type, donor heavy atom, donor atom, acceptor molecule, acceptor atom, score
      L1  H    11    41       P1  8028  0.95
      P1  H  7989  7998       L1    13  0.01

> <Gold.Chemscore.Hbond.Weighted>
-5.3897

> <Gold.Chemscore.Metal.Weighted>
-0.0000

> <Gold.Chemscore.Lipo.Weighted>
-13.8978

> <Gold.Chemscore.Internal_Hbond.Weighted>
0.0000

> <Gold.Chemscore.DEClash.Weighted>
0.2295

> <Gold.Chemscore.DEInternal.Weighted>
1.9330

> <Gold.Chemscore.Rot.Weighted>
6.4472

> <Gold.Chemscore.Internal.Correction.Weighted>
   9.000000E+99

> <Gold.Protein.RotatedTorsions>
[ 6907 6896 6895 6894 ] final  164.58 input  -60.11 | X-H torsion
[ 7974 7965 7964 7962 ] final   12.24 input  175.53 | X-H torsion
[ 8008 7997 7996 7995 ] final    8.64 input   59.86 | X-H torsion
[ 10167 10162 10161 10158 ] final -161.59 input  -65.29 | X-H torsion
[ 10718 10713 10712 10709 ] final -147.72 input   66.30 | X-H torsion
[ 10763 10752 10751 10750 ] final  -97.09 input  -60.55 | X-H torsion
[ 11005 11000 10999 10996 ] final -147.85 input  -57.11 | X-H torsion

> <Gold.Protein.ActiveResidues>
 VAL166  LYS551  ARG553  GLY616  TRP617  ASP618  TYR619  PRO620  LYS621  CYS622 
 ASP623  PHE694  ASN695  SER759  ASP760  ASP761  ALA762  ILE779  LEU786  VAL792 
 PHE793  MET794  SER795  GLU796  ALA797  LYS798  CYS799  TRP800  GLU811  SER814 

> <Gold.Protein.RotatedAtoms>
  151.9077  133.3553  159.3852 H   0  0  0  0  0  0  0  0  0  0  0  0  # atno 6907 bound_to 6896
  150.7065  134.4764  159.5459 H   0  0  0  0  0  0  0  0  0  0  0  0  # atno 6908 bound_to 6896
  152.2364  134.8272  160.0517 H   0  0  0  0  0  0  0  0  0  0  0  0  # atno 6909 bound_to 6896
  146.2355  139.9366  142.8489 H   0  0  0  0  0  0  0  0  0  0  0  0  # atno 7974 bound_to 7965
  154.7694  140.2799  155.6150 H   0  0  0  0  0  0  0  0  0  0  0  0  # atno 8008 bound_to 7997
  156.2931  140.2644  156.2421 H   0  0  0  0  0  0  0  0  0  0  0  0  # atno 8009 bound_to 7997
  154.9918  140.0373  157.2312 H   0  0  0  0  0  0  0  0  0  0  0  0  # atno 8010 bound_to 7997
  139.6454  144.0181  152.2123 H   0  0  0  0  0  0  0  0  0  0  0  0  # atno 10167 bound_to 10162
  156.4111  130.7982  151.2199 H   0  0  0  0  0  0  0  0  0  0  0  0  # atno 10718 bound_to 10713
  154.7298  135.5059  153.8945 H   0  0  0  0  0  0  0  0  0  0  0  0  # atno 10763 bound_to 10752
  153.0938  135.6667  153.9810 H   0  0  0  0  0  0  0  0  0  0  0  0  # atno 10764 bound_to 10752
  153.9614  135.3047  155.3412 H   0  0  0  0  0  0  0  0  0  0  0  0  # atno 10765 bound_to 10752
  140.7674  134.3228  157.5085 H   0  0  0  0  0  0  0  0  0  0  0  0  # atno 11005 bound_to 11000
  145.1992  140.9847  143.4165 LP  0  0  0  0  0  0  0  0  0  0  0  0  # atno 17320 bound_to 7965
  144.9788  139.3804  143.6272 LP  0  0  0  0  0  0  0  0  0  0  0  0  # atno 17321 bound_to 7965
  139.9882  144.6380  150.7838 LP  0  0  0  0  0  0  0  0  0  0  0  0  # atno 17342 bound_to 10162
  140.7512  143.2968  151.3183 LP  0  0  0  0  0  0  0  0  0  0  0  0  # atno 17343 bound_to 10162
  157.7507  131.0257  150.3932 LP  0  0  0  0  0  0  0  0  0  0  0  0  # atno 17370 bound_to 10713
  156.4230  130.3956  149.6812 LP  0  0  0  0  0  0  0  0  0  0  0  0  # atno 17371 bound_to 10713
  139.8761  134.9239  156.3338 LP  0  0  0  0  0  0  0  0  0  0  0  0  # atno 17394 bound_to 11000
  140.9606  133.7391  156.0396 LP  0  0  0  0  0  0  0  0  0  0  0  0  # atno 17395 bound_to 11000

$$$$
