AV-unprocessed.smi:2547|AV-procd|sdf|10003|dock9
  -GOLD-   2272014 53D 1   1.00000     0.00000
 Structure written by MMmdl.
 45 46  0  0  0  0  0  0  0  0  3 V2000
  146.8256  138.6113  151.9406 C   0  0  0  0  0  0  0  0  0  0  0  0
  147.5540  139.5755  152.7926 N   0  3  2  0  0  0  0  0  0  0  0  0
  148.2039  138.9225  153.9561 C   0  0  0  0  0  0  0  0  0  0  0  0
  149.0549  139.9275  154.7510 C   0  0  0  0  0  0  0  0  0  0  0  0
  148.2134  141.1326  155.2024 C   0  0  1  0  0  0  0  0  0  0  0  0
  149.0633  142.1059  155.8827 N   0  0  0  0  0  0  0  0  0  0  0  0
  149.7033  141.8924  157.0416 C   0  0  0  0  0  0  0  0  0  0  0  0
  149.6352  140.8357  157.6690 O   0  0  0  0  0  0  0  0  0  0  0  0
  150.3965  142.9785  157.4251 N   0  0  0  0  0  0  0  0  0  0  0  0
  151.1952  143.1405  158.5880 C   0  0  0  0  0  0  0  0  0  0  0  0
  151.2397  144.3240  159.3629 C   0  0  0  0  0  0  0  0  0  0  0  0
  152.0557  144.3679  160.5096 C   0  0  0  0  0  0  0  0  0  0  0  0
  152.8073  143.2326  160.8709 C   0  0  0  0  0  0  0  0  0  0  0  0
  152.7282  142.0597  160.0816 C   0  0  0  0  0  0  0  0  0  0  0  0
  153.4447  140.8798  160.3776 N   0  0  0  0  0  0  0  0  0  0  0  0
  154.2964  140.8262  161.5588 C   0  0  0  0  0  0  0  0  0  0  0  0
  153.2639  139.6950  159.5461 C   0  0  0  0  0  0  0  0  0  0  0  0
  151.9247  142.0749  158.9889 N   0  3  0  0  0  0  0  0  0  0  0  0
  147.5226  141.7662  153.9802 C   0  0  0  0  0  0  0  0  0  0  0  0
  146.7048  140.7220  153.2015 C   0  0  0  0  0  0  0  0  0  0  0  0
  146.0037  138.1480  152.4880 H   0  0  0  0  0  0  0  0  0  0  0  0
  147.4942  137.8225  151.5943 H   0  0  0  0  0  0  0  0  0  0  0  0
  146.4146  139.1078  151.0609 H   0  0  0  0  0  0  0  0  0  0  0  0
  147.4422  138.4823  154.6018 H   0  0  0  0  0  0  0  0  0  0  0  0
  148.8367  138.1044  153.6098 H   0  0  0  0  0  0  0  0  0  0  0  0
  149.4948  139.4323  155.6175 H   0  0  0  0  0  0  0  0  0  0  0  0
  149.8877  140.2657  154.1321 H   0  0  0  0  0  0  0  0  0  0  0  0
  147.4508  140.7752  155.8975 H   0  0  0  0  0  0  0  0  0  0  0  0
  149.1725  143.0055  155.4373 H   0  0  0  0  0  0  0  0  0  0  0  0
  150.2860  143.8027  156.8528 H   0  0  0  0  0  0  0  0  0  0  0  0
  150.6544  145.1941  159.1057 H   0  0  0  0  0  0  0  0  0  0  0  0
  152.1015  145.2646  161.1098 H   0  0  0  0  0  0  0  0  0  0  0  0
  153.4299  143.2810  161.7519 H   0  0  0  0  0  0  0  0  0  0  0  0
  153.7148  141.0231  162.4599 H   0  0  0  0  0  0  0  0  0  0  0  0
  155.0951  141.5654  161.4899 H   0  0  0  0  0  0  0  0  0  0  0  0
  154.7602  139.8459  161.6692 H   0  0  0  0  0  0  0  0  0  0  0  0
  153.5329  139.9076  158.5108 H   0  0  0  0  0  0  0  0  0  0  0  0
  152.2260  139.3618  159.5740 H   0  0  0  0  0  0  0  0  0  0  0  0
  153.8886  138.8700  159.8888 H   0  0  0  0  0  0  0  0  0  0  0  0
  146.8691  142.5810  154.2946 H   0  0  0  0  0  0  0  0  0  0  0  0
  148.2698  142.2078  153.3187 H   0  0  0  0  0  0  0  0  0  0  0  0
  146.2691  141.1884  152.3172 H   0  0  0  0  0  0  0  0  0  0  0  0
  145.8752  140.3631  153.8128 H   0  0  0  0  0  0  0  0  0  0  0  0
  148.2963  139.9561  152.2229 H   0  0  0  0  0  0  0  0  0  0  0  0
  151.8739  141.2251  158.4273 H   0  0  0  0  0  0  0  0  0  0  0  0
  1  2  1  0  0  0  0
  1 21  1  0  0  0  0
  1 22  1  0  0  0  0
  1 23  1  0  0  0  0
  2 20  1  0  0  0  0
  2  3  1  0  0  0  0
  2 44  1  0  0  0  0
  3  4  1  0  0  0  0
  3 24  1  0  0  0  0
  3 25  1  0  0  0  0
  4  5  1  0  0  0  0
  4 26  1  0  0  0  0
  4 27  1  0  0  0  0
  5  6  1  0  0  0  0
  5 19  1  0  0  0  0
  5 28  1  0  0  0  0
  6  7  1  0  0  0  0
  6 29  1  0  0  0  0
  7  8  2  0  0  0  0
  7  9  1  0  0  0  0
  9 10  1  0  0  0  0
  9 30  1  0  0  0  0
 10 18  1  0  0  0  0
 10 11  2  0  0  0  0
 11 12  1  0  0  0  0
 11 31  1  0  0  0  0
 12 13  2  0  0  0  0
 12 32  1  0  0  0  0
 13 14  1  0  0  0  0
 13 33  1  0  0  0  0
 14 15  1  0  0  0  0
 14 18  2  0  0  0  0
 15 16  1  0  0  0  0
 15 17  1  0  0  0  0
 16 34  1  0  0  0  0
 16 35  1  0  0  0  0
 16 36  1  0  0  0  0
 17 37  1  0  0  0  0
 17 38  1  0  0  0  0
 17 39  1  0  0  0  0
 18 45  1  0  0  0  0
 19 20  1  0  0  0  0
 19 40  1  0  0  0  0
 19 41  1  0  0  0  0
 20 42  1  0  0  0  0
 20 43  1  0  0  0  0
M  CHG  1   2   1
M  CHG  1  18   1
M  END
> <s_m_source_file>
AV-unprocessed.smi

> <i_m_source_file_index>
2547

> <i_lp_mmshare_version>
43012

> <i_f3d_flags>
0

> <s_epik_input>
W0NIM11OMVtDSDJdW0NIMl1bQ0hdKFtDSDJdW0NIMl0xKVtOSF1DKD1PKVtOSF1jMltjSF1bY0hdW2NIXWMobjIpTihbQ0gzXSlbQ0gzXQ==

> <s_epik_cmdline>
J2VwaWtfcHl0aG9uJywgJy1waCcsICc3LjAnLCAnLXRuJywgJzgnLCAnLW1hJywgJzIwMCcsICctbWV0YWxfYmluZGluZycsICctaW1hZScsICc8aW5maWxlLm1hZT4nLCAnLW9tYWUnLCAnPG91dGZpbGUubWFlPic=

> <r_lp_tautomer_probability>
0.999994

> <r_epik_Ionization_Penalty>
2.17028

> <r_epik_Ionization_Penalty_Charging>
2.10368

> <r_epik_Ionization_Penalty_Neutral>
0.0666017

> <r_epik_State_Penalty>
2.2357

> <r_epik_Charging_Adjusted_Penalty>
4.33938

> <i_epik_Tot_Q>
2

> <i_epik_Tot_abs_Q>
2

> <r_epik_Metal_State_Penalty>
2.25749

> <b_epik_Metal_Only>
0

> <s_lp_Force_Field>
OPLS_2005

> <r_lp_Energy>
26.2357

> <b_lp_Chiralities_Consistent>
1

> <s_lp_Variant>
AV-unprocessed.smi:2547-3

> <Gold.Version>
5.8.1

> <Gold.Id.Protein>
6NUR|6NUR_protein|mol2

> <Gold.PLP.Fitness>
48.1616

> <Gold.PLP.PLP>
-43.1936

> <Gold.PLP.part.hbond>
-3.0000

> <Gold.PLP.part.metal>
0.0000

> <Gold.PLP.part.buried>
-3.5774

> <Gold.PLP.part.nonpolar>
-38.0307

> <Gold.PLP.part.repulsive>
0.3095

> <Gold.PLP.ligand.clash>
2.6690

> <Gold.PLP.ligand.torsion>
0.3239

> <Gold.PLP.Chemscore.Hbond>
2.7600

> <Gold.PLP.Chemscore.CHOScore>
0.0000

> <Gold.PLP.Chemscore.Metal>
0.0000

> <Gold.Chemscore.Hbonds>
donor molecule, donor type, donor heavy atom, donor atom, acceptor molecule, acceptor atom, score
      L1  H     2    44       P1  7957  1.00
      L1  H     6    29       P1  8028  0.86
      L1  H     9    30       P1  8028  0.80

> <Gold.PLP.Chemscore.Internal.Correction>
0.0049

> <Gold.Rescore>
     Score         DG    S(hbond)    S(metal)    S(lipo)     H(rot)  DE(clash)    DE(int)     intcor
     21.48     -22.99       2.85        0.00      90.26       1.00       0.63       0.88       ----

> <Gold.Chemscore.Fitness>
21.4841

> <Gold.Chemscore.DG>
-22.9923

> <Gold.Chemscore.ZeroCoef>
-5.4800

> <Gold.Chemscore.Hbond>
2.8479

> <Gold.Chemscore.Metal>
0.0000

> <Gold.Chemscore.Lipo>
90.2580

> <Gold.Chemscore.Internal_Hbond>
0.0000

> <Gold.Chemscore.DEClash>
0.6257

> <Gold.Chemscore.DEInternal>
0.8825

> <Gold.Chemscore.Rot>
1.0000

> <Gold.Chemscore.Internal.Correction>
   9.000000E+99

> <Gold.Chemscore.Hbonds>
donor molecule, donor type, donor heavy atom, donor atom, acceptor molecule, acceptor atom, score
      L1  H     2    44       P1  7957  0.99
      L1  H     6    29       P1  8028  0.85
      L1  H     9    30       P1  8028  0.74

> <Gold.Chemscore.Hbond.Weighted>
-9.5121

> <Gold.Chemscore.Metal.Weighted>
-0.0000

> <Gold.Chemscore.Lipo.Weighted>
-10.5602

> <Gold.Chemscore.Internal_Hbond.Weighted>
0.0000

> <Gold.Chemscore.DEClash.Weighted>
0.6257

> <Gold.Chemscore.DEInternal.Weighted>
0.8825

> <Gold.Chemscore.Rot.Weighted>
2.5600

> <Gold.Chemscore.Internal.Correction.Weighted>
   9.000000E+99

> <Gold.Protein.RotatedTorsions>
[ 6907 6896 6895 6894 ] final   39.69 input  -60.11 | X-H torsion
[ 7974 7965 7964 7962 ] final  -21.36 input  175.53 | X-H torsion
[ 8008 7997 7996 7995 ] final  149.55 input   59.86 | X-H torsion
[ 10167 10162 10161 10158 ] final   59.37 input  -65.29 | X-H torsion
[ 10718 10713 10712 10709 ] final  131.15 input   66.30 | X-H torsion
[ 10763 10752 10751 10750 ] final  110.04 input  -60.55 | X-H torsion
[ 11005 11000 10999 10996 ] final   32.78 input  -57.11 | X-H torsion

> <Gold.Protein.ActiveResidues>
 VAL166  LYS551  ARG553  GLY616  TRP617  ASP618  TYR619  PRO620  LYS621  CYS622 
 ASP623  PHE694  ASN695  SER759  ASP760  ASP761  ALA762  ILE779  LEU786  VAL792 
 PHE793  MET794  SER795  GLU796  ALA797  LYS798  CYS799  TRP800  GLU811  SER814 

> <Gold.Protein.RotatedAtoms>
  152.1729  134.8819  160.0532 H   0  0  0  0  0  0  0  0  0  0  0  0  # atno 6907 bound_to 6896
  151.9772  133.3740  159.4102 H   0  0  0  0  0  0  0  0  0  0  0  0  # atno 6908 bound_to 6896
  150.6904  134.4000  159.5158 H   0  0  0  0  0  0  0  0  0  0  0  0  # atno 6909 bound_to 6896
  146.1737  140.4331  142.8522 H   0  0  0  0  0  0  0  0  0  0  0  0  # atno 7974 bound_to 7965
  156.2750  140.2098  156.5877 H   0  0  0  0  0  0  0  0  0  0  0  0  # atno 8008 bound_to 7997
  154.7008  140.0521  157.0479 H   0  0  0  0  0  0  0  0  0  0  0  0  # atno 8009 bound_to 7997
  155.0738  140.3179  155.4625 H   0  0  0  0  0  0  0  0  0  0  0  0  # atno 8010 bound_to 7997
  140.1771  144.4219  150.6633 H   0  0  0  0  0  0  0  0  0  0  0  0  # atno 10167 bound_to 10162
  157.4995  131.1093  150.9447 H   0  0  0  0  0  0  0  0  0  0  0  0  # atno 10718 bound_to 10713
  153.4433  135.3761  155.2240 H   0  0  0  0  0  0  0  0  0  0  0  0  # atno 10763 bound_to 10752
  154.8754  135.3868  154.4127 H   0  0  0  0  0  0  0  0  0  0  0  0  # atno 10764 bound_to 10752
  153.4675  135.7087  153.6076 H   0  0  0  0  0  0  0  0  0  0  0  0  # atno 10765 bound_to 10752
  140.2699  134.3094  155.7831 H   0  0  0  0  0  0  0  0  0  0  0  0  # atno 11005 bound_to 11000
  144.8202  140.6537  143.6358 LP  0  0  0  0  0  0  0  0  0  0  0  0  # atno 17320 bound_to 7965
  145.4271  139.1555  143.4043 LP  0  0  0  0  0  0  0  0  0  0  0  0  # atno 17321 bound_to 7965
  140.6544  143.2233  151.6003 LP  0  0  0  0  0  0  0  0  0  0  0  0  # atno 17342 bound_to 10162
  139.5312  144.2910  152.1152 LP  0  0  0  0  0  0  0  0  0  0  0  0  # atno 17343 bound_to 10162
  157.0122  130.5641  149.5322 LP  0  0  0  0  0  0  0  0  0  0  0  0  # atno 17370 bound_to 10713
  156.0220  130.5315  150.8303 LP  0  0  0  0  0  0  0  0  0  0  0  0  # atno 17371 bound_to 10713
  141.2179  133.7460  156.9318 LP  0  0  0  0  0  0  0  0  0  0  0  0  # atno 17394 bound_to 11000
  140.1383  134.9310  157.2432 LP  0  0  0  0  0  0  0  0  0  0  0  0  # atno 17395 bound_to 11000

$$$$
