AV-unprocessed.smi:2360|AV-procd|sdf|9410|dock1
  -GOLD-   2272013 43D 1   1.00000     0.00000
 Structure written by MMmdl.
 34 35  0  0  0  0  0  0  0  0  1 V2000
  155.4097  134.9871  164.2990 C   0  0  0  0  0  0  0  0  0  0  0  0
  154.8402  135.8498  163.1868 C   0  0  0  0  0  0  0  0  0  0  0  0
  154.6495  137.1972  163.5054 N   0  0  0  0  0  0  0  0  0  0  0  0
  154.1699  138.0071  162.6193 C   0  0  0  0  0  0  0  0  0  0  0  0
  153.8268  137.5713  161.3282 N   0  0  0  0  0  0  0  0  0  0  0  0
  153.3002  138.5970  160.4107 C   0  0  0  0  0  0  0  0  0  0  0  0
  154.2537  139.8057  160.2724 C   0  0  1  0  0  0  0  0  0  0  0  0
  155.1553  139.5629  159.2112 O   0  0  0  0  0  0  0  0  0  0  0  0
  153.4748  141.0922  160.0434 C   0  0  0  0  0  0  0  0  0  0  0  0
  153.5426  142.1494  160.9777 C   0  0  0  0  0  0  0  0  0  0  0  0
  152.8246  143.3406  160.7558 C   0  0  0  0  0  0  0  0  0  0  0  0
  152.0356  143.4828  159.5982 C   0  0  0  0  0  0  0  0  0  0  0  0
  151.3462  144.6289  159.3858 F   0  0  0  0  0  0  0  0  0  0  0  0
  151.9657  142.4328  158.6620 C   0  0  0  0  0  0  0  0  0  0  0  0
  151.2084  142.5670  157.5473 F   0  0  0  0  0  0  0  0  0  0  0  0
  152.6843  141.2416  158.8836 C   0  0  0  0  0  0  0  0  0  0  0  0
  153.9800  136.2736  160.9355 C   0  0  0  0  0  0  0  0  0  0  0  0
  153.6761  135.8986  159.8016 O   0  0  0  0  0  0  0  0  0  0  0  0
  154.5297  135.3639  161.9539 C   0  0  0  0  0  0  0  0  0  0  0  0
  154.7173  133.9068  161.5501 C   0  0  0  0  0  0  0  0  0  0  0  0
  156.3610  134.5504  163.9946 H   0  0  0  0  0  0  0  0  0  0  0  0
  154.7193  134.1811  164.5485 H   0  0  0  0  0  0  0  0  0  0  0  0
  155.5844  135.5697  165.2041 H   0  0  0  0  0  0  0  0  0  0  0  0
  154.0077  139.0686  162.8146 H   0  0  0  0  0  0  0  0  0  0  0  0
  153.0538  138.1848  159.4302 H   0  0  0  0  0  0  0  0  0  0  0  0
  152.3409  138.9443  160.8004 H   0  0  0  0  0  0  0  0  0  0  0  0
  154.8426  139.9214  161.1832 H   0  0  0  0  0  0  0  0  0  0  0  0
  155.3040  138.6318  159.1505 H   0  0  0  0  0  0  0  0  0  0  0  0
  154.1478  142.0503  161.8670 H   0  0  0  0  0  0  0  0  0  0  0  0
  152.8803  144.1457  161.4736 H   0  0  0  0  0  0  0  0  0  0  0  0
  152.6261  140.4437  158.1579 H   0  0  0  0  0  0  0  0  0  0  0  0
  153.7588  133.4678  161.2720 H   0  0  0  0  0  0  0  0  0  0  0  0
  155.1426  133.2924  162.3418 H   0  0  0  0  0  0  0  0  0  0  0  0
  155.3832  133.8382  160.6893 H   0  0  0  0  0  0  0  0  0  0  0  0
  1  2  1  0  0  0  0
  1 21  1  0  0  0  0
  1 22  1  0  0  0  0
  1 23  1  0  0  0  0
  2 19  2  0  0  0  0
  2  3  1  0  0  0  0
  3  4  2  0  0  0  0
  4  5  1  0  0  0  0
  4 24  1  0  0  0  0
  5  6  1  0  0  0  0
  5 17  1  0  0  0  0
  6  7  1  0  0  0  0
  6 25  1  0  0  0  0
  6 26  1  0  0  0  0
  7  8  1  0  0  0  0
  7  9  1  0  0  0  0
  7 27  1  0  0  0  0
  8 28  1  0  0  0  0
  9 16  1  0  0  0  0
  9 10  2  0  0  0  0
 10 11  1  0  0  0  0
 10 29  1  0  0  0  0
 11 12  2  0  0  0  0
 11 30  1  0  0  0  0
 12 13  1  0  0  0  0
 12 14  1  0  0  0  0
 14 15  1  0  0  0  0
 14 16  2  0  0  0  0
 16 31  1  0  0  0  0
 17 18  2  0  0  0  0
 17 19  1  0  0  0  0
 19 20  1  0  0  0  0
 20 32  1  0  0  0  0
 20 33  1  0  0  0  0
 20 34  1  0  0  0  0
M  END
> <s_m_source_file>
AV-unprocessed.smi

> <i_m_source_file_index>
2360

> <i_lp_mmshare_version>
43012

> <i_f3d_flags>
0

> <s_epik_input>
W0NIM11jMW5bY0hdbihjKD1PKWMxW0NIM10pW0NIMl1bQ0BIXShbT0hdKWMyW2NIXVtjSF1jKEYpYyhGKVtjSF0y

> <s_epik_cmdline>
J2VwaWtfcHl0aG9uJywgJy1waCcsICc3LjAnLCAnLXRuJywgJzgnLCAnLW1hJywgJzIwMCcsICctbWV0YWxfYmluZGluZycsICctaW1hZScsICc8aW5maWxlLm1hZT4nLCAnLW9tYWUnLCAnPG91dGZpbGUubWFlPic=

> <r_lp_tautomer_probability>
1

> <r_epik_Ionization_Penalty>
5.07449e-05

> <r_epik_Ionization_Penalty_Charging>
7.56727e-08

> <r_epik_Ionization_Penalty_Neutral>
5.06692e-05

> <r_epik_State_Penalty>
-0

> <r_epik_Charging_Adjusted_Penalty>
7.56727e-08

> <i_epik_Tot_Q>
0

> <i_epik_Tot_abs_Q>
0

> <r_epik_Metal_State_Penalty>
-0

> <b_epik_Metal_Only>
0

> <s_lp_Force_Field>
OPLS_2005

> <r_lp_Energy>
19.5716

> <b_lp_Chiralities_Consistent>
1

> <s_lp_Variant>
AV-unprocessed.smi:2360-2

> <Gold.Version>
5.8.1

> <Gold.Id.Protein>
6NUR|6NUR_protein|mol2

> <Gold.PLP.Fitness>
46.4751

> <Gold.PLP.PLP>
-41.3231

> <Gold.PLP.part.hbond>
-2.0000

> <Gold.PLP.part.metal>
0.0000

> <Gold.PLP.part.buried>
-5.0705

> <Gold.PLP.part.nonpolar>
-34.5045

> <Gold.PLP.part.repulsive>
0.0264

> <Gold.PLP.ligand.clash>
0.0000

> <Gold.PLP.ligand.torsion>
0.4301

> <Gold.PLP.Chemscore.Hbond>
2.0000

> <Gold.PLP.Chemscore.CHOScore>
0.0000

> <Gold.PLP.Chemscore.Metal>
0.0000

> <Gold.Chemscore.Hbonds>
donor molecule, donor type, donor heavy atom, donor atom, acceptor molecule, acceptor atom, score
      P1  H  6896  6908       L1    18  1.00
      P1  H  7997  8008       L1     8  0.95

> <Gold.PLP.Chemscore.Internal.Correction>
0.0121

> <Gold.Rescore>
     Score         DG    S(hbond)    S(metal)    S(lipo)     H(rot)  DE(clash)    DE(int)     intcor
     17.85     -18.40       1.98        0.00      99.97       2.11       0.11       0.44       ----

> <Gold.Chemscore.Fitness>
17.8547

> <Gold.Chemscore.DG>
-18.3993

> <Gold.Chemscore.ZeroCoef>
-5.4800

> <Gold.Chemscore.Hbond>
1.9832

> <Gold.Chemscore.Metal>
0.0000

> <Gold.Chemscore.Lipo>
99.9686

> <Gold.Chemscore.Internal_Hbond>
0.0000

> <Gold.Chemscore.DEClash>
0.1095

> <Gold.Chemscore.DEInternal>
0.4352

> <Gold.Chemscore.Rot>
2.1097

> <Gold.Chemscore.Internal.Correction>
   9.000000E+99

> <Gold.Chemscore.Hbonds>
donor molecule, donor type, donor heavy atom, donor atom, acceptor molecule, acceptor atom, score
      P1  H  6896  6908       L1    18  0.50
      P1  H  7997  8008       L1     8  0.21

> <Gold.Chemscore.Hbond.Weighted>
-6.6239

> <Gold.Chemscore.Metal.Weighted>
-0.0000

> <Gold.Chemscore.Lipo.Weighted>
-11.6963

> <Gold.Chemscore.Internal_Hbond.Weighted>
0.0000

> <Gold.Chemscore.DEClash.Weighted>
0.1095

> <Gold.Chemscore.DEInternal.Weighted>
0.4352

> <Gold.Chemscore.Rot.Weighted>
5.4009

> <Gold.Chemscore.Internal.Correction.Weighted>
   9.000000E+99

> <Gold.Protein.RotatedTorsions>
[ 6907 6896 6895 6894 ] final  -71.28 input  -60.11 | X-H torsion
[ 7974 7965 7964 7962 ] final  -53.92 input  175.53 | X-H torsion
[ 8008 7997 7996 7995 ] final -137.14 input   59.86 | X-H torsion
[ 10167 10162 10161 10158 ] final  -81.68 input  -65.29 | X-H torsion
[ 10718 10713 10712 10709 ] final   45.36 input   66.30 | X-H torsion
[ 10763 10752 10751 10750 ] final  -31.52 input  -60.55 | X-H torsion
[ 11005 11000 10999 10996 ] final  122.56 input  -57.11 | X-H torsion

> <Gold.Protein.ActiveResidues>
 VAL166  LYS551  ARG553  GLY616  TRP617  ASP618  TYR619  PRO620  LYS621  CYS622 
 ASP623  PHE694  ASN695  SER759  ASP760  ASP761  ALA762  ILE779  LEU786  VAL792 
 PHE793  MET794  SER795  GLU796  ALA797  LYS798  CYS799  TRP800  GLU811  SER814 

> <Gold.Protein.RotatedAtoms>
  150.7219  134.5331  159.5709 H   0  0  0  0  0  0  0  0  0  0  0  0  # atno 6907 bound_to 6896
  152.2860  134.7773  160.0396 H   0  0  0  0  0  0  0  0  0  0  0  0  # atno 6908 bound_to 6896
  151.8403  133.3387  159.3677 H   0  0  0  0  0  0  0  0  0  0  0  0  # atno 6909 bound_to 6896
  145.8914  140.8067  142.9789 H   0  0  0  0  0  0  0  0  0  0  0  0  # atno 7974 bound_to 7965
  155.4069  140.0509  157.3034 H   0  0  0  0  0  0  0  0  0  0  0  0  # atno 8008 bound_to 7997
  154.4964  140.2140  155.9397 H   0  0  0  0  0  0  0  0  0  0  0  0  # atno 8009 bound_to 7997
  156.1411  140.3154  155.8502 H   0  0  0  0  0  0  0  0  0  0  0  0  # atno 8010 bound_to 7997
  140.4389  143.2521  151.8653 H   0  0  0  0  0  0  0  0  0  0  0  0  # atno 10167 bound_to 10162
  157.4368  130.8057  149.7655 H   0  0  0  0  0  0  0  0  0  0  0  0  # atno 10718 bound_to 10713
  153.7987  135.6892  153.4859 H   0  0  0  0  0  0  0  0  0  0  0  0  # atno 10763 bound_to 10752
  153.1702  135.4545  154.9891 H   0  0  0  0  0  0  0  0  0  0  0  0  # atno 10764 bound_to 10752
  154.8015  135.3339  154.7477 H   0  0  0  0  0  0  0  0  0  0  0  0  # atno 10765 bound_to 10752
  139.9274  134.9641  156.8127 H   0  0  0  0  0  0  0  0  0  0  0  0  # atno 11005 bound_to 11000
  144.6730  140.1535  143.7428 LP  0  0  0  0  0  0  0  0  0  0  0  0  # atno 17320 bound_to 7965
  145.8904  139.2372  143.1553 LP  0  0  0  0  0  0  0  0  0  0  0  0  # atno 17321 bound_to 7965
  139.4788  144.5251  151.8747 LP  0  0  0  0  0  0  0  0  0  0  0  0  # atno 17342 bound_to 10162
  140.4341  144.2076  150.5889 LP  0  0  0  0  0  0  0  0  0  0  0  0  # atno 17343 bound_to 10162
  155.9933  130.3925  150.2905 LP  0  0  0  0  0  0  0  0  0  0  0  0  # atno 17370 bound_to 10713
  157.1066  131.0210  151.3064 LP  0  0  0  0  0  0  0  0  0  0  0  0  # atno 17371 bound_to 10713
  140.6299  133.9916  155.7657 LP  0  0  0  0  0  0  0  0  0  0  0  0  # atno 17394 bound_to 11000
  141.0840  134.0019  157.3342 LP  0  0  0  0  0  0  0  0  0  0  0  0  # atno 17395 bound_to 11000

$$$$
