AV-unprocessed.smi:657|AV-procd|sdf|3221|dock10
  -GOLD-   22720 0163D 1   1.00000     0.00000
 Structure written by MMmdl.
 47 48  0  0  0  0  0  0  0  0  2 V2000
  146.7935  139.1805  151.5667 C   0  0  0  0  0  0  0  0  0  0  0  0
  146.8186  138.9546  153.0939 C   0  0  0  0  0  0  0  0  0  0  0  0
  146.1964  137.5731  153.3862 C   0  0  0  0  0  0  0  0  0  0  0  0
  146.1391  140.0560  153.8598 N   0  3  1  0  0  0  0  0  0  0  0  0
  145.6111  139.6317  155.1950 C   0  0  0  0  0  0  0  0  0  0  0  0
  144.7687  140.7286  155.8672 C   0  0  0  0  0  0  0  0  0  0  0  0
  145.5484  142.0383  155.9867 C   0  0  0  0  0  0  0  0  0  0  0  0
  146.0247  142.4619  154.5940 C   0  0  0  0  0  0  0  0  0  0  0  0
  146.8769  141.3681  153.9087 C   0  0  1  0  0  0  0  0  0  0  0  0
  148.2985  141.3137  154.5115 C   0  0  0  0  0  0  0  0  0  0  0  0
  149.2986  141.5032  153.8201 O   0  0  0  0  0  0  0  0  0  0  0  0
  148.3645  141.0179  155.8186 N   0  0  0  0  0  0  0  0  0  0  0  0
  149.5925  140.8172  156.5836 C   0  0  0  0  0  0  0  0  0  0  0  0
  150.6730  141.8798  156.2881 C   0  0  0  0  0  0  0  0  0  0  0  0
  151.1875  142.5597  157.5307 C   0  0  0  0  0  0  0  0  0  0  0  0
  152.0005  142.0111  158.5634 C   0  0  0  0  0  0  0  0  0  0  0  0
  152.3131  142.8960  159.4959 N   0  0  0  0  0  0  0  0  0  0  0  0
  151.7025  144.0316  159.0999 N   0  0  0  0  0  0  0  0  0  0  0  0
  151.8394  145.2320  159.8961 C   0  0  0  0  0  0  0  0  0  0  0  0
  151.0090  143.8562  157.9228 C   0  0  0  0  0  0  0  0  0  0  0  0
  147.2062  138.3214  151.0366 H   0  0  0  0  0  0  0  0  0  0  0  0
  147.3957  140.0369  151.2640 H   0  0  0  0  0  0  0  0  0  0  0  0
  145.7767  139.3318  151.2027 H   0  0  0  0  0  0  0  0  0  0  0  0
  147.8633  138.9106  153.4028 H   0  0  0  0  0  0  0  0  0  0  0  0
  146.6074  136.8098  152.7245 H   0  0  0  0  0  0  0  0  0  0  0  0
  145.1156  137.5840  153.2412 H   0  0  0  0  0  0  0  0  0  0  0  0
  146.4025  137.2295  154.3993 H   0  0  0  0  0  0  0  0  0  0  0  0
  144.9636  138.7636  155.0936 H   0  0  0  0  0  0  0  0  0  0  0  0
  146.4256  139.3263  155.8512 H   0  0  0  0  0  0  0  0  0  0  0  0
  143.8592  140.8963  155.2887 H   0  0  0  0  0  0  0  0  0  0  0  0
  144.4477  140.3966  156.8551 H   0  0  0  0  0  0  0  0  0  0  0  0
  144.9193  142.8151  156.4222 H   0  0  0  0  0  0  0  0  0  0  0  0
  146.3966  141.9094  156.6596 H   0  0  0  0  0  0  0  0  0  0  0  0
  145.1564  142.6820  153.9712 H   0  0  0  0  0  0  0  0  0  0  0  0
  146.5805  143.3986  154.6654 H   0  0  0  0  0  0  0  0  0  0  0  0
  146.9920  141.7109  152.8806 H   0  0  0  0  0  0  0  0  0  0  0  0
  147.4971  140.8735  156.3152 H   0  0  0  0  0  0  0  0  0  0  0  0
  149.3759  140.7731  157.6519 H   0  0  0  0  0  0  0  0  0  0  0  0
  149.9755  139.8345  156.3068 H   0  0  0  0  0  0  0  0  0  0  0  0
  151.4967  141.4008  155.7579 H   0  0  0  0  0  0  0  0  0  0  0  0
  150.2696  142.6115  155.5881 H   0  0  0  0  0  0  0  0  0  0  0  0
  152.3850  141.0057  158.6522 H   0  0  0  0  0  0  0  0  0  0  0  0
  151.1791  146.0109  159.5140 H   0  0  0  0  0  0  0  0  0  0  0  0
  152.8694  145.5867  159.8517 H   0  0  0  0  0  0  0  0  0  0  0  0
  151.5755  145.0219  160.9332 H   0  0  0  0  0  0  0  0  0  0  0  0
  150.4644  144.6640  157.4565 H   0  0  0  0  0  0  0  0  0  0  0  0
  145.3118  140.2627  153.3190 H   0  0  0  0  0  0  0  0  0  0  0  0
  1  2  1  0  0  0  0
  1 21  1  0  0  0  0
  1 22  1  0  0  0  0
  1 23  1  0  0  0  0
  2  3  1  0  0  0  0
  2  4  1  0  0  0  0
  2 24  1  0  0  0  0
  3 25  1  0  0  0  0
  3 26  1  0  0  0  0
  3 27  1  0  0  0  0
  4  9  1  0  0  0  0
  4  5  1  0  0  0  0
  4 47  1  0  0  0  0
  5  6  1  0  0  0  0
  5 28  1  0  0  0  0
  5 29  1  0  0  0  0
  6  7  1  0  0  0  0
  6 30  1  0  0  0  0
  6 31  1  0  0  0  0
  7  8  1  0  0  0  0
  7 32  1  0  0  0  0
  7 33  1  0  0  0  0
  8  9  1  0  0  0  0
  8 34  1  0  0  0  0
  8 35  1  0  0  0  0
  9 10  1  0  0  0  0
  9 36  1  0  0  0  0
 10 11  2  0  0  0  0
 10 12  1  0  0  0  0
 12 13  1  0  0  0  0
 12 37  1  0  0  0  0
 13 14  1  0  0  0  0
 13 38  1  0  0  0  0
 13 39  1  0  0  0  0
 14 15  1  0  0  0  0
 14 40  1  0  0  0  0
 14 41  1  0  0  0  0
 15 20  2  0  0  0  0
 15 16  1  0  0  0  0
 16 17  2  0  0  0  0
 16 42  1  0  0  0  0
 17 18  1  0  0  0  0
 18 19  1  0  0  0  0
 18 20  1  0  0  0  0
 19 43  1  0  0  0  0
 19 44  1  0  0  0  0
 19 45  1  0  0  0  0
 20 46  1  0  0  0  0
M  CHG  1   4   1
M  END
> <s_m_source_file>
AV-unprocessed.smi

> <i_m_source_file_index>
657

> <i_lp_mmshare_version>
43012

> <i_f3d_flags>
0

> <s_epik_input>
W0NIM11bQ0hdKFtDSDNdKU4xW0NIMl1bQ0gyXVtDSDJdW0NIMl1bQ0BIXTFDKD1PKVtOSF1bQ0gyXVtDSDJdYzJbY0hdbm4oW0NIM10pW2NIXTI=

> <s_epik_cmdline>
J2VwaWtfcHl0aG9uJywgJy1waCcsICc3LjAnLCAnLXRuJywgJzgnLCAnLW1hJywgJzIwMCcsICctbWV0YWxfYmluZGluZycsICctaW1hZScsICc8aW5maWxlLm1hZT4nLCAnLW9tYWUnLCAnPG91dGZpbGUubWFlPic=

> <r_lp_tautomer_probability>
1

> <r_epik_Ionization_Penalty>
0.0244317

> <r_epik_Ionization_Penalty_Charging>
0.0240236

> <r_epik_Ionization_Penalty_Neutral>
0.00040815

> <r_epik_State_Penalty>
0.0194773

> <r_epik_Charging_Adjusted_Penalty>
0.0435009

> <i_epik_Tot_Q>
1

> <i_epik_Tot_abs_Q>
1

> <r_epik_Metal_State_Penalty>
0.0361957

> <b_epik_Metal_Only>
0

> <s_lp_Force_Field>
OPLS_2005

> <r_lp_Energy>
18.2294

> <b_lp_Chiralities_Consistent>
1

> <s_lp_Variant>
AV-unprocessed.smi:657-2

> <Gold.Version>
5.8.1

> <Gold.Id.Protein>
6NUR|6NUR_protein|mol2

> <Gold.PLP.Fitness>
50.6275

> <Gold.PLP.PLP>
-41.0382

> <Gold.PLP.part.hbond>
-3.0000

> <Gold.PLP.part.metal>
0.0000

> <Gold.PLP.part.buried>
-2.8955

> <Gold.PLP.part.nonpolar>
-36.3479

> <Gold.PLP.part.repulsive>
0.9937

> <Gold.PLP.ligand.clash>
0.0009

> <Gold.PLP.ligand.torsion>
0.9948

> <Gold.PLP.Chemscore.Hbond>
2.7949

> <Gold.PLP.Chemscore.CHOScore>
1.0000

> <Gold.PLP.Chemscore.Metal>
0.0000

> <Gold.Chemscore.Hbonds>
donor molecule, donor type, donor heavy atom, donor atom, acceptor molecule, acceptor atom, score
      L1  H     4    47       P1 10175  2.00
      P1  H  7989  7998       L1    11  0.01
      P1  H  8011  8017       L1    11  0.74
      L1  C    20    46       P1  8028  1.00

> <Gold.PLP.Chemscore.Internal.Correction>
0.1953

> <Gold.Rescore>
     Score         DG    S(hbond)    S(metal)    S(lipo)     H(rot)  DE(clash)    DE(int)     intcor
     14.29     -17.85       1.79        0.00      90.32       1.63       0.25       3.31       ----

> <Gold.Chemscore.Fitness>
14.2929

> <Gold.Chemscore.DG>
-17.8542

> <Gold.Chemscore.ZeroCoef>
-5.4800

> <Gold.Chemscore.Hbond>
1.7886

> <Gold.Chemscore.Metal>
0.0000

> <Gold.Chemscore.Lipo>
90.3226

> <Gold.Chemscore.Internal_Hbond>
0.0000

> <Gold.Chemscore.DEClash>
0.2500

> <Gold.Chemscore.DEInternal>
3.3113

> <Gold.Chemscore.Rot>
1.6279

> <Gold.Chemscore.Internal.Correction>
   9.000000E+99

> <Gold.Chemscore.Hbonds>
donor molecule, donor type, donor heavy atom, donor atom, acceptor molecule, acceptor atom, score
      L1  H     4    47       P1 10175  1.00
      P1  H  7989  7998       L1    11  0.02
      P1  H  8011  8017       L1    11  0.74

> <Gold.Chemscore.Hbond.Weighted>
-5.9738

> <Gold.Chemscore.Metal.Weighted>
-0.0000

> <Gold.Chemscore.Lipo.Weighted>
-10.5677

> <Gold.Chemscore.Internal_Hbond.Weighted>
0.0000

> <Gold.Chemscore.DEClash.Weighted>
0.2500

> <Gold.Chemscore.DEInternal.Weighted>
3.3113

> <Gold.Chemscore.Rot.Weighted>
4.1673

> <Gold.Chemscore.Internal.Correction.Weighted>
   9.000000E+99

> <Gold.Protein.RotatedTorsions>
[ 6907 6896 6895 6894 ] final   51.68 input  -60.11 | X-H torsion
[ 7974 7965 7964 7962 ] final  -42.65 input  175.53 | X-H torsion
[ 8008 7997 7996 7995 ] final  -52.81 input   59.86 | X-H torsion
[ 10167 10162 10161 10158 ] final  -57.23 input  -65.29 | X-H torsion
[ 10718 10713 10712 10709 ] final  162.36 input   66.30 | X-H torsion
[ 10763 10752 10751 10750 ] final   21.36 input  -60.55 | X-H torsion
[ 11005 11000 10999 10996 ] final  166.85 input  -57.11 | X-H torsion

> <Gold.Protein.ActiveResidues>
 VAL166  LYS551  ARG553  GLY616  TRP617  ASP618  TYR619  PRO620  LYS621  CYS622 
 ASP623  PHE694  ASN695  SER759  ASP760  ASP761  ALA762  ILE779  LEU786  VAL792 
 PHE793  MET794  SER795  GLU796  ALA797  LYS798  CYS799  TRP800  GLU811  SER814 

> <Gold.Protein.RotatedAtoms>
  152.3153  134.7448  160.0326 H   0  0  0  0  0  0  0  0  0  0  0  0  # atno 6907 bound_to 6896
  151.7914  133.3354  159.3508 H   0  0  0  0  0  0  0  0  0  0  0  0  # atno 6908 bound_to 6896
  150.7341  134.5769  159.5963 H   0  0  0  0  0  0  0  0  0  0  0  0  # atno 6909 bound_to 6896
  146.0095  140.6980  142.9231 H   0  0  0  0  0  0  0  0  0  0  0  0  # atno 7974 bound_to 7965
  154.4116  140.1215  156.5051 H   0  0  0  0  0  0  0  0  0  0  0  0  # atno 8008 bound_to 7997
  155.6855  140.3496  155.4853 H   0  0  0  0  0  0  0  0  0  0  0  0  # atno 8009 bound_to 7997
  155.9514  140.1105  157.0963 H   0  0  0  0  0  0  0  0  0  0  0  0  # atno 8010 bound_to 7997
  140.6270  143.2442  151.5338 H   0  0  0  0  0  0  0  0  0  0  0  0  # atno 10167 bound_to 10162
  157.1236  131.0498  151.2404 H   0  0  0  0  0  0  0  0  0  0  0  0  # atno 10718 bound_to 10713
  153.1002  135.6670  153.9688 H   0  0  0  0  0  0  0  0  0  0  0  0  # atno 10763 bound_to 10752
  153.9260  135.3009  155.3448 H   0  0  0  0  0  0  0  0  0  0  0  0  # atno 10764 bound_to 10752
  154.7422  135.5074  153.9217 H   0  0  0  0  0  0  0  0  0  0  0  0  # atno 10765 bound_to 10752
  140.2707  134.7829  157.3673 H   0  0  0  0  0  0  0  0  0  0  0  0  # atno 11005 bound_to 11000
  144.6948  140.3374  143.7205 LP  0  0  0  0  0  0  0  0  0  0  0  0  # atno 17320 bound_to 7965
  145.7364  139.1751  143.2401 LP  0  0  0  0  0  0  0  0  0  0  0  0  # atno 17321 bound_to 7965
  139.5489  144.2447  152.1494 LP  0  0  0  0  0  0  0  0  0  0  0  0  # atno 17342 bound_to 10162
  140.1681  144.4962  150.6594 LP  0  0  0  0  0  0  0  0  0  0  0  0  # atno 17343 bound_to 10162
  157.4455  130.7568  149.7105 LP  0  0  0  0  0  0  0  0  0  0  0  0  # atno 17370 bound_to 10713
  155.9823  130.4011  150.3424 LP  0  0  0  0  0  0  0  0  0  0  0  0  # atno 17371 bound_to 10713
  140.1375  134.5014  155.8057 LP  0  0  0  0  0  0  0  0  0  0  0  0  # atno 17394 bound_to 11000
  141.2178  133.6813  156.7151 LP  0  0  0  0  0  0  0  0  0  0  0  0  # atno 17395 bound_to 11000

$$$$
