AV-unprocessed.smi:35|AV-procd|sdf|261|dock5
  -GOLD-   2262016 23D 1   1.00000     0.00000
 Structure written by MMmdl.
 29 30  0  0  0  0  0  0  0  0  1 V2000
  153.1362  139.2237  156.7775 O   0  0  0  0  0  0  0  0  0  0  0  0
  151.9981  139.5100  156.4121 C   0  0  0  0  0  0  0  0  0  0  0  0
  151.3065  140.5633  157.0173 N   0  0  0  0  0  0  0  0  0  0  0  0
  150.0158  140.9827  156.6879 C   0  0  0  0  0  0  0  0  0  0  0  0
  149.5113  141.9368  157.2781 O   0  0  0  0  0  0  0  0  0  0  0  0
  149.3510  140.2760  155.6604 N   0  0  0  0  0  0  0  0  0  0  0  0
  147.9537  140.6910  155.2500 C   0  0  2  0  0  0  0  0  0  0  0  0
  147.1035  139.5944  155.4010 O   0  0  0  0  0  0  0  0  0  0  0  0
  146.2003  139.5359  154.3022 C   0  0  2  0  0  0  0  0  0  0  0  0
  145.6186  138.1213  154.1329 C   0  0  0  0  0  0  0  0  0  0  0  0
  144.7435  138.0848  153.0258 O   0  0  0  0  0  0  0  0  0  0  0  0
  147.0405  140.0508  153.1253 C   0  0  2  0  0  0  0  0  0  0  0  0
  147.8405  139.0148  152.5785 O   0  0  0  0  0  0  0  0  0  0  0  0
  147.8715  141.1511  153.7780 C   0  0  2  0  0  0  0  0  0  0  0  0
  149.1123  141.3734  153.1288 O   0  0  0  0  0  0  0  0  0  0  0  0
  150.0008  139.2260  155.0256 C   0  0  0  0  0  0  0  0  0  0  0  0
  151.2538  138.8340  155.3552 C   0  0  0  0  0  0  0  0  0  0  0  0
  152.0047  137.3162  154.3277 Br  0  0  0  0  0  0  0  0  0  0  0  0
  151.7826  141.0661  157.7521 H   0  0  0  0  0  0  0  0  0  0  0  0
  147.6299  141.4624  155.9509 H   0  0  0  0  0  0  0  0  0  0  0  0
  145.3966  140.2534  154.4808 H   0  0  0  0  0  0  0  0  0  0  0  0
  146.4190  137.4069  153.9382 H   0  0  0  0  0  0  0  0  0  0  0  0
  145.1016  137.7930  155.0351 H   0  0  0  0  0  0  0  0  0  0  0  0
  144.5417  138.9729  152.7732 H   0  0  0  0  0  0  0  0  0  0  0  0
  146.4114  140.4461  152.3271 H   0  0  0  0  0  0  0  0  0  0  0  0
  148.6208  139.4027  152.2126 H   0  0  0  0  0  0  0  0  0  0  0  0
  147.3026  142.0816  153.7629 H   0  0  0  0  0  0  0  0  0  0  0  0
  149.2855  140.6354  152.5641 H   0  0  0  0  0  0  0  0  0  0  0  0
  149.4970  138.6938  154.2324 H   0  0  0  0  0  0  0  0  0  0  0  0
  1  2  2  0  0  0  0
  2 17  1  0  0  0  0
  2  3  1  0  0  0  0
  3 19  1  0  0  0  0
  3  4  1  0  0  0  0
  4  5  2  0  0  0  0
  4  6  1  0  0  0  0
  6  7  1  0  0  0  0
  6 16  1  0  0  0  0
  7 14  1  0  0  0  0
  7  8  1  0  0  0  0
  7 20  1  0  0  0  0
  8  9  1  0  0  0  0
  9 10  1  0  0  0  0
  9 12  1  0  0  0  0
  9 21  1  0  0  0  0
 10 11  1  0  0  0  0
 10 22  1  0  0  0  0
 10 23  1  0  0  0  0
 11 24  1  0  0  0  0
 12 13  1  0  0  0  0
 12 14  1  0  0  0  0
 12 25  1  0  0  0  0
 13 26  1  0  0  0  0
 14 15  1  0  0  0  0
 14 27  1  0  0  0  0
 15 28  1  0  0  0  0
 16 17  2  0  0  0  0
 16 29  1  0  0  0  0
 17 18  1  0  0  0  0
M  END
> <s_m_source_file>
AV-unprocessed.smi

> <i_m_source_file_index>
35

> <i_lp_mmshare_version>
43012

> <i_f3d_flags>
0

> <s_epik_input>
Tz1jMVtuSF1jKD1PKW4oW2NIXWMxQnIpW0NAQEhdMk9bQ0BASF0oW0NIMl1bT0hdKVtDQEBIXShbT0hdKVtDQEhdMltPSF0=

> <s_epik_cmdline>
J2VwaWtfcHl0aG9uJywgJy1waCcsICc3LjAnLCAnLXRuJywgJzgnLCAnLW1hJywgJzIwMCcsICctbWV0YWxfYmluZGluZycsICctaW1hZScsICc8aW5maWxlLm1hZT4nLCAnLW9tYWUnLCAnPG91dGZpbGUubWFlPic=

> <r_lp_tautomer_probability>
0.999537

> <r_epik_Ionization_Penalty>
0.10812

> <r_epik_Ionization_Penalty_Charging>
0.108119

> <r_epik_Ionization_Penalty_Neutral>
4.93006e-07

> <r_epik_State_Penalty>
0.0979238

> <r_epik_Charging_Adjusted_Penalty>
0.206043

> <i_epik_Tot_Q>
0

> <i_epik_Tot_abs_Q>
0

> <r_epik_Metal_State_Penalty>
3.07911

> <b_epik_Metal_Only>
0

> <s_epik_Chemistry_Notes>
This compound contains an acetal/aminal-like group ( X-CH(R)-Y where X, Y are N, S, or O) that may be acid/base labile, releasing an aldehyde.

> <s_lp_Force_Field>
OPLS_2005

> <r_lp_Energy>
38.5572

> <b_lp_Chiralities_Consistent>
1

> <s_lp_Variant>
AV-unprocessed.smi:35-15

> <Gold.Version>
5.8.1

> <Gold.Id.Protein>
6NUR|6NUR_protein|mol2

> <Gold.PLP.Fitness>
37.2102

> <Gold.PLP.PLP>
-22.6520

> <Gold.PLP.part.hbond>
-6.2525

> <Gold.PLP.part.metal>
0.0000

> <Gold.PLP.part.buried>
-0.7672

> <Gold.PLP.part.nonpolar>
-17.0789

> <Gold.PLP.part.repulsive>
0.2288

> <Gold.PLP.ligand.clash>
0.0044

> <Gold.PLP.ligand.torsion>
0.0070

> <Gold.PLP.Chemscore.Hbond>
4.8543

> <Gold.PLP.Chemscore.CHOScore>
0.0000

> <Gold.PLP.Chemscore.Metal>
0.0000

> <Gold.Chemscore.Hbonds>
donor molecule, donor type, donor heavy atom, donor atom, acceptor molecule, acceptor atom, score
      L1  H    11    24       P1 10175  1.00
      L1  H    13    26       P1  7957  1.00
      L1  H    15    28       P1  7957  0.99
      P1  H  7997  8008       L1     1  0.98
      P1  H  8011  8017       L1    15  0.78

> <Gold.PLP.Chemscore.Internal.Correction>
0.0138

> <Gold.Rescore>
     Score         DG    S(hbond)    S(metal)    S(lipo)     H(rot)  DE(clash)    DE(int)     intcor
     12.90     -14.51       4.18        0.00      38.06       3.67       1.47       0.14       ----

> <Gold.Chemscore.Fitness>
12.9008

> <Gold.Chemscore.DG>
-14.5088

> <Gold.Chemscore.ZeroCoef>
-5.4800

> <Gold.Chemscore.Hbond>
4.1829

> <Gold.Chemscore.Metal>
0.0000

> <Gold.Chemscore.Lipo>
38.0624

> <Gold.Chemscore.Internal_Hbond>
0.0000

> <Gold.Chemscore.DEClash>
1.4713

> <Gold.Chemscore.DEInternal>
0.1367

> <Gold.Chemscore.Rot>
3.6701

> <Gold.Chemscore.Internal.Correction>
   9.000000E+99

> <Gold.Chemscore.Hbonds>
donor molecule, donor type, donor heavy atom, donor atom, acceptor molecule, acceptor atom, score
      L1  H    11    24       P1 10175  1.00
      L1  H    13    26       P1  7957  0.95
      L1  H    15    28       P1  7957  0.90
      P1  H  7997  8008       L1     1  0.92
      P1  H  8011  8017       L1    15  0.15

> <Gold.Chemscore.Hbond.Weighted>
-13.9709

> <Gold.Chemscore.Metal.Weighted>
-0.0000

> <Gold.Chemscore.Lipo.Weighted>
-4.4533

> <Gold.Chemscore.Internal_Hbond.Weighted>
0.0000

> <Gold.Chemscore.DEClash.Weighted>
1.4713

> <Gold.Chemscore.DEInternal.Weighted>
0.1367

> <Gold.Chemscore.Rot.Weighted>
9.3955

> <Gold.Chemscore.Internal.Correction.Weighted>
   9.000000E+99

> <Gold.Protein.RotatedTorsions>
[ 6907 6896 6895 6894 ] final  -26.28 input  -60.11 | X-H torsion
[ 7974 7965 7964 7962 ] final   24.44 input  175.53 | X-H torsion
[ 8008 7997 7996 7995 ] final  -65.42 input   59.86 | X-H torsion
[ 10167 10162 10161 10158 ] final  171.47 input  -65.29 | X-H torsion
[ 10718 10713 10712 10709 ] final   34.81 input   66.30 | X-H torsion
[ 10763 10752 10751 10750 ] final  -77.71 input  -60.55 | X-H torsion
[ 11005 11000 10999 10996 ] final   76.04 input  -57.11 | X-H torsion

> <Gold.Protein.ActiveResidues>
 VAL166  LYS551  ARG553  GLY616  TRP617  ASP618  TYR619  PRO620  LYS621  CYS622 
 ASP623  PHE694  ASN695  SER759  ASP760  ASP761  ALA762  ILE779  LEU786  VAL792 
 PHE793  MET794  SER795  GLU796  ALA797  LYS798  CYS799  TRP800  GLU811  SER814 

> <Gold.Protein.RotatedAtoms>
  151.1631  135.0283  159.8718 H   0  0  0  0  0  0  0  0  0  0  0  0  # atno 6907 bound_to 6896
  152.5451  134.1256  159.8427 H   0  0  0  0  0  0  0  0  0  0  0  0  # atno 6908 bound_to 6896
  151.1353  133.4962  159.2630 H   0  0  0  0  0  0  0  0  0  0  0  0  # atno 6909 bound_to 6896
  146.1937  139.7604  142.8813 H   0  0  0  0  0  0  0  0  0  0  0  0  # atno 7974 bound_to 7965
  154.4671  140.0933  156.7047 H   0  0  0  0  0  0  0  0  0  0  0  0  # atno 8008 bound_to 7997
  155.4829  140.3468  155.4324 H   0  0  0  0  0  0  0  0  0  0  0  0  # atno 8009 bound_to 7997
  156.0974  140.1413  156.9501 H   0  0  0  0  0  0  0  0  0  0  0  0  # atno 8010 bound_to 7997
  139.5048  144.3482  151.9950 H   0  0  0  0  0  0  0  0  0  0  0  0  # atno 10167 bound_to 10162
  157.3149  130.7418  149.6748 H   0  0  0  0  0  0  0  0  0  0  0  0  # atno 10718 bound_to 10713
  154.5165  135.5755  153.6646 H   0  0  0  0  0  0  0  0  0  0  0  0  # atno 10763 bound_to 10752
  152.9908  135.6171  154.2811 H   0  0  0  0  0  0  0  0  0  0  0  0  # atno 10764 bound_to 10752
  154.2729  135.2853  155.2710 H   0  0  0  0  0  0  0  0  0  0  0  0  # atno 10765 bound_to 10752
  139.9316  134.7568  156.1345 H   0  0  0  0  0  0  0  0  0  0  0  0  # atno 11005 bound_to 11000
  145.3711  141.0343  143.3230 LP  0  0  0  0  0  0  0  0  0  0  0  0  # atno 17320 bound_to 7965
  144.8537  139.5282  143.6844 LP  0  0  0  0  0  0  0  0  0  0  0  0  # atno 17321 bound_to 7965
  140.2919  144.3744  150.6086 LP  0  0  0  0  0  0  0  0  0  0  0  0  # atno 17342 bound_to 10162
  140.5940  143.2167  151.7199 LP  0  0  0  0  0  0  0  0  0  0  0  0  # atno 17343 bound_to 10162
  155.9681  130.4240  150.4589 LP  0  0  0  0  0  0  0  0  0  0  0  0  # atno 17370 bound_to 10713
  157.2594  131.0563  151.2330 LP  0  0  0  0  0  0  0  0  0  0  0  0  # atno 17371 bound_to 10713
  141.0908  133.6715  156.2536 LP  0  0  0  0  0  0  0  0  0  0  0  0  # atno 17394 bound_to 11000
  140.6186  134.5385  157.5544 LP  0  0  0  0  0  0  0  0  0  0  0  0  # atno 17395 bound_to 11000

$$$$
