AV-unprocessed.smi:3002|AV-procd|sdf|11436|dock5
  -GOLD-   2272016363D 1   1.00000     0.00000
 Structure written by MMmdl.
 34 35  0  0  0  0  0  0  0  0  1 V2000
  153.3659  141.9066  162.0094 C   0  0  0  0  0  0  0  0  0  0  0  0
  153.6591  142.1791  160.5200 C   0  0  1  0  0  0  0  0  0  0  0  0
  153.5384  140.9146  159.6562 C   0  0  0  0  0  0  0  0  0  0  0  0
  154.5411  140.3776  159.1840 O   0  0  0  0  0  0  0  0  0  0  0  0
  152.2955  140.4498  159.4537 N   0  0  0  0  0  0  0  0  0  0  0  0
  151.9586  139.2787  158.6516 C   0  0  0  0  0  0  0  0  0  0  0  0
  151.7698  139.6299  157.1626 C   0  0  1  0  0  0  0  0  0  0  0  0
  152.6412  138.7600  156.2363 C   0  0  0  0  0  0  0  0  0  0  0  0
  152.1946  138.9905  154.7892 C   0  0  0  0  0  0  0  0  0  0  0  0
  150.3862  139.2689  154.8702 S   0  0  0  0  0  0  0  0  0  0  0  0
  150.0645  140.5330  154.1908 O   0  0  0  0  0  0  0  0  0  0  0  0
  149.6815  138.0240  154.5284 O   0  0  0  0  0  0  0  0  0  0  0  0
  150.3118  139.5123  156.6852 C   0  0  0  0  0  0  0  0  0  0  0  0
  152.8240  143.2419  159.9747 N   0  0  0  0  0  0  0  0  0  0  0  0
  152.7590  143.7290  158.7334 C   0  0  0  0  0  0  0  0  0  0  0  0
  151.8435  144.6739  158.5720 N   0  0  0  0  0  0  0  0  0  0  0  0
  151.3339  144.7158  159.8388 C   0  0  0  0  0  0  0  0  0  0  0  0
  151.8768  143.8707  160.7147 N   0  0  0  0  0  0  0  0  0  0  0  0
  154.0353  141.1430  162.4071 H   0  0  0  0  0  0  0  0  0  0  0  0
  152.3431  141.5648  162.1720 H   0  0  0  0  0  0  0  0  0  0  0  0
  153.5106  142.8086  162.6046 H   0  0  0  0  0  0  0  0  0  0  0  0
  154.6932  142.5224  160.4558 H   0  0  0  0  0  0  0  0  0  0  0  0
  151.5267  140.9491  159.8768 H   0  0  0  0  0  0  0  0  0  0  0  0
  152.7311  138.5165  158.7674 H   0  0  0  0  0  0  0  0  0  0  0  0
  151.0408  138.8493  159.0544 H   0  0  0  0  0  0  0  0  0  0  0  0
  152.0800  140.6641  157.0065 H   0  0  0  0  0  0  0  0  0  0  0  0
  153.7031  138.9726  156.3632 H   0  0  0  0  0  0  0  0  0  0  0  0
  152.4944  137.7085  156.4870 H   0  0  0  0  0  0  0  0  0  0  0  0
  152.6562  139.8900  154.3810 H   0  0  0  0  0  0  0  0  0  0  0  0
  152.4203  138.1514  154.1309 H   0  0  0  0  0  0  0  0  0  0  0  0
  149.8247  138.6383  157.1180 H   0  0  0  0  0  0  0  0  0  0  0  0
  149.7157  140.3943  156.9200 H   0  0  0  0  0  0  0  0  0  0  0  0
  153.3926  143.3827  157.9300 H   0  0  0  0  0  0  0  0  0  0  0  0
  150.5343  145.3842  160.1223 H   0  0  0  0  0  0  0  0  0  0  0  0
  1  2  1  0  0  0  0
  1 19  1  0  0  0  0
  1 20  1  0  0  0  0
  1 21  1  0  0  0  0
  2  3  1  0  0  0  0
  2 14  1  0  0  0  0
  2 22  1  0  0  0  0
  3  4  2  0  0  0  0
  3  5  1  0  0  0  0
  5  6  1  0  0  0  0
  5 23  1  0  0  0  0
  6  7  1  0  0  0  0
  6 24  1  0  0  0  0
  6 25  1  0  0  0  0
  7 13  1  0  0  0  0
  7  8  1  0  0  0  0
  7 26  1  0  0  0  0
  8  9  1  0  0  0  0
  8 27  1  0  0  0  0
  8 28  1  0  0  0  0
  9 10  1  0  0  0  0
  9 29  1  0  0  0  0
  9 30  1  0  0  0  0
 10 11  2  0  0  0  0
 10 12  2  0  0  0  0
 10 13  1  0  0  0  0
 13 31  1  0  0  0  0
 13 32  1  0  0  0  0
 14 18  1  0  0  0  0
 14 15  1  0  0  0  0
 15 16  2  0  0  0  0
 15 33  1  0  0  0  0
 16 17  1  0  0  0  0
 17 18  2  0  0  0  0
 17 34  1  0  0  0  0
M  END
> <s_m_source_file>
AV-unprocessed.smi

> <i_m_source_file_index>
3002

> <i_lp_mmshare_version>
43012

> <i_f3d_flags>
0

> <s_epik_input>
bjFbY0hdbltjSF1uMVtDQEhdKFtDSDNdKUMoPU8pW05IXVtDSDJdW0NAQEhdKFtDSDJdMilbQ0gyXVtDSDJdUzIoPU8pPU8=

> <s_epik_cmdline>
J2VwaWtfcHl0aG9uJywgJy1waCcsICc3LjAnLCAnLXRuJywgJzgnLCAnLW1hJywgJzIwMCcsICctbWV0YWxfYmluZGluZycsICctaW1hZScsICc8aW5maWxlLm1hZT4nLCAnLW9tYWUnLCAnPG91dGZpbGUubWFlPic=

> <r_lp_tautomer_probability>
1

> <r_epik_Ionization_Penalty>
1.1748e-05

> <r_epik_Ionization_Penalty_Charging>
0

> <r_epik_Ionization_Penalty_Neutral>
1.1748e-05

> <r_epik_State_Penalty>
-0

> <r_epik_Charging_Adjusted_Penalty>
0

> <i_epik_Tot_Q>
0

> <i_epik_Tot_abs_Q>
0

> <r_epik_Metal_State_Penalty>
-0

> <b_epik_Metal_Only>
0

> <s_lp_Force_Field>
OPLS_2005

> <r_lp_Energy>
7.1985

> <b_lp_Chiralities_Consistent>
1

> <s_lp_Variant>
AV-unprocessed.smi:3002-4

> <Gold.Version>
5.8.1

> <Gold.Id.Protein>
6NUR|6NUR_protein|mol2

> <Gold.PLP.Fitness>
40.3453

> <Gold.PLP.PLP>
-37.3529

> <Gold.PLP.part.hbond>
-1.9960

> <Gold.PLP.part.metal>
0.0000

> <Gold.PLP.part.buried>
-5.9953

> <Gold.PLP.part.nonpolar>
-29.9139

> <Gold.PLP.part.repulsive>
1.1055

> <Gold.PLP.ligand.clash>
0.0000

> <Gold.PLP.ligand.torsion>
1.0998

> <Gold.PLP.Chemscore.Hbond>
1.6960

> <Gold.PLP.Chemscore.CHOScore>
0.0000

> <Gold.PLP.Chemscore.Metal>
0.0000

> <Gold.Chemscore.Hbonds>
donor molecule, donor type, donor heavy atom, donor atom, acceptor molecule, acceptor atom, score
      P1  H  7989  7998       L1    11  0.78
      P1  H  7997  8009       L1     4  0.83

> <Gold.PLP.Chemscore.Internal.Correction>
0.1040

> <Gold.Rescore>
     Score         DG    S(hbond)    S(metal)    S(lipo)     H(rot)  DE(clash)    DE(int)     intcor
      9.89     -11.28       1.86        0.00      48.88       2.39       0.17       1.22       ----

> <Gold.Chemscore.Fitness>
9.8889

> <Gold.Chemscore.DG>
-11.2803

> <Gold.Chemscore.ZeroCoef>
-5.4800

> <Gold.Chemscore.Hbond>
1.8596

> <Gold.Chemscore.Metal>
0.0000

> <Gold.Chemscore.Lipo>
48.8847

> <Gold.Chemscore.Internal_Hbond>
0.0000

> <Gold.Chemscore.DEClash>
0.1682

> <Gold.Chemscore.DEInternal>
1.2232

> <Gold.Chemscore.Rot>
2.3946

> <Gold.Chemscore.Internal.Correction>
   9.000000E+99

> <Gold.Chemscore.Hbonds>
donor molecule, donor type, donor heavy atom, donor atom, acceptor molecule, acceptor atom, score
      P1  H  7989  7998       L1    11  0.20
      P1  H  7997  8009       L1     4  0.81

> <Gold.Chemscore.Hbond.Weighted>
-6.2109

> <Gold.Chemscore.Metal.Weighted>
-0.0000

> <Gold.Chemscore.Lipo.Weighted>
-5.7195

> <Gold.Chemscore.Internal_Hbond.Weighted>
0.0000

> <Gold.Chemscore.DEClash.Weighted>
0.1682

> <Gold.Chemscore.DEInternal.Weighted>
1.2232

> <Gold.Chemscore.Rot.Weighted>
6.1301

> <Gold.Chemscore.Internal.Correction.Weighted>
   9.000000E+99

> <Gold.Protein.RotatedTorsions>
[ 6907 6896 6895 6894 ] final  -88.35 input  -60.11 | X-H torsion
[ 7974 7965 7964 7962 ] final -110.53 input  175.53 | X-H torsion
[ 8008 7997 7996 7995 ] final  125.27 input   59.86 | X-H torsion
[ 10167 10162 10161 10158 ] final  -35.76 input  -65.29 | X-H torsion
[ 10718 10713 10712 10709 ] final  -32.64 input   66.30 | X-H torsion
[ 10763 10752 10751 10750 ] final  -57.11 input  -60.55 | X-H torsion
[ 11005 11000 10999 10996 ] final  154.00 input  -57.11 | X-H torsion

> <Gold.Protein.ActiveResidues>
 VAL166  LYS551  ARG553  GLY616  TRP617  ASP618  TYR619  PRO620  LYS621  CYS622 
 ASP623  PHE694  ASN695  SER759  ASP760  ASP761  ALA762  ILE779  LEU786  VAL792 
 PHE793  MET794  SER795  GLU796  ALA797  LYS798  CYS799  TRP800  GLU811  SER814 

> <Gold.Protein.RotatedAtoms>
  150.6868  134.2755  159.4605 H   0  0  0  0  0  0  0  0  0  0  0  0  # atno 6907 bound_to 6896
  152.0674  134.9553  160.0584 H   0  0  0  0  0  0  0  0  0  0  0  0  # atno 6908 bound_to 6896
  152.0956  133.4188  159.4600 H   0  0  0  0  0  0  0  0  0  0  0  0  # atno 6909 bound_to 6896
  145.1672  140.8908  143.3556 H   0  0  0  0  0  0  0  0  0  0  0  0  # atno 7974 bound_to 7965
  156.2828  140.2720  156.1922 H   0  0  0  0  0  0  0  0  0  0  0  0  # atno 8008 bound_to 7997
  155.0447  140.0386  157.2540 H   0  0  0  0  0  0  0  0  0  0  0  0  # atno 8009 bound_to 7997
  154.7245  140.2694  155.6517 H   0  0  0  0  0  0  0  0  0  0  0  0  # atno 8010 bound_to 7997
  140.7158  143.3455  151.2265 H   0  0  0  0  0  0  0  0  0  0  0  0  # atno 10167 bound_to 10162
  156.3724  130.4342  149.7534 H   0  0  0  0  0  0  0  0  0  0  0  0  # atno 10718 bound_to 10713
  154.2172  135.6384  153.5133 H   0  0  0  0  0  0  0  0  0  0  0  0  # atno 10763 bound_to 10752
  152.9976  135.5488  154.6152 H   0  0  0  0  0  0  0  0  0  0  0  0  # atno 10764 bound_to 10752
  154.5603  135.2908  155.0899 H   0  0  0  0  0  0  0  0  0  0  0  0  # atno 10765 bound_to 10752
  140.1449  134.8714  157.2380 H   0  0  0  0  0  0  0  0  0  0  0  0  # atno 11005 bound_to 11000
  145.0270  139.3374  143.6043 LP  0  0  0  0  0  0  0  0  0  0  0  0  # atno 17320 bound_to 7965
  146.3474  139.9593  142.8719 LP  0  0  0  0  0  0  0  0  0  0  0  0  # atno 17321 bound_to 7965
  139.6973  143.9591  152.2889 LP  0  0  0  0  0  0  0  0  0  0  0  0  # atno 17342 bound_to 10162
  139.9272  144.6763  150.8400 LP  0  0  0  0  0  0  0  0  0  0  0  0  # atno 17343 bound_to 10162
  156.4656  130.7972  151.2992 LP  0  0  0  0  0  0  0  0  0  0  0  0  # atno 17370 bound_to 10713
  157.7485  131.0052  150.3104 LP  0  0  0  0  0  0  0  0  0  0  0  0  # atno 17371 bound_to 10713
  140.2676  134.3498  155.7385 LP  0  0  0  0  0  0  0  0  0  0  0  0  # atno 17394 bound_to 11000
  141.2191  133.7404  156.9174 LP  0  0  0  0  0  0  0  0  0  0  0  0  # atno 17395 bound_to 11000

$$$$
