AV-unprocessed.smi:1527|AV-procd|sdf|6148|dock10
  -GOLD-   22720 6293D 1   1.00000     0.00000
 Structure written by MMmdl.
 30 30  0  0  0  0  0  0  0  0  2 V2000
  152.6724  142.7555  161.8261 C   0  0  0  0  0  0  0  0  0  0  0  0
  152.4269  143.0679  160.3427 C   0  0  0  0  0  0  0  0  0  0  0  0
  152.2653  144.5707  160.0443 C   0  0  1  0  0  0  0  0  0  0  0  0
  152.1673  144.8439  158.5369 C   0  0  0  0  0  0  0  0  0  0  0  0
  151.0744  145.0968  160.7090 N   0  0  0  0  0  0  0  0  0  0  0  0
  149.8055  144.7341  160.4629 C   0  0  0  0  0  0  0  0  0  0  0  0
  149.4943  143.8895  159.6215 O   0  0  0  0  0  0  0  0  0  0  0  0
  148.7409  145.4522  161.3077 C   0  0  0  0  0  0  0  0  0  0  0  0
  147.3553  145.1241  160.9416 N   0  0  0  0  0  0  0  0  0  0  0  0
  146.9970  143.7294  161.1845 N   0  5  0  0  0  0  0  0  0  0  0  0
  145.7336  143.3119  160.9062 C   0  0  0  0  0  0  0  0  0  0  0  0
  145.3552  142.1590  161.0997 O   0  0  0  0  0  0  0  0  0  0  0  0
  144.7997  144.2785  160.3526 C   0  0  0  0  0  0  0  0  0  0  0  0
  145.1651  145.5539  160.1158 C   0  0  0  0  0  0  0  0  0  0  0  0
  146.5072  146.0461  160.4020 C   0  0  0  0  0  0  0  0  0  0  0  0
  146.8512  147.2071  160.1789 O   0  0  0  0  0  0  0  0  0  0  0  0
  152.8306  141.6875  161.9756 H   0  0  0  0  0  0  0  0  0  0  0  0
  151.8247  143.0518  162.4446 H   0  0  0  0  0  0  0  0  0  0  0  0
  153.5552  143.2774  162.1964 H   0  0  0  0  0  0  0  0  0  0  0  0
  153.2646  142.6777  159.7637 H   0  0  0  0  0  0  0  0  0  0  0  0
  151.5440  142.5257  160.0017 H   0  0  0  0  0  0  0  0  0  0  0  0
  153.1584  145.0789  160.4118 H   0  0  0  0  0  0  0  0  0  0  0  0
  153.0540  144.4837  158.0147 H   0  0  0  0  0  0  0  0  0  0  0  0
  152.0797  145.9124  158.3369 H   0  0  0  0  0  0  0  0  0  0  0  0
  151.2992  144.3501  158.0985 H   0  0  0  0  0  0  0  0  0  0  0  0
  151.2268  145.8030  161.4141 H   0  0  0  0  0  0  0  0  0  0  0  0
  148.9094  145.2154  162.3596 H   0  0  0  0  0  0  0  0  0  0  0  0
  148.9071  146.5277  161.2216 H   0  0  0  0  0  0  0  0  0  0  0  0
  143.7913  143.9660  160.1240 H   0  0  0  0  0  0  0  0  0  0  0  0
  144.4385  146.2374  159.7025 H   0  0  0  0  0  0  0  0  0  0  0  0
  1  2  1  0  0  0  0
  1 17  1  0  0  0  0
  1 18  1  0  0  0  0
  1 19  1  0  0  0  0
  2  3  1  0  0  0  0
  2 20  1  0  0  0  0
  2 21  1  0  0  0  0
  3  4  1  0  0  0  0
  3  5  1  0  0  0  0
  3 22  1  0  0  0  0
  4 23  1  0  0  0  0
  4 24  1  0  0  0  0
  4 25  1  0  0  0  0
  5  6  1  0  0  0  0
  5 26  1  0  0  0  0
  6  7  2  0  0  0  0
  6  8  1  0  0  0  0
  8 27  1  0  0  0  0
  8 28  1  0  0  0  0
  8  9  1  0  0  0  0
  9 10  1  0  0  0  0
  9 15  1  0  0  0  0
 10 11  1  0  0  0  0
 11 12  2  0  0  0  0
 11 13  1  0  0  0  0
 13 29  1  0  0  0  0
 13 14  2  0  0  0  0
 14 30  1  0  0  0  0
 14 15  1  0  0  0  0
 15 16  2  0  0  0  0
M  CHG  1  10  -1
M  END
> <s_m_source_file>
AV-unprocessed.smi

> <i_m_source_file_index>
1527

> <i_lp_mmshare_version>
43012

> <i_f3d_flags>
0

> <s_epik_input>
W0NIM11bQ0gyXVtDQEhdKFtDSDNdKVtOSF1DKD1PKVtDSDJdbjFbbkhdYyg9TylbY0hdW2NIXWMxPU8=

> <s_epik_cmdline>
J2VwaWtfcHl0aG9uJywgJy1waCcsICc3LjAnLCAnLXRuJywgJzgnLCAnLW1hJywgJzIwMCcsICctbWV0YWxfYmluZGluZycsICctaW1hZScsICc8aW5maWxlLm1hZT4nLCAnLW9tYWUnLCAnPG91dGZpbGUubWFlPic=

> <r_lp_tautomer_probability>
1

> <r_epik_Ionization_Penalty>
0.0984334

> <r_epik_Ionization_Penalty_Charging>
0.0984334

> <r_epik_Ionization_Penalty_Neutral>
1.93017e-08

> <r_epik_State_Penalty>
0.0346952

> <r_epik_Charging_Adjusted_Penalty>
0.133129

> <i_epik_Tot_Q>
-1

> <i_epik_Tot_abs_Q>
1

> <r_epik_Metal_State_Penalty>
0.0346952

> <b_epik_Metal_Only>
0

> <s_lp_Force_Field>
OPLS_2005

> <r_lp_Energy>
18.954

> <b_lp_Chiralities_Consistent>
1

> <s_lp_Variant>
AV-unprocessed.smi:1527-2

> <Gold.Version>
5.8.1

> <Gold.Id.Protein>
6NUR|6NUR_protein|mol2

> <Gold.PLP.Fitness>
47.9871

> <Gold.PLP.PLP>
-39.7299

> <Gold.PLP.part.hbond>
-5.7196

> <Gold.PLP.part.metal>
0.0000

> <Gold.PLP.part.buried>
-5.8329

> <Gold.PLP.part.nonpolar>
-28.0660

> <Gold.PLP.part.repulsive>
0.5486

> <Gold.PLP.ligand.clash>
0.0000

> <Gold.PLP.ligand.torsion>
0.0767

> <Gold.PLP.Chemscore.Hbond>
2.8000

> <Gold.PLP.Chemscore.CHOScore>
0.0000

> <Gold.PLP.Chemscore.Metal>
0.0000

> <Gold.Chemscore.Hbonds>
donor molecule, donor type, donor heavy atom, donor atom, acceptor molecule, acceptor atom, score
      P1  H  6933  6944       L1    10  1.95
      P1  H  6934  6946       L1    12  0.95

> <Gold.PLP.Chemscore.Internal.Correction>
0.0106

> <Gold.Rescore>
     Score         DG    S(hbond)    S(metal)    S(lipo)     H(rot)  DE(clash)    DE(int)     intcor
     11.78     -14.28       1.80        0.00      66.49       1.94       0.50       1.99       ----

> <Gold.Chemscore.Fitness>
11.7818

> <Gold.Chemscore.DG>
-14.2777

> <Gold.Chemscore.ZeroCoef>
-5.4800

> <Gold.Chemscore.Hbond>
1.7955

> <Gold.Chemscore.Metal>
0.0000

> <Gold.Chemscore.Lipo>
66.4929

> <Gold.Chemscore.Internal_Hbond>
0.0000

> <Gold.Chemscore.DEClash>
0.5018

> <Gold.Chemscore.DEInternal>
1.9941

> <Gold.Chemscore.Rot>
1.9449

> <Gold.Chemscore.Internal.Correction>
   9.000000E+99

> <Gold.Chemscore.Hbonds>
donor molecule, donor type, donor heavy atom, donor atom, acceptor molecule, acceptor atom, score
      P1  H  6933  6944       L1    10  0.86
      P1  H  6934  6946       L1    12  0.63

> <Gold.Chemscore.Hbond.Weighted>
-5.9971

> <Gold.Chemscore.Metal.Weighted>
-0.0000

> <Gold.Chemscore.Lipo.Weighted>
-7.7797

> <Gold.Chemscore.Internal_Hbond.Weighted>
0.0000

> <Gold.Chemscore.DEClash.Weighted>
0.5018

> <Gold.Chemscore.DEInternal.Weighted>
1.9941

> <Gold.Chemscore.Rot.Weighted>
4.9791

> <Gold.Chemscore.Internal.Correction.Weighted>
   9.000000E+99

> <Gold.Protein.RotatedTorsions>
[ 6907 6896 6895 6894 ] final   -7.41 input  -60.11 | X-H torsion
[ 7974 7965 7964 7962 ] final -122.90 input  175.53 | X-H torsion
[ 8008 7997 7996 7995 ] final  150.16 input   59.86 | X-H torsion
[ 10167 10162 10161 10158 ] final -168.79 input  -65.29 | X-H torsion
[ 10718 10713 10712 10709 ] final  120.66 input   66.30 | X-H torsion
[ 10763 10752 10751 10750 ] final   93.38 input  -60.55 | X-H torsion
[ 11005 11000 10999 10996 ] final  -33.26 input  -57.11 | X-H torsion

> <Gold.Protein.ActiveResidues>
 VAL166  LYS551  ARG553  GLY616  TRP617  ASP618  TYR619  PRO620  LYS621  CYS622 
 ASP623  PHE694  ASN695  SER759  ASP760  ASP761  ALA762  ILE779  LEU786  VAL792 
 PHE793  MET794  SER795  GLU796  ALA797  LYS798  CYS799  TRP800  GLU811  SER814 

> <Gold.Protein.RotatedAtoms>
  151.4500  135.1029  159.9694 H   0  0  0  0  0  0  0  0  0  0  0  0  # atno 6907 bound_to 6896
  152.4892  133.8449  159.7182 H   0  0  0  0  0  0  0  0  0  0  0  0  # atno 6908 bound_to 6896
  150.9028  133.7036  159.2901 H   0  0  0  0  0  0  0  0  0  0  0  0  # atno 6909 bound_to 6896
  145.0245  140.8016  143.4361 H   0  0  0  0  0  0  0  0  0  0  0  0  # atno 7974 bound_to 7965
  156.2727  140.2082  156.5973 H   0  0  0  0  0  0  0  0  0  0  0  0  # atno 8008 bound_to 7997
  154.6935  140.0528  157.0410 H   0  0  0  0  0  0  0  0  0  0  0  0  # atno 8009 bound_to 7997
  155.0834  140.3189  155.4598 H   0  0  0  0  0  0  0  0  0  0  0  0  # atno 8010 bound_to 7997
  139.5963  144.1105  152.1693 H   0  0  0  0  0  0  0  0  0  0  0  0  # atno 10167 bound_to 10162
  157.5874  131.1068  150.8066 H   0  0  0  0  0  0  0  0  0  0  0  0  # atno 10718 bound_to 10713
  153.2297  135.4327  155.0581 H   0  0  0  0  0  0  0  0  0  0  0  0  # atno 10763 bound_to 10752
  154.8290  135.3376  154.6806 H   0  0  0  0  0  0  0  0  0  0  0  0  # atno 10764 bound_to 10752
  153.7234  135.7015  153.5063 H   0  0  0  0  0  0  0  0  0  0  0  0  # atno 10765 bound_to 10752
  140.9620  133.7159  156.1385 H   0  0  0  0  0  0  0  0  0  0  0  0  # atno 11005 bound_to 11000
  145.1852  139.2330  143.5271 LP  0  0  0  0  0  0  0  0  0  0  0  0  # atno 17320 bound_to 7965
  146.3490  140.1635  142.8590 LP  0  0  0  0  0  0  0  0  0  0  0  0  # atno 17321 bound_to 7965
  140.0691  144.5794  150.7205 LP  0  0  0  0  0  0  0  0  0  0  0  0  # atno 17342 bound_to 10162
  140.7214  143.2593  151.4265 LP  0  0  0  0  0  0  0  0  0  0  0  0  # atno 17343 bound_to 10162
  156.8497  130.5076  149.5313 LP  0  0  0  0  0  0  0  0  0  0  0  0  # atno 17370 bound_to 10713
  156.0925  130.5907  150.9757 LP  0  0  0  0  0  0  0  0  0  0  0  0  # atno 17371 bound_to 10713
  140.7453  134.4104  157.5549 LP  0  0  0  0  0  0  0  0  0  0  0  0  # atno 17394 bound_to 11000
  139.8881  134.8864  156.2490 LP  0  0  0  0  0  0  0  0  0  0  0  0  # atno 17395 bound_to 11000

$$$$
