AV-unprocessed.smi:1860|AV-procd|sdf|7547|dock4
  -GOLD-   22720 9263D 1   1.00000     0.00000
 Structure written by MMmdl.
 31 32  0  0  0  0  0  0  0  0  1 V2000
  146.7277  138.7809  152.4875 C   0  0  0  0  0  0  0  0  0  0  0  0
  147.1148  140.0129  153.3161 C   0  0  0  0  0  0  0  0  0  0  0  0
  148.5212  139.9789  153.6980 N   0  0  0  0  0  0  0  0  0  0  0  0
  148.9845  139.6320  154.9092 C   0  0  0  0  0  0  0  0  0  0  0  0
  148.2557  139.3167  155.8497 O   0  0  0  0  0  0  0  0  0  0  0  0
  150.5034  139.6374  155.0866 C   0  0  0  0  0  0  0  0  0  0  0  0
  150.8999  140.6602  156.1113 C   0  0  0  0  0  0  0  0  0  0  0  0
  150.5290  141.9826  156.1424 C   0  0  0  0  0  0  0  0  0  0  0  0
  151.2161  142.8227  157.5052 S   0  0  0  0  0  0  0  0  0  0  0  0
  151.9918  141.3153  158.0000 C   0  0  0  0  0  0  0  0  0  0  0  0
  152.8242  141.1272  159.1431 N   0  0  0  0  0  0  0  0  0  0  0  0
  152.8561  142.0940  160.2361 C   0  0  0  0  0  0  0  0  0  0  0  0
  153.8618  141.5025  161.2188 C   0  0  0  0  0  0  0  0  0  0  0  0
  154.2596  140.2859  160.5509 N   0  0  0  0  0  0  0  0  0  0  0  0
  153.6582  140.0939  159.3747 C   0  0  0  0  0  0  0  0  0  0  0  0
  153.8600  139.1206  158.6510 O   0  0  0  0  0  0  0  0  0  0  0  0
  151.7283  140.2942  157.1775 N   0  0  0  0  0  0  0  0  0  0  0  0
  145.6831  138.8342  152.1803 H   0  0  0  0  0  0  0  0  0  0  0  0
  146.8580  137.8611  153.0583 H   0  0  0  0  0  0  0  0  0  0  0  0
  147.3359  138.7048  151.5857 H   0  0  0  0  0  0  0  0  0  0  0  0
  146.9430  140.9172  152.7321 H   0  0  0  0  0  0  0  0  0  0  0  0
  146.4823  140.0903  154.2017 H   0  0  0  0  0  0  0  0  0  0  0  0
  149.1934  140.2234  152.9855 H   0  0  0  0  0  0  0  0  0  0  0  0
  150.8412  138.6436  155.3831 H   0  0  0  0  0  0  0  0  0  0  0  0
  150.9747  139.8468  154.1252 H   0  0  0  0  0  0  0  0  0  0  0  0
  149.8984  142.5135  155.4450 H   0  0  0  0  0  0  0  0  0  0  0  0
  153.1784  143.0723  159.8766 H   0  0  0  0  0  0  0  0  0  0  0  0
  151.8691  142.1966  160.6893 H   0  0  0  0  0  0  0  0  0  0  0  0
  154.7215  142.1564  161.3696 H   0  0  0  0  0  0  0  0  0  0  0  0
  153.4091  141.2798  162.1855 H   0  0  0  0  0  0  0  0  0  0  0  0
  154.9331  139.6467  160.9476 H   0  0  0  0  0  0  0  0  0  0  0  0
  1  2  1  0  0  0  0
  1 18  1  0  0  0  0
  1 19  1  0  0  0  0
  1 20  1  0  0  0  0
  2  3  1  0  0  0  0
  2 21  1  0  0  0  0
  2 22  1  0  0  0  0
  3  4  1  0  0  0  0
  3 23  1  0  0  0  0
  4  5  2  0  0  0  0
  4  6  1  0  0  0  0
  6  7  1  0  0  0  0
  6 24  1  0  0  0  0
  6 25  1  0  0  0  0
  7 17  1  0  0  0  0
  7  8  2  0  0  0  0
  8  9  1  0  0  0  0
  8 26  1  0  0  0  0
  9 10  1  0  0  0  0
 10 11  1  0  0  0  0
 10 17  2  0  0  0  0
 11 15  1  0  0  0  0
 11 12  1  0  0  0  0
 12 13  1  0  0  0  0
 12 27  1  0  0  0  0
 12 28  1  0  0  0  0
 13 14  1  0  0  0  0
 13 29  1  0  0  0  0
 13 30  1  0  0  0  0
 14 15  1  0  0  0  0
 14 31  1  0  0  0  0
 15 16  2  0  0  0  0
M  END
> <s_m_source_file>
AV-unprocessed.smi

> <i_m_source_file_index>
1860

> <i_lp_mmshare_version>
43012

> <i_f3d_flags>
0

> <s_epik_input>
W0NIM11bQ0gyXVtOSF1DKD1PKVtDSDJdYzFbY0hdc2MobjEpTjJbQ0gyXVtDSDJdW05IXUMyPU8=

> <s_epik_cmdline>
J2VwaWtfcHl0aG9uJywgJy1waCcsICc3LjAnLCAnLXRuJywgJzgnLCAnLW1hJywgJzIwMCcsICctbWV0YWxfYmluZGluZycsICctaW1hZScsICc8aW5maWxlLm1hZT4nLCAnLW9tYWUnLCAnPG91dGZpbGUubWFlPic=

> <r_lp_tautomer_probability>
1

> <r_epik_Ionization_Penalty>
0.000119829

> <r_epik_Ionization_Penalty_Charging>
0

> <r_epik_Ionization_Penalty_Neutral>
0.000119829

> <r_epik_State_Penalty>
-0

> <r_epik_Charging_Adjusted_Penalty>
0

> <i_epik_Tot_Q>
0

> <i_epik_Tot_abs_Q>
0

> <r_epik_Metal_State_Penalty>
-0

> <b_epik_Metal_Only>
0

> <s_lp_Force_Field>
OPLS_2005

> <r_lp_Energy>
29.5586

> <b_lp_Chiralities_Consistent>
1

> <s_lp_Variant>
AV-unprocessed.smi:1860-1

> <Gold.Version>
5.8.1

> <Gold.Id.Protein>
6NUR|6NUR_protein|mol2

> <Gold.PLP.Fitness>
41.6046

> <Gold.PLP.PLP>
-33.8637

> <Gold.PLP.part.hbond>
-2.0000

> <Gold.PLP.part.metal>
0.0000

> <Gold.PLP.part.buried>
-2.7741

> <Gold.PLP.part.nonpolar>
-29.4417

> <Gold.PLP.part.repulsive>
0.1639

> <Gold.PLP.ligand.clash>
0.0000

> <Gold.PLP.ligand.torsion>
0.3212

> <Gold.PLP.Chemscore.Hbond>
1.8160

> <Gold.PLP.Chemscore.CHOScore>
0.9775

> <Gold.PLP.Chemscore.Metal>
0.0000

> <Gold.Chemscore.Hbonds>
donor molecule, donor type, donor heavy atom, donor atom, acceptor molecule, acceptor atom, score
      L1  H     3    23       P1  7957  0.88
      P1  H  7997  8010       L1    16  0.95
      L1  C     8    26       P1  8028  0.99

> <Gold.PLP.Chemscore.Internal.Correction>
0.0029

> <Gold.Rescore>
     Score         DG    S(hbond)    S(metal)    S(lipo)     H(rot)  DE(clash)    DE(int)     intcor
     13.22     -15.38       1.88        0.00      66.35       1.62       0.45       1.71       ----

> <Gold.Chemscore.Fitness>
13.2224

> <Gold.Chemscore.DG>
-15.3824

> <Gold.Chemscore.ZeroCoef>
-5.4800

> <Gold.Chemscore.Hbond>
1.8846

> <Gold.Chemscore.Metal>
0.0000

> <Gold.Chemscore.Lipo>
66.3508

> <Gold.Chemscore.Internal_Hbond>
0.0000

> <Gold.Chemscore.DEClash>
0.4514

> <Gold.Chemscore.DEInternal>
1.7087

> <Gold.Chemscore.Rot>
1.6231

> <Gold.Chemscore.Internal.Correction>
   9.000000E+99

> <Gold.Chemscore.Hbonds>
donor molecule, donor type, donor heavy atom, donor atom, acceptor molecule, acceptor atom, score
      L1  H     3    23       P1  7957  0.86
      P1  H  7997  8010       L1    16  0.21

> <Gold.Chemscore.Hbond.Weighted>
-6.2947

> <Gold.Chemscore.Metal.Weighted>
-0.0000

> <Gold.Chemscore.Lipo.Weighted>
-7.7630

> <Gold.Chemscore.Internal_Hbond.Weighted>
0.0000

> <Gold.Chemscore.DEClash.Weighted>
0.4514

> <Gold.Chemscore.DEInternal.Weighted>
1.7087

> <Gold.Chemscore.Rot.Weighted>
4.1553

> <Gold.Chemscore.Internal.Correction.Weighted>
   9.000000E+99

> <Gold.Protein.RotatedTorsions>
[ 6907 6896 6895 6894 ] final   36.55 input  -60.11 | X-H torsion
[ 7974 7965 7964 7962 ] final   48.97 input  175.53 | X-H torsion
[ 8008 7997 7996 7995 ] final   14.26 input   59.86 | X-H torsion
[ 10167 10162 10161 10158 ] final  157.44 input  -65.29 | X-H torsion
[ 10718 10713 10712 10709 ] final  149.75 input   66.30 | X-H torsion
[ 10763 10752 10751 10750 ] final -100.81 input  -60.55 | X-H torsion
[ 11005 11000 10999 10996 ] final   76.21 input  -57.11 | X-H torsion

> <Gold.Protein.ActiveResidues>
 VAL166  LYS551  ARG553  GLY616  TRP617  ASP618  TYR619  PRO620  LYS621  CYS622 
 ASP623  PHE694  ASN695  SER759  ASP760  ASP761  ALA762  ILE779  LEU786  VAL792 
 PHE793  MET794  SER795  GLU796  ALA797  LYS798  CYS799  TRP800  GLU811  SER814 

> <Gold.Protein.RotatedAtoms>
  152.1313  134.9133  160.0558 H   0  0  0  0  0  0  0  0  0  0  0  0  # atno 6907 bound_to 6896
  152.0236  133.3903  159.4276 H   0  0  0  0  0  0  0  0  0  0  0  0  # atno 6908 bound_to 6896
  150.6856  134.3520  159.4957 H   0  0  0  0  0  0  0  0  0  0  0  0  # atno 6909 bound_to 6896
  146.0153  139.4589  142.9931 H   0  0  0  0  0  0  0  0  0  0  0  0  # atno 7974 bound_to 7965
  154.8460  140.2922  155.5628 H   0  0  0  0  0  0  0  0  0  0  0  0  # atno 8008 bound_to 7997
  156.3014  140.2505  156.3343 H   0  0  0  0  0  0  0  0  0  0  0  0  # atno 8009 bound_to 7997
  154.9073  140.0389  157.1916 H   0  0  0  0  0  0  0  0  0  0  0  0  # atno 8010 bound_to 7997
  139.4823  144.4917  151.8299 H   0  0  0  0  0  0  0  0  0  0  0  0  # atno 10167 bound_to 10162
  157.2922  131.0855  151.1454 H   0  0  0  0  0  0  0  0  0  0  0  0  # atno 10718 bound_to 10713
  154.7609  135.4921  153.9462 H   0  0  0  0  0  0  0  0  0  0  0  0  # atno 10763 bound_to 10752
  153.1250  135.6740  153.9280 H   0  0  0  0  0  0  0  0  0  0  0  0  # atno 10764 bound_to 10752
  153.9000  135.3111  155.3427 H   0  0  0  0  0  0  0  0  0  0  0  0  # atno 10765 bound_to 10752
  139.9308  134.7582  156.1368 H   0  0  0  0  0  0  0  0  0  0  0  0  # atno 11005 bound_to 11000
  145.7278  141.0053  143.1368 LP  0  0  0  0  0  0  0  0  0  0  0  0  # atno 17320 bound_to 7965
  144.6968  139.8948  143.7455 LP  0  0  0  0  0  0  0  0  0  0  0  0  # atno 17321 bound_to 7965
  140.4402  144.1997  150.5891 LP  0  0  0  0  0  0  0  0  0  0  0  0  # atno 17342 bound_to 10162
  140.4691  143.2419  151.9114 LP  0  0  0  0  0  0  0  0  0  0  0  0  # atno 17343 bound_to 10162
  157.2846  130.6766  149.6083 LP  0  0  0  0  0  0  0  0  0  0  0  0  # atno 17370 bound_to 10713
  155.9667  130.4439  150.5441 LP  0  0  0  0  0  0  0  0  0  0  0  0  # atno 17371 bound_to 10713
  141.0895  133.6720  156.2510 LP  0  0  0  0  0  0  0  0  0  0  0  0  # atno 17394 bound_to 11000
  140.6207  134.5364  157.5547 LP  0  0  0  0  0  0  0  0  0  0  0  0  # atno 17395 bound_to 11000

$$$$
