AV-unprocessed.smi:2163|AV-procd|sdf|8804|dock7
  -GOLD-   2272011593D 1   1.00000     0.00000
 Structure written by MMmdl.
 43 45  0  0  0  0  0  0  0  0  1 V2000
  152.0853  139.7568  157.4697 C   0  0  0  0  0  0  0  0  0  0  0  0
  151.9040  141.0872  158.1291 C   0  0  0  0  0  0  0  0  0  0  0  0
  150.8579  141.8721  157.8695 N   0  0  0  0  0  0  0  0  0  0  0  0
  151.0899  142.9651  158.6823 C   0  0  0  0  0  0  0  0  0  0  0  0
  150.3400  144.1485  158.8675 C   0  0  0  0  0  0  0  0  0  0  0  0
  150.7818  145.1398  159.7684 C   0  0  0  0  0  0  0  0  0  0  0  0
  151.9768  144.9626  160.4957 C   0  0  0  0  0  0  0  0  0  0  0  0
  152.7398  143.7914  160.3253 C   0  0  0  0  0  0  0  0  0  0  0  0
  152.2945  142.8058  159.4242 C   0  0  0  0  0  0  0  0  0  0  0  0
  152.7963  141.5703  159.0287 N   0  0  0  0  0  0  0  0  0  0  0  0
  154.0249  140.9520  159.5072 C   0  0  0  0  0  0  0  0  0  0  0  0
  153.8897  140.4042  160.9418 C   0  0  2  0  0  0  0  0  0  0  0  0
  154.2262  141.4104  161.8761 O   0  0  0  0  0  0  0  0  0  0  0  0
  154.7892  139.1845  161.1890 C   0  0  0  0  0  0  0  0  0  0  0  0
  154.6082  138.7502  162.5304 O   0  0  0  0  0  0  0  0  0  0  0  0
  154.5649  137.3958  162.7804 C   0  0  0  0  0  0  0  0  0  0  0  0
  154.9145  136.3978  161.8357 C   0  0  0  0  0  0  0  0  0  0  0  0
  154.8415  135.0338  162.1802 C   0  0  0  0  0  0  0  0  0  0  0  0
  154.4201  134.6480  163.4677 C   0  0  0  0  0  0  0  0  0  0  0  0
  154.3470  133.1818  163.8393 C   0  0  0  0  0  0  0  0  0  0  0  0
  155.0079  132.9061  165.1239 C   0  0  0  0  0  0  0  0  0  0  0  0
  155.5280  132.6893  166.1344 N   0  0  0  0  0  0  0  0  0  0  0  0
  154.0719  135.6343  164.4108 C   0  0  0  0  0  0  0  0  0  0  0  0
  154.1448  136.9973  164.0660 C   0  0  0  0  0  0  0  0  0  0  0  0
  151.2869  139.5741  156.7497 H   0  0  0  0  0  0  0  0  0  0  0  0
  152.0637  138.9611  158.2146 H   0  0  0  0  0  0  0  0  0  0  0  0
  153.0380  139.7216  156.9412 H   0  0  0  0  0  0  0  0  0  0  0  0
  149.4232  144.2934  158.3157 H   0  0  0  0  0  0  0  0  0  0  0  0
  150.2008  146.0404  159.9023 H   0  0  0  0  0  0  0  0  0  0  0  0
  152.3077  145.7264  161.1843 H   0  0  0  0  0  0  0  0  0  0  0  0
  153.6558  143.6517  160.8798 H   0  0  0  0  0  0  0  0  0  0  0  0
  154.2790  140.1431  158.8213 H   0  0  0  0  0  0  0  0  0  0  0  0
  154.8459  141.6664  159.4465 H   0  0  0  0  0  0  0  0  0  0  0  0
  152.8534  140.1201  161.1293 H   0  0  0  0  0  0  0  0  0  0  0  0
  153.7949  142.2115  161.6200 H   0  0  0  0  0  0  0  0  0  0  0  0
  154.5420  138.3870  160.4860 H   0  0  0  0  0  0  0  0  0  0  0  0
  155.8339  139.4608  161.0349 H   0  0  0  0  0  0  0  0  0  0  0  0
  155.2437  136.6525  160.8401 H   0  0  0  0  0  0  0  0  0  0  0  0
  155.1127  134.2832  161.4523 H   0  0  0  0  0  0  0  0  0  0  0  0
  153.3058  132.8666  163.9117 H   0  0  0  0  0  0  0  0  0  0  0  0
  154.8211  132.5733  163.0688 H   0  0  0  0  0  0  0  0  0  0  0  0
  153.7498  135.3477  165.4013 H   0  0  0  0  0  0  0  0  0  0  0  0
  153.8751  137.7458  164.7967 H   0  0  0  0  0  0  0  0  0  0  0  0
  1  2  1  0  0  0  0
  1 25  1  0  0  0  0
  1 26  1  0  0  0  0
  1 27  1  0  0  0  0
  2 10  1  0  0  0  0
  2  3  2  0  0  0  0
  3  4  1  0  0  0  0
  4  9  2  0  0  0  0
  4  5  1  0  0  0  0
  5  6  2  0  0  0  0
  5 28  1  0  0  0  0
  6  7  1  0  0  0  0
  6 29  1  0  0  0  0
  7  8  2  0  0  0  0
  7 30  1  0  0  0  0
  8  9  1  0  0  0  0
  8 31  1  0  0  0  0
  9 10  1  0  0  0  0
 10 11  1  0  0  0  0
 11 12  1  0  0  0  0
 11 32  1  0  0  0  0
 11 33  1  0  0  0  0
 12 13  1  0  0  0  0
 12 14  1  0  0  0  0
 12 34  1  0  0  0  0
 13 35  1  0  0  0  0
 14 15  1  0  0  0  0
 14 36  1  0  0  0  0
 14 37  1  0  0  0  0
 15 16  1  0  0  0  0
 16 24  1  0  0  0  0
 16 17  2  0  0  0  0
 17 18  1  0  0  0  0
 17 38  1  0  0  0  0
 18 19  2  0  0  0  0
 18 39  1  0  0  0  0
 19 20  1  0  0  0  0
 19 23  1  0  0  0  0
 20 21  1  0  0  0  0
 20 40  1  0  0  0  0
 20 41  1  0  0  0  0
 21 22  3  0  0  0  0
 23 24  2  0  0  0  0
 23 42  1  0  0  0  0
 24 43  1  0  0  0  0
M  END
> <s_m_source_file>
AV-unprocessed.smi

> <i_m_source_file_index>
2163

> <i_lp_mmshare_version>
43012

> <i_f3d_flags>
0

> <s_epik_input>
W2NIXTFbY0hdW2NIXVtjSF1jKGMxMiluKGMobjIpW0NIM10pW0NIMl1bQ0BIXShbT0hdKVtDSDJdT2MzW2NIXVtjSF1jKFtDSDJdQyNOKVtjSF1bY0hdMw==

> <s_epik_cmdline>
J2VwaWtfcHl0aG9uJywgJy1waCcsICc3LjAnLCAnLXRuJywgJzgnLCAnLW1hJywgJzIwMCcsICctbWV0YWxfYmluZGluZycsICctaW1hZScsICc8aW5maWxlLm1hZT4nLCAnLW9tYWUnLCAnPG91dGZpbGUubWFlPic=

> <r_lp_tautomer_probability>
1

> <r_epik_Ionization_Penalty>
0.114213

> <r_epik_Ionization_Penalty_Charging>
0

> <r_epik_Ionization_Penalty_Neutral>
0.114213

> <r_epik_State_Penalty>
0.103875

> <r_epik_Charging_Adjusted_Penalty>
0.103875

> <i_epik_Tot_Q>
0

> <i_epik_Tot_abs_Q>
0

> <r_epik_Metal_State_Penalty>
0.000113526

> <b_epik_Metal_Only>
0

> <s_lp_Force_Field>
OPLS_2005

> <r_lp_Energy>
15.1167

> <b_lp_Chiralities_Consistent>
1

> <s_lp_Variant>
AV-unprocessed.smi:2163-1

> <Gold.Version>
5.8.1

> <Gold.Id.Protein>
6NUR|6NUR_protein|mol2

> <Gold.PLP.Fitness>
48.0145

> <Gold.PLP.PLP>
-50.0266

> <Gold.PLP.part.hbond>
-0.9157

> <Gold.PLP.part.metal>
0.0000

> <Gold.PLP.part.buried>
-7.2202

> <Gold.PLP.part.nonpolar>
-42.1592

> <Gold.PLP.part.repulsive>
0.1221

> <Gold.PLP.ligand.clash>
0.0000

> <Gold.PLP.ligand.torsion>
1.0517

> <Gold.PLP.Chemscore.Hbond>
0.0000

> <Gold.PLP.Chemscore.CHOScore>
0.0000

> <Gold.PLP.Chemscore.Metal>
0.0000

> <Gold.PLP.Chemscore.Internal.Correction>
0.0912

> <Gold.Rescore>
     Score         DG    S(hbond)    S(metal)    S(lipo)     H(rot)  DE(clash)    DE(int)     intcor
     14.81     -15.97       0.00        0.00     144.63       2.51       0.06       1.10       ----

> <Gold.Chemscore.Fitness>
14.8060

> <Gold.Chemscore.DG>
-15.9725

> <Gold.Chemscore.ZeroCoef>
-5.4800

> <Gold.Chemscore.Hbond>
0.0000

> <Gold.Chemscore.Metal>
0.0000

> <Gold.Chemscore.Lipo>
144.6332

> <Gold.Chemscore.Internal_Hbond>
0.0000

> <Gold.Chemscore.DEClash>
0.0645

> <Gold.Chemscore.DEInternal>
1.1019

> <Gold.Chemscore.Rot>
2.5115

> <Gold.Chemscore.Internal.Correction>
   9.000000E+99

> <Gold.Chemscore.Hbond.Weighted>
-0.0000

> <Gold.Chemscore.Metal.Weighted>
-0.0000

> <Gold.Chemscore.Lipo.Weighted>
-16.9221

> <Gold.Chemscore.Internal_Hbond.Weighted>
0.0000

> <Gold.Chemscore.DEClash.Weighted>
0.0645

> <Gold.Chemscore.DEInternal.Weighted>
1.1019

> <Gold.Chemscore.Rot.Weighted>
6.4296

> <Gold.Chemscore.Internal.Correction.Weighted>
   9.000000E+99

> <Gold.Protein.RotatedTorsions>
[ 6907 6896 6895 6894 ] final   61.57 input  -60.11 | X-H torsion
[ 7974 7965 7964 7962 ] final  -72.21 input  175.53 | X-H torsion
[ 8008 7997 7996 7995 ] final  170.99 input   59.86 | X-H torsion
[ 10167 10162 10161 10158 ] final  132.43 input  -65.29 | X-H torsion
[ 10718 10713 10712 10709 ] final -120.42 input   66.30 | X-H torsion
[ 10763 10752 10751 10750 ] final   84.84 input  -60.55 | X-H torsion
[ 11005 11000 10999 10996 ] final   60.81 input  -57.11 | X-H torsion

> <Gold.Protein.ActiveResidues>
 VAL166  LYS551  ARG553  GLY616  TRP617  ASP618  TYR619  PRO620  LYS621  CYS622 
 ASP623  PHE694  ASN695  SER759  ASP760  ASP761  ALA762  ILE779  LEU786  VAL792 
 PHE793  MET794  SER795  GLU796  ALA797  LYS798  CYS799  TRP800  GLU811  SER814 

> <Gold.Protein.RotatedAtoms>
  152.4100  134.6141  160.0033 H   0  0  0  0  0  0  0  0  0  0  0  0  # atno 6907 bound_to 6896
  151.6321  133.3326  159.3119 H   0  0  0  0  0  0  0  0  0  0  0  0  # atno 6908 bound_to 6896
  150.7991  134.7113  159.6650 H   0  0  0  0  0  0  0  0  0  0  0  0  # atno 6909 bound_to 6896
  145.6680  140.9230  143.0898 H   0  0  0  0  0  0  0  0  0  0  0  0  # atno 7974 bound_to 7965
  156.1313  140.1523  156.9060 H   0  0  0  0  0  0  0  0  0  0  0  0  # atno 8008 bound_to 7997
  154.4912  140.0851  156.7637 H   0  0  0  0  0  0  0  0  0  0  0  0  # atno 8009 bound_to 7997
  155.4250  140.3424  155.4277 H   0  0  0  0  0  0  0  0  0  0  0  0  # atno 8010 bound_to 7997
  139.5340  144.6662  151.4851 H   0  0  0  0  0  0  0  0  0  0  0  0  # atno 10167 bound_to 10162
  156.1256  130.6357  150.9538 H   0  0  0  0  0  0  0  0  0  0  0  0  # atno 10718 bound_to 10713
  153.1419  135.4639  154.9508 H   0  0  0  0  0  0  0  0  0  0  0  0  # atno 10763 bound_to 10752
  154.7754  135.3171  154.8105 H   0  0  0  0  0  0  0  0  0  0  0  0  # atno 10764 bound_to 10752
  153.8626  135.6911  153.4835 H   0  0  0  0  0  0  0  0  0  0  0  0  # atno 10765 bound_to 10752
  140.0205  134.6160  155.9646 H   0  0  0  0  0  0  0  0  0  0  0  0  # atno 11005 bound_to 11000
  144.7066  139.8535  143.7428 LP  0  0  0  0  0  0  0  0  0  0  0  0  # atno 17320 bound_to 7965
  146.1069  139.4070  143.0312 LP  0  0  0  0  0  0  0  0  0  0  0  0  # atno 17321 bound_to 7965
  140.6535  143.8647  150.6811 LP  0  0  0  0  0  0  0  0  0  0  0  0  # atno 17342 bound_to 10162
  140.2019  143.3952  152.1785 LP  0  0  0  0  0  0  0  0  0  0  0  0  # atno 17343 bound_to 10162
  157.6438  131.0907  150.8196 LP  0  0  0  0  0  0  0  0  0  0  0  0  # atno 17370 bound_to 10713
  156.8287  130.5008  149.5334 LP  0  0  0  0  0  0  0  0  0  0  0  0  # atno 17371 bound_to 10713
  141.1771  133.6541  156.4870 LP  0  0  0  0  0  0  0  0  0  0  0  0  # atno 17394 bound_to 11000
  140.4395  134.7028  157.4984 LP  0  0  0  0  0  0  0  0  0  0  0  0  # atno 17395 bound_to 11000

$$$$
