AV-unprocessed.smi:146|AV-procd|sdf|1199|dock7
  -GOLD-   2262018363D 1   1.00000     0.00000
 Structure written by MMmdl.
 55 59  0  0  0  0  0  0  0  0  1 V2000
  150.4421  145.2253  159.2887 C   0  0  0  0  0  0  0  0  0  0  0  0
  151.3812  144.1095  158.8047 C   0  0  0  0  0  0  0  0  0  0  0  0
  152.4852  144.7349  157.9274 C   0  0  0  0  0  0  0  0  0  0  0  0
  151.9808  143.3783  160.0213 C   0  0  0  0  0  0  0  0  0  0  0  0
  152.6347  142.1447  159.6062 N   0  0  0  0  0  0  0  0  0  0  0  0
  153.5171  141.6293  160.4998 C   0  0  0  0  0  0  0  0  0  0  0  0
  154.4350  140.7101  160.0964 N   0  0  0  0  0  0  0  0  0  0  0  0
  155.2951  140.1839  160.9731 C   0  0  0  0  0  0  0  0  0  0  0  0
  155.4115  140.4313  162.2789 N   0  0  0  0  0  0  0  0  0  0  0  0
  154.5039  141.3630  162.6890 C   0  0  0  0  0  0  0  0  0  0  0  0
  153.5305  142.0066  161.8732 C   0  0  0  0  0  0  0  0  0  0  0  0
  152.7884  142.8971  162.6398 N   0  0  0  0  0  0  0  0  0  0  0  0
  153.2818  142.7732  163.8412 C   0  0  0  0  0  0  0  0  0  0  0  0
  154.3247  141.8816  163.9605 N   0  0  0  0  0  0  0  0  0  0  0  0
  155.0542  141.5390  165.1739 C   0  0  0  0  0  0  0  0  0  0  0  0
  155.7407  142.7319  165.8825 C   0  0  0  0  0  0  0  0  0  0  0  0
  157.1428  142.9006  165.2813 C   0  0  0  0  0  0  0  0  0  0  0  0
  157.8194  144.0015  165.8537 O   0  0  0  0  0  0  0  0  0  0  0  0
  154.9231  144.0214  166.0753 C   0  0  0  0  0  0  0  0  0  0  0  0
  154.6296  143.6924  167.4496 O   0  0  0  0  0  0  0  0  0  0  0  0
  155.6902  142.7147  167.4194 C   0  0  0  0  0  0  0  0  0  0  0  0
  151.7157  141.2365  158.9316 C   0  0  0  0  0  0  0  0  0  0  0  0
  151.0562  141.9218  157.7118 C   0  0  2  0  0  0  0  0  0  0  0  0
  149.8761  141.0977  157.2107 C   0  0  0  0  0  0  0  0  0  0  0  0
  150.5184  140.1443  156.2157 C   0  0  0  0  0  0  0  0  0  0  0  0
  151.4515  140.9717  155.5450 O   0  0  0  0  0  0  0  0  0  0  0  0
  151.9616  141.9376  156.4604 C   0  0  0  0  0  0  0  0  0  0  0  0
  150.5400  143.2143  158.0610 O   0  0  0  0  0  0  0  0  0  0  0  0
  150.9758  145.9613  159.8912 H   0  0  0  0  0  0  0  0  0  0  0  0
  149.6329  144.8235  159.8994 H   0  0  0  0  0  0  0  0  0  0  0  0
  149.9881  145.7514  158.4483 H   0  0  0  0  0  0  0  0  0  0  0  0
  153.0153  145.5185  158.4695 H   0  0  0  0  0  0  0  0  0  0  0  0
  152.0670  145.1844  157.0264 H   0  0  0  0  0  0  0  0  0  0  0  0
  153.2358  144.0070  157.6229 H   0  0  0  0  0  0  0  0  0  0  0  0
  152.6590  144.0438  160.5541 H   0  0  0  0  0  0  0  0  0  0  0  0
  151.1901  143.1196  160.7271 H   0  0  0  0  0  0  0  0  0  0  0  0
  155.9880  139.4597  160.5707 H   0  0  0  0  0  0  0  0  0  0  0  0
  152.8922  143.3340  164.6776 H   0  0  0  0  0  0  0  0  0  0  0  0
  154.3541  141.0519  165.8535 H   0  0  0  0  0  0  0  0  0  0  0  0
  155.7832  140.7732  164.9077 H   0  0  0  0  0  0  0  0  0  0  0  0
  157.7507  142.0118  165.4531 H   0  0  0  0  0  0  0  0  0  0  0  0
  157.0937  143.0381  164.2005 H   0  0  0  0  0  0  0  0  0  0  0  0
  158.6739  143.7148  166.1379 H   0  0  0  0  0  0  0  0  0  0  0  0
  155.5177  144.9335  165.9997 H   0  0  0  0  0  0  0  0  0  0  0  0
  154.0305  144.0986  165.4561 H   0  0  0  0  0  0  0  0  0  0  0  0
  155.4027  141.7590  167.8550 H   0  0  0  0  0  0  0  0  0  0  0  0
  156.5956  143.0922  167.8977 H   0  0  0  0  0  0  0  0  0  0  0  0
  152.2349  140.3302  158.6171 H   0  0  0  0  0  0  0  0  0  0  0  0
  150.9505  140.9335  159.6480 H   0  0  0  0  0  0  0  0  0  0  0  0
  149.3294  140.5850  158.0026 H   0  0  0  0  0  0  0  0  0  0  0  0
  149.1673  141.7372  156.6821 H   0  0  0  0  0  0  0  0  0  0  0  0
  151.0433  139.3363  156.7274 H   0  0  0  0  0  0  0  0  0  0  0  0
  149.7991  139.7058  155.5239 H   0  0  0  0  0  0  0  0  0  0  0  0
  151.9378  142.9031  155.9562 H   0  0  0  0  0  0  0  0  0  0  0  0
  153.0007  141.7137  156.7042 H   0  0  0  0  0  0  0  0  0  0  0  0
  1  2  1  0  0  0  0
  1 29  1  0  0  0  0
  1 30  1  0  0  0  0
  1 31  1  0  0  0  0
  2 28  1  0  0  0  0
  2  3  1  0  0  0  0
  2  4  1  0  0  0  0
  3 32  1  0  0  0  0
  3 33  1  0  0  0  0
  3 34  1  0  0  0  0
  4  5  1  0  0  0  0
  4 35  1  0  0  0  0
  4 36  1  0  0  0  0
  5  6  1  0  0  0  0
  5 22  1  0  0  0  0
  6 11  1  0  0  0  0
  6  7  2  0  0  0  0
  7  8  1  0  0  0  0
  8  9  2  0  0  0  0
  8 37  1  0  0  0  0
  9 10  1  0  0  0  0
 10 14  1  0  0  0  0
 10 11  2  0  0  0  0
 11 12  1  0  0  0  0
 12 13  2  0  0  0  0
 13 14  1  0  0  0  0
 13 38  1  0  0  0  0
 14 15  1  0  0  0  0
 15 16  1  0  0  0  0
 15 39  1  0  0  0  0
 15 40  1  0  0  0  0
 16 21  1  0  0  0  0
 16 17  1  0  0  0  0
 16 19  1  0  0  0  0
 17 18  1  0  0  0  0
 17 41  1  0  0  0  0
 17 42  1  0  0  0  0
 18 43  1  0  0  0  0
 19 20  1  0  0  0  0
 19 44  1  0  0  0  0
 19 45  1  0  0  0  0
 20 21  1  0  0  0  0
 21 46  1  0  0  0  0
 21 47  1  0  0  0  0
 22 23  1  0  0  0  0
 22 48  1  0  0  0  0
 22 49  1  0  0  0  0
 23 27  1  0  0  0  0
 23 24  1  0  0  0  0
 23 28  1  0  0  0  0
 24 25  1  0  0  0  0
 24 50  1  0  0  0  0
 24 51  1  0  0  0  0
 25 26  1  0  0  0  0
 25 52  1  0  0  0  0
 25 53  1  0  0  0  0
 26 27  1  0  0  0  0
 27 54  1  0  0  0  0
 27 55  1  0  0  0  0
M  END
> <s_m_source_file>
AV-unprocessed.smi

> <i_m_source_file_index>
146

> <i_lp_mmshare_version>
43012

> <i_f3d_flags>
0

> <s_epik_input>
W0NIMl0xT1tDSDJdW0NIMl1bQ0BAXTEyW0NIMl1OKFtDSDJdQyhPMikoW0NIM10pW0NIM10pYyhuW2NIXW4zKWMoYzM0KW5bY0hdbjRbQ0gyXUM1KFtDSDJdW09IXSlbQ0gyXU9bQ0gyXTU=

> <s_epik_cmdline>
J2VwaWtfcHl0aG9uJywgJy1waCcsICc3LjAnLCAnLXRuJywgJzgnLCAnLW1hJywgJzIwMCcsICctbWV0YWxfYmluZGluZycsICctaW1hZScsICc8aW5maWxlLm1hZT4nLCAnLW9tYWUnLCAnPG91dGZpbGUubWFlPic=

> <r_lp_tautomer_probability>
1

> <r_epik_Ionization_Penalty>
0.00353822

> <r_epik_Ionization_Penalty_Charging>
0

> <r_epik_Ionization_Penalty_Neutral>
0.00353822

> <r_epik_State_Penalty>
0.0023805

> <r_epik_Charging_Adjusted_Penalty>
0.0023805

> <i_epik_Tot_Q>
0

> <i_epik_Tot_abs_Q>
0

> <r_epik_Metal_State_Penalty>
-0

> <b_epik_Metal_Only>
0

> <s_lp_Force_Field>
OPLS_2005

> <r_lp_Energy>
56.8345

> <b_lp_Chiralities_Consistent>
1

> <s_lp_Variant>
AV-unprocessed.smi:146-1

> <Gold.Version>
5.8.1

> <Gold.Id.Protein>
6NUR|6NUR_protein|mol2

> <Gold.PLP.Fitness>
49.2610

> <Gold.PLP.PLP>
-48.7764

> <Gold.PLP.part.hbond>
-2.9489

> <Gold.PLP.part.metal>
0.0000

> <Gold.PLP.part.buried>
-2.3773

> <Gold.PLP.part.nonpolar>
-43.1003

> <Gold.PLP.part.repulsive>
0.3886

> <Gold.PLP.ligand.clash>
0.0000

> <Gold.PLP.ligand.torsion>
0.8315

> <Gold.PLP.Chemscore.Hbond>
0.5148

> <Gold.PLP.Chemscore.CHOScore>
0.0000

> <Gold.PLP.Chemscore.Metal>
0.0000

> <Gold.Chemscore.Hbonds>
donor molecule, donor type, donor heavy atom, donor atom, acceptor molecule, acceptor atom, score
      P1  H  7989  7998       L1    26  0.59

> <Gold.PLP.Chemscore.Internal.Correction>
0.6031

> <Gold.Rescore>
     Score         DG    S(hbond)    S(metal)    S(lipo)     H(rot)  DE(clash)    DE(int)     intcor
      8.61     -12.84       0.00        0.00     116.15       2.44       0.45       3.78       ----

> <Gold.Chemscore.Fitness>
8.6120

> <Gold.Chemscore.DG>
-12.8381

> <Gold.Chemscore.ZeroCoef>
-5.4800

> <Gold.Chemscore.Hbond>
0.0026

> <Gold.Chemscore.Metal>
0.0000

> <Gold.Chemscore.Lipo>
116.1499

> <Gold.Chemscore.Internal_Hbond>
0.0000

> <Gold.Chemscore.DEClash>
0.4462

> <Gold.Chemscore.DEInternal>
3.7800

> <Gold.Chemscore.Rot>
2.4376

> <Gold.Chemscore.Internal.Correction>
   9.000000E+99

> <Gold.Chemscore.Hbonds>
donor molecule, donor type, donor heavy atom, donor atom, acceptor molecule, acceptor atom, score
      P1  H  7989  7998       L1    26  0.54

> <Gold.Chemscore.Hbond.Weighted>
-0.0088

> <Gold.Chemscore.Metal.Weighted>
-0.0000

> <Gold.Chemscore.Lipo.Weighted>
-13.5895

> <Gold.Chemscore.Internal_Hbond.Weighted>
0.0000

> <Gold.Chemscore.DEClash.Weighted>
0.4462

> <Gold.Chemscore.DEInternal.Weighted>
3.7800

> <Gold.Chemscore.Rot.Weighted>
6.2402

> <Gold.Chemscore.Internal.Correction.Weighted>
   9.000000E+99

> <Gold.Protein.RotatedTorsions>
[ 6907 6896 6895 6894 ] final -134.70 input  -60.11 | X-H torsion
[ 7974 7965 7964 7962 ] final -114.58 input  175.53 | X-H torsion
[ 8008 7997 7996 7995 ] final   39.57 input   59.86 | X-H torsion
[ 10167 10162 10161 10158 ] final   30.12 input  -65.29 | X-H torsion
[ 10718 10713 10712 10709 ] final -127.94 input   66.30 | X-H torsion
[ 10763 10752 10751 10750 ] final   75.15 input  -60.55 | X-H torsion
[ 11005 11000 10999 10996 ] final   85.63 input  -57.11 | X-H torsion

> <Gold.Protein.ActiveResidues>
 VAL166  LYS551  ARG553  GLY616  TRP617  ASP618  TYR619  PRO620  LYS621  CYS622 
 ASP623  PHE694  ASN695  SER759  ASP760  ASP761  ALA762  ILE779  LEU786  VAL792 
 PHE793  MET794  SER795  GLU796  ALA797  LYS798  CYS799  TRP800  GLU811  SER814 

> <Gold.Protein.RotatedAtoms>
  150.9889  133.6169  159.2710 H   0  0  0  0  0  0  0  0  0  0  0  0  # atno 6907 bound_to 6896
  151.3397  135.0860  159.9376 H   0  0  0  0  0  0  0  0  0  0  0  0  # atno 6908 bound_to 6896
  152.5240  133.9503  159.7723 H   0  0  0  0  0  0  0  0  0  0  0  0  # atno 6909 bound_to 6896
  145.1185  140.8655  143.3828 H   0  0  0  0  0  0  0  0  0  0  0  0  # atno 7974 bound_to 7965
  155.2388  140.3344  155.4294 H   0  0  0  0  0  0  0  0  0  0  0  0  # atno 8008 bound_to 7997
  156.2264  140.1831  156.7397 H   0  0  0  0  0  0  0  0  0  0  0  0  # atno 8009 bound_to 7997
  154.5906  140.0638  156.9218 H   0  0  0  0  0  0  0  0  0  0  0  0  # atno 8010 bound_to 7997
  140.4705  144.0769  150.6236 H   0  0  0  0  0  0  0  0  0  0  0  0  # atno 10167 bound_to 10162
  156.1904  130.6791  151.0417 H   0  0  0  0  0  0  0  0  0  0  0  0  # atno 10718 bound_to 10713
  153.0635  135.4999  154.8148 H   0  0  0  0  0  0  0  0  0  0  0  0  # atno 10763 bound_to 10752
  154.6919  135.2986  154.9470 H   0  0  0  0  0  0  0  0  0  0  0  0  # atno 10764 bound_to 10752
  154.0222  135.6740  153.4826 H   0  0  0  0  0  0  0  0  0  0  0  0  # atno 10765 bound_to 10752
  139.8966  134.8300  156.2609 H   0  0  0  0  0  0  0  0  0  0  0  0  # atno 11005 bound_to 11000
  145.0767  139.2991  143.5804 LP  0  0  0  0  0  0  0  0  0  0  0  0  # atno 17320 bound_to 7965
  146.3522  140.0259  142.8654 LP  0  0  0  0  0  0  0  0  0  0  0  0  # atno 17321 bound_to 7965
  140.3982  143.2717  151.9979 LP  0  0  0  0  0  0  0  0  0  0  0  0  # atno 17342 bound_to 10162
  139.4818  144.6020  151.7589 LP  0  0  0  0  0  0  0  0  0  0  0  0  # atno 17343 bound_to 10162
  157.6925  131.0805  150.7064 LP  0  0  0  0  0  0  0  0  0  0  0  0  # atno 17370 bound_to 10713
  156.7121  130.4655  149.5544 LP  0  0  0  0  0  0  0  0  0  0  0  0  # atno 17371 bound_to 10713
  141.0163  133.7066  156.1194 LP  0  0  0  0  0  0  0  0  0  0  0  0  # atno 17394 bound_to 11000
  140.7297  134.4268  157.5567 LP  0  0  0  0  0  0  0  0  0  0  0  0  # atno 17395 bound_to 11000

$$$$
