AV-unprocessed.smi:3339|AV-procd|sdf|12878|dock3
  -GOLD-   2272019283D 1   1.00000     0.00000
 Structure written by MMmdl.
 39 40  0  0  0  0  0  0  0  0  1 V2000
  147.1424  140.4092  153.1523 C   0  0  0  0  0  0  0  0  0  0  0  0
  146.7997  141.0950  154.4799 C   0  0  0  0  0  0  0  0  0  0  0  0
  146.5742  142.6039  154.2907 C   0  0  0  0  0  0  0  0  0  0  0  0
  147.8879  140.8563  155.3632 O   0  0  0  0  0  0  0  0  0  0  0  0
  149.0962  141.5145  155.0094 C   0  0  0  0  0  0  0  0  0  0  0  0
  150.1924  141.1116  156.0075 C   0  0  1  0  0  0  0  0  0  0  0  0
  151.0609  140.2205  155.3370 O   0  0  0  0  0  0  0  0  0  0  0  0
  151.0115  142.3229  156.4994 C   0  0  0  0  0  0  0  0  0  0  0  0
  151.6729  142.0454  157.7732 N   0  0  0  0  0  0  0  0  0  0  0  0
  152.3444  140.9161  158.1022 C   0  0  0  0  0  0  0  0  0  0  0  0
  152.5037  139.9342  157.3770 O   0  0  0  0  0  0  0  0  0  0  0  0
  152.8156  141.0611  159.3626 N   0  0  0  0  0  0  0  0  0  0  0  0
  153.6030  140.0969  160.1215 C   0  0  0  0  0  0  0  0  0  0  0  0
  152.4474  142.3217  159.8490 C   0  0  0  0  0  0  0  0  0  0  0  0
  152.7027  142.9445  161.0827 C   0  0  0  0  0  0  0  0  0  0  0  0
  152.1872  144.2491  161.2661 C   0  0  0  0  0  0  0  0  0  0  0  0
  151.4466  144.8891  160.2383 C   0  0  0  0  0  0  0  0  0  0  0  0
  151.2061  144.2387  159.0052 C   0  0  0  0  0  0  0  0  0  0  0  0
  151.7277  142.9424  158.8499 C   0  0  0  0  0  0  0  0  0  0  0  0
  146.3421  140.5398  152.4234 H   0  0  0  0  0  0  0  0  0  0  0  0
  147.2901  139.3383  153.2940 H   0  0  0  0  0  0  0  0  0  0  0  0
  148.0577  140.8166  152.7215 H   0  0  0  0  0  0  0  0  0  0  0  0
  145.8914  140.6347  154.8723 H   0  0  0  0  0  0  0  0  0  0  0  0
  145.7847  142.7912  153.5624 H   0  0  0  0  0  0  0  0  0  0  0  0
  147.4796  143.0950  153.9327 H   0  0  0  0  0  0  0  0  0  0  0  0
  146.2764  143.0894  155.2193 H   0  0  0  0  0  0  0  0  0  0  0  0
  149.3925  141.2249  154.0009 H   0  0  0  0  0  0  0  0  0  0  0  0
  148.9588  142.5971  155.0135 H   0  0  0  0  0  0  0  0  0  0  0  0
  149.7316  140.5860  156.8450 H   0  0  0  0  0  0  0  0  0  0  0  0
  151.3731  139.5814  155.9589 H   0  0  0  0  0  0  0  0  0  0  0  0
  151.7299  142.6482  155.7461 H   0  0  0  0  0  0  0  0  0  0  0  0
  150.3496  143.1766  156.6539 H   0  0  0  0  0  0  0  0  0  0  0  0
  153.1743  139.9543  161.1140 H   0  0  0  0  0  0  0  0  0  0  0  0
  154.6254  140.4573  160.2382 H   0  0  0  0  0  0  0  0  0  0  0  0
  153.6398  139.1230  159.6312 H   0  0  0  0  0  0  0  0  0  0  0  0
  153.2691  142.4512  161.8587 H   0  0  0  0  0  0  0  0  0  0  0  0
  152.3605  144.7648  162.1991 H   0  0  0  0  0  0  0  0  0  0  0  0
  151.0629  145.8859  160.3985 H   0  0  0  0  0  0  0  0  0  0  0  0
  150.6467  144.7235  158.2192 H   0  0  0  0  0  0  0  0  0  0  0  0
  1  2  1  0  0  0  0
  1 20  1  0  0  0  0
  1 21  1  0  0  0  0
  1 22  1  0  0  0  0
  2  3  1  0  0  0  0
  2  4  1  0  0  0  0
  2 23  1  0  0  0  0
  3 24  1  0  0  0  0
  3 25  1  0  0  0  0
  3 26  1  0  0  0  0
  4  5  1  0  0  0  0
  5  6  1  0  0  0  0
  5 27  1  0  0  0  0
  5 28  1  0  0  0  0
  6  7  1  0  0  0  0
  6  8  1  0  0  0  0
  6 29  1  0  0  0  0
  7 30  1  0  0  0  0
  8  9  1  0  0  0  0
  8 31  1  0  0  0  0
  8 32  1  0  0  0  0
  9 19  1  0  0  0  0
  9 10  1  0  0  0  0
 10 11  2  0  0  0  0
 10 12  1  0  0  0  0
 12 13  1  0  0  0  0
 12 14  1  0  0  0  0
 13 33  1  0  0  0  0
 13 34  1  0  0  0  0
 13 35  1  0  0  0  0
 14 19  2  0  0  0  0
 14 15  1  0  0  0  0
 15 16  2  0  0  0  0
 15 36  1  0  0  0  0
 16 17  1  0  0  0  0
 16 37  1  0  0  0  0
 17 18  2  0  0  0  0
 17 38  1  0  0  0  0
 18 19  1  0  0  0  0
 18 39  1  0  0  0  0
M  END
> <s_m_source_file>
AV-unprocessed.smi

> <i_m_source_file_index>
3339

> <i_lp_mmshare_version>
43012

> <i_f3d_flags>
0

> <s_epik_input>
W0NIM11bQ0hdKFtDSDNdKU9bQ0gyXVtDQEhdKFtPSF0pW0NIMl1uKGMoPU8pbjFbQ0gzXSljKGMxMilbY0hdW2NIXVtjSF1bY0hdMg==

> <s_epik_cmdline>
J2VwaWtfcHl0aG9uJywgJy1waCcsICc3LjAnLCAnLXRuJywgJzgnLCAnLW1hJywgJzIwMCcsICctbWV0YWxfYmluZGluZycsICctaW1hZScsICc8aW5maWxlLm1hZT4nLCAnLW9tYWUnLCAnPG91dGZpbGUubWFlPic=

> <r_lp_tautomer_probability>
1

> <r_epik_Ionization_Penalty>
3.68683e-07

> <r_epik_Ionization_Penalty_Charging>
2.29158e-09

> <r_epik_Ionization_Penalty_Neutral>
3.66391e-07

> <r_epik_State_Penalty>
-0

> <r_epik_Charging_Adjusted_Penalty>
2.29158e-09

> <i_epik_Tot_Q>
0

> <i_epik_Tot_abs_Q>
0

> <r_epik_Metal_State_Penalty>
-0

> <b_epik_Metal_Only>
0

> <s_lp_Force_Field>
OPLS_2005

> <r_lp_Energy>
39.8614

> <b_lp_Chiralities_Consistent>
1

> <s_lp_Variant>
AV-unprocessed.smi:3339-2

> <Gold.Version>
5.8.1

> <Gold.Id.Protein>
6NUR|6NUR_protein|mol2

> <Gold.PLP.Fitness>
49.8579

> <Gold.PLP.PLP>
-46.0834

> <Gold.PLP.part.hbond>
-2.0000

> <Gold.PLP.part.metal>
0.0000

> <Gold.PLP.part.buried>
-6.3635

> <Gold.PLP.part.nonpolar>
-38.2476

> <Gold.PLP.part.repulsive>
0.0700

> <Gold.PLP.ligand.clash>
0.0000

> <Gold.PLP.ligand.torsion>
1.1275

> <Gold.PLP.Chemscore.Hbond>
2.0000

> <Gold.PLP.Chemscore.CHOScore>
0.0000

> <Gold.PLP.Chemscore.Metal>
0.0000

> <Gold.Chemscore.Hbonds>
donor molecule, donor type, donor heavy atom, donor atom, acceptor molecule, acceptor atom, score
      P1  H  7989  7998       L1     7  1.00
      P1  H  7997  8008       L1    11  1.00

> <Gold.PLP.Chemscore.Internal.Correction>
0.0296

> <Gold.Rescore>
     Score         DG    S(hbond)    S(metal)    S(lipo)     H(rot)  DE(clash)    DE(int)     intcor
     15.58     -19.48       1.83        0.00     113.88       2.13       0.06       3.84       ----

> <Gold.Chemscore.Fitness>
15.5831

> <Gold.Chemscore.DG>
-19.4753

> <Gold.Chemscore.ZeroCoef>
-5.4800

> <Gold.Chemscore.Hbond>
1.8345

> <Gold.Chemscore.Metal>
0.0000

> <Gold.Chemscore.Lipo>
113.8843

> <Gold.Chemscore.Internal_Hbond>
0.0000

> <Gold.Chemscore.DEClash>
0.0570

> <Gold.Chemscore.DEInternal>
3.8352

> <Gold.Chemscore.Rot>
2.1314

> <Gold.Chemscore.Internal.Correction>
   9.000000E+99

> <Gold.Chemscore.Hbonds>
donor molecule, donor type, donor heavy atom, donor atom, acceptor molecule, acceptor atom, score
      P1  H  7989  7998       L1     7  0.78
      P1  H  7997  8008       L1    11  0.51

> <Gold.Chemscore.Hbond.Weighted>
-6.1272

> <Gold.Chemscore.Metal.Weighted>
-0.0000

> <Gold.Chemscore.Lipo.Weighted>
-13.3245

> <Gold.Chemscore.Internal_Hbond.Weighted>
0.0000

> <Gold.Chemscore.DEClash.Weighted>
0.0570

> <Gold.Chemscore.DEInternal.Weighted>
3.8352

> <Gold.Chemscore.Rot.Weighted>
5.4564

> <Gold.Chemscore.Internal.Correction.Weighted>
   9.000000E+99

> <Gold.Protein.RotatedTorsions>
[ 6907 6896 6895 6894 ] final  -35.36 input  -60.11 | X-H torsion
[ 7974 7965 7964 7962 ] final  -92.02 input  175.53 | X-H torsion
[ 8008 7997 7996 7995 ] final  -55.79 input   59.86 | X-H torsion
[ 10167 10162 10161 10158 ] final   -1.79 input  -65.29 | X-H torsion
[ 10718 10713 10712 10709 ] final   71.88 input   66.30 | X-H torsion
[ 10763 10752 10751 10750 ] final   84.26 input  -60.55 | X-H torsion
[ 11005 11000 10999 10996 ] final  -78.37 input  -57.11 | X-H torsion

> <Gold.Protein.ActiveResidues>
 VAL166  LYS551  ARG553  GLY616  TRP617  ASP618  TYR619  PRO620  LYS621  CYS622 
 ASP623  PHE694  ASN695  SER759  ASP760  ASP761  ALA762  ILE779  LEU786  VAL792 
 PHE793  MET794  SER795  GLU796  ALA797  LYS798  CYS799  TRP800  GLU811  SER814 

> <Gold.Protein.RotatedAtoms>
  151.0408  134.9606  159.8160 H   0  0  0  0  0  0  0  0  0  0  0  0  # atno 6907 bound_to 6896
  152.5363  134.2660  159.8963 H   0  0  0  0  0  0  0  0  0  0  0  0  # atno 6908 bound_to 6896
  151.2673  133.4230  159.2653 H   0  0  0  0  0  0  0  0  0  0  0  0  # atno 6909 bound_to 6896
  145.4054  140.9541  143.2264 H   0  0  0  0  0  0  0  0  0  0  0  0  # atno 7974 bound_to 7965
  154.4207  140.1145  156.5533 H   0  0  0  0  0  0  0  0  0  0  0  0  # atno 8008 bound_to 7997
  155.6387  140.3496  155.4688 H   0  0  0  0  0  0  0  0  0  0  0  0  # atno 8009 bound_to 7997
  155.9889  140.1175  157.0647 H   0  0  0  0  0  0  0  0  0  0  0  0  # atno 8010 bound_to 7997
  140.6825  143.6734  150.8166 H   0  0  0  0  0  0  0  0  0  0  0  0  # atno 10167 bound_to 10162
  157.6474  130.9550  150.0851 H   0  0  0  0  0  0  0  0  0  0  0  0  # atno 10718 bound_to 10713
  153.1366  135.4660  154.9431 H   0  0  0  0  0  0  0  0  0  0  0  0  # atno 10763 bound_to 10752
  154.7711  135.3159  154.8190 H   0  0  0  0  0  0  0  0  0  0  0  0  # atno 10764 bound_to 10752
  153.8721  135.6902  153.4827 H   0  0  0  0  0  0  0  0  0  0  0  0  # atno 10765 bound_to 10752
  141.1664  133.7060  156.7962 H   0  0  0  0  0  0  0  0  0  0  0  0  # atno 11005 bound_to 11000
  144.8345  139.5572  143.6928 LP  0  0  0  0  0  0  0  0  0  0  0  0  # atno 17320 bound_to 7965
  146.2731  139.6685  142.9282 LP  0  0  0  0  0  0  0  0  0  0  0  0  # atno 17321 bound_to 7965
  140.0436  143.5321  152.2706 LP  0  0  0  0  0  0  0  0  0  0  0  0  # atno 17342 bound_to 10162
  139.6157  144.7619  151.2851 LP  0  0  0  0  0  0  0  0  0  0  0  0  # atno 17343 bound_to 10162
  156.1816  130.3650  149.9028 LP  0  0  0  0  0  0  0  0  0  0  0  0  # atno 17370 bound_to 10713
  156.6979  130.8921  151.3596 LP  0  0  0  0  0  0  0  0  0  0  0  0  # atno 17371 bound_to 10713
  140.2290  134.8700  157.3456 LP  0  0  0  0  0  0  0  0  0  0  0  0  # atno 17394 bound_to 11000
  140.1911  134.4371  155.7715 LP  0  0  0  0  0  0  0  0  0  0  0  0  # atno 17395 bound_to 11000

$$$$
