AV-unprocessed.smi:2001|AV-procd|sdf|8109|dock4
  -GOLD-   2272010333D 1   1.00000     0.00000
 Structure written by MMmdl.
 50 51  0  0  0  0  0  0  0  0  3 V2000
  153.4424  125.1921  145.1073 C   0  0  0  0  0  0  0  0  0  0  0  0
  152.8928  124.0529  145.7453 O   0  0  0  0  0  0  0  0  0  0  0  0
  151.6244  124.3133  146.3226 C   0  0  0  0  0  0  0  0  0  0  0  0
  151.1187  123.0361  147.0102 C   0  0  0  0  0  0  0  0  0  0  0  0
  149.9449  123.3041  147.8471 N   0  0  0  0  0  0  0  0  0  0  0  0
  150.1365  124.3059  148.7834 N   0  0  0  0  0  0  0  0  0  0  0  0
  149.1789  124.6471  149.5843 C   0  0  0  0  0  0  0  0  0  0  0  0
  149.3852  125.7310  150.5982 C   0  0  0  0  0  0  0  0  0  0  0  0
  150.5656  126.0511  150.7943 O   0  0  0  0  0  0  0  0  0  0  0  0
  148.2961  126.2762  151.2201 N   0  5  0  0  0  0  0  0  0  0  0  0
  148.2055  127.6466  151.7206 C   0  0  0  0  0  0  0  0  0  0  0  0
  146.9128  128.3037  151.1994 C   0  0  0  0  0  0  0  0  0  0  0  0
  146.9109  129.7765  151.4066 N   0  3  1  0  0  0  0  0  0  0  0  0
  145.7486  130.4466  150.7750 C   0  0  0  0  0  0  0  0  0  0  0  0
  145.8514  131.9745  150.9413 C   0  0  1  0  0  0  0  0  0  0  0  0
  144.6290  132.7004  150.3689 C   0  0  0  0  0  0  0  0  0  0  0  0
  145.9468  132.2886  152.3268 O   0  0  0  0  0  0  0  0  0  0  0  0
  147.1014  131.7229  152.9384 C   0  0  1  0  0  0  0  0  0  0  0  0
  147.1554  132.1986  154.3942 C   0  0  0  0  0  0  0  0  0  0  0  0
  147.0245  130.1889  152.8303 C   0  0  0  0  0  0  0  0  0  0  0  0
  147.8835  123.9819  149.5097 C   0  0  0  0  0  0  0  0  0  0  0  0
  147.7104  123.0108  148.5868 C   0  0  0  0  0  0  0  0  0  0  0  0
  148.7794  122.6130  147.6709 C   0  0  0  0  0  0  0  0  0  0  0  0
  148.6422  121.7383  146.8159 O   0  0  0  0  0  0  0  0  0  0  0  0
  154.4130  124.9402  144.6800 H   0  0  0  0  0  0  0  0  0  0  0  0
  153.5883  126.0085  145.8158 H   0  0  0  0  0  0  0  0  0  0  0  0
  152.7989  125.5405  144.2985 H   0  0  0  0  0  0  0  0  0  0  0  0
  151.7042  125.1234  147.0494 H   0  0  0  0  0  0  0  0  0  0  0  0
  150.9240  124.6319  145.5490 H   0  0  0  0  0  0  0  0  0  0  0  0
  150.8882  122.2749  146.2626 H   0  0  0  0  0  0  0  0  0  0  0  0
  151.9195  122.6109  147.6181 H   0  0  0  0  0  0  0  0  0  0  0  0
  148.2057  127.6927  152.8102 H   0  0  0  0  0  0  0  0  0  0  0  0
  149.0599  128.2430  151.3991 H   0  0  0  0  0  0  0  0  0  0  0  0
  146.8336  128.0872  150.1326 H   0  0  0  0  0  0  0  0  0  0  0  0
  146.0307  127.8586  151.6629 H   0  0  0  0  0  0  0  0  0  0  0  0
  145.7129  130.1967  149.7137 H   0  0  0  0  0  0  0  0  0  0  0  0
  144.8264  130.0750  151.2254 H   0  0  0  0  0  0  0  0  0  0  0  0
  146.7429  132.3406  150.4291 H   0  0  0  0  0  0  0  0  0  0  0  0
  144.5199  132.5039  149.3020 H   0  0  0  0  0  0  0  0  0  0  0  0
  144.7192  133.7790  150.5002 H   0  0  0  0  0  0  0  0  0  0  0  0
  143.7114  132.3804  150.8637 H   0  0  0  0  0  0  0  0  0  0  0  0
  147.9938  132.0832  152.4232 H   0  0  0  0  0  0  0  0  0  0  0  0
  148.0345  131.8029  154.9037 H   0  0  0  0  0  0  0  0  0  0  0  0
  146.2736  131.8766  154.9488 H   0  0  0  0  0  0  0  0  0  0  0  0
  147.2038  133.2864  154.4469 H   0  0  0  0  0  0  0  0  0  0  0  0
  146.1642  129.8142  153.3876 H   0  0  0  0  0  0  0  0  0  0  0  0
  147.9128  129.7464  153.2826 H   0  0  0  0  0  0  0  0  0  0  0  0
  147.0686  124.2477  150.1666 H   0  0  0  0  0  0  0  0  0  0  0  0
  146.7543  122.5126  148.5210 H   0  0  0  0  0  0  0  0  0  0  0  0
  147.7301  130.1242  150.9287 H   0  0  0  0  0  0  0  0  0  0  0  0
  1  2  1  0  0  0  0
  1 25  1  0  0  0  0
  1 26  1  0  0  0  0
  1 27  1  0  0  0  0
  2  3  1  0  0  0  0
  3  4  1  0  0  0  0
  3 28  1  0  0  0  0
  3 29  1  0  0  0  0
  4  5  1  0  0  0  0
  4 30  1  0  0  0  0
  4 31  1  0  0  0  0
  5 23  1  0  0  0  0
  5  6  1  0  0  0  0
  6  7  2  0  0  0  0
  7  8  1  0  0  0  0
  7 21  1  0  0  0  0
  8  9  2  0  0  0  0
  8 10  1  0  0  0  0
 10 11  1  0  0  0  0
 11 12  1  0  0  0  0
 11 32  1  0  0  0  0
 11 33  1  0  0  0  0
 12 13  1  0  0  0  0
 12 34  1  0  0  0  0
 12 35  1  0  0  0  0
 13 20  1  0  0  0  0
 13 14  1  0  0  0  0
 13 50  1  0  0  0  0
 14 15  1  0  0  0  0
 14 36  1  0  0  0  0
 14 37  1  0  0  0  0
 15 16  1  0  0  0  0
 15 17  1  0  0  0  0
 15 38  1  0  0  0  0
 16 39  1  0  0  0  0
 16 40  1  0  0  0  0
 16 41  1  0  0  0  0
 17 18  1  0  0  0  0
 18 19  1  0  0  0  0
 18 20  1  0  0  0  0
 18 42  1  0  0  0  0
 19 43  1  0  0  0  0
 19 44  1  0  0  0  0
 19 45  1  0  0  0  0
 20 46  1  0  0  0  0
 20 47  1  0  0  0  0
 21 22  2  0  0  0  0
 21 48  1  0  0  0  0
 22 23  1  0  0  0  0
 22 49  1  0  0  0  0
 23 24  2  0  0  0  0
M  CHG  1  10  -1
M  CHG  1  13   1
M  END
> <s_m_source_file>
AV-unprocessed.smi

> <i_m_source_file_index>
2001

> <i_lp_mmshare_version>
43012

> <i_f3d_flags>
0

> <s_epik_input>
W0NIM11PW0NIMl1bQ0gyXW4xbmMoW2NIXVtjSF1jMT1PKUMoPU8pW05IXVtDSDJdW0NIMl1OMltDSDJdW0NAQEhdKFtDSDNdKU9bQ0BASF0oW0NIM10pW0NIMl0y

> <s_epik_cmdline>
J2VwaWtfcHl0aG9uJywgJy1waCcsICc3LjAnLCAnLXRuJywgJzgnLCAnLW1hJywgJzIwMCcsICctbWV0YWxfYmluZGluZycsICctaW1hZScsICc8aW5maWxlLm1hZT4nLCAnLW9tYWUnLCAnPG91dGZpbGUubWFlPic=

> <r_lp_tautomer_probability>
1

> <r_epik_Ionization_Penalty>
6.90846

> <r_epik_Ionization_Penalty_Charging>
6.90846

> <r_epik_Ionization_Penalty_Neutral>
1.08445e-11

> <r_epik_State_Penalty>
7.54671

> <r_epik_Charging_Adjusted_Penalty>
14.4552

> <i_epik_Tot_Q>
0

> <i_epik_Tot_abs_Q>
2

> <r_epik_Metal_State_Penalty>
3.46181

> <b_epik_Metal_Only>
1

> <s_lp_Force_Field>
OPLS_2005

> <r_lp_Energy>
40.5373

> <b_lp_Chiralities_Consistent>
1

> <s_lp_Variant>
AV-unprocessed.smi:2001-8

> <Gold.Version>
5.8.1

> <Gold.Id.Protein>
6NUR|6NUR_protein|mol2

> <Gold.PLP.Fitness>
44.1797

> <Gold.PLP.PLP>
-41.8670

> <Gold.PLP.part.hbond>
-1.0000

> <Gold.PLP.part.metal>
0.0000

> <Gold.PLP.part.buried>
-7.4351

> <Gold.PLP.part.nonpolar>
-36.9531

> <Gold.PLP.part.repulsive>
3.8381

> <Gold.PLP.ligand.clash>
0.0000

> <Gold.PLP.ligand.torsion>
0.4314

> <Gold.PLP.Chemscore.Hbond>
1.0000

> <Gold.PLP.Chemscore.CHOScore>
0.0000

> <Gold.PLP.Chemscore.Metal>
0.0000

> <Gold.Chemscore.Hbonds>
donor molecule, donor type, donor heavy atom, donor atom, acceptor molecule, acceptor atom, score
      L1  H    13    50       P1 10747  1.00

> <Gold.PLP.Chemscore.Internal.Correction>
0.1755

> <Gold.Rescore>
     Score         DG    S(hbond)    S(metal)    S(lipo)     H(rot)  DE(clash)    DE(int)     intcor
     13.20     -15.28       1.00        0.00      99.34       2.02       1.57       0.51       ----

> <Gold.Chemscore.Fitness>
13.1955

> <Gold.Chemscore.DG>
-15.2755

> <Gold.Chemscore.ZeroCoef>
-5.4800

> <Gold.Chemscore.Hbond>
0.9994

> <Gold.Chemscore.Metal>
0.0000

> <Gold.Chemscore.Lipo>
99.3437

> <Gold.Chemscore.Internal_Hbond>
0.0000

> <Gold.Chemscore.DEClash>
1.5726

> <Gold.Chemscore.DEInternal>
0.5074

> <Gold.Chemscore.Rot>
2.0179

> <Gold.Chemscore.Internal.Correction>
   9.000000E+99

> <Gold.Chemscore.Hbonds>
donor molecule, donor type, donor heavy atom, donor atom, acceptor molecule, acceptor atom, score
      L1  H    13    50       P1 10747  0.97

> <Gold.Chemscore.Hbond.Weighted>
-3.3381

> <Gold.Chemscore.Metal.Weighted>
-0.0000

> <Gold.Chemscore.Lipo.Weighted>
-11.6232

> <Gold.Chemscore.Internal_Hbond.Weighted>
0.0000

> <Gold.Chemscore.DEClash.Weighted>
1.5726

> <Gold.Chemscore.DEInternal.Weighted>
0.5074

> <Gold.Chemscore.Rot.Weighted>
5.1659

> <Gold.Chemscore.Internal.Correction.Weighted>
   9.000000E+99

> <Gold.Protein.RotatedTorsions>
[ 6907 6896 6895 6894 ] final    6.39 input  -60.11 | X-H torsion
[ 7974 7965 7964 7962 ] final  -35.01 input  175.53 | X-H torsion
[ 8008 7997 7996 7995 ] final   65.11 input   59.86 | X-H torsion
[ 10167 10162 10161 10158 ] final  137.01 input  -65.29 | X-H torsion
[ 10718 10713 10712 10709 ] final -178.49 input   66.30 | X-H torsion
[ 10763 10752 10751 10750 ] final   18.21 input  -60.55 | X-H torsion
[ 11005 11000 10999 10996 ] final  -49.50 input  -57.11 | X-H torsion

> <Gold.Protein.ActiveResidues>
 VAL166  LYS551  ARG553  GLY616  TRP617  ASP618  TYR619  PRO620  LYS621  CYS622 
 ASP623  PHE694  ASN695  SER759  ASP760  ASP761  ALA762  ILE779  LEU786  VAL792 
 PHE793  MET794  SER795  GLU796  ALA797  LYS798  CYS799  TRP800  GLU811  SER814 

> <Gold.Protein.RotatedAtoms>
  151.6730  135.0973  160.0201 H   0  0  0  0  0  0  0  0  0  0  0  0  # atno 6907 bound_to 6896
  152.3880  133.6634  159.6223 H   0  0  0  0  0  0  0  0  0  0  0  0  # atno 6908 bound_to 6896
  150.7802  133.8919  159.3357 H   0  0  0  0  0  0  0  0  0  0  0  0  # atno 6909 bound_to 6896
  146.0782  140.6108  142.8921 H   0  0  0  0  0  0  0  0  0  0  0  0  # atno 7974 bound_to 7965
  155.6565  140.3497  155.4767 H   0  0  0  0  0  0  0  0  0  0  0  0  # atno 8008 bound_to 7997
  155.9804  140.1173  157.0755 H   0  0  0  0  0  0  0  0  0  0  0  0  # atno 8009 bound_to 7997
  154.4190  140.1139  156.5414 H   0  0  0  0  0  0  0  0  0  0  0  0  # atno 8010 bound_to 7997
  139.5159  144.6433  151.5509 H   0  0  0  0  0  0  0  0  0  0  0  0  # atno 10167 bound_to 10162
  156.8450  130.9699  151.3097 H   0  0  0  0  0  0  0  0  0  0  0  0  # atno 10718 bound_to 10713
  153.1270  135.6732  153.9241 H   0  0  0  0  0  0  0  0  0  0  0  0  # atno 10763 bound_to 10752
  153.8739  135.3066  155.3444 H   0  0  0  0  0  0  0  0  0  0  0  0  # atno 10764 bound_to 10752
  154.7673  135.4957  153.9660 H   0  0  0  0  0  0  0  0  0  0  0  0  # atno 10765 bound_to 10752
  141.0763  133.6665  156.3595 H   0  0  0  0  0  0  0  0  0  0  0  0  # atno 11005 bound_to 11000
  144.7275  140.4571  143.6962 LP  0  0  0  0  0  0  0  0  0  0  0  0  # atno 17320 bound_to 7965
  145.6267  139.1531  143.2992 LP  0  0  0  0  0  0  0  0  0  0  0  0  # atno 17321 bound_to 7965
  140.6208  143.9261  150.6525 LP  0  0  0  0  0  0  0  0  0  0  0  0  # atno 17342 bound_to 10162
  140.2534  143.3576  152.1386 LP  0  0  0  0  0  0  0  0  0  0  0  0  # atno 17343 bound_to 10162
  157.6335  130.8748  149.9316 LP  0  0  0  0  0  0  0  0  0  0  0  0  # atno 17370 bound_to 10713
  156.0859  130.3668  150.0488 LP  0  0  0  0  0  0  0  0  0  0  0  0  # atno 17371 bound_to 10713
  140.5567  134.5975  157.5422 LP  0  0  0  0  0  0  0  0  0  0  0  0  # atno 17394 bound_to 11000
  139.9575  134.7510  156.0309 LP  0  0  0  0  0  0  0  0  0  0  0  0  # atno 17395 bound_to 11000

$$$$
