AV-unprocessed.smi:3348|AV-procd|sdf|12922|dock7
  -GOLD-   2272019343D 1   1.00000     0.00000
 Structure written by MMmdl.
 47 48  0  0  0  0  0  0  0  0  2 V2000
  145.9066  135.0717  153.7018 C   0  0  0  0  0  0  0  0  0  0  0  0
  146.9232  133.9567  153.4054 C   0  0  1  0  0  0  0  0  0  0  0  0
  147.0098  133.6886  151.8885 C   0  0  0  0  0  0  0  0  0  0  0  0
  145.7824  133.1428  151.3316 N   0  0  0  0  0  0  0  0  0  0  0  0
  145.5881  131.9169  150.7300 C   0  0  0  0  0  0  0  0  0  0  0  0
  144.2801  131.8553  150.3432 C   0  0  0  0  0  0  0  0  0  0  0  0
  143.7495  133.1132  150.7435 C   0  0  0  0  0  0  0  0  0  0  0  0
  144.6521  133.8828  151.3299 N   0  0  0  0  0  0  0  0  0  0  0  0
  148.2610  134.3013  153.9386 N   0  3  0  0  0  0  0  0  0  0  0  0
  149.2265  133.1842  153.9954 C   0  0  0  0  0  0  0  0  0  0  0  0
  148.9999  132.3320  155.2474 C   0  0  0  0  0  0  0  0  0  0  0  0
  149.4304  131.0071  154.9731 O   0  0  0  0  0  0  0  0  0  0  0  0
  148.3903  130.1133  154.5949 C   0  0  1  0  0  0  0  0  0  0  0  0
  147.4990  130.7772  153.5236 C   0  0  0  0  0  0  0  0  0  0  0  0
  146.4435  129.8012  152.9834 C   0  0  0  0  0  0  0  0  0  0  0  0
  147.1005  128.5282  152.4331 C   0  0  0  0  0  0  0  0  0  0  0  0
  147.9811  127.8587  153.4986 C   0  0  0  0  0  0  0  0  0  0  0  0
  149.0484  128.8256  154.0493 C   0  0  2  0  0  0  0  0  0  0  0  0
  149.9097  128.1303  155.1163 C   0  0  0  0  0  0  0  0  0  0  0  0
  144.9284  134.8266  153.2870 H   0  0  0  0  0  0  0  0  0  0  0  0
  146.2208  136.0214  153.2675 H   0  0  0  0  0  0  0  0  0  0  0  0
  145.7705  135.2232  154.7723 H   0  0  0  0  0  0  0  0  0  0  0  0
  146.5811  133.0441  153.8957 H   0  0  0  0  0  0  0  0  0  0  0  0
  147.2366  134.6125  151.3547 H   0  0  0  0  0  0  0  0  0  0  0  0
  147.8255  132.9965  151.6730 H   0  0  0  0  0  0  0  0  0  0  0  0
  146.3870  131.1970  150.6282 H   0  0  0  0  0  0  0  0  0  0  0  0
  143.7798  131.0390  149.8435 H   0  0  0  0  0  0  0  0  0  0  0  0
  142.7437  133.4883  150.6237 H   0  0  0  0  0  0  0  0  0  0  0  0
  148.6559  135.0055  153.3314 H   0  0  0  0  0  0  0  0  0  0  0  0
  149.1468  132.5619  153.1042 H   0  0  0  0  0  0  0  0  0  0  0  0
  150.2374  133.5932  154.0144 H   0  0  0  0  0  0  0  0  0  0  0  0
  149.5818  132.7404  156.0749 H   0  0  0  0  0  0  0  0  0  0  0  0
  147.9501  132.3601  155.5397 H   0  0  0  0  0  0  0  0  0  0  0  0
  147.7851  129.8492  155.4643 H   0  0  0  0  0  0  0  0  0  0  0  0
  146.9969  131.6550  153.9292 H   0  0  0  0  0  0  0  0  0  0  0  0
  148.1198  131.1307  152.6995 H   0  0  0  0  0  0  0  0  0  0  0  0
  145.7458  129.5389  153.7798 H   0  0  0  0  0  0  0  0  0  0  0  0
  145.8551  130.2835  152.2023 H   0  0  0  0  0  0  0  0  0  0  0  0
  146.3342  127.8312  152.0927 H   0  0  0  0  0  0  0  0  0  0  0  0
  147.7050  128.7749  151.5593 H   0  0  0  0  0  0  0  0  0  0  0  0
  147.3519  127.5010  154.3147 H   0  0  0  0  0  0  0  0  0  0  0  0
  148.4606  126.9775  153.0710 H   0  0  0  0  0  0  0  0  0  0  0  0
  149.7047  129.1030  153.2229 H   0  0  0  0  0  0  0  0  0  0  0  0
  149.3149  127.8531  155.9872 H   0  0  0  0  0  0  0  0  0  0  0  0
  150.7185  128.7764  155.4582 H   0  0  0  0  0  0  0  0  0  0  0  0
  150.3645  127.2213  154.7219 H   0  0  0  0  0  0  0  0  0  0  0  0
  148.1566  134.6977  154.8619 H   0  0  0  0  0  0  0  0  0  0  0  0
  1  2  1  0  0  0  0
  1 20  1  0  0  0  0
  1 21  1  0  0  0  0
  1 22  1  0  0  0  0
  2  3  1  0  0  0  0
  2  9  1  0  0  0  0
  2 23  1  0  0  0  0
  3  4  1  0  0  0  0
  3 24  1  0  0  0  0
  3 25  1  0  0  0  0
  4  8  1  0  0  0  0
  4  5  1  0  0  0  0
  5  6  2  0  0  0  0
  5 26  1  0  0  0  0
  6  7  1  0  0  0  0
  6 27  1  0  0  0  0
  7  8  2  0  0  0  0
  7 28  1  0  0  0  0
  9 10  1  0  0  0  0
  9 29  1  0  0  0  0
  9 47  1  0  0  0  0
 10 11  1  0  0  0  0
 10 30  1  0  0  0  0
 10 31  1  0  0  0  0
 11 12  1  0  0  0  0
 11 32  1  0  0  0  0
 11 33  1  0  0  0  0
 12 13  1  0  0  0  0
 13 18  1  0  0  0  0
 13 14  1  0  0  0  0
 13 34  1  0  0  0  0
 14 15  1  0  0  0  0
 14 35  1  0  0  0  0
 14 36  1  0  0  0  0
 15 16  1  0  0  0  0
 15 37  1  0  0  0  0
 15 38  1  0  0  0  0
 16 17  1  0  0  0  0
 16 39  1  0  0  0  0
 16 40  1  0  0  0  0
 17 18  1  0  0  0  0
 17 41  1  0  0  0  0
 17 42  1  0  0  0  0
 18 19  1  0  0  0  0
 18 43  1  0  0  0  0
 19 44  1  0  0  0  0
 19 45  1  0  0  0  0
 19 46  1  0  0  0  0
M  CHG  1   9   1
M  END
> <s_m_source_file>
AV-unprocessed.smi

> <i_m_source_file_index>
3348

> <i_lp_mmshare_version>
43012

> <i_f3d_flags>
0

> <s_epik_input>
bjFbY0hdW2NIXVtjSF1uMVtDSDJdW0NAQEhdKFtDSDNdKVtOSF1bQ0gyXVtDSDJdT1tDQEBIXTJbQ0gyXVtDSDJdW0NIMl1bQ0gyXVtDQEhdMltDSDNd

> <s_epik_cmdline>
J2VwaWtfcHl0aG9uJywgJy1waCcsICc3LjAnLCAnLXRuJywgJzgnLCAnLW1hJywgJzIwMCcsICctbWV0YWxfYmluZGluZycsICctaW1hZScsICc8aW5maWxlLm1hZT4nLCAnLW9tYWUnLCAnPG91dGZpbGUubWFlPic=

> <r_lp_tautomer_probability>
1

> <r_epik_Ionization_Penalty>
0.00925088

> <r_epik_Ionization_Penalty_Charging>
0.00924645

> <r_epik_Ionization_Penalty_Neutral>
4.42413e-06

> <r_epik_State_Penalty>
0.0070118

> <r_epik_Charging_Adjusted_Penalty>
0.0162583

> <i_epik_Tot_Q>
1

> <i_epik_Tot_abs_Q>
1

> <r_epik_Metal_State_Penalty>
0.00701222

> <b_epik_Metal_Only>
0

> <s_lp_Force_Field>
OPLS_2005

> <r_lp_Energy>
15.644

> <b_lp_Chiralities_Consistent>
1

> <s_lp_Variant>
AV-unprocessed.smi:3348-8

> <Gold.Version>
5.8.1

> <Gold.Id.Protein>
6NUR|6NUR_protein|mol2

> <Gold.PLP.Fitness>
45.4816

> <Gold.PLP.PLP>
-34.7910

> <Gold.PLP.part.hbond>
-1.0000

> <Gold.PLP.part.metal>
0.0000

> <Gold.PLP.part.buried>
-3.1181

> <Gold.PLP.part.nonpolar>
-29.7126

> <Gold.PLP.part.repulsive>
0.1592

> <Gold.PLP.ligand.clash>
0.0000

> <Gold.PLP.ligand.torsion>
0.7289

> <Gold.PLP.Chemscore.Hbond>
2.0000

> <Gold.PLP.Chemscore.CHOScore>
2.0000

> <Gold.PLP.Chemscore.Metal>
0.0000

> <Gold.Chemscore.Hbonds>
donor molecule, donor type, donor heavy atom, donor atom, acceptor molecule, acceptor atom, score
      L1  H     9    29       P1  7948  2.00
      L1  C     5    26       P1 10747  0.75
      L1  C     7    28       P1 10186  1.00

> <Gold.PLP.Chemscore.Internal.Correction>
0.1485

> <Gold.Rescore>
     Score         DG    S(hbond)    S(metal)    S(lipo)     H(rot)  DE(clash)    DE(int)     intcor
     13.14     -14.38       0.97        0.00      88.23       1.82       0.03       1.20       ----

> <Gold.Chemscore.Fitness>
13.1418

> <Gold.Chemscore.DG>
-14.3772

> <Gold.Chemscore.ZeroCoef>
-5.4800

> <Gold.Chemscore.Hbond>
0.9651

> <Gold.Chemscore.Metal>
0.0000

> <Gold.Chemscore.Lipo>
88.2346

> <Gold.Chemscore.Internal_Hbond>
0.0000

> <Gold.Chemscore.DEClash>
0.0323

> <Gold.Chemscore.DEInternal>
1.2032

> <Gold.Chemscore.Rot>
1.8163

> <Gold.Chemscore.Internal.Correction>
   9.000000E+99

> <Gold.Chemscore.Hbonds>
donor molecule, donor type, donor heavy atom, donor atom, acceptor molecule, acceptor atom, score
      L1  H     9    29       P1  7948  0.65

> <Gold.Chemscore.Hbond.Weighted>
-3.2235

> <Gold.Chemscore.Metal.Weighted>
-0.0000

> <Gold.Chemscore.Lipo.Weighted>
-10.3235

> <Gold.Chemscore.Internal_Hbond.Weighted>
0.0000

> <Gold.Chemscore.DEClash.Weighted>
0.0323

> <Gold.Chemscore.DEInternal.Weighted>
1.2032

> <Gold.Chemscore.Rot.Weighted>
4.6497

> <Gold.Chemscore.Internal.Correction.Weighted>
   9.000000E+99

> <Gold.Protein.RotatedTorsions>
[ 6907 6896 6895 6894 ] final -150.30 input  -60.11 | X-H torsion
[ 7974 7965 7964 7962 ] final  104.05 input  175.53 | X-H torsion
[ 8008 7997 7996 7995 ] final   36.82 input   59.86 | X-H torsion
[ 10167 10162 10161 10158 ] final   -2.57 input  -65.29 | X-H torsion
[ 10718 10713 10712 10709 ] final  122.77 input   66.30 | X-H torsion
[ 10763 10752 10751 10750 ] final -144.92 input  -60.55 | X-H torsion
[ 11005 11000 10999 10996 ] final  -72.43 input  -57.11 | X-H torsion

> <Gold.Protein.ActiveResidues>
 VAL166  LYS551  ARG553  GLY616  TRP617  ASP618  TYR619  PRO620  LYS621  CYS622 
 ASP623  PHE694  ASN695  SER759  ASP760  ASP761  ALA762  ILE779  LEU786  VAL792 
 PHE793  MET794  SER795  GLU796  ALA797  LYS798  CYS799  TRP800  GLU811  SER814 

> <Gold.Protein.RotatedAtoms>
  151.1966  133.4635  159.2595 H   0  0  0  0  0  0  0  0  0  0  0  0  # atno 6907 bound_to 6896
  151.1110  135.0027  159.8504 H   0  0  0  0  0  0  0  0  0  0  0  0  # atno 6908 bound_to 6896
  152.5450  134.1885  159.8717 H   0  0  0  0  0  0  0  0  0  0  0  0  # atno 6909 bound_to 6896
  145.3379  139.2469  143.3625 H   0  0  0  0  0  0  0  0  0  0  0  0  # atno 7974 bound_to 7965
  155.1936  140.3310  155.4354 H   0  0  0  0  0  0  0  0  0  0  0  0  # atno 8008 bound_to 7997
  156.2433  140.1906  156.6978 H   0  0  0  0  0  0  0  0  0  0  0  0  # atno 8009 bound_to 7997
  154.6189  140.0598  156.9575 H   0  0  0  0  0  0  0  0  0  0  0  0  # atno 8010 bound_to 7997
  140.6856  143.6641  150.8241 H   0  0  0  0  0  0  0  0  0  0  0  0  # atno 10167 bound_to 10162
  157.5716  131.1082  150.8355 H   0  0  0  0  0  0  0  0  0  0  0  0  # atno 10718 bound_to 10713
  154.8407  135.3427  154.6422 H   0  0  0  0  0  0  0  0  0  0  0  0  # atno 10763 bound_to 10752
  153.7033  135.6968  153.5061 H   0  0  0  0  0  0  0  0  0  0  0  0  # atno 10764 bound_to 10752
  153.2506  135.4354  155.0748 H   0  0  0  0  0  0  0  0  0  0  0  0  # atno 10765 bound_to 10752
  141.1608  133.6846  156.7057 H   0  0  0  0  0  0  0  0  0  0  0  0  # atno 11005 bound_to 11000
  146.3019  140.3970  142.8701 LP  0  0  0  0  0  0  0  0  0  0  0  0  # atno 17320 bound_to 7965
  144.8813  140.7404  143.5985 LP  0  0  0  0  0  0  0  0  0  0  0  0  # atno 17321 bound_to 7965
  140.0348  143.5407  152.2744 LP  0  0  0  0  0  0  0  0  0  0  0  0  # atno 17342 bound_to 10162
  139.6212  144.7629  151.2735 LP  0  0  0  0  0  0  0  0  0  0  0  0  # atno 17343 bound_to 10162
  156.8825  130.5184  149.5290 LP  0  0  0  0  0  0  0  0  0  0  0  0  # atno 17370 bound_to 10713
  156.0762  130.5783  150.9477 LP  0  0  0  0  0  0  0  0  0  0  0  0  # atno 17371 bound_to 10713
  140.2925  134.8229  157.4029 LP  0  0  0  0  0  0  0  0  0  0  0  0  # atno 17394 bound_to 11000
  140.1334  134.5065  155.8087 LP  0  0  0  0  0  0  0  0  0  0  0  0  # atno 17395 bound_to 11000

$$$$
