AV-unprocessed.smi:157|AV-procd|sdf|1293|dock4
  -GOLD-   2262018573D 1   1.00000     0.00000
 Structure written by MMmdl.
 35 37  0  0  0  0  0  0  0  0  1 V2000
  151.0290  143.6097  161.8682 O   0  0  0  0  0  0  0  0  0  0  0  0
  152.3289  143.4384  161.3449 C   0  0  0  0  0  0  0  0  0  0  0  0
  152.2507  143.0601  159.8584 C   0  0  1  0  0  0  0  0  0  0  0  0
  151.3815  141.9438  159.6900 O   0  0  0  0  0  0  0  0  0  0  0  0
  150.8260  141.9546  158.4074 C   0  0  2  0  0  0  0  0  0  0  0  0
  151.4382  140.8471  157.6030 N   0  0  0  0  0  0  0  0  0  0  0  0
  152.5630  140.1749  157.8853 C   0  0  0  0  0  0  0  0  0  0  0  0
  152.8809  139.2413  157.0047 N   0  0  0  0  0  0  0  0  0  0  0  0
  151.8665  139.3181  156.0526 C   0  0  0  0  0  0  0  0  0  0  0  0
  150.9659  140.3147  156.3999 C   0  0  0  0  0  0  0  0  0  0  0  0
  149.8040  140.8389  155.8660 N   0  0  0  0  0  0  0  0  0  0  0  0
  149.5398  140.5960  154.6208 C   0  0  0  0  0  0  0  0  0  0  0  0
  150.2002  139.7916  153.7031 N   0  0  0  0  0  0  0  0  0  0  0  0
  150.6328  138.4345  153.9899 C   0  0  0  0  0  0  0  0  0  0  0  0
  151.8698  138.3653  154.8929 C   0  0  1  0  0  0  0  0  0  0  0  0
  153.0244  138.6480  154.1291 O   0  0  0  0  0  0  0  0  0  0  0  0
  151.1660  143.3088  157.7761 C   0  0  0  0  0  0  0  0  0  0  0  0
  151.5783  144.1221  158.9866 C   0  0  2  0  0  0  0  0  0  0  0  0
  152.4632  145.1604  158.6196 O   0  0  0  0  0  0  0  0  0  0  0  0
  153.2375  142.8221  159.4560 H   0  0  0  0  0  0  0  0  0  0  0  0
  149.7593  141.7334  158.4560 H   0  0  0  0  0  0  0  0  0  0  0  0
  151.9744  137.3421  155.2556 H   0  0  0  0  0  0  0  0  0  0  0  0
  150.6983  144.5314  159.4851 H   0  0  0  0  0  0  0  0  0  0  0  0
  150.8735  144.5338  161.9900 H   0  0  0  0  0  0  0  0  0  0  0  0
  152.9218  144.3412  161.4938 H   0  0  0  0  0  0  0  0  0  0  0  0
  152.8072  142.6391  161.9115 H   0  0  0  0  0  0  0  0  0  0  0  0
  153.1656  140.3695  158.7600 H   0  0  0  0  0  0  0  0  0  0  0  0
  148.6644  141.0717  154.1764 H   0  0  0  0  0  0  0  0  0  0  0  0
  149.9880  139.9074  152.7228 H   0  0  0  0  0  0  0  0  0  0  0  0
  149.8048  137.9281  154.4881 H   0  0  0  0  0  0  0  0  0  0  0  0
  150.8030  137.8950  153.0578 H   0  0  0  0  0  0  0  0  0  0  0  0
  153.0727  138.0185  153.4256 H   0  0  0  0  0  0  0  0  0  0  0  0
  151.9989  143.1945  157.0792 H   0  0  0  0  0  0  0  0  0  0  0  0
  150.3098  143.7205  157.2411 H   0  0  0  0  0  0  0  0  0  0  0  0
  152.8389  144.9514  157.7779 H   0  0  0  0  0  0  0  0  0  0  0  0
  1  2  1  0  0  0  0
  1 24  1  0  0  0  0
  2  3  1  0  0  0  0
  2 25  1  0  0  0  0
  2 26  1  0  0  0  0
  3 20  1  0  0  0  0
  3 18  1  0  0  0  0
  3  4  1  0  0  0  0
  4  5  1  0  0  0  0
  5 21  1  0  0  0  0
  5  6  1  0  0  0  0
  5 17  1  0  0  0  0
  6 10  1  0  0  0  0
  6  7  1  0  0  0  0
  7  8  2  0  0  0  0
  7 27  1  0  0  0  0
  8  9  1  0  0  0  0
  9 15  1  0  0  0  0
  9 10  2  0  0  0  0
 10 11  1  0  0  0  0
 11 12  2  0  0  0  0
 12 13  1  0  0  0  0
 12 28  1  0  0  0  0
 13 14  1  0  0  0  0
 13 29  1  0  0  0  0
 14 15  1  0  0  0  0
 14 30  1  0  0  0  0
 14 31  1  0  0  0  0
 15 22  1  0  0  0  0
 15 16  1  0  0  0  0
 16 32  1  0  0  0  0
 17 18  1  0  0  0  0
 17 33  1  0  0  0  0
 17 34  1  0  0  0  0
 18 23  1  0  0  0  0
 18 19  1  0  0  0  0
 19 35  1  0  0  0  0
M  END
> <s_m_source_file>
AV-unprocessed.smi

> <i_m_source_file_index>
157

> <i_lp_mmshare_version>
43012

> <i_f3d_flags>
0

> <s_epik_input>
W09IXVtDSDJdW0NASF0xT1tDQEhdKFtDSDJdW0NAQEhdMVtPSF0pbihbY0hdbjIpYyhjMjMpTj1bQ0hdW05IXVtDSDJdW0NASF0zW09IXQ==

> <s_epik_cmdline>
J2VwaWtfcHl0aG9uJywgJy1waCcsICc3LjAnLCAnLXRuJywgJzgnLCAnLW1hJywgJzIwMCcsICctbWV0YWxfYmluZGluZycsICctaW1hZScsICc8aW5maWxlLm1hZT4nLCAnLW9tYWUnLCAnPG91dGZpbGUubWFlPic=

> <r_lp_tautomer_probability>
1

> <r_epik_Ionization_Penalty>
0.0357149

> <r_epik_Ionization_Penalty_Charging>
0.0355056

> <r_epik_Ionization_Penalty_Neutral>
0.000209255

> <r_epik_State_Penalty>
0.0296046

> <r_epik_Charging_Adjusted_Penalty>
0.0651102

> <i_epik_Tot_Q>
0

> <i_epik_Tot_abs_Q>
0

> <r_epik_Metal_State_Penalty>
3.03559e-05

> <b_epik_Metal_Only>
0

> <s_epik_Chemistry_Notes>
This compound has an imine and may undergo hydrolysis. This compound contains an acetal/aminal-like group ( X-CH(R)-Y where X, Y are N, S, or O) that may be acid/base labile, releasing an aldehyde.

> <s_lp_Force_Field>
OPLS_2005

> <r_lp_Energy>
43.2358

> <b_lp_Chiralities_Consistent>
1

> <s_lp_Variant>
AV-unprocessed.smi:157-3

> <Gold.Version>
5.8.1

> <Gold.Id.Protein>
6NUR|6NUR_protein|mol2

> <Gold.PLP.Fitness>
43.2090

> <Gold.PLP.PLP>
-38.3112

> <Gold.PLP.part.hbond>
-5.9214

> <Gold.PLP.part.metal>
0.0000

> <Gold.PLP.part.buried>
-5.2921

> <Gold.PLP.part.nonpolar>
-28.4266

> <Gold.PLP.part.repulsive>
1.6606

> <Gold.PLP.ligand.clash>
0.0000

> <Gold.PLP.ligand.torsion>
0.4908

> <Gold.PLP.Chemscore.Hbond>
1.9535

> <Gold.PLP.Chemscore.CHOScore>
0.0000

> <Gold.PLP.Chemscore.Metal>
0.0000

> <Gold.Chemscore.Hbonds>
donor molecule, donor type, donor heavy atom, donor atom, acceptor molecule, acceptor atom, score
      L1  H    13    29       P1  7957  1.00
      P1  H  6933  6945       L1     1  0.34
      P1  H  7997  8010       L1     8  0.65

> <Gold.PLP.Chemscore.Internal.Correction>
0.0190

> <Gold.Rescore>
     Score         DG    S(hbond)    S(metal)    S(lipo)     H(rot)  DE(clash)    DE(int)     intcor
      6.44      -7.38       0.98        0.00      67.80       3.64       0.33       0.61       ----

> <Gold.Chemscore.Fitness>
6.4429

> <Gold.Chemscore.DG>
-7.3819

> <Gold.Chemscore.ZeroCoef>
-5.4800

> <Gold.Chemscore.Hbond>
0.9813

> <Gold.Chemscore.Metal>
0.0000

> <Gold.Chemscore.Lipo>
67.8031

> <Gold.Chemscore.Internal_Hbond>
0.0000

> <Gold.Chemscore.DEClash>
0.3269

> <Gold.Chemscore.DEInternal>
0.6121

> <Gold.Chemscore.Rot>
3.6362

> <Gold.Chemscore.Internal.Correction>
   9.000000E+99

> <Gold.Chemscore.Hbonds>
donor molecule, donor type, donor heavy atom, donor atom, acceptor molecule, acceptor atom, score
      L1  H    13    29       P1  7957  0.99
      P1  H  6933  6945       L1     1  0.28
      P1  H  7997  8010       L1     8  0.05

> <Gold.Chemscore.Hbond.Weighted>
-3.2777

> <Gold.Chemscore.Metal.Weighted>
-0.0000

> <Gold.Chemscore.Lipo.Weighted>
-7.9330

> <Gold.Chemscore.Internal_Hbond.Weighted>
0.0000

> <Gold.Chemscore.DEClash.Weighted>
0.3269

> <Gold.Chemscore.DEInternal.Weighted>
0.6121

> <Gold.Chemscore.Rot.Weighted>
9.3087

> <Gold.Chemscore.Internal.Correction.Weighted>
   9.000000E+99

> <Gold.Protein.RotatedTorsions>
[ 6907 6896 6895 6894 ] final  -77.58 input  -60.11 | X-H torsion
[ 7974 7965 7964 7962 ] final -118.50 input  175.53 | X-H torsion
[ 8008 7997 7996 7995 ] final   68.23 input   59.86 | X-H torsion
[ 10167 10162 10161 10158 ] final  -87.66 input  -65.29 | X-H torsion
[ 10718 10713 10712 10709 ] final -137.19 input   66.30 | X-H torsion
[ 10763 10752 10751 10750 ] final  -99.13 input  -60.55 | X-H torsion
[ 11005 11000 10999 10996 ] final -111.19 input  -57.11 | X-H torsion

> <Gold.Protein.ActiveResidues>
 VAL166  LYS551  ARG553  GLY616  TRP617  ASP618  TYR619  PRO620  LYS621  CYS622 
 ASP623  PHE694  ASN695  SER759  ASP760  ASP761  ALA762  ILE779  LEU786  VAL792 
 PHE793  MET794  SER795  GLU796  ALA797  LYS798  CYS799  TRP800  GLU811  SER814 

> <Gold.Protein.RotatedAtoms>
  150.6995  134.4400  159.5287 H   0  0  0  0  0  0  0  0  0  0  0  0  # atno 6907 bound_to 6896
  152.2112  134.8497  160.0506 H   0  0  0  0  0  0  0  0  0  0  0  0  # atno 6908 bound_to 6896
  151.9382  133.3595  159.3992 H   0  0  0  0  0  0  0  0  0  0  0  0  # atno 6909 bound_to 6896
  145.0731  140.8373  143.4084 H   0  0  0  0  0  0  0  0  0  0  0  0  # atno 7974 bound_to 7965
  155.7052  140.3495  155.4950 H   0  0  0  0  0  0  0  0  0  0  0  0  # atno 8008 bound_to 7997
  155.9405  140.1101  157.1081 H   0  0  0  0  0  0  0  0  0  0  0  0  # atno 8009 bound_to 7997
  154.4102  140.1213  156.4907 H   0  0  0  0  0  0  0  0  0  0  0  0  # atno 8010 bound_to 7997
  140.3822  143.2743  151.9369 H   0  0  0  0  0  0  0  0  0  0  0  0  # atno 10167 bound_to 10162
  156.2854  130.7344  151.1354 H   0  0  0  0  0  0  0  0  0  0  0  0  # atno 10718 bound_to 10713
  154.7472  135.4983  153.9225 H   0  0  0  0  0  0  0  0  0  0  0  0  # atno 10763 bound_to 10752
  153.1105  135.6708  153.9517 H   0  0  0  0  0  0  0  0  0  0  0  0  # atno 10764 bound_to 10752
  153.9278  135.3081  155.3425 H   0  0  0  0  0  0  0  0  0  0  0  0  # atno 10765 bound_to 10752
  141.0748  133.9319  157.2411 H   0  0  0  0  0  0  0  0  0  0  0  0  # atno 11005 bound_to 11000
  145.1269  139.2657  143.5559 LP  0  0  0  0  0  0  0  0  0  0  0  0  # atno 17320 bound_to 7965
  146.3529  140.0909  142.8612 LP  0  0  0  0  0  0  0  0  0  0  0  0  # atno 17321 bound_to 7965
  139.4794  144.5807  151.7937 LP  0  0  0  0  0  0  0  0  0  0  0  0  # atno 17342 bound_to 10162
  140.4925  144.1289  150.5953 LP  0  0  0  0  0  0  0  0  0  0  0  0  # atno 17343 bound_to 10162
  157.7327  131.0597  150.5616 LP  0  0  0  0  0  0  0  0  0  0  0  0  # atno 17370 bound_to 10713
  156.5726  130.4283  149.6013 LP  0  0  0  0  0  0  0  0  0  0  0  0  # atno 17371 bound_to 10713
  139.9561  135.0165  156.9131 LP  0  0  0  0  0  0  0  0  0  0  0  0  # atno 17394 bound_to 11000
  140.5596  134.0548  155.7394 LP  0  0  0  0  0  0  0  0  0  0  0  0  # atno 17395 bound_to 11000

$$$$
