AV-unprocessed.smi:1800|AV-procd|sdf|7263|dock7
  -GOLD-   22720 8513D 1   1.00000     0.00000
 Structure written by MMmdl.
 36 37  0  0  0  0  0  0  0  0  1 V2000
  150.7274  139.8097  158.0375 C   0  0  0  0  0  0  0  0  0  0  0  0
  150.5305  141.3285  157.9529 C   0  0  2  0  0  0  0  0  0  0  0  0
  150.7817  141.8731  156.5338 C   0  0  0  0  0  0  0  0  0  0  0  0
  149.8478  141.3336  155.5604 N   0  0  0  0  0  0  0  0  0  0  0  0
  148.7340  141.9384  155.0168 C   0  0  0  0  0  0  0  0  0  0  0  0
  148.1771  141.0523  154.1400 C   0  0  0  0  0  0  0  0  0  0  0  0
  149.0299  139.9164  154.2208 C   0  0  0  0  0  0  0  0  0  0  0  0
  150.0272  140.0863  155.0738 N   0  0  0  0  0  0  0  0  0  0  0  0
  151.4254  141.9847  158.9111 N   0  0  0  0  0  0  0  0  0  0  0  0
  151.3664  143.7010  159.0685 S   0  0  0  0  0  0  0  0  0  0  0  0
  151.6190  144.2738  157.7369 O   0  0  0  0  0  0  0  0  0  0  0  0
  150.1220  144.0261  159.7821 O   0  0  0  0  0  0  0  0  0  0  0  0
  152.8222  144.0385  160.1703 C   0  0  0  0  0  0  0  0  0  0  0  0
  153.5709  142.7460  160.5066 C   0  0  0  0  0  0  0  0  0  0  0  0
  152.7654  142.1198  161.6474 C   0  0  0  0  0  0  0  0  0  0  0  0
  152.1379  143.2981  162.4081 C   0  0  0  0  0  0  0  0  0  0  0  0
  152.3802  144.5478  161.5475 C   0  0  0  0  0  0  0  0  0  0  0  0
  150.0522  139.2894  157.3578 H   0  0  0  0  0  0  0  0  0  0  0  0
  150.5263  139.4432  159.0447 H   0  0  0  0  0  0  0  0  0  0  0  0
  151.7471  139.5257  157.7751 H   0  0  0  0  0  0  0  0  0  0  0  0
  149.4970  141.5431  158.2285 H   0  0  0  0  0  0  0  0  0  0  0  0
  150.7247  142.9631  156.5236 H   0  0  0  0  0  0  0  0  0  0  0  0
  151.7892  141.6121  156.2073 H   0  0  0  0  0  0  0  0  0  0  0  0
  148.4386  142.9404  155.2911 H   0  0  0  0  0  0  0  0  0  0  0  0
  147.2959  141.1946  153.5324 H   0  0  0  0  0  0  0  0  0  0  0  0
  148.9554  138.9800  153.6878 H   0  0  0  0  0  0  0  0  0  0  0  0
  151.3960  141.5264  159.8215 H   0  0  0  0  0  0  0  0  0  0  0  0
  153.4736  144.7462  159.6567 H   0  0  0  0  0  0  0  0  0  0  0  0
  153.6893  142.0751  159.6557 H   0  0  0  0  0  0  0  0  0  0  0  0
  154.5714  142.9928  160.8645 H   0  0  0  0  0  0  0  0  0  0  0  0
  151.9764  141.4890  161.2359 H   0  0  0  0  0  0  0  0  0  0  0  0
  153.3840  141.4926  162.2899 H   0  0  0  0  0  0  0  0  0  0  0  0
  151.0712  143.1277  162.5593 H   0  0  0  0  0  0  0  0  0  0  0  0
  152.5901  143.4195  163.3929 H   0  0  0  0  0  0  0  0  0  0  0  0
  153.1879  145.1341  161.9872 H   0  0  0  0  0  0  0  0  0  0  0  0
  151.5072  145.1979  161.4972 H   0  0  0  0  0  0  0  0  0  0  0  0
  1  2  1  0  0  0  0
  1 18  1  0  0  0  0
  1 19  1  0  0  0  0
  1 20  1  0  0  0  0
  2  3  1  0  0  0  0
  2  9  1  0  0  0  0
  2 21  1  0  0  0  0
  3  4  1  0  0  0  0
  3 22  1  0  0  0  0
  3 23  1  0  0  0  0
  4  8  1  0  0  0  0
  4  5  1  0  0  0  0
  5  6  2  0  0  0  0
  5 24  1  0  0  0  0
  6  7  1  0  0  0  0
  6 25  1  0  0  0  0
  7  8  2  0  0  0  0
  7 26  1  0  0  0  0
  9 10  1  0  0  0  0
  9 27  1  0  0  0  0
 10 11  2  0  0  0  0
 10 12  2  0  0  0  0
 10 13  1  0  0  0  0
 13 17  1  0  0  0  0
 13 14  1  0  0  0  0
 13 28  1  0  0  0  0
 14 15  1  0  0  0  0
 14 29  1  0  0  0  0
 14 30  1  0  0  0  0
 15 16  1  0  0  0  0
 15 31  1  0  0  0  0
 15 32  1  0  0  0  0
 16 17  1  0  0  0  0
 16 33  1  0  0  0  0
 16 34  1  0  0  0  0
 17 35  1  0  0  0  0
 17 36  1  0  0  0  0
M  END
> <s_m_source_file>
AV-unprocessed.smi

> <i_m_source_file_index>
1800

> <i_lp_mmshare_version>
43012

> <i_f3d_flags>
0

> <s_epik_input>
bjFbY0hdW2NIXVtjSF1uMVtDSDJdW0NAQEhdKFtDSDNdKVtOSF1TKD1PKSg9TylbQ0hdMltDSDJdW0NIMl1bQ0gyXVtDSDJdMg==

> <s_epik_cmdline>
J2VwaWtfcHl0aG9uJywgJy1waCcsICc3LjAnLCAnLXRuJywgJzgnLCAnLW1hJywgJzIwMCcsICctbWV0YWxfYmluZGluZycsICctaW1hZScsICc8aW5maWxlLm1hZT4nLCAnLW9tYWUnLCAnPG91dGZpbGUubWFlPic=

> <r_lp_tautomer_probability>
1

> <r_epik_Ionization_Penalty>
1.44925e-05

> <r_epik_Ionization_Penalty_Charging>
0

> <r_epik_Ionization_Penalty_Neutral>
1.44925e-05

> <r_epik_State_Penalty>
-0

> <r_epik_Charging_Adjusted_Penalty>
0

> <i_epik_Tot_Q>
0

> <i_epik_Tot_abs_Q>
0

> <r_epik_Metal_State_Penalty>
0.00862991

> <b_epik_Metal_Only>
0

> <s_lp_Force_Field>
OPLS_2005

> <r_lp_Energy>
14.2601

> <b_lp_Chiralities_Consistent>
1

> <s_lp_Variant>
AV-unprocessed.smi:1800-1

> <Gold.Version>
5.8.1

> <Gold.Id.Protein>
6NUR|6NUR_protein|mol2

> <Gold.PLP.Fitness>
44.0114

> <Gold.PLP.PLP>
-37.3273

> <Gold.PLP.part.hbond>
-2.0000

> <Gold.PLP.part.metal>
0.0000

> <Gold.PLP.part.buried>
-0.9966

> <Gold.PLP.part.nonpolar>
-34.4478

> <Gold.PLP.part.repulsive>
0.4112

> <Gold.PLP.ligand.clash>
0.0000

> <Gold.PLP.ligand.torsion>
0.5329

> <Gold.PLP.Chemscore.Hbond>
1.0000

> <Gold.PLP.Chemscore.CHOScore>
1.4872

> <Gold.PLP.Chemscore.Metal>
0.0000

> <Gold.Chemscore.Hbonds>
donor molecule, donor type, donor heavy atom, donor atom, acceptor molecule, acceptor atom, score
      P1  H  7989  7998       L1     8  0.06
      L1  C     5    24       P1  8028  0.56
      L1  C     7    26       P1  7957  0.10

> <Gold.PLP.Chemscore.Internal.Correction>
0.2884

> <Gold.Rescore>
     Score         DG    S(hbond)    S(metal)    S(lipo)     H(rot)  DE(clash)    DE(int)     intcor
     10.38     -12.31       0.15        0.00      92.61       1.76       0.07       1.86       ----

> <Gold.Chemscore.Fitness>
10.3834

> <Gold.Chemscore.DG>
-12.3129

> <Gold.Chemscore.ZeroCoef>
-5.4800

> <Gold.Chemscore.Hbond>
0.1497

> <Gold.Chemscore.Metal>
0.0000

> <Gold.Chemscore.Lipo>
92.6052

> <Gold.Chemscore.Internal_Hbond>
0.0000

> <Gold.Chemscore.DEClash>
0.0693

> <Gold.Chemscore.DEInternal>
1.8602

> <Gold.Chemscore.Rot>
1.7585

> <Gold.Chemscore.Internal.Correction>
   9.000000E+99

> <Gold.Chemscore.Hbond.Weighted>
-0.5000

> <Gold.Chemscore.Metal.Weighted>
-0.0000

> <Gold.Chemscore.Lipo.Weighted>
-10.8348

> <Gold.Chemscore.Internal_Hbond.Weighted>
0.0000

> <Gold.Chemscore.DEClash.Weighted>
0.0693

> <Gold.Chemscore.DEInternal.Weighted>
1.8602

> <Gold.Chemscore.Rot.Weighted>
4.5019

> <Gold.Chemscore.Internal.Correction.Weighted>
   9.000000E+99

> <Gold.Protein.RotatedTorsions>
[ 6907 6896 6895 6894 ] final -137.27 input  -60.11 | X-H torsion
[ 7974 7965 7964 7962 ] final   -0.67 input  175.53 | X-H torsion
[ 8008 7997 7996 7995 ] final  -11.92 input   59.86 | X-H torsion
[ 10167 10162 10161 10158 ] final -145.61 input  -65.29 | X-H torsion
[ 10718 10713 10712 10709 ] final   72.54 input   66.30 | X-H torsion
[ 10763 10752 10751 10750 ] final  -90.94 input  -60.55 | X-H torsion
[ 11005 11000 10999 10996 ] final  -21.36 input  -57.11 | X-H torsion

> <Gold.Protein.ActiveResidues>
 VAL166  LYS551  ARG553  GLY616  TRP617  ASP618  TYR619  PRO620  LYS621  CYS622 
 ASP623  PHE694  ASN695  SER759  ASP760  ASP761  ALA762  ILE779  LEU786  VAL792 
 PHE793  MET794  SER795  GLU796  ALA797  LYS798  CYS799  TRP800  GLU811  SER814 

> <Gold.Protein.RotatedAtoms>
  151.0204  133.5882  159.2671 H   0  0  0  0  0  0  0  0  0  0  0  0  # atno 6907 bound_to 6896
  151.3000  135.0765  159.9245 H   0  0  0  0  0  0  0  0  0  0  0  0  # atno 6908 bound_to 6896
  152.5322  133.9888  159.7895 H   0  0  0  0  0  0  0  0  0  0  0  0  # atno 6909 bound_to 6896
  146.2425  140.1305  142.8338 H   0  0  0  0  0  0  0  0  0  0  0  0  # atno 7974 bound_to 7965
  154.5422  140.2290  155.8622 H   0  0  0  0  0  0  0  0  0  0  0  0  # atno 8008 bound_to 7997
  156.1869  140.3086  155.9218 H   0  0  0  0  0  0  0  0  0  0  0  0  # atno 8009 bound_to 7997
  155.3235  140.0441  157.3031 H   0  0  0  0  0  0  0  0  0  0  0  0  # atno 8010 bound_to 7997
  139.7790  143.8129  152.2636 H   0  0  0  0  0  0  0  0  0  0  0  0  # atno 10167 bound_to 10162
  157.6506  130.9584  150.0943 H   0  0  0  0  0  0  0  0  0  0  0  0  # atno 10718 bound_to 10713
  154.6709  135.5286  153.8137 H   0  0  0  0  0  0  0  0  0  0  0  0  # atno 10763 bound_to 10752
  153.0501  135.6529  154.0726 H   0  0  0  0  0  0  0  0  0  0  0  0  # atno 10764 bound_to 10752
  154.0625  135.2960  155.3302 H   0  0  0  0  0  0  0  0  0  0  0  0  # atno 10765 bound_to 10752
  140.8553  133.7827  156.0013 H   0  0  0  0  0  0  0  0  0  0  0  0  # atno 11005 bound_to 11000
  145.0330  140.8886  143.5098 LP  0  0  0  0  0  0  0  0  0  0  0  0  # atno 17320 bound_to 7965
  145.1372  139.2595  143.5509 LP  0  0  0  0  0  0  0  0  0  0  0  0  # atno 17321 bound_to 7965
  139.8186  144.7305  150.9603 LP  0  0  0  0  0  0  0  0  0  0  0  0  # atno 17342 bound_to 10162
  140.7817  143.4181  151.0885 LP  0  0  0  0  0  0  0  0  0  0  0  0  # atno 17343 bound_to 10162
  156.1883  130.3653  149.8943 LP  0  0  0  0  0  0  0  0  0  0  0  0  # atno 17370 bound_to 10713
  156.6877  130.8883  151.3584 LP  0  0  0  0  0  0  0  0  0  0  0  0  # atno 17371 bound_to 10713
  140.8744  134.2688  157.5175 LP  0  0  0  0  0  0  0  0  0  0  0  0  # atno 17394 bound_to 11000
  139.8705  134.9583  156.4297 LP  0  0  0  0  0  0  0  0  0  0  0  0  # atno 17395 bound_to 11000

$$$$
