AV-unprocessed.smi:672|AV-procd|sdf|3293|dock4
  -GOLD-   22720 0253D 1   1.00000     0.00000
 Structure written by MMmdl.
 35 36  0  0  0  0  0  0  0  0  2 V2000
  145.4515  133.5866  162.4885 C   0  0  0  0  0  0  0  0  0  0  0  0
  146.9685  133.7293  162.3266 C   0  0  0  0  0  0  0  0  0  0  0  0
  147.3478  134.9263  161.5205 C   0  0  0  0  0  0  0  0  0  0  0  0
  147.2030  136.1767  161.9670 N   0  0  0  0  0  0  0  0  0  0  0  0
  147.5968  137.1168  161.0259 N   0  0  0  0  0  0  0  0  0  0  0  0
  148.0085  136.5673  159.8745 C   0  0  0  0  0  0  0  0  0  0  0  0
  148.4291  137.3047  158.8336 N   0  5  0  0  0  0  0  0  0  0  0  0
  149.7392  137.6190  158.7149 C   0  0  0  0  0  0  0  0  0  0  0  0
  150.6930  136.9252  159.0753 O   0  0  0  0  0  0  0  0  0  0  0  0
  149.9587  138.8140  158.1479 N   0  0  0  0  0  0  0  0  0  0  0  0
  151.2677  139.4123  157.8945 C   0  0  2  0  0  0  0  0  0  0  0  0
  152.1990  139.2992  159.1203 C   0  0  0  0  0  0  0  0  0  0  0  0
  152.7293  140.7095  159.3852 C   0  0  0  0  0  0  0  0  0  0  0  0
  151.6283  141.6314  158.8634 C   0  0  1  0  0  0  0  0  0  0  0  0
  152.2074  143.3188  158.5222 S   0  0  0  0  0  0  0  0  0  0  0  0
  152.2978  143.9753  160.2092 C   0  0  0  0  0  0  0  0  0  0  0  0
  151.1251  140.9173  157.6071 C   0  0  0  0  0  0  0  0  0  0  0  0
  147.9591  134.8047  159.8793 S   0  0  0  0  0  0  0  0  0  0  0  0
  145.2047  132.7029  163.0769 H   0  0  0  0  0  0  0  0  0  0  0  0
  144.9603  133.4907  161.5198 H   0  0  0  0  0  0  0  0  0  0  0  0
  145.0274  134.4543  162.9947 H   0  0  0  0  0  0  0  0  0  0  0  0
  147.4432  133.7979  163.3062 H   0  0  0  0  0  0  0  0  0  0  0  0
  147.3757  132.8405  161.8440 H   0  0  0  0  0  0  0  0  0  0  0  0
  149.1497  139.3487  157.8676 H   0  0  0  0  0  0  0  0  0  0  0  0
  151.7203  138.9290  157.0268 H   0  0  0  0  0  0  0  0  0  0  0  0
  151.6442  138.9575  159.9956 H   0  0  0  0  0  0  0  0  0  0  0  0
  153.0071  138.5859  158.9554 H   0  0  0  0  0  0  0  0  0  0  0  0
  152.9554  140.8753  160.4386 H   0  0  0  0  0  0  0  0  0  0  0  0
  153.6477  140.8663  158.8178 H   0  0  0  0  0  0  0  0  0  0  0  0
  150.8171  141.6747  159.5917 H   0  0  0  0  0  0  0  0  0  0  0  0
  152.6040  145.0211  160.1882 H   0  0  0  0  0  0  0  0  0  0  0  0
  153.0232  143.4172  160.8008 H   0  0  0  0  0  0  0  0  0  0  0  0
  151.3249  143.9095  160.6964 H   0  0  0  0  0  0  0  0  0  0  0  0
  151.7610  141.1759  156.7593 H   0  0  0  0  0  0  0  0  0  0  0  0
  150.1085  141.2129  157.3441 H   0  0  0  0  0  0  0  0  0  0  0  0
  1  2  1  0  0  0  0
  1 19  1  0  0  0  0
  1 20  1  0  0  0  0
  1 21  1  0  0  0  0
  2  3  1  0  0  0  0
  2 22  1  0  0  0  0
  2 23  1  0  0  0  0
  3 18  1  0  0  0  0
  3  4  2  0  0  0  0
  4  5  1  0  0  0  0
  5  6  2  0  0  0  0
  6  7  1  0  0  0  0
  6 18  1  0  0  0  0
  7  8  1  0  0  0  0
  8  9  2  0  0  0  0
  8 10  1  0  0  0  0
 10 11  1  0  0  0  0
 10 24  1  0  0  0  0
 11 17  1  0  0  0  0
 11 12  1  0  0  0  0
 11 25  1  0  0  0  0
 12 13  1  0  0  0  0
 12 26  1  0  0  0  0
 12 27  1  0  0  0  0
 13 14  1  0  0  0  0
 13 28  1  0  0  0  0
 13 29  1  0  0  0  0
 14 15  1  0  0  0  0
 14 17  1  0  0  0  0
 14 30  1  0  0  0  0
 15 16  1  0  0  0  0
 16 31  1  0  0  0  0
 16 32  1  0  0  0  0
 16 33  1  0  0  0  0
 17 34  1  0  0  0  0
 17 35  1  0  0  0  0
M  CHG  1   7  -1
M  END
> <s_m_source_file>
AV-unprocessed.smi

> <i_m_source_file_index>
672

> <i_lp_mmshare_version>
43012

> <i_f3d_flags>
0

> <s_epik_input>
W0NIM11bQ0gyXWMxbm5jKHMxKVtOSF1DKD1PKVtOSF1bQ0BASF0yW0NIMl1bQ0gyXVtDQEhdKFtDSDJdMilTW0NIM10=

> <s_epik_cmdline>
J2VwaWtfcHl0aG9uJywgJy1waCcsICc3LjAnLCAnLXRuJywgJzgnLCAnLW1hJywgJzIwMCcsICctbWV0YWxfYmluZGluZycsICctaW1hZScsICc8aW5maWxlLm1hZT4nLCAnLW9tYWUnLCAnPG91dGZpbGUubWFlPic=

> <r_lp_tautomer_probability>
1

> <r_epik_Ionization_Penalty>
4.49964

> <r_epik_Ionization_Penalty_Charging>
4.32991

> <r_epik_Ionization_Penalty_Neutral>
0.169727

> <r_epik_State_Penalty>
4.32952

> <r_epik_Charging_Adjusted_Penalty>
8.65943

> <i_epik_Tot_Q>
-1

> <i_epik_Tot_abs_Q>
1

> <r_epik_Metal_State_Penalty>
0.740482

> <b_epik_Metal_Only>
1

> <s_lp_Force_Field>
OPLS_2005

> <r_lp_Energy>
9.96547

> <b_lp_Chiralities_Consistent>
1

> <s_lp_Variant>
AV-unprocessed.smi:672-5

> <Gold.Version>
5.8.1

> <Gold.Id.Protein>
6NUR|6NUR_protein|mol2

> <Gold.PLP.Fitness>
41.3705

> <Gold.PLP.PLP>
-35.6621

> <Gold.PLP.part.hbond>
-3.0000

> <Gold.PLP.part.metal>
0.0000

> <Gold.PLP.part.buried>
-5.3708

> <Gold.PLP.part.nonpolar>
-27.2777

> <Gold.PLP.part.repulsive>
0.1422

> <Gold.PLP.ligand.clash>
0.0000

> <Gold.PLP.ligand.torsion>
1.3888

> <Gold.PLP.Chemscore.Hbond>
2.8080

> <Gold.PLP.Chemscore.CHOScore>
0.0000

> <Gold.PLP.Chemscore.Metal>
0.0000

> <Gold.Chemscore.Hbonds>
donor molecule, donor type, donor heavy atom, donor atom, acceptor molecule, acceptor atom, score
      P1  H  6896  6907       L1     9  0.91
      P1  H  6931  6943       L1     5  0.91
      P1  H  6934  6947       L1     5  0.94

> <Gold.PLP.Chemscore.Internal.Correction>
0.0620

> <Gold.Rescore>
     Score         DG    S(hbond)    S(metal)    S(lipo)     H(rot)  DE(clash)    DE(int)     intcor
     17.64     -20.00       2.42        0.00      84.22       1.34       0.02       2.34       ----

> <Gold.Chemscore.Fitness>
17.6426

> <Gold.Chemscore.DG>
-19.9996

> <Gold.Chemscore.ZeroCoef>
-5.4800

> <Gold.Chemscore.Hbond>
2.4247

> <Gold.Chemscore.Metal>
0.0000

> <Gold.Chemscore.Lipo>
84.2232

> <Gold.Chemscore.Internal_Hbond>
0.0000

> <Gold.Chemscore.DEClash>
0.0158

> <Gold.Chemscore.DEInternal>
2.3412

> <Gold.Chemscore.Rot>
1.3410

> <Gold.Chemscore.Internal.Correction>
   9.000000E+99

> <Gold.Chemscore.Hbonds>
donor molecule, donor type, donor heavy atom, donor atom, acceptor molecule, acceptor atom, score
      P1  H  6896  6907       L1     9  0.87
      P1  H  6931  6943       L1     5  0.43
      P1  H  6934  6947       L1     5  0.82

> <Gold.Chemscore.Hbond.Weighted>
-8.0984

> <Gold.Chemscore.Metal.Weighted>
-0.0000

> <Gold.Chemscore.Lipo.Weighted>
-9.8541

> <Gold.Chemscore.Internal_Hbond.Weighted>
0.0000

> <Gold.Chemscore.DEClash.Weighted>
0.0158

> <Gold.Chemscore.DEInternal.Weighted>
2.3412

> <Gold.Chemscore.Rot.Weighted>
3.4329

> <Gold.Chemscore.Internal.Correction.Weighted>
   9.000000E+99

> <Gold.Protein.RotatedTorsions>
[ 6907 6896 6895 6894 ] final  -36.66 input  -60.11 | X-H torsion
[ 7974 7965 7964 7962 ] final -149.78 input  175.53 | X-H torsion
[ 8008 7997 7996 7995 ] final   37.91 input   59.86 | X-H torsion
[ 10167 10162 10161 10158 ] final    0.94 input  -65.29 | X-H torsion
[ 10718 10713 10712 10709 ] final  -95.33 input   66.30 | X-H torsion
[ 10763 10752 10751 10750 ] final -134.91 input  -60.55 | X-H torsion
[ 11005 11000 10999 10996 ] final   -9.19 input  -57.11 | X-H torsion

> <Gold.Protein.ActiveResidues>
 VAL166  LYS551  ARG553  GLY616  TRP617  ASP618  TYR619  PRO620  LYS621  CYS622 
 ASP623  PHE694  ASN695  SER759  ASP760  ASP761  ALA762  ILE779  LEU786  VAL792 
 PHE793  MET794  SER795  GLU796  ALA797  LYS798  CYS799  TRP800  GLU811  SER814 

> <Gold.Protein.RotatedAtoms>
  151.0243  134.9492  159.8076 H   0  0  0  0  0  0  0  0  0  0  0  0  # atno 6907 bound_to 6896
  152.5332  134.2862  159.9036 H   0  0  0  0  0  0  0  0  0  0  0  0  # atno 6908 bound_to 6896
  151.2870  133.4141  159.2664 H   0  0  0  0  0  0  0  0  0  0  0  0  # atno 6909 bound_to 6896
  144.7947  140.5019  143.5748 H   0  0  0  0  0  0  0  0  0  0  0  0  # atno 7974 bound_to 7965
  155.2115  140.3324  155.4328 H   0  0  0  0  0  0  0  0  0  0  0  0  # atno 8008 bound_to 7997
  156.2368  140.1876  156.7145 H   0  0  0  0  0  0  0  0  0  0  0  0  # atno 8009 bound_to 7997
  154.6075  140.0614  156.9435 H   0  0  0  0  0  0  0  0  0  0  0  0  # atno 8010 bound_to 7997
  140.6705  143.7060  150.7914 H   0  0  0  0  0  0  0  0  0  0  0  0  # atno 10167 bound_to 10162
  156.0041  130.5105  150.6061 H   0  0  0  0  0  0  0  0  0  0  0  0  # atno 10718 bound_to 10713
  154.8712  135.3720  154.4813 H   0  0  0  0  0  0  0  0  0  0  0  0  # atno 10763 bound_to 10752
  153.5466  135.7025  153.5616 H   0  0  0  0  0  0  0  0  0  0  0  0  # atno 10764 bound_to 10752
  153.3754  135.4010  155.1783 H   0  0  0  0  0  0  0  0  0  0  0  0  # atno 10765 bound_to 10752
  140.7315  133.8745  155.8897 H   0  0  0  0  0  0  0  0  0  0  0  0  # atno 11005 bound_to 11000
  145.5705  139.1483  143.3291 LP  0  0  0  0  0  0  0  0  0  0  0  0  # atno 17320 bound_to 7965
  146.2211  140.5838  142.9017 LP  0  0  0  0  0  0  0  0  0  0  0  0  # atno 17321 bound_to 7965
  140.0745  143.5029  152.2562 LP  0  0  0  0  0  0  0  0  0  0  0  0  # atno 17342 bound_to 10162
  139.5972  144.7571  151.3258 LP  0  0  0  0  0  0  0  0  0  0  0  0  # atno 17343 bound_to 10162
  157.3901  131.0794  151.1401 LP  0  0  0  0  0  0  0  0  0  0  0  0  # atno 17370 bound_to 10713
  157.2095  130.6431  149.5769 LP  0  0  0  0  0  0  0  0  0  0  0  0  # atno 17371 bound_to 10713
  140.9916  134.1270  157.4402 LP  0  0  0  0  0  0  0  0  0  0  0  0  # atno 17394 bound_to 11000
  139.8825  135.0042  156.6235 LP  0  0  0  0  0  0  0  0  0  0  0  0  # atno 17395 bound_to 11000

$$$$
