AV-unprocessed.smi:2414|AV-procd|sdf|9538|dock2
  -GOLD-   2272013173D 1   1.00000     0.00000
 Structure written by MMmdl.
 43 44  0  0  0  0  0  0  0  0  1 V2000
  150.4287  142.2213  158.1518 C   0  0  0  0  0  0  0  0  0  0  0  0
  150.1199  141.5243  156.8705 C   0  0  0  0  0  0  0  0  0  0  0  0
  151.0063  141.0728  155.9243 C   0  0  0  0  0  0  0  0  0  0  0  0
  150.3969  140.4652  154.8242 N   0  0  0  0  0  0  0  0  0  0  0  0
  149.0647  140.4469  154.9238 C   0  0  0  0  0  0  0  0  0  0  0  0
  148.1558  139.8825  153.8739 C   0  0  2  0  0  0  0  0  0  0  0  0
  147.2635  140.9586  153.2401 C   0  0  0  0  0  0  0  0  0  0  0  0
  147.3610  138.6477  154.3557 C   0  0  0  0  0  0  0  0  0  0  0  0
  147.2059  137.6326  153.3179 N   0  0  0  0  0  0  0  0  0  0  0  0
  146.0426  137.0820  152.9468 C   0  0  0  0  0  0  0  0  0  0  0  0
  144.9607  137.3299  153.4792 O   0  0  0  0  0  0  0  0  0  0  0  0
  146.2012  136.2514  151.9083 N   0  0  0  0  0  0  0  0  0  0  0  0
  145.1362  135.5211  151.2260 C   0  0  0  0  0  0  0  0  0  0  0  0
  145.1945  133.9983  151.4884 C   0  0  1  0  0  0  0  0  0  0  0  0
  145.3684  133.7274  152.9929 C   0  0  0  0  0  0  0  0  0  0  0  0
  143.9949  133.2092  150.9258 C   0  0  0  0  0  0  0  0  0  0  0  0
  144.6345  131.9430  150.4001 C   0  0  0  0  0  0  0  0  0  0  0  0
  145.9634  132.4740  149.8838 C   0  0  0  0  0  0  0  0  0  0  0  0
  146.3479  133.4543  150.8406 O   0  0  0  0  0  0  0  0  0  0  0  0
  148.4734  141.1849  156.4081 S   0  0  0  0  0  0  0  0  0  0  0  0
  151.5048  142.3162  158.2981 H   0  0  0  0  0  0  0  0  0  0  0  0
  150.0206  141.6708  158.9995 H   0  0  0  0  0  0  0  0  0  0  0  0
  149.9993  143.2230  158.1601 H   0  0  0  0  0  0  0  0  0  0  0  0
  152.0836  141.1453  155.9504 H   0  0  0  0  0  0  0  0  0  0  0  0
  148.8096  139.5332  153.0738 H   0  0  0  0  0  0  0  0  0  0  0  0
  147.8627  141.7656  152.8174 H   0  0  0  0  0  0  0  0  0  0  0  0
  146.5867  141.3952  153.9752 H   0  0  0  0  0  0  0  0  0  0  0  0
  146.6570  140.5413  152.4360 H   0  0  0  0  0  0  0  0  0  0  0  0
  147.8889  138.1773  155.1857 H   0  0  0  0  0  0  0  0  0  0  0  0
  146.3842  138.9446  154.7411 H   0  0  0  0  0  0  0  0  0  0  0  0
  148.0407  137.3622  152.8190 H   0  0  0  0  0  0  0  0  0  0  0  0
  147.1333  136.1285  151.5407 H   0  0  0  0  0  0  0  0  0  0  0  0
  144.1909  135.9194  151.5955 H   0  0  0  0  0  0  0  0  0  0  0  0
  145.1462  135.7179  150.1526 H   0  0  0  0  0  0  0  0  0  0  0  0
  144.5200  134.1073  153.5631 H   0  0  0  0  0  0  0  0  0  0  0  0
  146.2678  134.2082  153.3784 H   0  0  0  0  0  0  0  0  0  0  0  0
  145.4549  132.6600  153.1990 H   0  0  0  0  0  0  0  0  0  0  0  0
  143.2206  133.0132  151.6680 H   0  0  0  0  0  0  0  0  0  0  0  0
  143.5199  133.7331  150.0979 H   0  0  0  0  0  0  0  0  0  0  0  0
  144.8000  131.2345  151.2125 H   0  0  0  0  0  0  0  0  0  0  0  0
  144.0408  131.4493  149.6306 H   0  0  0  0  0  0  0  0  0  0  0  0
  146.7188  131.6953  149.7800 H   0  0  0  0  0  0  0  0  0  0  0  0
  145.8320  132.9556  148.9136 H   0  0  0  0  0  0  0  0  0  0  0  0
  1  2  1  0  0  0  0
  1 21  1  0  0  0  0
  1 22  1  0  0  0  0
  1 23  1  0  0  0  0
  2 20  1  0  0  0  0
  2  3  2  0  0  0  0
  3  4  1  0  0  0  0
  3 24  1  0  0  0  0
  4  5  2  0  0  0  0
  5  6  1  0  0  0  0
  5 20  1  0  0  0  0
  6  7  1  0  0  0  0
  6  8  1  0  0  0  0
  6 25  1  0  0  0  0
  7 26  1  0  0  0  0
  7 27  1  0  0  0  0
  7 28  1  0  0  0  0
  8  9  1  0  0  0  0
  8 29  1  0  0  0  0
  8 30  1  0  0  0  0
  9 10  1  0  0  0  0
  9 31  1  0  0  0  0
 10 11  2  0  0  0  0
 10 12  1  0  0  0  0
 12 13  1  0  0  0  0
 12 32  1  0  0  0  0
 13 14  1  0  0  0  0
 13 33  1  0  0  0  0
 13 34  1  0  0  0  0
 14 19  1  0  0  0  0
 14 15  1  0  0  0  0
 14 16  1  0  0  0  0
 15 35  1  0  0  0  0
 15 36  1  0  0  0  0
 15 37  1  0  0  0  0
 16 17  1  0  0  0  0
 16 38  1  0  0  0  0
 16 39  1  0  0  0  0
 17 18  1  0  0  0  0
 17 40  1  0  0  0  0
 17 41  1  0  0  0  0
 18 19  1  0  0  0  0
 18 42  1  0  0  0  0
 18 43  1  0  0  0  0
M  END
> <s_m_source_file>
AV-unprocessed.smi

> <i_m_source_file_index>
2414

> <i_lp_mmshare_version>
43012

> <i_f3d_flags>
0

> <s_epik_input>
W0NIM11jMVtjSF1uYyhzMSlbQ0BIXShbQ0gzXSlbQ0gyXVtOSF1DKD1PKVtOSF1bQ0gyXVtDQEBdMihbQ0gzXSlbQ0gyXVtDSDJdW0NIMl1PMg==

> <s_epik_cmdline>
J2VwaWtfcHl0aG9uJywgJy1waCcsICc3LjAnLCAnLXRuJywgJzgnLCAnLW1hJywgJzIwMCcsICctbWV0YWxfYmluZGluZycsICctaW1hZScsICc8aW5maWxlLm1hZT4nLCAnLW9tYWUnLCAnPG91dGZpbGUubWFlPic=

> <r_epik_Ionization_Penalty>
0.000646956

> <r_epik_Ionization_Penalty_Charging>
0

> <r_epik_Ionization_Penalty_Neutral>
0.000646956

> <r_epik_State_Penalty>
0.000375727

> <r_epik_Charging_Adjusted_Penalty>
0.000375727

> <i_epik_Tot_Q>
0

> <i_epik_Tot_abs_Q>
0

> <r_epik_Metal_State_Penalty>
-0

> <b_epik_Metal_Only>
0

> <s_lp_Force_Field>
OPLS_2005

> <r_lp_Energy>
5.80605

> <b_lp_Chiralities_Consistent>
1

> <s_lp_Variant>
AV-unprocessed.smi:2414-1

> <Gold.Version>
5.8.1

> <Gold.Id.Protein>
6NUR|6NUR_protein|mol2

> <Gold.PLP.Fitness>
41.6767

> <Gold.PLP.PLP>
-33.8762

> <Gold.PLP.part.hbond>
-3.0000

> <Gold.PLP.part.metal>
0.0000

> <Gold.PLP.part.buried>
-4.7133

> <Gold.PLP.part.nonpolar>
-26.0179

> <Gold.PLP.part.repulsive>
0.5180

> <Gold.PLP.ligand.clash>
0.0000

> <Gold.PLP.ligand.torsion>
0.6274

> <Gold.PLP.Chemscore.Hbond>
2.9760

> <Gold.PLP.Chemscore.CHOScore>
0.0000

> <Gold.PLP.Chemscore.Metal>
0.0000

> <Gold.Chemscore.Hbonds>
donor molecule, donor type, donor heavy atom, donor atom, acceptor molecule, acceptor atom, score
      L1  H     9    31       P1  7948  1.00
      L1  H    12    32       P1  7948  0.98
      P1  H  7989  7998       L1     4  1.00

> <Gold.PLP.Chemscore.Internal.Correction>
0.1272

> <Gold.Rescore>
     Score         DG    S(hbond)    S(metal)    S(lipo)     H(rot)  DE(clash)    DE(int)     intcor
     19.54     -20.10       2.74        0.00      82.76       1.65       0.02       0.54       ----

> <Gold.Chemscore.Fitness>
19.5410

> <Gold.Chemscore.DG>
-20.1005

> <Gold.Chemscore.ZeroCoef>
-5.4800

> <Gold.Chemscore.Hbond>
2.7446

> <Gold.Chemscore.Metal>
0.0000

> <Gold.Chemscore.Lipo>
82.7614

> <Gold.Chemscore.Internal_Hbond>
0.0000

> <Gold.Chemscore.DEClash>
0.0222

> <Gold.Chemscore.DEInternal>
0.5373

> <Gold.Chemscore.Rot>
1.6522

> <Gold.Chemscore.Internal.Correction>
   9.000000E+99

> <Gold.Chemscore.Hbonds>
donor molecule, donor type, donor heavy atom, donor atom, acceptor molecule, acceptor atom, score
      L1  H     9    31       P1  7948  0.96
      L1  H    12    32       P1  7948  0.93
      P1  H  7989  7998       L1     4  0.24

> <Gold.Chemscore.Hbond.Weighted>
-9.1669

> <Gold.Chemscore.Metal.Weighted>
-0.0000

> <Gold.Chemscore.Lipo.Weighted>
-9.6831

> <Gold.Chemscore.Internal_Hbond.Weighted>
0.0000

> <Gold.Chemscore.DEClash.Weighted>
0.0222

> <Gold.Chemscore.DEInternal.Weighted>
0.5373

> <Gold.Chemscore.Rot.Weighted>
4.2295

> <Gold.Chemscore.Internal.Correction.Weighted>
   9.000000E+99

> <Gold.Protein.RotatedTorsions>
[ 6907 6896 6895 6894 ] final  -55.15 input  -60.11 | X-H torsion
[ 7974 7965 7964 7962 ] final  145.81 input  175.53 | X-H torsion
[ 8008 7997 7996 7995 ] final  166.68 input   59.86 | X-H torsion
[ 10167 10162 10161 10158 ] final  -39.91 input  -65.29 | X-H torsion
[ 10718 10713 10712 10709 ] final  -89.61 input   66.30 | X-H torsion
[ 10763 10752 10751 10750 ] final -146.88 input  -60.55 | X-H torsion
[ 11005 11000 10999 10996 ] final  -77.41 input  -57.11 | X-H torsion

> <Gold.Protein.ActiveResidues>
 VAL166  LYS551  ARG553  GLY616  TRP617  ASP618  TYR619  PRO620  LYS621  CYS622 
 ASP623  PHE694  ASN695  SER759  ASP760  ASP761  ALA762  ILE779  LEU786  VAL792 
 PHE793  MET794  SER795  GLU796  ALA797  LYS798  CYS799  TRP800  GLU811  SER814 

> <Gold.Protein.RotatedAtoms>
  150.8276  134.7514  159.6825 H   0  0  0  0  0  0  0  0  0  0  0  0  # atno 6907 bound_to 6896
  152.4385  134.5636  159.9911 H   0  0  0  0  0  0  0  0  0  0  0  0  # atno 6908 bound_to 6896
  151.5804  133.3341  159.3043 H   0  0  0  0  0  0  0  0  0  0  0  0  # atno 6909 bound_to 6896
  144.8722  139.5828  143.5881 H   0  0  0  0  0  0  0  0  0  0  0  0  # atno 7974 bound_to 7965
  156.1698  140.1637  156.8467 H   0  0  0  0  0  0  0  0  0  0  0  0  # atno 8008 bound_to 7997
  154.5245  140.0770  156.8267 H   0  0  0  0  0  0  0  0  0  0  0  0  # atno 8009 bound_to 7997
  155.3536  140.3391  155.4242 H   0  0  0  0  0  0  0  0  0  0  0  0  # atno 8010 bound_to 7997
  140.7050  143.3185  151.2849 H   0  0  0  0  0  0  0  0  0  0  0  0  # atno 10167 bound_to 10162
  155.9985  130.4879  150.5197 H   0  0  0  0  0  0  0  0  0  0  0  0  # atno 10718 bound_to 10713
  154.8314  135.3375  154.6731 H   0  0  0  0  0  0  0  0  0  0  0  0  # atno 10763 bound_to 10752
  153.7350  135.6949  153.4984 H   0  0  0  0  0  0  0  0  0  0  0  0  # atno 10764 bound_to 10752
  153.2284  135.4425  155.0520 H   0  0  0  0  0  0  0  0  0  0  0  0  # atno 10765 bound_to 10752
  141.1660  133.7021  156.7817 H   0  0  0  0  0  0  0  0  0  0  0  0  # atno 11005 bound_to 11000
  146.2938  139.7218  142.9141 LP  0  0  0  0  0  0  0  0  0  0  0  0  # atno 17320 bound_to 7965
  145.4109  141.0396  143.3018 LP  0  0  0  0  0  0  0  0  0  0  0  0  # atno 17321 bound_to 7965
  139.6632  144.0152  152.2706 LP  0  0  0  0  0  0  0  0  0  0  0  0  # atno 17342 bound_to 10162
  139.9726  144.6483  150.7974 LP  0  0  0  0  0  0  0  0  0  0  0  0  # atno 17343 bound_to 10162
  157.3160  131.0673  151.1966 LP  0  0  0  0  0  0  0  0  0  0  0  0  # atno 17370 bound_to 10713
  157.2896  130.6789  149.6107 LP  0  0  0  0  0  0  0  0  0  0  0  0  # atno 17371 bound_to 10713
  140.2390  134.8628  157.3554 LP  0  0  0  0  0  0  0  0  0  0  0  0  # atno 17394 bound_to 11000
  140.1815  134.4484  155.7769 LP  0  0  0  0  0  0  0  0  0  0  0  0  # atno 17395 bound_to 11000

$$$$
