AV-unprocessed.smi:218|AV-procd|sdf|1677|dock5
  -GOLD-   2262020103D 1   1.00000     0.00000
 Structure written by MMmdl.
 54 57  0  0  0  0  0  0  0  0  1 V2000
  153.4974  142.8822  160.2495 C   0  0  0  0  0  0  0  0  0  0  0  0
  152.5460  142.0568  161.1239 C   0  0  0  0  0  0  0  0  0  0  0  0
  153.0684  141.9502  162.5671 C   0  0  0  0  0  0  0  0  0  0  0  0
  152.4590  140.7601  160.5301 O   0  0  0  0  0  0  0  0  0  0  0  0
  152.0211  140.6211  159.2272 C   0  0  0  0  0  0  0  0  0  0  0  0
  151.9363  139.3218  158.6874 C   0  0  0  0  0  0  0  0  0  0  0  0
  151.4837  139.1613  157.3608 C   0  0  0  0  0  0  0  0  0  0  0  0
  151.3653  137.7807  156.7363 C   0  0  0  0  0  0  0  0  0  0  0  0
  150.0150  137.4060  156.3291 N   0  0  0  0  0  0  0  0  0  0  0  0
  149.7641  136.1615  155.8668 C   0  0  0  0  0  0  0  0  0  0  0  0
  150.6819  135.1672  155.9929 N   0  0  0  0  0  0  0  0  0  0  0  0
  150.4095  133.9428  155.5311 C   0  0  0  0  0  0  0  0  0  0  0  0
  149.3014  133.5052  154.9275 N   0  0  0  0  0  0  0  0  0  0  0  0
  148.3767  134.5011  154.8042 C   0  0  0  0  0  0  0  0  0  0  0  0
  148.5303  135.8450  155.2426 C   0  0  0  0  0  0  0  0  0  0  0  0
  147.3853  136.5710  154.9416 N   0  0  0  0  0  0  0  0  0  0  0  0
  146.6031  135.7010  154.3602 C   0  0  0  0  0  0  0  0  0  0  0  0
  147.1226  134.4291  154.2400 N   0  0  0  0  0  0  0  0  0  0  0  0
  146.5075  133.2067  153.6387 C   0  0  1  0  0  0  0  0  0  0  0  0
  145.2510  133.5620  153.1369 O   0  0  0  0  0  0  0  0  0  0  0  0
  145.2074  133.4208  151.7179 C   0  0  1  0  0  0  0  0  0  0  0  0
  144.3525  134.5448  151.1111 C   0  0  0  0  0  0  0  0  0  0  0  0
  144.1589  134.3274  149.7298 O   0  0  0  0  0  0  0  0  0  0  0  0
  146.6760  133.4279  151.2879 C   0  0  2  0  0  0  0  0  0  0  0  0
  146.9063  132.7733  150.0551 O   0  0  0  0  0  0  0  0  0  0  0  0
  147.3628  132.7360  152.4563 C   0  0  2  0  0  0  0  0  0  0  0  0
  147.3517  131.3234  152.3571 O   0  0  0  0  0  0  0  0  0  0  0  0
  151.1455  140.3118  156.6215 C   0  0  0  0  0  0  0  0  0  0  0  0
  151.2679  141.5688  157.2442 C   0  0  0  0  0  0  0  0  0  0  0  0
  151.6942  141.7280  158.5149 N   0  0  0  0  0  0  0  0  0  0  0  0
  146.4368  132.4980  154.4651 H   0  0  0  0  0  0  0  0  0  0  0  0
  144.7597  132.4470  151.5108 H   0  0  0  0  0  0  0  0  0  0  0  0
  147.0365  134.4552  151.2183 H   0  0  0  0  0  0  0  0  0  0  0  0
  148.3999  133.0563  152.5680 H   0  0  0  0  0  0  0  0  0  0  0  0
  153.6083  143.8955  160.6362 H   0  0  0  0  0  0  0  0  0  0  0  0
  153.1219  142.9567  159.2287 H   0  0  0  0  0  0  0  0  0  0  0  0
  154.4886  142.4297  160.2070 H   0  0  0  0  0  0  0  0  0  0  0  0
  151.5783  142.5607  161.1126 H   0  0  0  0  0  0  0  0  0  0  0  0
  153.1795  142.9378  163.0152 H   0  0  0  0  0  0  0  0  0  0  0  0
  154.0416  141.4598  162.5966 H   0  0  0  0  0  0  0  0  0  0  0  0
  152.3919  141.3789  163.2021 H   0  0  0  0  0  0  0  0  0  0  0  0
  152.2083  138.4653  159.2867 H   0  0  0  0  0  0  0  0  0  0  0  0
  152.0373  137.7006  155.8807 H   0  0  0  0  0  0  0  0  0  0  0  0
  151.7126  137.0491  157.4659 H   0  0  0  0  0  0  0  0  0  0  0  0
  149.3685  138.1720  156.2061 H   0  0  0  0  0  0  0  0  0  0  0  0
  151.1908  133.2093  155.6652 H   0  0  0  0  0  0  0  0  0  0  0  0
  145.6195  135.9696  154.0046 H   0  0  0  0  0  0  0  0  0  0  0  0
  143.3732  134.5702  151.5894 H   0  0  0  0  0  0  0  0  0  0  0  0
  144.8130  135.5203  151.2684 H   0  0  0  0  0  0  0  0  0  0  0  0
  144.8764  134.7245  149.2590 H   0  0  0  0  0  0  0  0  0  0  0  0
  147.5811  132.1241  150.1862 H   0  0  0  0  0  0  0  0  0  0  0  0
  147.8012  131.0760  151.5632 H   0  0  0  0  0  0  0  0  0  0  0  0
  150.7955  140.2364  155.6025 H   0  0  0  0  0  0  0  0  0  0  0  0
  151.0155  142.4712  156.7076 H   0  0  0  0  0  0  0  0  0  0  0  0
  1  2  1  0  0  0  0
  1 35  1  0  0  0  0
  1 36  1  0  0  0  0
  1 37  1  0  0  0  0
  2  3  1  0  0  0  0
  2  4  1  0  0  0  0
  2 38  1  0  0  0  0
  3 39  1  0  0  0  0
  3 40  1  0  0  0  0
  3 41  1  0  0  0  0
  4  5  1  0  0  0  0
  5 30  1  0  0  0  0
  5  6  2  0  0  0  0
  6  7  1  0  0  0  0
  6 42  1  0  0  0  0
  7  8  1  0  0  0  0
  7 28  2  0  0  0  0
  8  9  1  0  0  0  0
  8 43  1  0  0  0  0
  8 44  1  0  0  0  0
  9 10  1  0  0  0  0
  9 45  1  0  0  0  0
 10 15  1  0  0  0  0
 10 11  2  0  0  0  0
 11 12  1  0  0  0  0
 12 13  2  0  0  0  0
 12 46  1  0  0  0  0
 13 14  1  0  0  0  0
 14 18  1  0  0  0  0
 14 15  2  0  0  0  0
 15 16  1  0  0  0  0
 16 17  2  0  0  0  0
 17 18  1  0  0  0  0
 17 47  1  0  0  0  0
 18 19  1  0  0  0  0
 19 31  1  0  0  0  0
 19 26  1  0  0  0  0
 19 20  1  0  0  0  0
 20 21  1  0  0  0  0
 21 32  1  0  0  0  0
 21 22  1  0  0  0  0
 21 24  1  0  0  0  0
 22 23  1  0  0  0  0
 22 48  1  0  0  0  0
 22 49  1  0  0  0  0
 23 50  1  0  0  0  0
 24 33  1  0  0  0  0
 24 25  1  0  0  0  0
 24 26  1  0  0  0  0
 25 51  1  0  0  0  0
 26 34  1  0  0  0  0
 26 27  1  0  0  0  0
 27 52  1  0  0  0  0
 28 29  1  0  0  0  0
 28 53  1  0  0  0  0
 29 30  2  0  0  0  0
 29 54  1  0  0  0  0
M  END
> <s_m_source_file>
AV-unprocessed.smi

> <i_m_source_file_index>
218

> <i_lp_mmshare_version>
43012

> <i_f3d_flags>
0

> <s_epik_input>
W0NIM11bQ0hdKFtDSDNdKU9jMVtjSF1jKFtjSF1bY0hdbjEpW0NIMl1bTkhdYyhuW2NIXW4yKWMoYzIzKW5bY0hdbjNbQ0BASF00T1tDQEhdKFtDSDJdW09IXSlbQ0BASF0oW09IXSlbQ0BIXTRbT0hd

> <s_epik_cmdline>
J2VwaWtfcHl0aG9uJywgJy1waCcsICc3LjAnLCAnLXRuJywgJzgnLCAnLW1hJywgJzIwMCcsICctbWV0YWxfYmluZGluZycsICctaW1hZScsICc8aW5maWxlLm1hZT4nLCAnLW9tYWUnLCAnPG91dGZpbGUubWFlPic=

> <r_lp_tautomer_probability>
1

> <r_epik_Ionization_Penalty>
0.00457014

> <r_epik_Ionization_Penalty_Charging>
0

> <r_epik_Ionization_Penalty_Neutral>
0.00457014

> <r_epik_State_Penalty>
-0

> <r_epik_Charging_Adjusted_Penalty>
0

> <i_epik_Tot_Q>
0

> <i_epik_Tot_abs_Q>
0

> <r_epik_Metal_State_Penalty>
-0

> <b_epik_Metal_Only>
0

> <s_epik_Chemistry_Notes>
This compound contains an acetal/aminal-like group ( X-CH(R)-Y where X, Y are N, S, or O) that may be acid/base labile, releasing an aldehyde.

> <s_lp_Force_Field>
OPLS_2005

> <r_lp_Energy>
38.234

> <b_lp_Chiralities_Consistent>
1

> <s_lp_Variant>
AV-unprocessed.smi:218-16

> <Gold.Version>
5.8.1

> <Gold.Id.Protein>
6NUR|6NUR_protein|mol2

> <Gold.PLP.Fitness>
56.3502

> <Gold.PLP.PLP>
-44.4727

> <Gold.PLP.part.hbond>
-4.0396

> <Gold.PLP.part.metal>
0.0000

> <Gold.PLP.part.buried>
-7.3728

> <Gold.PLP.part.nonpolar>
-33.2192

> <Gold.PLP.part.repulsive>
0.3999

> <Gold.PLP.ligand.clash>
0.0000

> <Gold.PLP.ligand.torsion>
0.0960

> <Gold.PLP.Chemscore.Hbond>
3.0000

> <Gold.PLP.Chemscore.CHOScore>
1.0000

> <Gold.PLP.Chemscore.Metal>
0.0000

> <Gold.Chemscore.Hbonds>
donor molecule, donor type, donor heavy atom, donor atom, acceptor molecule, acceptor atom, score
      L1  H    23    50       P1  7921  0.94
      L1  H    25    51       P1 10747  1.00
      L1  H    27    52       P1 10747  1.00

> <Gold.PLP.Chemscore.Internal.Correction>
0.0693

> <Gold.Rescore>
     Score         DG    S(hbond)    S(metal)    S(lipo)     H(rot)  DE(clash)    DE(int)     intcor
     11.85     -13.41       2.94        0.00      91.11       4.90       0.31       1.25       ----

> <Gold.Chemscore.Fitness>
11.8466

> <Gold.Chemscore.DG>
-13.4065

> <Gold.Chemscore.ZeroCoef>
-5.4800

> <Gold.Chemscore.Hbond>
2.9394

> <Gold.Chemscore.Metal>
0.0000

> <Gold.Chemscore.Lipo>
91.1138

> <Gold.Chemscore.Internal_Hbond>
0.0000

> <Gold.Chemscore.DEClash>
0.3135

> <Gold.Chemscore.DEInternal>
1.2464

> <Gold.Chemscore.Rot>
4.9029

> <Gold.Chemscore.Internal.Correction>
   9.000000E+99

> <Gold.Chemscore.Hbonds>
donor molecule, donor type, donor heavy atom, donor atom, acceptor molecule, acceptor atom, score
      L1  H    23    50       P1  7921  0.86
      L1  H    25    51       P1 10747  1.00
      L1  H    27    52       P1 10747  1.00

> <Gold.Chemscore.Hbond.Weighted>
-9.8177

> <Gold.Chemscore.Metal.Weighted>
-0.0000

> <Gold.Chemscore.Lipo.Weighted>
-10.6603

> <Gold.Chemscore.Internal_Hbond.Weighted>
0.0000

> <Gold.Chemscore.DEClash.Weighted>
0.3135

> <Gold.Chemscore.DEInternal.Weighted>
1.2464

> <Gold.Chemscore.Rot.Weighted>
12.5515

> <Gold.Chemscore.Internal.Correction.Weighted>
   9.000000E+99

> <Gold.Protein.RotatedTorsions>
[ 6907 6896 6895 6894 ] final  165.92 input  -60.11 | X-H torsion
[ 7974 7965 7964 7962 ] final  -69.88 input  175.53 | X-H torsion
[ 8008 7997 7996 7995 ] final   61.25 input   59.86 | X-H torsion
[ 10167 10162 10161 10158 ] final   59.67 input  -65.29 | X-H torsion
[ 10718 10713 10712 10709 ] final   73.35 input   66.30 | X-H torsion
[ 10763 10752 10751 10750 ] final    0.02 input  -60.55 | X-H torsion
[ 11005 11000 10999 10996 ] final -159.14 input  -57.11 | X-H torsion

> <Gold.Protein.ActiveResidues>
 VAL166  LYS551  ARG553  GLY616  TRP617  ASP618  TYR619  PRO620  LYS621  CYS622 
 ASP623  PHE694  ASN695  SER759  ASP760  ASP761  ALA762  ILE779  LEU786  VAL792 
 PHE793  MET794  SER795  GLU796  ALA797  LYS798  CYS799  TRP800  GLU811  SER814 

> <Gold.Protein.RotatedAtoms>
  151.8870  133.3507  159.3785 H   0  0  0  0  0  0  0  0  0  0  0  0  # atno 6907 bound_to 6896
  150.7113  134.4962  159.5548 H   0  0  0  0  0  0  0  0  0  0  0  0  # atno 6908 bound_to 6896
  152.2524  134.8119  160.0495 H   0  0  0  0  0  0  0  0  0  0  0  0  # atno 6909 bound_to 6896
  145.6981  140.9127  143.0745 H   0  0  0  0  0  0  0  0  0  0  0  0  # atno 7974 bound_to 7965
  155.5954  140.3493  155.4578 H   0  0  0  0  0  0  0  0  0  0  0  0  # atno 8008 bound_to 7997
  156.0269  140.1266  157.0323 H   0  0  0  0  0  0  0  0  0  0  0  0  # atno 8009 bound_to 7997
  154.4337  140.1051  156.6030 H   0  0  0  0  0  0  0  0  0  0  0  0  # atno 8010 bound_to 7997
  140.1739  144.4249  150.6648 H   0  0  0  0  0  0  0  0  0  0  0  0  # atno 10167 bound_to 10162
  157.6544  130.9624  150.1057 H   0  0  0  0  0  0  0  0  0  0  0  0  # atno 10718 bound_to 10713
  153.3260  135.6972  153.6989 H   0  0  0  0  0  0  0  0  0  0  0  0  # atno 10763 bound_to 10752
  153.5810  135.3498  155.2875 H   0  0  0  0  0  0  0  0  0  0  0  0  # atno 10764 bound_to 10752
  154.8608  135.4295  154.2436 H   0  0  0  0  0  0  0  0  0  0  0  0  # atno 10765 bound_to 10752
  140.6458  134.4503  157.5234 H   0  0  0  0  0  0  0  0  0  0  0  0  # atno 11005 bound_to 11000
  144.6976  139.8911  143.7453 LP  0  0  0  0  0  0  0  0  0  0  0  0  # atno 17320 bound_to 7965
  146.0822  139.3810  143.0457 LP  0  0  0  0  0  0  0  0  0  0  0  0  # atno 17321 bound_to 7965
  140.6564  143.2239  151.5959 LP  0  0  0  0  0  0  0  0  0  0  0  0  # atno 17342 bound_to 10162
  139.5325  144.2874  152.1180 LP  0  0  0  0  0  0  0  0  0  0  0  0  # atno 17343 bound_to 10162
  156.1967  130.3658  149.8840 LP  0  0  0  0  0  0  0  0  0  0  0  0  # atno 17370 bound_to 10713
  156.6754  130.8837  151.3568 LP  0  0  0  0  0  0  0  0  0  0  0  0  # atno 17371 bound_to 10713
  139.9063  134.8441  156.1693 LP  0  0  0  0  0  0  0  0  0  0  0  0  # atno 17394 bound_to 11000
  141.0573  133.6859  156.1885 LP  0  0  0  0  0  0  0  0  0  0  0  0  # atno 17395 bound_to 11000

$$$$
