AV-unprocessed.smi:1593|AV-procd|sdf|6409|dock8
  -GOLD-   22720 7 43D 1   1.00000     0.00000
 Structure written by MMmdl.
 36 37  0  0  0  0  0  0  0  0  1 V2000
  151.8384  139.5024  158.3522 C   0  0  0  0  0  0  0  0  0  0  0  0
  151.4284  139.4740  156.9196 C   0  0  0  0  0  0  0  0  0  0  0  0
  150.2233  139.2936  156.3016 C   0  0  0  0  0  0  0  0  0  0  0  0
  150.5569  139.3825  154.9187 C   0  0  0  0  0  0  0  0  0  0  0  0
  149.6588  139.2598  153.8272 N   0  0  0  0  0  0  0  0  0  0  0  0
  148.3527  138.9456  153.8517 C   0  0  0  0  0  0  0  0  0  0  0  0
  147.6923  138.7256  154.8669 O   0  0  0  0  0  0  0  0  0  0  0  0
  147.8435  138.8984  152.6119 N   0  0  0  0  0  0  0  0  0  0  0  0
  146.4664  138.5497  152.2768 C   0  0  0  0  0  0  0  0  0  0  0  0
  146.0259  137.2494  152.9770 C   0  0  0  0  0  0  0  0  0  0  0  0
  144.9876  136.4814  152.2895 N   0  0  0  0  0  0  0  0  0  0  0  0
  144.4693  135.4153  153.1390 C   0  0  0  0  0  0  0  0  0  0  0  0
  143.3658  134.6069  152.4347 C   0  0  0  0  0  0  0  0  0  0  0  0
  143.8676  134.0793  151.2107 O   0  0  0  0  0  0  0  0  0  0  0  0
  144.3484  135.0920  150.3326 C   0  0  0  0  0  0  0  0  0  0  0  0
  145.4545  135.9000  151.0327 C   0  0  0  0  0  0  0  0  0  0  0  0
  151.8446  139.5964  154.7191 N   0  0  0  0  0  0  0  0  0  0  0  0
  152.4115  139.6564  155.9977 O   0  0  0  0  0  0  0  0  0  0  0  0
  150.9791  139.6803  158.9990 H   0  0  0  0  0  0  0  0  0  0  0  0
  152.5658  140.2942  158.5326 H   0  0  0  0  0  0  0  0  0  0  0  0
  152.2897  138.5536  158.6422 H   0  0  0  0  0  0  0  0  0  0  0  0
  149.2695  139.1252  156.7781 H   0  0  0  0  0  0  0  0  0  0  0  0
  150.0636  139.4228  152.9170 H   0  0  0  0  0  0  0  0  0  0  0  0
  148.4607  139.0963  151.8380 H   0  0  0  0  0  0  0  0  0  0  0  0
  145.7827  139.3743  152.4812 H   0  0  0  0  0  0  0  0  0  0  0  0
  146.4267  138.3982  151.1981 H   0  0  0  0  0  0  0  0  0  0  0  0
  146.9000  136.6156  153.1342 H   0  0  0  0  0  0  0  0  0  0  0  0
  145.6713  137.5145  153.9742 H   0  0  0  0  0  0  0  0  0  0  0  0
  145.2799  134.7441  153.4275 H   0  0  0  0  0  0  0  0  0  0  0  0
  144.0705  135.8382  154.0617 H   0  0  0  0  0  0  0  0  0  0  0  0
  143.0347  133.7844  153.0686 H   0  0  0  0  0  0  0  0  0  0  0  0
  142.4940  135.2329  152.2385 H   0  0  0  0  0  0  0  0  0  0  0  0
  144.7349  134.6253  149.4264 H   0  0  0  0  0  0  0  0  0  0  0  0
  143.5267  135.7441  150.0324 H   0  0  0  0  0  0  0  0  0  0  0  0
  145.7960  136.6803  150.3544 H   0  0  0  0  0  0  0  0  0  0  0  0
  146.3119  135.2518  151.2201 H   0  0  0  0  0  0  0  0  0  0  0  0
  1  2  1  0  0  0  0
  1 19  1  0  0  0  0
  1 20  1  0  0  0  0
  1 21  1  0  0  0  0
  2 18  1  0  0  0  0
  2  3  2  0  0  0  0
  3  4  1  0  0  0  0
  3 22  1  0  0  0  0
  4  5  1  0  0  0  0
  4 17  2  0  0  0  0
  5  6  1  0  0  0  0
  5 23  1  0  0  0  0
  6  7  2  0  0  0  0
  6  8  1  0  0  0  0
  8  9  1  0  0  0  0
  8 24  1  0  0  0  0
  9 10  1  0  0  0  0
  9 25  1  0  0  0  0
  9 26  1  0  0  0  0
 10 11  1  0  0  0  0
 10 27  1  0  0  0  0
 10 28  1  0  0  0  0
 11 16  1  0  0  0  0
 11 12  1  0  0  0  0
 12 13  1  0  0  0  0
 12 29  1  0  0  0  0
 12 30  1  0  0  0  0
 13 14  1  0  0  0  0
 13 31  1  0  0  0  0
 13 32  1  0  0  0  0
 14 15  1  0  0  0  0
 15 16  1  0  0  0  0
 15 33  1  0  0  0  0
 15 34  1  0  0  0  0
 16 35  1  0  0  0  0
 16 36  1  0  0  0  0
 17 18  1  0  0  0  0
M  END
> <s_m_source_file>
AV-unprocessed.smi

> <i_m_source_file_index>
1593

> <i_lp_mmshare_version>
43012

> <i_f3d_flags>
0

> <s_epik_input>
W0NIM11jMVtjSF1jKG5vMSlbTkhdQyg9TylbTkhdW0NIMl1bQ0gyXU4yW0NIMl1bQ0gyXU9bQ0gyXVtDSDJdMg==

> <s_epik_cmdline>
J2VwaWtfcHl0aG9uJywgJy1waCcsICc3LjAnLCAnLXRuJywgJzgnLCAnLW1hJywgJzIwMCcsICctbWV0YWxfYmluZGluZycsICctaW1hZScsICc8aW5maWxlLm1hZT4nLCAnLW9tYWUnLCAnPG91dGZpbGUubWFlPic=

> <r_epik_Ionization_Penalty>
0.214073

> <r_epik_Ionization_Penalty_Charging>
0

> <r_epik_Ionization_Penalty_Neutral>
0.214073

> <r_epik_State_Penalty>
0.204211

> <r_epik_Charging_Adjusted_Penalty>
0.204211

> <i_epik_Tot_Q>
0

> <i_epik_Tot_abs_Q>
0

> <r_epik_Metal_State_Penalty>
0.217151

> <b_epik_Metal_Only>
0

> <s_lp_Force_Field>
OPLS_2005

> <r_lp_Energy>
24.5673

> <b_lp_Chiralities_Consistent>
1

> <s_lp_Variant>
AV-unprocessed.smi:1593-1

> <Gold.Version>
5.8.1

> <Gold.Id.Protein>
6NUR|6NUR_protein|mol2

> <Gold.PLP.Fitness>
38.8885

> <Gold.PLP.PLP>
-27.7231

> <Gold.PLP.part.hbond>
-4.9976

> <Gold.PLP.part.metal>
0.0000

> <Gold.PLP.part.buried>
-4.6025

> <Gold.PLP.part.nonpolar>
-19.6793

> <Gold.PLP.part.repulsive>
0.6636

> <Gold.PLP.ligand.clash>
0.0000

> <Gold.PLP.ligand.torsion>
0.2645

> <Gold.PLP.Chemscore.Hbond>
3.8960

> <Gold.PLP.Chemscore.CHOScore>
0.0000

> <Gold.PLP.Chemscore.Metal>
0.0000

> <Gold.Chemscore.Hbonds>
donor molecule, donor type, donor heavy atom, donor atom, acceptor molecule, acceptor atom, score
      L1  H     5    23       P1  7957  0.85
      L1  H     8    24       P1  7957  1.00
      P1  H  7989  7998       L1    17  0.85
      P1  H  7997  8008       L1    18  1.00

> <Gold.PLP.Chemscore.Internal.Correction>
0.0065

> <Gold.Rescore>
     Score         DG    S(hbond)    S(metal)    S(lipo)     H(rot)  DE(clash)    DE(int)     intcor
     16.20     -18.99       3.64        0.00      46.56       1.60       0.00       2.79       ----

> <Gold.Chemscore.Fitness>
16.1993

> <Gold.Chemscore.DG>
-18.9936

> <Gold.Chemscore.ZeroCoef>
-5.4800

> <Gold.Chemscore.Hbond>
3.6430

> <Gold.Chemscore.Metal>
0.0000

> <Gold.Chemscore.Lipo>
46.5551

> <Gold.Chemscore.Internal_Hbond>
0.0000

> <Gold.Chemscore.DEClash>
0.0000

> <Gold.Chemscore.DEInternal>
2.7943

> <Gold.Chemscore.Rot>
1.6019

> <Gold.Chemscore.Internal.Correction>
   9.000000E+99

> <Gold.Chemscore.Hbonds>
donor molecule, donor type, donor heavy atom, donor atom, acceptor molecule, acceptor atom, score
      L1  H     5    23       P1  7957  0.82
      L1  H     8    24       P1  7957  0.90
      P1  H  7989  7998       L1    17  0.14
      P1  H  7997  8008       L1    18  0.95

> <Gold.Chemscore.Hbond.Weighted>
-12.1676

> <Gold.Chemscore.Metal.Weighted>
-0.0000

> <Gold.Chemscore.Lipo.Weighted>
-5.4469

> <Gold.Chemscore.Internal_Hbond.Weighted>
0.0000

> <Gold.Chemscore.DEClash.Weighted>
0.0000

> <Gold.Chemscore.DEInternal.Weighted>
2.7943

> <Gold.Chemscore.Rot.Weighted>
4.1009

> <Gold.Chemscore.Internal.Correction.Weighted>
   9.000000E+99

> <Gold.Protein.RotatedTorsions>
[ 6907 6896 6895 6894 ] final -168.56 input  -60.11 | X-H torsion
[ 7974 7965 7964 7962 ] final  125.90 input  175.53 | X-H torsion
[ 8008 7997 7996 7995 ] final  -36.81 input   59.86 | X-H torsion
[ 10167 10162 10161 10158 ] final   53.32 input  -65.29 | X-H torsion
[ 10718 10713 10712 10709 ] final  -29.37 input   66.30 | X-H torsion
[ 10763 10752 10751 10750 ] final  -12.18 input  -60.55 | X-H torsion
[ 11005 11000 10999 10996 ] final  -28.82 input  -57.11 | X-H torsion

> <Gold.Protein.ActiveResidues>
 VAL166  LYS551  ARG553  GLY616  TRP617  ASP618  TYR619  PRO620  LYS621  CYS622 
 ASP623  PHE694  ASN695  SER759  ASP760  ASP761  ALA762  ILE779  LEU786  VAL792 
 PHE793  MET794  SER795  GLU796  ALA797  LYS798  CYS799  TRP800  GLU811  SER814 

> <Gold.Protein.RotatedAtoms>
  151.4775  133.3554  159.2832 H   0  0  0  0  0  0  0  0  0  0  0  0  # atno 6907 bound_to 6896
  150.8919  134.8326  159.7310 H   0  0  0  0  0  0  0  0  0  0  0  0  # atno 6908 bound_to 6896
  152.4828  134.4686  159.9680 H   0  0  0  0  0  0  0  0  0  0  0  0  # atno 6909 bound_to 6896
  145.0678  139.3754  143.4973 H   0  0  0  0  0  0  0  0  0  0  0  0  # atno 7974 bound_to 7965
  154.4065  140.1621  156.2435 H   0  0  0  0  0  0  0  0  0  0  0  0  # atno 8008 bound_to 7997
  155.9181  140.3423  155.6128 H   0  0  0  0  0  0  0  0  0  0  0  0  # atno 8009 bound_to 7997
  155.7255  140.0774  157.2302 H   0  0  0  0  0  0  0  0  0  0  0  0  # atno 8010 bound_to 7997
  140.2421  144.3573  150.6377 H   0  0  0  0  0  0  0  0  0  0  0  0  # atno 10167 bound_to 10162
  156.4134  130.4412  149.7236 H   0  0  0  0  0  0  0  0  0  0  0  0  # atno 10718 bound_to 10713
  153.4946  135.7017  153.5865 H   0  0  0  0  0  0  0  0  0  0  0  0  # atno 10763 bound_to 10752
  153.4022  135.3869  155.1995 H   0  0  0  0  0  0  0  0  0  0  0  0  # atno 10764 bound_to 10752
  154.8714  135.3884  154.4411 H   0  0  0  0  0  0  0  0  0  0  0  0  # atno 10765 bound_to 10752
  140.9242  133.7379  156.0844 H   0  0  0  0  0  0  0  0  0  0  0  0  # atno 11005 bound_to 11000
  146.3527  140.0408  142.8643 LP  0  0  0  0  0  0  0  0  0  0  0  0  # atno 17320 bound_to 7965
  145.1330  140.9528  143.4533 LP  0  0  0  0  0  0  0  0  0  0  0  0  # atno 17321 bound_to 7965
  140.6106  143.2169  151.6894 LP  0  0  0  0  0  0  0  0  0  0  0  0  # atno 17342 bound_to 10162
  139.5074  144.3648  152.0528 LP  0  0  0  0  0  0  0  0  0  0  0  0  # atno 17343 bound_to 10162
  156.4206  130.7766  151.2783 LP  0  0  0  0  0  0  0  0  0  0  0  0  # atno 17370 bound_to 10713
  157.7507  131.0184  150.3625 LP  0  0  0  0  0  0  0  0  0  0  0  0  # atno 17371 bound_to 10713
  140.7948  134.3576  157.5455 LP  0  0  0  0  0  0  0  0  0  0  0  0  # atno 17394 bound_to 11000
  139.8782  134.9162  156.3149 LP  0  0  0  0  0  0  0  0  0  0  0  0  # atno 17395 bound_to 11000

$$$$
