AV-unprocessed.smi:367|AV-procd|sdf|2433|dock3
  -GOLD-   2262022373D 1   1.00000     0.00000
 Structure written by MMmdl.
 21 21  0  0  0  0  0  0  0  0  3 V2000
  152.1287  145.2189  159.1514 C   0  0  0  0  0  0  0  0  0  0  0  0
  152.0399  143.8017  158.6269 C   0  0  0  0  0  0  0  0  0  0  0  0
  151.1705  143.5189  157.7334 N   0  0  0  0  0  0  0  0  0  0  0  0
  151.0808  142.2027  157.2482 C   0  0  0  0  0  0  0  0  0  0  0  0
  150.0088  141.9542  156.2016 C   0  0  0  0  0  0  0  0  0  0  0  0
  151.9094  141.2216  157.7080 C   0  0  0  0  0  0  0  0  0  0  0  0
  151.8348  139.7691  157.2276 C   0  0  0  0  0  0  0  0  0  0  0  0
  152.1720  139.5538  155.7471 C   0  0  0  0  0  0  0  0  0  0  0  0
  153.2602  138.9884  155.5015 O   0  0  0  0  0  0  0  0  0  0  0  0
  151.3571  139.9502  154.8843 O   0  5  0  0  0  0  0  0  0  0  0  0
  152.9041  141.5923  158.7316 C   0  0  0  0  0  0  0  0  0  0  0  0
  153.6854  140.7508  159.1741 O   0  0  0  0  0  0  0  0  0  0  0  0
  152.9195  142.8874  159.1610 N   0  5  0  0  0  0  0  0  0  0  0  0
  151.4448  145.8799  158.6174 H   0  0  0  0  0  0  0  0  0  0  0  0
  153.1410  145.6055  159.0306 H   0  0  0  0  0  0  0  0  0  0  0  0
  151.8722  145.2447  160.2109 H   0  0  0  0  0  0  0  0  0  0  0  0
  149.2583  141.2606  156.5812 H   0  0  0  0  0  0  0  0  0  0  0  0
  150.4462  141.5322  155.2968 H   0  0  0  0  0  0  0  0  0  0  0  0
  149.5027  142.8801  155.9264 H   0  0  0  0  0  0  0  0  0  0  0  0
  152.4798  139.1260  157.8267 H   0  0  0  0  0  0  0  0  0  0  0  0
  150.8256  139.3965  157.4032 H   0  0  0  0  0  0  0  0  0  0  0  0
  1  2  1  0  0  0  0
  1 14  1  0  0  0  0
  1 15  1  0  0  0  0
  1 16  1  0  0  0  0
  2 13  1  0  0  0  0
  2  3  2  0  0  0  0
  3  4  1  0  0  0  0
  4  5  1  0  0  0  0
  4  6  2  0  0  0  0
  5 17  1  0  0  0  0
  5 18  1  0  0  0  0
  5 19  1  0  0  0  0
  6  7  1  0  0  0  0
  6 11  1  0  0  0  0
  7  8  1  0  0  0  0
  7 20  1  0  0  0  0
  7 21  1  0  0  0  0
  8  9  2  0  0  0  0
  8 10  1  0  0  0  0
 11 12  2  0  0  0  0
 11 13  1  0  0  0  0
M  CHG  1  10  -1
M  CHG  1  13  -1
M  END
> <s_m_source_file>
AV-unprocessed.smi

> <i_m_source_file_index>
367

> <i_lp_mmshare_version>
43012

> <i_f3d_flags>
0

> <s_epik_input>
W0NIM11jMW5jKFtDSDNdKWMoYyg9TylbbkhdMSlbQ0gyXUMoPU8pW09IXQ==

> <s_epik_cmdline>
J2VwaWtfcHl0aG9uJywgJy1waCcsICc3LjAnLCAnLXRuJywgJzgnLCAnLW1hJywgJzIwMCcsICctbWV0YWxfYmluZGluZycsICctaW1hZScsICc8aW5maWxlLm1hZT4nLCAnLW9tYWUnLCAnPG91dGZpbGUubWFlPic=

> <r_lp_tautomer_probability>
0.839158

> <r_epik_Ionization_Penalty>
8.1762

> <r_epik_Ionization_Penalty_Charging>
0.00175347

> <r_epik_Ionization_Penalty_Neutral>
8.17445

> <r_epik_State_Penalty>
5.46366

> <r_epik_Charging_Adjusted_Penalty>
5.46542

> <i_epik_Tot_Q>
-2

> <i_epik_Tot_abs_Q>
2

> <r_epik_Metal_State_Penalty>
1.48615

> <b_epik_Metal_Only>
1

> <s_lp_Force_Field>
OPLS_2005

> <r_lp_Energy>
12.8552

> <b_lp_Chiralities_Consistent>
1

> <s_lp_Variant>
AV-unprocessed.smi:367-3

> <Gold.Version>
5.8.1

> <Gold.Id.Protein>
6NUR|6NUR_protein|mol2

> <Gold.PLP.Fitness>
34.7375

> <Gold.PLP.PLP>
-26.0095

> <Gold.PLP.part.hbond>
-2.0000

> <Gold.PLP.part.metal>
0.0000

> <Gold.PLP.part.buried>
-4.1491

> <Gold.PLP.part.nonpolar>
-20.1617

> <Gold.PLP.part.repulsive>
0.1859

> <Gold.PLP.ligand.clash>
0.0000

> <Gold.PLP.ligand.torsion>
0.1364

> <Gold.PLP.Chemscore.Hbond>
3.0000

> <Gold.PLP.Chemscore.CHOScore>
0.0000

> <Gold.PLP.Chemscore.Metal>
0.0000

> <Gold.Chemscore.Hbonds>
donor molecule, donor type, donor heavy atom, donor atom, acceptor molecule, acceptor atom, score
      P1  H  7989  7998       L1    10  1.00
      P1  H  7997  8008       L1     9  2.00

> <Gold.PLP.Chemscore.Internal.Correction>
0.0007

> <Gold.Rescore>
     Score         DG    S(hbond)    S(metal)    S(lipo)     H(rot)  DE(clash)    DE(int)     intcor
     10.52     -12.12       1.92        0.00      35.42       1.53       0.00       1.59       ----

> <Gold.Chemscore.Fitness>
10.5185

> <Gold.Chemscore.DG>
-12.1161

> <Gold.Chemscore.ZeroCoef>
-5.4800

> <Gold.Chemscore.Hbond>
1.9170

> <Gold.Chemscore.Metal>
0.0000

> <Gold.Chemscore.Lipo>
35.4232

> <Gold.Chemscore.Internal_Hbond>
0.0000

> <Gold.Chemscore.DEClash>
0.0048

> <Gold.Chemscore.DEInternal>
1.5927

> <Gold.Chemscore.Rot>
1.5278

> <Gold.Chemscore.Internal.Correction>
   9.000000E+99

> <Gold.Chemscore.Hbonds>
donor molecule, donor type, donor heavy atom, donor atom, acceptor molecule, acceptor atom, score
      P1  H  7989  7998       L1    10  1.00
      P1  H  7997  8008       L1     9  0.29

> <Gold.Chemscore.Hbond.Weighted>
-6.4027

> <Gold.Chemscore.Metal.Weighted>
-0.0000

> <Gold.Chemscore.Lipo.Weighted>
-4.1445

> <Gold.Chemscore.Internal_Hbond.Weighted>
0.0000

> <Gold.Chemscore.DEClash.Weighted>
0.0048

> <Gold.Chemscore.DEInternal.Weighted>
1.5927

> <Gold.Chemscore.Rot.Weighted>
3.9111

> <Gold.Chemscore.Internal.Correction.Weighted>
   9.000000E+99

> <Gold.Protein.RotatedTorsions>
[ 6907 6896 6895 6894 ] final -134.70 input  -60.11 | X-H torsion
[ 7974 7965 7964 7962 ] final   34.89 input  175.53 | X-H torsion
[ 8008 7997 7996 7995 ] final  -34.07 input   59.86 | X-H torsion
[ 10167 10162 10161 10158 ] final -163.64 input  -65.29 | X-H torsion
[ 10718 10713 10712 10709 ] final -164.46 input   66.30 | X-H torsion
[ 10763 10752 10751 10750 ] final -112.88 input  -60.55 | X-H torsion
[ 11005 11000 10999 10996 ] final  -24.35 input  -57.11 | X-H torsion

> <Gold.Protein.ActiveResidues>
 VAL166  LYS551  ARG553  GLY616  TRP617  ASP618  TYR619  PRO620  LYS621  CYS622 
 ASP623  PHE694  ASN695  SER759  ASP760  ASP761  ALA762  ILE779  LEU786  VAL792 
 PHE793  MET794  SER795  GLU796  ALA797  LYS798  CYS799  TRP800  GLU811  SER814 

> <Gold.Protein.RotatedAtoms>
  150.9890  133.6168  159.2710 H   0  0  0  0  0  0  0  0  0  0  0  0  # atno 6907 bound_to 6896
  151.3395  135.0859  159.9376 H   0  0  0  0  0  0  0  0  0  0  0  0  # atno 6908 bound_to 6896
  152.5240  133.9504  159.7723 H   0  0  0  0  0  0  0  0  0  0  0  0  # atno 6909 bound_to 6896
  146.1321  139.6212  142.9219 H   0  0  0  0  0  0  0  0  0  0  0  0  # atno 7974 bound_to 7965
  154.4131  140.1693  156.1991 H   0  0  0  0  0  0  0  0  0  0  0  0  # atno 8008 bound_to 7997
  155.9539  140.3399  155.6408 H   0  0  0  0  0  0  0  0  0  0  0  0  # atno 8009 bound_to 7997
  155.6834  140.0725  157.2466 H   0  0  0  0  0  0  0  0  0  0  0  0  # atno 8010 bound_to 7997
  139.6306  144.0446  152.2013 H   0  0  0  0  0  0  0  0  0  0  0  0  # atno 10167 bound_to 10162
  156.6394  130.8962  151.2993 H   0  0  0  0  0  0  0  0  0  0  0  0  # atno 10718 bound_to 10713
  154.8370  135.4475  154.1262 H   0  0  0  0  0  0  0  0  0  0  0  0  # atno 10763 bound_to 10752
  153.2485  135.6924  153.7712 H   0  0  0  0  0  0  0  0  0  0  0  0  # atno 10764 bound_to 10752
  153.7033  135.3368  155.3205 H   0  0  0  0  0  0  0  0  0  0  0  0  # atno 10765 bound_to 10752
  140.8837  133.7636  156.0334 H   0  0  0  0  0  0  0  0  0  0  0  0  # atno 11005 bound_to 11000
  145.5236  141.0430  143.2421 LP  0  0  0  0  0  0  0  0  0  0  0  0  # atno 17320 bound_to 7965
  144.7702  139.6753  143.7198 LP  0  0  0  0  0  0  0  0  0  0  0  0  # atno 17321 bound_to 7965
  140.0111  144.6223  150.7647 LP  0  0  0  0  0  0  0  0  0  0  0  0  # atno 17342 bound_to 10162
  140.7437  143.2850  151.3490 LP  0  0  0  0  0  0  0  0  0  0  0  0  # atno 17343 bound_to 10162
  157.7176  130.9516  150.1313 LP  0  0  0  0  0  0  0  0  0  0  0  0  # atno 17370 bound_to 10713
  156.2171  130.3671  149.8600 LP  0  0  0  0  0  0  0  0  0  0  0  0  # atno 17371 bound_to 10713
  140.8430  134.3044  157.5306 LP  0  0  0  0  0  0  0  0  0  0  0  0  # atno 17394 bound_to 11000
  139.8722  134.9426  156.3831 LP  0  0  0  0  0  0  0  0  0  0  0  0  # atno 17395 bound_to 11000

$$$$
