AV-unprocessed.smi:1120|AV-procd|sdf|4821|dock7
  -GOLD-   22720 3383D 1   1.00000     0.00000
 Structure written by MMmdl.
 49 50  0  0  0  0  0  0  0  0  2 V2000
  146.6632  133.0276  151.2371 C   0  0  0  0  0  0  0  0  0  0  0  0
  147.2778  133.0735  152.6430 C   0  0  2  0  0  0  0  0  0  0  0  0
  146.8783  134.3589  153.3894 C   0  0  0  0  0  0  0  0  0  0  0  0
  147.4705  134.4048  154.8081 C   0  0  0  0  0  0  0  0  0  0  0  0
  148.9972  134.1935  154.8202 C   0  0  2  0  0  0  0  0  0  0  0  0
  149.6956  135.3988  154.3620 N   0  0  0  0  0  0  0  0  0  0  0  0
  150.6513  136.3514  155.4370 S   0  0  0  0  0  0  0  0  0  0  0  0
  149.7720  136.8384  156.5113 O   0  0  0  0  0  0  0  0  0  0  0  0
  151.8493  135.5648  155.7685 O   0  0  0  0  0  0  0  0  0  0  0  0
  151.1616  137.7821  154.3873 C   0  0  0  0  0  0  0  0  0  0  0  0
  151.5098  138.9766  155.2726 C   0  0  0  0  0  0  0  0  0  0  0  0
  151.9713  140.0002  154.7699 O   0  0  0  0  0  0  0  0  0  0  0  0
  151.2833  138.8379  156.5880 N   0  0  0  0  0  0  0  0  0  0  0  0
  151.5457  139.8576  157.5993 C   0  0  0  0  0  0  0  0  0  0  0  0
  150.8503  141.2052  157.3137 C   0  0  0  0  0  0  0  0  0  0  0  0
  151.3155  142.3411  158.2088 C   0  0  0  0  0  0  0  0  0  0  0  0
  152.2589  142.1430  159.2399 C   0  0  0  0  0  0  0  0  0  0  0  0
  152.6351  143.2356  160.0491 C   0  0  0  0  0  0  0  0  0  0  0  0
  152.0611  144.5018  159.8111 C   0  0  0  0  0  0  0  0  0  0  0  0
  151.1251  144.6436  158.7669 C   0  0  0  0  0  0  0  0  0  0  0  0
  150.7896  143.5726  158.0149 N   0  3  0  0  0  0  0  0  0  0  0  0
  149.4353  132.9679  153.9962 C   0  0  0  0  0  0  0  0  0  0  0  0
  148.8109  132.9457  152.5908 C   0  0  0  0  0  0  0  0  0  0  0  0
  147.0153  133.8567  150.6227 H   0  0  0  0  0  0  0  0  0  0  0  0
  145.5754  133.0850  151.2818 H   0  0  0  0  0  0  0  0  0  0  0  0
  146.9227  132.1002  150.7255 H   0  0  0  0  0  0  0  0  0  0  0  0
  146.8857  132.2219  153.2010 H   0  0  0  0  0  0  0  0  0  0  0  0
  147.2139  135.2310  152.8266 H   0  0  0  0  0  0  0  0  0  0  0  0
  145.7918  134.4326  153.4488 H   0  0  0  0  0  0  0  0  0  0  0  0
  147.2071  135.3451  155.2932 H   0  0  0  0  0  0  0  0  0  0  0  0
  147.0046  133.6190  155.4039 H   0  0  0  0  0  0  0  0  0  0  0  0
  149.2999  134.0142  155.8524 H   0  0  0  0  0  0  0  0  0  0  0  0
  149.2289  135.9241  153.6227 H   0  0  0  0  0  0  0  0  0  0  0  0
  152.0145  137.4894  153.7746 H   0  0  0  0  0  0  0  0  0  0  0  0
  150.3374  138.0409  153.7227 H   0  0  0  0  0  0  0  0  0  0  0  0
  150.9018  137.9612  156.9143 H   0  0  0  0  0  0  0  0  0  0  0  0
  151.1891  139.4649  158.5519 H   0  0  0  0  0  0  0  0  0  0  0  0
  152.6212  140.0034  157.7118 H   0  0  0  0  0  0  0  0  0  0  0  0
  151.0149  141.4864  156.2727 H   0  0  0  0  0  0  0  0  0  0  0  0
  149.7709  141.0927  157.4230 H   0  0  0  0  0  0  0  0  0  0  0  0
  152.6868  141.1661  159.4120 H   0  0  0  0  0  0  0  0  0  0  0  0
  153.3539  143.1036  160.8447 H   0  0  0  0  0  0  0  0  0  0  0  0
  152.3335  145.3508  160.4207 H   0  0  0  0  0  0  0  0  0  0  0  0
  150.6329  145.5718  158.5156 H   0  0  0  0  0  0  0  0  0  0  0  0
  150.5230  132.9244  153.9273 H   0  0  0  0  0  0  0  0  0  0  0  0
  149.1315  132.0636  154.5248 H   0  0  0  0  0  0  0  0  0  0  0  0
  149.0909  132.0206  152.0856 H   0  0  0  0  0  0  0  0  0  0  0  0
  149.2281  133.7584  151.9948 H   0  0  0  0  0  0  0  0  0  0  0  0
  150.1045  143.6981  157.2688 H   0  0  0  0  0  0  0  0  0  0  0  0
  1  2  1  0  0  0  0
  1 24  1  0  0  0  0
  1 25  1  0  0  0  0
  1 26  1  0  0  0  0
  2 23  1  0  0  0  0
  2  3  1  0  0  0  0
  2 27  1  0  0  0  0
  3  4  1  0  0  0  0
  3 28  1  0  0  0  0
  3 29  1  0  0  0  0
  4  5  1  0  0  0  0
  4 30  1  0  0  0  0
  4 31  1  0  0  0  0
  5  6  1  0  0  0  0
  5 22  1  0  0  0  0
  5 32  1  0  0  0  0
  6  7  1  0  0  0  0
  6 33  1  0  0  0  0
  7  8  2  0  0  0  0
  7  9  2  0  0  0  0
  7 10  1  0  0  0  0
 10 11  1  0  0  0  0
 10 34  1  0  0  0  0
 10 35  1  0  0  0  0
 11 12  2  0  0  0  0
 11 13  1  0  0  0  0
 13 14  1  0  0  0  0
 13 36  1  0  0  0  0
 14 15  1  0  0  0  0
 14 37  1  0  0  0  0
 14 38  1  0  0  0  0
 15 16  1  0  0  0  0
 15 39  1  0  0  0  0
 15 40  1  0  0  0  0
 16 21  1  0  0  0  0
 16 17  2  0  0  0  0
 17 18  1  0  0  0  0
 17 41  1  0  0  0  0
 18 19  2  0  0  0  0
 18 42  1  0  0  0  0
 19 20  1  0  0  0  0
 19 43  1  0  0  0  0
 20 21  2  0  0  0  0
 20 44  1  0  0  0  0
 21 49  1  0  0  0  0
 22 23  1  0  0  0  0
 22 45  1  0  0  0  0
 22 46  1  0  0  0  0
 23 47  1  0  0  0  0
 23 48  1  0  0  0  0
M  CHG  1  21   1
M  END
> <s_m_source_file>
AV-unprocessed.smi

> <i_m_source_file_index>
1120

> <i_lp_mmshare_version>
43012

> <i_f3d_flags>
0

> <s_epik_input>
W0NIM11bQ0BASF0xW0NIMl1bQ0gyXVtDQEhdKFtDSDJdW0NIMl0xKVtOSF1TKD1PKSg9TylbQ0gyXUMoPU8pW05IXVtDSDJdW0NIMl1jMltjSF1bY0hdW2NIXVtjSF1uMg==

> <s_epik_cmdline>
J2VwaWtfcHl0aG9uJywgJy1waCcsICc3LjAnLCAnLXRuJywgJzgnLCAnLW1hJywgJzIwMCcsICctbWV0YWxfYmluZGluZycsICctaW1hZScsICc8aW5maWxlLm1hZT4nLCAnLW9tYWUnLCAnPG91dGZpbGUubWFlPic=

> <r_epik_Ionization_Penalty>
1.97387

> <r_epik_Ionization_Penalty_Charging>
1.97382

> <r_epik_Ionization_Penalty_Neutral>
4.57635e-05

> <r_epik_State_Penalty>
2.10057

> <r_epik_Charging_Adjusted_Penalty>
4.07439

> <i_epik_Tot_Q>
1

> <i_epik_Tot_abs_Q>
1

> <r_epik_Metal_State_Penalty>
2.15877

> <b_epik_Metal_Only>
0

> <s_lp_Force_Field>
OPLS_2005

> <r_lp_Energy>
8.31708

> <b_lp_Chiralities_Consistent>
1

> <s_lp_Variant>
AV-unprocessed.smi:1120-4

> <Gold.Version>
5.8.1

> <Gold.Id.Protein>
6NUR|6NUR_protein|mol2

> <Gold.PLP.Fitness>
59.8541

> <Gold.PLP.PLP>
-46.6282

> <Gold.PLP.part.hbond>
-3.7226

> <Gold.PLP.part.metal>
0.0000

> <Gold.PLP.part.buried>
-5.7049

> <Gold.PLP.part.nonpolar>
-37.5187

> <Gold.PLP.part.repulsive>
0.1899

> <Gold.PLP.ligand.clash>
0.0000

> <Gold.PLP.ligand.torsion>
1.1999

> <Gold.PLP.Chemscore.Hbond>
4.8160

> <Gold.PLP.Chemscore.CHOScore>
0.0000

> <Gold.PLP.Chemscore.Metal>
0.0000

> <Gold.Chemscore.Hbonds>
donor molecule, donor type, donor heavy atom, donor atom, acceptor molecule, acceptor atom, score
      L1  H     6    33       P1  7948  0.96
      L1  H    21    49       P1  8028  0.91
      P1  H  7989  7998       L1    12  0.86
      P1  H 10752 10763       L1     9  0.84

> <Gold.PLP.Chemscore.Internal.Correction>
1.1777

> <Gold.Rescore>
     Score         DG    S(hbond)    S(metal)    S(lipo)     H(rot)  DE(clash)    DE(int)     intcor
     23.50     -24.78       3.53        0.00     109.12       2.05       0.06       1.23       ----

> <Gold.Chemscore.Fitness>
23.4972

> <Gold.Chemscore.DG>
-24.7835

> <Gold.Chemscore.ZeroCoef>
-5.4800

> <Gold.Chemscore.Hbond>
3.5254

> <Gold.Chemscore.Metal>
0.0000

> <Gold.Chemscore.Lipo>
109.1228

> <Gold.Chemscore.Internal_Hbond>
0.0000

> <Gold.Chemscore.DEClash>
0.0553

> <Gold.Chemscore.DEInternal>
1.2310

> <Gold.Chemscore.Rot>
2.0463

> <Gold.Chemscore.Internal.Correction>
   9.000000E+99

> <Gold.Chemscore.Hbonds>
donor molecule, donor type, donor heavy atom, donor atom, acceptor molecule, acceptor atom, score
      L1  H     6    33       P1  7948  0.72
      L1  H    21    49       P1  8028  0.43
      P1  H  7989  7998       L1    12  0.82
      P1  H 10752 10763       L1     9  0.82

> <Gold.Chemscore.Hbond.Weighted>
-11.7747

> <Gold.Chemscore.Metal.Weighted>
-0.0000

> <Gold.Chemscore.Lipo.Weighted>
-12.7674

> <Gold.Chemscore.Internal_Hbond.Weighted>
0.0000

> <Gold.Chemscore.DEClash.Weighted>
0.0553

> <Gold.Chemscore.DEInternal.Weighted>
1.2310

> <Gold.Chemscore.Rot.Weighted>
5.2386

> <Gold.Chemscore.Internal.Correction.Weighted>
   9.000000E+99

> <Gold.Protein.RotatedTorsions>
[ 6907 6896 6895 6894 ] final   78.42 input  -60.11 | X-H torsion
[ 7974 7965 7964 7962 ] final  -19.39 input  175.53 | X-H torsion
[ 8008 7997 7996 7995 ] final  173.28 input   59.86 | X-H torsion
[ 10167 10162 10161 10158 ] final  131.84 input  -65.29 | X-H torsion
[ 10718 10713 10712 10709 ] final -152.39 input   66.30 | X-H torsion
[ 10763 10752 10751 10750 ] final   77.62 input  -60.55 | X-H torsion
[ 11005 11000 10999 10996 ] final   -2.14 input  -57.11 | X-H torsion

> <Gold.Protein.ActiveResidues>
 VAL166  LYS551  ARG553  GLY616  TRP617  ASP618  TYR619  PRO620  LYS621  CYS622 
 ASP623  PHE694  ASN695  SER759  ASP760  ASP761  ALA762  ILE779  LEU786  VAL792 
 PHE793  MET794  SER795  GLU796  ALA797  LYS798  CYS799  TRP800  GLU811  SER814 

> <Gold.Protein.RotatedAtoms>
  152.5158  134.3667  159.9303 H   0  0  0  0  0  0  0  0  0  0  0  0  # atno 6907 bound_to 6896
  151.3620  133.3879  159.2698 H   0  0  0  0  0  0  0  0  0  0  0  0  # atno 6908 bound_to 6896
  150.9644  134.9046  159.7808 H   0  0  0  0  0  0  0  0  0  0  0  0  # atno 6909 bound_to 6896
  146.1843  140.4055  142.8482 H   0  0  0  0  0  0  0  0  0  0  0  0  # atno 7974 bound_to 7965
  156.1091  140.1464  156.9363 H   0  0  0  0  0  0  0  0  0  0  0  0  # atno 8008 bound_to 7997
  154.4754  140.0896  156.7293 H   0  0  0  0  0  0  0  0  0  0  0  0  # atno 8009 bound_to 7997
  155.4627  140.3439  155.4317 H   0  0  0  0  0  0  0  0  0  0  0  0  # atno 8010 bound_to 7997
  139.5366  144.6688  151.4766 H   0  0  0  0  0  0  0  0  0  0  0  0  # atno 10167 bound_to 10162
  156.4719  130.8262  151.2491 H   0  0  0  0  0  0  0  0  0  0  0  0  # atno 10718 bound_to 10713
  153.0812  135.4907  154.8507 H   0  0  0  0  0  0  0  0  0  0  0  0  # atno 10763 bound_to 10752
  154.7153  135.3028  154.9135 H   0  0  0  0  0  0  0  0  0  0  0  0  # atno 10764 bound_to 10752
  153.9816  135.6789  153.4803 H   0  0  0  0  0  0  0  0  0  0  0  0  # atno 10765 bound_to 10752
  140.6550  133.9370  155.8402 H   0  0  0  0  0  0  0  0  0  0  0  0  # atno 11005 bound_to 11000
  144.8370  140.6798  143.6254 LP  0  0  0  0  0  0  0  0  0  0  0  0  # atno 17320 bound_to 7965
  145.3983  139.1602  143.4191 LP  0  0  0  0  0  0  0  0  0  0  0  0  # atno 17321 bound_to 7965
  140.6575  143.8568  150.6851 LP  0  0  0  0  0  0  0  0  0  0  0  0  # atno 17342 bound_to 10162
  140.1952  143.4004  152.1833 LP  0  0  0  0  0  0  0  0  0  0  0  0  # atno 17343 bound_to 10162
  157.7490  131.0073  150.3186 LP  0  0  0  0  0  0  0  0  0  0  0  0  # atno 17370 bound_to 10713
  156.3610  130.3847  149.7251 LP  0  0  0  0  0  0  0  0  0  0  0  0  # atno 17371 bound_to 10713
  141.0508  134.0487  157.3786 LP  0  0  0  0  0  0  0  0  0  0  0  0  # atno 17394 bound_to 11000
  139.9032  135.0172  156.7368 LP  0  0  0  0  0  0  0  0  0  0  0  0  # atno 17395 bound_to 11000

$$$$
