AV-unprocessed.smi:3031|AV-procd|sdf|11552|dock6
  -GOLD-   2272016513D 1   1.00000     0.00000
 Structure written by MMmdl.
 48 49  0  0  0  0  0  0  0  0  3 V2000
  151.7712  142.8250  158.6236 C   0  0  0  0  0  0  0  0  0  0  0  0
  151.3242  141.7595  157.6645 C   0  0  0  0  0  0  0  0  0  0  0  0
  151.5841  140.3620  157.7325 C   0  0  0  0  0  0  0  0  0  0  0  0
  151.0446  139.6906  156.7287 N   0  0  0  0  0  0  0  0  0  0  0  0
  150.4327  140.6325  155.9781 N   0  0  0  0  0  0  0  0  0  0  0  0
  149.7011  140.2535  154.7791 C   0  0  0  0  0  0  0  0  0  0  0  0
  149.5744  138.7242  154.5583 C   0  0  1  0  0  0  0  0  0  0  0  0
  148.9983  138.0528  155.8127 C   0  0  0  0  0  0  0  0  0  0  0  0
  148.7193  138.3730  153.3980 N   0  3  0  0  0  0  0  0  0  0  0  0
  147.2574  138.4158  153.6218 C   0  0  0  0  0  0  0  0  0  0  0  0
  146.4746  138.4131  152.2965 C   0  0  1  0  0  0  0  0  0  0  0  0
  147.4030  138.3897  151.2309 O   0  0  0  0  0  0  0  0  0  0  0  0
  145.5704  137.1703  152.1502 C   0  0  0  0  0  0  0  0  0  0  0  0
  146.3314  135.8950  152.1008 N   0  3  0  0  0  0  0  0  0  0  0  0
  146.3832  135.1800  153.4002 C   0  0  0  0  0  0  0  0  0  0  0  0
  147.2121  133.8898  153.2730 C   0  0  0  0  0  0  0  0  0  0  0  0
  146.6663  133.0690  152.2482 O   0  0  0  0  0  0  0  0  0  0  0  0
  146.6979  133.7105  150.9798 C   0  0  0  0  0  0  0  0  0  0  0  0
  145.8476  134.9909  151.0303 C   0  0  0  0  0  0  0  0  0  0  0  0
  150.5696  141.8880  156.5328 C   0  0  0  0  0  0  0  0  0  0  0  0
  151.6297  142.5175  159.6600 H   0  0  0  0  0  0  0  0  0  0  0  0
  151.2165  143.7537  158.4873 H   0  0  0  0  0  0  0  0  0  0  0  0
  152.8282  143.0603  158.4987 H   0  0  0  0  0  0  0  0  0  0  0  0
  152.1441  139.8186  158.4792 H   0  0  0  0  0  0  0  0  0  0  0  0
  148.7077  140.6962  154.8656 H   0  0  0  0  0  0  0  0  0  0  0  0
  150.1706  140.7245  153.9143 H   0  0  0  0  0  0  0  0  0  0  0  0
  150.5617  138.2887  154.3995 H   0  0  0  0  0  0  0  0  0  0  0  0
  149.6283  138.2382  156.6833 H   0  0  0  0  0  0  0  0  0  0  0  0
  148.9294  136.9721  155.6854 H   0  0  0  0  0  0  0  0  0  0  0  0
  147.9990  138.4259  156.0408 H   0  0  0  0  0  0  0  0  0  0  0  0
  148.9266  139.0424  152.6706 H   0  0  0  0  0  0  0  0  0  0  0  0
  146.9513  137.5650  154.2294 H   0  0  0  0  0  0  0  0  0  0  0  0
  147.0162  139.3187  154.1837 H   0  0  0  0  0  0  0  0  0  0  0  0
  145.8875  139.3270  152.2057 H   0  0  0  0  0  0  0  0  0  0  0  0
  148.1788  138.8649  151.4898 H   0  0  0  0  0  0  0  0  0  0  0  0
  144.8447  137.1233  152.9642 H   0  0  0  0  0  0  0  0  0  0  0  0
  144.9895  137.2761  151.2323 H   0  0  0  0  0  0  0  0  0  0  0  0
  146.8229  135.8152  154.1686 H   0  0  0  0  0  0  0  0  0  0  0  0
  145.3702  134.9381  153.7262 H   0  0  0  0  0  0  0  0  0  0  0  0
  148.2571  134.1166  153.0561 H   0  0  0  0  0  0  0  0  0  0  0  0
  147.1949  133.3379  154.2131 H   0  0  0  0  0  0  0  0  0  0  0  0
  147.7273  133.9367  150.6975 H   0  0  0  0  0  0  0  0  0  0  0  0
  146.3042  133.0273  150.2272 H   0  0  0  0  0  0  0  0  0  0  0  0
  144.8009  134.7386  151.2083 H   0  0  0  0  0  0  0  0  0  0  0  0
  145.8965  135.4985  150.0660 H   0  0  0  0  0  0  0  0  0  0  0  0
  150.1291  142.7631  156.0774 H   0  0  0  0  0  0  0  0  0  0  0  0
  148.9734  137.4553  153.0599 H   0  0  0  0  0  0  0  0  0  0  0  0
  147.2821  136.1310  151.8548 H   0  0  0  0  0  0  0  0  0  0  0  0
  1  2  1  0  0  0  0
  1 21  1  0  0  0  0
  1 22  1  0  0  0  0
  1 23  1  0  0  0  0
  2 20  2  0  0  0  0
  2  3  1  0  0  0  0
  3  4  2  0  0  0  0
  3 24  1  0  0  0  0
  4  5  1  0  0  0  0
  5  6  1  0  0  0  0
  5 20  1  0  0  0  0
  6  7  1  0  0  0  0
  6 25  1  0  0  0  0
  6 26  1  0  0  0  0
  7  8  1  0  0  0  0
  7  9  1  0  0  0  0
  7 27  1  0  0  0  0
  8 28  1  0  0  0  0
  8 29  1  0  0  0  0
  8 30  1  0  0  0  0
  9 10  1  0  0  0  0
  9 31  1  0  0  0  0
  9 47  1  0  0  0  0
 10 11  1  0  0  0  0
 10 32  1  0  0  0  0
 10 33  1  0  0  0  0
 11 12  1  0  0  0  0
 11 13  1  0  0  0  0
 11 34  1  0  0  0  0
 12 35  1  0  0  0  0
 13 14  1  0  0  0  0
 13 36  1  0  0  0  0
 13 37  1  0  0  0  0
 14 19  1  0  0  0  0
 14 15  1  0  0  0  0
 14 48  1  0  0  0  0
 15 16  1  0  0  0  0
 15 38  1  0  0  0  0
 15 39  1  0  0  0  0
 16 17  1  0  0  0  0
 16 40  1  0  0  0  0
 16 41  1  0  0  0  0
 17 18  1  0  0  0  0
 18 19  1  0  0  0  0
 18 42  1  0  0  0  0
 18 43  1  0  0  0  0
 19 44  1  0  0  0  0
 19 45  1  0  0  0  0
 20 46  1  0  0  0  0
M  CHG  1   9   1
M  CHG  1  14   1
M  END
> <s_m_source_file>
AV-unprocessed.smi

> <i_m_source_file_index>
3031

> <i_lp_mmshare_version>
43012

> <i_f3d_flags>
0

> <s_epik_input>
W0NIM11jMVtjSF1ubihbY0hdMSlbQ0gyXVtDQEhdKFtDSDNdKVtOSF1bQ0gyXVtDQEhdKFtPSF0pW0NIMl1OMltDSDJdW0NIMl1PW0NIMl1bQ0gyXTI=

> <s_epik_cmdline>
J2VwaWtfcHl0aG9uJywgJy1waCcsICc3LjAnLCAnLXRuJywgJzgnLCAnLW1hJywgJzIwMCcsICctbWV0YWxfYmluZGluZycsICctaW1hZScsICc8aW5maWxlLm1hZT4nLCAnLW9tYWUnLCAnPG91dGZpbGUubWFlPic=

> <r_lp_tautomer_probability>
1

> <r_epik_Ionization_Penalty>
1.76542

> <r_epik_Ionization_Penalty_Charging>
1.76348

> <r_epik_Ionization_Penalty_Neutral>
0.00194017

> <r_epik_State_Penalty>
1.49348

> <r_epik_Charging_Adjusted_Penalty>
3.25696

> <i_epik_Tot_Q>
2

> <i_epik_Tot_abs_Q>
2

> <r_epik_Metal_State_Penalty>
1.49349

> <b_epik_Metal_Only>
0

> <s_lp_Force_Field>
OPLS_2005

> <r_lp_Energy>
29.0022

> <b_lp_Chiralities_Consistent>
1

> <s_lp_Variant>
AV-unprocessed.smi:3031-12

> <Gold.Version>
5.8.1

> <Gold.Id.Protein>
6NUR|6NUR_protein|mol2

> <Gold.PLP.Fitness>
55.6051

> <Gold.PLP.PLP>
-36.5113

> <Gold.PLP.part.hbond>
-6.0000

> <Gold.PLP.part.metal>
0.0000

> <Gold.PLP.part.buried>
-3.2229

> <Gold.PLP.part.nonpolar>
-26.8840

> <Gold.PLP.part.repulsive>
0.2063

> <Gold.PLP.ligand.clash>
0.0000

> <Gold.PLP.ligand.torsion>
1.6434

> <Gold.PLP.Chemscore.Hbond>
6.4000

> <Gold.PLP.Chemscore.CHOScore>
1.0000

> <Gold.PLP.Chemscore.Metal>
0.0000

> <Gold.Chemscore.Hbonds>
donor molecule, donor type, donor heavy atom, donor atom, acceptor molecule, acceptor atom, score
      L1  H     9    31       P1  7957  1.00
      L1  H     9    47       P1  7948  2.00
      L1  H    12    35       P1  7957  1.00
      L1  H    14    48       P1  7948  2.00
      P1  H  7954  7966       L1    12  0.45
      L1  C    20    46       P1  8028  1.00

> <Gold.PLP.Chemscore.Internal.Correction>
0.1807

> <Gold.Rescore>
     Score         DG    S(hbond)    S(metal)    S(lipo)     H(rot)  DE(clash)    DE(int)     intcor
     17.71     -20.85       3.87        0.00      80.75       2.74       0.16       2.97       ----

> <Gold.Chemscore.Fitness>
17.7092

> <Gold.Chemscore.DG>
-20.8454

> <Gold.Chemscore.ZeroCoef>
-5.4800

> <Gold.Chemscore.Hbond>
3.8744

> <Gold.Chemscore.Metal>
0.0000

> <Gold.Chemscore.Lipo>
80.7515

> <Gold.Chemscore.Internal_Hbond>
0.0000

> <Gold.Chemscore.DEClash>
0.1632

> <Gold.Chemscore.DEInternal>
2.9731

> <Gold.Chemscore.Rot>
2.7434

> <Gold.Chemscore.Internal.Correction>
   9.000000E+99

> <Gold.Chemscore.Hbonds>
donor molecule, donor type, donor heavy atom, donor atom, acceptor molecule, acceptor atom, score
      L1  H     9    31       P1  7957  0.99
      L1  H     9    47       P1  7948  0.96
      L1  H    12    35       P1  7957  0.58
      L1  H    14    48       P1  7948  1.00
      P1  H  7954  7966       L1    12  0.02

> <Gold.Chemscore.Hbond.Weighted>
-12.9406

> <Gold.Chemscore.Metal.Weighted>
-0.0000

> <Gold.Chemscore.Lipo.Weighted>
-9.4479

> <Gold.Chemscore.Internal_Hbond.Weighted>
0.0000

> <Gold.Chemscore.DEClash.Weighted>
0.1632

> <Gold.Chemscore.DEInternal.Weighted>
2.9731

> <Gold.Chemscore.Rot.Weighted>
7.0231

> <Gold.Chemscore.Internal.Correction.Weighted>
   9.000000E+99

> <Gold.Protein.RotatedTorsions>
[ 6907 6896 6895 6894 ] final  152.12 input  -60.11 | X-H torsion
[ 7974 7965 7964 7962 ] final   70.90 input  175.53 | X-H torsion
[ 8008 7997 7996 7995 ] final  169.43 input   59.86 | X-H torsion
[ 10167 10162 10161 10158 ] final   68.27 input  -65.29 | X-H torsion
[ 10718 10713 10712 10709 ] final   -3.24 input   66.30 | X-H torsion
[ 10763 10752 10751 10750 ] final   85.23 input  -60.55 | X-H torsion
[ 11005 11000 10999 10996 ] final   65.50 input  -57.11 | X-H torsion

> <Gold.Protein.ActiveResidues>
 VAL166  LYS551  ARG553  GLY616  TRP617  ASP618  TYR619  PRO620  LYS621  CYS622 
 ASP623  PHE694  ASN695  SER759  ASP760  ASP761  ALA762  ILE779  LEU786  VAL792 
 PHE793  MET794  SER795  GLU796  ALA797  LYS798  CYS799  TRP800  GLU811  SER814 

> <Gold.Protein.RotatedAtoms>
  152.0911  133.4201  159.4544 H   0  0  0  0  0  0  0  0  0  0  0  0  # atno 6907 bound_to 6896
  150.6862  134.2870  159.4660 H   0  0  0  0  0  0  0  0  0  0  0  0  # atno 6908 bound_to 6896
  152.0722  134.9526  160.0625 H   0  0  0  0  0  0  0  0  0  0  0  0  # atno 6909 bound_to 6896
  145.7724  139.2849  143.1313 H   0  0  0  0  0  0  0  0  0  0  0  0  # atno 7974 bound_to 7965
  156.1458  140.1564  156.8848 H   0  0  0  0  0  0  0  0  0  0  0  0  # atno 8008 bound_to 7997
  154.5027  140.0821  156.7869 H   0  0  0  0  0  0  0  0  0  0  0  0  # atno 8009 bound_to 7997
  155.3991  140.3413  155.4258 H   0  0  0  0  0  0  0  0  0  0  0  0  # atno 8010 bound_to 7997
  140.0805  144.5075  150.7165 H   0  0  0  0  0  0  0  0  0  0  0  0  # atno 10167 bound_to 10162
  156.7789  130.5324  149.5754 H   0  0  0  0  0  0  0  0  0  0  0  0  # atno 10718 bound_to 10713
  153.1455  135.4625  154.9560 H   0  0  0  0  0  0  0  0  0  0  0  0  # atno 10763 bound_to 10752
  154.7783  135.3180  154.8047 H   0  0  0  0  0  0  0  0  0  0  0  0  # atno 10764 bound_to 10752
  153.8562  135.6917  153.4841 H   0  0  0  0  0  0  0  0  0  0  0  0  # atno 10765 bound_to 10752
  139.9891  134.6621  156.0124 H   0  0  0  0  0  0  0  0  0  0  0  0  # atno 11005 bound_to 11000
  146.0156  140.8395  142.9949 LP  0  0  0  0  0  0  0  0  0  0  0  0  # atno 17320 bound_to 7965
  144.6810  140.2553  143.7326 LP  0  0  0  0  0  0  0  0  0  0  0  0  # atno 17321 bound_to 7965
  140.7080  143.2483  151.4667 LP  0  0  0  0  0  0  0  0  0  0  0  0  # atno 17342 bound_to 10162
  139.5782  144.1769  152.1933 LP  0  0  0  0  0  0  0  0  0  0  0  0  # atno 17343 bound_to 10162
  156.1230  130.6124  151.0222 LP  0  0  0  0  0  0  0  0  0  0  0  0  # atno 17370 bound_to 10713
  157.6656  131.0872  150.7737 LP  0  0  0  0  0  0  0  0  0  0  0  0  # atno 17371 bound_to 10713
  141.1550  133.6544  156.4132 LP  0  0  0  0  0  0  0  0  0  0  0  0  # atno 17394 bound_to 11000
  140.4944  134.6544  157.5224 LP  0  0  0  0  0  0  0  0  0  0  0  0  # atno 17395 bound_to 11000

$$$$
