AV-unprocessed.smi:392|AV-procd|sdf|2481|dock3
  -GOLD-   2262022423D 1   1.00000     0.00000
 Structure written by MMmdl.
 32 34  0  0  0  0  0  0  0  0  1 V2000
  149.8351  141.6357  158.2636 O   0  0  0  0  0  0  0  0  0  0  0  0
  150.2503  142.0199  156.9683 C   0  0  1  0  0  0  0  0  0  0  0  0
  151.3243  143.1167  157.1131 C   0  0  0  0  0  0  0  0  0  0  0  0
  151.3791  143.6601  158.4587 N   0  0  0  0  0  0  0  0  0  0  0  0
  150.7311  144.7478  158.9181 C   0  0  0  0  0  0  0  0  0  0  0  0
  150.9281  145.0835  160.1898 N   0  0  0  0  0  0  0  0  0  0  0  0
  151.8090  144.0998  160.6049 C   0  0  0  0  0  0  0  0  0  0  0  0
  152.4196  143.8872  161.8617 C   0  0  0  0  0  0  0  0  0  0  0  0
  153.3026  142.8040  162.0530 C   0  0  0  0  0  0  0  0  0  0  0  0
  153.5864  141.9173  160.9941 C   0  0  0  0  0  0  0  0  0  0  0  0
  152.9873  142.1066  159.7342 C   0  0  0  0  0  0  0  0  0  0  0  0
  152.1091  143.1904  159.5461 C   0  0  0  0  0  0  0  0  0  0  0  0
  150.7427  140.8350  156.1446 C   0  0  0  0  0  0  0  0  0  0  0  0
  151.9472  140.1807  156.4882 C   0  0  0  0  0  0  0  0  0  0  0  0
  152.4221  139.1076  155.7102 C   0  0  0  0  0  0  0  0  0  0  0  0
  151.6965  138.6802  154.5826 C   0  0  0  0  0  0  0  0  0  0  0  0
  150.4955  139.3266  154.2341 C   0  0  0  0  0  0  0  0  0  0  0  0
  150.0188  140.4010  155.0101 C   0  0  0  0  0  0  0  0  0  0  0  0
  148.8693  141.0210  154.6500 F   0  0  0  0  0  0  0  0  0  0  0  0
  150.5364  141.8210  158.8695 H   0  0  0  0  0  0  0  0  0  0  0  0
  149.3706  142.4488  156.4873 H   0  0  0  0  0  0  0  0  0  0  0  0
  152.3092  142.7095  156.8792 H   0  0  0  0  0  0  0  0  0  0  0  0
  151.1493  143.9302  156.4077 H   0  0  0  0  0  0  0  0  0  0  0  0
  150.0799  145.3282  158.2808 H   0  0  0  0  0  0  0  0  0  0  0  0
  152.2104  144.5606  162.6797 H   0  0  0  0  0  0  0  0  0  0  0  0
  153.7648  142.6529  163.0174 H   0  0  0  0  0  0  0  0  0  0  0  0
  154.2652  141.0915  161.1489 H   0  0  0  0  0  0  0  0  0  0  0  0
  153.2056  141.4309  158.9209 H   0  0  0  0  0  0  0  0  0  0  0  0
  152.5185  140.5074  157.3448 H   0  0  0  0  0  0  0  0  0  0  0  0
  153.3458  138.6151  155.9765 H   0  0  0  0  0  0  0  0  0  0  0  0
  152.0619  137.8591  153.9836 H   0  0  0  0  0  0  0  0  0  0  0  0
  149.9409  139.0014  153.3664 H   0  0  0  0  0  0  0  0  0  0  0  0
  1  2  1  0  0  0  0
  1 20  1  0  0  0  0
  2  3  1  0  0  0  0
  2 13  1  0  0  0  0
  2 21  1  0  0  0  0
  3  4  1  0  0  0  0
  3 22  1  0  0  0  0
  3 23  1  0  0  0  0
  4 12  1  0  0  0  0
  4  5  1  0  0  0  0
  5  6  2  0  0  0  0
  5 24  1  0  0  0  0
  6  7  1  0  0  0  0
  7 12  2  0  0  0  0
  7  8  1  0  0  0  0
  8  9  2  0  0  0  0
  8 25  1  0  0  0  0
  9 10  1  0  0  0  0
  9 26  1  0  0  0  0
 10 11  2  0  0  0  0
 10 27  1  0  0  0  0
 11 12  1  0  0  0  0
 11 28  1  0  0  0  0
 13 18  1  0  0  0  0
 13 14  2  0  0  0  0
 14 15  1  0  0  0  0
 14 29  1  0  0  0  0
 15 16  2  0  0  0  0
 15 30  1  0  0  0  0
 16 17  1  0  0  0  0
 16 31  1  0  0  0  0
 17 18  2  0  0  0  0
 17 32  1  0  0  0  0
 18 19  1  0  0  0  0
M  END
> <s_m_source_file>
AV-unprocessed.smi

> <i_m_source_file_index>
392

> <i_lp_mmshare_version>
43012

> <i_f3d_flags>
0

> <s_epik_input>
RmMxW2NIXVtjSF1bY0hdW2NIXWMxW0NASF0oW09IXSlbQ0gyXW4oW2NIXW4yKWMoYzIzKVtjSF1bY0hdW2NIXVtjSF0z

> <s_epik_cmdline>
J2VwaWtfcHl0aG9uJywgJy1waCcsICc3LjAnLCAnLXRuJywgJzgnLCAnLW1hJywgJzIwMCcsICctbWV0YWxfYmluZGluZycsICctaW1hZScsICc8aW5maWxlLm1hZT4nLCAnLW9tYWUnLCAnPG91dGZpbGUubWFlPic=

> <r_epik_Ionization_Penalty>
0.0696512

> <r_epik_Ionization_Penalty_Charging>
0

> <r_epik_Ionization_Penalty_Neutral>
0.0696512

> <r_epik_State_Penalty>
0.0610247

> <r_epik_Charging_Adjusted_Penalty>
0.0610247

> <i_epik_Tot_Q>
0

> <i_epik_Tot_abs_Q>
0

> <r_epik_Metal_State_Penalty>
6.42746e-05

> <b_epik_Metal_Only>
0

> <s_lp_Force_Field>
OPLS_2005

> <r_lp_Energy>
12.4864

> <b_lp_Chiralities_Consistent>
1

> <s_lp_Variant>
AV-unprocessed.smi:392-2

> <Gold.Version>
5.8.1

> <Gold.Id.Protein>
6NUR|6NUR_protein|mol2

> <Gold.PLP.Fitness>
51.8408

> <Gold.PLP.PLP>
-50.9588

> <Gold.PLP.part.hbond>
0.0000

> <Gold.PLP.part.metal>
0.0000

> <Gold.PLP.part.buried>
-4.1604

> <Gold.PLP.part.nonpolar>
-47.2688

> <Gold.PLP.part.repulsive>
0.1765

> <Gold.PLP.ligand.clash>
0.0000

> <Gold.PLP.ligand.torsion>
1.0916

> <Gold.PLP.Chemscore.Hbond>
0.0000

> <Gold.PLP.Chemscore.CHOScore>
1.0168

> <Gold.PLP.Chemscore.Metal>
0.0000

> <Gold.Chemscore.Hbonds>
donor molecule, donor type, donor heavy atom, donor atom, acceptor molecule, acceptor atom, score
      L1  C     5    24       P1  8028  0.01
      L1  C     5    24       P1  8029  1.00

> <Gold.PLP.Chemscore.Internal.Correction>
0.0148

> <Gold.Rescore>
     Score         DG    S(hbond)    S(metal)    S(lipo)     H(rot)  DE(clash)    DE(int)     intcor
     14.27     -15.44       0.00        0.00     126.96       1.91       0.10       1.08       ----

> <Gold.Chemscore.Fitness>
14.2657

> <Gold.Chemscore.DG>
-15.4411

> <Gold.Chemscore.ZeroCoef>
-5.4800

> <Gold.Chemscore.Hbond>
0.0000

> <Gold.Chemscore.Metal>
0.0000

> <Gold.Chemscore.Lipo>
126.9643

> <Gold.Chemscore.Internal_Hbond>
0.0000

> <Gold.Chemscore.DEClash>
0.0992

> <Gold.Chemscore.DEInternal>
1.0762

> <Gold.Chemscore.Rot>
1.9116

> <Gold.Chemscore.Internal.Correction>
   9.000000E+99

> <Gold.Chemscore.Hbond.Weighted>
-0.0000

> <Gold.Chemscore.Metal.Weighted>
-0.0000

> <Gold.Chemscore.Lipo.Weighted>
-14.8548

> <Gold.Chemscore.Internal_Hbond.Weighted>
0.0000

> <Gold.Chemscore.DEClash.Weighted>
0.0992

> <Gold.Chemscore.DEInternal.Weighted>
1.0762

> <Gold.Chemscore.Rot.Weighted>
4.8937

> <Gold.Chemscore.Internal.Correction.Weighted>
   9.000000E+99

> <Gold.Protein.RotatedTorsions>
[ 6907 6896 6895 6894 ] final    9.85 input  -60.11 | X-H torsion
[ 7974 7965 7964 7962 ] final -121.93 input  175.53 | X-H torsion
[ 8008 7997 7996 7995 ] final  139.88 input   59.86 | X-H torsion
[ 10167 10162 10161 10158 ] final -107.09 input  -65.29 | X-H torsion
[ 10718 10713 10712 10709 ] final  115.01 input   66.30 | X-H torsion
[ 10763 10752 10751 10750 ] final  -83.12 input  -60.55 | X-H torsion
[ 11005 11000 10999 10996 ] final -142.44 input  -57.11 | X-H torsion

> <Gold.Protein.ActiveResidues>
 VAL166  LYS551  ARG553  GLY616  TRP617  ASP618  TYR619  PRO620  LYS621  CYS622 
 ASP623  PHE694  ASN695  SER759  ASP760  ASP761  ALA762  ILE779  LEU786  VAL792 
 PHE793  MET794  SER795  GLU796  ALA797  LYS798  CYS799  TRP800  GLU811  SER814 

> <Gold.Protein.RotatedAtoms>
  151.7288  135.0879  160.0296 H   0  0  0  0  0  0  0  0  0  0  0  0  # atno 6907 bound_to 6896
  152.3554  133.6227  159.5984 H   0  0  0  0  0  0  0  0  0  0  0  0  # atno 6908 bound_to 6896
  150.7568  133.9424  159.3502 H   0  0  0  0  0  0  0  0  0  0  0  0  # atno 6909 bound_to 6896
  145.0349  140.8098  143.4301 H   0  0  0  0  0  0  0  0  0  0  0  0  # atno 7974 bound_to 7965
  156.2985  140.2356  156.4309 H   0  0  0  0  0  0  0  0  0  0  0  0  # atno 8008 bound_to 7997
  154.8271  140.0435  157.1471 H   0  0  0  0  0  0  0  0  0  0  0  0  # atno 8009 bound_to 7997
  154.9250  140.3009  155.5200 H   0  0  0  0  0  0  0  0  0  0  0  0  # atno 8010 bound_to 7997
  140.1807  143.3969  152.1283 H   0  0  0  0  0  0  0  0  0  0  0  0  # atno 10167 bound_to 10162
  157.6247  131.1006  150.7268 H   0  0  0  0  0  0  0  0  0  0  0  0  # atno 10718 bound_to 10713
  154.5839  135.5567  153.7212 H   0  0  0  0  0  0  0  0  0  0  0  0  # atno 10763 bound_to 10752
  153.0091  135.6327  154.1943 H   0  0  0  0  0  0  0  0  0  0  0  0  # atno 10764 bound_to 10752
  154.1884  135.2883  155.3010 H   0  0  0  0  0  0  0  0  0  0  0  0  # atno 10765 bound_to 10752
  140.8225  134.2614  157.4894 H   0  0  0  0  0  0  0  0  0  0  0  0  # atno 11005 bound_to 11000
  145.1722  139.2398  143.5336 LP  0  0  0  0  0  0  0  0  0  0  0  0  # atno 17320 bound_to 7965
  146.3503  140.1476  142.8593 LP  0  0  0  0  0  0  0  0  0  0  0  0  # atno 17321 bound_to 7965
  139.5297  144.7145  151.5099 LP  0  0  0  0  0  0  0  0  0  0  0  0  # atno 17342 bound_to 10162
  140.6521  143.8674  150.6797 LP  0  0  0  0  0  0  0  0  0  0  0  0  # atno 17343 bound_to 10162
  156.7618  130.4801  149.5435 LP  0  0  0  0  0  0  0  0  0  0  0  0  # atno 17370 bound_to 10713
  156.1413  130.6246  151.0471 LP  0  0  0  0  0  0  0  0  0  0  0  0  # atno 17371 bound_to 10713
  139.8708  134.9543  156.4171 LP  0  0  0  0  0  0  0  0  0  0  0  0  # atno 17394 bound_to 11000
  140.9084  133.7729  155.9762 LP  0  0  0  0  0  0  0  0  0  0  0  0  # atno 17395 bound_to 11000

$$$$
