AV-unprocessed.smi:1429|AV-procd|sdf|5820|dock1
  -GOLD-   22720 5473D 1   1.00000     0.00000
 Structure written by MMmdl.
 29 30  0  0  0  0  0  0  0  0  2 V2000
  148.8427  141.0971  154.4180 C   0  0  0  0  0  0  0  0  0  0  0  0
  149.8041  139.9690  154.5743 C   0  0  0  0  0  0  0  0  0  0  0  0
  151.1173  140.1480  154.7238 N   0  0  0  0  0  0  0  0  0  0  0  0
  151.7953  138.9453  154.8484 N   0  0  0  0  0  0  0  0  0  0  0  0
  150.9936  137.8652  154.7928 C   0  0  0  0  0  0  0  0  0  0  0  0
  151.3805  136.5730  154.8880 N   0  5  0  0  0  0  0  0  0  0  0  0
  150.5799  135.5341  155.2385 C   0  0  0  0  0  0  0  0  0  0  0  0
  150.6303  134.8609  156.2699 O   0  0  0  0  0  0  0  0  0  0  0  0
  149.6468  135.2549  154.3185 N   0  0  0  0  0  0  0  0  0  0  0  0
  148.6517  134.1948  154.4240 C   0  0  0  0  0  0  0  0  0  0  0  0
  149.1721  132.8871  153.8059 C   0  0  2  0  0  0  0  0  0  0  0  0
  148.0962  131.8766  153.4585 C   0  0  0  0  0  0  0  0  0  0  0  0
  148.9006  130.5846  153.3517 C   0  0  0  0  0  0  0  0  0  0  0  0
  149.9901  130.7256  154.2595 O   0  0  0  0  0  0  0  0  0  0  0  0
  150.0529  132.0637  154.7445 C   0  0  0  0  0  0  0  0  0  0  0  0
  149.2958  138.2907  154.5756 S   0  0  0  0  0  0  0  0  0  0  0  0
  149.3652  142.0541  154.4382 H   0  0  0  0  0  0  0  0  0  0  0  0
  148.1135  141.0800  155.2279 H   0  0  0  0  0  0  0  0  0  0  0  0
  148.3151  141.0072  153.4683 H   0  0  0  0  0  0  0  0  0  0  0  0
  149.6279  135.8228  153.4843 H   0  0  0  0  0  0  0  0  0  0  0  0
  148.4090  134.0353  155.4756 H   0  0  0  0  0  0  0  0  0  0  0  0
  147.7325  134.5099  153.9272 H   0  0  0  0  0  0  0  0  0  0  0  0
  149.7437  133.1141  152.9041 H   0  0  0  0  0  0  0  0  0  0  0  0
  147.3704  131.7998  154.2695 H   0  0  0  0  0  0  0  0  0  0  0  0
  147.5586  132.1177  152.5412 H   0  0  0  0  0  0  0  0  0  0  0  0
  148.3022  129.7022  153.5799 H   0  0  0  0  0  0  0  0  0  0  0  0
  149.3025  130.4692  152.3444 H   0  0  0  0  0  0  0  0  0  0  0  0
  151.0803  132.4273  154.7788 H   0  0  0  0  0  0  0  0  0  0  0  0
  149.6555  132.0791  155.7604 H   0  0  0  0  0  0  0  0  0  0  0  0
  1  2  1  0  0  0  0
  1 17  1  0  0  0  0
  1 18  1  0  0  0  0
  1 19  1  0  0  0  0
  2 16  1  0  0  0  0
  2  3  2  0  0  0  0
  3  4  1  0  0  0  0
  4  5  2  0  0  0  0
  5  6  1  0  0  0  0
  5 16  1  0  0  0  0
  6  7  1  0  0  0  0
  7  8  2  0  0  0  0
  7  9  1  0  0  0  0
  9 10  1  0  0  0  0
  9 20  1  0  0  0  0
 10 11  1  0  0  0  0
 10 21  1  0  0  0  0
 10 22  1  0  0  0  0
 11 15  1  0  0  0  0
 11 12  1  0  0  0  0
 11 23  1  0  0  0  0
 12 13  1  0  0  0  0
 12 24  1  0  0  0  0
 12 25  1  0  0  0  0
 13 14  1  0  0  0  0
 13 26  1  0  0  0  0
 13 27  1  0  0  0  0
 14 15  1  0  0  0  0
 15 28  1  0  0  0  0
 15 29  1  0  0  0  0
M  CHG  1   6  -1
M  END
> <s_m_source_file>
AV-unprocessed.smi

> <i_m_source_file_index>
1429

> <i_lp_mmshare_version>
43012

> <i_f3d_flags>
0

> <s_epik_input>
W0NIM11jMW5uYyhzMSlbTkhdQyg9TylbTkhdW0NIMl1bQ0BASF0yW0NIMl1bQ0gyXU9bQ0gyXTI=

> <s_epik_cmdline>
J2VwaWtfcHl0aG9uJywgJy1waCcsICc3LjAnLCAnLXRuJywgJzgnLCAnLW1hJywgJzIwMCcsICctbWV0YWxfYmluZGluZycsICctaW1hZScsICc8aW5maWxlLm1hZT4nLCAnLW9tYWUnLCAnPG91dGZpbGUubWFlPic=

> <r_lp_tautomer_probability>
1

> <r_epik_Ionization_Penalty>
4.4122

> <r_epik_Ionization_Penalty_Charging>
4.26477

> <r_epik_Ionization_Penalty_Neutral>
0.147429

> <r_epik_State_Penalty>
4.26433

> <r_epik_Charging_Adjusted_Penalty>
8.5291

> <i_epik_Tot_Q>
-1

> <i_epik_Tot_abs_Q>
1

> <r_epik_Metal_State_Penalty>
0.713483

> <b_epik_Metal_Only>
1

> <s_lp_Force_Field>
OPLS_2005

> <r_lp_Energy>
20.5351

> <b_lp_Chiralities_Consistent>
1

> <s_lp_Variant>
AV-unprocessed.smi:1429-3

> <Gold.Version>
5.8.1

> <Gold.Id.Protein>
6NUR|6NUR_protein|mol2

> <Gold.PLP.Fitness>
37.6140

> <Gold.PLP.PLP>
-27.9814

> <Gold.PLP.part.hbond>
-3.0523

> <Gold.PLP.part.metal>
0.0000

> <Gold.PLP.part.buried>
-4.1172

> <Gold.PLP.part.nonpolar>
-21.0571

> <Gold.PLP.part.repulsive>
0.3609

> <Gold.PLP.ligand.clash>
0.0000

> <Gold.PLP.ligand.torsion>
1.1398

> <Gold.PLP.Chemscore.Hbond>
3.9500

> <Gold.PLP.Chemscore.CHOScore>
0.0000

> <Gold.PLP.Chemscore.Metal>
0.0000

> <Gold.Chemscore.Hbonds>
donor molecule, donor type, donor heavy atom, donor atom, acceptor molecule, acceptor atom, score
      L1  H     9    20       P1  7948  0.85
      P1  H  7989  7998       L1     3  0.96
      P1  H 10752 10765       L1     6  2.00

> <Gold.PLP.Chemscore.Internal.Correction>
0.0623

> <Gold.Rescore>
     Score         DG    S(hbond)    S(metal)    S(lipo)     H(rot)  DE(clash)    DE(int)     intcor
     13.53     -14.81       2.31        0.00      42.35       1.30       0.00       1.28       ----

> <Gold.Chemscore.Fitness>
13.5322

> <Gold.Chemscore.DG>
-14.8103

> <Gold.Chemscore.ZeroCoef>
-5.4800

> <Gold.Chemscore.Hbond>
2.3050

> <Gold.Chemscore.Metal>
0.0000

> <Gold.Chemscore.Lipo>
42.3458

> <Gold.Chemscore.Internal_Hbond>
0.0000

> <Gold.Chemscore.DEClash>
0.0000

> <Gold.Chemscore.DEInternal>
1.2781

> <Gold.Chemscore.Rot>
1.2980

> <Gold.Chemscore.Internal.Correction>
   9.000000E+99

> <Gold.Chemscore.Hbonds>
donor molecule, donor type, donor heavy atom, donor atom, acceptor molecule, acceptor atom, score
      L1  H     9    20       P1  7948  0.14
      P1  H  7989  7998       L1     3  0.41
      P1  H 10752 10765       L1     6  0.26

> <Gold.Chemscore.Hbond.Weighted>
-7.6987

> <Gold.Chemscore.Metal.Weighted>
-0.0000

> <Gold.Chemscore.Lipo.Weighted>
-4.9545

> <Gold.Chemscore.Internal_Hbond.Weighted>
0.0000

> <Gold.Chemscore.DEClash.Weighted>
0.0000

> <Gold.Chemscore.DEInternal.Weighted>
1.2781

> <Gold.Chemscore.Rot.Weighted>
3.3229

> <Gold.Chemscore.Internal.Correction.Weighted>
   9.000000E+99

> <Gold.Protein.RotatedTorsions>
[ 6907 6896 6895 6894 ] final  -50.63 input  -60.11 | X-H torsion
[ 7974 7965 7964 7962 ] final  -57.04 input  175.53 | X-H torsion
[ 8008 7997 7996 7995 ] final -152.29 input   59.86 | X-H torsion
[ 10167 10162 10161 10158 ] final   95.92 input  -65.29 | X-H torsion
[ 10718 10713 10712 10709 ] final  102.74 input   66.30 | X-H torsion
[ 10763 10752 10751 10750 ] final  168.72 input  -60.55 | X-H torsion
[ 11005 11000 10999 10996 ] final -113.80 input  -57.11 | X-H torsion

> <Gold.Protein.ActiveResidues>
 VAL166  LYS551  ARG553  GLY616  TRP617  ASP618  TYR619  PRO620  LYS621  CYS622 
 ASP623  PHE694  ASN695  SER759  ASP760  ASP761  ALA762  ILE779  LEU786  VAL792 
 PHE793  MET794  SER795  GLU796  ALA797  LYS798  CYS799  TRP800  GLU811  SER814 

> <Gold.Protein.RotatedAtoms>
  150.8689  134.8058  159.7139 H   0  0  0  0  0  0  0  0  0  0  0  0  # atno 6907 bound_to 6896
  152.4700  134.4979  159.9725 H   0  0  0  0  0  0  0  0  0  0  0  0  # atno 6908 bound_to 6896
  151.5071  133.3454  159.2914 H   0  0  0  0  0  0  0  0  0  0  0  0  # atno 6909 bound_to 6896
  145.8557  140.8321  142.9962 H   0  0  0  0  0  0  0  0  0  0  0  0  # atno 7974 bound_to 7965
  155.6529  140.0714  157.2581 H   0  0  0  0  0  0  0  0  0  0  0  0  # atno 8008 bound_to 7997
  154.4159  140.1730  156.1743 H   0  0  0  0  0  0  0  0  0  0  0  0  # atno 8009 bound_to 7997
  155.9762  140.3357  155.6624 H   0  0  0  0  0  0  0  0  0  0  0  0  # atno 8010 bound_to 7997
  139.7943  144.6839  150.9850 H   0  0  0  0  0  0  0  0  0  0  0  0  # atno 10167 bound_to 10162
  157.6793  131.0761  150.5450 H   0  0  0  0  0  0  0  0  0  0  0  0  # atno 10718 bound_to 10713
  154.3727  135.2753  155.2257 H   0  0  0  0  0  0  0  0  0  0  0  0  # atno 10763 bound_to 10752
  154.4397  135.5957  153.6125 H   0  0  0  0  0  0  0  0  0  0  0  0  # atno 10764 bound_to 10752
  152.9837  135.6016  154.3960 H   0  0  0  0  0  0  0  0  0  0  0  0  # atno 10765 bound_to 10752
  141.0592  133.9563  157.2699 H   0  0  0  0  0  0  0  0  0  0  0  0  # atno 11005 bound_to 11000
  144.6728  140.1020  143.7460 LP  0  0  0  0  0  0  0  0  0  0  0  0  # atno 17320 bound_to 7965
  145.9306  139.2604  143.1327 LP  0  0  0  0  0  0  0  0  0  0  0  0  # atno 17321 bound_to 7965
  140.7820  143.4348  151.0640 LP  0  0  0  0  0  0  0  0  0  0  0  0  # atno 17342 bound_to 10162
  139.8023  143.8066  152.3164 LP  0  0  0  0  0  0  0  0  0  0  0  0  # atno 17343 bound_to 10162
  156.5756  130.4291  149.6000 LP  0  0  0  0  0  0  0  0  0  0  0  0  # atno 17370 bound_to 10713
  156.2704  130.7013  151.1809 LP  0  0  0  0  0  0  0  0  0  0  0  0  # atno 17371 bound_to 10713
  139.9417  135.0190  156.8728 LP  0  0  0  0  0  0  0  0  0  0  0  0  # atno 17394 bound_to 11000
  140.5903  134.0268  155.7497 LP  0  0  0  0  0  0  0  0  0  0  0  0  # atno 17395 bound_to 11000

$$$$
