AV-unprocessed.smi:1512|AV-procd|sdf|6106|dock2
  -GOLD-   22720 6243D 1   1.00000     0.00000
 Structure written by MMmdl.
 44 46  0  0  0  0  0  0  0  0  3 V2000
  149.6731  141.6928  156.8272 C   0  0  0  0  0  0  0  0  0  0  0  0
  151.0433  141.7397  157.5246 C   0  0  2  0  0  0  0  0  0  0  0  0
  151.3406  140.3999  158.0309 N   0  0  0  0  0  0  0  0  0  0  0  0
  152.0714  139.4624  157.4080 C   0  0  0  0  0  0  0  0  0  0  0  0
  152.6141  139.6380  156.3165 O   0  0  0  0  0  0  0  0  0  0  0  0
  152.2217  138.1285  158.1535 C   0  0  0  0  0  0  0  0  0  0  0  0
  150.9994  137.3063  158.1309 N   0  0  0  0  0  0  0  0  0  0  0  0
  150.7070  136.6329  156.9301 C   0  0  0  0  0  0  0  0  0  0  0  0
  149.6195  135.8603  156.7976 C   0  0  0  0  0  0  0  0  0  0  0  0
  148.7306  135.7331  157.9265 C   0  0  0  0  0  0  0  0  0  0  0  0
  148.9883  136.3742  159.0899 C   0  0  0  0  0  0  0  0  0  0  0  0
  148.0494  136.2143  160.1766 N   0  3  0  0  0  0  0  0  0  0  0  0
  147.3732  135.1919  160.2302 O   0  0  0  0  0  0  0  0  0  0  0  0
  147.9709  137.1040  161.0186 O   0  5  0  0  0  0  0  0  0  0  0  0
  150.1963  137.2128  159.2364 C   0  0  0  0  0  0  0  0  0  0  0  0
  150.4841  137.7937  160.2848 O   0  0  0  0  0  0  0  0  0  0  0  0
  151.0959  142.7625  158.6875 C   0  0  1  0  0  0  0  0  0  0  0  0
  152.4283  142.7384  159.4795 C   0  0  0  0  0  0  0  0  0  0  0  0
  152.8881  144.2061  159.4502 C   0  0  2  0  0  0  0  0  0  0  0  0
  151.9495  145.0592  160.3221 C   0  0  0  0  0  0  0  0  0  0  0  0
  150.6621  145.1118  159.4787 C   0  0  0  0  0  0  0  0  0  0  0  0
  151.0216  144.2490  158.2534 C   0  0  1  0  0  0  0  0  0  0  0  0
  152.4854  144.6222  158.0423 C   0  0  0  0  0  0  0  0  0  0  0  0
  149.4315  142.6366  156.3403 H   0  0  0  0  0  0  0  0  0  0  0  0
  148.8745  141.4676  157.5350 H   0  0  0  0  0  0  0  0  0  0  0  0
  149.6561  140.9238  156.0539 H   0  0  0  0  0  0  0  0  0  0  0  0
  151.7843  142.0283  156.7777 H   0  0  0  0  0  0  0  0  0  0  0  0
  150.9436  140.1624  158.9283 H   0  0  0  0  0  0  0  0  0  0  0  0
  153.0587  137.5873  157.7103 H   0  0  0  0  0  0  0  0  0  0  0  0
  152.5228  138.3211  159.1850 H   0  0  0  0  0  0  0  0  0  0  0  0
  151.4157  136.7868  156.1292 H   0  0  0  0  0  0  0  0  0  0  0  0
  149.4105  135.3524  155.8676 H   0  0  0  0  0  0  0  0  0  0  0  0
  147.8434  135.1251  157.8235 H   0  0  0  0  0  0  0  0  0  0  0  0
  150.2691  142.5413  159.3648 H   0  0  0  0  0  0  0  0  0  0  0  0
  152.3004  142.3628  160.4954 H   0  0  0  0  0  0  0  0  0  0  0  0
  153.1757  142.1130  158.9898 H   0  0  0  0  0  0  0  0  0  0  0  0
  153.9448  144.3370  159.6850 H   0  0  0  0  0  0  0  0  0  0  0  0
  151.7859  144.6177  161.3058 H   0  0  0  0  0  0  0  0  0  0  0  0
  152.3548  146.0614  160.4667 H   0  0  0  0  0  0  0  0  0  0  0  0
  149.7931  144.7333  160.0178 H   0  0  0  0  0  0  0  0  0  0  0  0
  150.4450  146.1376  159.1781 H   0  0  0  0  0  0  0  0  0  0  0  0
  150.3754  144.4456  157.3989 H   0  0  0  0  0  0  0  0  0  0  0  0
  152.6370  145.6850  157.8453 H   0  0  0  0  0  0  0  0  0  0  0  0
  152.9774  144.0417  157.2605 H   0  0  0  0  0  0  0  0  0  0  0  0
  1  2  1  0  0  0  0
  1 24  1  0  0  0  0
  1 25  1  0  0  0  0
  1 26  1  0  0  0  0
  2  3  1  0  0  0  0
  2 17  1  0  0  0  0
  2 27  1  0  0  0  0
  3  4  1  0  0  0  0
  3 28  1  0  0  0  0
  4  5  2  0  0  0  0
  4  6  1  0  0  0  0
  6  7  1  0  0  0  0
  6 29  1  0  0  0  0
  6 30  1  0  0  0  0
  7 15  1  0  0  0  0
  7  8  1  0  0  0  0
  8  9  2  0  0  0  0
  8 31  1  0  0  0  0
  9 10  1  0  0  0  0
  9 32  1  0  0  0  0
 10 11  2  0  0  0  0
 10 33  1  0  0  0  0
 11 12  1  0  0  0  0
 11 15  1  0  0  0  0
 12 13  2  0  0  0  0
 12 14  1  0  0  0  0
 15 16  2  0  0  0  0
 17 22  1  0  0  0  0
 17 18  1  0  0  0  0
 17 34  1  0  0  0  0
 18 19  1  0  0  0  0
 18 35  1  0  0  0  0
 18 36  1  0  0  0  0
 19 23  1  0  0  0  0
 19 20  1  0  0  0  0
 19 37  1  0  0  0  0
 20 21  1  0  0  0  0
 20 38  1  0  0  0  0
 20 39  1  0  0  0  0
 21 22  1  0  0  0  0
 21 40  1  0  0  0  0
 21 41  1  0  0  0  0
 22 23  1  0  0  0  0
 22 42  1  0  0  0  0
 23 43  1  0  0  0  0
 23 44  1  0  0  0  0
M  CHG  1  12   1
M  CHG  1  14  -1
M  END
> <s_m_source_file>
AV-unprocessed.smi

> <i_m_source_file_index>
1512

> <i_lp_mmshare_version>
43012

> <i_f3d_flags>
0

> <s_epik_input>
W0NIMl0xW0NIMl1bQ0BIXShbQ0gyXTIpW0NAQEhdKFtDSDJdW0NAQEhdMTIpW0NASF0oW0NIM10pW05IXUMoPU8pW0NIMl1uM1tjSF1bY0hdW2NIXWMoW04rXSg9TylbTy1dKWMzPU8=

> <s_epik_cmdline>
J2VwaWtfcHl0aG9uJywgJy1waCcsICc3LjAnLCAnLXRuJywgJzgnLCAnLW1hJywgJzIwMCcsICctbWV0YWxfYmluZGluZycsICctaW1hZScsICc8aW5maWxlLm1hZT4nLCAnLW9tYWUnLCAnPG91dGZpbGUubWFlPic=

> <r_lp_tautomer_probability>
1

> <r_epik_Ionization_Penalty>
2.17697e-08

> <r_epik_Ionization_Penalty_Charging>
1.42735e-10

> <r_epik_Ionization_Penalty_Neutral>
2.16269e-08

> <r_epik_State_Penalty>
-0

> <r_epik_Charging_Adjusted_Penalty>
1.42735e-10

> <i_epik_Tot_Q>
0

> <i_epik_Tot_abs_Q>
2

> <r_epik_Metal_State_Penalty>
-0

> <b_epik_Metal_Only>
0

> <s_lp_Force_Field>
OPLS_2005

> <r_lp_Energy>
64.581

> <b_lp_Chiralities_Consistent>
1

> <s_lp_Variant>
AV-unprocessed.smi:1512-7

> <Gold.Version>
5.8.1

> <Gold.Id.Protein>
6NUR|6NUR_protein|mol2

> <Gold.PLP.Fitness>
45.2038

> <Gold.PLP.PLP>
-38.8353

> <Gold.PLP.part.hbond>
-3.5521

> <Gold.PLP.part.metal>
0.0000

> <Gold.PLP.part.buried>
-3.8391

> <Gold.PLP.part.nonpolar>
-32.4297

> <Gold.PLP.part.repulsive>
0.0973

> <Gold.PLP.ligand.clash>
0.0000

> <Gold.PLP.ligand.torsion>
1.0391

> <Gold.PLP.Chemscore.Hbond>
2.7920

> <Gold.PLP.Chemscore.CHOScore>
0.0000

> <Gold.PLP.Chemscore.Metal>
0.0000

> <Gold.Chemscore.Hbonds>
donor molecule, donor type, donor heavy atom, donor atom, acceptor molecule, acceptor atom, score
      P1  H  6931  6943       L1    14  0.99
      P1  H  6934  6947       L1    14  0.69
      P1  H  7997  8009       L1     5  1.00

> <Gold.PLP.Chemscore.Internal.Correction>
0.0706

> <Gold.Rescore>
     Score         DG    S(hbond)    S(metal)    S(lipo)     H(rot)  DE(clash)    DE(int)     intcor
     19.00     -22.98       2.74        0.00     109.62       1.75       1.59       2.39       ----

> <Gold.Chemscore.Fitness>
18.9976

> <Gold.Chemscore.DG>
-22.9796

> <Gold.Chemscore.ZeroCoef>
-5.4800

> <Gold.Chemscore.Hbond>
2.7388

> <Gold.Chemscore.Metal>
0.0000

> <Gold.Chemscore.Lipo>
109.6175

> <Gold.Chemscore.Internal_Hbond>
0.0000

> <Gold.Chemscore.DEClash>
1.5937

> <Gold.Chemscore.DEInternal>
2.3883

> <Gold.Chemscore.Rot>
1.7474

> <Gold.Chemscore.Internal.Correction>
   9.000000E+99

> <Gold.Chemscore.Hbonds>
donor molecule, donor type, donor heavy atom, donor atom, acceptor molecule, acceptor atom, score
      P1  H  6931  6943       L1    14  0.93
      P1  H  6934  6947       L1    14  0.66
      P1  H  7997  8009       L1     5  0.94

> <Gold.Chemscore.Hbond.Weighted>
-9.1477

> <Gold.Chemscore.Metal.Weighted>
-0.0000

> <Gold.Chemscore.Lipo.Weighted>
-12.8253

> <Gold.Chemscore.Internal_Hbond.Weighted>
0.0000

> <Gold.Chemscore.DEClash.Weighted>
1.5937

> <Gold.Chemscore.DEInternal.Weighted>
2.3883

> <Gold.Chemscore.Rot.Weighted>
4.4733

> <Gold.Chemscore.Internal.Correction.Weighted>
   9.000000E+99

> <Gold.Protein.RotatedTorsions>
[ 6907 6896 6895 6894 ] final -118.89 input  -60.11 | X-H torsion
[ 7974 7965 7964 7962 ] final  -93.16 input  175.53 | X-H torsion
[ 8008 7997 7996 7995 ] final -161.39 input   59.86 | X-H torsion
[ 10167 10162 10161 10158 ] final  123.59 input  -65.29 | X-H torsion
[ 10718 10713 10712 10709 ] final -169.52 input   66.30 | X-H torsion
[ 10763 10752 10751 10750 ] final  172.58 input  -60.55 | X-H torsion
[ 11005 11000 10999 10996 ] final  131.45 input  -57.11 | X-H torsion

> <Gold.Protein.ActiveResidues>
 VAL166  LYS551  ARG553  GLY616  TRP617  ASP618  TYR619  PRO620  LYS621  CYS622 
 ASP623  PHE694  ASN695  SER759  ASP760  ASP761  ALA762  ILE779  LEU786  VAL792 
 PHE793  MET794  SER795  GLU796  ALA797  LYS798  CYS799  TRP800  GLU811  SER814 

> <Gold.Protein.RotatedAtoms>
  150.8258  133.8174  159.3119 H   0  0  0  0  0  0  0  0  0  0  0  0  # atno 6907 bound_to 6896
  151.5919  135.1051  160.0050 H   0  0  0  0  0  0  0  0  0  0  0  0  # atno 6908 bound_to 6896
  152.4343  133.7292  159.6634 H   0  0  0  0  0  0  0  0  0  0  0  0  # atno 6909 bound_to 6896
  145.3903  140.9527  143.2344 H   0  0  0  0  0  0  0  0  0  0  0  0  # atno 7974 bound_to 7965
  155.7914  140.0879  157.2007 H   0  0  0  0  0  0  0  0  0  0  0  0  # atno 8008 bound_to 7997
  154.3985  140.1489  156.3226 H   0  0  0  0  0  0  0  0  0  0  0  0  # atno 8009 bound_to 7997
  155.8555  140.3432  155.5724 H   0  0  0  0  0  0  0  0  0  0  0  0  # atno 8010 bound_to 7997
  139.5791  144.6977  151.3576 H   0  0  0  0  0  0  0  0  0  0  0  0  # atno 10167 bound_to 10162
  156.7128  130.9240  151.3091 H   0  0  0  0  0  0  0  0  0  0  0  0  # atno 10718 bound_to 10713
  154.4281  135.2759  155.1931 H   0  0  0  0  0  0  0  0  0  0  0  0  # atno 10763 bound_to 10752
  154.3849  135.6079  153.5814 H   0  0  0  0  0  0  0  0  0  0  0  0  # atno 10764 bound_to 10752
  152.9835  135.5889  154.4587 H   0  0  0  0  0  0  0  0  0  0  0  0  # atno 10765 bound_to 10752
  139.9731  134.9571  156.9440 H   0  0  0  0  0  0  0  0  0  0  0  0  # atno 11005 bound_to 11000
  144.8445  139.5419  143.6885 LP  0  0  0  0  0  0  0  0  0  0  0  0  # atno 17320 bound_to 7965
  146.2801  139.6854  142.9235 LP  0  0  0  0  0  0  0  0  0  0  0  0  # atno 17321 bound_to 7965
  140.7071  143.7486  150.7500 LP  0  0  0  0  0  0  0  0  0  0  0  0  # atno 17342 bound_to 10162
  140.1014  143.4784  152.2423 LP  0  0  0  0  0  0  0  0  0  0  0  0  # atno 17343 bound_to 10162
  157.6929  130.9252  150.0564 LP  0  0  0  0  0  0  0  0  0  0  0  0  # atno 17370 bound_to 10713
  156.1649  130.3645  149.9247 LP  0  0  0  0  0  0  0  0  0  0  0  0  # atno 17371 bound_to 10713
  140.5251  134.0869  155.7301 LP  0  0  0  0  0  0  0  0  0  0  0  0  # atno 17394 bound_to 11000
  141.1410  133.9138  157.2326 LP  0  0  0  0  0  0  0  0  0  0  0  0  # atno 17395 bound_to 11000

$$$$
