AV-unprocessed.smi:2310|AV-procd|sdf|9259|dock4
  -GOLD-   2272012483D 1   1.00000     0.00000
 Structure written by MMmdl.
 45 46  0  0  0  0  0  0  0  0  3 V2000
  152.5311  143.7224  159.6438 C   0  0  0  0  0  0  0  0  0  0  0  0
  152.3285  142.4993  158.7275 C   0  0  0  0  0  0  0  0  0  0  0  0
  152.8271  141.1550  159.3047 C   0  0  2  0  0  0  0  0  0  0  0  0
  154.2378  141.3049  159.9021 C   0  0  0  0  0  0  0  0  0  0  0  0
  154.7329  140.1011  160.5937 C   0  0  0  0  0  0  0  0  0  0  0  0
  155.1178  139.1527  161.1367 N   0  0  0  0  0  0  0  0  0  0  0  0
  152.8671  140.1468  158.2381 N   0  5  0  0  0  0  0  0  0  0  0  0
  152.1256  139.0071  158.2109 C   0  0  0  0  0  0  0  0  0  0  0  0
  151.7678  138.3147  159.1707 O   0  0  0  0  0  0  0  0  0  0  0  0
  151.7984  138.6467  156.9580 N   0  0  0  0  0  0  0  0  0  0  0  0
  151.0192  137.5382  156.5293 C   0  0  0  0  0  0  0  0  0  0  0  0
  150.5902  136.5188  157.4144 C   0  0  0  0  0  0  0  0  0  0  0  0
  149.7951  135.4626  156.9271 C   0  0  0  0  0  0  0  0  0  0  0  0
  149.4276  135.4437  155.5623 C   0  0  0  0  0  0  0  0  0  0  0  0
  148.6360  134.4432  154.9809 N   0  0  0  0  0  0  0  0  0  0  0  0
  149.3162  133.6369  153.9814 C   0  0  0  0  0  0  0  0  0  0  0  0
  148.2072  132.9315  153.1971 C   0  0  0  0  0  0  0  0  0  0  0  0
  146.9539  133.7827  153.4340 C   0  0  0  0  0  0  0  0  0  0  0  0
  147.4149  134.9185  154.3516 C   0  0  0  0  0  0  0  0  0  0  0  0
  149.8426  136.4440  154.7556 N   0  3  0  0  0  0  0  0  0  0  0  0
  150.6060  137.4769  155.1774 C   0  0  0  0  0  0  0  0  0  0  0  0
  150.9915  138.5280  154.1530 C   0  0  0  0  0  0  0  0  0  0  0  0
  152.1903  144.6286  159.1428 H   0  0  0  0  0  0  0  0  0  0  0  0
  153.5807  143.8730  159.9019 H   0  0  0  0  0  0  0  0  0  0  0  0
  151.9640  143.6407  160.5726 H   0  0  0  0  0  0  0  0  0  0  0  0
  151.2742  142.4185  158.4589 H   0  0  0  0  0  0  0  0  0  0  0  0
  152.8565  142.6935  157.7934 H   0  0  0  0  0  0  0  0  0  0  0  0
  152.1591  140.8743  160.1206 H   0  0  0  0  0  0  0  0  0  0  0  0
  154.9589  141.5702  159.1282 H   0  0  0  0  0  0  0  0  0  0  0  0
  154.2485  142.1127  160.6341 H   0  0  0  0  0  0  0  0  0  0  0  0
  152.2257  139.1932  156.2246 H   0  0  0  0  0  0  0  0  0  0  0  0
  150.8475  136.5403  158.4626 H   0  0  0  0  0  0  0  0  0  0  0  0
  149.4691  134.6842  157.6010 H   0  0  0  0  0  0  0  0  0  0  0  0
  149.9048  134.2671  153.3134 H   0  0  0  0  0  0  0  0  0  0  0  0
  149.9923  132.9209  154.4499 H   0  0  0  0  0  0  0  0  0  0  0  0
  148.4568  132.8449  152.1392 H   0  0  0  0  0  0  0  0  0  0  0  0
  148.0503  131.9241  153.5847 H   0  0  0  0  0  0  0  0  0  0  0  0
  146.5314  134.1662  152.5047 H   0  0  0  0  0  0  0  0  0  0  0  0
  146.1861  133.1836  153.9251 H   0  0  0  0  0  0  0  0  0  0  0  0
  146.6587  135.1593  155.0995 H   0  0  0  0  0  0  0  0  0  0  0  0
  147.6066  135.8188  153.7665 H   0  0  0  0  0  0  0  0  0  0  0  0
  150.6076  139.5047  154.4496 H   0  0  0  0  0  0  0  0  0  0  0  0
  150.5903  138.2902  153.1672 H   0  0  0  0  0  0  0  0  0  0  0  0
  152.0768  138.5952  154.0699 H   0  0  0  0  0  0  0  0  0  0  0  0
  149.5647  136.4201  153.7745 H   0  0  0  0  0  0  0  0  0  0  0  0
  1  2  1  0  0  0  0
  1 23  1  0  0  0  0
  1 24  1  0  0  0  0
  1 25  1  0  0  0  0
  2  3  1  0  0  0  0
  2 26  1  0  0  0  0
  2 27  1  0  0  0  0
  3  4  1  0  0  0  0
  3  7  1  0  0  0  0
  3 28  1  0  0  0  0
  4  5  1  0  0  0  0
  4 29  1  0  0  0  0
  4 30  1  0  0  0  0
  5  6  3  0  0  0  0
  7  8  1  0  0  0  0
  8  9  2  0  0  0  0
  8 10  1  0  0  0  0
 10 11  1  0  0  0  0
 10 31  1  0  0  0  0
 11 21  1  0  0  0  0
 11 12  2  0  0  0  0
 12 13  1  0  0  0  0
 12 32  1  0  0  0  0
 13 14  2  0  0  0  0
 13 33  1  0  0  0  0
 14 15  1  0  0  0  0
 14 20  1  0  0  0  0
 15 19  1  0  0  0  0
 15 16  1  0  0  0  0
 16 17  1  0  0  0  0
 16 34  1  0  0  0  0
 16 35  1  0  0  0  0
 17 18  1  0  0  0  0
 17 36  1  0  0  0  0
 17 37  1  0  0  0  0
 18 19  1  0  0  0  0
 18 38  1  0  0  0  0
 18 39  1  0  0  0  0
 19 40  1  0  0  0  0
 19 41  1  0  0  0  0
 20 21  2  0  0  0  0
 20 45  1  0  0  0  0
 21 22  1  0  0  0  0
 22 42  1  0  0  0  0
 22 43  1  0  0  0  0
 22 44  1  0  0  0  0
M  CHG  1   7  -1
M  CHG  1  20   1
M  END
> <s_m_source_file>
AV-unprocessed.smi

> <i_m_source_file_index>
2310

> <i_lp_mmshare_version>
43012

> <i_f3d_flags>
0

> <s_epik_input>
TiNDW0NIMl1bQ0BASF0oW0NIMl1bQ0gzXSlbTkhdQyg9TylbTkhdYzFbY0hdW2NIXWMobmMxW0NIM10pTjJbQ0gyXVtDSDJdW0NIMl1bQ0gyXTI=

> <s_epik_cmdline>
J2VwaWtfcHl0aG9uJywgJy1waCcsICc3LjAnLCAnLXRuJywgJzgnLCAnLW1hJywgJzIwMCcsICctbWV0YWxfYmluZGluZycsICctaW1hZScsICc8aW5maWxlLm1hZT4nLCAnLW9tYWUnLCAnPG91dGZpbGUubWFlPic=

> <r_lp_tautomer_probability>
0.999994

> <r_epik_Ionization_Penalty>
7.34515

> <r_epik_Ionization_Penalty_Charging>
7.34514

> <r_epik_Ionization_Penalty_Neutral>
2.56118e-06

> <r_epik_State_Penalty>
6.99243

> <r_epik_Charging_Adjusted_Penalty>
14.3376

> <i_epik_Tot_Q>
0

> <i_epik_Tot_abs_Q>
2

> <r_epik_Metal_State_Penalty>
3.10684

> <b_epik_Metal_Only>
1

> <s_lp_Force_Field>
OPLS_2005

> <r_lp_Energy>
38.8935

> <b_lp_Chiralities_Consistent>
1

> <s_lp_Variant>
AV-unprocessed.smi:2310-5

> <Gold.Version>
5.8.1

> <Gold.Id.Protein>
6NUR|6NUR_protein|mol2

> <Gold.PLP.Fitness>
44.7219

> <Gold.PLP.PLP>
-33.3898

> <Gold.PLP.part.hbond>
-1.9664

> <Gold.PLP.part.metal>
0.0000

> <Gold.PLP.part.buried>
-4.7402

> <Gold.PLP.part.nonpolar>
-26.7370

> <Gold.PLP.part.repulsive>
0.2197

> <Gold.PLP.ligand.clash>
0.0000

> <Gold.PLP.ligand.torsion>
0.3846

> <Gold.PLP.Chemscore.Hbond>
4.0000

> <Gold.PLP.Chemscore.CHOScore>
0.0000

> <Gold.PLP.Chemscore.Metal>
0.0000

> <Gold.Chemscore.Hbonds>
donor molecule, donor type, donor heavy atom, donor atom, acceptor molecule, acceptor atom, score
      L1  H    20    45       P1  7948  2.00
      P1  H  7997  8009       L1     7  1.66

> <Gold.PLP.Chemscore.Internal.Correction>
0.1012

> <Gold.Rescore>
     Score         DG    S(hbond)    S(metal)    S(lipo)     H(rot)  DE(clash)    DE(int)     intcor
     14.96     -16.76       1.69        0.00      84.39       1.65       0.04       1.76       ----

> <Gold.Chemscore.Fitness>
14.9626

> <Gold.Chemscore.DG>
-16.7613

> <Gold.Chemscore.ZeroCoef>
-5.4800

> <Gold.Chemscore.Hbond>
1.6873

> <Gold.Chemscore.Metal>
0.0000

> <Gold.Chemscore.Lipo>
84.3879

> <Gold.Chemscore.Internal_Hbond>
0.0000

> <Gold.Chemscore.DEClash>
0.0381

> <Gold.Chemscore.DEInternal>
1.7605

> <Gold.Chemscore.Rot>
1.6514

> <Gold.Chemscore.Internal.Correction>
   9.000000E+99

> <Gold.Chemscore.Hbonds>
donor molecule, donor type, donor heavy atom, donor atom, acceptor molecule, acceptor atom, score
      L1  H    20    45       P1  7948  0.68
      P1  H  7997  8009       L1     7  0.62

> <Gold.Chemscore.Hbond.Weighted>
-5.6355

> <Gold.Chemscore.Metal.Weighted>
-0.0000

> <Gold.Chemscore.Lipo.Weighted>
-9.8734

> <Gold.Chemscore.Internal_Hbond.Weighted>
0.0000

> <Gold.Chemscore.DEClash.Weighted>
0.0381

> <Gold.Chemscore.DEInternal.Weighted>
1.7605

> <Gold.Chemscore.Rot.Weighted>
4.2276

> <Gold.Chemscore.Internal.Correction.Weighted>
   9.000000E+99

> <Gold.Protein.RotatedTorsions>
[ 6907 6896 6895 6894 ] final -114.48 input  -60.11 | X-H torsion
[ 7974 7965 7964 7962 ] final   67.57 input  175.53 | X-H torsion
[ 8008 7997 7996 7995 ] final  156.80 input   59.86 | X-H torsion
[ 10167 10162 10161 10158 ] final  134.97 input  -65.29 | X-H torsion
[ 10718 10713 10712 10709 ] final   76.69 input   66.30 | X-H torsion
[ 10763 10752 10751 10750 ] final  -18.76 input  -60.55 | X-H torsion
[ 11005 11000 10999 10996 ] final -154.70 input  -57.11 | X-H torsion

> <Gold.Protein.ActiveResidues>
 VAL166  LYS551  ARG553  GLY616  TRP617  ASP618  TYR619  PRO620  LYS621  CYS622 
 ASP623  PHE694  ASN695  SER759  ASP760  ASP761  ALA762  ILE779  LEU786  VAL792 
 PHE793  MET794  SER795  GLU796  ALA797  LYS798  CYS799  TRP800  GLU811  SER814 

> <Gold.Protein.RotatedAtoms>
  150.7906  133.8795  159.3281 H   0  0  0  0  0  0  0  0  0  0  0  0  # atno 6907 bound_to 6896
  151.6634  135.0984  160.0193 H   0  0  0  0  0  0  0  0  0  0  0  0  # atno 6908 bound_to 6896
  152.3979  133.6735  159.6327 H   0  0  0  0  0  0  0  0  0  0  0  0  # atno 6909 bound_to 6896
  145.8130  139.3043  143.1088 H   0  0  0  0  0  0  0  0  0  0  0  0  # atno 7974 bound_to 7965
  156.2401  140.1902  156.7011 H   0  0  0  0  0  0  0  0  0  0  0  0  # atno 8008 bound_to 7997
  154.6181  140.0612  156.9607 H   0  0  0  0  0  0  0  0  0  0  0  0  # atno 8009 bound_to 7997
  155.1906  140.3284  155.4362 H   0  0  0  0  0  0  0  0  0  0  0  0  # atno 8010 bound_to 7997
  139.5235  144.6540  151.5216 H   0  0  0  0  0  0  0  0  0  0  0  0  # atno 10167 bound_to 10162
  157.6683  130.9786  150.1533 H   0  0  0  0  0  0  0  0  0  0  0  0  # atno 10718 bound_to 10713
  153.5942  135.7001  153.5410 H   0  0  0  0  0  0  0  0  0  0  0  0  # atno 10763 bound_to 10752
  153.3152  135.4090  155.1369 H   0  0  0  0  0  0  0  0  0  0  0  0  # atno 10764 bound_to 10752
  154.8595  135.3682  154.5475 H   0  0  0  0  0  0  0  0  0  0  0  0  # atno 10765 bound_to 10752
  140.6945  134.4005  157.5216 H   0  0  0  0  0  0  0  0  0  0  0  0  # atno 11005 bound_to 11000
  145.9756  140.8724  143.0140 LP  0  0  0  0  0  0  0  0  0  0  0  0  # atno 17320 bound_to 7965
  144.6755  140.2008  143.7387 LP  0  0  0  0  0  0  0  0  0  0  0  0  # atno 17321 bound_to 7965
  140.6358  143.8987  150.6646 LP  0  0  0  0  0  0  0  0  0  0  0  0  # atno 17342 bound_to 10162
  140.2306  143.3739  152.1569 LP  0  0  0  0  0  0  0  0  0  0  0  0  # atno 17343 bound_to 10162
  156.2327  130.3683  149.8427 LP  0  0  0  0  0  0  0  0  0  0  0  0  # atno 17370 bound_to 10713
  156.6249  130.8642  151.3483 LP  0  0  0  0  0  0  0  0  0  0  0  0  # atno 17371 bound_to 10713
  139.8914  134.8781  156.2322 LP  0  0  0  0  0  0  0  0  0  0  0  0  # atno 17394 bound_to 11000
  141.0214  133.7039  156.1275 LP  0  0  0  0  0  0  0  0  0  0  0  0  # atno 17395 bound_to 11000

$$$$
