AV-unprocessed.smi:767|AV-procd|sdf|3662|dock8
  -GOLD-   22720 1 73D 1   1.00000     0.00000
 Structure written by MMmdl.
 47 49  0  0  0  0  0  0  0  0  1 V2000
  152.7601  141.3817  159.3419 C   0  0  0  0  0  0  0  0  0  0  0  0
  152.1137  140.8354  158.0862 C   0  0  0  0  0  0  0  0  0  0  0  0
  151.1473  141.5898  157.3893 C   0  0  0  0  0  0  0  0  0  0  0  0
  150.5801  141.0395  156.2243 C   0  0  0  0  0  0  0  0  0  0  0  0
  151.0013  139.7631  155.7989 C   0  0  0  0  0  0  0  0  0  0  0  0
  150.4452  139.1437  154.5272 C   0  0  0  0  0  0  0  0  0  0  0  0
  148.9034  139.1176  154.4729 C   0  0  0  0  0  0  0  0  0  0  0  0
  148.3743  137.8797  153.9089 N   0  0  0  0  0  0  0  0  0  0  0  0
  147.4179  137.1230  154.4626 C   0  0  0  0  0  0  0  0  0  0  0  0
  146.8929  137.3564  155.5511 O   0  0  0  0  0  0  0  0  0  0  0  0
  147.0852  136.0975  153.6695 N   0  0  0  0  0  0  0  0  0  0  0  0
  146.0336  135.1187  153.9509 C   0  0  1  0  0  0  0  0  0  0  0  0
  144.8593  135.1741  152.9435 C   0  0  1  0  0  0  0  0  0  0  0  0
  144.6664  136.3056  151.9647 C   0  0  0  0  0  0  0  0  0  0  0  0
  145.3463  135.7841  150.6950 C   0  0  0  0  0  0  0  0  0  0  0  0
  146.1994  134.7292  151.1371 O   0  0  0  0  0  0  0  0  0  0  0  0
  145.5352  134.0383  152.1937 C   0  0  1  0  0  0  0  0  0  0  0  0
  146.3868  133.6984  153.4352 C   0  0  0  0  0  0  0  0  0  0  0  0
  147.8596  133.3506  153.1790 C   0  0  0  0  0  0  0  0  0  0  0  0
  145.8195  132.5608  154.2901 C   0  0  0  0  0  0  0  0  0  0  0  0
  151.9660  139.0866  156.5749 C   0  0  0  0  0  0  0  0  0  0  0  0
  152.5153  139.6061  157.6939 N   0  0  0  0  0  0  0  0  0  0  0  0
  152.7680  142.4720  159.3313 H   0  0  0  0  0  0  0  0  0  0  0  0
  153.7913  141.0383  159.4314 H   0  0  0  0  0  0  0  0  0  0  0  0
  152.2092  141.0502  160.2223 H   0  0  0  0  0  0  0  0  0  0  0  0
  150.8508  142.5696  157.7337 H   0  0  0  0  0  0  0  0  0  0  0  0
  149.8453  141.5963  155.6612 H   0  0  0  0  0  0  0  0  0  0  0  0
  150.8358  139.6903  153.6684 H   0  0  0  0  0  0  0  0  0  0  0  0
  150.8263  138.1259  154.4343 H   0  0  0  0  0  0  0  0  0  0  0  0
  148.5063  139.1979  155.4850 H   0  0  0  0  0  0  0  0  0  0  0  0
  148.5235  139.9807  153.9244 H   0  0  0  0  0  0  0  0  0  0  0  0
  148.7361  137.6009  153.0087 H   0  0  0  0  0  0  0  0  0  0  0  0
  147.5699  135.9990  152.7893 H   0  0  0  0  0  0  0  0  0  0  0  0
  145.7005  135.1183  154.9905 H   0  0  0  0  0  0  0  0  0  0  0  0
  143.9328  134.8391  153.4128 H   0  0  0  0  0  0  0  0  0  0  0  0
  143.6125  136.5180  151.7841 H   0  0  0  0  0  0  0  0  0  0  0  0
  145.1259  137.2286  152.3119 H   0  0  0  0  0  0  0  0  0  0  0  0
  144.6061  135.3753  150.0059 H   0  0  0  0  0  0  0  0  0  0  0  0
  145.9074  136.5592  150.1727 H   0  0  0  0  0  0  0  0  0  0  0  0
  144.8514  133.2616  151.8476 H   0  0  0  0  0  0  0  0  0  0  0  0
  147.9654  132.3598  152.7362 H   0  0  0  0  0  0  0  0  0  0  0  0
  148.4370  133.3607  154.1039 H   0  0  0  0  0  0  0  0  0  0  0  0
  148.3364  134.0510  152.4931 H   0  0  0  0  0  0  0  0  0  0  0  0
  145.8821  131.6018  153.7749 H   0  0  0  0  0  0  0  0  0  0  0  0
  144.7694  132.7241  154.5340 H   0  0  0  0  0  0  0  0  0  0  0  0
  146.3566  132.4643  155.2341 H   0  0  0  0  0  0  0  0  0  0  0  0
  152.3155  138.1072  156.2838 H   0  0  0  0  0  0  0  0  0  0  0  0
  1  2  1  0  0  0  0
  1 23  1  0  0  0  0
  1 24  1  0  0  0  0
  1 25  1  0  0  0  0
  2 22  1  0  0  0  0
  2  3  2  0  0  0  0
  3  4  1  0  0  0  0
  3 26  1  0  0  0  0
  4  5  2  0  0  0  0
  4 27  1  0  0  0  0
  5  6  1  0  0  0  0
  5 21  1  0  0  0  0
  6  7  1  0  0  0  0
  6 28  1  0  0  0  0
  6 29  1  0  0  0  0
  7  8  1  0  0  0  0
  7 30  1  0  0  0  0
  7 31  1  0  0  0  0
  8  9  1  0  0  0  0
  8 32  1  0  0  0  0
  9 10  2  0  0  0  0
  9 11  1  0  0  0  0
 11 12  1  0  0  0  0
 11 33  1  0  0  0  0
 12 18  1  0  0  0  0
 12 13  1  0  0  0  0
 12 34  1  0  0  0  0
 13 17  1  0  0  0  0
 13 14  1  0  0  0  0
 13 35  1  0  0  0  0
 14 15  1  0  0  0  0
 14 36  1  0  0  0  0
 14 37  1  0  0  0  0
 15 16  1  0  0  0  0
 15 38  1  0  0  0  0
 15 39  1  0  0  0  0
 16 17  1  0  0  0  0
 17 18  1  0  0  0  0
 17 40  1  0  0  0  0
 18 19  1  0  0  0  0
 18 20  1  0  0  0  0
 19 41  1  0  0  0  0
 19 42  1  0  0  0  0
 19 43  1  0  0  0  0
 20 44  1  0  0  0  0
 20 45  1  0  0  0  0
 20 46  1  0  0  0  0
 21 22  2  0  0  0  0
 21 47  1  0  0  0  0
M  END
> <s_m_source_file>
AV-unprocessed.smi

> <i_m_source_file_index>
767

> <i_lp_mmshare_version>
43012

> <i_f3d_flags>
0

> <s_epik_input>
W0NIM11jMVtjSF1bY0hdYyhbY0hdbjEpW0NIMl1bQ0gyXVtOSF1DKD1PKVtOSF1bQ0BIXTJDKFtDSDNdKShbQ0gzXSlbQ0BIXShbQ0BASF0yMylPW0NIMl1bQ0gyXTM=

> <s_epik_cmdline>
J2VwaWtfcHl0aG9uJywgJy1waCcsICc3LjAnLCAnLXRuJywgJzgnLCAnLW1hJywgJzIwMCcsICctbWV0YWxfYmluZGluZycsICctaW1hZScsICc8aW5maWxlLm1hZT4nLCAnLW9tYWUnLCAnPG91dGZpbGUubWFlPic=

> <r_epik_Ionization_Penalty>
0.0567523

> <r_epik_Ionization_Penalty_Charging>
0

> <r_epik_Ionization_Penalty_Neutral>
0.0567523

> <r_epik_State_Penalty>
0.0489186

> <r_epik_Charging_Adjusted_Penalty>
0.0489186

> <i_epik_Tot_Q>
0

> <i_epik_Tot_abs_Q>
0

> <r_epik_Metal_State_Penalty>
0.044622

> <b_epik_Metal_Only>
0

> <s_lp_Force_Field>
OPLS_2005

> <r_lp_Energy>
33.3409

> <b_lp_Chiralities_Consistent>
1

> <s_lp_Variant>
AV-unprocessed.smi:767-6

> <Gold.Version>
5.8.1

> <Gold.Id.Protein>
6NUR|6NUR_protein|mol2

> <Gold.PLP.Fitness>
40.8326

> <Gold.PLP.PLP>
-33.2329

> <Gold.PLP.part.hbond>
-3.0000

> <Gold.PLP.part.metal>
0.0000

> <Gold.PLP.part.buried>
-3.7502

> <Gold.PLP.part.nonpolar>
-27.3076

> <Gold.PLP.part.repulsive>
0.2273

> <Gold.PLP.ligand.clash>
0.0000

> <Gold.PLP.ligand.torsion>
0.5810

> <Gold.PLP.Chemscore.Hbond>
2.8540

> <Gold.PLP.Chemscore.CHOScore>
0.0000

> <Gold.PLP.Chemscore.Metal>
0.0000

> <Gold.Chemscore.Hbonds>
donor molecule, donor type, donor heavy atom, donor atom, acceptor molecule, acceptor atom, score
      L1  H     8    32       P1  7948  0.93
      L1  H    11    33       P1  7948  1.00
      P1  H  7997  8009       L1    22  0.46

> <Gold.PLP.Chemscore.Internal.Correction>
0.1997

> <Gold.Rescore>
     Score         DG    S(hbond)    S(metal)    S(lipo)     H(rot)  DE(clash)    DE(int)     intcor
     19.16     -20.28       2.50        0.00      86.73       1.45       0.45       0.67       ----

> <Gold.Chemscore.Fitness>
19.1596

> <Gold.Chemscore.DG>
-20.2772

> <Gold.Chemscore.ZeroCoef>
-5.4800

> <Gold.Chemscore.Hbond>
2.5032

> <Gold.Chemscore.Metal>
0.0000

> <Gold.Chemscore.Lipo>
86.7328

> <Gold.Chemscore.Internal_Hbond>
0.0000

> <Gold.Chemscore.DEClash>
0.4496

> <Gold.Chemscore.DEInternal>
0.6680

> <Gold.Chemscore.Rot>
1.4497

> <Gold.Chemscore.Internal.Correction>
   9.000000E+99

> <Gold.Chemscore.Hbonds>
donor molecule, donor type, donor heavy atom, donor atom, acceptor molecule, acceptor atom, score
      L1  H     8    32       P1  7948  0.91
      L1  H    11    33       P1  7948  0.95
      P1  H  7997  8009       L1    22  0.01

> <Gold.Chemscore.Hbond.Weighted>
-8.3607

> <Gold.Chemscore.Metal.Weighted>
-0.0000

> <Gold.Chemscore.Lipo.Weighted>
-10.1477

> <Gold.Chemscore.Internal_Hbond.Weighted>
0.0000

> <Gold.Chemscore.DEClash.Weighted>
0.4496

> <Gold.Chemscore.DEInternal.Weighted>
0.6680

> <Gold.Chemscore.Rot.Weighted>
3.7112

> <Gold.Chemscore.Internal.Correction.Weighted>
   9.000000E+99

> <Gold.Protein.RotatedTorsions>
[ 6907 6896 6895 6894 ] final  130.94 input  -60.11 | X-H torsion
[ 7974 7965 7964 7962 ] final   50.31 input  175.53 | X-H torsion
[ 8008 7997 7996 7995 ] final  174.94 input   59.86 | X-H torsion
[ 10167 10162 10161 10158 ] final  108.91 input  -65.29 | X-H torsion
[ 10718 10713 10712 10709 ] final -146.39 input   66.30 | X-H torsion
[ 10763 10752 10751 10750 ] final -118.83 input  -60.55 | X-H torsion
[ 11005 11000 10999 10996 ] final    8.00 input  -57.11 | X-H torsion

> <Gold.Protein.ActiveResidues>
 VAL166  LYS551  ARG553  GLY616  TRP617  ASP618  TYR619  PRO620  LYS621  CYS622 
 ASP623  PHE694  ASN695  SER759  ASP760  ASP761  ALA762  ILE779  LEU786  VAL792 
 PHE793  MET794  SER795  GLU796  ALA797  LYS798  CYS799  TRP800  GLU811  SER814 

> <Gold.Protein.RotatedAtoms>
  152.3476  133.6141  159.5921 H   0  0  0  0  0  0  0  0  0  0  0  0  # atno 6907 bound_to 6896
  150.7517  133.9625  159.3529 H   0  0  0  0  0  0  0  0  0  0  0  0  # atno 6908 bound_to 6896
  151.7481  135.0840  160.0377 H   0  0  0  0  0  0  0  0  0  0  0  0  # atno 6909 bound_to 6896
  146.0024  139.4453  143.0007 H   0  0  0  0  0  0  0  0  0  0  0  0  # atno 7974 bound_to 7965
  156.0922  140.1421  156.9577 H   0  0  0  0  0  0  0  0  0  0  0  0  # atno 8008 bound_to 7997
  154.4649  140.0930  156.7040 H   0  0  0  0  0  0  0  0  0  0  0  0  # atno 8009 bound_to 7997
  155.4900  140.3448  155.4355 H   0  0  0  0  0  0  0  0  0  0  0  0  # atno 8010 bound_to 7997
  139.6809  144.7118  151.1518 H   0  0  0  0  0  0  0  0  0  0  0  0  # atno 10167 bound_to 10162
  156.3943  130.7901  151.2106 H   0  0  0  0  0  0  0  0  0  0  0  0  # atno 10718 bound_to 10713
  154.8599  135.4260  154.2201 H   0  0  0  0  0  0  0  0  0  0  0  0  # atno 10763 bound_to 10752
  153.3208  135.6982  153.7038 H   0  0  0  0  0  0  0  0  0  0  0  0  # atno 10764 bound_to 10752
  153.6094  135.3522  155.2947 H   0  0  0  0  0  0  0  0  0  0  0  0  # atno 10765 bound_to 10752
  140.5419  134.0366  155.7907 H   0  0  0  0  0  0  0  0  0  0  0  0  # atno 11005 bound_to 11000
  145.7468  140.9988  143.1272 LP  0  0  0  0  0  0  0  0  0  0  0  0  # atno 17320 bound_to 7965
  144.6924  139.9165  143.7466 LP  0  0  0  0  0  0  0  0  0  0  0  0  # atno 17321 bound_to 7965
  140.7651  143.5701  150.9005 LP  0  0  0  0  0  0  0  0  0  0  0  0  # atno 17342 bound_to 10162
  139.9373  143.6423  152.3062 LP  0  0  0  0  0  0  0  0  0  0  0  0  # atno 17343 bound_to 10162
  157.7501  131.0306  150.4145 LP  0  0  0  0  0  0  0  0  0  0  0  0  # atno 17370 bound_to 10713
  156.4412  130.3992  149.6696 LP  0  0  0  0  0  0  0  0  0  0  0  0  # atno 17371 bound_to 10713
  141.1222  133.9442  157.2707 LP  0  0  0  0  0  0  0  0  0  0  0  0  # atno 17394 bound_to 11000
  139.9499  135.0177  156.8964 LP  0  0  0  0  0  0  0  0  0  0  0  0  # atno 17395 bound_to 11000

$$$$
