AV-unprocessed.smi:1856|AV-procd|sdf|7536|dock4
  -GOLD-   22720 9253D 1   1.00000     0.00000
 Structure written by MMmdl.
 44 45  0  0  0  0  0  0  0  0  1 V2000
  146.1686  142.7783  153.8045 C   0  0  0  0  0  0  0  0  0  0  0  0
  147.4835  142.1950  154.3438 C   0  0  0  0  0  0  0  0  0  0  0  0
  147.9235  140.8732  153.6827 C   0  0  0  0  0  0  0  0  0  0  0  0
  148.7370  139.9562  154.6030 C   0  0  0  0  0  0  0  0  0  0  0  0
  148.2326  138.9381  155.0764 O   0  0  0  0  0  0  0  0  0  0  0  0
  150.0070  140.3222  154.8388 N   0  0  0  0  0  0  0  0  0  0  0  0
  150.9452  139.6007  155.6956 C   0  0  1  0  0  0  0  0  0  0  0  0
  152.1323  139.0831  154.8716 C   0  0  0  0  0  0  0  0  0  0  0  0
  151.3839  140.5219  156.8073 C   0  0  0  0  0  0  0  0  0  0  0  0
  151.0082  141.8033  156.8475 N   0  0  0  0  0  0  0  0  0  0  0  0
  151.6144  142.2669  157.9970 C   0  0  0  0  0  0  0  0  0  0  0  0
  151.6041  143.5517  158.5854 C   0  0  0  0  0  0  0  0  0  0  0  0
  152.3128  143.7953  159.7798 C   0  0  0  0  0  0  0  0  0  0  0  0
  153.0405  142.7600  160.4011 C   0  0  0  0  0  0  0  0  0  0  0  0
  153.0619  141.4723  159.8321 C   0  0  0  0  0  0  0  0  0  0  0  0
  152.3521  141.2338  158.6395 C   0  0  0  0  0  0  0  0  0  0  0  0
  152.1723  140.1115  157.8355 N   0  0  0  0  0  0  0  0  0  0  0  0
  152.7293  138.7879  158.0823 C   0  0  0  0  0  0  0  0  0  0  0  0
  152.0280  138.0476  159.2383 C   0  0  1  0  0  0  0  0  0  0  0  0
  150.5711  137.6610  158.9379 C   0  0  0  0  0  0  0  0  0  0  0  0
  152.7569  136.8730  159.5246 O   0  0  0  0  0  0  0  0  0  0  0  0
  145.9782  143.7605  154.2376 H   0  0  0  0  0  0  0  0  0  0  0  0
  145.3132  142.1483  154.0457 H   0  0  0  0  0  0  0  0  0  0  0  0
  146.2052  142.8966  152.7213 H   0  0  0  0  0  0  0  0  0  0  0  0
  148.2722  142.9323  154.1904 H   0  0  0  0  0  0  0  0  0  0  0  0
  147.4078  142.0641  155.4242 H   0  0  0  0  0  0  0  0  0  0  0  0
  147.0522  140.3260  153.3213 H   0  0  0  0  0  0  0  0  0  0  0  0
  148.5202  141.1057  152.7992 H   0  0  0  0  0  0  0  0  0  0  0  0
  150.3429  141.1733  154.4123 H   0  0  0  0  0  0  0  0  0  0  0  0
  150.4334  138.7293  156.1012 H   0  0  0  0  0  0  0  0  0  0  0  0
  152.8329  138.5334  155.5008 H   0  0  0  0  0  0  0  0  0  0  0  0
  152.6799  139.9002  154.4008 H   0  0  0  0  0  0  0  0  0  0  0  0
  151.7974  138.4085  154.0831 H   0  0  0  0  0  0  0  0  0  0  0  0
  151.0507  144.3517  158.1163 H   0  0  0  0  0  0  0  0  0  0  0  0
  152.2992  144.7814  160.2205 H   0  0  0  0  0  0  0  0  0  0  0  0
  153.5822  142.9548  161.3151 H   0  0  0  0  0  0  0  0  0  0  0  0
  153.6207  140.6796  160.3065 H   0  0  0  0  0  0  0  0  0  0  0  0
  152.6457  138.2042  157.1650 H   0  0  0  0  0  0  0  0  0  0  0  0
  153.7992  138.8814  158.2698 H   0  0  0  0  0  0  0  0  0  0  0  0
  152.0472  138.6692  160.1335 H   0  0  0  0  0  0  0  0  0  0  0  0
  149.9489  138.5428  158.7831 H   0  0  0  0  0  0  0  0  0  0  0  0
  150.1359  137.0999  159.7656 H   0  0  0  0  0  0  0  0  0  0  0  0
  150.5011  137.0433  158.0420 H   0  0  0  0  0  0  0  0  0  0  0  0
  153.6721  137.0970  159.5991 H   0  0  0  0  0  0  0  0  0  0  0  0
  1  2  1  0  0  0  0
  1 22  1  0  0  0  0
  1 23  1  0  0  0  0
  1 24  1  0  0  0  0
  2  3  1  0  0  0  0
  2 25  1  0  0  0  0
  2 26  1  0  0  0  0
  3  4  1  0  0  0  0
  3 27  1  0  0  0  0
  3 28  1  0  0  0  0
  4  5  2  0  0  0  0
  4  6  1  0  0  0  0
  6  7  1  0  0  0  0
  6 29  1  0  0  0  0
  7  8  1  0  0  0  0
  7  9  1  0  0  0  0
  7 30  1  0  0  0  0
  8 31  1  0  0  0  0
  8 32  1  0  0  0  0
  8 33  1  0  0  0  0
  9 17  1  0  0  0  0
  9 10  2  0  0  0  0
 10 11  1  0  0  0  0
 11 16  2  0  0  0  0
 11 12  1  0  0  0  0
 12 13  2  0  0  0  0
 12 34  1  0  0  0  0
 13 14  1  0  0  0  0
 13 35  1  0  0  0  0
 14 15  2  0  0  0  0
 14 36  1  0  0  0  0
 15 16  1  0  0  0  0
 15 37  1  0  0  0  0
 16 17  1  0  0  0  0
 17 18  1  0  0  0  0
 18 19  1  0  0  0  0
 18 38  1  0  0  0  0
 18 39  1  0  0  0  0
 19 20  1  0  0  0  0
 19 21  1  0  0  0  0
 19 40  1  0  0  0  0
 20 41  1  0  0  0  0
 20 42  1  0  0  0  0
 20 43  1  0  0  0  0
 21 44  1  0  0  0  0
M  END
> <s_m_source_file>
AV-unprocessed.smi

> <i_m_source_file_index>
1856

> <i_lp_mmshare_version>
43012

> <i_f3d_flags>
0

> <s_epik_input>
W0NIM11bQ0gyXVtDSDJdQyg9TylbTkhdW0NASF0oW0NIM10pYyhuMSluKFtDSDJdW0NASF0oW0NIM10pW09IXSljKGMxMilbY0hdW2NIXVtjSF1bY0hdMg==

> <s_epik_cmdline>
J2VwaWtfcHl0aG9uJywgJy1waCcsICc3LjAnLCAnLXRuJywgJzgnLCAnLW1hJywgJzIwMCcsICctbWV0YWxfYmluZGluZycsICctaW1hZScsICc8aW5maWxlLm1hZT4nLCAnLW9tYWUnLCAnPG91dGZpbGUubWFlPic=

> <r_epik_Ionization_Penalty>
0.134222

> <r_epik_Ionization_Penalty_Charging>
0

> <r_epik_Ionization_Penalty_Neutral>
0.134222

> <r_epik_State_Penalty>
0.123585

> <r_epik_Charging_Adjusted_Penalty>
0.123585

> <i_epik_Tot_Q>
0

> <i_epik_Tot_abs_Q>
0

> <r_epik_Metal_State_Penalty>
0.100548

> <b_epik_Metal_Only>
0

> <s_lp_Force_Field>
OPLS_2005

> <r_lp_Energy>
2.58859

> <b_lp_Chiralities_Consistent>
1

> <s_lp_Variant>
AV-unprocessed.smi:1856-4

> <Gold.Version>
5.8.1

> <Gold.Id.Protein>
6NUR|6NUR_protein|mol2

> <Gold.PLP.Fitness>
46.3647

> <Gold.PLP.PLP>
-44.4904

> <Gold.PLP.part.hbond>
-1.0000

> <Gold.PLP.part.metal>
0.0000

> <Gold.PLP.part.buried>
-4.2478

> <Gold.PLP.part.nonpolar>
-40.0187

> <Gold.PLP.part.repulsive>
0.5571

> <Gold.PLP.ligand.clash>
0.0000

> <Gold.PLP.ligand.torsion>
0.5800

> <Gold.PLP.Chemscore.Hbond>
1.0000

> <Gold.PLP.Chemscore.CHOScore>
0.0000

> <Gold.PLP.Chemscore.Metal>
0.0000

> <Gold.Chemscore.Hbonds>
donor molecule, donor type, donor heavy atom, donor atom, acceptor molecule, acceptor atom, score
      P1  H  6896  6909       L1    21  1.00

> <Gold.PLP.Chemscore.Internal.Correction>
0.0344

> <Gold.Rescore>
     Score         DG    S(hbond)    S(metal)    S(lipo)     H(rot)  DE(clash)    DE(int)     intcor
     14.94     -15.65       0.98        0.00     112.35       2.45       0.01       0.69       ----

> <Gold.Chemscore.Fitness>
14.9417

> <Gold.Chemscore.DG>
-15.6514

> <Gold.Chemscore.ZeroCoef>
-5.4800

> <Gold.Chemscore.Hbond>
0.9845

> <Gold.Chemscore.Metal>
0.0000

> <Gold.Chemscore.Lipo>
112.3462

> <Gold.Chemscore.Internal_Hbond>
0.0000

> <Gold.Chemscore.DEClash>
0.0149

> <Gold.Chemscore.DEInternal>
0.6948

> <Gold.Chemscore.Rot>
2.4459

> <Gold.Chemscore.Internal.Correction>
   9.000000E+99

> <Gold.Chemscore.Hbonds>
donor molecule, donor type, donor heavy atom, donor atom, acceptor molecule, acceptor atom, score
      P1  H  6896  6909       L1    21  0.93

> <Gold.Chemscore.Hbond.Weighted>
-3.2883

> <Gold.Chemscore.Metal.Weighted>
-0.0000

> <Gold.Chemscore.Lipo.Weighted>
-13.1445

> <Gold.Chemscore.Internal_Hbond.Weighted>
0.0000

> <Gold.Chemscore.DEClash.Weighted>
0.0149

> <Gold.Chemscore.DEInternal.Weighted>
0.6948

> <Gold.Chemscore.Rot.Weighted>
6.2614

> <Gold.Chemscore.Internal.Correction.Weighted>
   9.000000E+99

> <Gold.Protein.RotatedTorsions>
[ 6907 6896 6895 6894 ] final  141.35 input  -60.11 | X-H torsion
[ 7974 7965 7964 7962 ] final   53.09 input  175.53 | X-H torsion
[ 8008 7997 7996 7995 ] final -138.73 input   59.86 | X-H torsion
[ 10167 10162 10161 10158 ] final   59.04 input  -65.29 | X-H torsion
[ 10718 10713 10712 10709 ] final  165.15 input   66.30 | X-H torsion
[ 10763 10752 10751 10750 ] final -154.63 input  -60.55 | X-H torsion
[ 11005 11000 10999 10996 ] final   79.25 input  -57.11 | X-H torsion

> <Gold.Protein.ActiveResidues>
 VAL166  LYS551  ARG553  GLY616  TRP617  ASP618  TYR619  PRO620  LYS621  CYS622 
 ASP623  PHE694  ASN695  SER759  ASP760  ASP761  ALA762  ILE779  LEU786  VAL792 
 PHE793  MET794  SER795  GLU796  ALA797  LYS798  CYS799  TRP800  GLU811  SER814 

> <Gold.Protein.RotatedAtoms>
  152.2320  133.5066  159.5221 H   0  0  0  0  0  0  0  0  0  0  0  0  # atno 6907 bound_to 6896
  150.7040  134.1203  159.4041 H   0  0  0  0  0  0  0  0  0  0  0  0  # atno 6908 bound_to 6896
  151.9124  135.0333  160.0566 H   0  0  0  0  0  0  0  0  0  0  0  0  # atno 6909 bound_to 6896
  145.9747  139.4183  143.0169 H   0  0  0  0  0  0  0  0  0  0  0  0  # atno 7974 bound_to 7965
  155.4332  140.0526  157.3017 H   0  0  0  0  0  0  0  0  0  0  0  0  # atno 8008 bound_to 7997
  154.4851  140.2097  155.9632 H   0  0  0  0  0  0  0  0  0  0  0  0  # atno 8009 bound_to 7997
  156.1262  140.3180  155.8286 H   0  0  0  0  0  0  0  0  0  0  0  0  # atno 8010 bound_to 7997
  140.1807  144.4185  150.6617 H   0  0  0  0  0  0  0  0  0  0  0  0  # atno 10167 bound_to 10162
  157.0842  131.0400  151.2563 H   0  0  0  0  0  0  0  0  0  0  0  0  # atno 10718 bound_to 10713
  154.7845  135.3185  154.7917 H   0  0  0  0  0  0  0  0  0  0  0  0  # atno 10763 bound_to 10752
  153.8621  135.6852  153.4786 H   0  0  0  0  0  0  0  0  0  0  0  0  # atno 10764 bound_to 10752
  153.1492  135.4706  154.9549 H   0  0  0  0  0  0  0  0  0  0  0  0  # atno 10765 bound_to 10752
  139.9180  134.7828  156.1755 H   0  0  0  0  0  0  0  0  0  0  0  0  # atno 11005 bound_to 11000
  145.7856  140.9837  143.1076 LP  0  0  0  0  0  0  0  0  0  0  0  0  # atno 17320 bound_to 7965
  144.6845  139.9619  143.7480 LP  0  0  0  0  0  0  0  0  0  0  0  0  # atno 17321 bound_to 7965
  140.6521  143.2228  151.6052 LP  0  0  0  0  0  0  0  0  0  0  0  0  # atno 17342 bound_to 10162
  139.5297  144.2952  152.1119 LP  0  0  0  0  0  0  0  0  0  0  0  0  # atno 17343 bound_to 10162
  157.4775  130.7745  149.7382 LP  0  0  0  0  0  0  0  0  0  0  0  0  # atno 17370 bound_to 10713
  155.9915  130.3937  150.2981 LP  0  0  0  0  0  0  0  0  0  0  0  0  # atno 17371 bound_to 10713
  141.0674  133.6812  156.2072 LP  0  0  0  0  0  0  0  0  0  0  0  0  # atno 17394 bound_to 11000
  140.6562  134.5015  157.5581 LP  0  0  0  0  0  0  0  0  0  0  0  0  # atno 17395 bound_to 11000

$$$$
