AV-unprocessed.smi:3346|AV-procd|sdf|12908|dock5
  -GOLD-   2272019323D 1   1.00000     0.00000
 Structure written by MMmdl.
 48 49  0  0  0  0  0  0  0  0  2 V2000
  153.3037  141.4938  160.5730 C   0  0  0  0  0  0  0  0  0  0  0  0
  152.6224  142.6402  159.8100 C   0  0  0  0  0  0  0  0  0  0  0  0
  151.9259  143.5954  160.7940 C   0  0  0  0  0  0  0  0  0  0  0  0
  151.6567  142.0779  158.7422 C   0  0  0  0  0  0  0  0  0  0  0  0
  150.9442  143.1262  157.8535 C   0  0  1  0  0  0  0  0  0  0  0  0
  151.9315  144.0053  157.0697 C   0  0  0  0  0  0  0  0  0  0  0  0
  150.0290  142.4710  156.8926 N   0  3  0  0  0  0  0  0  0  0  0  0
  150.6603  141.5106  155.9627 C   0  0  0  0  0  0  0  0  0  0  0  0
  149.6115  140.8795  155.0602 C   0  0  0  0  0  0  0  0  0  0  0  0
  148.7764  141.7010  154.2732 C   0  0  0  0  0  0  0  0  0  0  0  0
  147.7989  141.1027  153.4576 C   0  0  0  0  0  0  0  0  0  0  0  0
  147.6927  139.6995  153.4617 C   0  0  0  0  0  0  0  0  0  0  0  0
  148.4824  138.9017  154.2107 N   0  0  0  0  0  0  0  0  0  0  0  0
  149.4262  139.4734  154.9964 C   0  0  0  0  0  0  0  0  0  0  0  0
  150.2369  138.6210  155.7653 N   0  0  0  0  0  0  0  0  0  0  0  0
  149.7847  137.2410  155.8982 C   0  0  0  0  0  0  0  0  0  0  0  0
  150.6555  136.5097  156.9345 C   0  0  0  0  0  0  0  0  0  0  0  0
  152.0265  136.5998  156.5552 O   0  0  0  0  0  0  0  0  0  0  0  0
  152.4802  137.9490  156.4836 C   0  0  0  0  0  0  0  0  0  0  0  0
  151.6531  138.7172  155.4384 C   0  0  0  0  0  0  0  0  0  0  0  0
  152.5748  140.8832  161.1071 H   0  0  0  0  0  0  0  0  0  0  0  0
  154.0157  141.8764  161.3050 H   0  0  0  0  0  0  0  0  0  0  0  0
  153.8532  140.8401  159.8950 H   0  0  0  0  0  0  0  0  0  0  0  0
  153.4158  143.1948  159.3099 H   0  0  0  0  0  0  0  0  0  0  0  0
  151.0888  143.1080  161.2949 H   0  0  0  0  0  0  0  0  0  0  0  0
  151.5457  144.4850  160.2928 H   0  0  0  0  0  0  0  0  0  0  0  0
  152.6187  143.9371  161.5639 H   0  0  0  0  0  0  0  0  0  0  0  0
  152.2061  141.3914  158.0960 H   0  0  0  0  0  0  0  0  0  0  0  0
  150.9131  141.4675  159.2546 H   0  0  0  0  0  0  0  0  0  0  0  0
  150.3380  143.7858  158.4747 H   0  0  0  0  0  0  0  0  0  0  0  0
  152.5433  144.6152  157.7341 H   0  0  0  0  0  0  0  0  0  0  0  0
  151.4023  144.6919  156.4077 H   0  0  0  0  0  0  0  0  0  0  0  0
  152.6013  143.4023  156.4556 H   0  0  0  0  0  0  0  0  0  0  0  0
  149.3584  141.9473  157.4369 H   0  0  0  0  0  0  0  0  0  0  0  0
  151.4121  142.0190  155.3588 H   0  0  0  0  0  0  0  0  0  0  0  0
  151.1805  140.7293  156.5170 H   0  0  0  0  0  0  0  0  0  0  0  0
  148.8789  142.7761  154.2938 H   0  0  0  0  0  0  0  0  0  0  0  0
  147.1446  141.7044  152.8441 H   0  0  0  0  0  0  0  0  0  0  0  0
  146.9537  139.2048  152.8489 H   0  0  0  0  0  0  0  0  0  0  0  0
  148.7380  137.2208  156.2040 H   0  0  0  0  0  0  0  0  0  0  0  0
  149.8526  136.7335  154.9349 H   0  0  0  0  0  0  0  0  0  0  0  0
  150.5147  136.9348  157.9296 H   0  0  0  0  0  0  0  0  0  0  0  0
  150.3706  135.4593  156.9923 H   0  0  0  0  0  0  0  0  0  0  0  0
  152.4022  138.4219  157.4642 H   0  0  0  0  0  0  0  0  0  0  0  0
  153.5350  137.9561  156.2086 H   0  0  0  0  0  0  0  0  0  0  0  0
  151.8232  138.2976  154.4457 H   0  0  0  0  0  0  0  0  0  0  0  0
  151.9685  139.7602  155.4021 H   0  0  0  0  0  0  0  0  0  0  0  0
  149.5313  143.1745  156.3660 H   0  0  0  0  0  0  0  0  0  0  0  0
  1  2  1  0  0  0  0
  1 21  1  0  0  0  0
  1 22  1  0  0  0  0
  1 23  1  0  0  0  0
  2  3  1  0  0  0  0
  2  4  1  0  0  0  0
  2 24  1  0  0  0  0
  3 25  1  0  0  0  0
  3 26  1  0  0  0  0
  3 27  1  0  0  0  0
  4  5  1  0  0  0  0
  4 28  1  0  0  0  0
  4 29  1  0  0  0  0
  5  6  1  0  0  0  0
  5  7  1  0  0  0  0
  5 30  1  0  0  0  0
  6 31  1  0  0  0  0
  6 32  1  0  0  0  0
  6 33  1  0  0  0  0
  7  8  1  0  0  0  0
  7 34  1  0  0  0  0
  7 48  1  0  0  0  0
  8  9  1  0  0  0  0
  8 35  1  0  0  0  0
  8 36  1  0  0  0  0
  9 14  1  0  0  0  0
  9 10  2  0  0  0  0
 10 11  1  0  0  0  0
 10 37  1  0  0  0  0
 11 12  2  0  0  0  0
 11 38  1  0  0  0  0
 12 13  1  0  0  0  0
 12 39  1  0  0  0  0
 13 14  2  0  0  0  0
 14 15  1  0  0  0  0
 15 20  1  0  0  0  0
 15 16  1  0  0  0  0
 16 17  1  0  0  0  0
 16 40  1  0  0  0  0
 16 41  1  0  0  0  0
 17 18  1  0  0  0  0
 17 42  1  0  0  0  0
 17 43  1  0  0  0  0
 18 19  1  0  0  0  0
 19 20  1  0  0  0  0
 19 44  1  0  0  0  0
 19 45  1  0  0  0  0
 20 46  1  0  0  0  0
 20 47  1  0  0  0  0
M  CHG  1   7   1
M  END
> <s_m_source_file>
AV-unprocessed.smi

> <i_m_source_file_index>
3346

> <i_lp_mmshare_version>
43012

> <i_f3d_flags>
0

> <s_epik_input>
W0NIM11bQ0hdKFtDSDNdKVtDSDJdW0NASF0oW0NIM10pW05IXVtDSDJdYzFbY0hdW2NIXVtjSF1uYzFOMltDSDJdW0NIMl1PW0NIMl1bQ0gyXTI=

> <s_epik_cmdline>
J2VwaWtfcHl0aG9uJywgJy1waCcsICc3LjAnLCAnLXRuJywgJzgnLCAnLW1hJywgJzIwMCcsICctbWV0YWxfYmluZGluZycsICctaW1hZScsICc8aW5maWxlLm1hZT4nLCAnLW9tYWUnLCAnPG91dGZpbGUubWFlPic=

> <r_lp_tautomer_probability>
1

> <r_epik_Ionization_Penalty>
0.0185938

> <r_epik_Ionization_Penalty_Charging>
0.0176519

> <r_epik_Ionization_Penalty_Neutral>
0.000941891

> <r_epik_State_Penalty>
0.0140027

> <r_epik_Charging_Adjusted_Penalty>
0.0316546

> <i_epik_Tot_Q>
1

> <i_epik_Tot_abs_Q>
1

> <r_epik_Metal_State_Penalty>
0.0141454

> <b_epik_Metal_Only>
0

> <s_lp_Force_Field>
OPLS_2005

> <r_lp_Energy>
23.7399

> <b_lp_Chiralities_Consistent>
1

> <s_lp_Variant>
AV-unprocessed.smi:3346-2

> <Gold.Version>
5.8.1

> <Gold.Id.Protein>
6NUR|6NUR_protein|mol2

> <Gold.PLP.Fitness>
51.3524

> <Gold.PLP.PLP>
-42.8764

> <Gold.PLP.part.hbond>
-1.9788

> <Gold.PLP.part.metal>
0.0000

> <Gold.PLP.part.buried>
-3.2586

> <Gold.PLP.part.nonpolar>
-37.7750

> <Gold.PLP.part.repulsive>
0.2630

> <Gold.PLP.ligand.clash>
0.0000

> <Gold.PLP.ligand.torsion>
0.1991

> <Gold.PLP.Chemscore.Hbond>
2.8800

> <Gold.PLP.Chemscore.CHOScore>
0.0000

> <Gold.PLP.Chemscore.Metal>
0.0000

> <Gold.Chemscore.Hbonds>
donor molecule, donor type, donor heavy atom, donor atom, acceptor molecule, acceptor atom, score
      L1  H     7    48       P1  8028  2.00
      P1  H 10752 10765       L1    18  0.63

> <Gold.PLP.Chemscore.Internal.Correction>
0.2343

> <Gold.Rescore>
     Score         DG    S(hbond)    S(metal)    S(lipo)     H(rot)  DE(clash)    DE(int)     intcor
     21.41     -22.34       1.89        0.00     125.83       1.62       0.40       0.53       ----

> <Gold.Chemscore.Fitness>
21.4137

> <Gold.Chemscore.DG>
-22.3439

> <Gold.Chemscore.ZeroCoef>
-5.4800

> <Gold.Chemscore.Hbond>
1.8867

> <Gold.Chemscore.Metal>
0.0000

> <Gold.Chemscore.Lipo>
125.8291

> <Gold.Chemscore.Internal_Hbond>
0.0000

> <Gold.Chemscore.DEClash>
0.4010

> <Gold.Chemscore.DEInternal>
0.5292

> <Gold.Chemscore.Rot>
1.6248

> <Gold.Chemscore.Internal.Correction>
   9.000000E+99

> <Gold.Chemscore.Hbonds>
donor molecule, donor type, donor heavy atom, donor atom, acceptor molecule, acceptor atom, score
      L1  H     7    48       P1  8028  1.00
      P1  H 10752 10765       L1    18  0.35

> <Gold.Chemscore.Hbond.Weighted>
-6.3015

> <Gold.Chemscore.Metal.Weighted>
-0.0000

> <Gold.Chemscore.Lipo.Weighted>
-14.7220

> <Gold.Chemscore.Internal_Hbond.Weighted>
0.0000

> <Gold.Chemscore.DEClash.Weighted>
0.4010

> <Gold.Chemscore.DEInternal.Weighted>
0.5292

> <Gold.Chemscore.Rot.Weighted>
4.1596

> <Gold.Chemscore.Internal.Correction.Weighted>
   9.000000E+99

> <Gold.Protein.RotatedTorsions>
[ 6907 6896 6895 6894 ] final -126.70 input  -60.11 | X-H torsion
[ 7974 7965 7964 7962 ] final   69.27 input  175.53 | X-H torsion
[ 8008 7997 7996 7995 ] final  174.94 input   59.86 | X-H torsion
[ 10167 10162 10161 10158 ] final   86.32 input  -65.29 | X-H torsion
[ 10718 10713 10712 10709 ] final  -57.89 input   66.30 | X-H torsion
[ 10763 10752 10751 10750 ] final -149.27 input  -60.55 | X-H torsion
[ 11005 11000 10999 10996 ] final    3.87 input  -57.11 | X-H torsion

> <Gold.Protein.ActiveResidues>
 VAL166  LYS551  ARG553  GLY616  TRP617  ASP618  TYR619  PRO620  LYS621  CYS622 
 ASP623  PHE694  ASN695  SER759  ASP760  ASP761  ALA762  ILE779  LEU786  VAL792 
 PHE793  MET794  SER795  GLU796  ALA797  LYS798  CYS799  TRP800  GLU811  SER814 

> <Gold.Protein.RotatedAtoms>
  150.8996  133.7136  159.2882 H   0  0  0  0  0  0  0  0  0  0  0  0  # atno 6907 bound_to 6896
  151.4659  135.1040  159.9747 H   0  0  0  0  0  0  0  0  0  0  0  0  # atno 6908 bound_to 6896
  152.4869  133.8348  159.7177 H   0  0  0  0  0  0  0  0  0  0  0  0  # atno 6909 bound_to 6896
  145.7925  139.2941  143.1202 H   0  0  0  0  0  0  0  0  0  0  0  0  # atno 7974 bound_to 7965
  156.0922  140.1421  156.9577 H   0  0  0  0  0  0  0  0  0  0  0  0  # atno 8008 bound_to 7997
  154.4649  140.0930  156.7039 H   0  0  0  0  0  0  0  0  0  0  0  0  # atno 8009 bound_to 7997
  155.4901  140.3448  155.4356 H   0  0  0  0  0  0  0  0  0  0  0  0  # atno 8010 bound_to 7997
  139.8888  144.6398  150.8762 H   0  0  0  0  0  0  0  0  0  0  0  0  # atno 10167 bound_to 10162
  156.1176  130.4169  150.0502 H   0  0  0  0  0  0  0  0  0  0  0  0  # atno 10718 bound_to 10713
  154.8187  135.3313  154.7102 H   0  0  0  0  0  0  0  0  0  0  0  0  # atno 10763 bound_to 10752
  153.7738  135.6923  153.4905 H   0  0  0  0  0  0  0  0  0  0  0  0  # atno 10764 bound_to 10752
  153.2026  135.4510  155.0233 H   0  0  0  0  0  0  0  0  0  0  0  0  # atno 10765 bound_to 10752
  140.5883  133.9948  155.8077 H   0  0  0  0  0  0  0  0  0  0  0  0  # atno 11005 bound_to 11000
  145.9962  140.8560  143.0041 LP  0  0  0  0  0  0  0  0  0  0  0  0  # atno 17320 bound_to 7965
  144.6780  140.2286  143.7358 LP  0  0  0  0  0  0  0  0  0  0  0  0  # atno 17321 bound_to 7965
  140.7730  143.3527  151.1982 LP  0  0  0  0  0  0  0  0  0  0  0  0  # atno 17342 bound_to 10162
  139.7129  143.9348  152.2955 LP  0  0  0  0  0  0  0  0  0  0  0  0  # atno 17343 bound_to 10162
  156.8449  130.9438  151.3629 LP  0  0  0  0  0  0  0  0  0  0  0  0  # atno 17370 bound_to 10713
  157.6360  130.8767  149.9359 LP  0  0  0  0  0  0  0  0  0  0  0  0  # atno 17371 bound_to 10713
  141.0951  133.9855  157.3173 LP  0  0  0  0  0  0  0  0  0  0  0  0  # atno 17394 bound_to 11000
  139.9286  135.0201  156.8320 LP  0  0  0  0  0  0  0  0  0  0  0  0  # atno 17395 bound_to 11000

$$$$
