AV-unprocessed.smi:1252|AV-procd|sdf|5267|dock5
  -GOLD-   22720 4383D 1   1.00000     0.00000
 Structure written by MMmdl.
 44 45  0  0  0  0  0  0  0  0  2 V2000
  146.1739  136.4214  158.4948 C   0  0  0  0  0  0  0  0  0  0  0  0
  147.3972  135.7704  159.1712 C   0  0  1  0  0  0  0  0  0  0  0  0
  148.7253  136.2591  158.5733 C   0  0  0  0  0  0  0  0  0  0  0  0
  149.7983  135.9480  159.0913 O   0  0  0  0  0  0  0  0  0  0  0  0
  148.6366  137.0311  157.4780 N   0  0  0  0  0  0  0  0  0  0  0  0
  149.7653  137.5943  156.7381 C   0  0  0  0  0  0  0  0  0  0  0  0
  149.8935  137.0468  155.2838 C   0  0  0  0  0  0  0  0  0  0  0  0
  151.2847  137.4143  154.7089 C   0  0  0  0  0  0  0  0  0  0  0  0
  149.8229  135.4990  155.2766 C   0  0  0  0  0  0  0  0  0  0  0  0
  148.8089  137.5974  154.3927 N   0  3  0  0  0  0  0  0  0  0  0  0
  147.4167  137.1921  154.7395 C   0  0  0  0  0  0  0  0  0  0  0  0
  146.4318  137.6555  153.6536 C   0  0  0  0  0  0  0  0  0  0  0  0
  146.5191  139.0648  153.5003 O   0  0  0  0  0  0  0  0  0  0  0  0
  147.8154  139.4670  153.0817 C   0  0  0  0  0  0  0  0  0  0  0  0
  148.8521  139.0667  154.1450 C   0  0  0  0  0  0  0  0  0  0  0  0
  147.3974  135.9607  160.6164 N   0  0  0  0  0  0  0  0  0  0  0  0
  147.2932  135.0628  161.5987 C   0  0  0  0  0  0  0  0  0  0  0  0
  147.3783  135.5822  162.8152 N   0  0  0  0  0  0  0  0  0  0  0  0
  147.5589  136.8966  162.4897 C   0  0  0  0  0  0  0  0  0  0  0  0
  147.5897  137.1765  161.1869 N   0  0  0  0  0  0  0  0  0  0  0  0
  146.1591  136.2106  157.4249 H   0  0  0  0  0  0  0  0  0  0  0  0
  146.1638  137.5053  158.6173 H   0  0  0  0  0  0  0  0  0  0  0  0
  145.2458  136.0345  158.9162 H   0  0  0  0  0  0  0  0  0  0  0  0
  147.3285  134.6959  158.9916 H   0  0  0  0  0  0  0  0  0  0  0  0
  147.7146  137.2357  157.1207 H   0  0  0  0  0  0  0  0  0  0  0  0
  149.6965  138.6824  156.7439 H   0  0  0  0  0  0  0  0  0  0  0  0
  150.6572  137.3521  157.3148 H   0  0  0  0  0  0  0  0  0  0  0  0
  152.0851  136.8666  155.2076 H   0  0  0  0  0  0  0  0  0  0  0  0
  151.5193  138.4712  154.8346 H   0  0  0  0  0  0  0  0  0  0  0  0
  151.3515  137.1784  153.6462 H   0  0  0  0  0  0  0  0  0  0  0  0
  150.7092  135.0502  155.7262 H   0  0  0  0  0  0  0  0  0  0  0  0
  149.7511  135.1085  154.2607 H   0  0  0  0  0  0  0  0  0  0  0  0
  148.9726  135.1200  155.8432 H   0  0  0  0  0  0  0  0  0  0  0  0
  147.3237  136.1120  154.8333 H   0  0  0  0  0  0  0  0  0  0  0  0
  147.1230  137.6252  155.6957 H   0  0  0  0  0  0  0  0  0  0  0  0
  146.6350  137.1581  152.7037 H   0  0  0  0  0  0  0  0  0  0  0  0
  145.4116  137.3952  153.9369 H   0  0  0  0  0  0  0  0  0  0  0  0
  148.0552  139.0203  152.1154 H   0  0  0  0  0  0  0  0  0  0  0  0
  147.8195  140.5482  152.9416 H   0  0  0  0  0  0  0  0  0  0  0  0
  148.6516  139.6118  155.0676 H   0  0  0  0  0  0  0  0  0  0  0  0
  149.8294  139.3858  153.7880 H   0  0  0  0  0  0  0  0  0  0  0  0
  147.1553  134.0064  161.4200 H   0  0  0  0  0  0  0  0  0  0  0  0
  147.6767  137.6695  163.2349 H   0  0  0  0  0  0  0  0  0  0  0  0
  148.9869  137.1764  153.4919 H   0  0  0  0  0  0  0  0  0  0  0  0
  1  2  1  0  0  0  0
  1 21  1  0  0  0  0
  1 22  1  0  0  0  0
  1 23  1  0  0  0  0
  2  3  1  0  0  0  0
  2 16  1  0  0  0  0
  2 24  1  0  0  0  0
  3  4  2  0  0  0  0
  3  5  1  0  0  0  0
  5  6  1  0  0  0  0
  5 25  1  0  0  0  0
  6  7  1  0  0  0  0
  6 26  1  0  0  0  0
  6 27  1  0  0  0  0
  7  8  1  0  0  0  0
  7  9  1  0  0  0  0
  7 10  1  0  0  0  0
  8 28  1  0  0  0  0
  8 29  1  0  0  0  0
  8 30  1  0  0  0  0
  9 31  1  0  0  0  0
  9 32  1  0  0  0  0
  9 33  1  0  0  0  0
 10 15  1  0  0  0  0
 10 11  1  0  0  0  0
 10 44  1  0  0  0  0
 11 12  1  0  0  0  0
 11 34  1  0  0  0  0
 11 35  1  0  0  0  0
 12 13  1  0  0  0  0
 12 36  1  0  0  0  0
 12 37  1  0  0  0  0
 13 14  1  0  0  0  0
 14 15  1  0  0  0  0
 14 38  1  0  0  0  0
 14 39  1  0  0  0  0
 15 40  1  0  0  0  0
 15 41  1  0  0  0  0
 16 20  1  0  0  0  0
 16 17  1  0  0  0  0
 17 18  2  0  0  0  0
 17 42  1  0  0  0  0
 18 19  1  0  0  0  0
 19 20  2  0  0  0  0
 19 43  1  0  0  0  0
M  CHG  1  10   1
M  END
> <s_m_source_file>
AV-unprocessed.smi

> <i_m_source_file_index>
1252

> <i_lp_mmshare_version>
43012

> <i_f3d_flags>
0

> <s_epik_input>
bjFbY0hdbltjSF1uMVtDQEhdKFtDSDNdKUMoPU8pW05IXVtDSDJdQyhbQ0gzXSkoW0NIM10pTjJbQ0gyXVtDSDJdT1tDSDJdW0NIMl0y

> <s_epik_cmdline>
J2VwaWtfcHl0aG9uJywgJy1waCcsICc3LjAnLCAnLXRuJywgJzgnLCAnLW1hJywgJzIwMCcsICctbWV0YWxfYmluZGluZycsICctaW1hZScsICc8aW5maWxlLm1hZT4nLCAnLW9tYWUnLCAnPG91dGZpbGUubWFlPic=

> <r_lp_tautomer_probability>
1

> <r_epik_Ionization_Penalty>
0.71326

> <r_epik_Ionization_Penalty_Charging>
0.713252

> <r_epik_Ionization_Penalty_Neutral>
8.22342e-06

> <r_epik_State_Penalty>
0.737017

> <r_epik_Charging_Adjusted_Penalty>
1.45027

> <i_epik_Tot_Q>
1

> <i_epik_Tot_abs_Q>
1

> <r_epik_Metal_State_Penalty>
0.73702

> <b_epik_Metal_Only>
0

> <s_lp_Force_Field>
OPLS_2005

> <r_lp_Energy>
31.3962

> <b_lp_Chiralities_Consistent>
1

> <s_lp_Variant>
AV-unprocessed.smi:1252-4

> <Gold.Version>
5.8.1

> <Gold.Id.Protein>
6NUR|6NUR_protein|mol2

> <Gold.PLP.Fitness>
36.4117

> <Gold.PLP.PLP>
-25.6700

> <Gold.PLP.part.hbond>
-4.0000

> <Gold.PLP.part.metal>
0.0000

> <Gold.PLP.part.buried>
-3.9574

> <Gold.PLP.part.nonpolar>
-17.8717

> <Gold.PLP.part.repulsive>
0.2262

> <Gold.PLP.ligand.clash>
0.6073

> <Gold.PLP.ligand.torsion>
0.4394

> <Gold.PLP.Chemscore.Hbond>
4.0000

> <Gold.PLP.Chemscore.CHOScore>
0.0000

> <Gold.PLP.Chemscore.Metal>
0.0000

> <Gold.Chemscore.Hbonds>
donor molecule, donor type, donor heavy atom, donor atom, acceptor molecule, acceptor atom, score
      L1  H    10    44       P1  7948  2.00
      P1  H  6896  6909       L1     4  1.00
      P1  H  6934  6947       L1    20  0.91

> <Gold.PLP.Chemscore.Internal.Correction>
0.2277

> <Gold.Rescore>
     Score         DG    S(hbond)    S(metal)    S(lipo)     H(rot)  DE(clash)    DE(int)     intcor
     10.60     -12.15       2.79        0.00      33.88       2.59       0.13       1.41       ----

> <Gold.Chemscore.Fitness>
10.6032

> <Gold.Chemscore.DG>
-12.1461

> <Gold.Chemscore.ZeroCoef>
-5.4800

> <Gold.Chemscore.Hbond>
2.7914

> <Gold.Chemscore.Metal>
0.0000

> <Gold.Chemscore.Lipo>
33.8797

> <Gold.Chemscore.Internal_Hbond>
0.0000

> <Gold.Chemscore.DEClash>
0.1338

> <Gold.Chemscore.DEInternal>
1.4091

> <Gold.Chemscore.Rot>
2.5864

> <Gold.Chemscore.Internal.Correction>
   9.000000E+99

> <Gold.Chemscore.Hbonds>
donor molecule, donor type, donor heavy atom, donor atom, acceptor molecule, acceptor atom, score
      L1  H    10    44       P1  7948  1.00
      P1  H  6896  6909       L1     4  0.99
      P1  H  6934  6947       L1    20  0.63

> <Gold.Chemscore.Hbond.Weighted>
-9.3233

> <Gold.Chemscore.Metal.Weighted>
-0.0000

> <Gold.Chemscore.Lipo.Weighted>
-3.9639

> <Gold.Chemscore.Internal_Hbond.Weighted>
0.0000

> <Gold.Chemscore.DEClash.Weighted>
0.1338

> <Gold.Chemscore.DEInternal.Weighted>
1.4091

> <Gold.Chemscore.Rot.Weighted>
6.6211

> <Gold.Chemscore.Internal.Correction.Weighted>
   9.000000E+99

> <Gold.Protein.RotatedTorsions>
[ 6907 6896 6895 6894 ] final   59.91 input  -60.11 | X-H torsion
[ 7974 7965 7964 7962 ] final  -99.23 input  175.53 | X-H torsion
[ 8008 7997 7996 7995 ] final  -30.32 input   59.86 | X-H torsion
[ 10167 10162 10161 10158 ] final   93.18 input  -65.29 | X-H torsion
[ 10718 10713 10712 10709 ] final -141.56 input   66.30 | X-H torsion
[ 10763 10752 10751 10750 ] final -115.69 input  -60.55 | X-H torsion
[ 11005 11000 10999 10996 ] final  129.43 input  -57.11 | X-H torsion

> <Gold.Protein.ActiveResidues>
 VAL166  LYS551  ARG553  GLY616  TRP617  ASP618  TYR619  PRO620  LYS621  CYS622 
 ASP623  PHE694  ASN695  SER759  ASP760  ASP761  ALA762  ILE779  LEU786  VAL792 
 PHE793  MET794  SER795  GLU796  ALA797  LYS798  CYS799  TRP800  GLU811  SER814 

> <Gold.Protein.RotatedAtoms>
  152.3956  134.6370  160.0090 H   0  0  0  0  0  0  0  0  0  0  0  0  # atno 6907 bound_to 6896
  151.6591  133.3312  159.3178 H   0  0  0  0  0  0  0  0  0  0  0  0  # atno 6908 bound_to 6896
  150.7864  134.6896  159.6534 H   0  0  0  0  0  0  0  0  0  0  0  0  # atno 6909 bound_to 6896
  145.3103  140.9398  143.2773 H   0  0  0  0  0  0  0  0  0  0  0  0  # atno 7974 bound_to 7965
  154.4255  140.1794  156.1389 H   0  0  0  0  0  0  0  0  0  0  0  0  # atno 8008 bound_to 7997
  156.0008  140.3360  155.6819 H   0  0  0  0  0  0  0  0  0  0  0  0  # atno 8009 bound_to 7997
  155.6246  140.0663  157.2658 H   0  0  0  0  0  0  0  0  0  0  0  0  # atno 8010 bound_to 7997
  139.8204  144.6733  150.9526 H   0  0  0  0  0  0  0  0  0  0  0  0  # atno 10167 bound_to 10162
  156.3355  130.7609  151.1735 H   0  0  0  0  0  0  0  0  0  0  0  0  # atno 10718 bound_to 10713
  154.8491  135.4372  154.1702 H   0  0  0  0  0  0  0  0  0  0  0  0  # atno 10763 bound_to 10752
  153.2818  135.6954  153.7384 H   0  0  0  0  0  0  0  0  0  0  0  0  # atno 10764 bound_to 10752
  153.6586  135.3439  155.3095 H   0  0  0  0  0  0  0  0  0  0  0  0  # atno 10765 bound_to 10752
  139.9615  134.9601  156.9148 H   0  0  0  0  0  0  0  0  0  0  0  0  # atno 11005 bound_to 11000
  144.9021  139.4636  143.6627 LP  0  0  0  0  0  0  0  0  0  0  0  0  # atno 17320 bound_to 7965
  146.3120  139.7781  142.9012 LP  0  0  0  0  0  0  0  0  0  0  0  0  # atno 17321 bound_to 7965
  140.7813  143.4097  151.1013 LP  0  0  0  0  0  0  0  0  0  0  0  0  # atno 17342 bound_to 10162
  139.7758  143.8428  152.3129 LP  0  0  0  0  0  0  0  0  0  0  0  0  # atno 17343 bound_to 10162
  157.7438  131.0469  150.4918 LP  0  0  0  0  0  0  0  0  0  0  0  0  # atno 17370 bound_to 10713
  156.5090  130.4135  149.6311 LP  0  0  0  0  0  0  0  0  0  0  0  0  # atno 17371 bound_to 10713
  140.5489  134.0646  155.7363 LP  0  0  0  0  0  0  0  0  0  0  0  0  # atno 17394 bound_to 11000
  141.1293  133.9330  157.2570 LP  0  0  0  0  0  0  0  0  0  0  0  0  # atno 17395 bound_to 11000

$$$$
