AV-unprocessed.smi:249|AV-procd|sdf|1902|dock9
  -GOLD-   2262020583D 1   1.00000     0.00000
 Structure written by MMmdl.
 64 67  0  0  0  0  0  0  0  0  2 V2000
  149.1743  130.1401  155.1500 C   0  0  0  0  0  0  0  0  0  0  0  0
  148.9019  129.6917  153.7047 C   0  0  0  0  0  0  0  0  0  0  0  0
  148.0279  130.6323  152.9443 N   0  3  2  0  0  0  0  0  0  0  0  0
  148.2650  132.0501  153.3419 C   0  0  0  0  0  0  0  0  0  0  0  0
  147.4670  133.0361  152.4789 C   0  0  0  0  0  0  0  0  0  0  0  0
  145.9628  132.7307  152.5593 C   0  0  1  0  0  0  0  0  0  0  0  0
  145.1301  133.6930  151.8252 N   0  0  0  0  0  0  0  0  0  0  0  0
  143.6992  133.4188  151.7563 C   0  0  0  0  0  0  0  0  0  0  0  0
  145.4232  135.0082  151.9646 C   0  0  0  0  0  0  0  0  0  0  0  0
  145.2451  135.8561  150.9173 N   0  0  0  0  0  0  0  0  0  0  0  0
  145.5321  137.1547  151.0516 C   0  0  0  0  0  0  0  0  0  0  0  0
  146.0008  137.7997  152.1223 N   0  0  0  0  0  0  0  0  0  0  0  0
  146.1891  136.9476  153.1704 C   0  0  0  0  0  0  0  0  0  0  0  0
  145.9285  135.5492  153.1769 C   0  0  0  0  0  0  0  0  0  0  0  0
  146.2427  135.0113  154.4187 N   0  0  0  0  0  0  0  0  0  0  0  0
  146.6684  136.0351  155.1084 C   0  0  0  0  0  0  0  0  0  0  0  0
  146.6634  137.2370  154.4365 N   0  0  0  0  0  0  0  0  0  0  0  0
  147.0805  138.5283  154.9533 C   0  0  0  0  0  0  0  0  0  0  0  0
  148.2716  139.1400  154.1752 C   0  0  1  0  0  0  0  0  0  0  0  0
  148.1559  140.6759  154.0217 C   0  0  0  0  0  0  0  0  0  0  0  0
  148.6179  141.1052  152.7573 O   0  0  0  0  0  0  0  0  0  0  0  0
  149.6285  138.7039  154.7833 C   0  0  2  0  0  0  0  0  0  0  0  0
  150.8503  139.3657  154.1703 C   0  0  0  0  0  0  0  0  0  0  0  0
  151.9722  138.4297  154.6042 C   0  0  0  0  0  0  0  0  0  0  0  0
  151.3959  137.1294  154.6244 O   0  0  0  0  0  0  0  0  0  0  0  0
  149.9756  137.2258  154.5695 C   0  0  0  0  0  0  0  0  0  0  0  0
  145.7417  131.2670  152.1384 C   0  0  0  0  0  0  0  0  0  0  0  0
  146.5693  130.2858  152.9968 C   0  0  1  0  0  0  0  0  0  0  0  0
  146.2644  128.8477  152.5275 C   0  0  0  0  0  0  0  0  0  0  0  0
  149.9357  129.5069  155.6060 H   0  0  0  0  0  0  0  0  0  0  0  0
  148.2905  130.0707  155.7831 H   0  0  0  0  0  0  0  0  0  0  0  0
  149.5394  131.1671  155.1830 H   0  0  0  0  0  0  0  0  0  0  0  0
  149.8787  129.6154  153.2333 H   0  0  0  0  0  0  0  0  0  0  0  0
  148.4713  128.6895  153.6908 H   0  0  0  0  0  0  0  0  0  0  0  0
  148.0068  132.1813  154.3941 H   0  0  0  0  0  0  0  0  0  0  0  0
  149.3179  132.3081  153.2430 H   0  0  0  0  0  0  0  0  0  0  0  0
  147.6698  134.0528  152.8162 H   0  0  0  0  0  0  0  0  0  0  0  0
  147.8168  132.9742  151.4478 H   0  0  0  0  0  0  0  0  0  0  0  0
  145.6620  132.8150  153.6048 H   0  0  0  0  0  0  0  0  0  0  0  0
  143.2187  134.0643  151.0198 H   0  0  0  0  0  0  0  0  0  0  0  0
  143.2148  133.5801  152.7197 H   0  0  0  0  0  0  0  0  0  0  0  0
  143.5240  132.3853  151.4570 H   0  0  0  0  0  0  0  0  0  0  0  0
  145.3635  137.7644  150.1760 H   0  0  0  0  0  0  0  0  0  0  0  0
  146.9948  135.9432  156.1344 H   0  0  0  0  0  0  0  0  0  0  0  0
  146.2247  139.2041  154.9292 H   0  0  0  0  0  0  0  0  0  0  0  0
  147.3356  138.3941  156.0046 H   0  0  0  0  0  0  0  0  0  0  0  0
  148.2316  138.7315  153.1643 H   0  0  0  0  0  0  0  0  0  0  0  0
  147.1240  141.0026  154.1468 H   0  0  0  0  0  0  0  0  0  0  0  0
  148.7261  141.1898  154.7957 H   0  0  0  0  0  0  0  0  0  0  0  0
  148.7868  140.3433  152.2239 H   0  0  0  0  0  0  0  0  0  0  0  0
  149.6308  138.9065  155.8557 H   0  0  0  0  0  0  0  0  0  0  0  0
  150.7735  139.3787  153.0821 H   0  0  0  0  0  0  0  0  0  0  0  0
  151.0062  140.3880  154.5157 H   0  0  0  0  0  0  0  0  0  0  0  0
  152.8362  138.4751  153.9412 H   0  0  0  0  0  0  0  0  0  0  0  0
  152.3042  138.6778  155.6129 H   0  0  0  0  0  0  0  0  0  0  0  0
  149.5122  136.5782  155.3144 H   0  0  0  0  0  0  0  0  0  0  0  0
  149.6517  136.8890  153.5837 H   0  0  0  0  0  0  0  0  0  0  0  0
  144.6820  131.0251  152.2275 H   0  0  0  0  0  0  0  0  0  0  0  0
  146.0054  131.1289  151.0887 H   0  0  0  0  0  0  0  0  0  0  0  0
  146.2398  130.3783  154.0331 H   0  0  0  0  0  0  0  0  0  0  0  0
  145.1896  128.6911  152.4293 H   0  0  0  0  0  0  0  0  0  0  0  0
  146.6113  128.0955  153.2351 H   0  0  0  0  0  0  0  0  0  0  0  0
  146.7145  128.6404  151.5560 H   0  0  0  0  0  0  0  0  0  0  0  0
  148.3013  130.5537  151.9751 H   0  0  0  0  0  0  0  0  0  0  0  0
  1  2  1  0  0  0  0
  1 30  1  0  0  0  0
  1 31  1  0  0  0  0
  1 32  1  0  0  0  0
  2  3  1  0  0  0  0
  2 33  1  0  0  0  0
  2 34  1  0  0  0  0
  3 28  1  0  0  0  0
  3  4  1  0  0  0  0
  3 64  1  0  0  0  0
  4  5  1  0  0  0  0
  4 35  1  0  0  0  0
  4 36  1  0  0  0  0
  5  6  1  0  0  0  0
  5 37  1  0  0  0  0
  5 38  1  0  0  0  0
  6  7  1  0  0  0  0
  6 27  1  0  0  0  0
  6 39  1  0  0  0  0
  7  8  1  0  0  0  0
  7  9  1  0  0  0  0
  8 40  1  0  0  0  0
  8 41  1  0  0  0  0
  8 42  1  0  0  0  0
  9 14  1  0  0  0  0
  9 10  2  0  0  0  0
 10 11  1  0  0  0  0
 11 12  2  0  0  0  0
 11 43  1  0  0  0  0
 12 13  1  0  0  0  0
 13 17  1  0  0  0  0
 13 14  2  0  0  0  0
 14 15  1  0  0  0  0
 15 16  2  0  0  0  0
 16 17  1  0  0  0  0
 16 44  1  0  0  0  0
 17 18  1  0  0  0  0
 18 19  1  0  0  0  0
 18 45  1  0  0  0  0
 18 46  1  0  0  0  0
 19 20  1  0  0  0  0
 19 22  1  0  0  0  0
 19 47  1  0  0  0  0
 20 21  1  0  0  0  0
 20 48  1  0  0  0  0
 20 49  1  0  0  0  0
 21 50  1  0  0  0  0
 22 26  1  0  0  0  0
 22 23  1  0  0  0  0
 22 51  1  0  0  0  0
 23 24  1  0  0  0  0
 23 52  1  0  0  0  0
 23 53  1  0  0  0  0
 24 25  1  0  0  0  0
 24 54  1  0  0  0  0
 24 55  1  0  0  0  0
 25 26  1  0  0  0  0
 26 56  1  0  0  0  0
 26 57  1  0  0  0  0
 27 28  1  0  0  0  0
 27 58  1  0  0  0  0
 27 59  1  0  0  0  0
 28 29  1  0  0  0  0
 28 60  1  0  0  0  0
 29 61  1  0  0  0  0
 29 62  1  0  0  0  0
 29 63  1  0  0  0  0
M  CHG  1   3   1
M  END
> <s_m_source_file>
AV-unprocessed.smi

> <i_m_source_file_index>
249

> <i_lp_mmshare_version>
43012

> <i_f3d_flags>
0

> <s_epik_input>
W0NIM11bQ0gyXU4xW0NIMl1bQ0gyXVtDQEhdKFtDSDJdW0NASF0xW0NIM10pTihbQ0gzXSljKG5bY0hdbjIpYyhjMjMpbltjSF1uM1tDSDJdW0NASF0oW0NIMl1bT0hdKVtDQEBIXTRbQ0gyXVtDSDJdT1tDSDJdNA==

> <s_epik_cmdline>
J2VwaWtfcHl0aG9uJywgJy1waCcsICc3LjAnLCAnLXRuJywgJzgnLCAnLW1hJywgJzIwMCcsICctbWV0YWxfYmluZGluZycsICctaW1hZScsICc8aW5maWxlLm1hZT4nLCAnLW9tYWUnLCAnPG91dGZpbGUubWFlPic=

> <r_lp_tautomer_probability>
1

> <r_epik_Ionization_Penalty>
0.00294688

> <r_epik_Ionization_Penalty_Charging>
0.00169971

> <r_epik_Ionization_Penalty_Neutral>
0.00124717

> <r_epik_State_Penalty>
-0

> <r_epik_Charging_Adjusted_Penalty>
0.00169971

> <i_epik_Tot_Q>
1

> <i_epik_Tot_abs_Q>
1

> <r_epik_Metal_State_Penalty>
-0

> <b_epik_Metal_Only>
0

> <s_lp_Force_Field>
OPLS_2005

> <r_lp_Energy>
53.6229

> <b_lp_Chiralities_Consistent>
1

> <s_lp_Variant>
AV-unprocessed.smi:249-5

> <Gold.Version>
5.8.1

> <Gold.Id.Protein>
6NUR|6NUR_protein|mol2

> <Gold.PLP.Fitness>
51.9530

> <Gold.PLP.PLP>
-40.7611

> <Gold.PLP.part.hbond>
-4.6147

> <Gold.PLP.part.metal>
0.0000

> <Gold.PLP.part.buried>
1.0803

> <Gold.PLP.part.nonpolar>
-37.2990

> <Gold.PLP.part.repulsive>
0.8411

> <Gold.PLP.ligand.clash>
0.0000

> <Gold.PLP.ligand.torsion>
2.0198

> <Gold.PLP.Chemscore.Hbond>
3.9200

> <Gold.PLP.Chemscore.CHOScore>
0.8581

> <Gold.PLP.Chemscore.Metal>
0.0000

> <Gold.Chemscore.Hbonds>
donor molecule, donor type, donor heavy atom, donor atom, acceptor molecule, acceptor atom, score
      L1  H     3    64       P1 10747  1.00
      L1  H    21    50       P1  7957  0.43
      P1  H  8011  8017       L1    21  1.00
      P1  H 10752 10764       L1    25  0.65
      L1  C    11    43       P1 10171  0.23

> <Gold.PLP.Chemscore.Internal.Correction>
0.8973

> <Gold.Rescore>
     Score         DG    S(hbond)    S(metal)    S(lipo)     H(rot)  DE(clash)    DE(int)     intcor
     14.18     -19.01       3.06        0.00      91.93       2.90       1.16       3.68       ----

> <Gold.Chemscore.Fitness>
14.1751

> <Gold.Chemscore.DG>
-19.0145

> <Gold.Chemscore.ZeroCoef>
-5.4800

> <Gold.Chemscore.Hbond>
3.0551

> <Gold.Chemscore.Metal>
0.0000

> <Gold.Chemscore.Lipo>
91.9332

> <Gold.Chemscore.Internal_Hbond>
0.0000

> <Gold.Chemscore.DEClash>
1.1569

> <Gold.Chemscore.DEInternal>
3.6826

> <Gold.Chemscore.Rot>
2.9006

> <Gold.Chemscore.Internal.Correction>
   9.000000E+99

> <Gold.Chemscore.Hbonds>
donor molecule, donor type, donor heavy atom, donor atom, acceptor molecule, acceptor atom, score
      L1  H     3    64       P1 10747  0.97
      L1  H    21    50       P1  7957  0.43
      P1  H  8011  8017       L1    21  0.67
      P1  H 10752 10764       L1    25  0.50

> <Gold.Chemscore.Hbond.Weighted>
-10.2040

> <Gold.Chemscore.Metal.Weighted>
-0.0000

> <Gold.Chemscore.Lipo.Weighted>
-10.7562

> <Gold.Chemscore.Internal_Hbond.Weighted>
0.0000

> <Gold.Chemscore.DEClash.Weighted>
1.1569

> <Gold.Chemscore.DEInternal.Weighted>
3.6826

> <Gold.Chemscore.Rot.Weighted>
7.4256

> <Gold.Chemscore.Internal.Correction.Weighted>
   9.000000E+99

> <Gold.Protein.RotatedTorsions>
[ 6907 6896 6895 6894 ] final   15.52 input  -60.11 | X-H torsion
[ 7974 7965 7964 7962 ] final -104.83 input  175.53 | X-H torsion
[ 8008 7997 7996 7995 ] final   67.82 input   59.86 | X-H torsion
[ 10167 10162 10161 10158 ] final  158.63 input  -65.29 | X-H torsion
[ 10718 10713 10712 10709 ] final  134.36 input   66.30 | X-H torsion
[ 10763 10752 10751 10750 ] final  -59.06 input  -60.55 | X-H torsion
[ 11005 11000 10999 10996 ] final  100.77 input  -57.11 | X-H torsion

> <Gold.Protein.ActiveResidues>
 VAL166  LYS551  ARG553  GLY616  TRP617  ASP618  TYR619  PRO620  LYS621  CYS622 
 ASP623  PHE694  ASN695  SER759  ASP760  ASP761  ALA762  ILE779  LEU786  VAL792 
 PHE793  MET794  SER795  GLU796  ALA797  LYS798  CYS799  TRP800  GLU811  SER814 

> <Gold.Protein.RotatedAtoms>
  151.8194  135.0656  160.0422 H   0  0  0  0  0  0  0  0  0  0  0  0  # atno 6907 bound_to 6896
  152.2962  133.5605  159.5597 H   0  0  0  0  0  0  0  0  0  0  0  0  # atno 6908 bound_to 6896
  150.7252  134.0273  159.3763 H   0  0  0  0  0  0  0  0  0  0  0  0  # atno 6909 bound_to 6896
  145.2382  140.9195  143.3165 H   0  0  0  0  0  0  0  0  0  0  0  0  # atno 7974 bound_to 7965
  155.6988  140.3495  155.4924 H   0  0  0  0  0  0  0  0  0  0  0  0  # atno 8008 bound_to 7997
  155.9459  140.1110  157.1039 H   0  0  0  0  0  0  0  0  0  0  0  0  # atno 8009 bound_to 7997
  154.4112  140.1203  156.4975 H   0  0  0  0  0  0  0  0  0  0  0  0  # atno 8010 bound_to 7997
  139.4828  144.4806  151.8449 H   0  0  0  0  0  0  0  0  0  0  0  0  # atno 10167 bound_to 10162
  157.4681  131.1078  150.9837 H   0  0  0  0  0  0  0  0  0  0  0  0  # atno 10718 bound_to 10713
  154.2479  135.6331  153.5230 H   0  0  0  0  0  0  0  0  0  0  0  0  # atno 10763 bound_to 10752
  152.9918  135.5558  154.5840 H   0  0  0  0  0  0  0  0  0  0  0  0  # atno 10764 bound_to 10752
  154.5360  135.2891  155.1113 H   0  0  0  0  0  0  0  0  0  0  0  0  # atno 10765 bound_to 10752
  139.8771  134.9154  156.4806 H   0  0  0  0  0  0  0  0  0  0  0  0  # atno 11005 bound_to 11000
  144.9613  139.3976  143.6354 LP  0  0  0  0  0  0  0  0  0  0  0  0  # atno 17320 bound_to 7965
  146.3335  139.8668  142.8847 LP  0  0  0  0  0  0  0  0  0  0  0  0  # atno 17321 bound_to 7965
  140.4282  144.2152  150.5887 LP  0  0  0  0  0  0  0  0  0  0  0  0  # atno 17342 bound_to 10162
  140.4806  143.2380  151.8960 LP  0  0  0  0  0  0  0  0  0  0  0  0  # atno 17343 bound_to 10162
  157.0611  130.5826  149.5386 LP  0  0  0  0  0  0  0  0  0  0  0  0  # atno 17370 bound_to 10713
  156.0060  130.5146  150.7830 LP  0  0  0  0  0  0  0  0  0  0  0  0  # atno 17371 bound_to 10713
  140.8730  133.7974  155.9385 LP  0  0  0  0  0  0  0  0  0  0  0  0  # atno 17394 bound_to 11000
  140.8933  134.2468  157.5082 LP  0  0  0  0  0  0  0  0  0  0  0  0  # atno 17395 bound_to 11000

$$$$
