AV-unprocessed.smi:278|AV-procd|sdf|2091|dock3
  -GOLD-   2262021373D 1   1.00000     0.00000
 Structure written by MMmdl.
 50 54  0  0  0  0  0  0  0  0  1 V2000
  153.5064  139.7723  158.0792 O   0  0  0  0  0  0  0  0  0  0  0  0
  152.1367  139.4102  157.6846 S   0  0  0  0  0  0  0  0  0  0  0  0
  151.4954  138.1999  158.2217 O   0  0  0  0  0  0  0  0  0  0  0  0
  151.0333  140.8481  157.9718 C   0  0  0  0  0  0  0  0  0  0  0  0
  150.7881  141.4846  156.5973 C   0  0  0  0  0  0  0  0  0  0  0  0
  150.8865  140.3972  155.5119 C   0  0  2  0  0  0  0  0  0  0  0  0
  149.6660  139.4730  155.4427 C   0  0  0  0  0  0  0  0  0  0  0  0
  150.1806  138.2018  154.9532 N   0  0  0  0  0  0  0  0  0  0  0  0
  149.3912  137.0978  154.8925 C   0  0  0  0  0  0  0  0  0  0  0  0
  148.0458  137.2607  154.7783 N   0  0  0  0  0  0  0  0  0  0  0  0
  147.2352  136.2007  154.7141 C   0  0  0  0  0  0  0  0  0  0  0  0
  147.5527  134.9055  154.7379 N   0  0  0  0  0  0  0  0  0  0  0  0
  148.9009  134.7313  154.8381 C   0  0  0  0  0  0  0  0  0  0  0  0
  149.8841  135.7594  154.9202 C   0  0  0  0  0  0  0  0  0  0  0  0
  151.1500  135.1870  155.0003 N   0  0  0  0  0  0  0  0  0  0  0  0
  150.9270  133.9015  154.9764 C   0  0  0  0  0  0  0  0  0  0  0  0
  149.6035  133.5409  154.8777 N   0  0  0  0  0  0  0  0  0  0  0  0
  149.0702  132.1916  154.8265 C   0  0  0  0  0  0  0  0  0  0  0  0
  148.5459  131.8207  153.4264 C   0  0  2  0  0  0  0  0  0  0  0  0
  149.2709  132.5095  152.4247 O   0  0  0  0  0  0  0  0  0  0  0  0
  147.0313  132.0679  153.2722 C   0  0  2  0  0  0  0  0  0  0  0  0
  146.2889  131.1704  152.2781 C   0  0  0  0  0  0  0  0  0  0  0  0
  145.0762  132.0191  151.9671 C   0  0  0  0  0  0  0  0  0  0  0  0
  145.6771  133.4223  151.9400 C   0  0  0  0  0  0  0  0  0  0  0  0
  146.7428  133.4100  152.8866 O   0  0  0  0  0  0  0  0  0  0  0  0
  151.6032  138.0843  155.2461 C   0  0  0  0  0  0  0  0  0  0  0  0
  152.0269  139.4335  155.8445 C   0  0  2  0  0  0  0  0  0  0  0  0
  151.0501  140.8418  154.5293 H   0  0  0  0  0  0  0  0  0  0  0  0
  152.9842  139.7789  155.4534 H   0  0  0  0  0  0  0  0  0  0  0  0
  150.1015  140.4759  158.3982 H   0  0  0  0  0  0  0  0  0  0  0  0
  151.4884  141.5364  158.6840 H   0  0  0  0  0  0  0  0  0  0  0  0
  149.8350  142.0132  156.5611 H   0  0  0  0  0  0  0  0  0  0  0  0
  151.5670  142.2257  156.4142 H   0  0  0  0  0  0  0  0  0  0  0  0
  149.2248  139.3277  156.4298 H   0  0  0  0  0  0  0  0  0  0  0  0
  148.8979  139.8750  154.7812 H   0  0  0  0  0  0  0  0  0  0  0  0
  146.1816  136.4226  154.6302 H   0  0  0  0  0  0  0  0  0  0  0  0
  151.7261  133.1765  155.0314 H   0  0  0  0  0  0  0  0  0  0  0  0
  149.8583  131.5012  155.1292 H   0  0  0  0  0  0  0  0  0  0  0  0
  148.2767  132.1044  155.5701 H   0  0  0  0  0  0  0  0  0  0  0  0
  148.7266  130.7576  153.2619 H   0  0  0  0  0  0  0  0  0  0  0  0
  149.1926  132.0293  151.6148 H   0  0  0  0  0  0  0  0  0  0  0  0
  146.5639  131.9349  154.2495 H   0  0  0  0  0  0  0  0  0  0  0  0
  146.8658  131.0126  151.3664 H   0  0  0  0  0  0  0  0  0  0  0  0
  146.0340  130.1950  152.6937 H   0  0  0  0  0  0  0  0  0  0  0  0
  144.5872  131.7458  151.0316 H   0  0  0  0  0  0  0  0  0  0  0  0
  144.3450  131.9385  152.7728 H   0  0  0  0  0  0  0  0  0  0  0  0
  146.0941  133.6369  150.9550 H   0  0  0  0  0  0  0  0  0  0  0  0
  144.9440  134.1952  152.1726 H   0  0  0  0  0  0  0  0  0  0  0  0
  151.8233  137.2519  155.9148 H   0  0  0  0  0  0  0  0  0  0  0  0
  152.1347  137.9080  154.3106 H   0  0  0  0  0  0  0  0  0  0  0  0
  1  2  2  0  0  0  0
  2 27  1  0  0  0  0
  2  3  2  0  0  0  0
  2  4  1  0  0  0  0
  4  5  1  0  0  0  0
  4 30  1  0  0  0  0
  4 31  1  0  0  0  0
  5  6  1  0  0  0  0
  5 32  1  0  0  0  0
  5 33  1  0  0  0  0
  6 28  1  0  0  0  0
  6 27  1  0  0  0  0
  6  7  1  0  0  0  0
  7  8  1  0  0  0  0
  7 34  1  0  0  0  0
  7 35  1  0  0  0  0
  8  9  1  0  0  0  0
  8 26  1  0  0  0  0
  9 14  1  0  0  0  0
  9 10  2  0  0  0  0
 10 11  1  0  0  0  0
 11 12  2  0  0  0  0
 11 36  1  0  0  0  0
 12 13  1  0  0  0  0
 13 17  1  0  0  0  0
 13 14  2  0  0  0  0
 14 15  1  0  0  0  0
 15 16  2  0  0  0  0
 16 17  1  0  0  0  0
 16 37  1  0  0  0  0
 17 18  1  0  0  0  0
 18 19  1  0  0  0  0
 18 38  1  0  0  0  0
 18 39  1  0  0  0  0
 19 20  1  0  0  0  0
 19 21  1  0  0  0  0
 19 40  1  0  0  0  0
 20 41  1  0  0  0  0
 21 25  1  0  0  0  0
 21 22  1  0  0  0  0
 21 42  1  0  0  0  0
 22 23  1  0  0  0  0
 22 43  1  0  0  0  0
 22 44  1  0  0  0  0
 23 24  1  0  0  0  0
 23 45  1  0  0  0  0
 23 46  1  0  0  0  0
 24 25  1  0  0  0  0
 24 47  1  0  0  0  0
 24 48  1  0  0  0  0
 26 27  1  0  0  0  0
 26 49  1  0  0  0  0
 26 50  1  0  0  0  0
 27 29  1  0  0  0  0
M  END
> <s_m_source_file>
AV-unprocessed.smi

> <i_m_source_file_index>
278

> <i_lp_mmshare_version>
43012

> <i_f3d_flags>
0

> <s_epik_input>
W0NIMl0xW0NIMl1TKD1PKSg9TylbQ0BASF0oW0NAQEhdMTIpW0NIMl1OKFtDSDJdMiljKG5bY0hdbjMpYyhjMzQpbltjSF1uNFtDSDJdW0NASF0oW09IXSlbQ0BASF01W0NIMl1bQ0gyXVtDSDJdTzU=

> <s_epik_cmdline>
J2VwaWtfcHl0aG9uJywgJy1waCcsICc3LjAnLCAnLXRuJywgJzgnLCAnLW1hJywgJzIwMCcsICctbWV0YWxfYmluZGluZycsICctaW1hZScsICc8aW5maWxlLm1hZT4nLCAnLW9tYWUnLCAnPG91dGZpbGUubWFlPic=

> <r_lp_tautomer_probability>
1

> <r_epik_Ionization_Penalty>
0.000636766

> <r_epik_Ionization_Penalty_Charging>
0

> <r_epik_Ionization_Penalty_Neutral>
0.000636766

> <r_epik_State_Penalty>
0.000329976

> <r_epik_Charging_Adjusted_Penalty>
0.000329976

> <i_epik_Tot_Q>
0

> <i_epik_Tot_abs_Q>
0

> <r_epik_Metal_State_Penalty>
-0

> <b_epik_Metal_Only>
0

> <s_lp_Force_Field>
OPLS_2005

> <r_lp_Energy>
50.4142

> <b_lp_Chiralities_Consistent>
1

> <s_lp_Variant>
AV-unprocessed.smi:278-5

> <Gold.Version>
5.8.1

> <Gold.Id.Protein>
6NUR|6NUR_protein|mol2

> <Gold.PLP.Fitness>
40.4912

> <Gold.PLP.PLP>
-33.7345

> <Gold.PLP.part.hbond>
-3.0000

> <Gold.PLP.part.metal>
0.0000

> <Gold.PLP.part.buried>
-1.1346

> <Gold.PLP.part.nonpolar>
-29.1058

> <Gold.PLP.part.repulsive>
0.4301

> <Gold.PLP.ligand.clash>
0.0000

> <Gold.PLP.ligand.torsion>
1.2626

> <Gold.PLP.Chemscore.Hbond>
3.0000

> <Gold.PLP.Chemscore.CHOScore>
0.0000

> <Gold.PLP.Chemscore.Metal>
0.0000

> <Gold.Chemscore.Hbonds>
donor molecule, donor type, donor heavy atom, donor atom, acceptor molecule, acceptor atom, score
      L1  H    20    41       P1 10747  1.00
      P1  H  7997  8008       L1     1  1.00
      P1  H 10752 10764       L1    15  0.91

> <Gold.PLP.Chemscore.Internal.Correction>
0.2819

> <Gold.Rescore>
     Score         DG    S(hbond)    S(metal)    S(lipo)     H(rot)  DE(clash)    DE(int)     intcor
     12.75     -17.13       2.43        0.00      77.00       2.13       0.21       4.17       ----

> <Gold.Chemscore.Fitness>
12.7547

> <Gold.Chemscore.DG>
-17.1340

> <Gold.Chemscore.ZeroCoef>
-5.4800

> <Gold.Chemscore.Hbond>
2.4281

> <Gold.Chemscore.Metal>
0.0000

> <Gold.Chemscore.Lipo>
76.9990

> <Gold.Chemscore.Internal_Hbond>
0.0000

> <Gold.Chemscore.DEClash>
0.2095

> <Gold.Chemscore.DEInternal>
4.1697

> <Gold.Chemscore.Rot>
2.1346

> <Gold.Chemscore.Internal.Correction>
   9.000000E+99

> <Gold.Chemscore.Hbonds>
donor molecule, donor type, donor heavy atom, donor atom, acceptor molecule, acceptor atom, score
      L1  H    20    41       P1 10747  0.65
      P1  H  7997  8008       L1     1  0.91
      P1  H 10752 10764       L1    15  0.67

> <Gold.Chemscore.Hbond.Weighted>
-8.1097

> <Gold.Chemscore.Metal.Weighted>
-0.0000

> <Gold.Chemscore.Lipo.Weighted>
-9.0089

> <Gold.Chemscore.Internal_Hbond.Weighted>
0.0000

> <Gold.Chemscore.DEClash.Weighted>
0.2095

> <Gold.Chemscore.DEInternal.Weighted>
4.1697

> <Gold.Chemscore.Rot.Weighted>
5.4646

> <Gold.Chemscore.Internal.Correction.Weighted>
   9.000000E+99

> <Gold.Protein.RotatedTorsions>
[ 6907 6896 6895 6894 ] final   50.84 input  -60.11 | X-H torsion
[ 7974 7965 7964 7962 ] final  -43.17 input  175.53 | X-H torsion
[ 8008 7997 7996 7995 ] final  -83.15 input   59.86 | X-H torsion
[ 10167 10162 10161 10158 ] final  161.31 input  -65.29 | X-H torsion
[ 10718 10713 10712 10709 ] final  -81.24 input   66.30 | X-H torsion
[ 10763 10752 10751 10750 ] final  -51.28 input  -60.55 | X-H torsion
[ 11005 11000 10999 10996 ] final   87.79 input  -57.11 | X-H torsion

> <Gold.Protein.ActiveResidues>
 VAL166  LYS551  ARG553  GLY616  TRP617  ASP618  TYR619  PRO620  LYS621  CYS622 
 ASP623  PHE694  ASN695  SER759  ASP760  ASP761  ALA762  ILE779  LEU786  VAL792 
 PHE793  MET794  SER795  GLU796  ALA797  LYS798  CYS799  TRP800  GLU811  SER814 

> <Gold.Protein.RotatedAtoms>
  152.3062  134.7552  160.0346 H   0  0  0  0  0  0  0  0  0  0  0  0  # atno 6907 bound_to 6896
  151.8048  133.3369  159.3546 H   0  0  0  0  0  0  0  0  0  0  0  0  # atno 6908 bound_to 6896
  150.7298  134.5649  159.5905 H   0  0  0  0  0  0  0  0  0  0  0  0  # atno 6909 bound_to 6896
  146.0044  140.7037  142.9254 H   0  0  0  0  0  0  0  0  0  0  0  0  # atno 7974 bound_to 7965
  154.6160  140.0623  156.9555 H   0  0  0  0  0  0  0  0  0  0  0  0  # atno 8008 bound_to 7997
  155.1895  140.3306  155.4343 H   0  0  0  0  0  0  0  0  0  0  0  0  # atno 8009 bound_to 7997
  156.2404  140.1883  156.6986 H   0  0  0  0  0  0  0  0  0  0  0  0  # atno 8010 bound_to 7997
  139.4848  144.4548  151.8782 H   0  0  0  0  0  0  0  0  0  0  0  0  # atno 10167 bound_to 10162
  156.0054  130.4598  150.3923 H   0  0  0  0  0  0  0  0  0  0  0  0  # atno 10718 bound_to 10713
  154.1241  135.6530  153.4909 H   0  0  0  0  0  0  0  0  0  0  0  0  # atno 10763 bound_to 10752
  153.0216  135.5277  154.7067 H   0  0  0  0  0  0  0  0  0  0  0  0  # atno 10764 bound_to 10752
  154.6283  135.2973  155.0216 H   0  0  0  0  0  0  0  0  0  0  0  0  # atno 10765 bound_to 10752
  139.8911  134.8445  156.2909 H   0  0  0  0  0  0  0  0  0  0  0  0  # atno 11005 bound_to 11000
  144.6930  140.3290  143.7219 LP  0  0  0  0  0  0  0  0  0  0  0  0  # atno 17320 bound_to 7965
  145.7438  139.1772  143.2361 LP  0  0  0  0  0  0  0  0  0  0  0  0  # atno 17321 bound_to 7965
  140.4007  144.2496  150.5893 LP  0  0  0  0  0  0  0  0  0  0  0  0  # atno 17342 bound_to 10162
  140.5059  143.2304  151.8608 LP  0  0  0  0  0  0  0  0  0  0  0  0  # atno 17343 bound_to 10162
  157.1997  131.0435  151.2657 LP  0  0  0  0  0  0  0  0  0  0  0  0  # atno 17370 bound_to 10713
  157.3987  130.7321  149.6751 LP  0  0  0  0  0  0  0  0  0  0  0  0  # atno 17371 bound_to 10713
  140.9977  133.7170  156.0911 LP  0  0  0  0  0  0  0  0  0  0  0  0  # atno 17394 bound_to 11000
  140.7540  134.4013  157.5537 LP  0  0  0  0  0  0  0  0  0  0  0  0  # atno 17395 bound_to 11000

$$$$
