AV-unprocessed.smi:50|AV-procd|sdf|494|dock4
  -GOLD-   2262016363D 1   1.00000     0.00000
 Structure written by MMmdl.
 43 44  0  0  0  0  0  0  0  0  1 V2000
  152.3064  143.1373  160.5852 C   0  0  0  0  0  0  0  0  0  0  0  0
  152.1277  142.9302  159.0668 C   0  0  0  0  0  0  0  0  0  0  0  0
  152.5035  144.2357  158.3400 C   0  0  0  0  0  0  0  0  0  0  0  0
  150.7093  142.4340  158.6568 C   0  0  1  0  0  0  0  0  0  0  0  0
  149.7903  143.5644  158.5242 N   0  0  0  0  0  0  0  0  0  0  0  0
  150.7228  141.5938  157.3672 C   0  0  0  0  0  0  0  0  0  0  0  0
  151.5184  140.6795  157.1423 O   0  0  0  0  0  0  0  0  0  0  0  0
  149.7368  141.9801  156.5410 O   0  0  0  0  0  0  0  0  0  0  0  0
  149.6086  141.3693  155.2679 C   0  0  0  0  0  0  0  0  0  0  0  0
  148.2243  141.6742  154.6877 C   0  0  0  0  0  0  0  0  0  0  0  0
  147.8833  140.6797  153.7288 O   0  0  0  0  0  0  0  0  0  0  0  0
  146.8630  139.8107  154.1045 C   0  0  0  0  0  0  0  0  0  0  0  0
  146.5497  138.9370  152.9855 N   0  0  0  0  0  0  0  0  0  0  0  0
  146.9705  139.0457  151.6839 C   0  0  0  0  0  0  0  0  0  0  0  0
  146.5332  138.0970  150.9039 N   0  0  0  0  0  0  0  0  0  0  0  0
  145.7627  137.2960  151.7418 C   0  0  0  0  0  0  0  0  0  0  0  0
  145.0267  136.0982  151.4539 C   0  0  0  0  0  0  0  0  0  0  0  0
  144.9241  135.5069  150.3812 O   0  0  0  0  0  0  0  0  0  0  0  0
  144.3649  135.6009  152.5837 N   0  0  0  0  0  0  0  0  0  0  0  0
  144.4171  136.1922  153.8437 C   0  0  0  0  0  0  0  0  0  0  0  0
  143.7222  135.5942  154.8202 N   0  0  0  0  0  0  0  0  0  0  0  0
  145.1024  137.2904  154.1093 N   0  0  0  0  0  0  0  0  0  0  0  0
  145.7597  137.8074  153.0252 C   0  0  0  0  0  0  0  0  0  0  0  0
  150.3299  141.8050  159.4611 H   0  0  0  0  0  0  0  0  0  0  0  0
  143.8195  134.7605  152.4600 H   0  0  0  0  0  0  0  0  0  0  0  0
  151.5506  143.8147  160.9817 H   0  0  0  0  0  0  0  0  0  0  0  0
  153.2836  143.5647  160.8118 H   0  0  0  0  0  0  0  0  0  0  0  0
  152.2408  142.1999  161.1378 H   0  0  0  0  0  0  0  0  0  0  0  0
  152.8508  142.1719  158.7621 H   0  0  0  0  0  0  0  0  0  0  0  0
  151.8157  145.0415  158.5930 H   0  0  0  0  0  0  0  0  0  0  0  0
  152.4913  144.1177  157.2567 H   0  0  0  0  0  0  0  0  0  0  0  0
  153.5074  144.5624  158.6122 H   0  0  0  0  0  0  0  0  0  0  0  0
  149.4325  143.6445  157.5833 H   0  0  0  0  0  0  0  0  0  0  0  0
  148.9909  143.4673  159.1336 H   0  0  0  0  0  0  0  0  0  0  0  0
  150.3940  141.7042  154.5886 H   0  0  0  0  0  0  0  0  0  0  0  0
  149.7204  140.2913  155.3917 H   0  0  0  0  0  0  0  0  0  0  0  0
  147.4818  141.6156  155.4835 H   0  0  0  0  0  0  0  0  0  0  0  0
  148.1815  142.6943  154.3024 H   0  0  0  0  0  0  0  0  0  0  0  0
  147.2298  139.1875  154.9206 H   0  0  0  0  0  0  0  0  0  0  0  0
  145.9744  140.3398  154.4537 H   0  0  0  0  0  0  0  0  0  0  0  0
  147.6085  139.8442  151.3344 H   0  0  0  0  0  0  0  0  0  0  0  0
  143.1960  134.7559  154.6192 H   0  0  0  0  0  0  0  0  0  0  0  0
  143.7214  135.9780  155.7542 H   0  0  0  0  0  0  0  0  0  0  0  0
  1  2  1  0  0  0  0
  1 26  1  0  0  0  0
  1 27  1  0  0  0  0
  1 28  1  0  0  0  0
  2  3  1  0  0  0  0
  2  4  1  0  0  0  0
  2 29  1  0  0  0  0
  3 30  1  0  0  0  0
  3 31  1  0  0  0  0
  3 32  1  0  0  0  0
  4 24  1  0  0  0  0
  4  5  1  0  0  0  0
  4  6  1  0  0  0  0
  5 33  1  0  0  0  0
  5 34  1  0  0  0  0
  6  7  2  0  0  0  0
  6  8  1  0  0  0  0
  8  9  1  0  0  0  0
  9 10  1  0  0  0  0
  9 35  1  0  0  0  0
  9 36  1  0  0  0  0
 10 11  1  0  0  0  0
 10 37  1  0  0  0  0
 10 38  1  0  0  0  0
 11 12  1  0  0  0  0
 12 13  1  0  0  0  0
 12 39  1  0  0  0  0
 12 40  1  0  0  0  0
 13 23  1  0  0  0  0
 13 14  1  0  0  0  0
 14 15  2  0  0  0  0
 14 41  1  0  0  0  0
 15 16  1  0  0  0  0
 16 23  2  0  0  0  0
 16 17  1  0  0  0  0
 17 18  2  0  0  0  0
 17 19  1  0  0  0  0
 19 25  1  0  0  0  0
 19 20  1  0  0  0  0
 20 21  1  0  0  0  0
 20 22  2  0  0  0  0
 21 42  1  0  0  0  0
 21 43  1  0  0  0  0
 22 23  1  0  0  0  0
M  END
> <s_m_source_file>
AV-unprocessed.smi

> <i_m_source_file_index>
50

> <i_lp_mmshare_version>
43012

> <i_f3d_flags>
0

> <s_epik_input>
W0NIM11bQ0hdKFtDSDNdKVtDQEhdKFtOSDJdKUMoPU8pT1tDSDJdW0NIMl1PW0NIMl1uKFtjSF1uMSljKGMxMiluYyhbTkgyXSlbbkhdYzI9Tw==

> <s_epik_cmdline>
J2VwaWtfcHl0aG9uJywgJy1waCcsICc3LjAnLCAnLXRuJywgJzgnLCAnLW1hJywgJzIwMCcsICctbWV0YWxfYmluZGluZycsICctaW1hZScsICc8aW5maWxlLm1hZT4nLCAnLW9tYWUnLCAnPG91dGZpbGUubWFlPic=

> <r_lp_tautomer_probability>
0.99994

> <r_epik_Ionization_Penalty>
0.704142

> <r_epik_Ionization_Penalty_Charging>
0.00148332

> <r_epik_Ionization_Penalty_Neutral>
0.702658

> <r_epik_State_Penalty>
0.725442

> <r_epik_Charging_Adjusted_Penalty>
0.726926

> <i_epik_Tot_Q>
0

> <i_epik_Tot_abs_Q>
0

> <r_epik_Metal_State_Penalty>
1.04557

> <b_epik_Metal_Only>
0

> <s_epik_Chemistry_Notes>
This compound has an ester and may undergo hydrolysis at high or low pH. This compound contains an acetal/aminal-like group ( X-CH(R)-Y where X, Y are N, S, or O) that may be acid/base labile, releasing an aldehyde.

> <s_lp_Force_Field>
OPLS_2005

> <r_lp_Energy>
2.75991

> <b_lp_Chiralities_Consistent>
1

> <s_lp_Variant>
AV-unprocessed.smi:50-4

> <Gold.Version>
5.8.1

> <Gold.Id.Protein>
6NUR|6NUR_protein|mol2

> <Gold.PLP.Fitness>
41.1328

> <Gold.PLP.PLP>
-35.6268

> <Gold.PLP.part.hbond>
-2.9339

> <Gold.PLP.part.metal>
0.0000

> <Gold.PLP.part.buried>
-3.7029

> <Gold.PLP.part.nonpolar>
-35.1772

> <Gold.PLP.part.repulsive>
4.6270

> <Gold.PLP.ligand.clash>
0.0000

> <Gold.PLP.ligand.torsion>
1.4577

> <Gold.PLP.Chemscore.Hbond>
1.7500

> <Gold.PLP.Chemscore.CHOScore>
1.0000

> <Gold.PLP.Chemscore.Metal>
0.0000

> <Gold.Chemscore.Hbonds>
donor molecule, donor type, donor heavy atom, donor atom, acceptor molecule, acceptor atom, score
      L1  H     5    33       P1  8028  0.46
      P1  H  7954  7966       L1    15  0.85
      L1  C    14    41       P1  7957  0.85

> <Gold.PLP.Chemscore.Internal.Correction>
0.1714

> <Gold.Rescore>
     Score         DG    S(hbond)    S(metal)    S(lipo)     H(rot)  DE(clash)    DE(int)     intcor
      1.77      -5.48       1.71        0.00      55.17       4.75       1.56       2.15       ----

> <Gold.Chemscore.Fitness>
1.7657

> <Gold.Chemscore.DG>
-5.4753

> <Gold.Chemscore.ZeroCoef>
-5.4800

> <Gold.Chemscore.Hbond>
1.7067

> <Gold.Chemscore.Metal>
0.0000

> <Gold.Chemscore.Lipo>
55.1730

> <Gold.Chemscore.Internal_Hbond>
0.0000

> <Gold.Chemscore.DEClash>
1.5606

> <Gold.Chemscore.DEInternal>
2.1490

> <Gold.Chemscore.Rot>
4.7501

> <Gold.Chemscore.Internal.Correction>
   9.000000E+99

> <Gold.Chemscore.Hbonds>
donor molecule, donor type, donor heavy atom, donor atom, acceptor molecule, acceptor atom, score
      L1  H     5    33       P1  8028  0.20
      P1  H  7954  7966       L1    15  0.14

> <Gold.Chemscore.Hbond.Weighted>
-5.7003

> <Gold.Chemscore.Metal.Weighted>
-0.0000

> <Gold.Chemscore.Lipo.Weighted>
-6.4552

> <Gold.Chemscore.Internal_Hbond.Weighted>
0.0000

> <Gold.Chemscore.DEClash.Weighted>
1.5606

> <Gold.Chemscore.DEInternal.Weighted>
2.1490

> <Gold.Chemscore.Rot.Weighted>
12.1603

> <Gold.Chemscore.Internal.Correction.Weighted>
   9.000000E+99

> <Gold.Protein.RotatedTorsions>
[ 6907 6896 6895 6894 ] final  100.37 input  -60.11 | X-H torsion
[ 7974 7965 7964 7962 ] final   70.69 input  175.53 | X-H torsion
[ 8008 7997 7996 7995 ] final   92.27 input   59.86 | X-H torsion
[ 10167 10162 10161 10158 ] final  122.31 input  -65.29 | X-H torsion
[ 10718 10713 10712 10709 ] final   26.29 input   66.30 | X-H torsion
[ 10763 10752 10751 10750 ] final -127.15 input  -60.55 | X-H torsion
[ 11005 11000 10999 10996 ] final   72.64 input  -57.11 | X-H torsion

> <Gold.Protein.ActiveResidues>
 VAL166  LYS551  ARG553  GLY616  TRP617  ASP618  TYR619  PRO620  LYS621  CYS622 
 ASP623  PHE694  ASN695  SER759  ASP760  ASP761  ALA762  ILE779  LEU786  VAL792 
 PHE793  MET794  SER795  GLU796  ALA797  LYS798  CYS799  TRP800  GLU811  SER814 

> <Gold.Protein.RotatedAtoms>
  152.5373  134.0287  159.8014 H   0  0  0  0  0  0  0  0  0  0  0  0  # atno 6907 bound_to 6896
  151.0461  133.5656  159.2654 H   0  0  0  0  0  0  0  0  0  0  0  0  # atno 6908 bound_to 6896
  151.2608  135.0661  159.9151 H   0  0  0  0  0  0  0  0  0  0  0  0  # atno 6909 bound_to 6896
  145.7750  139.2861  143.1299 H   0  0  0  0  0  0  0  0  0  0  0  0  # atno 7974 bound_to 7965
  156.0335  140.3327  155.7165 H   0  0  0  0  0  0  0  0  0  0  0  0  # atno 8008 bound_to 7997
  155.5850  140.0640  157.2791 H   0  0  0  0  0  0  0  0  0  0  0  0  # atno 8009 bound_to 7997
  154.4363  140.1837  156.1004 H   0  0  0  0  0  0  0  0  0  0  0  0  # atno 8010 bound_to 7997
  139.5866  144.7009  151.3393 H   0  0  0  0  0  0  0  0  0  0  0  0  # atno 10167 bound_to 10162
  157.2049  130.6907  149.6204 H   0  0  0  0  0  0  0  0  0  0  0  0  # atno 10718 bound_to 10713
  154.8750  135.3971  154.3546 H   0  0  0  0  0  0  0  0  0  0  0  0  # atno 10763 bound_to 10752
  153.4327  135.7025  153.6225 H   0  0  0  0  0  0  0  0  0  0  0  0  # atno 10764 bound_to 10752
  153.4840  135.3763  155.2426 H   0  0  0  0  0  0  0  0  0  0  0  0  # atno 10765 bound_to 10752
  139.9480  134.7277  156.0931 H   0  0  0  0  0  0  0  0  0  0  0  0  # atno 11005 bound_to 11000
  146.0131  140.8417  142.9960 LP  0  0  0  0  0  0  0  0  0  0  0  0  # atno 17320 bound_to 7965
  144.6806  140.2519  143.7330 LP  0  0  0  0  0  0  0  0  0  0  0  0  # atno 17321 bound_to 7965
  140.7137  143.7323  150.7614 LP  0  0  0  0  0  0  0  0  0  0  0  0  # atno 17342 bound_to 10162
  140.0869  143.4915  152.2500 LP  0  0  0  0  0  0  0  0  0  0  0  0  # atno 17343 bound_to 10162
  155.9696  130.4570  150.5948 LP  0  0  0  0  0  0  0  0  0  0  0  0  # atno 17370 bound_to 10713
  157.3731  131.0769  151.1541 LP  0  0  0  0  0  0  0  0  0  0  0  0  # atno 17371 bound_to 10713
  141.1136  133.6635  156.3039 LP  0  0  0  0  0  0  0  0  0  0  0  0  # atno 17394 bound_to 11000
  140.5787  134.5768  157.5474 LP  0  0  0  0  0  0  0  0  0  0  0  0  # atno 17395 bound_to 11000

$$$$
