AV-unprocessed.smi:1032|AV-procd|sdf|4485|dock6
  -GOLD-   22720 2463D 1   1.00000     0.00000
 Structure written by MMmdl.
 46 47  0  0  0  0  0  0  0  0  2 V2000
  151.3050  140.7292  157.0839 C   0  0  0  0  0  0  0  0  0  0  0  0
  151.4770  141.0043  155.5798 C   0  0  2  0  0  0  0  0  0  0  0  0
  150.2548  141.7037  154.9572 C   0  0  0  0  0  0  0  0  0  0  0  0
  149.0621  140.7471  154.7791 C   0  0  0  0  0  0  0  0  0  0  0  0
  149.4457  139.5521  153.9818 N   0  3  2  0  0  0  0  0  0  0  0  0
  148.2986  138.6609  153.6697 C   0  0  0  0  0  0  0  0  0  0  0  0
  146.9861  139.4407  153.4497 C   0  0  1  0  0  0  0  0  0  0  0  0
  147.1718  140.2426  152.2997 O   0  0  0  0  0  0  0  0  0  0  0  0
  145.7991  138.4890  153.1948 C   0  0  0  0  0  0  0  0  0  0  0  0
  146.2190  137.2536  152.5412 N   0  0  0  0  0  0  0  0  0  0  0  0
  145.3946  136.2735  152.1447 C   0  0  0  0  0  0  0  0  0  0  0  0
  144.1763  136.3052  152.3157 O   0  0  0  0  0  0  0  0  0  0  0  0
  146.0760  135.2664  151.5714 N   0  0  0  0  0  0  0  0  0  0  0  0
  145.5728  134.0715  150.9884 C   0  0  0  0  0  0  0  0  0  0  0  0
  146.5035  133.0782  150.6194 C   0  0  0  0  0  0  0  0  0  0  0  0
  146.0310  131.8935  150.0200 C   0  0  0  0  0  0  0  0  0  0  0  0
  144.7258  131.6589  149.7689 N   0  0  0  0  0  0  0  0  0  0  0  0
  143.8376  132.6163  150.1102 C   0  0  0  0  0  0  0  0  0  0  0  0
  144.2038  133.8354  150.7151 C   0  0  0  0  0  0  0  0  0  0  0  0
  150.5777  138.8193  154.6045 C   0  0  0  0  0  0  0  0  0  0  0  0
  151.8046  139.7329  154.7761 C   0  0  0  0  0  0  0  0  0  0  0  0
  150.4741  140.0545  157.2880 H   0  0  0  0  0  0  0  0  0  0  0  0
  151.1201  141.6542  157.6305 H   0  0  0  0  0  0  0  0  0  0  0  0
  152.2054  140.2787  157.5026 H   0  0  0  0  0  0  0  0  0  0  0  0
  152.3273  141.6815  155.4865 H   0  0  0  0  0  0  0  0  0  0  0  0
  149.9604  142.5612  155.5636 H   0  0  0  0  0  0  0  0  0  0  0  0
  150.5321  142.1054  153.9816 H   0  0  0  0  0  0  0  0  0  0  0  0
  148.6789  140.4323  155.7506 H   0  0  0  0  0  0  0  0  0  0  0  0
  148.2525  141.2849  154.2868 H   0  0  0  0  0  0  0  0  0  0  0  0
  148.5103  138.0839  152.7677 H   0  0  0  0  0  0  0  0  0  0  0  0
  148.1848  137.9312  154.4729 H   0  0  0  0  0  0  0  0  0  0  0  0
  146.7689  140.0776  154.3074 H   0  0  0  0  0  0  0  0  0  0  0  0
  148.0030  140.0180  151.9074 H   0  0  0  0  0  0  0  0  0  0  0  0
  145.2368  138.2891  154.1090 H   0  0  0  0  0  0  0  0  0  0  0  0
  145.0957  138.9623  152.5093 H   0  0  0  0  0  0  0  0  0  0  0  0
  147.2073  137.1436  152.3663 H   0  0  0  0  0  0  0  0  0  0  0  0
  147.0821  135.3469  151.5856 H   0  0  0  0  0  0  0  0  0  0  0  0
  147.5610  133.2142  150.7939 H   0  0  0  0  0  0  0  0  0  0  0  0
  146.7211  131.1141  149.7324 H   0  0  0  0  0  0  0  0  0  0  0  0
  142.8014  132.4079  149.8881 H   0  0  0  0  0  0  0  0  0  0  0  0
  143.4366  134.5598  150.9404 H   0  0  0  0  0  0  0  0  0  0  0  0
  150.2653  138.4078  155.5652 H   0  0  0  0  0  0  0  0  0  0  0  0
  150.8558  137.9724  153.9761 H   0  0  0  0  0  0  0  0  0  0  0  0
  152.1710  140.0194  153.7892 H   0  0  0  0  0  0  0  0  0  0  0  0
  152.6180  139.1838  155.2515 H   0  0  0  0  0  0  0  0  0  0  0  0
  149.7874  139.8868  153.0915 H   0  0  0  0  0  0  0  0  0  0  0  0
  1  2  1  0  0  0  0
  1 22  1  0  0  0  0
  1 23  1  0  0  0  0
  1 24  1  0  0  0  0
  2 21  1  0  0  0  0
  2  3  1  0  0  0  0
  2 25  1  0  0  0  0
  3  4  1  0  0  0  0
  3 26  1  0  0  0  0
  3 27  1  0  0  0  0
  4  5  1  0  0  0  0
  4 28  1  0  0  0  0
  4 29  1  0  0  0  0
  5  6  1  0  0  0  0
  5 20  1  0  0  0  0
  5 46  1  0  0  0  0
  6  7  1  0  0  0  0
  6 30  1  0  0  0  0
  6 31  1  0  0  0  0
  7  8  1  0  0  0  0
  7  9  1  0  0  0  0
  7 32  1  0  0  0  0
  8 33  1  0  0  0  0
  9 10  1  0  0  0  0
  9 34  1  0  0  0  0
  9 35  1  0  0  0  0
 10 11  1  0  0  0  0
 10 36  1  0  0  0  0
 11 12  2  0  0  0  0
 11 13  1  0  0  0  0
 13 14  1  0  0  0  0
 13 37  1  0  0  0  0
 14 19  1  0  0  0  0
 14 15  2  0  0  0  0
 15 16  1  0  0  0  0
 15 38  1  0  0  0  0
 16 17  2  0  0  0  0
 16 39  1  0  0  0  0
 17 18  1  0  0  0  0
 18 19  2  0  0  0  0
 18 40  1  0  0  0  0
 19 41  1  0  0  0  0
 20 21  1  0  0  0  0
 20 42  1  0  0  0  0
 20 43  1  0  0  0  0
 21 44  1  0  0  0  0
 21 45  1  0  0  0  0
M  CHG  1   5   1
M  END
> <s_m_source_file>
AV-unprocessed.smi

> <i_m_source_file_index>
1032

> <i_lp_mmshare_version>
43012

> <i_f3d_flags>
0

> <s_epik_input>
W0NIM11bQ0hdMVtDSDJdW0NIMl1OKFtDSDJdW0NIMl0xKVtDSDJdW0NASF0oW09IXSlbQ0gyXVtOSF1DKD1PKVtOSF1jMltjSF1bY0hdbltjSF1bY0hdMg==

> <s_epik_cmdline>
J2VwaWtfcHl0aG9uJywgJy1waCcsICc3LjAnLCAnLXRuJywgJzgnLCAnLW1hJywgJzIwMCcsICctbWV0YWxfYmluZGluZycsICctaW1hZScsICc8aW5maWxlLm1hZT4nLCAnLW9tYWUnLCAnPG91dGZpbGUubWFlPic=

> <r_epik_Ionization_Penalty>
0.11743

> <r_epik_Ionization_Penalty_Charging>
0.00147689

> <r_epik_Ionization_Penalty_Neutral>
0.115954

> <r_epik_State_Penalty>
0.105552

> <r_epik_Charging_Adjusted_Penalty>
0.107029

> <i_epik_Tot_Q>
1

> <i_epik_Tot_abs_Q>
1

> <r_epik_Metal_State_Penalty>
0.0881315

> <b_epik_Metal_Only>
0

> <s_lp_Force_Field>
OPLS_2005

> <r_lp_Energy>
26.5428

> <b_lp_Chiralities_Consistent>
1

> <s_lp_Variant>
AV-unprocessed.smi:1032-4

> <Gold.Version>
5.8.1

> <Gold.Id.Protein>
6NUR|6NUR_protein|mol2

> <Gold.PLP.Fitness>
50.6778

> <Gold.PLP.PLP>
-35.4457

> <Gold.PLP.part.hbond>
-4.8281

> <Gold.PLP.part.metal>
0.0000

> <Gold.PLP.part.buried>
0.9348

> <Gold.PLP.part.nonpolar>
-31.8416

> <Gold.PLP.part.repulsive>
0.5998

> <Gold.PLP.ligand.clash>
0.0000

> <Gold.PLP.ligand.torsion>
0.6051

> <Gold.PLP.Chemscore.Hbond>
3.6160

> <Gold.PLP.Chemscore.CHOScore>
1.8472

> <Gold.PLP.Chemscore.Metal>
0.0000

> <Gold.Chemscore.Hbonds>
donor molecule, donor type, donor heavy atom, donor atom, acceptor molecule, acceptor atom, score
      L1  H     5    46       P1  7957  1.00
      L1  H     8    33       P1  7957  1.00
      L1  H    10    36       P1  7948  1.00
      L1  H    13    37       P1  7948  0.96
      P1  H 10785 10796       L1    17  0.06
      L1  C    16    39       P1 10747  1.00
      L1  C    18    40       P1 10186  0.45
      L1  C    18    40       P1 10952  0.15

> <Gold.PLP.Chemscore.Internal.Correction>
0.0525

> <Gold.Rescore>
     Score         DG    S(hbond)    S(metal)    S(lipo)     H(rot)  DE(clash)    DE(int)     intcor
     20.01     -22.14       3.31        0.00      97.77       2.29       0.31       1.82       ----

> <Gold.Chemscore.Fitness>
20.0055

> <Gold.Chemscore.DG>
-22.1361

> <Gold.Chemscore.ZeroCoef>
-5.4800

> <Gold.Chemscore.Hbond>
3.3145

> <Gold.Chemscore.Metal>
0.0000

> <Gold.Chemscore.Lipo>
97.7706

> <Gold.Chemscore.Internal_Hbond>
0.0000

> <Gold.Chemscore.DEClash>
0.3060

> <Gold.Chemscore.DEInternal>
1.8246

> <Gold.Chemscore.Rot>
2.2865

> <Gold.Chemscore.Internal.Correction>
   9.000000E+99

> <Gold.Chemscore.Hbonds>
donor molecule, donor type, donor heavy atom, donor atom, acceptor molecule, acceptor atom, score
      L1  H     5    46       P1  7957  0.95
      L1  H     8    33       P1  7957  1.00
      L1  H    10    36       P1  7948  0.94
      L1  H    13    37       P1  7948  0.89
      P1  H 10785 10796       L1    17  0.02

> <Gold.Chemscore.Hbond.Weighted>
-11.0705

> <Gold.Chemscore.Metal.Weighted>
-0.0000

> <Gold.Chemscore.Lipo.Weighted>
-11.4392

> <Gold.Chemscore.Internal_Hbond.Weighted>
0.0000

> <Gold.Chemscore.DEClash.Weighted>
0.3060

> <Gold.Chemscore.DEInternal.Weighted>
1.8246

> <Gold.Chemscore.Rot.Weighted>
5.8536

> <Gold.Chemscore.Internal.Correction.Weighted>
   9.000000E+99

> <Gold.Protein.RotatedTorsions>
[ 6907 6896 6895 6894 ] final   85.22 input  -60.11 | X-H torsion
[ 7974 7965 7964 7962 ] final  -81.74 input  175.53 | X-H torsion
[ 8008 7997 7996 7995 ] final   81.00 input   59.86 | X-H torsion
[ 10167 10162 10161 10158 ] final   -0.79 input  -65.29 | X-H torsion
[ 10718 10713 10712 10709 ] final  -23.96 input   66.30 | X-H torsion
[ 10763 10752 10751 10750 ] final   54.47 input  -60.55 | X-H torsion
[ 11005 11000 10999 10996 ] final   83.49 input  -57.11 | X-H torsion

> <Gold.Protein.ActiveResidues>
 VAL166  LYS551  ARG553  GLY616  TRP617  ASP618  TYR619  PRO620  LYS621  CYS622 
 ASP623  PHE694  ASN695  SER759  ASP760  ASP761  ALA762  ILE779  LEU786  VAL792 
 PHE793  MET794  SER795  GLU796  ALA797  LYS798  CYS799  TRP800  GLU811  SER814 

> <Gold.Protein.RotatedAtoms>
  152.5370  134.2620  159.8938 H   0  0  0  0  0  0  0  0  0  0  0  0  # atno 6907 bound_to 6896
  151.2580  133.4310  159.2622 H   0  0  0  0  0  0  0  0  0  0  0  0  # atno 6908 bound_to 6896
  151.0479  134.9667  159.8252 H   0  0  0  0  0  0  0  0  0  0  0  0  # atno 6909 bound_to 6896
  145.5426  140.9507  143.1543 H   0  0  0  0  0  0  0  0  0  0  0  0  # atno 7974 bound_to 7965
  155.8912  140.3438  155.5957 H   0  0  0  0  0  0  0  0  0  0  0  0  # atno 8008 bound_to 7997
  155.7609  140.0832  157.2175 H   0  0  0  0  0  0  0  0  0  0  0  0  # atno 8009 bound_to 7997
  154.4033  140.1536  156.2818 H   0  0  0  0  0  0  0  0  0  0  0  0  # atno 8010 bound_to 7997
  140.6782  143.6852  150.8072 H   0  0  0  0  0  0  0  0  0  0  0  0  # atno 10167 bound_to 10162
  156.4840  130.4551  149.6795 H   0  0  0  0  0  0  0  0  0  0  0  0  # atno 10718 bound_to 10713
  152.9805  135.5744  154.4909 H   0  0  0  0  0  0  0  0  0  0  0  0  # atno 10763 bound_to 10752
  154.4444  135.2776  155.1827 H   0  0  0  0  0  0  0  0  0  0  0  0  # atno 10764 bound_to 10752
  154.3482  135.6215  153.5683 H   0  0  0  0  0  0  0  0  0  0  0  0  # atno 10765 bound_to 10752
  139.9029  134.8148  156.2316 H   0  0  0  0  0  0  0  0  0  0  0  0  # atno 11005 bound_to 11000
  144.7569  139.7052  143.7250 LP  0  0  0  0  0  0  0  0  0  0  0  0  # atno 17320 bound_to 7965
  146.1971  139.5243  142.9767 LP  0  0  0  0  0  0  0  0  0  0  0  0  # atno 17321 bound_to 7965
  140.0549  143.5213  152.2656 LP  0  0  0  0  0  0  0  0  0  0  0  0  # atno 17342 bound_to 10162
  139.6088  144.7603  151.3000 LP  0  0  0  0  0  0  0  0  0  0  0  0  # atno 17343 bound_to 10162
  156.3493  130.7423  151.2381 LP  0  0  0  0  0  0  0  0  0  0  0  0  # atno 17370 bound_to 10713
  157.7480  131.0381  150.4489 LP  0  0  0  0  0  0  0  0  0  0  0  0  # atno 17371 bound_to 10713
  141.0342  133.6972  156.1482 LP  0  0  0  0  0  0  0  0  0  0  0  0  # atno 17394 bound_to 11000
  140.7052  134.4521  157.5584 LP  0  0  0  0  0  0  0  0  0  0  0  0  # atno 17395 bound_to 11000

$$$$
