AV-unprocessed.smi:9|AV-procd|sdf|50|dock8
  -GOLD-   2262015163D 1   1.00000     0.00000
 Structure written by MMmdl.
 34 36  0  0  0  0  0  0  0  0  2 V2000
  153.3210  136.0852  158.4278 O   0  0  0  0  0  0  0  0  0  0  0  0
  152.2146  136.5870  158.2394 C   0  0  0  0  0  0  0  0  0  0  0  0
  151.0187  136.0233  158.5996 N   0  5  0  0  0  0  0  0  0  0  0  0
  149.8103  136.6817  158.3434 C   0  0  0  0  0  0  0  0  0  0  0  0
  148.5377  135.9623  158.7798 C   0  0  0  0  0  0  0  0  0  0  0  0
  148.5564  135.6980  160.0881 F   0  0  0  0  0  0  0  0  0  0  0  0
  147.4711  136.7200  158.5250 F   0  0  0  0  0  0  0  0  0  0  0  0
  148.3901  134.8024  158.1362 F   0  0  0  0  0  0  0  0  0  0  0  0
  149.6913  137.8310  157.7601 N   0  0  0  0  0  0  0  0  0  0  0  0
  150.8760  138.4234  157.3815 C   0  0  0  0  0  0  0  0  0  0  0  0
  152.1287  137.9115  157.5695 C   0  0  0  0  0  0  0  0  0  0  0  0
  153.1036  138.7723  157.0780 N   0  0  0  0  0  0  0  0  0  0  0  0
  152.3722  139.7819  156.6060 C   0  0  0  0  0  0  0  0  0  0  0  0
  151.0374  139.6438  156.7384 N   0  0  0  0  0  0  0  0  0  0  0  0
  150.0059  140.5793  156.3147 C   0  0  0  0  0  0  0  0  0  0  0  0
  149.2157  140.1319  155.0578 C   0  0  2  0  0  0  0  0  0  0  0  0
  150.1533  139.9555  154.0122 O   0  0  0  0  0  0  0  0  0  0  0  0
  148.1630  141.1774  154.6267 C   0  0  0  0  0  0  0  0  0  0  0  0
  147.2121  140.6222  153.5616 C   0  0  0  0  0  0  0  0  0  0  0  0
  146.6228  139.2857  154.0251 C   0  0  0  0  0  0  0  0  0  0  0  0
  147.6817  138.3686  154.2615 O   0  0  0  0  0  0  0  0  0  0  0  0
  148.5560  138.7569  155.3184 C   0  0  0  0  0  0  0  0  0  0  0  0
  152.8211  140.6478  156.1419 H   0  0  0  0  0  0  0  0  0  0  0  0
  149.3265  140.7450  157.1522 H   0  0  0  0  0  0  0  0  0  0  0  0
  150.4885  141.5390  156.1257 H   0  0  0  0  0  0  0  0  0  0  0  0
  149.6848  139.9270  153.1922 H   0  0  0  0  0  0  0  0  0  0  0  0
  147.5743  141.4722  155.4966 H   0  0  0  0  0  0  0  0  0  0  0  0
  148.6407  142.0853  154.2560 H   0  0  0  0  0  0  0  0  0  0  0  0
  146.4136  141.3376  153.3632 H   0  0  0  0  0  0  0  0  0  0  0  0
  147.7463  140.4815  152.6212 H   0  0  0  0  0  0  0  0  0  0  0  0
  146.0203  139.4109  154.9263 H   0  0  0  0  0  0  0  0  0  0  0  0
  145.9678  138.8776  153.2553 H   0  0  0  0  0  0  0  0  0  0  0  0
  149.3139  137.9841  155.4530 H   0  0  0  0  0  0  0  0  0  0  0  0
  147.9804  138.7861  156.2450 H   0  0  0  0  0  0  0  0  0  0  0  0
  1  2  2  0  0  0  0
  2 11  1  0  0  0  0
  2  3  1  0  0  0  0
  3  4  1  0  0  0  0
  4  5  1  0  0  0  0
  4  9  2  0  0  0  0
  5  6  1  0  0  0  0
  5  7  1  0  0  0  0
  5  8  1  0  0  0  0
  9 10  1  0  0  0  0
 10 14  1  0  0  0  0
 10 11  2  0  0  0  0
 11 12  1  0  0  0  0
 12 13  2  0  0  0  0
 13 14  1  0  0  0  0
 13 23  1  0  0  0  0
 14 15  1  0  0  0  0
 15 16  1  0  0  0  0
 15 24  1  0  0  0  0
 15 25  1  0  0  0  0
 16 22  1  0  0  0  0
 16 17  1  0  0  0  0
 16 18  1  0  0  0  0
 17 26  1  0  0  0  0
 18 19  1  0  0  0  0
 18 27  1  0  0  0  0
 18 28  1  0  0  0  0
 19 20  1  0  0  0  0
 19 29  1  0  0  0  0
 19 30  1  0  0  0  0
 20 21  1  0  0  0  0
 20 31  1  0  0  0  0
 20 32  1  0  0  0  0
 21 22  1  0  0  0  0
 22 33  1  0  0  0  0
 22 34  1  0  0  0  0
M  CHG  1   3  -1
M  END
> <s_m_source_file>
AV-unprocessed.smi

> <i_m_source_file_index>
9

> <i_lp_mmshare_version>
43012

> <i_f3d_flags>
0

> <s_epik_input>
RkMoRikoRiljKG4xKVtuSF1jKD1PKWMoYzEyKW5bY0hdbjJbQ0gyXVtDQEBdMyhbT0hdKVtDSDJdW0NIMl1bQ0gyXU9bQ0gyXTM=

> <s_epik_cmdline>
J2VwaWtfcHl0aG9uJywgJy1waCcsICc3LjAnLCAnLXRuJywgJzgnLCAnLW1hJywgJzIwMCcsICctbWV0YWxfYmluZGluZycsICctaW1hZScsICc8aW5maWxlLm1hZT4nLCAnLW9tYWUnLCAnPG91dGZpbGUubWFlPic=

> <r_lp_tautomer_probability>
1

> <r_epik_Ionization_Penalty>
0.188582

> <r_epik_Ionization_Penalty_Charging>
1.37005e-11

> <r_epik_Ionization_Penalty_Neutral>
0.188582

> <r_epik_State_Penalty>
0.012336

> <r_epik_Charging_Adjusted_Penalty>
0.012336

> <i_epik_Tot_Q>
-1

> <i_epik_Tot_abs_Q>
1

> <r_epik_Metal_State_Penalty>
0.0089237

> <b_epik_Metal_Only>
0

> <s_lp_Force_Field>
OPLS_2005

> <r_lp_Energy>
37.4202

> <b_lp_Chiralities_Consistent>
1

> <s_lp_Variant>
AV-unprocessed.smi:9-2

> <Gold.Version>
5.8.1

> <Gold.Id.Protein>
6NUR|6NUR_protein|mol2

> <Gold.PLP.Fitness>
42.4594

> <Gold.PLP.PLP>
-28.2972

> <Gold.PLP.part.hbond>
-4.2250

> <Gold.PLP.part.metal>
0.0000

> <Gold.PLP.part.buried>
-5.8313

> <Gold.PLP.part.nonpolar>
-19.1429

> <Gold.PLP.part.repulsive>
0.1451

> <Gold.PLP.ligand.clash>
0.0000

> <Gold.PLP.ligand.torsion>
0.1942

> <Gold.PLP.Chemscore.Hbond>
4.8480

> <Gold.PLP.Chemscore.CHOScore>
0.0000

> <Gold.PLP.Chemscore.Metal>
0.0000

> <Gold.Chemscore.Hbonds>
donor molecule, donor type, donor heavy atom, donor atom, acceptor molecule, acceptor atom, score
      L1  H    17    26       P1  7957  0.99
      P1  H  6896  6908       L1     3  1.31
      P1  H  6896  6909       L1     1  0.02
      P1  H  7989  7998       L1    17  0.93
      P1  H  7997  8010       L1    12  0.28

> <Gold.PLP.Chemscore.Internal.Correction>
0.0066

> <Gold.Rescore>
     Score         DG    S(hbond)    S(metal)    S(lipo)     H(rot)  DE(clash)    DE(int)     intcor
     11.32     -13.08       2.35        0.00      44.40       2.12       0.23       1.54       ----

> <Gold.Chemscore.Fitness>
11.3176

> <Gold.Chemscore.DG>
-13.0844

> <Gold.Chemscore.ZeroCoef>
-5.4800

> <Gold.Chemscore.Hbond>
2.3493

> <Gold.Chemscore.Metal>
0.0000

> <Gold.Chemscore.Lipo>
44.4029

> <Gold.Chemscore.Internal_Hbond>
0.0000

> <Gold.Chemscore.DEClash>
0.2283

> <Gold.Chemscore.DEInternal>
1.5385

> <Gold.Chemscore.Rot>
2.1239

> <Gold.Chemscore.Internal.Correction>
   9.000000E+99

> <Gold.Chemscore.Hbonds>
donor molecule, donor type, donor heavy atom, donor atom, acceptor molecule, acceptor atom, score
      L1  H    17    26       P1  7957  0.89
      P1  H  6896  6908       L1     3  0.55
      P1  H  7989  7998       L1    17  0.20

> <Gold.Chemscore.Hbond.Weighted>
-7.8465

> <Gold.Chemscore.Metal.Weighted>
-0.0000

> <Gold.Chemscore.Lipo.Weighted>
-5.1951

> <Gold.Chemscore.Internal_Hbond.Weighted>
0.0000

> <Gold.Chemscore.DEClash.Weighted>
0.2283

> <Gold.Chemscore.DEInternal.Weighted>
1.5385

> <Gold.Chemscore.Rot.Weighted>
5.4373

> <Gold.Chemscore.Internal.Correction.Weighted>
   9.000000E+99

> <Gold.Protein.RotatedTorsions>
[ 6907 6896 6895 6894 ] final -155.46 input  -60.11 | X-H torsion
[ 7974 7965 7964 7962 ] final  -71.76 input  175.53 | X-H torsion
[ 8008 7997 7996 7995 ] final   33.10 input   59.86 | X-H torsion
[ 10167 10162 10161 10158 ] final   96.80 input  -65.29 | X-H torsion
[ 10718 10713 10712 10709 ] final    3.59 input   66.30 | X-H torsion
[ 10763 10752 10751 10750 ] final -134.41 input  -60.55 | X-H torsion
[ 11005 11000 10999 10996 ] final  -90.53 input  -57.11 | X-H torsion

> <Gold.Protein.ActiveResidues>
 VAL166  LYS551  ARG553  GLY616  TRP617  ASP618  TYR619  PRO620  LYS621  CYS622 
 ASP623  PHE694  ASN695  SER759  ASP760  ASP761  ALA762  ILE779  LEU786  VAL792 
 PHE793  MET794  SER795  GLU796  ALA797  LYS798  CYS799  TRP800  GLU811  SER814 

> <Gold.Protein.RotatedAtoms>
  151.2728  133.4247  159.2622 H   0  0  0  0  0  0  0  0  0  0  0  0  # atno 6907 bound_to 6896
  151.0429  134.9620  159.8181 H   0  0  0  0  0  0  0  0  0  0  0  0  # atno 6908 bound_to 6896
  152.5368  134.2686  159.9015 H   0  0  0  0  0  0  0  0  0  0  0  0  # atno 6909 bound_to 6896
  145.6739  140.9211  143.0868 H   0  0  0  0  0  0  0  0  0  0  0  0  # atno 7974 bound_to 7965
  155.1332  140.3259  155.4469 H   0  0  0  0  0  0  0  0  0  0  0  0  # atno 8008 bound_to 7997
  156.2628  140.2007  156.6399 H   0  0  0  0  0  0  0  0  0  0  0  0  # atno 8009 bound_to 7997
  154.6597  140.0548  157.0035 H   0  0  0  0  0  0  0  0  0  0  0  0  # atno 8010 bound_to 7997
  139.7860  144.6870  150.9957 H   0  0  0  0  0  0  0  0  0  0  0  0  # atno 10167 bound_to 10162
  156.8801  130.5650  149.5653 H   0  0  0  0  0  0  0  0  0  0  0  0  # atno 10718 bound_to 10713
  154.8719  135.3735  154.4731 H   0  0  0  0  0  0  0  0  0  0  0  0  # atno 10763 bound_to 10752
  153.5390  135.7026  153.5651 H   0  0  0  0  0  0  0  0  0  0  0  0  # atno 10764 bound_to 10752
  153.3821  135.3994  155.1829 H   0  0  0  0  0  0  0  0  0  0  0  0  # atno 10765 bound_to 10752
  141.1564  133.7698  156.9751 H   0  0  0  0  0  0  0  0  0  0  0  0  # atno 11005 bound_to 11000
  144.7048  139.8608  143.7433 LP  0  0  0  0  0  0  0  0  0  0  0  0  # atno 17320 bound_to 7965
  146.1022  139.4018  143.0340 LP  0  0  0  0  0  0  0  0  0  0  0  0  # atno 17321 bound_to 7965
  140.7819  143.4432  151.0521 LP  0  0  0  0  0  0  0  0  0  0  0  0  # atno 17342 bound_to 10162
  139.8110  143.7951  152.3171 LP  0  0  0  0  0  0  0  0  0  0  0  0  # atno 17343 bound_to 10162
  156.0681  130.5720  150.9330 LP  0  0  0  0  0  0  0  0  0  0  0  0  # atno 17370 bound_to 10713
  157.6145  131.0934  150.8735 LP  0  0  0  0  0  0  0  0  0  0  0  0  # atno 17371 bound_to 10713
  140.1103  134.9481  157.2055 LP  0  0  0  0  0  0  0  0  0  0  0  0  # atno 17394 bound_to 11000
  140.3202  134.2924  155.7248 LP  0  0  0  0  0  0  0  0  0  0  0  0  # atno 17395 bound_to 11000

$$$$
