AV-unprocessed.smi:1239|AV-procd|sdf|5190|dock1
  -GOLD-   22720 4273D 1   1.00000     0.00000
 Structure written by MMmdl.
 49 50  0  0  0  0  0  0  0  0  3 V2000
  145.4264  137.5696  153.9558 C   0  0  0  0  0  0  0  0  0  0  0  0
  145.6438  137.1661  152.4800 C   0  0  1  0  0  0  0  0  0  0  0  0
  146.4823  138.2555  151.7618 C   0  0  0  0  0  0  0  0  0  0  0  0
  147.7522  138.5415  152.4292 N   0  0  0  0  0  0  0  0  0  0  0  0
  147.9564  139.4918  153.3524 C   0  0  0  0  0  0  0  0  0  0  0  0
  147.0821  140.2733  153.7256 O   0  0  0  0  0  0  0  0  0  0  0  0
  149.2301  139.4886  153.7818 N   0  0  0  0  0  0  0  0  0  0  0  0
  149.8349  140.3161  154.7669 C   0  0  0  0  0  0  0  0  0  0  0  0
  150.9287  139.7917  155.4864 C   0  0  0  0  0  0  0  0  0  0  0  0
  151.5524  140.5697  156.4833 C   0  0  0  0  0  0  0  0  0  0  0  0
  151.0709  141.8716  156.7654 C   0  0  0  0  0  0  0  0  0  0  0  0
  151.6405  142.7109  157.7472 N   0  0  0  0  0  0  0  0  0  0  0  0
  152.3223  142.1245  158.8957 C   0  0  0  0  0  0  0  0  0  0  0  0
  151.5090  144.1570  157.6292 C   0  0  0  0  0  0  0  0  0  0  0  0
  150.0085  142.3265  156.0571 N   0  3  0  0  0  0  0  0  0  0  0  0
  149.3833  141.6171  155.0930 C   0  0  0  0  0  0  0  0  0  0  0  0
  146.2401  135.8021  152.3054 N   0  3  0  0  0  0  0  0  0  0  0  0
  145.9729  134.8328  153.4023 C   0  0  0  0  0  0  0  0  0  0  0  0
  146.6832  133.4941  153.1334 C   0  0  0  0  0  0  0  0  0  0  0  0
  146.2761  132.9715  151.8770 O   0  0  0  0  0  0  0  0  0  0  0  0
  146.6153  133.8467  150.8113 C   0  0  0  0  0  0  0  0  0  0  0  0
  145.8845  135.1853  150.9997 C   0  0  0  0  0  0  0  0  0  0  0  0
  145.0632  138.5954  154.0283 H   0  0  0  0  0  0  0  0  0  0  0  0
  146.3491  137.5088  154.5338 H   0  0  0  0  0  0  0  0  0  0  0  0
  144.6778  136.9444  154.4428 H   0  0  0  0  0  0  0  0  0  0  0  0
  144.6551  137.1498  152.0185 H   0  0  0  0  0  0  0  0  0  0  0  0
  146.6545  138.0093  150.7141 H   0  0  0  0  0  0  0  0  0  0  0  0
  145.9145  139.1863  151.7398 H   0  0  0  0  0  0  0  0  0  0  0  0
  148.5318  137.9491  152.1816 H   0  0  0  0  0  0  0  0  0  0  0  0
  149.8508  138.8370  153.3239 H   0  0  0  0  0  0  0  0  0  0  0  0
  151.2961  138.7975  155.2756 H   0  0  0  0  0  0  0  0  0  0  0  0
  152.3914  140.1508  157.0186 H   0  0  0  0  0  0  0  0  0  0  0  0
  153.1703  141.5214  158.5696 H   0  0  0  0  0  0  0  0  0  0  0  0
  151.6420  141.4892  159.4633 H   0  0  0  0  0  0  0  0  0  0  0  0
  152.7004  142.8941  159.5692 H   0  0  0  0  0  0  0  0  0  0  0  0
  150.4577  144.4451  157.6015 H   0  0  0  0  0  0  0  0  0  0  0  0
  151.9931  144.5131  156.7196 H   0  0  0  0  0  0  0  0  0  0  0  0
  151.9712  144.6675  158.4742 H   0  0  0  0  0  0  0  0  0  0  0  0
  148.5435  142.1190  154.6368 H   0  0  0  0  0  0  0  0  0  0  0  0
  146.3379  135.2120  154.3561 H   0  0  0  0  0  0  0  0  0  0  0  0
  144.8978  134.6760  153.5008 H   0  0  0  0  0  0  0  0  0  0  0  0
  147.7673  133.6190  153.1539 H   0  0  0  0  0  0  0  0  0  0  0  0
  146.4325  132.7738  153.9124 H   0  0  0  0  0  0  0  0  0  0  0  0
  147.6960  133.9930  150.7683 H   0  0  0  0  0  0  0  0  0  0  0  0
  146.3182  133.3860  149.8691 H   0  0  0  0  0  0  0  0  0  0  0  0
  144.8059  135.0281  150.9505 H   0  0  0  0  0  0  0  0  0  0  0  0
  146.1454  135.8429  150.1724 H   0  0  0  0  0  0  0  0  0  0  0  0
  149.6573  143.2613  156.2662 H   0  0  0  0  0  0  0  0  0  0  0  0
  147.2413  135.9366  152.2968 H   0  0  0  0  0  0  0  0  0  0  0  0
  1  2  1  0  0  0  0
  1 23  1  0  0  0  0
  1 24  1  0  0  0  0
  1 25  1  0  0  0  0
  2  3  1  0  0  0  0
  2 17  1  0  0  0  0
  2 26  1  0  0  0  0
  3  4  1  0  0  0  0
  3 27  1  0  0  0  0
  3 28  1  0  0  0  0
  4  5  1  0  0  0  0
  4 29  1  0  0  0  0
  5  6  2  0  0  0  0
  5  7  1  0  0  0  0
  7  8  1  0  0  0  0
  7 30  1  0  0  0  0
  8 16  1  0  0  0  0
  8  9  2  0  0  0  0
  9 10  1  0  0  0  0
  9 31  1  0  0  0  0
 10 11  2  0  0  0  0
 10 32  1  0  0  0  0
 11 12  1  0  0  0  0
 11 15  1  0  0  0  0
 12 13  1  0  0  0  0
 12 14  1  0  0  0  0
 13 33  1  0  0  0  0
 13 34  1  0  0  0  0
 13 35  1  0  0  0  0
 14 36  1  0  0  0  0
 14 37  1  0  0  0  0
 14 38  1  0  0  0  0
 15 16  2  0  0  0  0
 15 48  1  0  0  0  0
 16 39  1  0  0  0  0
 17 22  1  0  0  0  0
 17 18  1  0  0  0  0
 17 49  1  0  0  0  0
 18 19  1  0  0  0  0
 18 40  1  0  0  0  0
 18 41  1  0  0  0  0
 19 20  1  0  0  0  0
 19 42  1  0  0  0  0
 19 43  1  0  0  0  0
 20 21  1  0  0  0  0
 21 22  1  0  0  0  0
 21 44  1  0  0  0  0
 21 45  1  0  0  0  0
 22 46  1  0  0  0  0
 22 47  1  0  0  0  0
M  CHG  1  15   1
M  CHG  1  17   1
M  END
> <s_m_source_file>
AV-unprocessed.smi

> <i_m_source_file_index>
1239

> <i_lp_mmshare_version>
43012

> <i_f3d_flags>
0

> <s_epik_input>
W0NIMl0xW0NIMl1PW0NIMl1bQ0gyXU4xW0NASF0oW0NIM10pW0NIMl1bTkhdQyg9TylbTkhdYzJbY0hdW2NIXWMoTihbQ0gzXSlbQ0gzXSluW2NIXTI=

> <s_epik_cmdline>
J2VwaWtfcHl0aG9uJywgJy1waCcsICc3LjAnLCAnLXRuJywgJzgnLCAnLW1hJywgJzIwMCcsICctbWV0YWxfYmluZGluZycsICctaW1hZScsICc8aW5maWxlLm1hZT4nLCAnLW9tYWUnLCAnPG91dGZpbGUubWFlPic=

> <r_lp_tautomer_probability>
0.999994

> <r_epik_Ionization_Penalty>
0.907597

> <r_epik_Ionization_Penalty_Charging>
0.907577

> <r_epik_Ionization_Penalty_Neutral>
2.023e-05

> <r_epik_State_Penalty>
0.909151

> <r_epik_Charging_Adjusted_Penalty>
1.81673

> <i_epik_Tot_Q>
2

> <i_epik_Tot_abs_Q>
2

> <r_epik_Metal_State_Penalty>
1.19543

> <b_epik_Metal_Only>
0

> <s_lp_Force_Field>
OPLS_2005

> <r_lp_Energy>
38.8579

> <b_lp_Chiralities_Consistent>
1

> <s_lp_Variant>
AV-unprocessed.smi:1239-6

> <Gold.Version>
5.8.1

> <Gold.Id.Protein>
6NUR|6NUR_protein|mol2

> <Gold.PLP.Fitness>
52.3030

> <Gold.PLP.PLP>
-40.0417

> <Gold.PLP.part.hbond>
-5.0000

> <Gold.PLP.part.metal>
0.0000

> <Gold.PLP.part.buried>
-1.6992

> <Gold.PLP.part.nonpolar>
-33.9862

> <Gold.PLP.part.repulsive>
0.6238

> <Gold.PLP.ligand.clash>
0.0000

> <Gold.PLP.ligand.torsion>
1.3441

> <Gold.PLP.Chemscore.Hbond>
4.9440

> <Gold.PLP.Chemscore.CHOScore>
0.0000

> <Gold.PLP.Chemscore.Metal>
0.0000

> <Gold.Chemscore.Hbonds>
donor molecule, donor type, donor heavy atom, donor atom, acceptor molecule, acceptor atom, score
      L1  H     4    29       P1  7948  0.86
      L1  H    15    48       P1  8028  1.89
      L1  H    17    49       P1  7948  2.00

> <Gold.PLP.Chemscore.Internal.Correction>
0.1174

> <Gold.Rescore>
     Score         DG    S(hbond)    S(metal)    S(lipo)     H(rot)  DE(clash)    DE(int)     intcor
     18.36     -21.38       2.92        0.00      85.59       1.51       1.07       1.94       ----

> <Gold.Chemscore.Fitness>
18.3635

> <Gold.Chemscore.DG>
-21.3754

> <Gold.Chemscore.ZeroCoef>
-5.4800

> <Gold.Chemscore.Hbond>
2.9156

> <Gold.Chemscore.Metal>
0.0000

> <Gold.Chemscore.Lipo>
85.5864

> <Gold.Chemscore.Internal_Hbond>
0.0000

> <Gold.Chemscore.DEClash>
1.0701

> <Gold.Chemscore.DEInternal>
1.9418

> <Gold.Chemscore.Rot>
1.5064

> <Gold.Chemscore.Internal.Correction>
   9.000000E+99

> <Gold.Chemscore.Hbonds>
donor molecule, donor type, donor heavy atom, donor atom, acceptor molecule, acceptor atom, score
      L1  H     4    29       P1  7948  0.85
      L1  H    15    48       P1  8028  0.92
      L1  H    17    49       P1  7948  1.00

> <Gold.Chemscore.Hbond.Weighted>
-9.7381

> <Gold.Chemscore.Metal.Weighted>
-0.0000

> <Gold.Chemscore.Lipo.Weighted>
-10.0136

> <Gold.Chemscore.Internal_Hbond.Weighted>
0.0000

> <Gold.Chemscore.DEClash.Weighted>
1.0701

> <Gold.Chemscore.DEInternal.Weighted>
1.9418

> <Gold.Chemscore.Rot.Weighted>
3.8563

> <Gold.Chemscore.Internal.Correction.Weighted>
   9.000000E+99

> <Gold.Protein.RotatedTorsions>
[ 6907 6896 6895 6894 ] final  -22.04 input  -60.11 | X-H torsion
[ 7974 7965 7964 7962 ] final  176.86 input  175.53 | X-H torsion
[ 8008 7997 7996 7995 ] final  154.28 input   59.86 | X-H torsion
[ 10167 10162 10161 10158 ] final -162.30 input  -65.29 | X-H torsion
[ 10718 10713 10712 10709 ] final -158.81 input   66.30 | X-H torsion
[ 10763 10752 10751 10750 ] final  -16.22 input  -60.55 | X-H torsion
[ 11005 11000 10999 10996 ] final -154.57 input  -57.11 | X-H torsion

> <Gold.Protein.ActiveResidues>
 VAL166  LYS551  ARG553  GLY616  TRP617  ASP618  TYR619  PRO620  LYS621  CYS622 
 ASP623  PHE694  ASN695  SER759  ASP760  ASP761  ALA762  ILE779  LEU786  VAL792 
 PHE793  MET794  SER795  GLU796  ALA797  LYS798  CYS799  TRP800  GLU811  SER814 

> <Gold.Protein.RotatedAtoms>
  151.2244  135.0531  159.8962 H   0  0  0  0  0  0  0  0  0  0  0  0  # atno 6907 bound_to 6896
  152.5412  134.0605  159.8160 H   0  0  0  0  0  0  0  0  0  0  0  0  # atno 6908 bound_to 6896
  151.0776  133.5367  159.2654 H   0  0  0  0  0  0  0  0  0  0  0  0  # atno 6909 bound_to 6896
  144.7177  140.0160  143.6440 H   0  0  0  0  0  0  0  0  0  0  0  0  # atno 7974 bound_to 7965
  156.2539  140.1971  156.6621 H   0  0  0  0  0  0  0  0  0  0  0  0  # atno 8008 bound_to 7997
  154.6457  140.0578  156.9922 H   0  0  0  0  0  0  0  0  0  0  0  0  # atno 8009 bound_to 7997
  155.1495  140.3250  155.4437 H   0  0  0  0  0  0  0  0  0  0  0  0  # atno 8010 bound_to 7997
  139.6402  144.0274  152.2086 H   0  0  0  0  0  0  0  0  0  0  0  0  # atno 10167 bound_to 10162
  156.5594  130.8640  151.2805 H   0  0  0  0  0  0  0  0  0  0  0  0  # atno 10718 bound_to 10713
  153.5552  135.7011  153.5572 H   0  0  0  0  0  0  0  0  0  0  0  0  # atno 10763 bound_to 10752
  153.3479  135.4003  155.1623 H   0  0  0  0  0  0  0  0  0  0  0  0  # atno 10764 bound_to 10752
  154.8655  135.3758  154.5066 H   0  0  0  0  0  0  0  0  0  0  0  0  # atno 10765 bound_to 10752
  140.6959  134.3990  157.5215 H   0  0  0  0  0  0  0  0  0  0  0  0  # atno 11005 bound_to 11000
  146.0219  139.3258  143.0807 LP  0  0  0  0  0  0  0  0  0  0  0  0  # atno 17320 bound_to 7965
  145.8558  140.9503  143.0726 LP  0  0  0  0  0  0  0  0  0  0  0  0  # atno 17321 bound_to 7965
  139.9961  144.6327  150.7771 LP  0  0  0  0  0  0  0  0  0  0  0  0  # atno 17342 bound_to 10162
  140.7487  143.2926  151.3290 LP  0  0  0  0  0  0  0  0  0  0  0  0  # atno 17343 bound_to 10162
  157.7371  130.9791  150.2177 LP  0  0  0  0  0  0  0  0  0  0  0  0  # atno 17370 bound_to 10713
  156.2813  130.3734  149.7933 LP  0  0  0  0  0  0  0  0  0  0  0  0  # atno 17371 bound_to 10713
  139.8910  134.8790  156.2341 LP  0  0  0  0  0  0  0  0  0  0  0  0  # atno 17394 bound_to 11000
  141.0203  133.7045  156.1258 LP  0  0  0  0  0  0  0  0  0  0  0  0  # atno 17395 bound_to 11000

$$$$
