AV-unprocessed.smi:1487|AV-procd|sdf|6015|dock9
  -GOLD-   22720 6113D 1   1.00000     0.00000
 Structure written by MMmdl.
 49 51  0  0  0  0  0  0  0  0  3 V2000
  152.3087  142.9939  160.4474 C   0  0  0  0  0  0  0  0  0  0  0  0
  151.9394  142.2540  159.1727 C   0  0  0  0  0  0  0  0  0  0  0  0
  150.9823  142.8333  158.3095 C   0  0  0  0  0  0  0  0  0  0  0  0
  150.6673  142.1337  157.1507 C   0  0  0  0  0  0  0  0  0  0  0  0
  149.7805  142.4349  156.1153 N   0  3  0  0  0  0  0  0  0  0  0  0
  149.8104  141.4397  155.1867 C   0  0  0  0  0  0  0  0  0  0  0  0
  150.7072  140.5080  155.6110 N   0  0  0  0  0  0  0  0  0  0  0  0
  151.1011  139.2379  154.9843 C   0  0  0  0  0  0  0  0  0  0  0  0
  149.9403  138.2285  154.8742 C   0  0  2  0  0  0  0  0  0  0  0  0
  150.4221  137.1213  154.1397 O   0  0  0  0  0  0  0  0  0  0  0  0
  148.6881  138.8013  154.1714 C   0  0  0  0  0  0  0  0  0  0  0  0
  147.6508  137.7762  153.8848 N   0  3  1  0  0  0  0  0  0  0  0  0
  147.2905  136.9474  155.0675 C   0  0  0  0  0  0  0  0  0  0  0  0
  146.3081  135.8278  154.6833 C   0  0  0  0  0  0  0  0  0  0  0  0
  145.0494  136.4028  154.0222 C   0  0  0  0  0  0  0  0  0  0  0  0
  145.4461  137.2766  152.8238 C   0  0  1  0  0  0  0  0  0  0  0  0
  144.2935  137.8842  152.2816 O   0  0  0  0  0  0  0  0  0  0  0  0
  146.4455  138.3683  153.2475 C   0  0  0  0  0  0  0  0  0  0  0  0
  151.2644  140.8968  156.8364 C   0  0  0  0  0  0  0  0  0  0  0  0
  152.2079  140.3117  157.6786 C   0  0  0  0  0  0  0  0  0  0  0  0
  152.5444  141.0093  158.8606 C   0  0  0  0  0  0  0  0  0  0  0  0
  153.5739  140.3966  159.7951 C   0  0  0  0  0  0  0  0  0  0  0  0
  151.7713  143.9390  160.5309 H   0  0  0  0  0  0  0  0  0  0  0  0
  153.3760  143.2157  160.4668 H   0  0  0  0  0  0  0  0  0  0  0  0
  152.0636  142.3928  161.3234 H   0  0  0  0  0  0  0  0  0  0  0  0
  150.5161  143.7798  158.5417 H   0  0  0  0  0  0  0  0  0  0  0  0
  149.2243  141.3958  154.2798 H   0  0  0  0  0  0  0  0  0  0  0  0
  151.5463  139.4372  154.0095 H   0  0  0  0  0  0  0  0  0  0  0  0
  151.8986  138.8173  155.5987 H   0  0  0  0  0  0  0  0  0  0  0  0
  149.6948  137.8863  155.8790 H   0  0  0  0  0  0  0  0  0  0  0  0
  150.0810  137.1622  153.2592 H   0  0  0  0  0  0  0  0  0  0  0  0
  148.2360  139.5946  154.7675 H   0  0  0  0  0  0  0  0  0  0  0  0
  149.0066  139.2657  153.2367 H   0  0  0  0  0  0  0  0  0  0  0  0
  148.1799  136.4944  155.5028 H   0  0  0  0  0  0  0  0  0  0  0  0
  146.8510  137.5825  155.8383 H   0  0  0  0  0  0  0  0  0  0  0  0
  146.7952  135.1302  154.0007 H   0  0  0  0  0  0  0  0  0  0  0  0
  146.0330  135.2531  155.5682 H   0  0  0  0  0  0  0  0  0  0  0  0
  144.3897  135.5944  153.7040 H   0  0  0  0  0  0  0  0  0  0  0  0
  144.4923  136.9942  154.7508 H   0  0  0  0  0  0  0  0  0  0  0  0
  145.8954  136.6529  152.0497 H   0  0  0  0  0  0  0  0  0  0  0  0
  144.4206  138.8209  152.2721 H   0  0  0  0  0  0  0  0  0  0  0  0
  145.9757  139.0664  153.9430 H   0  0  0  0  0  0  0  0  0  0  0  0
  146.7400  138.9449  152.3694 H   0  0  0  0  0  0  0  0  0  0  0  0
  152.6708  139.3640  157.4471 H   0  0  0  0  0  0  0  0  0  0  0  0
  153.9347  139.4385  159.4195 H   0  0  0  0  0  0  0  0  0  0  0  0
  153.1430  140.2258  160.7819 H   0  0  0  0  0  0  0  0  0  0  0  0
  154.4345  141.0573  159.9021 H   0  0  0  0  0  0  0  0  0  0  0  0
  148.0497  137.1534  153.1972 H   0  0  0  0  0  0  0  0  0  0  0  0
  149.1920  143.2559  156.0481 H   0  0  0  0  0  0  0  0  0  0  0  0
  1  2  1  0  0  0  0
  1 23  1  0  0  0  0
  1 24  1  0  0  0  0
  1 25  1  0  0  0  0
  2 21  1  0  0  0  0
  2  3  2  0  0  0  0
  3  4  1  0  0  0  0
  3 26  1  0  0  0  0
  4 19  2  0  0  0  0
  4  5  1  0  0  0  0
  5  6  2  0  0  0  0
  5 49  1  0  0  0  0
  6  7  1  0  0  0  0
  6 27  1  0  0  0  0
  7  8  1  0  0  0  0
  7 19  1  0  0  0  0
  8  9  1  0  0  0  0
  8 28  1  0  0  0  0
  8 29  1  0  0  0  0
  9 10  1  0  0  0  0
  9 11  1  0  0  0  0
  9 30  1  0  0  0  0
 10 31  1  0  0  0  0
 11 12  1  0  0  0  0
 11 32  1  0  0  0  0
 11 33  1  0  0  0  0
 12 18  1  0  0  0  0
 12 13  1  0  0  0  0
 12 48  1  0  0  0  0
 13 14  1  0  0  0  0
 13 34  1  0  0  0  0
 13 35  1  0  0  0  0
 14 15  1  0  0  0  0
 14 36  1  0  0  0  0
 14 37  1  0  0  0  0
 15 16  1  0  0  0  0
 15 38  1  0  0  0  0
 15 39  1  0  0  0  0
 16 17  1  0  0  0  0
 16 18  1  0  0  0  0
 16 40  1  0  0  0  0
 17 41  1  0  0  0  0
 18 42  1  0  0  0  0
 18 43  1  0  0  0  0
 19 20  1  0  0  0  0
 20 21  2  0  0  0  0
 20 44  1  0  0  0  0
 21 22  1  0  0  0  0
 22 45  1  0  0  0  0
 22 46  1  0  0  0  0
 22 47  1  0  0  0  0
M  CHG  1   5   1
M  CHG  1  12   1
M  END
> <s_m_source_file>
AV-unprocessed.smi

> <i_m_source_file_index>
1487

> <i_lp_mmshare_version>
43012

> <i_f3d_flags>
0

> <s_epik_input>
W0NIM11jKFtjSF0xKWMoW0NIM10pW2NIXWMoYzEyKW4oW2NIXW4yKVtDSDJdW0NASF0oW09IXSlbQ0gyXU4zW0NIMl1bQ0gyXVtDSDJdW0NAQEhdKFtPSF0pW0NIMl0z

> <s_epik_cmdline>
J2VwaWtfcHl0aG9uJywgJy1waCcsICc3LjAnLCAnLXRuJywgJzgnLCAnLW1hJywgJzIwMCcsICctbWV0YWxfYmluZGluZycsICctaW1hZScsICc8aW5maWxlLm1hZT4nLCAnLW9tYWUnLCAnPG91dGZpbGUubWFlPic=

> <r_epik_Ionization_Penalty>
1.1857

> <r_epik_Ionization_Penalty_Charging>
1.1857

> <r_epik_Ionization_Penalty_Neutral>
1.75578e-06

> <r_epik_State_Penalty>
1.26953

> <r_epik_Charging_Adjusted_Penalty>
2.45524

> <i_epik_Tot_Q>
2

> <i_epik_Tot_abs_Q>
2

> <r_epik_Metal_State_Penalty>
5.28243

> <b_epik_Metal_Only>
0

> <s_lp_Force_Field>
OPLS_2005

> <r_lp_Energy>
33.096

> <b_lp_Chiralities_Consistent>
1

> <s_lp_Variant>
AV-unprocessed.smi:1487-9

> <Gold.Version>
5.8.1

> <Gold.Id.Protein>
6NUR|6NUR_protein|mol2

> <Gold.PLP.Fitness>
57.2437

> <Gold.PLP.PLP>
-40.2289

> <Gold.PLP.part.hbond>
-5.8091

> <Gold.PLP.part.metal>
0.0000

> <Gold.PLP.part.buried>
-4.9115

> <Gold.PLP.part.nonpolar>
-30.8648

> <Gold.PLP.part.repulsive>
0.1149

> <Gold.PLP.ligand.clash>
0.0000

> <Gold.PLP.ligand.torsion>
0.0901

> <Gold.PLP.Chemscore.Hbond>
5.7192

> <Gold.PLP.Chemscore.CHOScore>
0.0000

> <Gold.PLP.Chemscore.Metal>
0.0000

> <Gold.Chemscore.Hbonds>
donor molecule, donor type, donor heavy atom, donor atom, acceptor molecule, acceptor atom, score
      L1  H     5    49       P1  8028  2.00
      L1  H    10    31       P1  7948  0.79
      L1  H    12    48       P1  7948  2.00
      L1  H    17    41       P1 10175  0.93

> <Gold.PLP.Chemscore.Internal.Correction>
0.0374

> <Gold.Rescore>
     Score         DG    S(hbond)    S(metal)    S(lipo)     H(rot)  DE(clash)    DE(int)     intcor
     20.91     -21.11       3.62        0.00      90.14       2.74       0.06       0.14       ----

> <Gold.Chemscore.Fitness>
20.9122

> <Gold.Chemscore.DG>
-21.1100

> <Gold.Chemscore.ZeroCoef>
-5.4800

> <Gold.Chemscore.Hbond>
3.6210

> <Gold.Chemscore.Metal>
0.0000

> <Gold.Chemscore.Lipo>
90.1393

> <Gold.Chemscore.Internal_Hbond>
0.0000

> <Gold.Chemscore.DEClash>
0.0553

> <Gold.Chemscore.DEInternal>
0.1425

> <Gold.Chemscore.Rot>
2.7384

> <Gold.Chemscore.Internal.Correction>
   9.000000E+99

> <Gold.Chemscore.Hbonds>
donor molecule, donor type, donor heavy atom, donor atom, acceptor molecule, acceptor atom, score
      L1  H     5    49       P1  8028  0.92
      L1  H    10    31       P1  7948  0.13
      L1  H    12    48       P1  7948  1.00
      L1  H    17    41       P1 10175  0.90

> <Gold.Chemscore.Hbond.Weighted>
-12.0940

> <Gold.Chemscore.Metal.Weighted>
-0.0000

> <Gold.Chemscore.Lipo.Weighted>
-10.5463

> <Gold.Chemscore.Internal_Hbond.Weighted>
0.0000

> <Gold.Chemscore.DEClash.Weighted>
0.0553

> <Gold.Chemscore.DEInternal.Weighted>
0.1425

> <Gold.Chemscore.Rot.Weighted>
7.0103

> <Gold.Chemscore.Internal.Correction.Weighted>
   9.000000E+99

> <Gold.Protein.RotatedTorsions>
[ 6907 6896 6895 6894 ] final -114.43 input  -60.11 | X-H torsion
[ 7974 7965 7964 7962 ] final -151.99 input  175.53 | X-H torsion
[ 8008 7997 7996 7995 ] final   37.74 input   59.86 | X-H torsion
[ 10167 10162 10161 10158 ] final   19.84 input  -65.29 | X-H torsion
[ 10718 10713 10712 10709 ] final -140.07 input   66.30 | X-H torsion
[ 10763 10752 10751 10750 ] final  -16.09 input  -60.55 | X-H torsion
[ 11005 11000 10999 10996 ] final   -4.79 input  -57.11 | X-H torsion

> <Gold.Protein.ActiveResidues>
 VAL166  LYS551  ARG553  GLY616  TRP617  ASP618  TYR619  PRO620  LYS621  CYS622 
 ASP623  PHE694  ASN695  SER759  ASP760  ASP761  ALA762  ILE779  LEU786  VAL792 
 PHE793  MET794  SER795  GLU796  ALA797  LYS798  CYS799  TRP800  GLU811  SER814 

> <Gold.Protein.RotatedAtoms>
  150.7902  133.8802  159.3283 H   0  0  0  0  0  0  0  0  0  0  0  0  # atno 6907 bound_to 6896
  151.6642  135.0983  160.0195 H   0  0  0  0  0  0  0  0  0  0  0  0  # atno 6908 bound_to 6896
  152.3974  133.6729  159.6323 H   0  0  0  0  0  0  0  0  0  0  0  0  # atno 6909 bound_to 6896
  144.7819  140.4723  143.5833 H   0  0  0  0  0  0  0  0  0  0  0  0  # atno 7974 bound_to 7965
  155.2088  140.3322  155.4332 H   0  0  0  0  0  0  0  0  0  0  0  0  # atno 8008 bound_to 7997
  156.2378  140.1881  156.7119 H   0  0  0  0  0  0  0  0  0  0  0  0  # atno 8009 bound_to 7997
  154.6092  140.0611  156.9457 H   0  0  0  0  0  0  0  0  0  0  0  0  # atno 8010 bound_to 7997
  140.5549  143.9442  150.6602 H   0  0  0  0  0  0  0  0  0  0  0  0  # atno 10167 bound_to 10162
  156.3181  130.7519  151.1610 H   0  0  0  0  0  0  0  0  0  0  0  0  # atno 10718 bound_to 10713
  153.5532  135.7011  153.5581 H   0  0  0  0  0  0  0  0  0  0  0  0  # atno 10763 bound_to 10752
  153.3496  135.3999  155.1635 H   0  0  0  0  0  0  0  0  0  0  0  0  # atno 10764 bound_to 10752
  154.8658  135.3762  154.5045 H   0  0  0  0  0  0  0  0  0  0  0  0  # atno 10765 bound_to 10752
  140.6841  133.9128  155.8575 H   0  0  0  0  0  0  0  0  0  0  0  0  # atno 11005 bound_to 11000
  145.6027  139.1505  143.3120 LP  0  0  0  0  0  0  0  0  0  0  0  0  # atno 17320 bound_to 7965
  146.2031  140.6147  142.9093 LP  0  0  0  0  0  0  0  0  0  0  0  0  # atno 17321 bound_to 7965
  140.2878  143.3345  152.1091 LP  0  0  0  0  0  0  0  0  0  0  0  0  # atno 17342 bound_to 10162
  139.5043  144.6773  151.6095 LP  0  0  0  0  0  0  0  0  0  0  0  0  # atno 17343 bound_to 10162
  157.7406  131.0515  150.5156 LP  0  0  0  0  0  0  0  0  0  0  0  0  # atno 17370 bound_to 10713
  156.5304  130.4183  149.6204 LP  0  0  0  0  0  0  0  0  0  0  0  0  # atno 17371 bound_to 10713
  141.0294  134.0778  157.4032 LP  0  0  0  0  0  0  0  0  0  0  0  0  # atno 17394 bound_to 11000
  139.8943  135.0135  156.6942 LP  0  0  0  0  0  0  0  0  0  0  0  0  # atno 17395 bound_to 11000

$$$$
