AV-unprocessed.smi:1216|AV-procd|sdf|5099|dock3
  -GOLD-   22720 4153D 1   1.00000     0.00000
 Structure written by MMmdl.
 43 44  0  0  0  0  0  0  0  0  2 V2000
  144.2918  137.2378  153.1195 C   0  0  0  0  0  0  0  0  0  0  0  0
  145.6608  136.7992  152.5821 C   0  0  1  0  0  0  0  0  0  0  0  0
  145.5167  136.0338  151.2486 C   0  0  0  0  0  0  0  0  0  0  0  0
  144.9294  134.6994  151.4099 N   0  0  0  0  0  0  0  0  0  0  0  0
  144.7848  133.7308  150.4497 C   0  0  0  0  0  0  0  0  0  0  0  0
  144.1930  132.6573  151.0640 C   0  0  0  0  0  0  0  0  0  0  0  0
  143.9956  133.0182  152.3699 N   0  3  0  0  0  0  0  0  0  0  0  0
  144.4401  134.2617  152.5773 C   0  0  0  0  0  0  0  0  0  0  0  0
  146.5047  137.9826  152.4233 N   0  0  0  0  0  0  0  0  0  0  0  0
  146.9825  138.7482  153.4169 C   0  0  0  0  0  0  0  0  0  0  0  0
  146.7887  138.5067  154.6094 O   0  0  0  0  0  0  0  0  0  0  0  0
  147.8304  139.9521  152.9849 C   0  0  0  0  0  0  0  0  0  0  0  0
  148.2321  140.8141  154.1069 N   0  0  0  0  0  0  0  0  0  0  0  0
  147.1981  141.7011  154.6635 C   0  0  0  0  0  0  0  0  0  0  0  0
  146.7267  141.2962  156.0795 C   0  0  0  0  0  0  0  0  0  0  0  0
  147.7742  140.6032  156.9732 C   0  0  0  0  0  0  0  0  0  0  0  0
  149.1189  141.3494  157.1019 C   0  0  0  0  0  0  0  0  0  0  0  0
  149.8370  141.7135  155.7803 C   0  0  0  0  0  0  0  0  0  0  0  0
  149.4976  140.7924  154.5968 C   0  0  0  0  0  0  0  0  0  0  0  0
  150.3819  140.0702  154.1356 O   0  0  0  0  0  0  0  0  0  0  0  0
  143.6412  136.3785  153.2850 H   0  0  0  0  0  0  0  0  0  0  0  0
  143.7863  137.9077  152.4230 H   0  0  0  0  0  0  0  0  0  0  0  0
  144.3916  137.7600  154.0718 H   0  0  0  0  0  0  0  0  0  0  0  0
  146.0989  136.1351  153.3296 H   0  0  0  0  0  0  0  0  0  0  0  0
  144.8751  136.5864  150.5608 H   0  0  0  0  0  0  0  0  0  0  0  0
  146.4845  135.9244  150.7567 H   0  0  0  0  0  0  0  0  0  0  0  0
  145.1111  133.8716  149.4295 H   0  0  0  0  0  0  0  0  0  0  0  0
  143.9048  131.6895  150.6801 H   0  0  0  0  0  0  0  0  0  0  0  0
  144.4167  134.8022  153.5068 H   0  0  0  0  0  0  0  0  0  0  0  0
  146.7221  138.2573  151.4759 H   0  0  0  0  0  0  0  0  0  0  0  0
  148.7109  139.5805  152.4597 H   0  0  0  0  0  0  0  0  0  0  0  0
  147.2804  140.5371  152.2454 H   0  0  0  0  0  0  0  0  0  0  0  0
  147.5726  142.7248  154.6774 H   0  0  0  0  0  0  0  0  0  0  0  0
  146.3335  141.7486  154.0001 H   0  0  0  0  0  0  0  0  0  0  0  0
  146.3407  142.1804  156.5876 H   0  0  0  0  0  0  0  0  0  0  0  0
  145.8766  140.6203  155.9816 H   0  0  0  0  0  0  0  0  0  0  0  0
  147.3510  140.4662  157.9687 H   0  0  0  0  0  0  0  0  0  0  0  0
  147.9533  139.5927  156.6032 H   0  0  0  0  0  0  0  0  0  0  0  0
  148.9617  142.2648  157.6735 H   0  0  0  0  0  0  0  0  0  0  0  0
  149.7901  140.7398  157.7080 H   0  0  0  0  0  0  0  0  0  0  0  0
  149.6115  142.7427  155.5022 H   0  0  0  0  0  0  0  0  0  0  0  0
  150.9153  141.7014  155.9446 H   0  0  0  0  0  0  0  0  0  0  0  0
  143.5761  132.4302  153.0791 H   0  0  0  0  0  0  0  0  0  0  0  0
  1  2  1  0  0  0  0
  1 21  1  0  0  0  0
  1 22  1  0  0  0  0
  1 23  1  0  0  0  0
  2  3  1  0  0  0  0
  2  9  1  0  0  0  0
  2 24  1  0  0  0  0
  3  4  1  0  0  0  0
  3 25  1  0  0  0  0
  3 26  1  0  0  0  0
  4  8  1  0  0  0  0
  4  5  1  0  0  0  0
  5  6  2  0  0  0  0
  5 27  1  0  0  0  0
  6  7  1  0  0  0  0
  6 28  1  0  0  0  0
  7  8  2  0  0  0  0
  7 43  1  0  0  0  0
  8 29  1  0  0  0  0
  9 10  1  0  0  0  0
  9 30  1  0  0  0  0
 10 11  2  0  0  0  0
 10 12  1  0  0  0  0
 12 13  1  0  0  0  0
 12 31  1  0  0  0  0
 12 32  1  0  0  0  0
 13 19  1  0  0  0  0
 13 14  1  0  0  0  0
 14 15  1  0  0  0  0
 14 33  1  0  0  0  0
 14 34  1  0  0  0  0
 15 16  1  0  0  0  0
 15 35  1  0  0  0  0
 15 36  1  0  0  0  0
 16 17  1  0  0  0  0
 16 37  1  0  0  0  0
 16 38  1  0  0  0  0
 17 18  1  0  0  0  0
 17 39  1  0  0  0  0
 17 40  1  0  0  0  0
 18 19  1  0  0  0  0
 18 41  1  0  0  0  0
 18 42  1  0  0  0  0
 19 20  2  0  0  0  0
M  CHG  1   7   1
M  END
> <s_m_source_file>
AV-unprocessed.smi

> <i_m_source_file_index>
1216

> <i_lp_mmshare_version>
43012

> <i_f3d_flags>
0

> <s_epik_input>
W2NIXTFuW2NIXVtjSF1uMVtDSDJdW0NAQEhdKFtDSDNdKVtOSF1DKD1PKVtDSDJdTjJbQ0gyXVtDSDJdW0NIMl1bQ0gyXVtDSDJdQzI9Tw==

> <s_epik_cmdline>
J2VwaWtfcHl0aG9uJywgJy1waCcsICc3LjAnLCAnLXRuJywgJzgnLCAnLW1hJywgJzIwMCcsICctbWV0YWxfYmluZGluZycsICctaW1hZScsICc8aW5maWxlLm1hZT4nLCAnLW9tYWUnLCAnPG91dGZpbGUubWFlPic=

> <r_lp_tautomer_probability>
1

> <r_epik_Ionization_Penalty>
0.254232

> <r_epik_Ionization_Penalty_Charging>
0

> <r_epik_Ionization_Penalty_Neutral>
0.254232

> <r_epik_State_Penalty>
0.245698

> <r_epik_Charging_Adjusted_Penalty>
0.245698

> <i_epik_Tot_Q>
1

> <i_epik_Tot_abs_Q>
1

> <r_epik_Metal_State_Penalty>
0.535799

> <b_epik_Metal_Only>
0

> <s_lp_Force_Field>
OPLS_2005

> <r_lp_Energy>
21.2202

> <b_lp_Chiralities_Consistent>
1

> <s_lp_Variant>
AV-unprocessed.smi:1216-2

> <Gold.Version>
5.8.1

> <Gold.Id.Protein>
6NUR|6NUR_protein|mol2

> <Gold.PLP.Fitness>
43.4211

> <Gold.PLP.PLP>
-32.2590

> <Gold.PLP.part.hbond>
-2.8374

> <Gold.PLP.part.metal>
0.0000

> <Gold.PLP.part.buried>
1.0746

> <Gold.PLP.part.nonpolar>
-31.7679

> <Gold.PLP.part.repulsive>
0.2983

> <Gold.PLP.ligand.clash>
0.0000

> <Gold.PLP.ligand.torsion>
0.4223

> <Gold.PLP.Chemscore.Hbond>
2.9825

> <Gold.PLP.Chemscore.CHOScore>
1.0000

> <Gold.PLP.Chemscore.Metal>
0.0000

> <Gold.Chemscore.Hbonds>
donor molecule, donor type, donor heavy atom, donor atom, acceptor molecule, acceptor atom, score
      L1  H     7    43       P1 10957  1.40
      P1  H  7989  7998       L1    20  1.00
      L1  C     5    27       P1  7921  1.00

> <Gold.PLP.Chemscore.Internal.Correction>
0.0592

> <Gold.Rescore>
     Score         DG    S(hbond)    S(metal)    S(lipo)     H(rot)  DE(clash)    DE(int)     intcor
     10.26     -11.32       1.90        0.00      44.16       2.22       0.47       0.60       ----

> <Gold.Chemscore.Fitness>
10.2591

> <Gold.Chemscore.DG>
-11.3241

> <Gold.Chemscore.ZeroCoef>
-5.4800

> <Gold.Chemscore.Hbond>
1.9013

> <Gold.Chemscore.Metal>
0.0000

> <Gold.Chemscore.Lipo>
44.1638

> <Gold.Chemscore.Internal_Hbond>
0.0000

> <Gold.Chemscore.DEClash>
0.4685

> <Gold.Chemscore.DEInternal>
0.5965

> <Gold.Chemscore.Rot>
2.2161

> <Gold.Chemscore.Internal.Correction>
   9.000000E+99

> <Gold.Chemscore.Hbonds>
donor molecule, donor type, donor heavy atom, donor atom, acceptor molecule, acceptor atom, score
      L1  H     7    43       P1 10957  0.07
      P1  H  7989  7998       L1    20  0.85

> <Gold.Chemscore.Hbond.Weighted>
-6.3502

> <Gold.Chemscore.Metal.Weighted>
-0.0000

> <Gold.Chemscore.Lipo.Weighted>
-5.1672

> <Gold.Chemscore.Internal_Hbond.Weighted>
0.0000

> <Gold.Chemscore.DEClash.Weighted>
0.4685

> <Gold.Chemscore.DEInternal.Weighted>
0.5965

> <Gold.Chemscore.Rot.Weighted>
5.6733

> <Gold.Chemscore.Internal.Correction.Weighted>
   9.000000E+99

> <Gold.Protein.RotatedTorsions>
[ 6907 6896 6895 6894 ] final -130.34 input  -60.11 | X-H torsion
[ 7974 7965 7964 7962 ] final   57.61 input  175.53 | X-H torsion
[ 8008 7997 7996 7995 ] final   68.76 input   59.86 | X-H torsion
[ 10167 10162 10161 10158 ] final  172.44 input  -65.29 | X-H torsion
[ 10718 10713 10712 10709 ] final -163.40 input   66.30 | X-H torsion
[ 10763 10752 10751 10750 ] final  124.16 input  -60.55 | X-H torsion
[ 11005 11000 10999 10996 ] final  174.26 input  -57.11 | X-H torsion

> <Gold.Protein.ActiveResidues>
 VAL166  LYS551  ARG553  GLY616  TRP617  ASP618  TYR619  PRO620  LYS621  CYS622 
 ASP623  PHE694  ASN695  SER759  ASP760  ASP761  ALA762  ILE779  LEU786  VAL792 
 PHE793  MET794  SER795  GLU796  ALA797  LYS798  CYS799  TRP800  GLU811  SER814 

> <Gold.Protein.RotatedAtoms>
  150.9387  133.6682  159.2795 H   0  0  0  0  0  0  0  0  0  0  0  0  # atno 6907 bound_to 6896
  151.4078  135.0979  159.9585 H   0  0  0  0  0  0  0  0  0  0  0  0  # atno 6908 bound_to 6896
  152.5059  133.8866  159.7428 H   0  0  0  0  0  0  0  0  0  0  0  0  # atno 6909 bound_to 6896
  145.9272  139.3777  143.0443 H   0  0  0  0  0  0  0  0  0  0  0  0  # atno 7974 bound_to 7965
  155.7132  140.3494  155.4983 H   0  0  0  0  0  0  0  0  0  0  0  0  # atno 8008 bound_to 7997
  155.9336  140.1089  157.1134 H   0  0  0  0  0  0  0  0  0  0  0  0  # atno 8009 bound_to 7997
  154.4090  140.1226  156.4822 H   0  0  0  0  0  0  0  0  0  0  0  0  # atno 8010 bound_to 7997
  139.5076  144.3374  152.0052 H   0  0  0  0  0  0  0  0  0  0  0  0  # atno 10167 bound_to 10162
  156.6241  130.8902  151.2964 H   0  0  0  0  0  0  0  0  0  0  0  0  # atno 10718 bound_to 10713
  153.6570  135.3353  155.3116 H   0  0  0  0  0  0  0  0  0  0  0  0  # atno 10763 bound_to 10752
  154.8524  135.4354  154.1844 H   0  0  0  0  0  0  0  0  0  0  0  0  # atno 10764 bound_to 10752
  153.2801  135.7008  153.7469 H   0  0  0  0  0  0  0  0  0  0  0  0  # atno 10765 bound_to 10752
  140.3493  134.7208  157.4257 H   0  0  0  0  0  0  0  0  0  0  0  0  # atno 11005 bound_to 11000
  145.8474  140.9548  143.0768 LP  0  0  0  0  0  0  0  0  0  0  0  0  # atno 17320 bound_to 7965
  144.6760  140.0362  143.7482 LP  0  0  0  0  0  0  0  0  0  0  0  0  # atno 17321 bound_to 7965
  140.2812  144.3857  150.6118 LP  0  0  0  0  0  0  0  0  0  0  0  0  # atno 17342 bound_to 10162
  140.6016  143.2167  151.7060 LP  0  0  0  0  0  0  0  0  0  0  0  0  # atno 17343 bound_to 10162
  157.7219  130.9570  150.1474 LP  0  0  0  0  0  0  0  0  0  0  0  0  # atno 17370 bound_to 10713
  156.2288  130.3680  149.8469 LP  0  0  0  0  0  0  0  0  0  0  0  0  # atno 17371 bound_to 10713
  140.0716  134.5855  155.8636 LP  0  0  0  0  0  0  0  0  0  0  0  0  # atno 17394 bound_to 11000
  141.2016  133.6620  156.5962 LP  0  0  0  0  0  0  0  0  0  0  0  0  # atno 17395 bound_to 11000

$$$$
