AV-unprocessed.smi:1819|AV-procd|sdf|7383|dock8
  -GOLD-   22720 9 53D 1   1.00000     0.00000
 Structure written by MMmdl.
 28 28  0  0  0  0  0  0  0  0  2 V2000
  145.9347  138.8516  154.7329 O   0  0  0  0  0  0  0  0  0  0  0  0
  146.6785  138.6199  153.7790 C   0  0  0  0  0  0  0  0  0  0  0  0
  147.6228  139.7067  153.2522 C   0  0  0  0  0  0  0  0  0  0  0  0
  148.9124  139.7105  153.9608 N   0  0  0  0  0  0  0  0  0  0  0  0
  149.5350  138.4726  154.1985 C   0  0  0  0  0  0  0  0  0  0  0  0
  150.7124  138.3825  154.8460 C   0  0  0  0  0  0  0  0  0  0  0  0
  151.3437  139.6135  155.3056 C   0  0  0  0  0  0  0  0  0  0  0  0
  152.4212  139.5507  155.8943 O   0  0  0  0  0  0  0  0  0  0  0  0
  150.6977  140.7899  155.0549 N   0  5  0  0  0  0  0  0  0  0  0  0
  149.4993  140.8663  154.3972 C   0  0  0  0  0  0  0  0  0  0  0  0
  148.9319  141.9388  154.1838 O   0  0  0  0  0  0  0  0  0  0  0  0
  146.7299  137.4352  153.1513 N   0  0  0  0  0  0  0  0  0  0  0  0
  145.8754  136.2869  153.4349 C   0  0  0  0  0  0  0  0  0  0  0  0
  145.6709  135.4154  152.1849 C   0  0  0  0  0  0  0  0  0  0  0  0
  144.5489  134.0166  152.4813 S   0  0  0  0  0  0  0  0  0  0  0  0
  145.0176  132.9273  151.1101 C   0  0  0  0  0  0  0  0  0  0  0  0
  144.3825  133.3002  150.0004 F   0  0  0  0  0  0  0  0  0  0  0  0
  146.3307  132.9949  150.8943 F   0  0  0  0  0  0  0  0  0  0  0  0
  144.6856  131.6671  151.3882 F   0  0  0  0  0  0  0  0  0  0  0  0
  147.7696  139.5411  152.1842 H   0  0  0  0  0  0  0  0  0  0  0  0
  147.1521  140.6889  153.3296 H   0  0  0  0  0  0  0  0  0  0  0  0
  148.9990  137.6094  153.8323 H   0  0  0  0  0  0  0  0  0  0  0  0
  151.1764  137.4235  155.0236 H   0  0  0  0  0  0  0  0  0  0  0  0
  147.3765  137.3412  152.3817 H   0  0  0  0  0  0  0  0  0  0  0  0
  146.3694  135.6965  154.2068 H   0  0  0  0  0  0  0  0  0  0  0  0
  144.9143  136.5904  153.8530 H   0  0  0  0  0  0  0  0  0  0  0  0
  145.2841  136.0192  151.3633 H   0  0  0  0  0  0  0  0  0  0  0  0
  146.6310  135.0159  151.8582 H   0  0  0  0  0  0  0  0  0  0  0  0
  1  2  2  0  0  0  0
  2  3  1  0  0  0  0
  2 12  1  0  0  0  0
  3  4  1  0  0  0  0
  3 20  1  0  0  0  0
  3 21  1  0  0  0  0
  4 10  1  0  0  0  0
  4  5  1  0  0  0  0
  5  6  2  0  0  0  0
  5 22  1  0  0  0  0
  6  7  1  0  0  0  0
  6 23  1  0  0  0  0
  7  8  2  0  0  0  0
  7  9  1  0  0  0  0
  9 10  1  0  0  0  0
 10 11  2  0  0  0  0
 12 13  1  0  0  0  0
 12 24  1  0  0  0  0
 13 14  1  0  0  0  0
 13 25  1  0  0  0  0
 13 26  1  0  0  0  0
 14 15  1  0  0  0  0
 14 27  1  0  0  0  0
 14 28  1  0  0  0  0
 15 16  1  0  0  0  0
 16 17  1  0  0  0  0
 16 18  1  0  0  0  0
 16 19  1  0  0  0  0
M  CHG  1   9  -1
M  END
> <s_m_source_file>
AV-unprocessed.smi

> <i_m_source_file_index>
1819

> <i_lp_mmshare_version>
43012

> <i_f3d_flags>
0

> <s_epik_input>
RkMoRikoRilTW0NIMl1bQ0gyXVtOSF1DKD1PKVtDSDJdbjFbY0hdW2NIXWMoPU8pW25IXWMxPU8=

> <s_epik_cmdline>
J2VwaWtfcHl0aG9uJywgJy1waCcsICc3LjAnLCAnLXRuJywgJzgnLCAnLW1hJywgJzIwMCcsICctbWV0YWxfYmluZGluZycsICctaW1hZScsICc8aW5maWxlLm1hZT4nLCAnLW9tYWUnLCAnPG91dGZpbGUubWFlPic=

> <r_lp_tautomer_probability>
0.999537

> <r_epik_Ionization_Penalty>
3.04617

> <r_epik_Ionization_Penalty_Charging>
2.49125e-08

> <r_epik_Ionization_Penalty_Neutral>
3.04617

> <r_epik_State_Penalty>
3.04516

> <r_epik_Charging_Adjusted_Penalty>
3.04516

> <i_epik_Tot_Q>
-1

> <i_epik_Tot_abs_Q>
1

> <r_epik_Metal_State_Penalty>
0.457105

> <b_epik_Metal_Only>
1

> <s_lp_Force_Field>
OPLS_2005

> <r_lp_Energy>
9.91428

> <b_lp_Chiralities_Consistent>
1

> <s_lp_Variant>
AV-unprocessed.smi:1819-2

> <Gold.Version>
5.8.1

> <Gold.Id.Protein>
6NUR|6NUR_protein|mol2

> <Gold.PLP.Fitness>
39.3310

> <Gold.PLP.PLP>
-31.5908

> <Gold.PLP.part.hbond>
-3.9561

> <Gold.PLP.part.metal>
0.0000

> <Gold.PLP.part.buried>
1.6179

> <Gold.PLP.part.nonpolar>
-28.0940

> <Gold.PLP.part.repulsive>
0.4099

> <Gold.PLP.ligand.clash>
0.0000

> <Gold.PLP.ligand.torsion>
1.1990

> <Gold.PLP.Chemscore.Hbond>
2.3528

> <Gold.PLP.Chemscore.CHOScore>
1.0000

> <Gold.PLP.Chemscore.Metal>
0.0000

> <Gold.Chemscore.Hbonds>
donor molecule, donor type, donor heavy atom, donor atom, acceptor molecule, acceptor atom, score
      L1  H    12    24       P1  7948  0.80
      P1  H  7989  7998       L1     9  0.20
      P1  H  7997  8009       L1     8  0.99
      P1  H  8011  8017       L1    11  0.37
      L1  C     5    22       P1  7948  1.00

> <Gold.PLP.Chemscore.Internal.Correction>
0.0798

> <Gold.Rescore>
     Score         DG    S(hbond)    S(metal)    S(lipo)     H(rot)  DE(clash)    DE(int)     intcor
      7.82      -8.72       1.95        0.00      34.86       2.88       0.05       0.85       ----

> <Gold.Chemscore.Fitness>
7.8167

> <Gold.Chemscore.DG>
-8.7182

> <Gold.Chemscore.ZeroCoef>
-5.4800

> <Gold.Chemscore.Hbond>
1.9520

> <Gold.Chemscore.Metal>
0.0000

> <Gold.Chemscore.Lipo>
34.8620

> <Gold.Chemscore.Internal_Hbond>
0.0000

> <Gold.Chemscore.DEClash>
0.0476

> <Gold.Chemscore.DEInternal>
0.8539

> <Gold.Chemscore.Rot>
2.8751

> <Gold.Chemscore.Internal.Correction>
   9.000000E+99

> <Gold.Chemscore.Hbonds>
donor molecule, donor type, donor heavy atom, donor atom, acceptor molecule, acceptor atom, score
      L1  H    12    24       P1  7948  0.77
      P1  H  7997  8009       L1     8  0.92
      P1  H  8011  8017       L1    11  0.09

> <Gold.Chemscore.Hbond.Weighted>
-6.5197

> <Gold.Chemscore.Metal.Weighted>
-0.0000

> <Gold.Chemscore.Lipo.Weighted>
-4.0789

> <Gold.Chemscore.Internal_Hbond.Weighted>
0.0000

> <Gold.Chemscore.DEClash.Weighted>
0.0476

> <Gold.Chemscore.DEInternal.Weighted>
0.8539

> <Gold.Chemscore.Rot.Weighted>
7.3603

> <Gold.Chemscore.Internal.Correction.Weighted>
   9.000000E+99

> <Gold.Protein.RotatedTorsions>
[ 6907 6896 6895 6894 ] final  152.48 input  -60.11 | X-H torsion
[ 7974 7965 7964 7962 ] final   -8.31 input  175.53 | X-H torsion
[ 8008 7997 7996 7995 ] final -159.52 input   59.86 | X-H torsion
[ 10167 10162 10161 10158 ] final  154.16 input  -65.29 | X-H torsion
[ 10718 10713 10712 10709 ] final -150.52 input   66.30 | X-H torsion
[ 10763 10752 10751 10750 ] final  162.92 input  -60.55 | X-H torsion
[ 11005 11000 10999 10996 ] final  -24.78 input  -57.11 | X-H torsion

> <Gold.Protein.ActiveResidues>
 VAL166  LYS551  ARG553  GLY616  TRP617  ASP618  TYR619  PRO620  LYS621  CYS622 
 ASP623  PHE694  ASN695  SER759  ASP760  ASP761  ALA762  ILE779  LEU786  VAL792 
 PHE793  MET794  SER795  GLU796  ALA797  LYS798  CYS799  TRP800  GLU811  SER814 

> <Gold.Protein.RotatedAtoms>
  152.0862  133.4177  159.4522 H   0  0  0  0  0  0  0  0  0  0  0  0  # atno 6907 bound_to 6896
  150.6862  134.2925  159.4682 H   0  0  0  0  0  0  0  0  0  0  0  0  # atno 6908 bound_to 6896
  152.0772  134.9494  160.0624 H   0  0  0  0  0  0  0  0  0  0  0  0  # atno 6909 bound_to 6896
  146.2284  140.2449  142.8345 H   0  0  0  0  0  0  0  0  0  0  0  0  # atno 7974 bound_to 7965
  155.7638  140.0842  157.2142 H   0  0  0  0  0  0  0  0  0  0  0  0  # atno 8008 bound_to 7997
  154.4001  140.1538  156.2920 H   0  0  0  0  0  0  0  0  0  0  0  0  # atno 8009 bound_to 7997
  155.8814  140.3420  155.5893 H   0  0  0  0  0  0  0  0  0  0  0  0  # atno 8010 bound_to 7997
  139.4824  144.5210  151.7875 H   0  0  0  0  0  0  0  0  0  0  0  0  # atno 10167 bound_to 10162
  156.4473  130.8150  151.2381 H   0  0  0  0  0  0  0  0  0  0  0  0  # atno 10718 bound_to 10713
  154.2857  135.2762  155.2677 H   0  0  0  0  0  0  0  0  0  0  0  0  # atno 10763 bound_to 10752
  154.5178  135.5764  153.6660 H   0  0  0  0  0  0  0  0  0  0  0  0  # atno 10764 bound_to 10752
  152.9922  135.6197  154.3019 H   0  0  0  0  0  0  0  0  0  0  0  0  # atno 10765 bound_to 10752
  140.8877  133.7610  156.0381 H   0  0  0  0  0  0  0  0  0  0  0  0  # atno 11005 bound_to 11000
  144.9456  140.8124  143.5603 LP  0  0  0  0  0  0  0  0  0  0  0  0  # atno 17320 bound_to 7965
  145.2405  139.2075  143.4995 LP  0  0  0  0  0  0  0  0  0  0  0  0  # atno 17321 bound_to 7965
  140.4724  144.1567  150.5920 LP  0  0  0  0  0  0  0  0  0  0  0  0  # atno 17342 bound_to 10162
  140.4367  143.2544  151.9526 LP  0  0  0  0  0  0  0  0  0  0  0  0  # atno 17343 bound_to 10162
  157.7504  131.0149  150.3483 LP  0  0  0  0  0  0  0  0  0  0  0  0  # atno 17370 bound_to 10713
  156.3854  130.3888  149.7070 LP  0  0  0  0  0  0  0  0  0  0  0  0  # atno 17371 bound_to 10713
  140.8385  134.3095  157.5322 LP  0  0  0  0  0  0  0  0  0  0  0  0  # atno 17394 bound_to 11000
  139.8726  134.9403  156.3765 LP  0  0  0  0  0  0  0  0  0  0  0  0  # atno 17395 bound_to 11000

$$$$
