AV-unprocessed.smi:1360|AV-procd|sdf|5552|dock9
  -GOLD-   22720 5143D 1   1.00000     0.00000
 Structure written by MMmdl.
 36 37  0  0  0  0  0  0  0  0  1 V2000
  155.8052  139.4185  159.4992 C   0  0  0  0  0  0  0  0  0  0  0  0
  154.8364  139.4115  160.6931 C   0  0  1  0  0  0  0  0  0  0  0  0
  155.5520  139.3046  162.0575 C   0  0  0  0  0  0  0  0  0  0  0  0
  154.9641  138.2966  162.9214 N   0  0  0  0  0  0  0  0  0  0  0  0
  153.9936  137.3673  162.6114 C   0  0  0  0  0  0  0  0  0  0  0  0
  153.7592  136.6331  163.7386 C   0  0  0  0  0  0  0  0  0  0  0  0
  154.6437  137.1978  164.6996 C   0  0  0  0  0  0  0  0  0  0  0  0
  155.3631  138.1938  164.2081 N   0  0  0  0  0  0  0  0  0  0  0  0
  154.0159  140.6184  160.6489 N   0  0  0  0  0  0  0  0  0  0  0  0
  153.2960  141.0342  159.5950 C   0  0  0  0  0  0  0  0  0  0  0  0
  153.2476  140.4234  158.5267 O   0  0  0  0  0  0  0  0  0  0  0  0
  152.5104  142.3399  159.7770 C   0  0  2  0  0  0  0  0  0  0  0  0
  152.7870  143.3292  158.6209 C   0  0  0  0  0  0  0  0  0  0  0  0
  152.2270  144.7122  158.9048 C   0  0  0  0  0  0  0  0  0  0  0  0
  151.8485  145.1197  160.1284 C   0  0  0  0  0  0  0  0  0  0  0  0
  151.9433  144.2460  161.3668 C   0  0  0  0  0  0  0  0  0  0  0  0
  152.8193  142.9998  161.1358 C   0  0  0  0  0  0  0  0  0  0  0  0
  156.3733  138.4901  159.4393 H   0  0  0  0  0  0  0  0  0  0  0  0
  156.5176  140.2409  159.5720 H   0  0  0  0  0  0  0  0  0  0  0  0
  155.2657  139.5274  158.5578 H   0  0  0  0  0  0  0  0  0  0  0  0
  154.1838  138.5442  160.5751 H   0  0  0  0  0  0  0  0  0  0  0  0
  156.6092  139.0747  161.9137 H   0  0  0  0  0  0  0  0  0  0  0  0
  155.5118  140.2593  162.5837 H   0  0  0  0  0  0  0  0  0  0  0  0
  153.5583  137.3060  161.6247 H   0  0  0  0  0  0  0  0  0  0  0  0
  153.0618  135.8175  163.8588 H   0  0  0  0  0  0  0  0  0  0  0  0
  154.7831  136.9158  165.7330 H   0  0  0  0  0  0  0  0  0  0  0  0
  153.9963  141.1840  161.4851 H   0  0  0  0  0  0  0  0  0  0  0  0
  151.4455  142.0992  159.7641 H   0  0  0  0  0  0  0  0  0  0  0  0
  153.8566  143.4332  158.4327 H   0  0  0  0  0  0  0  0  0  0  0  0
  152.3381  142.9548  157.7003 H   0  0  0  0  0  0  0  0  0  0  0  0
  152.1505  145.3883  158.0660 H   0  0  0  0  0  0  0  0  0  0  0  0
  151.4444  146.1123  160.2627 H   0  0  0  0  0  0  0  0  0  0  0  0
  152.3441  144.8339  162.1928 H   0  0  0  0  0  0  0  0  0  0  0  0
  150.9327  143.9494  161.6489 H   0  0  0  0  0  0  0  0  0  0  0  0
  152.6714  142.2924  161.9529 H   0  0  0  0  0  0  0  0  0  0  0  0
  153.8704  143.2916  161.1682 H   0  0  0  0  0  0  0  0  0  0  0  0
  1  2  1  0  0  0  0
  1 18  1  0  0  0  0
  1 19  1  0  0  0  0
  1 20  1  0  0  0  0
  2  3  1  0  0  0  0
  2  9  1  0  0  0  0
  2 21  1  0  0  0  0
  3  4  1  0  0  0  0
  3 22  1  0  0  0  0
  3 23  1  0  0  0  0
  4  8  1  0  0  0  0
  4  5  1  0  0  0  0
  5  6  2  0  0  0  0
  5 24  1  0  0  0  0
  6  7  1  0  0  0  0
  6 25  1  0  0  0  0
  7  8  2  0  0  0  0
  7 26  1  0  0  0  0
  9 10  1  0  0  0  0
  9 27  1  0  0  0  0
 10 11  2  0  0  0  0
 10 12  1  0  0  0  0
 12 17  1  0  0  0  0
 12 13  1  0  0  0  0
 12 28  1  0  0  0  0
 13 14  1  0  0  0  0
 13 29  1  0  0  0  0
 13 30  1  0  0  0  0
 14 15  2  0  0  0  0
 14 31  1  0  0  0  0
 15 16  1  0  0  0  0
 15 32  1  0  0  0  0
 16 17  1  0  0  0  0
 16 33  1  0  0  0  0
 16 34  1  0  0  0  0
 17 35  1  0  0  0  0
 17 36  1  0  0  0  0
M  END
> <s_m_source_file>
AV-unprocessed.smi

> <i_m_source_file_index>
1360

> <i_lp_mmshare_version>
43012

> <i_f3d_flags>
0

> <s_epik_input>
bjFbY0hdW2NIXVtjSF1uMVtDSDJdW0NAQEhdKFtDSDNdKVtOSF1DKD1PKVtDQEBIXTJbQ0gyXVtDSF09W0NIXVtDSDJdW0NIMl0y

> <s_epik_cmdline>
J2VwaWtfcHl0aG9uJywgJy1waCcsICc3LjAnLCAnLXRuJywgJzgnLCAnLW1hJywgJzIwMCcsICctbWV0YWxfYmluZGluZycsICctaW1hZScsICc8aW5maWxlLm1hZT4nLCAnLW9tYWUnLCAnPG91dGZpbGUubWFlPic=

> <r_lp_tautomer_probability>
1

> <r_epik_Ionization_Penalty>
0.000315076

> <r_epik_Ionization_Penalty_Charging>
0

> <r_epik_Ionization_Penalty_Neutral>
0.000315076

> <r_epik_State_Penalty>
-0

> <r_epik_Charging_Adjusted_Penalty>
0

> <i_epik_Tot_Q>
0

> <i_epik_Tot_abs_Q>
0

> <r_epik_Metal_State_Penalty>
-0

> <b_epik_Metal_Only>
0

> <s_lp_Force_Field>
OPLS_2005

> <r_lp_Energy>
7.97441

> <b_lp_Chiralities_Consistent>
1

> <s_lp_Variant>
AV-unprocessed.smi:1360-2

> <Gold.Version>
5.8.1

> <Gold.Id.Protein>
6NUR|6NUR_protein|mol2

> <Gold.PLP.Fitness>
43.4814

> <Gold.PLP.PLP>
-44.1594

> <Gold.PLP.part.hbond>
-1.0000

> <Gold.PLP.part.metal>
0.0000

> <Gold.PLP.part.buried>
-3.0214

> <Gold.PLP.part.nonpolar>
-40.0033

> <Gold.PLP.part.repulsive>
0.0672

> <Gold.PLP.ligand.clash>
1.4693

> <Gold.PLP.ligand.torsion>
0.8586

> <Gold.PLP.Chemscore.Hbond>
0.8247

> <Gold.PLP.Chemscore.CHOScore>
0.0000

> <Gold.PLP.Chemscore.Metal>
0.0000

> <Gold.Chemscore.Hbonds>
donor molecule, donor type, donor heavy atom, donor atom, acceptor molecule, acceptor atom, score
      P1  H  7997  8009       L1    11  0.81

> <Gold.PLP.Chemscore.Internal.Correction>
0.0342

> <Gold.Rescore>
     Score         DG    S(hbond)    S(metal)    S(lipo)     H(rot)  DE(clash)    DE(int)     intcor
     15.92     -18.13       0.88        0.00     115.86       1.51       0.09       2.12       ----

> <Gold.Chemscore.Fitness>
15.9227

> <Gold.Chemscore.DG>
-18.1312

> <Gold.Chemscore.ZeroCoef>
-5.4800

> <Gold.Chemscore.Hbond>
0.8832

> <Gold.Chemscore.Metal>
0.0000

> <Gold.Chemscore.Lipo>
115.8617

> <Gold.Chemscore.Internal_Hbond>
0.0000

> <Gold.Chemscore.DEClash>
0.0915

> <Gold.Chemscore.DEInternal>
2.1171

> <Gold.Chemscore.Rot>
1.5057

> <Gold.Chemscore.Internal.Correction>
   9.000000E+99

> <Gold.Chemscore.Hbonds>
donor molecule, donor type, donor heavy atom, donor atom, acceptor molecule, acceptor atom, score
      P1  H  7997  8009       L1    11  0.77

> <Gold.Chemscore.Hbond.Weighted>
-2.9500

> <Gold.Chemscore.Metal.Weighted>
-0.0000

> <Gold.Chemscore.Lipo.Weighted>
-13.5558

> <Gold.Chemscore.Internal_Hbond.Weighted>
0.0000

> <Gold.Chemscore.DEClash.Weighted>
0.0915

> <Gold.Chemscore.DEInternal.Weighted>
2.1171

> <Gold.Chemscore.Rot.Weighted>
3.8546

> <Gold.Chemscore.Internal.Correction.Weighted>
   9.000000E+99

> <Gold.Protein.RotatedTorsions>
[ 6907 6896 6895 6894 ] final -147.51 input  -60.11 | X-H torsion
[ 7974 7965 7964 7962 ] final   80.06 input  175.53 | X-H torsion
[ 8008 7997 7996 7995 ] final  147.93 input   59.86 | X-H torsion
[ 10167 10162 10161 10158 ] final   -8.53 input  -65.29 | X-H torsion
[ 10718 10713 10712 10709 ] final  -35.60 input   66.30 | X-H torsion
[ 10763 10752 10751 10750 ] final  164.35 input  -60.55 | X-H torsion
[ 11005 11000 10999 10996 ] final -100.74 input  -57.11 | X-H torsion

> <Gold.Protein.ActiveResidues>
 VAL166  LYS551  ARG553  GLY616  TRP617  ASP618  TYR619  PRO620  LYS621  CYS622 
 ASP623  PHE694  ASN695  SER759  ASP760  ASP761  ALA762  ILE779  LEU786  VAL792 
 PHE793  MET794  SER795  GLU796  ALA797  LYS798  CYS799  TRP800  GLU811  SER814 

> <Gold.Protein.RotatedAtoms>
  151.1566  133.4872  159.2594 H   0  0  0  0  0  0  0  0  0  0  0  0  # atno 6907 bound_to 6896
  151.1497  135.0221  159.8673 H   0  0  0  0  0  0  0  0  0  0  0  0  # atno 6908 bound_to 6896
  152.5463  134.1452  159.8548 H   0  0  0  0  0  0  0  0  0  0  0  0  # atno 6909 bound_to 6896
  145.6561  139.2459  143.1949 H   0  0  0  0  0  0  0  0  0  0  0  0  # atno 7974 bound_to 7965
  156.2808  140.2142  156.5617 H   0  0  0  0  0  0  0  0  0  0  0  0  # atno 8008 bound_to 7997
  154.7208  140.0504  157.0660 H   0  0  0  0  0  0  0  0  0  0  0  0  # atno 8009 bound_to 7997
  155.0481  140.3153  155.4704 H   0  0  0  0  0  0  0  0  0  0  0  0  # atno 8010 bound_to 7997
  140.7062  143.5958  150.8847 H   0  0  0  0  0  0  0  0  0  0  0  0  # atno 10167 bound_to 10162
  156.3367  130.4287  149.7823 H   0  0  0  0  0  0  0  0  0  0  0  0  # atno 10718 bound_to 10713
  154.3076  135.2758  155.2581 H   0  0  0  0  0  0  0  0  0  0  0  0  # atno 10763 bound_to 10752
  154.4991  135.5813  153.6521 H   0  0  0  0  0  0  0  0  0  0  0  0  # atno 10764 bound_to 10752
  152.9892  135.6153  154.3250 H   0  0  0  0  0  0  0  0  0  0  0  0  # atno 10765 bound_to 10752
  141.1258  133.8423  157.1142 H   0  0  0  0  0  0  0  0  0  0  0  0  # atno 11005 bound_to 11000
  146.1163  140.7365  142.9479 LP  0  0  0  0  0  0  0  0  0  0  0  0  # atno 17320 bound_to 7965
  144.7105  140.4021  143.7084 LP  0  0  0  0  0  0  0  0  0  0  0  0  # atno 17321 bound_to 7965
  139.9683  143.6085  152.2981 LP  0  0  0  0  0  0  0  0  0  0  0  0  # atno 17342 bound_to 10162
  139.6663  144.7662  151.1867 LP  0  0  0  0  0  0  0  0  0  0  0  0  # atno 17343 bound_to 10162
  156.5075  130.8157  151.3156 LP  0  0  0  0  0  0  0  0  0  0  0  0  # atno 17370 bound_to 10713
  157.7440  130.9925  150.2637 LP  0  0  0  0  0  0  0  0  0  0  0  0  # atno 17371 bound_to 10713
  140.0256  134.9925  157.0680 LP  0  0  0  0  0  0  0  0  0  0  0  0  # atno 17394 bound_to 11000
  140.4368  134.1723  155.7171 LP  0  0  0  0  0  0  0  0  0  0  0  0  # atno 17395 bound_to 11000

$$$$
