AV-unprocessed.smi:135|AV-procd|sdf|1169|dock2
  -GOLD-   2262018313D 1   1.00000     0.00000
 Structure written by MMmdl.
 51 54  0  0  0  0  0  0  0  0  1 V2000
  154.7937  137.9947  159.8449 O   0  0  0  0  0  0  0  0  0  0  0  0
  155.4248  138.5860  160.7220 C   0  0  0  0  0  0  0  0  0  0  0  0
  155.8144  140.0614  160.5450 C   0  0  0  0  0  0  0  0  0  0  0  0
  154.7238  141.0020  160.8811 N   0  0  0  0  0  0  0  0  0  0  0  0
  154.6838  141.5503  162.1867 C   0  0  0  0  0  0  0  0  0  0  0  0
  155.5373  141.2620  163.0269 O   0  0  0  0  0  0  0  0  0  0  0  0
  153.5729  142.4562  162.4551 C   0  0  0  0  0  0  0  0  0  0  0  0
  153.4527  143.0190  163.6695 F   0  0  0  0  0  0  0  0  0  0  0  0
  152.6590  142.7379  161.5037 C   0  0  0  0  0  0  0  0  0  0  0  0
  152.7135  142.1999  160.2296 N   0  0  0  0  0  0  0  0  0  0  0  0
  151.6603  142.5010  159.1819 C   0  0  2  0  0  0  0  0  0  0  0  0
  152.1824  143.5293  158.1573 C   0  0  0  0  0  0  0  0  0  0  0  0
  151.1207  144.6114  158.1898 C   0  0  0  0  0  0  0  0  0  0  0  0
  150.5780  144.4818  159.6044 C   0  0  0  0  0  0  0  0  0  0  0  0
  150.5363  143.0734  159.7877 O   0  0  0  0  0  0  0  0  0  0  0  0
  153.7479  141.2968  159.8997 C   0  0  0  0  0  0  0  0  0  0  0  0
  153.7934  140.7768  158.7827 O   0  0  0  0  0  0  0  0  0  0  0  0
  155.8211  138.0253  161.8775 N   0  0  0  0  0  0  0  0  0  0  0  0
  155.5775  136.7024  162.3323 C   0  0  0  0  0  0  0  0  0  0  0  0
  155.6216  135.5870  161.4620 C   0  0  0  0  0  0  0  0  0  0  0  0
  155.4157  134.2872  161.9620 C   0  0  0  0  0  0  0  0  0  0  0  0
  155.1780  134.0891  163.3345 C   0  0  0  0  0  0  0  0  0  0  0  0
  155.1468  135.1922  164.2077 C   0  0  0  0  0  0  0  0  0  0  0  0
  155.3405  136.4984  163.7131 C   0  0  0  0  0  0  0  0  0  0  0  0
  155.3035  137.5540  164.5902 O   0  0  0  0  0  0  0  0  0  0  0  0
  156.5017  138.1316  164.9293 C   0  0  0  0  0  0  0  0  0  0  0  0
  157.6435  137.3451  165.1999 C   0  0  0  0  0  0  0  0  0  0  0  0
  158.8612  137.9611  165.5484 C   0  0  0  0  0  0  0  0  0  0  0  0
  158.9451  139.3647  165.6231 C   0  0  0  0  0  0  0  0  0  0  0  0
  157.8121  140.1527  165.3438 C   0  0  0  0  0  0  0  0  0  0  0  0
  156.5947  139.5369  164.9943 C   0  0  0  0  0  0  0  0  0  0  0  0
  156.6997  140.2721  161.1480 H   0  0  0  0  0  0  0  0  0  0  0  0
  156.1568  140.2013  159.5186 H   0  0  0  0  0  0  0  0  0  0  0  0
  151.8592  143.4110  161.7715 H   0  0  0  0  0  0  0  0  0  0  0  0
  151.3958  141.5335  158.7514 H   0  0  0  0  0  0  0  0  0  0  0  0
  153.1454  143.9310  158.4760 H   0  0  0  0  0  0  0  0  0  0  0  0
  152.2968  143.0742  157.1732 H   0  0  0  0  0  0  0  0  0  0  0  0
  151.5149  145.6043  157.9723 H   0  0  0  0  0  0  0  0  0  0  0  0
  150.3347  144.3879  157.4670 H   0  0  0  0  0  0  0  0  0  0  0  0
  151.2579  144.9373  160.3257 H   0  0  0  0  0  0  0  0  0  0  0  0
  149.5930  144.9331  159.7235 H   0  0  0  0  0  0  0  0  0  0  0  0
  156.2389  138.6480  162.5534 H   0  0  0  0  0  0  0  0  0  0  0  0
  155.8284  135.7105  160.4096 H   0  0  0  0  0  0  0  0  0  0  0  0
  155.4497  133.4405  161.2923 H   0  0  0  0  0  0  0  0  0  0  0  0
  155.0252  133.0912  163.7183 H   0  0  0  0  0  0  0  0  0  0  0  0
  154.9683  135.0374  165.2616 H   0  0  0  0  0  0  0  0  0  0  0  0
  157.5884  136.2682  165.1435 H   0  0  0  0  0  0  0  0  0  0  0  0
  159.7311  137.3565  165.7588 H   0  0  0  0  0  0  0  0  0  0  0  0
  159.8784  139.8367  165.8926 H   0  0  0  0  0  0  0  0  0  0  0  0
  157.8757  141.2293  165.4001 H   0  0  0  0  0  0  0  0  0  0  0  0
  155.7276  140.1453  164.7839 H   0  0  0  0  0  0  0  0  0  0  0  0
  1  2  2  0  0  0  0
  2  3  1  0  0  0  0
  2 18  1  0  0  0  0
  3  4  1  0  0  0  0
  3 32  1  0  0  0  0
  3 33  1  0  0  0  0
  4 16  1  0  0  0  0
  4  5  1  0  0  0  0
  5  6  2  0  0  0  0
  5  7  1  0  0  0  0
  7  8  1  0  0  0  0
  7  9  2  0  0  0  0
  9 10  1  0  0  0  0
  9 34  1  0  0  0  0
 10 11  1  0  0  0  0
 10 16  1  0  0  0  0
 11 15  1  0  0  0  0
 11 12  1  0  0  0  0
 11 35  1  0  0  0  0
 12 13  1  0  0  0  0
 12 36  1  0  0  0  0
 12 37  1  0  0  0  0
 13 14  1  0  0  0  0
 13 38  1  0  0  0  0
 13 39  1  0  0  0  0
 14 15  1  0  0  0  0
 14 40  1  0  0  0  0
 14 41  1  0  0  0  0
 16 17  2  0  0  0  0
 18 19  1  0  0  0  0
 18 42  1  0  0  0  0
 19 24  1  0  0  0  0
 19 20  2  0  0  0  0
 20 21  1  0  0  0  0
 20 43  1  0  0  0  0
 21 22  2  0  0  0  0
 21 44  1  0  0  0  0
 22 23  1  0  0  0  0
 22 45  1  0  0  0  0
 23 24  2  0  0  0  0
 23 46  1  0  0  0  0
 24 25  1  0  0  0  0
 25 26  1  0  0  0  0
 26 31  1  0  0  0  0
 26 27  2  0  0  0  0
 27 28  1  0  0  0  0
 27 47  1  0  0  0  0
 28 29  2  0  0  0  0
 28 48  1  0  0  0  0
 29 30  1  0  0  0  0
 29 49  1  0  0  0  0
 30 31  2  0  0  0  0
 30 50  1  0  0  0  0
 31 51  1  0  0  0  0
M  END
> <s_m_source_file>
AV-unprocessed.smi

> <i_m_source_file_index>
135

> <i_lp_mmshare_version>
43012

> <i_f3d_flags>
0

> <s_epik_input>
TzFbQ0gyXVtDSDJdW0NIMl1bQ0BIXTFuKGMyPU8pW2NIXWMoRiljKD1PKW4yW0NIMl1DKD1PKVtOSF1jM1tjSF1bY0hdW2NIXVtjSF1jM09jNFtjSF1bY0hdW2NIXVtjSF1bY0hdNA==

> <s_epik_cmdline>
J2VwaWtfcHl0aG9uJywgJy1waCcsICc3LjAnLCAnLXRuJywgJzgnLCAnLW1hJywgJzIwMCcsICctbWV0YWxfYmluZGluZycsICctaW1hZScsICc8aW5maWxlLm1hZT4nLCAnLW9tYWUnLCAnPG91dGZpbGUubWFlPic=

> <r_lp_tautomer_probability>
1

> <r_epik_Ionization_Penalty>
1.89877e-06

> <r_epik_Ionization_Penalty_Charging>
3.88729e-08

> <r_epik_Ionization_Penalty_Neutral>
1.8599e-06

> <r_epik_State_Penalty>
-0

> <r_epik_Charging_Adjusted_Penalty>
3.88729e-08

> <i_epik_Tot_Q>
0

> <i_epik_Tot_abs_Q>
0

> <r_epik_Metal_State_Penalty>
-0

> <b_epik_Metal_Only>
0

> <s_epik_Chemistry_Notes>
This compound contains an acetal/aminal-like group ( X-CH(R)-Y where X, Y are N, S, or O) that may be acid/base labile, releasing an aldehyde.

> <s_lp_Force_Field>
OPLS_2005

> <r_lp_Energy>
40.0565

> <b_lp_Chiralities_Consistent>
1

> <s_lp_Variant>
AV-unprocessed.smi:135-1

> <Gold.Version>
5.8.1

> <Gold.Id.Protein>
6NUR|6NUR_protein|mol2

> <Gold.PLP.Fitness>
55.4793

> <Gold.PLP.PLP>
-57.1196

> <Gold.PLP.part.hbond>
-3.0000

> <Gold.PLP.part.metal>
0.0000

> <Gold.PLP.part.buried>
-2.6770

> <Gold.PLP.part.nonpolar>
-50.4602

> <Gold.PLP.part.repulsive>
0.1431

> <Gold.PLP.ligand.clash>
0.0000

> <Gold.PLP.ligand.torsion>
1.8259

> <Gold.PLP.Chemscore.Hbond>
0.6318

> <Gold.PLP.Chemscore.CHOScore>
0.0000

> <Gold.PLP.Chemscore.Metal>
0.0000

> <Gold.Chemscore.Hbonds>
donor molecule, donor type, donor heavy atom, donor atom, acceptor molecule, acceptor atom, score
      P1  H  7997  8010       L1    17  0.61

> <Gold.PLP.Chemscore.Internal.Correction>
0.1160

> <Gold.Rescore>
     Score         DG    S(hbond)    S(metal)    S(lipo)     H(rot)  DE(clash)    DE(int)     intcor
     10.62     -16.76       0.79        0.00     118.36       2.04       1.76       4.38       ----

> <Gold.Chemscore.Fitness>
10.6192

> <Gold.Chemscore.DG>
-16.7578

> <Gold.Chemscore.ZeroCoef>
-5.4800

> <Gold.Chemscore.Hbond>
0.7924

> <Gold.Chemscore.Metal>
0.0000

> <Gold.Chemscore.Lipo>
118.3562

> <Gold.Chemscore.Internal_Hbond>
0.0000

> <Gold.Chemscore.DEClash>
1.7606

> <Gold.Chemscore.DEInternal>
4.3781

> <Gold.Chemscore.Rot>
2.0377

> <Gold.Chemscore.Internal.Correction>
   9.000000E+99

> <Gold.Chemscore.Hbonds>
donor molecule, donor type, donor heavy atom, donor atom, acceptor molecule, acceptor atom, score
      P1  H  7997  8010       L1    17  0.60

> <Gold.Chemscore.Hbond.Weighted>
-2.6467

> <Gold.Chemscore.Metal.Weighted>
-0.0000

> <Gold.Chemscore.Lipo.Weighted>
-13.8477

> <Gold.Chemscore.Internal_Hbond.Weighted>
0.0000

> <Gold.Chemscore.DEClash.Weighted>
1.7606

> <Gold.Chemscore.DEInternal.Weighted>
4.3781

> <Gold.Chemscore.Rot.Weighted>
5.2165

> <Gold.Chemscore.Internal.Correction.Weighted>
   9.000000E+99

> <Gold.Protein.RotatedTorsions>
[ 6907 6896 6895 6894 ] final   64.93 input  -60.11 | X-H torsion
[ 7974 7965 7964 7962 ] final   30.16 input  175.53 | X-H torsion
[ 8008 7997 7996 7995 ] final   20.21 input   59.86 | X-H torsion
[ 10167 10162 10161 10158 ] final  174.60 input  -65.29 | X-H torsion
[ 10718 10713 10712 10709 ] final  136.08 input   66.30 | X-H torsion
[ 10763 10752 10751 10750 ] final  107.44 input  -60.55 | X-H torsion
[ 11005 11000 10999 10996 ] final  -70.83 input  -57.11 | X-H torsion

> <Gold.Protein.ActiveResidues>
 VAL166  LYS551  ARG553  GLY616  TRP617  ASP618  TYR619  PRO620  LYS621  CYS622 
 ASP623  PHE694  ASN695  SER759  ASP760  ASP761  ALA762  ILE779  LEU786  VAL792 
 PHE793  MET794  SER795  GLU796  ALA797  LYS798  CYS799  TRP800  GLU811  SER814 

> <Gold.Protein.RotatedAtoms>
  152.4369  134.5669  159.9909 H   0  0  0  0  0  0  0  0  0  0  0  0  # atno 6907 bound_to 6896
  151.5777  133.3376  159.3010 H   0  0  0  0  0  0  0  0  0  0  0  0  # atno 6908 bound_to 6896
  150.8269  134.7538  159.6884 H   0  0  0  0  0  0  0  0  0  0  0  0  # atno 6909 bound_to 6896
  146.1628  139.6825  142.9021 H   0  0  0  0  0  0  0  0  0  0  0  0  # atno 7974 bound_to 7965
  154.9322  140.3042  155.5162 H   0  0  0  0  0  0  0  0  0  0  0  0  # atno 8008 bound_to 7997
  156.3002  140.2352  156.4319 H   0  0  0  0  0  0  0  0  0  0  0  0  # atno 8009 bound_to 7997
  154.8227  140.0422  157.1410 H   0  0  0  0  0  0  0  0  0  0  0  0  # atno 8010 bound_to 7997
  139.5147  144.3128  152.0275 H   0  0  0  0  0  0  0  0  0  0  0  0  # atno 10167 bound_to 10162
  157.4504  131.1065  151.0040 H   0  0  0  0  0  0  0  0  0  0  0  0  # atno 10718 bound_to 10713
  153.4068  135.3844  155.2024 H   0  0  0  0  0  0  0  0  0  0  0  0  # atno 10763 bound_to 10752
  154.8734  135.3784  154.4551 H   0  0  0  0  0  0  0  0  0  0  0  0  # atno 10764 bound_to 10752
  153.5054  135.7088  153.5871 H   0  0  0  0  0  0  0  0  0  0  0  0  # atno 10765 bound_to 10752
  141.1581  133.6801  156.6813 H   0  0  0  0  0  0  0  0  0  0  0  0  # atno 11005 bound_to 11000
  145.4544  141.0430  143.2786 LP  0  0  0  0  0  0  0  0  0  0  0  0  # atno 17320 bound_to 7965
  144.8051  139.6067  143.7054 LP  0  0  0  0  0  0  0  0  0  0  0  0  # atno 17321 bound_to 7965
  140.2572  144.4106  150.6199 LP  0  0  0  0  0  0  0  0  0  0  0  0  # atno 17342 bound_to 10162
  140.6183  143.2174  151.6747 LP  0  0  0  0  0  0  0  0  0  0  0  0  # atno 17343 bound_to 10162
  157.0871  130.5927  149.5432 LP  0  0  0  0  0  0  0  0  0  0  0  0  # atno 17370 bound_to 10713
  155.9985  130.5059  150.7572 LP  0  0  0  0  0  0  0  0  0  0  0  0  # atno 17371 bound_to 10713
  140.3100  134.8094  157.4168 LP  0  0  0  0  0  0  0  0  0  0  0  0  # atno 17394 bound_to 11000
  140.1187  134.5249  155.8202 LP  0  0  0  0  0  0  0  0  0  0  0  0  # atno 17395 bound_to 11000

$$$$
