AV-unprocessed.smi:1447|AV-procd|sdf|5893|dock4
  -GOLD-   22720 5573D 1   1.00000     0.00000
 Structure written by MMmdl.
 47 49  0  0  0  0  0  0  0  0  1 V2000
  149.0003  133.3187  153.4590 C   0  0  0  0  0  0  0  0  0  0  0  0
  148.5878  134.4305  154.2335 O   0  0  0  0  0  0  0  0  0  0  0  0
  147.1823  134.6250  154.2033 C   0  0  0  0  0  0  0  0  0  0  0  0
  146.8222  135.9376  154.9318 C   0  0  0  0  0  0  0  0  0  0  0  0
  147.0076  137.1786  154.1540 N   0  0  0  0  0  0  0  0  0  0  0  0
  147.9859  138.0495  154.6107 N   0  0  0  0  0  0  0  0  0  0  0  0
  148.2073  139.1679  154.0011 C   0  0  0  0  0  0  0  0  0  0  0  0
  149.2355  140.1297  154.4851 C   0  0  0  0  0  0  0  0  0  0  0  0
  149.4379  141.2066  153.9214 O   0  0  0  0  0  0  0  0  0  0  0  0
  149.9162  139.7359  155.5769 N   0  0  0  0  0  0  0  0  0  0  0  0
  150.9542  140.5046  156.2545 C   0  0  0  0  0  0  0  0  0  0  0  0
  151.5354  139.7207  157.4445 C   0  0  0  0  0  0  0  0  0  0  0  0
  152.5173  140.5899  158.2496 C   0  0  0  0  0  0  0  0  0  0  0  0
  151.8481  141.7987  158.7313 N   0  0  0  0  0  0  0  0  0  0  0  0
  152.7919  142.5729  159.5209 C   0  0  0  0  0  0  0  0  0  0  0  0
  153.3147  141.9492  160.7949 C   0  0  0  0  0  0  0  0  0  0  0  0
  152.3251  143.0868  160.8638 C   0  0  0  0  0  0  0  0  0  0  0  0
  151.4053  142.6076  157.5952 C   0  0  0  0  0  0  0  0  0  0  0  0
  150.3696  141.8322  156.7622 C   0  0  0  0  0  0  0  0  0  0  0  0
  147.4508  139.5293  152.8154 C   0  0  0  0  0  0  0  0  0  0  0  0
  146.5122  138.6663  152.3682 C   0  0  0  0  0  0  0  0  0  0  0  0
  146.2409  137.3952  153.0429 C   0  0  0  0  0  0  0  0  0  0  0  0
  145.3989  136.5905  152.6450 O   0  0  0  0  0  0  0  0  0  0  0  0
  150.0820  133.2047  153.5300 H   0  0  0  0  0  0  0  0  0  0  0  0
  148.7461  133.4571  152.4070 H   0  0  0  0  0  0  0  0  0  0  0  0
  148.5393  132.3962  153.8143 H   0  0  0  0  0  0  0  0  0  0  0  0
  146.8061  134.6311  153.1786 H   0  0  0  0  0  0  0  0  0  0  0  0
  146.6974  133.7882  154.7083 H   0  0  0  0  0  0  0  0  0  0  0  0
  145.7768  135.8882  155.2406 H   0  0  0  0  0  0  0  0  0  0  0  0
  147.4116  135.9918  155.8489 H   0  0  0  0  0  0  0  0  0  0  0  0
  149.6863  138.8355  155.9727 H   0  0  0  0  0  0  0  0  0  0  0  0
  151.7554  140.7289  155.5476 H   0  0  0  0  0  0  0  0  0  0  0  0
  150.7309  139.3814  158.0989 H   0  0  0  0  0  0  0  0  0  0  0  0
  152.0462  138.8240  157.0918 H   0  0  0  0  0  0  0  0  0  0  0  0
  152.8942  140.0192  159.0993 H   0  0  0  0  0  0  0  0  0  0  0  0
  153.3791  140.8552  157.6348 H   0  0  0  0  0  0  0  0  0  0  0  0
  153.4971  143.2181  158.9991 H   0  0  0  0  0  0  0  0  0  0  0  0
  152.9559  140.9570  161.0627 H   0  0  0  0  0  0  0  0  0  0  0  0
  154.3454  142.1619  161.0711 H   0  0  0  0  0  0  0  0  0  0  0  0
  152.6959  144.0582  161.1844 H   0  0  0  0  0  0  0  0  0  0  0  0
  151.3103  142.8491  161.1773 H   0  0  0  0  0  0  0  0  0  0  0  0
  150.9579  143.5331  157.9597 H   0  0  0  0  0  0  0  0  0  0  0  0
  152.2584  142.8872  156.9748 H   0  0  0  0  0  0  0  0  0  0  0  0
  150.0418  142.4431  155.9205 H   0  0  0  0  0  0  0  0  0  0  0  0
  149.4838  141.6440  157.3715 H   0  0  0  0  0  0  0  0  0  0  0  0
  147.6294  140.4610  152.2984 H   0  0  0  0  0  0  0  0  0  0  0  0
  145.9424  138.9206  151.4865 H   0  0  0  0  0  0  0  0  0  0  0  0
  1  2  1  0  0  0  0
  1 24  1  0  0  0  0
  1 25  1  0  0  0  0
  1 26  1  0  0  0  0
  2  3  1  0  0  0  0
  3  4  1  0  0  0  0
  3 27  1  0  0  0  0
  3 28  1  0  0  0  0
  4  5  1  0  0  0  0
  4 29  1  0  0  0  0
  4 30  1  0  0  0  0
  5 22  1  0  0  0  0
  5  6  1  0  0  0  0
  6  7  2  0  0  0  0
  7  8  1  0  0  0  0
  7 20  1  0  0  0  0
  8  9  2  0  0  0  0
  8 10  1  0  0  0  0
 10 11  1  0  0  0  0
 10 31  1  0  0  0  0
 11 19  1  0  0  0  0
 11 12  1  0  0  0  0
 11 32  1  0  0  0  0
 12 13  1  0  0  0  0
 12 33  1  0  0  0  0
 12 34  1  0  0  0  0
 13 14  1  0  0  0  0
 13 35  1  0  0  0  0
 13 36  1  0  0  0  0
 14 15  1  0  0  0  0
 14 18  1  0  0  0  0
 15 17  1  0  0  0  0
 15 16  1  0  0  0  0
 15 37  1  0  0  0  0
 16 17  1  0  0  0  0
 16 38  1  0  0  0  0
 16 39  1  0  0  0  0
 17 40  1  0  0  0  0
 17 41  1  0  0  0  0
 18 19  1  0  0  0  0
 18 42  1  0  0  0  0
 18 43  1  0  0  0  0
 19 44  1  0  0  0  0
 19 45  1  0  0  0  0
 20 21  2  0  0  0  0
 20 46  1  0  0  0  0
 21 22  1  0  0  0  0
 21 47  1  0  0  0  0
 22 23  2  0  0  0  0
M  END
> <s_m_source_file>
AV-unprocessed.smi

> <i_m_source_file_index>
1447

> <i_lp_mmshare_version>
43012

> <i_f3d_flags>
0

> <s_epik_input>
W0NIM11PW0NIMl1bQ0gyXW4xbmMoW2NIXVtjSF1jMT1PKUMoPU8pW05IXVtDSF0yW0NIMl1bQ0gyXU4oW0NIMl1bQ0gyXTIpW0NIXTNbQ0gyXVtDSDJdMw==

> <s_epik_cmdline>
J2VwaWtfcHl0aG9uJywgJy1waCcsICc3LjAnLCAnLXRuJywgJzgnLCAnLW1hJywgJzIwMCcsICctbWV0YWxfYmluZGluZycsICctaW1hZScsICc8aW5maWxlLm1hZT4nLCAnLW9tYWUnLCAnPG91dGZpbGUubWFlPic=

> <r_lp_tautomer_probability>
1

> <r_epik_Ionization_Penalty>
0.826878

> <r_epik_Ionization_Penalty_Charging>
6.86753e-09

> <r_epik_Ionization_Penalty_Neutral>
0.826878

> <r_epik_State_Penalty>
0.8604

> <r_epik_Charging_Adjusted_Penalty>
0.8604

> <i_epik_Tot_Q>
0

> <i_epik_Tot_abs_Q>
0

> <r_epik_Metal_State_Penalty>
0.8604

> <b_epik_Metal_Only>
0

> <s_lp_Force_Field>
OPLS_2005

> <r_lp_Energy>
44.3131

> <b_lp_Chiralities_Consistent>
1

> <s_lp_Variant>
AV-unprocessed.smi:1447-3

> <Gold.Version>
5.8.1

> <Gold.Id.Protein>
6NUR|6NUR_protein|mol2

> <Gold.PLP.Fitness>
39.3070

> <Gold.PLP.PLP>
-36.5820

> <Gold.PLP.part.hbond>
-2.0000

> <Gold.PLP.part.metal>
0.0000

> <Gold.PLP.part.buried>
-1.5576

> <Gold.PLP.part.nonpolar>
-34.9555

> <Gold.PLP.part.repulsive>
1.9330

> <Gold.PLP.ligand.clash>
0.0000

> <Gold.PLP.ligand.torsion>
0.8199

> <Gold.PLP.Chemscore.Hbond>
1.0512

> <Gold.PLP.Chemscore.CHOScore>
0.0000

> <Gold.PLP.Chemscore.Metal>
0.0000

> <Gold.Chemscore.Hbonds>
donor molecule, donor type, donor heavy atom, donor atom, acceptor molecule, acceptor atom, score
      P1  H  7989  7998       L1     9  0.15
      P1  H  8011  8017       L1     9  0.83

> <Gold.PLP.Chemscore.Internal.Correction>
1.2113

> <Gold.Rescore>
     Score         DG    S(hbond)    S(metal)    S(lipo)     H(rot)  DE(clash)    DE(int)     intcor
     12.10     -15.54       0.86        0.00      98.88       1.71       1.58       1.86       ----

> <Gold.Chemscore.Fitness>
12.0951

> <Gold.Chemscore.DG>
-15.5369

> <Gold.Chemscore.ZeroCoef>
-5.4800

> <Gold.Chemscore.Hbond>
0.8612

> <Gold.Chemscore.Metal>
0.0000

> <Gold.Chemscore.Lipo>
98.8812

> <Gold.Chemscore.Internal_Hbond>
0.0000

> <Gold.Chemscore.DEClash>
1.5793

> <Gold.Chemscore.DEInternal>
1.8625

> <Gold.Chemscore.Rot>
1.7143

> <Gold.Chemscore.Internal.Correction>
   9.000000E+99

> <Gold.Chemscore.Hbonds>
donor molecule, donor type, donor heavy atom, donor atom, acceptor molecule, acceptor atom, score
      P1  H  7989  7998       L1     9  0.03
      P1  H  8011  8017       L1     9  0.78

> <Gold.Chemscore.Hbond.Weighted>
-2.8765

> <Gold.Chemscore.Metal.Weighted>
-0.0000

> <Gold.Chemscore.Lipo.Weighted>
-11.5691

> <Gold.Chemscore.Internal_Hbond.Weighted>
0.0000

> <Gold.Chemscore.DEClash.Weighted>
1.5793

> <Gold.Chemscore.DEInternal.Weighted>
1.8625

> <Gold.Chemscore.Rot.Weighted>
4.3887

> <Gold.Chemscore.Internal.Correction.Weighted>
   9.000000E+99

> <Gold.Protein.RotatedTorsions>
[ 6907 6896 6895 6894 ] final  -30.50 input  -60.11 | X-H torsion
[ 7974 7965 7964 7962 ] final  152.10 input  175.53 | X-H torsion
[ 8008 7997 7996 7995 ] final  -68.29 input   59.86 | X-H torsion
[ 10167 10162 10161 10158 ] final  -36.70 input  -65.29 | X-H torsion
[ 10718 10713 10712 10709 ] final  -30.33 input   66.30 | X-H torsion
[ 10763 10752 10751 10750 ] final -130.52 input  -60.55 | X-H torsion
[ 11005 11000 10999 10996 ] final    0.60 input  -57.11 | X-H torsion

> <Gold.Protein.ActiveResidues>
 VAL166  LYS551  ARG553  GLY616  TRP617  ASP618  TYR619  PRO620  LYS621  CYS622 
 ASP623  PHE694  ASN695  SER759  ASP760  ASP761  ALA762  ILE779  LEU786  VAL792 
 PHE793  MET794  SER795  GLU796  ALA797  LYS798  CYS799  TRP800  GLU811  SER814 

> <Gold.Protein.RotatedAtoms>
  151.1047  134.9993  159.8465 H   0  0  0  0  0  0  0  0  0  0  0  0  # atno 6907 bound_to 6896
  152.5439  134.1907  159.8683 H   0  0  0  0  0  0  0  0  0  0  0  0  # atno 6908 bound_to 6896
  151.1953  133.4598  159.2628 H   0  0  0  0  0  0  0  0  0  0  0  0  # atno 6909 bound_to 6896
  144.8246  139.6624  143.6085 H   0  0  0  0  0  0  0  0  0  0  0  0  # atno 7974 bound_to 7965
  154.4858  140.0876  156.7482 H   0  0  0  0  0  0  0  0  0  0  0  0  # atno 8008 bound_to 7997
  155.4355  140.3451  155.4266 H   0  0  0  0  0  0  0  0  0  0  0  0  # atno 8009 bound_to 7997
  156.1259  140.1487  156.9125 H   0  0  0  0  0  0  0  0  0  0  0  0  # atno 8010 bound_to 7997
  140.7136  143.3391  151.2397 H   0  0  0  0  0  0  0  0  0  0  0  0  # atno 10167 bound_to 10162
  156.4011  130.4390  149.7322 H   0  0  0  0  0  0  0  0  0  0  0  0  # atno 10718 bound_to 10713
  154.8755  135.3860  154.4096 H   0  0  0  0  0  0  0  0  0  0  0  0  # atno 10763 bound_to 10752
  153.4811  135.7030  153.5942 H   0  0  0  0  0  0  0  0  0  0  0  0  # atno 10764 bound_to 10752
  153.4357  135.3868  155.2165 H   0  0  0  0  0  0  0  0  0  0  0  0  # atno 10765 bound_to 10752
  140.6248  133.9629  155.8243 H   0  0  0  0  0  0  0  0  0  0  0  0  # atno 11005 bound_to 11000
  146.2551  139.6285  142.9400 LP  0  0  0  0  0  0  0  0  0  0  0  0  # atno 17320 bound_to 7965
  145.5029  141.0437  143.2531 LP  0  0  0  0  0  0  0  0  0  0  0  0  # atno 17321 bound_to 7965
  139.6894  143.9718  152.2851 LP  0  0  0  0  0  0  0  0  0  0  0  0  # atno 17342 bound_to 10162
  139.9375  144.6703  150.8300 LP  0  0  0  0  0  0  0  0  0  0  0  0  # atno 17343 bound_to 10162
  156.4337  130.7827  151.2848 LP  0  0  0  0  0  0  0  0  0  0  0  0  # atno 17370 bound_to 10713
  157.7504  131.0146  150.3470 LP  0  0  0  0  0  0  0  0  0  0  0  0  # atno 17371 bound_to 10713
  141.0717  134.0195  157.3516 LP  0  0  0  0  0  0  0  0  0  0  0  0  # atno 17394 bound_to 11000
  139.9139  135.0194  156.7803 LP  0  0  0  0  0  0  0  0  0  0  0  0  # atno 17395 bound_to 11000

$$$$
