AV-unprocessed.smi:234|AV-procd|sdf|1787|dock7
  -GOLD-   2262020343D 1   1.00000     0.00000
 Structure written by MMmdl.
 59 62  0  0  0  0  0  0  0  0  1 V2000
  152.8530  142.3492  159.4529 C   0  0  0  0  0  0  0  0  0  0  0  0
  152.9330  140.8659  159.8372 C   0  0  0  0  0  0  0  0  0  0  0  0
  153.3129  140.0487  158.7395 O   0  0  0  0  0  0  0  0  0  0  0  0
  152.3878  139.0185  158.4165 C   0  0  2  0  0  0  0  0  0  0  0  0
  152.8839  138.1431  157.2676 C   0  0  0  0  0  0  0  0  0  0  0  0
  151.4224  138.1124  156.7998 C   0  0  2  0  0  0  0  0  0  0  0  0
  151.2576  138.1389  155.3436 N   0  0  0  0  0  0  0  0  0  0  0  0
  152.3601  138.6369  154.5291 C   0  0  0  0  0  0  0  0  0  0  0  0
  150.0528  138.5124  154.8503 C   0  0  0  0  0  0  0  0  0  0  0  0
  150.0137  139.6546  154.1184 N   0  0  0  0  0  0  0  0  0  0  0  0
  148.8588  140.0781  153.5964 C   0  0  0  0  0  0  0  0  0  0  0  0
  147.6480  139.5249  153.6891 N   0  0  0  0  0  0  0  0  0  0  0  0
  147.6791  138.3855  154.4380 C   0  0  0  0  0  0  0  0  0  0  0  0
  148.8273  137.8150  155.0580 C   0  0  0  0  0  0  0  0  0  0  0  0
  148.4635  136.6700  155.7577 N   0  0  0  0  0  0  0  0  0  0  0  0
  147.1805  136.5608  155.5495 C   0  0  0  0  0  0  0  0  0  0  0  0
  146.6290  137.5416  154.7568 N   0  0  0  0  0  0  0  0  0  0  0  0
  145.2345  137.6565  154.3565 C   0  0  0  0  0  0  0  0  0  0  0  0
  145.0015  137.3542  152.8523 C   0  0  1  0  0  0  0  0  0  0  0  0
  145.4886  138.4550  152.1036 O   0  0  0  0  0  0  0  0  0  0  0  0
  145.7266  136.1023  152.3639 C   0  0  0  0  0  0  0  0  0  0  0  0
  144.8412  135.6114  151.2293 C   0  0  0  0  0  0  0  0  0  0  0  0
  143.5401  135.8484  151.7355 O   0  0  0  0  0  0  0  0  0  0  0  0
  143.5306  137.1014  152.4150 C   0  0  1  0  0  0  0  0  0  0  0  0
  142.4776  137.0192  153.5310 C   0  0  0  0  0  0  0  0  0  0  0  0
  151.2199  139.4826  157.5072 C   0  0  0  0  0  0  0  0  0  0  0  0
  149.8798  139.6841  158.2162 C   0  0  0  0  0  0  0  0  0  0  0  0
  151.4875  140.7523  156.6801 C   0  0  0  0  0  0  0  0  0  0  0  0
  152.6628  142.9656  160.3317 H   0  0  0  0  0  0  0  0  0  0  0  0
  152.0476  142.5372  158.7435 H   0  0  0  0  0  0  0  0  0  0  0  0
  153.7865  142.6879  159.0032 H   0  0  0  0  0  0  0  0  0  0  0  0
  153.6864  140.7414  160.6151 H   0  0  0  0  0  0  0  0  0  0  0  0
  151.9893  140.5198  160.2617 H   0  0  0  0  0  0  0  0  0  0  0  0
  152.0610  138.4099  159.2635 H   0  0  0  0  0  0  0  0  0  0  0  0
  153.5592  138.6647  156.5866 H   0  0  0  0  0  0  0  0  0  0  0  0
  153.2880  137.1788  157.5766 H   0  0  0  0  0  0  0  0  0  0  0  0
  150.8554  137.3196  157.2914 H   0  0  0  0  0  0  0  0  0  0  0  0
  152.1208  139.5992  154.0735 H   0  0  0  0  0  0  0  0  0  0  0  0
  152.5839  137.9285  153.7313 H   0  0  0  0  0  0  0  0  0  0  0  0
  153.2631  138.7715  155.1223 H   0  0  0  0  0  0  0  0  0  0  0  0
  148.9131  140.9910  153.0215 H   0  0  0  0  0  0  0  0  0  0  0  0
  146.5987  135.7523  155.9673 H   0  0  0  0  0  0  0  0  0  0  0  0
  144.6583  136.9704  154.9777 H   0  0  0  0  0  0  0  0  0  0  0  0
  144.8893  138.6614  154.6030 H   0  0  0  0  0  0  0  0  0  0  0  0
  144.9963  138.5128  151.2992 H   0  0  0  0  0  0  0  0  0  0  0  0
  146.7590  136.2795  152.0586 H   0  0  0  0  0  0  0  0  0  0  0  0
  145.7381  135.3453  153.1489 H   0  0  0  0  0  0  0  0  0  0  0  0
  144.9994  136.1966  150.3220 H   0  0  0  0  0  0  0  0  0  0  0  0
  144.9979  134.5580  150.9967 H   0  0  0  0  0  0  0  0  0  0  0  0
  143.2114  137.8609  151.6985 H   0  0  0  0  0  0  0  0  0  0  0  0
  142.4103  137.9556  154.0848 H   0  0  0  0  0  0  0  0  0  0  0  0
  142.7017  136.2184  154.2359 H   0  0  0  0  0  0  0  0  0  0  0  0
  141.4912  136.8178  153.1129 H   0  0  0  0  0  0  0  0  0  0  0  0
  149.0653  139.8355  157.5083 H   0  0  0  0  0  0  0  0  0  0  0  0
  149.9018  140.5541  158.8723 H   0  0  0  0  0  0  0  0  0  0  0  0
  149.6188  138.8219  158.8299 H   0  0  0  0  0  0  0  0  0  0  0  0
  150.6832  140.9486  155.9707 H   0  0  0  0  0  0  0  0  0  0  0  0
  152.4115  140.6830  156.1060 H   0  0  0  0  0  0  0  0  0  0  0  0
  151.5751  141.6312  157.3197 H   0  0  0  0  0  0  0  0  0  0  0  0
  1  2  1  0  0  0  0
  1 29  1  0  0  0  0
  1 30  1  0  0  0  0
  1 31  1  0  0  0  0
  2  3  1  0  0  0  0
  2 32  1  0  0  0  0
  2 33  1  0  0  0  0
  3  4  1  0  0  0  0
  4 26  1  0  0  0  0
  4  5  1  0  0  0  0
  4 34  1  0  0  0  0
  5  6  1  0  0  0  0
  5 35  1  0  0  0  0
  5 36  1  0  0  0  0
  6  7  1  0  0  0  0
  6 26  1  0  0  0  0
  6 37  1  0  0  0  0
  7  8  1  0  0  0  0
  7  9  1  0  0  0  0
  8 38  1  0  0  0  0
  8 39  1  0  0  0  0
  8 40  1  0  0  0  0
  9 14  1  0  0  0  0
  9 10  2  0  0  0  0
 10 11  1  0  0  0  0
 11 12  2  0  0  0  0
 11 41  1  0  0  0  0
 12 13  1  0  0  0  0
 13 17  1  0  0  0  0
 13 14  2  0  0  0  0
 14 15  1  0  0  0  0
 15 16  2  0  0  0  0
 16 17  1  0  0  0  0
 16 42  1  0  0  0  0
 17 18  1  0  0  0  0
 18 19  1  0  0  0  0
 18 43  1  0  0  0  0
 18 44  1  0  0  0  0
 19 24  1  0  0  0  0
 19 20  1  0  0  0  0
 19 21  1  0  0  0  0
 20 45  1  0  0  0  0
 21 22  1  0  0  0  0
 21 46  1  0  0  0  0
 21 47  1  0  0  0  0
 22 23  1  0  0  0  0
 22 48  1  0  0  0  0
 22 49  1  0  0  0  0
 23 24  1  0  0  0  0
 24 25  1  0  0  0  0
 24 50  1  0  0  0  0
 25 51  1  0  0  0  0
 25 52  1  0  0  0  0
 25 53  1  0  0  0  0
 26 27  1  0  0  0  0
 26 28  1  0  0  0  0
 27 54  1  0  0  0  0
 27 55  1  0  0  0  0
 27 56  1  0  0  0  0
 28 57  1  0  0  0  0
 28 58  1  0  0  0  0
 28 59  1  0  0  0  0
M  END
> <s_m_source_file>
AV-unprocessed.smi

> <i_m_source_file_index>
234

> <i_lp_mmshare_version>
43012

> <i_f3d_flags>
0

> <s_epik_input>
W0NIM11bQ0gyXU9bQ0BASF0oQzEoW0NIM10pW0NIM10pW0NIMl1bQ0BIXTFOKFtDSDNdKWMobltjSF1uMiljKGMyMyluW2NIXW4zW0NIMl1bQ0BAXTQoW09IXSlbQ0gyXVtDSDJdT1tDQEhdNFtDSDNd

> <s_epik_cmdline>
J2VwaWtfcHl0aG9uJywgJy1waCcsICc3LjAnLCAnLXRuJywgJzgnLCAnLW1hJywgJzIwMCcsICctbWV0YWxfYmluZGluZycsICctaW1hZScsICc8aW5maWxlLm1hZT4nLCAnLW9tYWUnLCAnPG91dGZpbGUubWFlPic=

> <r_lp_tautomer_probability>
1

> <r_epik_Ionization_Penalty>
0.00349132

> <r_epik_Ionization_Penalty_Charging>
0

> <r_epik_Ionization_Penalty_Neutral>
0.00349132

> <r_epik_State_Penalty>
0.00242418

> <r_epik_Charging_Adjusted_Penalty>
0.00242418

> <i_epik_Tot_Q>
0

> <i_epik_Tot_abs_Q>
0

> <r_epik_Metal_State_Penalty>
-0

> <b_epik_Metal_Only>
0

> <s_lp_Force_Field>
OPLS_2005

> <r_lp_Energy>
50.018

> <b_lp_Chiralities_Consistent>
1

> <s_lp_Variant>
AV-unprocessed.smi:234-3

> <Gold.Version>
5.8.1

> <Gold.Id.Protein>
6NUR|6NUR_protein|mol2

> <Gold.PLP.Fitness>
41.7913

> <Gold.PLP.PLP>
-33.8916

> <Gold.PLP.part.hbond>
-4.0000

> <Gold.PLP.part.metal>
0.0000

> <Gold.PLP.part.buried>
-1.7984

> <Gold.PLP.part.nonpolar>
-29.0413

> <Gold.PLP.part.repulsive>
0.8568

> <Gold.PLP.ligand.clash>
0.0000

> <Gold.PLP.ligand.torsion>
1.5918

> <Gold.PLP.Chemscore.Hbond>
3.0000

> <Gold.PLP.Chemscore.CHOScore>
0.3317

> <Gold.PLP.Chemscore.Metal>
0.0000

> <Gold.Chemscore.Hbonds>
donor molecule, donor type, donor heavy atom, donor atom, acceptor molecule, acceptor atom, score
      L1  H    20    45       P1 10171  1.00
      P1  H  7989  7998       L1    10  0.81
      P1  H  7997  8008       L1     3  0.76
      L1  C    11    41       P1  7957  0.33

> <Gold.PLP.Chemscore.Internal.Correction>
1.0884

> <Gold.Rescore>
     Score         DG    S(hbond)    S(metal)    S(lipo)     H(rot)  DE(clash)    DE(int)     intcor
     12.71     -16.17       2.34        0.00      81.96       2.62       1.94       1.53       ----

> <Gold.Chemscore.Fitness>
12.7068

> <Gold.Chemscore.DG>
-16.1745

> <Gold.Chemscore.ZeroCoef>
-5.4800

> <Gold.Chemscore.Hbond>
2.3406

> <Gold.Chemscore.Metal>
0.0000

> <Gold.Chemscore.Lipo>
81.9565

> <Gold.Chemscore.Internal_Hbond>
0.0000

> <Gold.Chemscore.DEClash>
1.9398

> <Gold.Chemscore.DEInternal>
1.5279

> <Gold.Chemscore.Rot>
2.6219

> <Gold.Chemscore.Internal.Correction>
   9.000000E+99

> <Gold.Chemscore.Hbonds>
donor molecule, donor type, donor heavy atom, donor atom, acceptor molecule, acceptor atom, score
      L1  H    20    45       P1 10171  1.00
      P1  H  7989  7998       L1    10  0.61
      P1  H  7997  8008       L1     3  0.40

> <Gold.Chemscore.Hbond.Weighted>
-7.8177

> <Gold.Chemscore.Metal.Weighted>
-0.0000

> <Gold.Chemscore.Lipo.Weighted>
-9.5889

> <Gold.Chemscore.Internal_Hbond.Weighted>
0.0000

> <Gold.Chemscore.DEClash.Weighted>
1.9398

> <Gold.Chemscore.DEInternal.Weighted>
1.5279

> <Gold.Chemscore.Rot.Weighted>
6.7121

> <Gold.Chemscore.Internal.Correction.Weighted>
   9.000000E+99

> <Gold.Protein.RotatedTorsions>
[ 6907 6896 6895 6894 ] final  -77.27 input  -60.11 | X-H torsion
[ 7974 7965 7964 7962 ] final -125.28 input  175.53 | X-H torsion
[ 8008 7997 7996 7995 ] final  -97.72 input   59.86 | X-H torsion
[ 10167 10162 10161 10158 ] final  -14.67 input  -65.29 | X-H torsion
[ 10718 10713 10712 10709 ] final  -83.20 input   66.30 | X-H torsion
[ 10763 10752 10751 10750 ] final   92.41 input  -60.55 | X-H torsion
[ 11005 11000 10999 10996 ] final  -33.40 input  -57.11 | X-H torsion

> <Gold.Protein.ActiveResidues>
 VAL166  LYS551  ARG553  GLY616  TRP617  ASP618  TYR619  PRO620  LYS621  CYS622 
 ASP623  PHE694  ASN695  SER759  ASP760  ASP761  ALA762  ILE779  LEU786  VAL792 
 PHE793  MET794  SER795  GLU796  ALA797  LYS798  CYS799  TRP800  GLU811  SER814 

> <Gold.Protein.RotatedAtoms>
  150.7003  134.4448  159.5308 H   0  0  0  0  0  0  0  0  0  0  0  0  # atno 6907 bound_to 6896
  152.2151  134.8462  160.0502 H   0  0  0  0  0  0  0  0  0  0  0  0  # atno 6908 bound_to 6896
  151.9333  133.3582  159.3975 H   0  0  0  0  0  0  0  0  0  0  0  0  # atno 6909 bound_to 6896
  144.9992  140.7805  143.4506 H   0  0  0  0  0  0  0  0  0  0  0  0  # atno 7974 bound_to 7965
  154.7915  140.0461  157.1204 H   0  0  0  0  0  0  0  0  0  0  0  0  # atno 8008 bound_to 7997
  154.9585  140.3074  155.5022 H   0  0  0  0  0  0  0  0  0  0  0  0  # atno 8009 bound_to 7997
  156.2950  140.2275  156.4669 H   0  0  0  0  0  0  0  0  0  0  0  0  # atno 8010 bound_to 7997
  140.7205  143.5298  150.9534 H   0  0  0  0  0  0  0  0  0  0  0  0  # atno 10167 bound_to 10162
  156.0022  130.4658  150.4221 H   0  0  0  0  0  0  0  0  0  0  0  0  # atno 10718 bound_to 10713
  153.2188  135.4362  155.0465 H   0  0  0  0  0  0  0  0  0  0  0  0  # atno 10763 bound_to 10752
  154.8239  135.3351  154.6958 H   0  0  0  0  0  0  0  0  0  0  0  0  # atno 10764 bound_to 10752
  153.7391  135.7006  153.5027 H   0  0  0  0  0  0  0  0  0  0  0  0  # atno 10765 bound_to 10752
  140.9632  133.7152  156.1402 H   0  0  0  0  0  0  0  0  0  0  0  0  # atno 11005 bound_to 11000
  145.2176  139.2174  143.5110 LP  0  0  0  0  0  0  0  0  0  0  0  0  # atno 17320 bound_to 7965
  146.3448  140.2028  142.8589 LP  0  0  0  0  0  0  0  0  0  0  0  0  # atno 17321 bound_to 7965
  139.9018  143.6827  152.3130 LP  0  0  0  0  0  0  0  0  0  0  0  0  # atno 17342 bound_to 10162
  139.7179  144.7608  151.1004 LP  0  0  0  0  0  0  0  0  0  0  0  0  # atno 17343 bound_to 10162
  157.2277  131.0497  151.2510 LP  0  0  0  0  0  0  0  0  0  0  0  0  # atno 17370 bound_to 10713
  157.3741  130.7196  149.6585 LP  0  0  0  0  0  0  0  0  0  0  0  0  # atno 17371 bound_to 10713
  140.7437  134.4121  157.5551 LP  0  0  0  0  0  0  0  0  0  0  0  0  # atno 17394 bound_to 11000
  139.8885  134.8854  156.2470 LP  0  0  0  0  0  0  0  0  0  0  0  0  # atno 17395 bound_to 11000

$$$$
