AV-unprocessed.smi:830|AV-procd|sdf|3870|dock4
  -GOLD-   22720 1323D 1   1.00000     0.00000
 Structure written by MMmdl.
 52 54  0  0  0  0  0  0  0  0  1 V2000
  152.3123  139.3648  154.9659 C   0  0  0  0  0  0  0  0  0  0  0  0
  151.8939  138.6483  156.2609 C   0  0  2  0  0  0  0  0  0  0  0  0
  151.0413  137.5012  155.9546 N   0  0  0  0  0  0  0  0  0  0  0  0
  151.3613  136.2137  156.1441 C   0  0  0  0  0  0  0  0  0  0  0  0
  152.4322  135.8380  156.6218 O   0  0  0  0  0  0  0  0  0  0  0  0
  150.3755  135.4039  155.7249 N   0  0  0  0  0  0  0  0  0  0  0  0
  150.3861  133.9829  155.6684 C   0  0  0  0  0  0  0  0  0  0  0  0
  151.2689  133.2255  156.4757 C   0  0  0  0  0  0  0  0  0  0  0  0
  151.1982  131.8222  156.4452 C   0  0  0  0  0  0  0  0  0  0  0  0
  150.2332  131.2240  155.6181 C   0  0  0  0  0  0  0  0  0  0  0  0
  149.3774  131.9315  154.8537 N   0  0  0  0  0  0  0  0  0  0  0  0
  149.4427  133.2860  154.8597 C   0  0  0  0  0  0  0  0  0  0  0  0
  148.5321  133.9722  154.0226 N   0  0  0  0  0  0  0  0  0  0  0  0
  147.4927  134.8210  154.5960 C   0  0  0  0  0  0  0  0  0  0  0  0
  146.5009  135.0560  153.4601 C   0  0  0  0  0  0  0  0  0  0  0  0
  146.5378  133.7255  152.7153 C   0  0  0  0  0  0  0  0  0  0  0  0
  147.9938  133.2715  152.8598 C   0  0  0  0  0  0  0  0  0  0  0  0
  151.2323  139.5768  157.2866 C   0  0  0  0  0  0  0  0  0  0  0  0
  150.1126  139.3238  157.7343 O   0  0  0  0  0  0  0  0  0  0  0  0
  151.9368  140.6617  157.6436 N   0  0  0  0  0  0  0  0  0  0  0  0
  151.4995  141.6676  158.6072 C   0  0  0  0  0  0  0  0  0  0  0  0
  150.9580  142.9116  157.8808 C   0  0  0  0  0  0  0  0  0  0  0  0
  152.0241  143.9934  158.0528 C   0  0  0  0  0  0  0  0  0  0  0  0
  152.6470  143.6866  159.4112 C   0  0  0  0  0  0  0  0  0  0  0  0
  152.6709  142.1583  159.4835 C   0  0  0  0  0  0  0  0  0  0  0  0
  152.9590  140.2173  155.1753 H   0  0  0  0  0  0  0  0  0  0  0  0
  151.4436  139.7333  154.4190 H   0  0  0  0  0  0  0  0  0  0  0  0
  152.8619  138.6948  154.3040 H   0  0  0  0  0  0  0  0  0  0  0  0
  152.8011  138.2726  156.7387 H   0  0  0  0  0  0  0  0  0  0  0  0
  150.1351  137.7116  155.5619 H   0  0  0  0  0  0  0  0  0  0  0  0
  149.5936  135.8511  155.2688 H   0  0  0  0  0  0  0  0  0  0  0  0
  151.9815  133.7010  157.1325 H   0  0  0  0  0  0  0  0  0  0  0  0
  151.8591  131.2202  157.0510 H   0  0  0  0  0  0  0  0  0  0  0  0
  150.1415  130.1488  155.5724 H   0  0  0  0  0  0  0  0  0  0  0  0
  146.9874  134.3119  155.4175 H   0  0  0  0  0  0  0  0  0  0  0  0
  147.9059  135.7568  154.9735 H   0  0  0  0  0  0  0  0  0  0  0  0
  145.5045  135.3218  153.8139 H   0  0  0  0  0  0  0  0  0  0  0  0
  146.8577  135.8567  152.8108 H   0  0  0  0  0  0  0  0  0  0  0  0
  145.8800  133.0104  153.2109 H   0  0  0  0  0  0  0  0  0  0  0  0
  146.2208  133.8090  151.6754 H   0  0  0  0  0  0  0  0  0  0  0  0
  148.5627  133.5678  151.9783 H   0  0  0  0  0  0  0  0  0  0  0  0
  148.0647  132.1875  152.9604 H   0  0  0  0  0  0  0  0  0  0  0  0
  152.8453  140.7969  157.2236 H   0  0  0  0  0  0  0  0  0  0  0  0
  150.7057  141.2543  159.2326 H   0  0  0  0  0  0  0  0  0  0  0  0
  150.7176  142.7326  156.8318 H   0  0  0  0  0  0  0  0  0  0  0  0
  150.0380  143.2381  158.3675 H   0  0  0  0  0  0  0  0  0  0  0  0
  152.7782  143.8953  157.2708 H   0  0  0  0  0  0  0  0  0  0  0  0
  151.6125  145.0013  157.9962 H   0  0  0  0  0  0  0  0  0  0  0  0
  153.6369  144.1279  159.5299 H   0  0  0  0  0  0  0  0  0  0  0  0
  152.0094  144.0813  160.2033 H   0  0  0  0  0  0  0  0  0  0  0  0
  152.5924  141.7996  160.5101 H   0  0  0  0  0  0  0  0  0  0  0  0
  153.6239  141.7987  159.0912 H   0  0  0  0  0  0  0  0  0  0  0  0
  1  2  1  0  0  0  0
  1 26  1  0  0  0  0
  1 27  1  0  0  0  0
  1 28  1  0  0  0  0
  2  3  1  0  0  0  0
  2 18  1  0  0  0  0
  2 29  1  0  0  0  0
  3  4  1  0  0  0  0
  3 30  1  0  0  0  0
  4  5  2  0  0  0  0
  4  6  1  0  0  0  0
  6  7  1  0  0  0  0
  6 31  1  0  0  0  0
  7 12  1  0  0  0  0
  7  8  2  0  0  0  0
  8  9  1  0  0  0  0
  8 32  1  0  0  0  0
  9 10  2  0  0  0  0
  9 33  1  0  0  0  0
 10 11  1  0  0  0  0
 10 34  1  0  0  0  0
 11 12  2  0  0  0  0
 12 13  1  0  0  0  0
 13 17  1  0  0  0  0
 13 14  1  0  0  0  0
 14 15  1  0  0  0  0
 14 35  1  0  0  0  0
 14 36  1  0  0  0  0
 15 16  1  0  0  0  0
 15 37  1  0  0  0  0
 15 38  1  0  0  0  0
 16 17  1  0  0  0  0
 16 39  1  0  0  0  0
 16 40  1  0  0  0  0
 17 41  1  0  0  0  0
 17 42  1  0  0  0  0
 18 19  2  0  0  0  0
 18 20  1  0  0  0  0
 20 21  1  0  0  0  0
 20 43  1  0  0  0  0
 21 25  1  0  0  0  0
 21 22  1  0  0  0  0
 21 44  1  0  0  0  0
 22 23  1  0  0  0  0
 22 45  1  0  0  0  0
 22 46  1  0  0  0  0
 23 24  1  0  0  0  0
 23 47  1  0  0  0  0
 23 48  1  0  0  0  0
 24 25  1  0  0  0  0
 24 49  1  0  0  0  0
 24 50  1  0  0  0  0
 25 51  1  0  0  0  0
 25 52  1  0  0  0  0
M  END
> <s_m_source_file>
AV-unprocessed.smi

> <i_m_source_file_index>
830

> <i_lp_mmshare_version>
43012

> <i_f3d_flags>
0

> <s_epik_input>
W0NIMl0xW0NIMl1bQ0gyXVtDSDJdW0NIXTFbTkhdQyg9TylbQ0BIXShbQ0gzXSlbTkhdQyg9TylbTkhdYzJbY0hdW2NIXVtjSF1uYzJOM1tDSDJdW0NIMl1bQ0gyXVtDSDJdMw==

> <s_epik_cmdline>
J2VwaWtfcHl0aG9uJywgJy1waCcsICc3LjAnLCAnLXRuJywgJzgnLCAnLW1hJywgJzIwMCcsICctbWV0YWxfYmluZGluZycsICctaW1hZScsICc8aW5maWxlLm1hZT4nLCAnLW9tYWUnLCAnPG91dGZpbGUubWFlPic=

> <r_lp_tautomer_probability>
1

> <r_epik_Ionization_Penalty>
0.0827694

> <r_epik_Ionization_Penalty_Charging>
0

> <r_epik_Ionization_Penalty_Neutral>
0.0827694

> <r_epik_State_Penalty>
0.0729202

> <r_epik_Charging_Adjusted_Penalty>
0.0729202

> <i_epik_Tot_Q>
0

> <i_epik_Tot_abs_Q>
0

> <r_epik_Metal_State_Penalty>
0.0639723

> <b_epik_Metal_Only>
0

> <s_lp_Force_Field>
OPLS_2005

> <r_lp_Energy>
46.0812

> <b_lp_Chiralities_Consistent>
1

> <s_lp_Variant>
AV-unprocessed.smi:830-1

> <Gold.Version>
5.8.1

> <Gold.Id.Protein>
6NUR|6NUR_protein|mol2

> <Gold.PLP.Fitness>
41.2362

> <Gold.PLP.PLP>
-39.3956

> <Gold.PLP.part.hbond>
-1.0000

> <Gold.PLP.part.metal>
0.0000

> <Gold.PLP.part.buried>
-2.7004

> <Gold.PLP.part.nonpolar>
-35.8211

> <Gold.PLP.part.repulsive>
0.3831

> <Gold.PLP.ligand.clash>
0.0000

> <Gold.PLP.ligand.torsion>
0.7986

> <Gold.PLP.Chemscore.Hbond>
1.0000

> <Gold.PLP.Chemscore.CHOScore>
0.0000

> <Gold.PLP.Chemscore.Metal>
0.0000

> <Gold.Chemscore.Hbonds>
donor molecule, donor type, donor heavy atom, donor atom, acceptor molecule, acceptor atom, score
      P1  H 10752 10764       L1     5  1.00

> <Gold.PLP.Chemscore.Internal.Correction>
0.4379

> <Gold.Rescore>
     Score         DG    S(hbond)    S(metal)    S(lipo)     H(rot)  DE(clash)    DE(int)     intcor
     13.67     -15.82       0.97        0.00      96.59       1.64       0.04       2.11       ----

> <Gold.Chemscore.Fitness>
13.6697

> <Gold.Chemscore.DG>
-15.8187

> <Gold.Chemscore.ZeroCoef>
-5.4800

> <Gold.Chemscore.Hbond>
0.9676

> <Gold.Chemscore.Metal>
0.0000

> <Gold.Chemscore.Lipo>
96.5853

> <Gold.Chemscore.Internal_Hbond>
0.0000

> <Gold.Chemscore.DEClash>
0.0358

> <Gold.Chemscore.DEInternal>
2.1132

> <Gold.Chemscore.Rot>
1.6382

> <Gold.Chemscore.Internal.Correction>
   9.000000E+99

> <Gold.Chemscore.Hbonds>
donor molecule, donor type, donor heavy atom, donor atom, acceptor molecule, acceptor atom, score
      P1  H 10752 10764       L1     5  0.35

> <Gold.Chemscore.Hbond.Weighted>
-3.2319

> <Gold.Chemscore.Metal.Weighted>
-0.0000

> <Gold.Chemscore.Lipo.Weighted>
-11.3005

> <Gold.Chemscore.Internal_Hbond.Weighted>
0.0000

> <Gold.Chemscore.DEClash.Weighted>
0.0358

> <Gold.Chemscore.DEInternal.Weighted>
2.1132

> <Gold.Chemscore.Rot.Weighted>
4.1937

> <Gold.Chemscore.Internal.Correction.Weighted>
   9.000000E+99

> <Gold.Protein.RotatedTorsions>
[ 6907 6896 6895 6894 ] final   87.69 input  -60.11 | X-H torsion
[ 7974 7965 7964 7962 ] final -102.58 input  175.53 | X-H torsion
[ 8008 7997 7996 7995 ] final  -19.16 input   59.86 | X-H torsion
[ 10167 10162 10161 10158 ] final  -34.18 input  -65.29 | X-H torsion
[ 10718 10713 10712 10709 ] final -172.68 input   66.30 | X-H torsion
[ 10763 10752 10751 10750 ] final  -15.69 input  -60.55 | X-H torsion
[ 11005 11000 10999 10996 ] final  124.07 input  -57.11 | X-H torsion

> <Gold.Protein.ActiveResidues>
 VAL166  LYS551  ARG553  GLY616  TRP617  ASP618  TYR619  PRO620  LYS621  CYS622 
 ASP623  PHE694  ASN695  SER759  ASP760  ASP761  ALA762  ILE779  LEU786  VAL792 
 PHE793  MET794  SER795  GLU796  ALA797  LYS798  CYS799  TRP800  GLU811  SER814 

> <Gold.Protein.RotatedAtoms>
  152.5415  134.2237  159.8797 H   0  0  0  0  0  0  0  0  0  0  0  0  # atno 6907 bound_to 6896
  151.2212  133.4494  159.2608 H   0  0  0  0  0  0  0  0  0  0  0  0  # atno 6908 bound_to 6896
  151.0803  134.9867  159.8409 H   0  0  0  0  0  0  0  0  0  0  0  0  # atno 6909 bound_to 6896
  145.2669  140.9286  143.3009 H   0  0  0  0  0  0  0  0  0  0  0  0  # atno 7974 bound_to 7965
  154.4856  140.2096  155.9664 H   0  0  0  0  0  0  0  0  0  0  0  0  # atno 8008 bound_to 7997
  156.1230  140.3210  155.8206 H   0  0  0  0  0  0  0  0  0  0  0  0  # atno 8009 bound_to 7997
  155.4433  140.0511  157.2999 H   0  0  0  0  0  0  0  0  0  0  0  0  # atno 8010 bound_to 7997
  140.7190  143.3567  151.2046 H   0  0  0  0  0  0  0  0  0  0  0  0  # atno 10167 bound_to 10162
  156.7592  130.9407  151.3117 H   0  0  0  0  0  0  0  0  0  0  0  0  # atno 10718 bound_to 10713
  153.5471  135.7012  153.5609 H   0  0  0  0  0  0  0  0  0  0  0  0  # atno 10763 bound_to 10752
  153.3549  135.3985  155.1674 H   0  0  0  0  0  0  0  0  0  0  0  0  # atno 10764 bound_to 10752
  154.8666  135.3774  154.4980 H   0  0  0  0  0  0  0  0  0  0  0  0  # atno 10765 bound_to 10752
  139.9341  134.9640  156.8354 H   0  0  0  0  0  0  0  0  0  0  0  0  # atno 11005 bound_to 11000
  144.9369  139.4233  143.6468 LP  0  0  0  0  0  0  0  0  0  0  0  0  # atno 17320 bound_to 7965
  146.3258  139.8309  142.8908 LP  0  0  0  0  0  0  0  0  0  0  0  0  # atno 17321 bound_to 7965
  139.7109  143.9378  152.2947 LP  0  0  0  0  0  0  0  0  0  0  0  0  # atno 17342 bound_to 10162
  139.9102  144.6861  150.8570 LP  0  0  0  0  0  0  0  0  0  0  0  0  # atno 17343 bound_to 10162
  157.6742  130.9079  150.0111 LP  0  0  0  0  0  0  0  0  0  0  0  0  # atno 17370 bound_to 10713
  156.1350  130.3643  149.9671 LP  0  0  0  0  0  0  0  0  0  0  0  0  # atno 17371 bound_to 10713
  140.6121  134.0072  155.7581 LP  0  0  0  0  0  0  0  0  0  0  0  0  # atno 17394 bound_to 11000
  141.0946  133.9863  157.3181 LP  0  0  0  0  0  0  0  0  0  0  0  0  # atno 17395 bound_to 11000

$$$$
