AV-unprocessed.smi:648|AV-procd|sdf|3174|dock10
  -GOLD-   22720 0103D 1   1.00000     0.00000
 Structure written by MMmdl.
 45 46  0  0  0  0  0  0  0  0  1 V2000
  152.0500  137.9713  154.1354 C   0  0  0  0  0  0  0  0  0  0  0  0
  151.4952  138.9129  155.2143 C   0  0  2  0  0  0  0  0  0  0  0  0
  151.0393  138.1265  156.4560 C   0  0  0  0  0  0  0  0  0  0  0  0
  150.4805  139.0254  157.5826 C   0  0  0  0  0  0  0  0  0  0  0  0
  149.8280  138.1230  158.6498 C   0  0  0  0  0  0  0  0  0  0  0  0
  151.6205  139.8002  158.2826 C   0  0  0  0  0  0  0  0  0  0  0  0
  149.3909  139.9805  157.0163 C   0  0  0  0  0  0  0  0  0  0  0  0
  149.7412  140.7492  155.7083 C   0  0  1  0  0  0  0  0  0  0  0  0
  148.4375  141.3416  155.1053 C   0  0  0  0  0  0  0  0  0  0  0  0
  148.7017  142.2950  154.0939 O   0  0  0  0  0  0  0  0  0  0  0  0
  150.6808  141.8473  156.0178 N   0  0  0  0  0  0  0  0  0  0  0  0
  150.6145  142.4802  157.3377 C   0  0  0  0  0  0  0  0  0  0  0  0
  151.5925  143.6590  157.4146 C   0  0  0  0  0  0  0  0  0  0  0  0
  151.5536  144.2984  158.7142 N   0  0  0  0  0  0  0  0  0  0  0  0
  150.7906  145.2930  159.1702 C   0  0  0  0  0  0  0  0  0  0  0  0
  151.0335  145.6179  160.4326 N   0  0  0  0  0  0  0  0  0  0  0  0
  152.0270  144.7216  160.7114 C   0  0  0  0  0  0  0  0  0  0  0  0
  152.3756  143.9068  159.7156 N   0  0  0  0  0  0  0  0  0  0  0  0
  150.3313  139.7585  154.6692 C   0  0  0  0  0  0  0  0  0  0  0  0
  151.2917  137.2654  153.7956 H   0  0  0  0  0  0  0  0  0  0  0  0
  152.8951  137.3957  154.5139 H   0  0  0  0  0  0  0  0  0  0  0  0
  152.3967  138.5312  153.2663 H   0  0  0  0  0  0  0  0  0  0  0  0
  152.3069  139.5832  155.4959 H   0  0  0  0  0  0  0  0  0  0  0  0
  150.2723  137.4133  156.1501 H   0  0  0  0  0  0  0  0  0  0  0  0
  151.8669  137.5273  156.8385 H   0  0  0  0  0  0  0  0  0  0  0  0
  149.4160  138.7118  159.4700 H   0  0  0  0  0  0  0  0  0  0  0  0
  150.5494  137.4254  159.0767 H   0  0  0  0  0  0  0  0  0  0  0  0
  149.0125  137.5304  158.2330 H   0  0  0  0  0  0  0  0  0  0  0  0
  151.2320  140.4520  159.0658 H   0  0  0  0  0  0  0  0  0  0  0  0
  152.1955  140.4223  157.6000 H   0  0  0  0  0  0  0  0  0  0  0  0
  152.3289  139.1166  158.7515 H   0  0  0  0  0  0  0  0  0  0  0  0
  148.5050  139.3775  156.8102 H   0  0  0  0  0  0  0  0  0  0  0  0
  149.0813  140.6805  157.7939 H   0  0  0  0  0  0  0  0  0  0  0  0
  147.7844  140.5668  154.7049 H   0  0  0  0  0  0  0  0  0  0  0  0
  147.8581  141.8433  155.8814 H   0  0  0  0  0  0  0  0  0  0  0  0
  148.4948  143.1539  154.4294 H   0  0  0  0  0  0  0  0  0  0  0  0
  151.6288  141.5239  155.8516 H   0  0  0  0  0  0  0  0  0  0  0  0
  149.6089  142.8461  157.5409 H   0  0  0  0  0  0  0  0  0  0  0  0
  150.8634  141.7666  158.1221 H   0  0  0  0  0  0  0  0  0  0  0  0
  152.6131  143.3257  157.2202 H   0  0  0  0  0  0  0  0  0  0  0  0
  151.3502  144.4040  156.6551 H   0  0  0  0  0  0  0  0  0  0  0  0
  150.0421  145.7871  158.5682 H   0  0  0  0  0  0  0  0  0  0  0  0
  152.5074  144.6678  161.6772 H   0  0  0  0  0  0  0  0  0  0  0  0
  150.6315  140.2728  153.7568 H   0  0  0  0  0  0  0  0  0  0  0  0
  149.5432  139.0730  154.3538 H   0  0  0  0  0  0  0  0  0  0  0  0
  1  2  1  0  0  0  0
  1 20  1  0  0  0  0
  1 21  1  0  0  0  0
  1 22  1  0  0  0  0
  2 19  1  0  0  0  0
  2  3  1  0  0  0  0
  2 23  1  0  0  0  0
  3  4  1  0  0  0  0
  3 24  1  0  0  0  0
  3 25  1  0  0  0  0
  4  5  1  0  0  0  0
  4  6  1  0  0  0  0
  4  7  1  0  0  0  0
  5 26  1  0  0  0  0
  5 27  1  0  0  0  0
  5 28  1  0  0  0  0
  6 29  1  0  0  0  0
  6 30  1  0  0  0  0
  6 31  1  0  0  0  0
  7  8  1  0  0  0  0
  7 32  1  0  0  0  0
  7 33  1  0  0  0  0
  8  9  1  0  0  0  0
  8 11  1  0  0  0  0
  8 19  1  0  0  0  0
  9 10  1  0  0  0  0
  9 34  1  0  0  0  0
  9 35  1  0  0  0  0
 10 36  1  0  0  0  0
 11 12  1  0  0  0  0
 11 37  1  0  0  0  0
 12 13  1  0  0  0  0
 12 38  1  0  0  0  0
 12 39  1  0  0  0  0
 13 14  1  0  0  0  0
 13 40  1  0  0  0  0
 13 41  1  0  0  0  0
 14 18  1  0  0  0  0
 14 15  1  0  0  0  0
 15 16  2  0  0  0  0
 15 42  1  0  0  0  0
 16 17  1  0  0  0  0
 17 18  2  0  0  0  0
 17 43  1  0  0  0  0
 19 44  1  0  0  0  0
 19 45  1  0  0  0  0
M  END
> <s_m_source_file>
AV-unprocessed.smi

> <i_m_source_file_index>
648

> <i_lp_mmshare_version>
43012

> <i_f3d_flags>
0

> <s_epik_input>
W0NIM11DMShbQ0gzXSlbQ0gyXVtDQEBIXShbQ0gzXSlbQ0gyXVtDQF0oW0NIMl0xKShbQ0gyXVtPSF0pW05IXVtDSDJdW0NIMl1uMltjSF1uW2NIXW4y

> <s_epik_cmdline>
J2VwaWtfcHl0aG9uJywgJy1waCcsICc3LjAnLCAnLXRuJywgJzgnLCAnLW1hJywgJzIwMCcsICctbWV0YWxfYmluZGluZycsICctaW1hZScsICc8aW5maWxlLm1hZT4nLCAnLW9tYWUnLCAnPG91dGZpbGUubWFlPic=

> <r_lp_tautomer_probability>
1

> <r_epik_Ionization_Penalty>
2.45849

> <r_epik_Ionization_Penalty_Charging>
0

> <r_epik_Ionization_Penalty_Neutral>
2.45849

> <r_epik_State_Penalty>
2.62037

> <r_epik_Charging_Adjusted_Penalty>
2.62037

> <i_epik_Tot_Q>
0

> <i_epik_Tot_abs_Q>
0

> <r_epik_Metal_State_Penalty>
2.62024

> <b_epik_Metal_Only>
0

> <s_lp_Force_Field>
OPLS_2005

> <r_lp_Energy>
32.3104

> <b_lp_Chiralities_Consistent>
1

> <s_lp_Variant>
AV-unprocessed.smi:648-5

> <Gold.Version>
5.8.1

> <Gold.Id.Protein>
6NUR|6NUR_protein|mol2

> <Gold.PLP.Fitness>
41.1028

> <Gold.PLP.PLP>
-36.5122

> <Gold.PLP.part.hbond>
-2.4787

> <Gold.PLP.part.metal>
0.0000

> <Gold.PLP.part.buried>
-6.4039

> <Gold.PLP.part.nonpolar>
-28.9557

> <Gold.PLP.part.repulsive>
0.7700

> <Gold.PLP.ligand.clash>
0.0000

> <Gold.PLP.ligand.torsion>
1.0493

> <Gold.PLP.Chemscore.Hbond>
1.2288

> <Gold.PLP.Chemscore.CHOScore>
1.0000

> <Gold.PLP.Chemscore.Metal>
0.0000

> <Gold.Chemscore.Hbonds>
donor molecule, donor type, donor heavy atom, donor atom, acceptor molecule, acceptor atom, score
      L1  H    10    36       P1  8028  1.00
      P1  H  8011  8017       L1    10  0.24
      L1  C    15    42       P1  8029  1.00

> <Gold.PLP.Chemscore.Internal.Correction>
0.0029

> <Gold.Rescore>
     Score         DG    S(hbond)    S(metal)    S(lipo)     H(rot)  DE(clash)    DE(int)     intcor
      8.15      -9.75       1.10        0.00      73.19       3.12       0.65       0.94       ----

> <Gold.Chemscore.Fitness>
8.1547

> <Gold.Chemscore.DG>
-9.7469

> <Gold.Chemscore.ZeroCoef>
-5.4800

> <Gold.Chemscore.Hbond>
1.1038

> <Gold.Chemscore.Metal>
0.0000

> <Gold.Chemscore.Lipo>
73.1905

> <Gold.Chemscore.Internal_Hbond>
0.0000

> <Gold.Chemscore.DEClash>
0.6512

> <Gold.Chemscore.DEInternal>
0.9410

> <Gold.Chemscore.Rot>
3.1183

> <Gold.Chemscore.Internal.Correction>
   9.000000E+99

> <Gold.Chemscore.Hbonds>
donor molecule, donor type, donor heavy atom, donor atom, acceptor molecule, acceptor atom, score
      L1  H    10    36       P1  8028  0.93
      P1  H  8011  8017       L1    10  0.17

> <Gold.Chemscore.Hbond.Weighted>
-3.6866

> <Gold.Chemscore.Metal.Weighted>
-0.0000

> <Gold.Chemscore.Lipo.Weighted>
-8.5633

> <Gold.Chemscore.Internal_Hbond.Weighted>
0.0000

> <Gold.Chemscore.DEClash.Weighted>
0.6512

> <Gold.Chemscore.DEInternal.Weighted>
0.9410

> <Gold.Chemscore.Rot.Weighted>
7.9829

> <Gold.Chemscore.Internal.Correction.Weighted>
   9.000000E+99

> <Gold.Protein.RotatedTorsions>
[ 6907 6896 6895 6894 ] final    0.54 input  -60.11 | X-H torsion
[ 7974 7965 7964 7962 ] final  100.26 input  175.53 | X-H torsion
[ 8008 7997 7996 7995 ] final   18.13 input   59.86 | X-H torsion
[ 10167 10162 10161 10158 ] final  -35.28 input  -65.29 | X-H torsion
[ 10718 10713 10712 10709 ] final  102.22 input   66.30 | X-H torsion
[ 10763 10752 10751 10750 ] final  -89.92 input  -60.55 | X-H torsion
[ 11005 11000 10999 10996 ] final  -93.19 input  -57.11 | X-H torsion

> <Gold.Protein.ActiveResidues>
 VAL166  LYS551  ARG553  GLY616  TRP617  ASP618  TYR619  PRO620  LYS621  CYS622 
 ASP623  PHE694  ASN695  SER759  ASP760  ASP761  ALA762  ILE779  LEU786  VAL792 
 PHE793  MET794  SER795  GLU796  ALA797  LYS798  CYS799  TRP800  GLU811  SER814 

> <Gold.Protein.RotatedAtoms>
  151.5781  135.1059  160.0010 H   0  0  0  0  0  0  0  0  0  0  0  0  # atno 6907 bound_to 6896
  152.4368  133.7371  159.6630 H   0  0  0  0  0  0  0  0  0  0  0  0  # atno 6908 bound_to 6896
  150.8267  133.8090  159.3139 H   0  0  0  0  0  0  0  0  0  0  0  0  # atno 6909 bound_to 6896
  145.3879  139.2368  143.3368 H   0  0  0  0  0  0  0  0  0  0  0  0  # atno 7974 bound_to 7965
  154.9015  140.3001  155.5315 H   0  0  0  0  0  0  0  0  0  0  0  0  # atno 8008 bound_to 7997
  156.3018  140.2406  156.3979 H   0  0  0  0  0  0  0  0  0  0  0  0  # atno 8009 bound_to 7997
  154.8516  140.0409  157.1596 H   0  0  0  0  0  0  0  0  0  0  0  0  # atno 8010 bound_to 7997
  140.7168  143.3488  151.2199 H   0  0  0  0  0  0  0  0  0  0  0  0  # atno 10167 bound_to 10162
  157.6808  131.0747  150.5371 H   0  0  0  0  0  0  0  0  0  0  0  0  # atno 10718 bound_to 10713
  154.6603  135.5323  153.8010 H   0  0  0  0  0  0  0  0  0  0  0  0  # atno 10763 bound_to 10752
  153.0438  135.6504  154.0881 H   0  0  0  0  0  0  0  0  0  0  0  0  # atno 10764 bound_to 10752
  154.0790  135.2948  155.3274 H   0  0  0  0  0  0  0  0  0  0  0  0  # atno 10765 bound_to 10752
  141.1503  133.7871  157.0124 H   0  0  0  0  0  0  0  0  0  0  0  0  # atno 11005 bound_to 11000
  146.2811  140.4557  142.8776 LP  0  0  0  0  0  0  0  0  0  0  0  0  # atno 17320 bound_to 7965
  144.8461  140.6931  143.6198 LP  0  0  0  0  0  0  0  0  0  0  0  0  # atno 17321 bound_to 7965
  139.7014  143.9526  152.2907 LP  0  0  0  0  0  0  0  0  0  0  0  0  # atno 17342 bound_to 10162
  139.9221  144.6793  150.8451 LP  0  0  0  0  0  0  0  0  0  0  0  0  # atno 17343 bound_to 10162
  156.5679  130.4272  149.6032 LP  0  0  0  0  0  0  0  0  0  0  0  0  # atno 17370 bound_to 10713
  156.2765  130.7047  151.1859 LP  0  0  0  0  0  0  0  0  0  0  0  0  # atno 17371 bound_to 10713
  140.0869  134.9615  157.1714 LP  0  0  0  0  0  0  0  0  0  0  0  0  # atno 17394 bound_to 11000
  140.3500  134.2610  155.7200 LP  0  0  0  0  0  0  0  0  0  0  0  0  # atno 17395 bound_to 11000

$$$$
