AV-unprocessed.smi:3329|AV-procd|sdf|12799|dock2
  -GOLD-   2272019153D 1   1.00000     0.00000
 Structure written by MMmdl.
 41 42  0  0  0  0  0  0  0  0  3 V2000
  151.7707  145.2166  158.9092 C   0  0  0  0  0  0  0  0  0  0  0  0
  152.2514  144.1307  159.8286 C   0  0  0  0  0  0  0  0  0  0  0  0
  152.0935  144.0514  161.2415 C   0  0  0  0  0  0  0  0  0  0  0  0
  152.6297  142.9574  161.7579 N   0  0  0  0  0  0  0  0  0  0  0  0
  153.1467  142.3021  160.6974 N   0  0  0  0  0  0  0  0  0  0  0  0
  153.8215  141.0317  160.8938 C   0  0  0  0  0  0  0  0  0  0  0  0
  154.8758  140.7584  159.8089 C   0  0  0  0  0  0  0  0  0  0  0  0
  155.1817  139.3182  159.7059 N   0  3  0  0  0  0  0  0  0  0  0  0
  154.0053  138.4382  159.8390 C   0  0  0  0  0  0  0  0  0  0  0  0
  153.4048  138.1609  158.4572 C   0  0  0  0  0  0  0  0  0  0  0  0
  153.3037  137.0015  158.0541 O   0  0  0  0  0  0  0  0  0  0  0  0
  153.0501  139.3099  157.8338 N   0  5  0  0  0  0  0  0  0  0  0  0
  151.7771  139.4824  157.1223 C   0  0  1  0  0  0  0  0  0  0  0  0
  150.8322  138.3089  157.4532 C   0  0  0  0  0  0  0  0  0  0  0  0
  151.1483  140.7682  157.4865 C   0  0  0  0  0  0  0  0  0  0  0  0
  150.6562  141.7765  157.7723 N   0  0  0  0  0  0  0  0  0  0  0  0
  152.0126  139.5201  155.6090 C   0  0  0  0  0  0  0  0  0  0  0  0
  151.0762  138.9091  154.5905 C   0  0  0  0  0  0  0  0  0  0  0  0
  152.4577  138.3190  154.8057 C   0  0  0  0  0  0  0  0  0  0  0  0
  152.9371  142.9899  159.5208 C   0  0  0  0  0  0  0  0  0  0  0  0
  152.0924  146.2017  159.2475 H   0  0  0  0  0  0  0  0  0  0  0  0
  150.6826  145.2371  158.8481 H   0  0  0  0  0  0  0  0  0  0  0  0
  152.1473  145.0869  157.8942 H   0  0  0  0  0  0  0  0  0  0  0  0
  151.6060  144.7525  161.9031 H   0  0  0  0  0  0  0  0  0  0  0  0
  154.2810  141.0254  161.8831 H   0  0  0  0  0  0  0  0  0  0  0  0
  153.0700  140.2409  160.8927 H   0  0  0  0  0  0  0  0  0  0  0  0
  154.5099  141.1110  158.8440 H   0  0  0  0  0  0  0  0  0  0  0  0
  155.7912  141.3121  160.0229 H   0  0  0  0  0  0  0  0  0  0  0  0
  155.6012  139.1394  158.8045 H   0  0  0  0  0  0  0  0  0  0  0  0
  154.3069  137.5124  160.3329 H   0  0  0  0  0  0  0  0  0  0  0  0
  153.2518  138.9183  160.4648 H   0  0  0  0  0  0  0  0  0  0  0  0
  149.8983  138.3911  156.8967 H   0  0  0  0  0  0  0  0  0  0  0  0
  150.5694  138.2780  158.5108 H   0  0  0  0  0  0  0  0  0  0  0  0
  151.2836  137.3501  157.1950 H   0  0  0  0  0  0  0  0  0  0  0  0
  152.4710  140.4568  155.2955 H   0  0  0  0  0  0  0  0  0  0  0  0
  150.2232  138.3342  154.9453 H   0  0  0  0  0  0  0  0  0  0  0  0
  150.9060  139.4673  153.6723 H   0  0  0  0  0  0  0  0  0  0  0  0
  153.2014  138.4851  154.0290 H   0  0  0  0  0  0  0  0  0  0  0  0
  152.5195  137.3547  155.3059 H   0  0  0  0  0  0  0  0  0  0  0  0
  153.2848  142.6128  158.5700 H   0  0  0  0  0  0  0  0  0  0  0  0
  155.8464  139.0695  160.4244 H   0  0  0  0  0  0  0  0  0  0  0  0
  1  2  1  0  0  0  0
  1 21  1  0  0  0  0
  1 22  1  0  0  0  0
  1 23  1  0  0  0  0
  2 20  2  0  0  0  0
  2  3  1  0  0  0  0
  3  4  2  0  0  0  0
  3 24  1  0  0  0  0
  4  5  1  0  0  0  0
  5  6  1  0  0  0  0
  5 20  1  0  0  0  0
  6  7  1  0  0  0  0
  6 25  1  0  0  0  0
  6 26  1  0  0  0  0
  7  8  1  0  0  0  0
  7 27  1  0  0  0  0
  7 28  1  0  0  0  0
  8  9  1  0  0  0  0
  8 29  1  0  0  0  0
  8 41  1  0  0  0  0
  9 10  1  0  0  0  0
  9 30  1  0  0  0  0
  9 31  1  0  0  0  0
 10 11  2  0  0  0  0
 10 12  1  0  0  0  0
 12 13  1  0  0  0  0
 13 14  1  0  0  0  0
 13 15  1  0  0  0  0
 13 17  1  0  0  0  0
 14 32  1  0  0  0  0
 14 33  1  0  0  0  0
 14 34  1  0  0  0  0
 15 16  3  0  0  0  0
 17 19  1  0  0  0  0
 17 18  1  0  0  0  0
 17 35  1  0  0  0  0
 18 19  1  0  0  0  0
 18 36  1  0  0  0  0
 18 37  1  0  0  0  0
 19 38  1  0  0  0  0
 19 39  1  0  0  0  0
 20 40  1  0  0  0  0
M  CHG  1   8   1
M  CHG  1  12  -1
M  END
> <s_m_source_file>
AV-unprocessed.smi

> <i_m_source_file_index>
3329

> <i_lp_mmshare_version>
43012

> <i_f3d_flags>
0

> <s_epik_input>
W0NIM11jMVtjSF1ubihbY0hdMSlbQ0gyXVtDSDJdW05IXVtDSDJdQyg9TylbTkhdW0NAQF0oW0NIM10pKEMjTilbQ0hdMltDSDJdW0NIMl0y

> <s_epik_cmdline>
J2VwaWtfcHl0aG9uJywgJy1waCcsICc3LjAnLCAnLXRuJywgJzgnLCAnLW1hJywgJzIwMCcsICctbWV0YWxfYmluZGluZycsICctaW1hZScsICc8aW5maWxlLm1hZT4nLCAnLW9tYWUnLCAnPG91dGZpbGUubWFlPic=

> <r_lp_tautomer_probability>
1

> <r_epik_Ionization_Penalty>
5.61187

> <r_epik_Ionization_Penalty_Charging>
5.61186

> <r_epik_Ionization_Penalty_Neutral>
4.91277e-06

> <r_epik_State_Penalty>
5.94522

> <r_epik_Charging_Adjusted_Penalty>
11.5571

> <i_epik_Tot_Q>
0

> <i_epik_Tot_abs_Q>
2

> <r_epik_Metal_State_Penalty>
1.9215

> <b_epik_Metal_Only>
1

> <s_lp_Force_Field>
OPLS_2005

> <r_lp_Energy>
13.6964

> <b_lp_Chiralities_Consistent>
1

> <s_lp_Variant>
AV-unprocessed.smi:3329-5

> <Gold.Version>
5.8.1

> <Gold.Id.Protein>
6NUR|6NUR_protein|mol2

> <Gold.PLP.Fitness>
48.2449

> <Gold.PLP.PLP>
-44.7556

> <Gold.PLP.part.hbond>
-1.0000

> <Gold.PLP.part.metal>
0.0000

> <Gold.PLP.part.buried>
-5.5601

> <Gold.PLP.part.nonpolar>
-37.7559

> <Gold.PLP.part.repulsive>
0.2268

> <Gold.PLP.ligand.clash>
0.0000

> <Gold.PLP.ligand.torsion>
2.1735

> <Gold.PLP.Chemscore.Hbond>
2.0000

> <Gold.PLP.Chemscore.CHOScore>
0.0000

> <Gold.PLP.Chemscore.Metal>
0.0000

> <Gold.Chemscore.Hbonds>
donor molecule, donor type, donor heavy atom, donor atom, acceptor molecule, acceptor atom, score
      P1  H  7997  8010       L1    12  2.00

> <Gold.PLP.Chemscore.Internal.Correction>
1.8363

> <Gold.Rescore>
     Score         DG    S(hbond)    S(metal)    S(lipo)     H(rot)  DE(clash)    DE(int)     intcor
     10.90     -14.43       0.64        0.00     108.77       2.31       0.03       3.51       ----

> <Gold.Chemscore.Fitness>
10.8966

> <Gold.Chemscore.DG>
-14.4318

> <Gold.Chemscore.ZeroCoef>
-5.4800

> <Gold.Chemscore.Hbond>
0.6434

> <Gold.Chemscore.Metal>
0.0000

> <Gold.Chemscore.Lipo>
108.7729

> <Gold.Chemscore.Internal_Hbond>
0.0000

> <Gold.Chemscore.DEClash>
0.0275

> <Gold.Chemscore.DEInternal>
3.5077

> <Gold.Chemscore.Rot>
2.3140

> <Gold.Chemscore.Internal.Correction>
   9.000000E+99

> <Gold.Chemscore.Hbonds>
donor molecule, donor type, donor heavy atom, donor atom, acceptor molecule, acceptor atom, score
      P1  H  7997  8010       L1    12  0.67

> <Gold.Chemscore.Hbond.Weighted>
-2.1491

> <Gold.Chemscore.Metal.Weighted>
-0.0000

> <Gold.Chemscore.Lipo.Weighted>
-12.7264

> <Gold.Chemscore.Internal_Hbond.Weighted>
0.0000

> <Gold.Chemscore.DEClash.Weighted>
0.0275

> <Gold.Chemscore.DEInternal.Weighted>
3.5077

> <Gold.Chemscore.Rot.Weighted>
5.9238

> <Gold.Chemscore.Internal.Correction.Weighted>
   9.000000E+99

> <Gold.Protein.RotatedTorsions>
[ 6907 6896 6895 6894 ] final  -17.46 input  -60.11 | X-H torsion
[ 7974 7965 7964 7962 ] final   80.92 input  175.53 | X-H torsion
[ 8008 7997 7996 7995 ] final   42.91 input   59.86 | X-H torsion
[ 10167 10162 10161 10158 ] final -100.48 input  -65.29 | X-H torsion
[ 10718 10713 10712 10709 ] final  133.63 input   66.30 | X-H torsion
[ 10763 10752 10751 10750 ] final   69.12 input  -60.55 | X-H torsion
[ 11005 11000 10999 10996 ] final  -87.46 input  -57.11 | X-H torsion

> <Gold.Protein.ActiveResidues>
 VAL166  LYS551  ARG553  GLY616  TRP617  ASP618  TYR619  PRO620  LYS621  CYS622 
 ASP623  PHE694  ASN695  SER759  ASP760  ASP761  ALA762  ILE779  LEU786  VAL792 
 PHE793  MET794  SER795  GLU796  ALA797  LYS798  CYS799  TRP800  GLU811  SER814 

> <Gold.Protein.RotatedAtoms>
  151.2930  135.0747  159.9210 H   0  0  0  0  0  0  0  0  0  0  0  0  # atno 6907 bound_to 6896
  152.5313  133.9912  159.7862 H   0  0  0  0  0  0  0  0  0  0  0  0  # atno 6908 bound_to 6896
  151.0186  133.5847  159.2704 H   0  0  0  0  0  0  0  0  0  0  0  0  # atno 6909 bound_to 6896
  145.6449  139.2434  143.2010 H   0  0  0  0  0  0  0  0  0  0  0  0  # atno 7974 bound_to 7965
  155.2940  140.3380  155.4251 H   0  0  0  0  0  0  0  0  0  0  0  0  # atno 8008 bound_to 7997
  156.2033  140.1741  156.7894 H   0  0  0  0  0  0  0  0  0  0  0  0  # atno 8009 bound_to 7997
  154.5587  140.0691  156.8768 H   0  0  0  0  0  0  0  0  0  0  0  0  # atno 8010 bound_to 7997
  140.2515  143.3469  152.0710 H   0  0  0  0  0  0  0  0  0  0  0  0  # atno 10167 bound_to 10162
  157.4754  131.1082  150.9750 H   0  0  0  0  0  0  0  0  0  0  0  0  # atno 10718 bound_to 10713
  153.0270  135.5222  154.7240 H   0  0  0  0  0  0  0  0  0  0  0  0  # atno 10763 bound_to 10752
  154.6287  135.2897  155.0244 H   0  0  0  0  0  0  0  0  0  0  0  0  # atno 10764 bound_to 10752
  154.1204  135.6608  153.4954 H   0  0  0  0  0  0  0  0  0  0  0  0  # atno 10765 bound_to 10752
  141.1616  133.7512  156.9310 H   0  0  0  0  0  0  0  0  0  0  0  0  # atno 11005 bound_to 11000
  146.1251  140.7259  142.9439 LP  0  0  0  0  0  0  0  0  0  0  0  0  # atno 17320 bound_to 7965
  144.7144  140.4156  143.7056 LP  0  0  0  0  0  0  0  0  0  0  0  0  # atno 17321 bound_to 7965
  139.5045  144.6776  151.6089 LP  0  0  0  0  0  0  0  0  0  0  0  0  # atno 17342 bound_to 10162
  140.6037  143.9563  150.6404 LP  0  0  0  0  0  0  0  0  0  0  0  0  # atno 17343 bound_to 10162
  157.0501  130.5783  149.5369 LP  0  0  0  0  0  0  0  0  0  0  0  0  # atno 17370 bound_to 10713
  156.0094  130.5184  150.7939 LP  0  0  0  0  0  0  0  0  0  0  0  0  # atno 17371 bound_to 10713
  140.1387  134.9308  157.2436 LP  0  0  0  0  0  0  0  0  0  0  0  0  # atno 17394 bound_to 11000
  140.2864  134.3291  155.7328 LP  0  0  0  0  0  0  0  0  0  0  0  0  # atno 17395 bound_to 11000

$$$$
