AV-unprocessed.smi:2256|AV-procd|sdf|9127|dock5
  -GOLD-   2272012333D 1   1.00000     0.00000
 Structure written by MMmdl.
 42 44  0  0  0  0  0  0  0  0  1 V2000
  150.1893  144.0553  156.5557 C   0  0  0  0  0  0  0  0  0  0  0  0
  150.8246  142.6844  156.4048 C   0  0  0  0  0  0  0  0  0  0  0  0
  150.6454  142.0689  155.1625 N   0  0  0  0  0  0  0  0  0  0  0  0
  151.1557  140.9016  154.9417 C   0  0  0  0  0  0  0  0  0  0  0  0
  151.8970  140.2230  155.9225 N   0  0  0  0  0  0  0  0  0  0  0  0
  152.4235  138.9016  155.5430 C   0  0  0  0  0  0  0  0  0  0  0  0
  151.3478  138.0205  154.8690 C   0  0  1  0  0  0  0  0  0  0  0  0
  151.9553  137.0377  154.0550 O   0  0  0  0  0  0  0  0  0  0  0  0
  150.4411  137.2949  155.8771 C   0  0  0  0  0  0  0  0  0  0  0  0
  149.6016  136.3718  155.1937 O   0  0  0  0  0  0  0  0  0  0  0  0
  149.3505  135.1497  155.7807 C   0  0  0  0  0  0  0  0  0  0  0  0
  149.7571  134.8074  157.0970 C   0  0  0  0  0  0  0  0  0  0  0  0
  149.4668  133.5392  157.6348 C   0  0  0  0  0  0  0  0  0  0  0  0
  148.7664  132.5940  156.8671 C   0  0  0  0  0  0  0  0  0  0  0  0
  148.3631  132.9315  155.5644 C   0  0  0  0  0  0  0  0  0  0  0  0
  147.6759  132.2292  154.5938 N   0  0  0  0  0  0  0  0  0  0  0  0
  147.5165  132.9984  153.4548 C   0  0  0  0  0  0  0  0  0  0  0  0
  148.0983  134.2222  153.6611 C   0  0  0  0  0  0  0  0  0  0  0  0
  148.6430  134.2077  154.9923 C   0  0  0  0  0  0  0  0  0  0  0  0
  152.1033  140.7428  157.1671 C   0  0  0  0  0  0  0  0  0  0  0  0
  152.7319  140.1267  158.0299 O   0  0  0  0  0  0  0  0  0  0  0  0
  151.5245  142.0757  157.4008 C   0  0  0  0  0  0  0  0  0  0  0  0
  151.7537  142.6975  158.7729 C   0  0  0  0  0  0  0  0  0  0  0  0
  147.3264  131.2851  154.6762 H   0  0  0  0  0  0  0  0  0  0  0  0
  150.9497  144.8087  156.7622 H   0  0  0  0  0  0  0  0  0  0  0  0
  149.4679  144.0536  157.3731 H   0  0  0  0  0  0  0  0  0  0  0  0
  149.6626  144.3518  155.6479 H   0  0  0  0  0  0  0  0  0  0  0  0
  151.0407  140.3755  153.9923 H   0  0  0  0  0  0  0  0  0  0  0  0
  153.3092  138.9795  154.9088 H   0  0  0  0  0  0  0  0  0  0  0  0
  152.7856  138.4028  156.4441 H   0  0  0  0  0  0  0  0  0  0  0  0
  150.7104  138.6278  154.2251 H   0  0  0  0  0  0  0  0  0  0  0  0
  151.3359  136.7761  153.3906 H   0  0  0  0  0  0  0  0  0  0  0  0
  151.0711  136.7488  156.5812 H   0  0  0  0  0  0  0  0  0  0  0  0
  149.8528  138.0156  156.4481 H   0  0  0  0  0  0  0  0  0  0  0  0
  150.2970  135.5044  157.7197 H   0  0  0  0  0  0  0  0  0  0  0  0
  149.7828  133.2930  158.6379 H   0  0  0  0  0  0  0  0  0  0  0  0
  148.5406  131.6195  157.2744 H   0  0  0  0  0  0  0  0  0  0  0  0
  147.0008  132.6110  152.5884 H   0  0  0  0  0  0  0  0  0  0  0  0
  148.1452  135.0470  152.9657 H   0  0  0  0  0  0  0  0  0  0  0  0
  151.3262  142.0625  159.5491 H   0  0  0  0  0  0  0  0  0  0  0  0
  151.3092  143.6858  158.8764 H   0  0  0  0  0  0  0  0  0  0  0  0
  152.8219  142.7973  158.9671 H   0  0  0  0  0  0  0  0  0  0  0  0
  1  2  1  0  0  0  0
  1 25  1  0  0  0  0
  1 26  1  0  0  0  0
  1 27  1  0  0  0  0
  2 22  2  0  0  0  0
  2  3  1  0  0  0  0
  3  4  2  0  0  0  0
  4  5  1  0  0  0  0
  4 28  1  0  0  0  0
  5  6  1  0  0  0  0
  5 20  1  0  0  0  0
  6  7  1  0  0  0  0
  6 29  1  0  0  0  0
  6 30  1  0  0  0  0
  7  8  1  0  0  0  0
  7  9  1  0  0  0  0
  7 31  1  0  0  0  0
  8 32  1  0  0  0  0
  9 10  1  0  0  0  0
  9 33  1  0  0  0  0
  9 34  1  0  0  0  0
 10 11  1  0  0  0  0
 11 19  1  0  0  0  0
 11 12  2  0  0  0  0
 12 13  1  0  0  0  0
 12 35  1  0  0  0  0
 13 14  2  0  0  0  0
 13 36  1  0  0  0  0
 14 15  1  0  0  0  0
 14 37  1  0  0  0  0
 15 19  2  0  0  0  0
 15 16  1  0  0  0  0
 16 24  1  0  0  0  0
 16 17  1  0  0  0  0
 17 18  2  0  0  0  0
 17 38  1  0  0  0  0
 18 19  1  0  0  0  0
 18 39  1  0  0  0  0
 20 21  2  0  0  0  0
 20 22  1  0  0  0  0
 22 23  1  0  0  0  0
 23 40  1  0  0  0  0
 23 41  1  0  0  0  0
 23 42  1  0  0  0  0
M  END
> <s_m_source_file>
AV-unprocessed.smi

> <i_m_source_file_index>
2256

> <i_lp_mmshare_version>
43012

> <i_f3d_flags>
0

> <s_epik_input>
W0NIM11jMW5bY0hdbihjKD1PKWMxW0NIM10pW0NIMl1bQ0BIXShbT0hdKVtDSDJdT2MoW2NIXVtjSF1bY0hdMiljKGMyMylbY0hdW2NIXVtuSF0z

> <s_epik_cmdline>
J2VwaWtfcHl0aG9uJywgJy1waCcsICc3LjAnLCAnLXRuJywgJzgnLCAnLW1hJywgJzIwMCcsICctbWV0YWxfYmluZGluZycsICctaW1hZScsICc8aW5maWxlLm1hZT4nLCAnLW9tYWUnLCAnPG91dGZpbGUubWFlPic=

> <r_lp_tautomer_probability>
1

> <r_epik_Ionization_Penalty>
4.18314e-05

> <r_epik_Ionization_Penalty_Charging>
1.04093e-07

> <r_epik_Ionization_Penalty_Neutral>
4.17273e-05

> <r_epik_State_Penalty>
-0

> <r_epik_Charging_Adjusted_Penalty>
1.04093e-07

> <i_epik_Tot_Q>
0

> <i_epik_Tot_abs_Q>
0

> <r_epik_Metal_State_Penalty>
-0

> <b_epik_Metal_Only>
0

> <s_lp_Force_Field>
OPLS_2005

> <r_lp_Energy>
26.3199

> <b_lp_Chiralities_Consistent>
1

> <s_lp_Variant>
AV-unprocessed.smi:2256-2

> <Gold.Version>
5.8.1

> <Gold.Id.Protein>
6NUR|6NUR_protein|mol2

> <Gold.PLP.Fitness>
49.7069

> <Gold.PLP.PLP>
-40.7052

> <Gold.PLP.part.hbond>
-3.0000

> <Gold.PLP.part.metal>
0.0000

> <Gold.PLP.part.buried>
-3.5823

> <Gold.PLP.part.nonpolar>
-34.4334

> <Gold.PLP.part.repulsive>
0.2072

> <Gold.PLP.ligand.clash>
0.0000

> <Gold.PLP.ligand.torsion>
0.7422

> <Gold.PLP.Chemscore.Hbond>
2.7280

> <Gold.PLP.Chemscore.CHOScore>
0.7397

> <Gold.PLP.Chemscore.Metal>
0.0000

> <Gold.Chemscore.Hbonds>
donor molecule, donor type, donor heavy atom, donor atom, acceptor molecule, acceptor atom, score
      L1  H     8    32       P1  7949  0.80
      P1  H  7997  8009       L1    21  0.20
      P1  H 10752 10765       L1     8  1.00

> <Gold.PLP.Chemscore.Internal.Correction>
0.0832

> <Gold.Rescore>
     Score         DG    S(hbond)    S(metal)    S(lipo)     H(rot)  DE(clash)    DE(int)     intcor
     11.48     -12.81       0.86        0.00      94.41       2.58       0.10       1.23       ----

> <Gold.Chemscore.Fitness>
11.4776

> <Gold.Chemscore.DG>
-12.8078

> <Gold.Chemscore.ZeroCoef>
-5.4800

> <Gold.Chemscore.Hbond>
0.8646

> <Gold.Chemscore.Metal>
0.0000

> <Gold.Chemscore.Lipo>
94.4095

> <Gold.Chemscore.Internal_Hbond>
0.0000

> <Gold.Chemscore.DEClash>
0.1009

> <Gold.Chemscore.DEInternal>
1.2293

> <Gold.Chemscore.Rot>
2.5804

> <Gold.Chemscore.Internal.Correction>
   9.000000E+99

> <Gold.Chemscore.Hbonds>
donor molecule, donor type, donor heavy atom, donor atom, acceptor molecule, acceptor atom, score
      L1  H     8    32       P1  7949  0.54
      P1  H  7997  8009       L1    21  0.10
      P1  H 10752 10765       L1     8  0.29

> <Gold.Chemscore.Hbond.Weighted>
-2.8878

> <Gold.Chemscore.Metal.Weighted>
-0.0000

> <Gold.Chemscore.Lipo.Weighted>
-11.0459

> <Gold.Chemscore.Internal_Hbond.Weighted>
0.0000

> <Gold.Chemscore.DEClash.Weighted>
0.1009

> <Gold.Chemscore.DEInternal.Weighted>
1.2293

> <Gold.Chemscore.Rot.Weighted>
6.6059

> <Gold.Chemscore.Internal.Correction.Weighted>
   9.000000E+99

> <Gold.Protein.RotatedTorsions>
[ 6907 6896 6895 6894 ] final  -51.21 input  -60.11 | X-H torsion
[ 7974 7965 7964 7962 ] final  -40.07 input  175.53 | X-H torsion
[ 8008 7997 7996 7995 ] final  131.93 input   59.86 | X-H torsion
[ 10167 10162 10161 10158 ] final   42.19 input  -65.29 | X-H torsion
[ 10718 10713 10712 10709 ] final  -89.99 input   66.30 | X-H torsion
[ 10763 10752 10751 10750 ] final  143.97 input  -60.55 | X-H torsion
[ 11005 11000 10999 10996 ] final  -13.47 input  -57.11 | X-H torsion

> <Gold.Protein.ActiveResidues>
 VAL166  LYS551  ARG553  GLY616  TRP617  ASP618  TYR619  PRO620  LYS621  CYS622 
 ASP623  PHE694  ASN695  SER759  ASP760  ASP761  ALA762  ILE779  LEU786  VAL792 
 PHE793  MET794  SER795  GLU796  ALA797  LYS798  CYS799  TRP800  GLU811  SER814 

> <Gold.Protein.RotatedAtoms>
  150.8633  134.7991  159.7099 H   0  0  0  0  0  0  0  0  0  0  0  0  # atno 6907 bound_to 6896
  152.4663  134.5064  159.9750 H   0  0  0  0  0  0  0  0  0  0  0  0  # atno 6908 bound_to 6896
  151.5164  133.3436  159.2929 H   0  0  0  0  0  0  0  0  0  0  0  0  # atno 6909 bound_to 6896
  146.0338  140.6697  142.9120 H   0  0  0  0  0  0  0  0  0  0  0  0  # atno 7974 bound_to 7965
  156.2976  140.2559  156.3006 H   0  0  0  0  0  0  0  0  0  0  0  0  # atno 8008 bound_to 7997
  154.9421  140.0396  157.2121 H   0  0  0  0  0  0  0  0  0  0  0  0  # atno 8009 bound_to 7997
  154.8116  140.2845  155.5853 H   0  0  0  0  0  0  0  0  0  0  0  0  # atno 8010 bound_to 7997
  140.3568  144.2279  150.6141 H   0  0  0  0  0  0  0  0  0  0  0  0  # atno 10167 bound_to 10162
  155.9986  130.4893  150.5255 H   0  0  0  0  0  0  0  0  0  0  0  0  # atno 10718 bound_to 10713
  153.9811  135.2941  155.3420 H   0  0  0  0  0  0  0  0  0  0  0  0  # atno 10763 bound_to 10752
  154.7268  135.5085  153.8903 H   0  0  0  0  0  0  0  0  0  0  0  0  # atno 10764 bound_to 10752
  153.0854  135.6692  154.0074 H   0  0  0  0  0  0  0  0  0  0  0  0  # atno 10765 bound_to 10752
  140.7764  133.8397  155.9253 H   0  0  0  0  0  0  0  0  0  0  0  0  # atno 11005 bound_to 11000
  144.7042  140.3784  143.7131 LP  0  0  0  0  0  0  0  0  0  0  0  0  # atno 17320 bound_to 7965
  145.6997  139.1658  143.2600 LP  0  0  0  0  0  0  0  0  0  0  0  0  # atno 17321 bound_to 7965
  140.5165  143.2276  151.8454 LP  0  0  0  0  0  0  0  0  0  0  0  0  # atno 17342 bound_to 10162
  139.4819  144.4887  151.9213 LP  0  0  0  0  0  0  0  0  0  0  0  0  # atno 17343 bound_to 10162
  157.3211  131.0682  151.1931 LP  0  0  0  0  0  0  0  0  0  0  0  0  # atno 17370 bound_to 10713
  157.2844  130.6766  149.6082 LP  0  0  0  0  0  0  0  0  0  0  0  0  # atno 17371 bound_to 10713
  140.9524  134.1761  157.4717 LP  0  0  0  0  0  0  0  0  0  0  0  0  # atno 17394 bound_to 11000
  139.8748  134.9914  156.5549 LP  0  0  0  0  0  0  0  0  0  0  0  0  # atno 17395 bound_to 11000

$$$$
