AV-unprocessed.smi:2790|AV-procd|sdf|10766|dock6
  -GOLD-   2272015203D 1   1.00000     0.00000
 Structure written by MMmdl.
 46 47  0  0  0  0  0  0  0  0  2 V2000
  145.2494  135.6551  151.0417 C   0  0  0  0  0  0  0  0  0  0  0  0
  146.1228  136.6296  151.7367 N   0  3  0  0  0  0  0  0  0  0  0  0
  146.1633  137.9277  151.0288 C   0  0  0  0  0  0  0  0  0  0  0  0
  145.7941  136.7838  153.1768 C   0  0  0  0  0  0  0  0  0  0  0  0
  146.3015  138.1015  153.7705 C   0  0  0  0  0  0  0  0  0  0  0  0
  145.5293  138.8656  154.3500 O   0  0  0  0  0  0  0  0  0  0  0  0
  147.6107  138.3472  153.6300 N   0  0  0  0  0  0  0  0  0  0  0  0
  148.2852  139.5486  154.1130 C   0  0  0  0  0  0  0  0  0  0  0  0
  149.4192  139.2268  155.1200 C   0  0  0  0  0  0  0  0  0  0  0  0
  148.7852  138.8544  156.4818 C   0  0  0  0  0  0  0  0  0  0  0  0
  149.5547  138.4231  157.5919 C   0  0  0  0  0  0  0  0  0  0  0  0
  148.9068  138.1288  158.8078 C   0  0  0  0  0  0  0  0  0  0  0  0
  147.5766  138.2494  158.9891 N   0  0  0  0  0  0  0  0  0  0  0  0
  146.8408  138.6777  157.9440 C   0  0  0  0  0  0  0  0  0  0  0  0
  147.3914  138.9967  156.6874 C   0  0  0  0  0  0  0  0  0  0  0  0
  150.2608  138.0527  154.5408 C   0  0  0  0  0  0  0  0  0  0  0  0
  151.5109  137.7359  155.3807 C   0  0  0  0  0  0  0  0  0  0  0  0
  152.4262  138.9637  155.4765 C   0  0  0  0  0  0  0  0  0  0  0  0
  151.6624  140.1781  156.0211 C   0  0  0  0  0  0  0  0  0  0  0  0
  150.3841  140.4504  155.2007 C   0  0  0  0  0  0  0  0  0  0  0  0
  144.2122  135.9930  151.0375 H   0  0  0  0  0  0  0  0  0  0  0  0
  145.2866  134.6766  151.5211 H   0  0  0  0  0  0  0  0  0  0  0  0
  145.5692  135.5246  150.0074 H   0  0  0  0  0  0  0  0  0  0  0  0
  145.1864  138.4128  151.0465 H   0  0  0  0  0  0  0  0  0  0  0  0
  146.4586  137.7909  149.9880 H   0  0  0  0  0  0  0  0  0  0  0  0
  146.8882  138.5984  151.4912 H   0  0  0  0  0  0  0  0  0  0  0  0
  144.7110  136.7792  153.3067 H   0  0  0  0  0  0  0  0  0  0  0  0
  146.1810  135.9338  153.7416 H   0  0  0  0  0  0  0  0  0  0  0  0
  148.1793  137.6680  153.1449 H   0  0  0  0  0  0  0  0  0  0  0  0
  148.6947  140.0811  153.2529 H   0  0  0  0  0  0  0  0  0  0  0  0
  147.5490  140.2152  154.5660 H   0  0  0  0  0  0  0  0  0  0  0  0
  150.6257  138.3107  157.5426 H   0  0  0  0  0  0  0  0  0  0  0  0
  149.4765  137.7934  159.6619 H   0  0  0  0  0  0  0  0  0  0  0  0
  145.7794  138.7784  158.1161 H   0  0  0  0  0  0  0  0  0  0  0  0
  146.7375  139.3543  155.9074 H   0  0  0  0  0  0  0  0  0  0  0  0
  149.6643  137.1507  154.4136 H   0  0  0  0  0  0  0  0  0  0  0  0
  150.5898  138.3113  153.5330 H   0  0  0  0  0  0  0  0  0  0  0  0
  151.2212  137.4079  156.3797 H   0  0  0  0  0  0  0  0  0  0  0  0
  152.0570  136.9060  154.9317 H   0  0  0  0  0  0  0  0  0  0  0  0
  153.2846  138.7442  156.1121 H   0  0  0  0  0  0  0  0  0  0  0  0
  152.8245  139.1981  154.4885 H   0  0  0  0  0  0  0  0  0  0  0  0
  151.4194  140.0101  157.0696 H   0  0  0  0  0  0  0  0  0  0  0  0
  152.3076  141.0566  155.9987 H   0  0  0  0  0  0  0  0  0  0  0  0
  150.6953  140.7203  154.1903 H   0  0  0  0  0  0  0  0  0  0  0  0
  149.8770  141.3377  155.5783 H   0  0  0  0  0  0  0  0  0  0  0  0
  147.0620  136.2582  151.7009 H   0  0  0  0  0  0  0  0  0  0  0  0
  1  2  1  0  0  0  0
  1 21  1  0  0  0  0
  1 22  1  0  0  0  0
  1 23  1  0  0  0  0
  2  3  1  0  0  0  0
  2  4  1  0  0  0  0
  2 46  1  0  0  0  0
  3 24  1  0  0  0  0
  3 25  1  0  0  0  0
  3 26  1  0  0  0  0
  4  5  1  0  0  0  0
  4 27  1  0  0  0  0
  4 28  1  0  0  0  0
  5  6  2  0  0  0  0
  5  7  1  0  0  0  0
  7  8  1  0  0  0  0
  7 29  1  0  0  0  0
  8  9  1  0  0  0  0
  8 30  1  0  0  0  0
  8 31  1  0  0  0  0
  9 20  1  0  0  0  0
  9 10  1  0  0  0  0
  9 16  1  0  0  0  0
 10 15  1  0  0  0  0
 10 11  2  0  0  0  0
 11 12  1  0  0  0  0
 11 32  1  0  0  0  0
 12 13  2  0  0  0  0
 12 33  1  0  0  0  0
 13 14  1  0  0  0  0
 14 15  2  0  0  0  0
 14 34  1  0  0  0  0
 15 35  1  0  0  0  0
 16 17  1  0  0  0  0
 16 36  1  0  0  0  0
 16 37  1  0  0  0  0
 17 18  1  0  0  0  0
 17 38  1  0  0  0  0
 17 39  1  0  0  0  0
 18 19  1  0  0  0  0
 18 40  1  0  0  0  0
 18 41  1  0  0  0  0
 19 20  1  0  0  0  0
 19 42  1  0  0  0  0
 19 43  1  0  0  0  0
 20 44  1  0  0  0  0
 20 45  1  0  0  0  0
M  CHG  1   2   1
M  END
> <s_m_source_file>
AV-unprocessed.smi

> <i_m_source_file_index>
2790

> <i_lp_mmshare_version>
43012

> <i_f3d_flags>
0

> <s_epik_input>
W0NIM11OKFtDSDNdKVtDSDJdQyg9TylbTkhdW0NIMl1DMShbQ0gyXVtDSDJdW0NIMl1bQ0gyXVtDSDJdMSljMltjSF1bY0hdbltjSF1bY0hdMg==

> <s_epik_cmdline>
J2VwaWtfcHl0aG9uJywgJy1waCcsICc3LjAnLCAnLXRuJywgJzgnLCAnLW1hJywgJzIwMCcsICctbWV0YWxfYmluZGluZycsICctaW1hZScsICc8aW5maWxlLm1hZT4nLCAnLW9tYWUnLCAnPG91dGZpbGUubWFlPic=

> <r_epik_Ionization_Penalty>
0.089928

> <r_epik_Ionization_Penalty_Charging>
0.0368445

> <r_epik_Ionization_Penalty_Neutral>
0.0530835

> <r_epik_State_Penalty>
0.0777876

> <r_epik_Charging_Adjusted_Penalty>
0.114632

> <i_epik_Tot_Q>
1

> <i_epik_Tot_abs_Q>
1

> <r_epik_Metal_State_Penalty>
0.0848697

> <b_epik_Metal_Only>
0

> <s_lp_Force_Field>
OPLS_2005

> <r_lp_Energy>
21.8656

> <b_lp_Chiralities_Consistent>
1

> <s_lp_Variant>
AV-unprocessed.smi:2790-1

> <Gold.Version>
5.8.1

> <Gold.Id.Protein>
6NUR|6NUR_protein|mol2

> <Gold.PLP.Fitness>
36.1280

> <Gold.PLP.PLP>
-28.0125

> <Gold.PLP.part.hbond>
-3.0000

> <Gold.PLP.part.metal>
0.0000

> <Gold.PLP.part.buried>
1.0658

> <Gold.PLP.part.nonpolar>
-26.9033

> <Gold.PLP.part.repulsive>
0.1883

> <Gold.PLP.ligand.clash>
0.0000

> <Gold.PLP.ligand.torsion>
0.5874

> <Gold.PLP.Chemscore.Hbond>
3.0749

> <Gold.PLP.Chemscore.CHOScore>
0.0000

> <Gold.PLP.Chemscore.Metal>
0.0000

> <Gold.Chemscore.Hbonds>
donor molecule, donor type, donor heavy atom, donor atom, acceptor molecule, acceptor atom, score
      L1  H     2    46       P1  7948  2.00
      L1  H     7    29       P1  7948  0.91
      P1  H  6934  6947       L1    13  0.26

> <Gold.PLP.Chemscore.Internal.Correction>
0.0657

> <Gold.Rescore>
     Score         DG    S(hbond)    S(metal)    S(lipo)     H(rot)  DE(clash)    DE(int)     intcor
     13.75     -16.83       1.99        0.00      76.50       1.65       1.88       1.20       ----

> <Gold.Chemscore.Fitness>
13.7492

> <Gold.Chemscore.DG>
-16.8296

> <Gold.Chemscore.ZeroCoef>
-5.4800

> <Gold.Chemscore.Hbond>
1.9865

> <Gold.Chemscore.Metal>
0.0000

> <Gold.Chemscore.Lipo>
76.5014

> <Gold.Chemscore.Internal_Hbond>
0.0000

> <Gold.Chemscore.DEClash>
1.8820

> <Gold.Chemscore.DEInternal>
1.1985

> <Gold.Chemscore.Rot>
1.6547

> <Gold.Chemscore.Internal.Correction>
   9.000000E+99

> <Gold.Chemscore.Hbonds>
donor molecule, donor type, donor heavy atom, donor atom, acceptor molecule, acceptor atom, score
      L1  H     2    46       P1  7948  0.99
      L1  H     7    29       P1  7948  0.87
      P1  H  6934  6947       L1    13  0.18

> <Gold.Chemscore.Hbond.Weighted>
-6.6351

> <Gold.Chemscore.Metal.Weighted>
-0.0000

> <Gold.Chemscore.Lipo.Weighted>
-8.9507

> <Gold.Chemscore.Internal_Hbond.Weighted>
0.0000

> <Gold.Chemscore.DEClash.Weighted>
1.8820

> <Gold.Chemscore.DEInternal.Weighted>
1.1985

> <Gold.Chemscore.Rot.Weighted>
4.2361

> <Gold.Chemscore.Internal.Correction.Weighted>
   9.000000E+99

> <Gold.Protein.RotatedTorsions>
[ 6907 6896 6895 6894 ] final   14.69 input  -60.11 | X-H torsion
[ 7974 7965 7964 7962 ] final  120.88 input  175.53 | X-H torsion
[ 8008 7997 7996 7995 ] final  118.49 input   59.86 | X-H torsion
[ 10167 10162 10161 10158 ] final  153.16 input  -65.29 | X-H torsion
[ 10718 10713 10712 10709 ] final  -78.17 input   66.30 | X-H torsion
[ 10763 10752 10751 10750 ] final   33.77 input  -60.55 | X-H torsion
[ 11005 11000 10999 10996 ] final  176.11 input  -57.11 | X-H torsion

> <Gold.Protein.ActiveResidues>
 VAL166  LYS551  ARG553  GLY616  TRP617  ASP618  TYR619  PRO620  LYS621  CYS622 
 ASP623  PHE694  ASN695  SER759  ASP760  ASP761  ALA762  ILE779  LEU786  VAL792 
 PHE793  MET794  SER795  GLU796  ALA797  LYS798  CYS799  TRP800  GLU811  SER814 

> <Gold.Protein.RotatedAtoms>
  151.8063  135.0694  160.0406 H   0  0  0  0  0  0  0  0  0  0  0  0  # atno 6907 bound_to 6896
  152.3053  133.5692  159.5653 H   0  0  0  0  0  0  0  0  0  0  0  0  # atno 6908 bound_to 6896
  150.7293  134.0148  159.3723 H   0  0  0  0  0  0  0  0  0  0  0  0  # atno 6909 bound_to 6896
  145.1259  139.3359  143.4690 H   0  0  0  0  0  0  0  0  0  0  0  0  # atno 7974 bound_to 7965
  156.2549  140.2873  156.0843 H   0  0  0  0  0  0  0  0  0  0  0  0  # atno 8008 bound_to 7997
  155.1533  140.0398  157.2843 H   0  0  0  0  0  0  0  0  0  0  0  0  # atno 8009 bound_to 7997
  154.6445  140.2530  155.7290 H   0  0  0  0  0  0  0  0  0  0  0  0  # atno 8010 bound_to 7997
  139.4828  144.5297  151.7743 H   0  0  0  0  0  0  0  0  0  0  0  0  # atno 10167 bound_to 10162
  156.0125  130.4511  150.3456 H   0  0  0  0  0  0  0  0  0  0  0  0  # atno 10718 bound_to 10713
  153.0196  135.6378  154.1563 H   0  0  0  0  0  0  0  0  0  0  0  0  # atno 10763 bound_to 10752
  154.1299  135.2841  155.3189 H   0  0  0  0  0  0  0  0  0  0  0  0  # atno 10764 bound_to 10752
  154.6202  135.5527  153.7629 H   0  0  0  0  0  0  0  0  0  0  0  0  # atno 10765 bound_to 10752
  140.3696  134.7042  157.4383 H   0  0  0  0  0  0  0  0  0  0  0  0  # atno 11005 bound_to 11000
  146.3517  140.1237  142.8599 LP  0  0  0  0  0  0  0  0  0  0  0  0  # atno 17320 bound_to 7965
  145.0689  140.9141  143.4894 LP  0  0  0  0  0  0  0  0  0  0  0  0  # atno 17321 bound_to 7965
  140.4821  144.1434  150.5934 LP  0  0  0  0  0  0  0  0  0  0  0  0  # atno 17342 bound_to 10162
  140.4265  143.2587  151.9649 LP  0  0  0  0  0  0  0  0  0  0  0  0  # atno 17343 bound_to 10162
  157.1550  131.0330  151.2868 LP  0  0  0  0  0  0  0  0  0  0  0  0  # atno 17370 bound_to 10713
  157.4360  130.7517  149.7029 LP  0  0  0  0  0  0  0  0  0  0  0  0  # atno 17371 bound_to 10713
  140.0562  134.6060  155.8802 LP  0  0  0  0  0  0  0  0  0  0  0  0  # atno 17394 bound_to 11000
  141.1959  133.6589  156.5664 LP  0  0  0  0  0  0  0  0  0  0  0  0  # atno 17395 bound_to 11000

$$$$
