AV-unprocessed.smi:2119|AV-procd|sdf|8631|dock4
  -GOLD-   2272011373D 1   1.00000     0.00000
 Structure written by MMmdl.
 47 49  0  0  0  0  0  0  0  0  1 V2000
  144.5983  136.9438  152.3570 O   0  0  0  0  0  0  0  0  0  0  0  0
  145.7476  136.6552  152.0255 C   0  0  0  0  0  0  0  0  0  0  0  0
  146.7804  137.4994  152.1423 N   0  0  0  0  0  0  0  0  0  0  0  0
  146.6858  138.8511  152.6810 C   0  0  0  0  0  0  0  0  0  0  0  0
  147.1625  138.9153  154.1564 C   0  0  1  0  0  0  0  0  0  0  0  0
  148.7192  138.9319  154.2753 C   0  0  2  0  0  0  0  0  0  0  0  0
  149.3123  138.7276  155.6730 C   0  0  0  0  0  0  0  0  0  0  0  0
  150.3282  139.8612  155.8110 C   0  0  0  0  0  0  0  0  0  0  0  0
  150.6663  140.1900  154.4734 O   0  0  0  0  0  0  0  0  0  0  0  0
  149.4619  140.1605  153.7250 C   0  0  0  0  0  0  0  0  0  0  0  0
  146.4551  139.9047  154.9946 N   0  0  0  0  0  0  0  0  0  0  0  0
  145.0910  139.5062  155.3361 C   0  0  0  0  0  0  0  0  0  0  0  0
  144.4420  140.4859  156.3269 C   0  0  0  0  0  0  0  0  0  0  0  0
  144.4580  141.7960  155.7710 O   0  0  0  0  0  0  0  0  0  0  0  0
  145.7748  142.2479  155.4743 C   0  0  0  0  0  0  0  0  0  0  0  0
  146.4586  141.2780  154.4939 C   0  0  0  0  0  0  0  0  0  0  0  0
  146.1380  135.4843  151.4931 N   0  0  0  0  0  0  0  0  0  0  0  0
  145.3656  134.3207  151.2261 C   0  0  0  0  0  0  0  0  0  0  0  0
  145.8453  133.1752  150.5446 C   0  0  0  0  0  0  0  0  0  0  0  0
  144.9682  132.0943  150.3308 C   0  0  0  0  0  0  0  0  0  0  0  0
  143.6440  132.1992  150.7978 C   0  0  0  0  0  0  0  0  0  0  0  0
  143.1698  133.2880  151.4386 N   0  0  0  0  0  0  0  0  0  0  0  0
  144.0165  134.3200  151.6406 C   0  0  0  0  0  0  0  0  0  0  0  0
  147.6924  137.1883  151.8411 H   0  0  0  0  0  0  0  0  0  0  0  0
  147.2715  139.5308  152.0605 H   0  0  0  0  0  0  0  0  0  0  0  0
  145.6458  139.1620  152.5897 H   0  0  0  0  0  0  0  0  0  0  0  0
  146.8912  137.9474  154.5810 H   0  0  0  0  0  0  0  0  0  0  0  0
  149.0823  138.0909  153.6823 H   0  0  0  0  0  0  0  0  0  0  0  0
  148.5873  138.7486  156.4862 H   0  0  0  0  0  0  0  0  0  0  0  0
  149.8173  137.7619  155.7201 H   0  0  0  0  0  0  0  0  0  0  0  0
  149.8749  140.7292  156.2919 H   0  0  0  0  0  0  0  0  0  0  0  0
  151.2062  139.5716  156.3886 H   0  0  0  0  0  0  0  0  0  0  0  0
  149.6704  140.0753  152.6583 H   0  0  0  0  0  0  0  0  0  0  0  0
  148.9194  141.0914  153.8766 H   0  0  0  0  0  0  0  0  0  0  0  0
  144.4717  139.4640  154.4404 H   0  0  0  0  0  0  0  0  0  0  0  0
  145.0917  138.5049  155.7681 H   0  0  0  0  0  0  0  0  0  0  0  0
  143.4106  140.1955  156.5269 H   0  0  0  0  0  0  0  0  0  0  0  0
  144.9699  140.4785  157.2816 H   0  0  0  0  0  0  0  0  0  0  0  0
  145.7203  143.2470  155.0416 H   0  0  0  0  0  0  0  0  0  0  0  0
  146.3519  142.3310  156.3966 H   0  0  0  0  0  0  0  0  0  0  0  0
  147.4778  141.6258  154.3481 H   0  0  0  0  0  0  0  0  0  0  0  0
  145.9561  141.3277  153.5273 H   0  0  0  0  0  0  0  0  0  0  0  0
  147.1058  135.4299  151.2107 H   0  0  0  0  0  0  0  0  0  0  0  0
  146.8543  133.1041  150.1706 H   0  0  0  0  0  0  0  0  0  0  0  0
  145.3022  131.2062  149.8154 H   0  0  0  0  0  0  0  0  0  0  0  0
  142.9459  131.3887  150.6483 H   0  0  0  0  0  0  0  0  0  0  0  0
  143.6012  135.1752  152.1538 H   0  0  0  0  0  0  0  0  0  0  0  0
  1  2  2  0  0  0  0
  2  3  1  0  0  0  0
  2 17  1  0  0  0  0
  3  4  1  0  0  0  0
  3 24  1  0  0  0  0
  4  5  1  0  0  0  0
  4 25  1  0  0  0  0
  4 26  1  0  0  0  0
  5  6  1  0  0  0  0
  5 11  1  0  0  0  0
  5 27  1  0  0  0  0
  6 10  1  0  0  0  0
  6  7  1  0  0  0  0
  6 28  1  0  0  0  0
  7  8  1  0  0  0  0
  7 29  1  0  0  0  0
  7 30  1  0  0  0  0
  8  9  1  0  0  0  0
  8 31  1  0  0  0  0
  8 32  1  0  0  0  0
  9 10  1  0  0  0  0
 10 33  1  0  0  0  0
 10 34  1  0  0  0  0
 11 16  1  0  0  0  0
 11 12  1  0  0  0  0
 12 13  1  0  0  0  0
 12 35  1  0  0  0  0
 12 36  1  0  0  0  0
 13 14  1  0  0  0  0
 13 37  1  0  0  0  0
 13 38  1  0  0  0  0
 14 15  1  0  0  0  0
 15 16  1  0  0  0  0
 15 39  1  0  0  0  0
 15 40  1  0  0  0  0
 16 41  1  0  0  0  0
 16 42  1  0  0  0  0
 17 18  1  0  0  0  0
 17 43  1  0  0  0  0
 18 23  1  0  0  0  0
 18 19  2  0  0  0  0
 19 20  1  0  0  0  0
 19 44  1  0  0  0  0
 20 21  2  0  0  0  0
 20 45  1  0  0  0  0
 21 22  1  0  0  0  0
 21 46  1  0  0  0  0
 22 23  2  0  0  0  0
 23 47  1  0  0  0  0
M  END
> <s_m_source_file>
AV-unprocessed.smi

> <i_m_source_file_index>
2119

> <i_lp_mmshare_version>
43012

> <i_f3d_flags>
0

> <s_epik_input>
W2NIXTFuW2NIXVtjSF1bY0hdYzFbTkhdQyg9TylbTkhdW0NIMl1bQ0BIXShbQ0BASF0yW0NIMl1bQ0gyXU9bQ0gyXTIpTjNbQ0gyXVtDSDJdT1tDSDJdW0NIMl0z

> <s_epik_cmdline>
J2VwaWtfcHl0aG9uJywgJy1waCcsICc3LjAnLCAnLXRuJywgJzgnLCAnLW1hJywgJzIwMCcsICctbWV0YWxfYmluZGluZycsICctaW1hZScsICc8aW5maWxlLm1hZT4nLCAnLW9tYWUnLCAnPG91dGZpbGUubWFlPic=

> <r_epik_Ionization_Penalty>
0.129787

> <r_epik_Ionization_Penalty_Charging>
0

> <r_epik_Ionization_Penalty_Neutral>
0.129787

> <r_epik_State_Penalty>
0.121311

> <r_epik_Charging_Adjusted_Penalty>
0.121311

> <i_epik_Tot_Q>
0

> <i_epik_Tot_abs_Q>
0

> <r_epik_Metal_State_Penalty>
0.117931

> <b_epik_Metal_Only>
0

> <s_lp_Force_Field>
OPLS_2005

> <r_lp_Energy>
56.2921

> <b_lp_Chiralities_Consistent>
1

> <s_lp_Variant>
AV-unprocessed.smi:2119-2

> <Gold.Version>
5.8.1

> <Gold.Id.Protein>
6NUR|6NUR_protein|mol2

> <Gold.PLP.Fitness>
39.1442

> <Gold.PLP.PLP>
-29.5152

> <Gold.PLP.part.hbond>
-2.8740

> <Gold.PLP.part.metal>
0.0000

> <Gold.PLP.part.buried>
-2.3043

> <Gold.PLP.part.nonpolar>
-26.1566

> <Gold.PLP.part.repulsive>
1.7103

> <Gold.PLP.ligand.clash>
0.0000

> <Gold.PLP.ligand.torsion>
0.7782

> <Gold.PLP.Chemscore.Hbond>
2.7771

> <Gold.PLP.Chemscore.CHOScore>
0.8284

> <Gold.PLP.Chemscore.Metal>
0.0000

> <Gold.Chemscore.Hbonds>
donor molecule, donor type, donor heavy atom, donor atom, acceptor molecule, acceptor atom, score
      L1  H     3    24       P1  7948  1.00
      L1  H    17    43       P1  7948  0.71
      P1  H  7989  7998       L1     9  0.99
      L1  C    21    46       P1 10952  0.83

> <Gold.PLP.Chemscore.Internal.Correction>
0.3688

> <Gold.Rescore>
     Score         DG    S(hbond)    S(metal)    S(lipo)     H(rot)  DE(clash)    DE(int)     intcor
     15.05     -18.63       2.45        0.00      78.54       1.65       1.45       2.13       ----

> <Gold.Chemscore.Fitness>
15.0475

> <Gold.Chemscore.DG>
-18.6326

> <Gold.Chemscore.ZeroCoef>
-5.4800

> <Gold.Chemscore.Hbond>
2.4519

> <Gold.Chemscore.Metal>
0.0000

> <Gold.Chemscore.Lipo>
78.5409

> <Gold.Chemscore.Internal_Hbond>
0.0000

> <Gold.Chemscore.DEClash>
1.4545

> <Gold.Chemscore.DEInternal>
2.1305

> <Gold.Chemscore.Rot>
1.6508

> <Gold.Chemscore.Internal.Correction>
   9.000000E+99

> <Gold.Chemscore.Hbonds>
donor molecule, donor type, donor heavy atom, donor atom, acceptor molecule, acceptor atom, score
      L1  H     3    24       P1  7948  0.95
      L1  H    17    43       P1  7948  0.61
      P1  H  7989  7998       L1     9  0.32

> <Gold.Chemscore.Hbond.Weighted>
-8.1895

> <Gold.Chemscore.Metal.Weighted>
-0.0000

> <Gold.Chemscore.Lipo.Weighted>
-9.1893

> <Gold.Chemscore.Internal_Hbond.Weighted>
0.0000

> <Gold.Chemscore.DEClash.Weighted>
1.4545

> <Gold.Chemscore.DEInternal.Weighted>
2.1305

> <Gold.Chemscore.Rot.Weighted>
4.2262

> <Gold.Chemscore.Internal.Correction.Weighted>
   9.000000E+99

> <Gold.Protein.RotatedTorsions>
[ 6907 6896 6895 6894 ] final  160.75 input  -60.11 | X-H torsion
[ 7974 7965 7964 7962 ] final   43.62 input  175.53 | X-H torsion
[ 8008 7997 7996 7995 ] final   -4.80 input   59.86 | X-H torsion
[ 10167 10162 10161 10158 ] final -141.46 input  -65.29 | X-H torsion
[ 10718 10713 10712 10709 ] final  153.22 input   66.30 | X-H torsion
[ 10763 10752 10751 10750 ] final -159.79 input  -60.55 | X-H torsion
[ 11005 11000 10999 10996 ] final -172.61 input  -57.11 | X-H torsion

> <Gold.Protein.ActiveResidues>
 VAL166  LYS551  ARG553  GLY616  TRP617  ASP618  TYR619  PRO620  LYS621  CYS622 
 ASP623  PHE694  ASN695  SER759  ASP760  ASP761  ALA762  ILE779  LEU786  VAL792 
 PHE793  MET794  SER795  GLU796  ALA797  LYS798  CYS799  TRP800  GLU811  SER814 

> <Gold.Protein.RotatedAtoms>
  151.9660  133.3710  159.4052 H   0  0  0  0  0  0  0  0  0  0  0  0  # atno 6907 bound_to 6896
  150.6956  134.4190  159.5206 H   0  0  0  0  0  0  0  0  0  0  0  0  # atno 6908 bound_to 6896
  152.1887  134.8691  160.0570 H   0  0  0  0  0  0  0  0  0  0  0  0  # atno 6909 bound_to 6896
  146.0639  139.5166  142.9640 H   0  0  0  0  0  0  0  0  0  0  0  0  # atno 7974 bound_to 7965
  154.6105  140.2474  155.7675 H   0  0  0  0  0  0  0  0  0  0  0  0  # atno 8008 bound_to 7997
  156.2367  140.2947  156.0283 H   0  0  0  0  0  0  0  0  0  0  0  0  # atno 8009 bound_to 7997
  155.2060  140.0396  157.2916 H   0  0  0  0  0  0  0  0  0  0  0  0  # atno 8010 bound_to 7997
  139.8183  143.7609  152.2665 H   0  0  0  0  0  0  0  0  0  0  0  0  # atno 10167 bound_to 10162
  157.2476  131.0772  151.1751 H   0  0  0  0  0  0  0  0  0  0  0  0  # atno 10718 bound_to 10713
  154.7445  135.3076  154.8670 H   0  0  0  0  0  0  0  0  0  0  0  0  # atno 10763 bound_to 10752
  153.9475  135.6768  153.4748 H   0  0  0  0  0  0  0  0  0  0  0  0  # atno 10764 bound_to 10752
  153.1042  135.4897  154.8847 H   0  0  0  0  0  0  0  0  0  0  0  0  # atno 10765 bound_to 10752
  140.4950  134.5948  157.4968 H   0  0  0  0  0  0  0  0  0  0  0  0  # atno 11005 bound_to 11000
  145.6511  141.0263  143.1759 LP  0  0  0  0  0  0  0  0  0  0  0  0  # atno 17320 bound_to 7965
  144.7191  139.8093  143.7388 LP  0  0  0  0  0  0  0  0  0  0  0  0  # atno 17321 bound_to 7965
  139.7779  144.7454  151.0130 LP  0  0  0  0  0  0  0  0  0  0  0  0  # atno 17342 bound_to 10162
  140.7814  143.4574  151.0327 LP  0  0  0  0  0  0  0  0  0  0  0  0  # atno 17343 bound_to 10162
  157.3312  130.6986  149.6325 LP  0  0  0  0  0  0  0  0  0  0  0  0  # atno 17370 bound_to 10713
  155.9667  130.4307  150.4887 LP  0  0  0  0  0  0  0  0  0  0  0  0  # atno 17371 bound_to 10713
  139.9746  134.7236  155.9974 LP  0  0  0  0  0  0  0  0  0  0  0  0  # atno 17394 bound_to 11000
  141.1464  133.6555  156.3882 LP  0  0  0  0  0  0  0  0  0  0  0  0  # atno 17395 bound_to 11000

$$$$
