AV-unprocessed.smi:1292|AV-procd|sdf|5396|dock2
  -GOLD-   22720 4553D 1   1.00000     0.00000
 Structure written by MMmdl.
 40 41  0  0  0  0  0  0  0  0  1 V2000
  153.0093  142.8098  162.4695 C   0  0  0  0  0  0  0  0  0  0  0  0
  152.3543  142.5334  161.1093 C   0  0  1  0  0  0  0  0  0  0  0  0
  151.8017  143.8217  160.4795 C   0  0  0  0  0  0  0  0  0  0  0  0
  151.1344  143.5134  159.1335 C   0  0  0  0  0  0  0  0  0  0  0  0
  152.0810  142.7622  158.1814 C   0  0  0  0  0  0  0  0  0  0  0  0
  152.7160  141.5955  158.8291 N   0  0  0  0  0  0  0  0  0  0  0  0
  152.3473  139.9652  158.3468 S   0  0  0  0  0  0  0  0  0  0  0  0
  153.5823  139.1660  158.3326 O   0  0  0  0  0  0  0  0  0  0  0  0
  151.1681  139.5282  159.1095 O   0  0  0  0  0  0  0  0  0  0  0  0
  151.8339  140.2300  156.7199 N   0  0  0  0  0  0  0  0  0  0  0  0
  152.4486  139.5493  155.5790 C   0  0  0  0  0  0  0  0  0  0  0  0
  151.4072  138.7078  154.8251 C   0  0  0  0  0  0  0  0  0  0  0  0
  150.2326  139.5347  154.3310 C   0  0  0  0  0  0  0  0  0  0  0  0
  149.0825  138.9109  153.8012 C   0  0  0  0  0  0  0  0  0  0  0  0
  148.0117  139.7233  153.3815 C   0  0  0  0  0  0  0  0  0  0  0  0
  148.1309  141.1207  153.5068 C   0  0  0  0  0  0  0  0  0  0  0  0
  149.3217  141.6460  154.0466 C   0  0  0  0  0  0  0  0  0  0  0  0
  150.3545  140.8761  154.4524 N   0  0  0  0  0  0  0  0  0  0  0  0
  153.3400  141.8518  160.1407 C   0  0  0  0  0  0  0  0  0  0  0  0
  153.8576  143.4877  162.3710 H   0  0  0  0  0  0  0  0  0  0  0  0
  153.3705  141.8873  162.9250 H   0  0  0  0  0  0  0  0  0  0  0  0
  152.2992  143.2624  163.1621 H   0  0  0  0  0  0  0  0  0  0  0  0
  151.5209  141.8531  161.2852 H   0  0  0  0  0  0  0  0  0  0  0  0
  151.0801  144.2918  161.1485 H   0  0  0  0  0  0  0  0  0  0  0  0
  152.6085  144.5412  160.3340 H   0  0  0  0  0  0  0  0  0  0  0  0
  150.2283  142.9342  159.2934 H   0  0  0  0  0  0  0  0  0  0  0  0
  150.8102  144.4428  158.6648 H   0  0  0  0  0  0  0  0  0  0  0  0
  151.5469  142.4591  157.2817 H   0  0  0  0  0  0  0  0  0  0  0  0
  152.8721  143.4376  157.8542 H   0  0  0  0  0  0  0  0  0  0  0  0
  151.4840  141.1695  156.5331 H   0  0  0  0  0  0  0  0  0  0  0  0
  152.8780  140.2893  154.9071 H   0  0  0  0  0  0  0  0  0  0  0  0
  153.2604  138.9105  155.9266 H   0  0  0  0  0  0  0  0  0  0  0  0
  151.8791  138.2247  153.9685 H   0  0  0  0  0  0  0  0  0  0  0  0
  151.0440  137.9016  155.4640 H   0  0  0  0  0  0  0  0  0  0  0  0
  149.0181  137.8353  153.7255 H   0  0  0  0  0  0  0  0  0  0  0  0
  147.1140  139.2818  152.9742 H   0  0  0  0  0  0  0  0  0  0  0  0
  147.3286  141.7742  153.1976 H   0  0  0  0  0  0  0  0  0  0  0  0
  149.4471  142.7128  154.1579 H   0  0  0  0  0  0  0  0  0  0  0  0
  154.2156  142.4843  159.9896 H   0  0  0  0  0  0  0  0  0  0  0  0
  153.7032  140.9164  160.5670 H   0  0  0  0  0  0  0  0  0  0  0  0
  1  2  1  0  0  0  0
  1 20  1  0  0  0  0
  1 21  1  0  0  0  0
  1 22  1  0  0  0  0
  2 19  1  0  0  0  0
  2  3  1  0  0  0  0
  2 23  1  0  0  0  0
  3  4  1  0  0  0  0
  3 24  1  0  0  0  0
  3 25  1  0  0  0  0
  4  5  1  0  0  0  0
  4 26  1  0  0  0  0
  4 27  1  0  0  0  0
  5  6  1  0  0  0  0
  5 28  1  0  0  0  0
  5 29  1  0  0  0  0
  6  7  1  0  0  0  0
  6 19  1  0  0  0  0
  7  8  2  0  0  0  0
  7  9  2  0  0  0  0
  7 10  1  0  0  0  0
 10 11  1  0  0  0  0
 10 30  1  0  0  0  0
 11 12  1  0  0  0  0
 11 31  1  0  0  0  0
 11 32  1  0  0  0  0
 12 13  1  0  0  0  0
 12 33  1  0  0  0  0
 12 34  1  0  0  0  0
 13 18  1  0  0  0  0
 13 14  2  0  0  0  0
 14 15  1  0  0  0  0
 14 35  1  0  0  0  0
 15 16  2  0  0  0  0
 15 36  1  0  0  0  0
 16 17  1  0  0  0  0
 16 37  1  0  0  0  0
 17 18  2  0  0  0  0
 17 38  1  0  0  0  0
 19 39  1  0  0  0  0
 19 40  1  0  0  0  0
M  END
> <s_m_source_file>
AV-unprocessed.smi

> <i_m_source_file_index>
1292

> <i_lp_mmshare_version>
43012

> <i_f3d_flags>
0

> <s_epik_input>
W0NIM11bQ0BASF0xW0NIMl1bQ0gyXVtDSDJdTihbQ0gyXTEpUyg9TykoPU8pW05IXVtDSDJdW0NIMl1jMltjSF1bY0hdW2NIXVtjSF1uMg==

> <s_epik_cmdline>
J2VwaWtfcHl0aG9uJywgJy1waCcsICc3LjAnLCAnLXRuJywgJzgnLCAnLW1hJywgJzIwMCcsICctbWV0YWxfYmluZGluZycsICctaW1hZScsICc8aW5maWxlLm1hZT4nLCAnLW9tYWUnLCAnPG91dGZpbGUubWFlPic=

> <r_epik_Ionization_Penalty>
0.0252758

> <r_epik_Ionization_Penalty_Charging>
0

> <r_epik_Ionization_Penalty_Neutral>
0.0252758

> <r_epik_State_Penalty>
0.0138562

> <r_epik_Charging_Adjusted_Penalty>
0.0138562

> <i_epik_Tot_Q>
0

> <i_epik_Tot_abs_Q>
0

> <r_epik_Metal_State_Penalty>
0.204365

> <b_epik_Metal_Only>
0

> <s_lp_Force_Field>
OPLS_2005

> <r_lp_Energy>
8.19125

> <b_lp_Chiralities_Consistent>
1

> <s_lp_Variant>
AV-unprocessed.smi:1292-2

> <Gold.Version>
5.8.1

> <Gold.Id.Protein>
6NUR|6NUR_protein|mol2

> <Gold.PLP.Fitness>
49.6668

> <Gold.PLP.PLP>
-43.2009

> <Gold.PLP.part.hbond>
-2.2612

> <Gold.PLP.part.metal>
0.0000

> <Gold.PLP.part.buried>
-4.3519

> <Gold.PLP.part.nonpolar>
-37.1807

> <Gold.PLP.part.repulsive>
0.2355

> <Gold.PLP.ligand.clash>
0.0000

> <Gold.PLP.ligand.torsion>
1.8386

> <Gold.PLP.Chemscore.Hbond>
1.3784

> <Gold.PLP.Chemscore.CHOScore>
1.0000

> <Gold.PLP.Chemscore.Metal>
0.0000

> <Gold.Chemscore.Hbonds>
donor molecule, donor type, donor heavy atom, donor atom, acceptor molecule, acceptor atom, score
      P1  H  7989  7998       L1    18  0.43
      P1  H  7997  8010       L1     8  0.85
      L1  C    17    38       P1  8028  0.96

> <Gold.PLP.Chemscore.Internal.Correction>
3.0078

> <Gold.Rescore>
     Score         DG    S(hbond)    S(metal)    S(lipo)     H(rot)  DE(clash)    DE(int)     intcor
     15.69     -19.08       0.99        0.00     116.56       1.30       0.13       3.26       ----

> <Gold.Chemscore.Fitness>
15.6931

> <Gold.Chemscore.DG>
-19.0800

> <Gold.Chemscore.ZeroCoef>
-5.4800

> <Gold.Chemscore.Hbond>
0.9882

> <Gold.Chemscore.Metal>
0.0000

> <Gold.Chemscore.Lipo>
116.5576

> <Gold.Chemscore.Internal_Hbond>
0.0000

> <Gold.Chemscore.DEClash>
0.1276

> <Gold.Chemscore.DEInternal>
3.2594

> <Gold.Chemscore.Rot>
1.3039

> <Gold.Chemscore.Internal.Correction>
   9.000000E+99

> <Gold.Chemscore.Hbonds>
donor molecule, donor type, donor heavy atom, donor atom, acceptor molecule, acceptor atom, score
      P1  H  7989  7998       L1    18  0.03
      P1  H  7997  8010       L1     8  0.16

> <Gold.Chemscore.Hbond.Weighted>
-3.3007

> <Gold.Chemscore.Metal.Weighted>
-0.0000

> <Gold.Chemscore.Lipo.Weighted>
-13.6372

> <Gold.Chemscore.Internal_Hbond.Weighted>
0.0000

> <Gold.Chemscore.DEClash.Weighted>
0.1276

> <Gold.Chemscore.DEInternal.Weighted>
3.2594

> <Gold.Chemscore.Rot.Weighted>
3.3379

> <Gold.Chemscore.Internal.Correction.Weighted>
   9.000000E+99

> <Gold.Protein.RotatedTorsions>
[ 6907 6896 6895 6894 ] final   61.16 input  -60.11 | X-H torsion
[ 7974 7965 7964 7962 ] final   17.79 input  175.53 | X-H torsion
[ 8008 7997 7996 7995 ] final   50.28 input   59.86 | X-H torsion
[ 10167 10162 10161 10158 ] final  174.78 input  -65.29 | X-H torsion
[ 10718 10713 10712 10709 ] final   58.61 input   66.30 | X-H torsion
[ 10763 10752 10751 10750 ] final -112.49 input  -60.55 | X-H torsion
[ 11005 11000 10999 10996 ] final -106.24 input  -57.11 | X-H torsion

> <Gold.Protein.ActiveResidues>
 VAL166  LYS551  ARG553  GLY616  TRP617  ASP618  TYR619  PRO620  LYS621  CYS622 
 ASP623  PHE694  ASN695  SER759  ASP760  ASP761  ALA762  ILE779  LEU786  VAL792 
 PHE793  MET794  SER795  GLU796  ALA797  LYS798  CYS799  TRP800  GLU811  SER814 

> <Gold.Protein.RotatedAtoms>
  152.4065  134.6198  160.0047 H   0  0  0  0  0  0  0  0  0  0  0  0  # atno 6907 bound_to 6896
  151.6388  133.3321  159.3133 H   0  0  0  0  0  0  0  0  0  0  0  0  # atno 6908 bound_to 6896
  150.7959  134.7060  159.6621 H   0  0  0  0  0  0  0  0  0  0  0  0  # atno 6909 bound_to 6896
  146.2207  139.8551  142.8615 H   0  0  0  0  0  0  0  0  0  0  0  0  # atno 7974 bound_to 7965
  155.4161  140.3444  155.4267 H   0  0  0  0  0  0  0  0  0  0  0  0  # atno 8008 bound_to 7997
  156.1420  140.1545  156.8937 H   0  0  0  0  0  0  0  0  0  0  0  0  # atno 8009 bound_to 7997
  154.4979  140.0823  156.7716 H   0  0  0  0  0  0  0  0  0  0  0  0  # atno 8010 bound_to 7997
  139.5154  144.3107  152.0294 H   0  0  0  0  0  0  0  0  0  0  0  0  # atno 10167 bound_to 10162
  157.5610  130.8835  149.9111 H   0  0  0  0  0  0  0  0  0  0  0  0  # atno 10718 bound_to 10713
  154.8352  135.4489  154.1202 H   0  0  0  0  0  0  0  0  0  0  0  0  # atno 10763 bound_to 10752
  153.2440  135.6919  153.7758 H   0  0  0  0  0  0  0  0  0  0  0  0  # atno 10764 bound_to 10752
  153.7095  135.3359  155.3219 H   0  0  0  0  0  0  0  0  0  0  0  0  # atno 10765 bound_to 10752
  141.1014  133.8877  157.1832 H   0  0  0  0  0  0  0  0  0  0  0  0  # atno 11005 bound_to 11000
  145.2761  141.0124  143.3744 LP  0  0  0  0  0  0  0  0  0  0  0  0  # atno 17320 bound_to 7965
  144.9186  139.4440  143.6552 LP  0  0  0  0  0  0  0  0  0  0  0  0  # atno 17321 bound_to 7965
  140.2551  144.4127  150.6206 LP  0  0  0  0  0  0  0  0  0  0  0  0  # atno 17342 bound_to 10162
  140.6197  143.2175  151.6720 LP  0  0  0  0  0  0  0  0  0  0  0  0  # atno 17343 bound_to 10162
  156.0663  130.3692  150.0872 LP  0  0  0  0  0  0  0  0  0  0  0  0  # atno 17370 bound_to 10713
  156.9036  130.9628  151.3573 LP  0  0  0  0  0  0  0  0  0  0  0  0  # atno 17371 bound_to 10713
  139.9867  135.0079  156.9879 LP  0  0  0  0  0  0  0  0  0  0  0  0  # atno 17394 bound_to 11000
  140.5012  134.1095  155.7251 LP  0  0  0  0  0  0  0  0  0  0  0  0  # atno 17395 bound_to 11000

$$$$
