AV-unprocessed.smi:964|AV-procd|sdf|4278|dock3
  -GOLD-   22720 2183D 1   1.00000     0.00000
 Structure written by MMmdl.
 20 20  0  0  0  0  0  0  0  0  2 V2000
  148.1484  132.5014  152.6092 C   0  0  0  0  0  0  0  0  0  0  0  0
  146.9794  132.9091  151.7780 C   0  0  0  0  0  0  0  0  0  0  0  0
  146.0236  132.0949  151.3425 N   0  0  0  0  0  0  0  0  0  0  0  0
  145.2473  132.9828  150.6512 C   0  0  0  0  0  0  0  0  0  0  0  0
  143.9757  132.5859  149.9778 C   0  0  0  0  0  0  0  0  0  0  0  0
  144.0218  132.8440  148.4655 C   0  0  0  0  0  0  0  0  0  0  0  0
  143.3980  134.1322  148.1199 N   0  3  0  0  0  0  0  0  0  0  0  0
  145.6548  134.2510  150.6643 N   0  0  0  0  0  0  0  0  0  0  0  0
  146.7880  134.1728  151.3940 N   0  0  0  0  0  0  0  0  0  0  0  0
  147.3690  134.9732  151.5999 H   0  0  0  0  0  0  0  0  0  0  0  0
  148.1134  131.4320  152.8195 H   0  0  0  0  0  0  0  0  0  0  0  0
  148.1425  133.0427  153.5555 H   0  0  0  0  0  0  0  0  0  0  0  0
  149.0774  132.7228  152.0832 H   0  0  0  0  0  0  0  0  0  0  0  0
  143.7823  131.5301  150.1748 H   0  0  0  0  0  0  0  0  0  0  0  0
  143.1515  133.1407  150.4281 H   0  0  0  0  0  0  0  0  0  0  0  0
  145.0540  132.8503  148.1138 H   0  0  0  0  0  0  0  0  0  0  0  0
  143.5032  132.0488  147.9293 H   0  0  0  0  0  0  0  0  0  0  0  0
  142.8397  134.0224  147.2852 H   0  0  0  0  0  0  0  0  0  0  0  0
  144.1177  134.8213  147.9541 H   0  0  0  0  0  0  0  0  0  0  0  0
  142.8081  134.4369  148.8811 H   0  0  0  0  0  0  0  0  0  0  0  0
  1  2  1  0  0  0  0
  1 11  1  0  0  0  0
  1 12  1  0  0  0  0
  1 13  1  0  0  0  0
  2  9  1  0  0  0  0
  2  3  2  0  0  0  0
  3  4  1  0  0  0  0
  4  5  1  0  0  0  0
  4  8  2  0  0  0  0
  5  6  1  0  0  0  0
  5 14  1  0  0  0  0
  5 15  1  0  0  0  0
  6  7  1  0  0  0  0
  6 16  1  0  0  0  0
  6 17  1  0  0  0  0
  7 18  1  0  0  0  0
  7 19  1  0  0  0  0
  7 20  1  0  0  0  0
  8  9  1  0  0  0  0
  9 10  1  0  0  0  0
M  CHG  1   7   1
M  END
> <s_m_source_file>
AV-unprocessed.smi

> <i_m_source_file_index>
964

> <i_lp_mmshare_version>
43012

> <i_f3d_flags>
0

> <s_epik_input>
W0NIM11jMW5jKG5bbkhdMSlbQ0gyXVtDSDJdW05IMl0=

> <s_epik_cmdline>
J2VwaWtfcHl0aG9uJywgJy1waCcsICc3LjAnLCAnLXRuJywgJzgnLCAnLW1hJywgJzIwMCcsICctbWV0YWxfYmluZGluZycsICctaW1hZScsICc8aW5maWxlLm1hZT4nLCAnLW9tYWUnLCAnPG91dGZpbGUubWFlPic=

> <r_epik_Ionization_Penalty>
0.0060057

> <r_epik_Ionization_Penalty_Charging>
0.00364136

> <r_epik_Ionization_Penalty_Neutral>
0.00236434

> <r_epik_State_Penalty>
0.456751

> <r_epik_Charging_Adjusted_Penalty>
0.460392

> <i_epik_Tot_Q>
1

> <i_epik_Tot_abs_Q>
1

> <r_epik_Metal_State_Penalty>
0.65723

> <b_epik_Metal_Only>
0

> <s_lp_Force_Field>
OPLS_2005

> <r_lp_Energy>
-1.07655

> <b_lp_Chiralities_Consistent>
1

> <s_lp_Variant>
AV-unprocessed.smi:964-2

> <Gold.Version>
5.8.1

> <Gold.Id.Protein>
6NUR|6NUR_protein|mol2

> <Gold.PLP.Fitness>
34.1586

> <Gold.PLP.PLP>
-19.6914

> <Gold.PLP.part.hbond>
-3.9498

> <Gold.PLP.part.metal>
0.0000

> <Gold.PLP.part.buried>
-3.0616

> <Gold.PLP.part.nonpolar>
-13.5087

> <Gold.PLP.part.repulsive>
0.8219

> <Gold.PLP.ligand.clash>
0.0000

> <Gold.PLP.ligand.torsion>
0.2562

> <Gold.PLP.Chemscore.Hbond>
4.9913

> <Gold.PLP.Chemscore.CHOScore>
0.0000

> <Gold.PLP.Chemscore.Metal>
0.0000

> <Gold.Chemscore.Hbonds>
donor molecule, donor type, donor heavy atom, donor atom, acceptor molecule, acceptor atom, score
      L1  H     7    18       P1 10195  0.62
      L1  H     7    19       P1  7921  0.74
      L1  H     7    20       P1 10186  1.73
      L1  H     9    10       P1  7948  1.00

> <Gold.PLP.Chemscore.Internal.Correction>
0.0059

> <Gold.Rescore>
     Score         DG    S(hbond)    S(metal)    S(lipo)     H(rot)  DE(clash)    DE(int)     intcor
     16.25     -16.81       3.46        0.00      31.06       1.51       0.34       0.22       ----

> <Gold.Chemscore.Fitness>
16.2473

> <Gold.Chemscore.DG>
-16.8094

> <Gold.Chemscore.ZeroCoef>
-5.4800

> <Gold.Chemscore.Hbond>
3.4600

> <Gold.Chemscore.Metal>
0.0000

> <Gold.Chemscore.Lipo>
31.0622

> <Gold.Chemscore.Internal_Hbond>
0.0000

> <Gold.Chemscore.DEClash>
0.3403

> <Gold.Chemscore.DEInternal>
0.2218

> <Gold.Chemscore.Rot>
1.5082

> <Gold.Chemscore.Internal.Correction>
   9.000000E+99

> <Gold.Chemscore.Hbonds>
donor molecule, donor type, donor heavy atom, donor atom, acceptor molecule, acceptor atom, score
      L1  H     7    18       P1 10195  0.53
      L1  H     7    19       P1  7921  0.70
      L1  H     7    20       P1 10186  0.85
      L1  H     9    10       P1  7948  0.72

> <Gold.Chemscore.Hbond.Weighted>
-11.5562

> <Gold.Chemscore.Metal.Weighted>
-0.0000

> <Gold.Chemscore.Lipo.Weighted>
-3.6343

> <Gold.Chemscore.Internal_Hbond.Weighted>
0.0000

> <Gold.Chemscore.DEClash.Weighted>
0.3403

> <Gold.Chemscore.DEInternal.Weighted>
0.2218

> <Gold.Chemscore.Rot.Weighted>
3.8611

> <Gold.Chemscore.Internal.Correction.Weighted>
   9.000000E+99

> <Gold.Protein.RotatedTorsions>
[ 6907 6896 6895 6894 ] final -143.70 input  -60.11 | X-H torsion
[ 7974 7965 7964 7962 ] final   65.40 input  175.53 | X-H torsion
[ 8008 7997 7996 7995 ] final  177.95 input   59.86 | X-H torsion
[ 10167 10162 10161 10158 ] final  174.01 input  -65.29 | X-H torsion
[ 10718 10713 10712 10709 ] final  -36.02 input   66.30 | X-H torsion
[ 10763 10752 10751 10750 ] final   -3.96 input  -60.55 | X-H torsion
[ 11005 11000 10999 10996 ] final  -29.71 input  -57.11 | X-H torsion

> <Gold.Protein.ActiveResidues>
 VAL166  LYS551  ARG553  GLY616  TRP617  ASP618  TYR619  PRO620  LYS621  CYS622 
 ASP623  PHE694  ASN695  SER759  ASP760  ASP761  ALA762  ILE779  LEU786  VAL792 
 PHE793  MET794  SER795  GLU796  ALA797  LYS798  CYS799  TRP800  GLU811  SER814 

> <Gold.Protein.RotatedAtoms>
  151.1040  133.5222  159.2608 H   0  0  0  0  0  0  0  0  0  0  0  0  # atno 6907 bound_to 6896
  151.2042  135.0454  159.8895 H   0  0  0  0  0  0  0  0  0  0  0  0  # atno 6908 bound_to 6896
  152.5445  134.0864  159.8311 H   0  0  0  0  0  0  0  0  0  0  0  0  # atno 6909 bound_to 6896
  145.8389  139.3183  143.0943 H   0  0  0  0  0  0  0  0  0  0  0  0  # atno 7974 bound_to 7965
  156.0600  140.1345  156.9952 H   0  0  0  0  0  0  0  0  0  0  0  0  # atno 8008 bound_to 7997
  154.4477  140.0993  156.6574 H   0  0  0  0  0  0  0  0  0  0  0  0  # atno 8009 bound_to 7997
  155.5391  140.3460  155.4445 H   0  0  0  0  0  0  0  0  0  0  0  0  # atno 8010 bound_to 7997
  139.5127  144.3195  152.0216 H   0  0  0  0  0  0  0  0  0  0  0  0  # atno 10167 bound_to 10162
  156.3318  130.4280  149.7866 H   0  0  0  0  0  0  0  0  0  0  0  0  # atno 10718 bound_to 10713
  153.3784  135.6997  153.6584 H   0  0  0  0  0  0  0  0  0  0  0  0  # atno 10763 bound_to 10752
  153.5206  135.3613  155.2630 H   0  0  0  0  0  0  0  0  0  0  0  0  # atno 10764 bound_to 10752
  154.8690  135.4157  154.3077 H   0  0  0  0  0  0  0  0  0  0  0  0  # atno 10765 bound_to 10752
  140.9320  133.7332  156.0950 H   0  0  0  0  0  0  0  0  0  0  0  0  # atno 11005 bound_to 11000
  145.9487  140.8925  143.0270 LP  0  0  0  0  0  0  0  0  0  0  0  0  # atno 17320 bound_to 7965
  144.6735  140.1650  143.7419 LP  0  0  0  0  0  0  0  0  0  0  0  0  # atno 17321 bound_to 7965
  140.2637  144.4039  150.6176 LP  0  0  0  0  0  0  0  0  0  0  0  0  # atno 17342 bound_to 10162
  140.6139  143.2171  151.6832 LP  0  0  0  0  0  0  0  0  0  0  0  0  # atno 17343 bound_to 10162
  156.5135  130.8183  151.3178 LP  0  0  0  0  0  0  0  0  0  0  0  0  # atno 17370 bound_to 10713
  157.7431  130.9906  150.2571 LP  0  0  0  0  0  0  0  0  0  0  0  0  # atno 17371 bound_to 10713
  140.7850  134.3682  157.5478 LP  0  0  0  0  0  0  0  0  0  0  0  0  # atno 17394 bound_to 11000
  139.8798  134.9105  156.3015 LP  0  0  0  0  0  0  0  0  0  0  0  0  # atno 17395 bound_to 11000

$$$$
