AV-unprocessed.smi:3222|AV-procd|sdf|12304|dock3
  -GOLD-   2272018143D 1   1.00000     0.00000
 Structure written by MMmdl.
 41 42  0  0  0  0  0  0  0  0  2 V2000
  150.8509  139.8849  158.1042 C   0  0  0  0  0  0  0  0  0  0  0  0
  149.8736  140.6420  157.1794 C   0  0  1  0  0  0  0  0  0  0  0  0
  150.3608  142.0188  156.9291 N   0  3  0  0  0  0  0  0  0  0  0  0
  150.5812  142.8458  158.1335 C   0  0  0  0  0  0  0  0  0  0  0  0
  152.0765  143.1429  158.3258 C   0  0  0  0  0  0  0  0  0  0  0  0
  152.4942  142.9214  159.7075 N   0  0  0  0  0  0  0  0  0  0  0  0
  153.3188  141.7785  160.0625 C   0  0  0  0  0  0  0  0  0  0  0  0
  153.6784  141.9878  161.5410 C   0  0  0  0  0  0  0  0  0  0  0  0
  152.7621  143.1099  162.0421 C   0  0  0  0  0  0  0  0  0  0  0  0
  152.1544  143.6664  160.7660 C   0  0  0  0  0  0  0  0  0  0  0  0
  151.4466  144.6722  160.7451 O   0  0  0  0  0  0  0  0  0  0  0  0
  149.6414  139.9162  155.8261 C   0  0  2  0  0  0  0  0  0  0  0  0
  150.9190  139.8425  154.9672 C   0  0  0  0  0  0  0  0  0  0  0  0
  148.5589  140.5142  155.0537 N   0  0  0  0  0  0  0  0  0  0  0  0
  148.4553  141.8092  154.5882 C   0  0  0  0  0  0  0  0  0  0  0  0
  147.2672  141.9106  153.9231 C   0  0  0  0  0  0  0  0  0  0  0  0
  146.7020  140.6104  154.0398 C   0  0  0  0  0  0  0  0  0  0  0  0
  147.4746  139.7782  154.7187 N   0  0  0  0  0  0  0  0  0  0  0  0
  150.4846  138.8887  158.3523 H   0  0  0  0  0  0  0  0  0  0  0  0
  150.9960  140.4011  159.0525 H   0  0  0  0  0  0  0  0  0  0  0  0
  151.8288  139.7696  157.6356 H   0  0  0  0  0  0  0  0  0  0  0  0
  148.9110  140.7134  157.6885 H   0  0  0  0  0  0  0  0  0  0  0  0
  151.2154  141.9739  156.3928 H   0  0  0  0  0  0  0  0  0  0  0  0
  150.0308  143.7825  158.0358 H   0  0  0  0  0  0  0  0  0  0  0  0
  150.1878  142.3297  159.0088 H   0  0  0  0  0  0  0  0  0  0  0  0
  152.6750  142.5130  157.6655 H   0  0  0  0  0  0  0  0  0  0  0  0
  152.2915  144.1749  158.0446 H   0  0  0  0  0  0  0  0  0  0  0  0
  152.7452  140.8608  159.9253 H   0  0  0  0  0  0  0  0  0  0  0  0
  154.2091  141.7234  159.4347 H   0  0  0  0  0  0  0  0  0  0  0  0
  153.5507  141.0718  162.1189 H   0  0  0  0  0  0  0  0  0  0  0  0
  154.7222  142.2903  161.6348 H   0  0  0  0  0  0  0  0  0  0  0  0
  151.9706  142.7222  162.6842 H   0  0  0  0  0  0  0  0  0  0  0  0
  153.3124  143.8775  162.5875 H   0  0  0  0  0  0  0  0  0  0  0  0
  149.3349  138.8920  156.0455 H   0  0  0  0  0  0  0  0  0  0  0  0
  151.7113  139.2884  155.4704 H   0  0  0  0  0  0  0  0  0  0  0  0
  151.3049  140.8361  154.7372 H   0  0  0  0  0  0  0  0  0  0  0  0
  150.7238  139.3368  154.0209 H   0  0  0  0  0  0  0  0  0  0  0  0
  149.2271  142.5437  154.7653 H   0  0  0  0  0  0  0  0  0  0  0  0
  146.8623  142.7817  153.4297 H   0  0  0  0  0  0  0  0  0  0  0  0
  145.7594  140.2497  153.6548 H   0  0  0  0  0  0  0  0  0  0  0  0
  149.6598  142.4877  156.3732 H   0  0  0  0  0  0  0  0  0  0  0  0
  1  2  1  0  0  0  0
  1 19  1  0  0  0  0
  1 20  1  0  0  0  0
  1 21  1  0  0  0  0
  2  3  1  0  0  0  0
  2 12  1  0  0  0  0
  2 22  1  0  0  0  0
  3  4  1  0  0  0  0
  3 23  1  0  0  0  0
  3 41  1  0  0  0  0
  4  5  1  0  0  0  0
  4 24  1  0  0  0  0
  4 25  1  0  0  0  0
  5  6  1  0  0  0  0
  5 26  1  0  0  0  0
  5 27  1  0  0  0  0
  6 10  1  0  0  0  0
  6  7  1  0  0  0  0
  7  8  1  0  0  0  0
  7 28  1  0  0  0  0
  7 29  1  0  0  0  0
  8  9  1  0  0  0  0
  8 30  1  0  0  0  0
  8 31  1  0  0  0  0
  9 10  1  0  0  0  0
  9 32  1  0  0  0  0
  9 33  1  0  0  0  0
 10 11  2  0  0  0  0
 12 13  1  0  0  0  0
 12 14  1  0  0  0  0
 12 34  1  0  0  0  0
 13 35  1  0  0  0  0
 13 36  1  0  0  0  0
 13 37  1  0  0  0  0
 14 18  1  0  0  0  0
 14 15  1  0  0  0  0
 15 16  2  0  0  0  0
 15 38  1  0  0  0  0
 16 17  1  0  0  0  0
 16 39  1  0  0  0  0
 17 18  2  0  0  0  0
 17 40  1  0  0  0  0
M  CHG  1   3   1
M  END
> <s_m_source_file>
AV-unprocessed.smi

> <i_m_source_file_index>
3222

> <i_lp_mmshare_version>
43012

> <i_f3d_flags>
0

> <s_epik_input>
bjFbY0hdW2NIXVtjSF1uMVtDQEBIXShbQ0gzXSlbQ0BIXShbQ0gzXSlbTkhdW0NIMl1bQ0gyXU4yW0NIMl1bQ0gyXVtDSDJdQzI9Tw==

> <s_epik_cmdline>
J2VwaWtfcHl0aG9uJywgJy1waCcsICc3LjAnLCAnLXRuJywgJzgnLCAnLW1hJywgJzIwMCcsICctbWV0YWxfYmluZGluZycsICctaW1hZScsICc8aW5maWxlLm1hZT4nLCAnLW9tYWUnLCAnPG91dGZpbGUubWFlPic=

> <r_lp_tautomer_probability>
1

> <r_epik_Ionization_Penalty>
0.0064019

> <r_epik_Ionization_Penalty_Charging>
0.00639164

> <r_epik_Ionization_Penalty_Neutral>
1.02567e-05

> <r_epik_State_Penalty>
0.00472531

> <r_epik_Charging_Adjusted_Penalty>
0.011117

> <i_epik_Tot_Q>
1

> <i_epik_Tot_abs_Q>
1

> <r_epik_Metal_State_Penalty>
-0

> <b_epik_Metal_Only>
0

> <s_lp_Force_Field>
OPLS_2005

> <r_lp_Energy>
24.0012

> <b_lp_Chiralities_Consistent>
1

> <s_lp_Variant>
AV-unprocessed.smi:3222-2

> <Gold.Version>
5.8.1

> <Gold.Id.Protein>
6NUR|6NUR_protein|mol2

> <Gold.PLP.Fitness>
44.2219

> <Gold.PLP.PLP>
-40.2415

> <Gold.PLP.part.hbond>
0.0000

> <Gold.PLP.part.metal>
0.0000

> <Gold.PLP.part.buried>
-3.1542

> <Gold.PLP.part.nonpolar>
-36.3099

> <Gold.PLP.part.repulsive>
0.2896

> <Gold.PLP.ligand.clash>
0.0000

> <Gold.PLP.ligand.torsion>
0.8881

> <Gold.PLP.Chemscore.Hbond>
0.0000

> <Gold.PLP.Chemscore.CHOScore>
1.8742

> <Gold.PLP.Chemscore.Metal>
0.0000

> <Gold.Chemscore.Hbonds>
donor molecule, donor type, donor heavy atom, donor atom, acceptor molecule, acceptor atom, score
      L1  C    15    38       P1  8028  0.91
      L1  C    17    40       P1 10175  1.00

> <Gold.PLP.Chemscore.Internal.Correction>
0.1339

> <Gold.Rescore>
     Score         DG    S(hbond)    S(metal)    S(lipo)     H(rot)  DE(clash)    DE(int)     intcor
     10.50     -11.43       0.00        0.00      94.32       1.99       0.05       0.88       ----

> <Gold.Chemscore.Fitness>
10.4951

> <Gold.Chemscore.DG>
-11.4261

> <Gold.Chemscore.ZeroCoef>
-5.4800

> <Gold.Chemscore.Hbond>
0.0033

> <Gold.Chemscore.Metal>
0.0000

> <Gold.Chemscore.Lipo>
94.3170

> <Gold.Chemscore.Internal_Hbond>
0.0000

> <Gold.Chemscore.DEClash>
0.0460

> <Gold.Chemscore.DEInternal>
0.8849

> <Gold.Chemscore.Rot>
1.9922

> <Gold.Chemscore.Internal.Correction>
   9.000000E+99

> <Gold.Chemscore.Hbonds>
donor molecule, donor type, donor heavy atom, donor atom, acceptor molecule, acceptor atom, score
      L1  H     3    41       P1  8028  0.03

> <Gold.Chemscore.Hbond.Weighted>
-0.0111

> <Gold.Chemscore.Metal.Weighted>
-0.0000

> <Gold.Chemscore.Lipo.Weighted>
-11.0351

> <Gold.Chemscore.Internal_Hbond.Weighted>
0.0000

> <Gold.Chemscore.DEClash.Weighted>
0.0460

> <Gold.Chemscore.DEInternal.Weighted>
0.8849

> <Gold.Chemscore.Rot.Weighted>
5.1002

> <Gold.Chemscore.Internal.Correction.Weighted>
   9.000000E+99

> <Gold.Protein.RotatedTorsions>
[ 6907 6896 6895 6894 ] final   72.45 input  -60.11 | X-H torsion
[ 7974 7965 7964 7962 ] final   27.01 input  175.53 | X-H torsion
[ 8008 7997 7996 7995 ] final -152.28 input   59.86 | X-H torsion
[ 10167 10162 10161 10158 ] final   85.19 input  -65.29 | X-H torsion
[ 10718 10713 10712 10709 ] final   42.83 input   66.30 | X-H torsion
[ 10763 10752 10751 10750 ] final  -46.86 input  -60.55 | X-H torsion
[ 11005 11000 10999 10996 ] final  176.25 input  -57.11 | X-H torsion

> <Gold.Protein.ActiveResidues>
 VAL166  LYS551  ARG553  GLY616  TRP617  ASP618  TYR619  PRO620  LYS621  CYS622 
 ASP623  PHE694  ASN695  SER759  ASP760  ASP761  ALA762  ILE779  LEU786  VAL792 
 PHE793  MET794  SER795  GLU796  ALA797  LYS798  CYS799  TRP800  GLU811  SER814 

> <Gold.Protein.RotatedAtoms>
  152.4868  134.4570  159.9592 H   0  0  0  0  0  0  0  0  0  0  0  0  # atno 6907 bound_to 6896
  151.4565  133.3598  159.2810 H   0  0  0  0  0  0  0  0  0  0  0  0  # atno 6908 bound_to 6896
  150.8986  134.8421  159.7404 H   0  0  0  0  0  0  0  0  0  0  0  0  # atno 6909 bound_to 6896
  146.1807  139.7250  142.8902 H   0  0  0  0  0  0  0  0  0  0  0  0  # atno 7974 bound_to 7965
  155.6527  140.0714  157.2581 H   0  0  0  0  0  0  0  0  0  0  0  0  # atno 8008 bound_to 7997
  154.4159  140.1730  156.1742 H   0  0  0  0  0  0  0  0  0  0  0  0  # atno 8009 bound_to 7997
  155.9763  140.3357  155.6625 H   0  0  0  0  0  0  0  0  0  0  0  0  # atno 8010 bound_to 7997
  139.9003  144.6333  150.8644 H   0  0  0  0  0  0  0  0  0  0  0  0  # atno 10167 bound_to 10162
  157.4092  130.7904  149.7415 H   0  0  0  0  0  0  0  0  0  0  0  0  # atno 10718 bound_to 10713
  154.0520  135.6630  153.4801 H   0  0  0  0  0  0  0  0  0  0  0  0  # atno 10763 bound_to 10752
  153.0460  135.5114  154.7742 H   0  0  0  0  0  0  0  0  0  0  0  0  # atno 10764 bound_to 10752
  154.6751  135.3036  154.9656 H   0  0  0  0  0  0  0  0  0  0  0  0  # atno 10765 bound_to 10752
  140.3711  134.7029  157.4392 H   0  0  0  0  0  0  0  0  0  0  0  0  # atno 11005 bound_to 11000
  145.4083  141.0393  143.3031 LP  0  0  0  0  0  0  0  0  0  0  0  0  # atno 17320 bound_to 7965
  144.8311  139.5627  143.6943 LP  0  0  0  0  0  0  0  0  0  0  0  0  # atno 17321 bound_to 7965
  140.7708  143.3442  151.2145 LP  0  0  0  0  0  0  0  0  0  0  0  0  # atno 17342 bound_to 10162
  139.7031  143.9500  152.2914 LP  0  0  0  0  0  0  0  0  0  0  0  0  # atno 17343 bound_to 10162
  155.9845  130.3990  150.3306 LP  0  0  0  0  0  0  0  0  0  0  0  0  # atno 17370 bound_to 10713
  157.1442  131.0304  151.2914 LP  0  0  0  0  0  0  0  0  0  0  0  0  # atno 17371 bound_to 10713
  140.0551  134.6075  155.8815 LP  0  0  0  0  0  0  0  0  0  0  0  0  # atno 17394 bound_to 11000
  141.1954  133.6587  156.5642 LP  0  0  0  0  0  0  0  0  0  0  0  0  # atno 17395 bound_to 11000

$$$$
