AV-unprocessed.smi:1085|AV-procd|sdf|4720|dock10
  -GOLD-   22720 3243D 1   1.00000     0.00000
 Structure written by MMmdl.
 33 34  0  0  0  0  0  0  0  0  1 V2000
  153.1055  139.1846  159.8997 O   0  0  0  0  0  0  0  0  0  0  0  0
  153.0854  139.0124  158.6815 C   0  0  0  0  0  0  0  0  0  0  0  0
  154.1928  138.2071  158.0019 C   0  0  0  0  0  0  0  0  0  0  0  0
  154.2418  136.8553  158.5287 N   0  0  0  0  0  0  0  0  0  0  0  0
  154.3176  136.4052  159.7829 C   0  0  0  0  0  0  0  0  0  0  0  0
  154.3078  135.0817  159.8284 N   0  0  0  0  0  0  0  0  0  0  0  0
  154.2193  134.7210  158.4940 N   0  0  0  0  0  0  0  0  0  0  0  0
  154.1798  135.7689  157.7181 N   0  0  0  0  0  0  0  0  0  0  0  0
  152.1164  139.4821  157.8806 N   0  0  0  0  0  0  0  0  0  0  0  0
  150.9086  140.1786  158.3160 C   0  0  2  0  0  0  0  0  0  0  0  0
  149.9893  140.5018  157.1193 C   0  0  0  0  0  0  0  0  0  0  0  0
  150.6057  141.5625  156.1922 C   0  0  0  0  0  0  0  0  0  0  0  0
  150.9618  142.8396  156.9693 C   0  0  0  0  0  0  0  0  0  0  0  0
  151.9049  142.5449  158.1553 C   0  0  1  0  0  0  0  0  0  0  0  0
  152.2711  143.8250  158.9342 C   0  0  0  0  0  0  0  0  0  0  0  0
  151.2335  144.2581  159.6510 F   0  0  0  0  0  0  0  0  0  0  0  0
  153.2915  143.5815  159.7568 F   0  0  0  0  0  0  0  0  0  0  0  0
  152.6408  144.7855  158.0870 F   0  0  0  0  0  0  0  0  0  0  0  0
  151.2862  141.4660  159.0754 C   0  0  0  0  0  0  0  0  0  0  0  0
  154.0240  138.1742  156.9244 H   0  0  0  0  0  0  0  0  0  0  0  0
  155.1606  138.6830  158.1661 H   0  0  0  0  0  0  0  0  0  0  0  0
  154.3702  137.0414  160.6542 H   0  0  0  0  0  0  0  0  0  0  0  0
  152.1950  139.2929  156.8915 H   0  0  0  0  0  0  0  0  0  0  0  0
  150.3713  139.5252  159.0058 H   0  0  0  0  0  0  0  0  0  0  0  0
  149.7623  139.5979  156.5528 H   0  0  0  0  0  0  0  0  0  0  0  0
  149.0327  140.8690  157.4934 H   0  0  0  0  0  0  0  0  0  0  0  0
  151.4998  141.1617  155.7122 H   0  0  0  0  0  0  0  0  0  0  0  0
  149.9083  141.8008  155.3887 H   0  0  0  0  0  0  0  0  0  0  0  0
  151.4249  143.5565  156.2908 H   0  0  0  0  0  0  0  0  0  0  0  0
  150.0464  143.3082  157.3331 H   0  0  0  0  0  0  0  0  0  0  0  0
  152.8333  142.1442  157.7450 H   0  0  0  0  0  0  0  0  0  0  0  0
  150.3912  141.8694  159.5507 H   0  0  0  0  0  0  0  0  0  0  0  0
  151.9732  141.2241  159.8873 H   0  0  0  0  0  0  0  0  0  0  0  0
  1  2  2  0  0  0  0
  2  3  1  0  0  0  0
  2  9  1  0  0  0  0
  3  4  1  0  0  0  0
  3 20  1  0  0  0  0
  3 21  1  0  0  0  0
  4  8  1  0  0  0  0
  4  5  1  0  0  0  0
  5  6  2  0  0  0  0
  5 22  1  0  0  0  0
  6  7  1  0  0  0  0
  7  8  2  0  0  0  0
  9 10  1  0  0  0  0
  9 23  1  0  0  0  0
 10 19  1  0  0  0  0
 10 11  1  0  0  0  0
 10 24  1  0  0  0  0
 11 12  1  0  0  0  0
 11 25  1  0  0  0  0
 11 26  1  0  0  0  0
 12 13  1  0  0  0  0
 12 27  1  0  0  0  0
 12 28  1  0  0  0  0
 13 14  1  0  0  0  0
 13 29  1  0  0  0  0
 13 30  1  0  0  0  0
 14 15  1  0  0  0  0
 14 19  1  0  0  0  0
 14 31  1  0  0  0  0
 15 16  1  0  0  0  0
 15 17  1  0  0  0  0
 15 18  1  0  0  0  0
 19 32  1  0  0  0  0
 19 33  1  0  0  0  0
M  END
> <s_m_source_file>
AV-unprocessed.smi

> <i_m_source_file_index>
1085

> <i_lp_mmshare_version>
43012

> <i_f3d_flags>
0

> <s_epik_input>
bjFubltjSF1uMVtDSDJdQyg9TylbTkhdW0NAQEhdMltDSDJdW0NIMl1bQ0gyXVtDQEBIXShDKEYpKEYpRilbQ0gyXTI=

> <s_epik_cmdline>
J2VwaWtfcHl0aG9uJywgJy1waCcsICc3LjAnLCAnLXRuJywgJzgnLCAnLW1hJywgJzIwMCcsICctbWV0YWxfYmluZGluZycsICctaW1hZScsICc8aW5maWxlLm1hZT4nLCAnLW9tYWUnLCAnPG91dGZpbGUubWFlPic=

> <r_lp_tautomer_probability>
1

> <r_epik_Ionization_Penalty>
8.41315e-07

> <r_epik_Ionization_Penalty_Charging>
0

> <r_epik_Ionization_Penalty_Neutral>
8.41315e-07

> <r_epik_State_Penalty>
-0

> <r_epik_Charging_Adjusted_Penalty>
0

> <i_epik_Tot_Q>
0

> <i_epik_Tot_abs_Q>
0

> <r_epik_Metal_State_Penalty>
-0

> <b_epik_Metal_Only>
0

> <s_lp_Force_Field>
OPLS_2005

> <r_lp_Energy>
11.1057

> <b_lp_Chiralities_Consistent>
1

> <s_lp_Variant>
AV-unprocessed.smi:1085-1

> <Gold.Version>
5.8.1

> <Gold.Id.Protein>
6NUR|6NUR_protein|mol2

> <Gold.PLP.Fitness>
36.8477

> <Gold.PLP.PLP>
-31.2594

> <Gold.PLP.part.hbond>
-2.1191

> <Gold.PLP.part.metal>
0.0000

> <Gold.PLP.part.buried>
-3.1764

> <Gold.PLP.part.nonpolar>
-26.1431

> <Gold.PLP.part.repulsive>
0.0733

> <Gold.PLP.ligand.clash>
0.0000

> <Gold.PLP.ligand.torsion>
0.2212

> <Gold.PLP.Chemscore.Hbond>
2.0000

> <Gold.PLP.Chemscore.CHOScore>
0.0000

> <Gold.PLP.Chemscore.Metal>
0.0000

> <Gold.Chemscore.Hbonds>
donor molecule, donor type, donor heavy atom, donor atom, acceptor molecule, acceptor atom, score
      P1  H  6896  6908       L1     6  0.15
      P1  H 10752 10764       L1     8  0.02

> <Gold.PLP.Chemscore.Internal.Correction>
0.0306

> <Gold.Rescore>
     Score         DG    S(hbond)    S(metal)    S(lipo)     H(rot)  DE(clash)    DE(int)     intcor
      8.64     -10.90       1.40        0.00      51.19       2.05       0.07       2.18       ----

> <Gold.Chemscore.Fitness>
8.6437

> <Gold.Chemscore.DG>
-10.8991

> <Gold.Chemscore.ZeroCoef>
-5.4800

> <Gold.Chemscore.Hbond>
1.3972

> <Gold.Chemscore.Metal>
0.0000

> <Gold.Chemscore.Lipo>
51.1911

> <Gold.Chemscore.Internal_Hbond>
0.0000

> <Gold.Chemscore.DEClash>
0.0731

> <Gold.Chemscore.DEInternal>
2.1822

> <Gold.Chemscore.Rot>
2.0456

> <Gold.Chemscore.Internal.Correction>
   9.000000E+99

> <Gold.Chemscore.Hbonds>
donor molecule, donor type, donor heavy atom, donor atom, acceptor molecule, acceptor atom, score
      P1  H 10752 10764       L1     8  0.08

> <Gold.Chemscore.Hbond.Weighted>
-4.6665

> <Gold.Chemscore.Metal.Weighted>
-0.0000

> <Gold.Chemscore.Lipo.Weighted>
-5.9894

> <Gold.Chemscore.Internal_Hbond.Weighted>
0.0000

> <Gold.Chemscore.DEClash.Weighted>
0.0731

> <Gold.Chemscore.DEInternal.Weighted>
2.1822

> <Gold.Chemscore.Rot.Weighted>
5.2368

> <Gold.Chemscore.Internal.Correction.Weighted>
   9.000000E+99

> <Gold.Protein.RotatedTorsions>
[ 6907 6896 6895 6894 ] final  -38.86 input  -60.11 | X-H torsion
[ 7974 7965 7964 7962 ] final  133.63 input  175.53 | X-H torsion
[ 8008 7997 7996 7995 ] final  -86.52 input   59.86 | X-H torsion
[ 10167 10162 10161 10158 ] final -157.41 input  -65.29 | X-H torsion
[ 10718 10713 10712 10709 ] final  158.65 input   66.30 | X-H torsion
[ 10763 10752 10751 10750 ] final   42.13 input  -60.55 | X-H torsion
[ 11005 11000 10999 10996 ] final -160.46 input  -57.11 | X-H torsion

> <Gold.Protein.ActiveResidues>
 VAL166  LYS551  ARG553  GLY616  TRP617  ASP618  TYR619  PRO620  LYS621  CYS622 
 ASP623  PHE694  ASN695  SER759  ASP760  ASP761  ALA762  ILE779  LEU786  VAL792 
 PHE793  MET794  SER795  GLU796  ALA797  LYS798  CYS799  TRP800  GLU811  SER814 

> <Gold.Protein.RotatedAtoms>
  150.9973  134.9293  159.7933 H   0  0  0  0  0  0  0  0  0  0  0  0  # atno 6907 bound_to 6896
  152.5268  134.3202  159.9155 H   0  0  0  0  0  0  0  0  0  0  0  0  # atno 6908 bound_to 6896
  151.3207  133.4000  159.2688 H   0  0  0  0  0  0  0  0  0  0  0  0  # atno 6909 bound_to 6896
  144.9846  139.4469  143.5369 H   0  0  0  0  0  0  0  0  0  0  0  0  # atno 7974 bound_to 7965
  154.6528  140.0577  156.9975 H   0  0  0  0  0  0  0  0  0  0  0  0  # atno 8008 bound_to 7997
  155.1345  140.3259  155.4447 H   0  0  0  0  0  0  0  0  0  0  0  0  # atno 8009 bound_to 7997
  156.2584  140.1975  156.6463 H   0  0  0  0  0  0  0  0  0  0  0  0  # atno 8010 bound_to 7997
  139.6773  143.9641  152.2317 H   0  0  0  0  0  0  0  0  0  0  0  0  # atno 10167 bound_to 10162
  157.1750  131.0619  151.2162 H   0  0  0  0  0  0  0  0  0  0  0  0  # atno 10718 bound_to 10713
  152.9890  135.6141  154.2900 H   0  0  0  0  0  0  0  0  0  0  0  0  # atno 10763 bound_to 10752
  154.2626  135.2782  155.2773 H   0  0  0  0  0  0  0  0  0  0  0  0  # atno 10764 bound_to 10752
  154.5193  135.5819  153.6724 H   0  0  0  0  0  0  0  0  0  0  0  0  # atno 10765 bound_to 10752
  140.6312  134.4649  157.5229 H   0  0  0  0  0  0  0  0  0  0  0  0  # atno 11005 bound_to 11000
  146.3416  139.9139  142.8776 LP  0  0  0  0  0  0  0  0  0  0  0  0  # atno 17320 bound_to 7965
  145.2373  140.9996  143.3956 LP  0  0  0  0  0  0  0  0  0  0  0  0  # atno 17321 bound_to 7965
  139.9422  144.6674  150.8255 LP  0  0  0  0  0  0  0  0  0  0  0  0  # atno 17342 bound_to 10162
  140.7640  143.3237  151.2564 LP  0  0  0  0  0  0  0  0  0  0  0  0  # atno 17343 bound_to 10162
  157.4007  130.7332  149.6765 LP  0  0  0  0  0  0  0  0  0  0  0  0  # atno 17370 bound_to 10713
  155.9732  130.4121  150.4017 LP  0  0  0  0  0  0  0  0  0  0  0  0  # atno 17371 bound_to 10713
  139.9115  134.8335  156.1512 LP  0  0  0  0  0  0  0  0  0  0  0  0  # atno 17394 bound_to 11000
  141.0674  133.6813  156.2071 LP  0  0  0  0  0  0  0  0  0  0  0  0  # atno 17395 bound_to 11000

$$$$
