AV-unprocessed.smi:1133|AV-procd|sdf|4856|dock5
  -GOLD-   22720 3423D 1   1.00000     0.00000
 Structure written by MMmdl.
 41 42  0  0  0  0  0  0  0  0  1 V2000
  152.1670  144.5420  161.8923 C   0  0  0  0  0  0  0  0  0  0  0  0
  152.5410  143.2378  161.1842 C   0  0  0  0  0  0  0  0  0  0  0  0
  152.6356  142.2165  161.8653 O   0  0  0  0  0  0  0  0  0  0  0  0
  152.7486  143.2468  159.8454 N   0  0  0  0  0  0  0  0  0  0  0  0
  153.0239  142.0276  159.0766 C   0  0  0  0  0  0  0  0  0  0  0  0
  151.7914  141.6964  158.2156 C   0  0  0  0  0  0  0  0  0  0  0  0
  151.4053  142.8821  157.3049 C   0  0  0  0  0  0  0  0  0  0  0  0
  150.1304  142.6036  156.6510 N   0  0  0  0  0  0  0  0  0  0  0  0
  149.9414  141.6926  155.6861 C   0  0  0  0  0  0  0  0  0  0  0  0
  150.8280  140.9632  155.2413 O   0  0  0  0  0  0  0  0  0  0  0  0
  148.6719  141.6775  155.2568 N   0  0  0  0  0  0  0  0  0  0  0  0
  148.1584  140.8065  154.2063 C   0  0  0  0  0  0  0  0  0  0  0  0
  147.3458  141.5932  153.1643 C   0  0  0  0  0  0  0  0  0  0  0  0
  146.4163  142.5066  153.7963 N   0  0  0  0  0  0  0  0  0  0  0  0
  146.0281  143.7586  153.3384 C   0  0  0  0  0  0  0  0  0  0  0  0
  145.1359  144.2549  154.2620 C   0  0  0  0  0  0  0  0  0  0  0  0
  144.9635  143.3318  155.2907 N   0  0  0  0  0  0  0  0  0  0  0  0
  145.7530  142.3226  154.9461 C   0  0  0  0  0  0  0  0  0  0  0  0
  151.3281  144.2055  158.1017 C   0  0  0  0  0  0  0  0  0  0  0  0
  152.5837  144.4116  158.9674 C   0  0  0  0  0  0  0  0  0  0  0  0
  151.2519  144.9617  161.4732 H   0  0  0  0  0  0  0  0  0  0  0  0
  152.9690  145.2750  161.8012 H   0  0  0  0  0  0  0  0  0  0  0  0
  151.9957  144.3668  162.9550 H   0  0  0  0  0  0  0  0  0  0  0  0
  153.8949  142.1891  158.4397 H   0  0  0  0  0  0  0  0  0  0  0  0
  153.2742  141.1757  159.7102 H   0  0  0  0  0  0  0  0  0  0  0  0
  151.9869  140.8090  157.6126 H   0  0  0  0  0  0  0  0  0  0  0  0
  150.9567  141.4465  158.8726 H   0  0  0  0  0  0  0  0  0  0  0  0
  152.1837  142.9818  156.5459 H   0  0  0  0  0  0  0  0  0  0  0  0
  149.3375  143.1534  156.9477 H   0  0  0  0  0  0  0  0  0  0  0  0
  148.0154  142.3152  155.6827 H   0  0  0  0  0  0  0  0  0  0  0  0
  148.9834  140.2746  153.7288 H   0  0  0  0  0  0  0  0  0  0  0  0
  147.5289  140.0484  154.6733 H   0  0  0  0  0  0  0  0  0  0  0  0
  148.0096  142.1658  152.5149 H   0  0  0  0  0  0  0  0  0  0  0  0
  146.7792  140.9173  152.5222 H   0  0  0  0  0  0  0  0  0  0  0  0
  146.4079  144.1807  152.4196 H   0  0  0  0  0  0  0  0  0  0  0  0
  144.6101  145.1982  154.2660 H   0  0  0  0  0  0  0  0  0  0  0  0
  145.8531  141.4291  155.5450 H   0  0  0  0  0  0  0  0  0  0  0  0
  151.2054  145.0487  157.4210 H   0  0  0  0  0  0  0  0  0  0  0  0
  150.4479  144.1988  158.7466 H   0  0  0  0  0  0  0  0  0  0  0  0
  152.5142  145.3571  159.5033 H   0  0  0  0  0  0  0  0  0  0  0  0
  153.4633  144.5058  158.3290 H   0  0  0  0  0  0  0  0  0  0  0  0
  1  2  1  0  0  0  0
  1 21  1  0  0  0  0
  1 22  1  0  0  0  0
  1 23  1  0  0  0  0
  2  3  2  0  0  0  0
  2  4  1  0  0  0  0
  4 20  1  0  0  0  0
  4  5  1  0  0  0  0
  5  6  1  0  0  0  0
  5 24  1  0  0  0  0
  5 25  1  0  0  0  0
  6  7  1  0  0  0  0
  6 26  1  0  0  0  0
  6 27  1  0  0  0  0
  7  8  1  0  0  0  0
  7 19  1  0  0  0  0
  7 28  1  0  0  0  0
  8  9  1  0  0  0  0
  8 29  1  0  0  0  0
  9 10  2  0  0  0  0
  9 11  1  0  0  0  0
 11 12  1  0  0  0  0
 11 30  1  0  0  0  0
 12 13  1  0  0  0  0
 12 31  1  0  0  0  0
 12 32  1  0  0  0  0
 13 14  1  0  0  0  0
 13 33  1  0  0  0  0
 13 34  1  0  0  0  0
 14 18  1  0  0  0  0
 14 15  1  0  0  0  0
 15 16  2  0  0  0  0
 15 35  1  0  0  0  0
 16 17  1  0  0  0  0
 16 36  1  0  0  0  0
 17 18  2  0  0  0  0
 18 37  1  0  0  0  0
 19 20  1  0  0  0  0
 19 38  1  0  0  0  0
 19 39  1  0  0  0  0
 20 40  1  0  0  0  0
 20 41  1  0  0  0  0
M  END
> <s_m_source_file>
AV-unprocessed.smi

> <i_m_source_file_index>
1133

> <i_lp_mmshare_version>
43012

> <i_f3d_flags>
0

> <s_epik_input>
W0NIM11DKD1PKU4xW0NIMl1bQ0gyXVtDSF0oW0NIMl1bQ0gyXTEpW05IXUMoPU8pW05IXVtDSDJdW0NIMl1uMltjSF1bY0hdbltjSF0y

> <s_epik_cmdline>
J2VwaWtfcHl0aG9uJywgJy1waCcsICc3LjAnLCAnLXRuJywgJzgnLCAnLW1hJywgJzIwMCcsICctbWV0YWxfYmluZGluZycsICctaW1hZScsICc8aW5maWxlLm1hZT4nLCAnLW9tYWUnLCAnPG91dGZpbGUubWFlPic=

> <r_lp_tautomer_probability>
1

> <r_epik_Ionization_Penalty>
0.622276

> <r_epik_Ionization_Penalty_Charging>
0.622222

> <r_epik_Ionization_Penalty_Neutral>
5.3634e-05

> <r_epik_State_Penalty>
0.638348

> <r_epik_Charging_Adjusted_Penalty>
1.26057

> <i_epik_Tot_Q>
0

> <i_epik_Tot_abs_Q>
0

> <r_epik_Metal_State_Penalty>
0.307013

> <b_epik_Metal_Only>
0

> <s_lp_Force_Field>
OPLS_2005

> <r_lp_Energy>
21.3303

> <b_lp_Chiralities_Consistent>
1

> <s_lp_Variant>
AV-unprocessed.smi:1133-2

> <Gold.Version>
5.8.1

> <Gold.Id.Protein>
6NUR|6NUR_protein|mol2

> <Gold.PLP.Fitness>
47.8029

> <Gold.PLP.PLP>
-46.1894

> <Gold.PLP.part.hbond>
-2.3471

> <Gold.PLP.part.metal>
0.0000

> <Gold.PLP.part.buried>
-5.3503

> <Gold.PLP.part.nonpolar>
-37.2920

> <Gold.PLP.part.repulsive>
0.4248

> <Gold.PLP.ligand.clash>
0.0000

> <Gold.PLP.ligand.torsion>
0.6000

> <Gold.PLP.Chemscore.Hbond>
0.9287

> <Gold.PLP.Chemscore.CHOScore>
0.0000

> <Gold.PLP.Chemscore.Metal>
0.0000

> <Gold.Chemscore.Hbonds>
donor molecule, donor type, donor heavy atom, donor atom, acceptor molecule, acceptor atom, score
      L1  H     8    29       P1  8028  0.26
      P1  H  7989  7998       L1    10  0.74

> <Gold.PLP.Chemscore.Internal.Correction>
0.0273

> <Gold.Rescore>
     Score         DG    S(hbond)    S(metal)    S(lipo)     H(rot)  DE(clash)    DE(int)     intcor
     13.63     -14.07       0.95        0.00      90.42       2.01       0.07       0.37       ----

> <Gold.Chemscore.Fitness>
13.6306

> <Gold.Chemscore.DG>
-14.0742

> <Gold.Chemscore.ZeroCoef>
-5.4800

> <Gold.Chemscore.Hbond>
0.9477

> <Gold.Chemscore.Metal>
0.0000

> <Gold.Chemscore.Lipo>
90.4224

> <Gold.Chemscore.Internal_Hbond>
0.0000

> <Gold.Chemscore.DEClash>
0.0701

> <Gold.Chemscore.DEInternal>
0.3735

> <Gold.Chemscore.Rot>
2.0119

> <Gold.Chemscore.Internal.Correction>
   9.000000E+99

> <Gold.Chemscore.Hbonds>
donor molecule, donor type, donor heavy atom, donor atom, acceptor molecule, acceptor atom, score
      L1  H     8    29       P1  8028  0.24
      P1  H  7989  7998       L1    10  0.74

> <Gold.Chemscore.Hbond.Weighted>
-3.1652

> <Gold.Chemscore.Metal.Weighted>
-0.0000

> <Gold.Chemscore.Lipo.Weighted>
-10.5794

> <Gold.Chemscore.Internal_Hbond.Weighted>
0.0000

> <Gold.Chemscore.DEClash.Weighted>
0.0701

> <Gold.Chemscore.DEInternal.Weighted>
0.3735

> <Gold.Chemscore.Rot.Weighted>
5.1503

> <Gold.Chemscore.Internal.Correction.Weighted>
   9.000000E+99

> <Gold.Protein.RotatedTorsions>
[ 6907 6896 6895 6894 ] final  158.37 input  -60.11 | X-H torsion
[ 7974 7965 7964 7962 ] final  102.99 input  175.53 | X-H torsion
[ 8008 7997 7996 7995 ] final  -57.82 input   59.86 | X-H torsion
[ 10167 10162 10161 10158 ] final -150.26 input  -65.29 | X-H torsion
[ 10718 10713 10712 10709 ] final  104.77 input   66.30 | X-H torsion
[ 10763 10752 10751 10750 ] final  131.85 input  -60.55 | X-H torsion
[ 11005 11000 10999 10996 ] final -171.27 input  -57.11 | X-H torsion

> <Gold.Protein.ActiveResidues>
 VAL166  LYS551  ARG553  GLY616  TRP617  ASP618  TYR619  PRO620  LYS621  CYS622 
 ASP623  PHE694  ASN695  SER759  ASP760  ASP761  ALA762  ILE779  LEU786  VAL792 
 PHE793  MET794  SER795  GLU796  ALA797  LYS798  CYS799  TRP800  GLU811  SER814 

> <Gold.Protein.RotatedAtoms>
  152.0013  133.3826  159.4182 H   0  0  0  0  0  0  0  0  0  0  0  0  # atno 6907 bound_to 6896
  150.6909  134.3830  159.5052 H   0  0  0  0  0  0  0  0  0  0  0  0  # atno 6908 bound_to 6896
  152.1578  134.8936  160.0594 H   0  0  0  0  0  0  0  0  0  0  0  0  # atno 6909 bound_to 6896
  145.3519  139.2437  143.3554 H   0  0  0  0  0  0  0  0  0  0  0  0  # atno 7974 bound_to 7965
  154.4283  140.1098  156.5859 H   0  0  0  0  0  0  0  0  0  0  0  0  # atno 8008 bound_to 7997
  155.6063  140.3494  155.4590 H   0  0  0  0  0  0  0  0  0  0  0  0  # atno 8009 bound_to 7997
  156.0134  140.1224  157.0420 H   0  0  0  0  0  0  0  0  0  0  0  0  # atno 8010 bound_to 7997
  139.7370  143.8721  152.2551 H   0  0  0  0  0  0  0  0  0  0  0  0  # atno 10167 bound_to 10162
  157.6729  131.0812  150.5756 H   0  0  0  0  0  0  0  0  0  0  0  0  # atno 10718 bound_to 10713
  153.7810  135.3168  155.3366 H   0  0  0  0  0  0  0  0  0  0  0  0  # atno 10763 bound_to 10752
  154.8161  135.4635  154.0651 H   0  0  0  0  0  0  0  0  0  0  0  0  # atno 10764 bound_to 10752
  153.1940  135.6912  153.8402 H   0  0  0  0  0  0  0  0  0  0  0  0  # atno 10765 bound_to 10752
  140.5102  134.5809  157.5016 H   0  0  0  0  0  0  0  0  0  0  0  0  # atno 11005 bound_to 11000
  146.2964  140.4136  142.8720 LP  0  0  0  0  0  0  0  0  0  0  0  0  # atno 17320 bound_to 7965
  144.8711  140.7274  143.6046 LP  0  0  0  0  0  0  0  0  0  0  0  0  # atno 17321 bound_to 7965
  139.8660  144.7093  150.9043 LP  0  0  0  0  0  0  0  0  0  0  0  0  # atno 17342 bound_to 10162
  140.7780  143.3777  151.1532 LP  0  0  0  0  0  0  0  0  0  0  0  0  # atno 17343 bound_to 10162
  156.6057  130.4366  149.5879 LP  0  0  0  0  0  0  0  0  0  0  0  0  # atno 17370 bound_to 10713
  156.2471  130.6885  151.1610 LP  0  0  0  0  0  0  0  0  0  0  0  0  # atno 17371 bound_to 10713
  139.9663  134.7367  156.0131 LP  0  0  0  0  0  0  0  0  0  0  0  0  # atno 17394 bound_to 11000
  141.1390  133.6569  156.3674 LP  0  0  0  0  0  0  0  0  0  0  0  0  # atno 17395 bound_to 11000

$$$$
