AV-unprocessed.smi:1709|AV-procd|sdf|6894|dock5
  -GOLD-   22720 8103D 1   1.00000     0.00000
 Structure written by MMmdl.
 43 45  0  0  0  0  0  0  0  0  2 V2000
  145.3003  143.6294  161.8288 C   0  0  0  0  0  0  0  0  0  0  0  0
  144.0732  144.0140  161.0173 C   0  0  0  0  0  0  0  0  0  0  0  0
  142.8239  144.1121  161.6658 C   0  0  0  0  0  0  0  0  0  0  0  0
  141.6892  144.4701  160.9185 C   0  0  0  0  0  0  0  0  0  0  0  0
  141.8539  144.7185  159.5460 C   0  0  0  0  0  0  0  0  0  0  0  0
  143.0444  144.6274  158.9184 N   0  0  0  0  0  0  0  0  0  0  0  0
  144.1517  144.2766  159.6228 C   0  0  0  0  0  0  0  0  0  0  0  0
  145.4531  144.1700  159.0408 N   0  0  0  0  0  0  0  0  0  0  0  0
  146.3617  143.1716  159.0548 C   0  0  0  0  0  0  0  0  0  0  0  0
  146.1374  142.1158  159.6438 O   0  0  0  0  0  0  0  0  0  0  0  0
  147.5078  143.4040  158.3938 N   0  0  0  0  0  0  0  0  0  0  0  0
  148.6417  142.4879  158.2967 C   0  0  1  0  0  0  0  0  0  0  0  0
  148.7975  141.8823  156.8880 C   0  0  0  0  0  0  0  0  0  0  0  0
  150.3034  141.9220  156.6095 C   0  0  0  0  0  0  0  0  0  0  0  0
  150.7389  143.1264  157.3258 N   0  3  2  0  0  0  0  0  0  0  0  0
  152.1873  143.3606  157.4948 C   0  0  0  0  0  0  0  0  0  0  0  0
  152.3869  144.7629  158.1090 C   0  0  0  0  0  0  0  0  0  0  0  0
  151.5543  144.9619  159.3957 C   0  0  0  0  0  0  0  0  0  0  0  0
  150.0741  144.5773  159.1857 C   0  0  0  0  0  0  0  0  0  0  0  0
  150.0036  143.1545  158.6018 C   0  0  1  0  0  0  0  0  0  0  0  0
  145.0422  143.4302  162.8692 H   0  0  0  0  0  0  0  0  0  0  0  0
  146.0349  144.4350  161.8137 H   0  0  0  0  0  0  0  0  0  0  0  0
  145.7628  142.7299  161.4215 H   0  0  0  0  0  0  0  0  0  0  0  0
  142.7327  143.9163  162.7241 H   0  0  0  0  0  0  0  0  0  0  0  0
  140.7191  144.5531  161.3859 H   0  0  0  0  0  0  0  0  0  0  0  0
  141.0090  144.9979  158.9344 H   0  0  0  0  0  0  0  0  0  0  0  0
  145.7184  144.9645  158.4771 H   0  0  0  0  0  0  0  0  0  0  0  0
  147.6045  144.3002  157.9369 H   0  0  0  0  0  0  0  0  0  0  0  0
  148.4961  141.6662  159.0009 H   0  0  0  0  0  0  0  0  0  0  0  0
  148.3879  140.8743  156.8164 H   0  0  0  0  0  0  0  0  0  0  0  0
  148.2807  142.4994  156.1511 H   0  0  0  0  0  0  0  0  0  0  0  0
  150.7960  141.0438  157.0300 H   0  0  0  0  0  0  0  0  0  0  0  0
  150.5343  141.9737  155.5451 H   0  0  0  0  0  0  0  0  0  0  0  0
  152.6211  142.5897  158.1335 H   0  0  0  0  0  0  0  0  0  0  0  0
  152.6862  143.2996  156.5271 H   0  0  0  0  0  0  0  0  0  0  0  0
  153.4435  144.9338  158.3171 H   0  0  0  0  0  0  0  0  0  0  0  0
  152.0937  145.5172  157.3778 H   0  0  0  0  0  0  0  0  0  0  0  0
  151.9754  144.3478  160.1928 H   0  0  0  0  0  0  0  0  0  0  0  0
  151.6284  145.9958  159.7335 H   0  0  0  0  0  0  0  0  0  0  0  0
  149.5422  144.6290  160.1359 H   0  0  0  0  0  0  0  0  0  0  0  0
  149.5949  145.2898  158.5126 H   0  0  0  0  0  0  0  0  0  0  0  0
  150.5219  142.4852  159.2921 H   0  0  0  0  0  0  0  0  0  0  0  0
  150.3848  143.9024  156.7847 H   0  0  0  0  0  0  0  0  0  0  0  0
  1  2  1  0  0  0  0
  1 21  1  0  0  0  0
  1 22  1  0  0  0  0
  1 23  1  0  0  0  0
  2  7  1  0  0  0  0
  2  3  2  0  0  0  0
  3  4  1  0  0  0  0
  3 24  1  0  0  0  0
  4  5  2  0  0  0  0
  4 25  1  0  0  0  0
  5  6  1  0  0  0  0
  5 26  1  0  0  0  0
  6  7  2  0  0  0  0
  7  8  1  0  0  0  0
  8  9  1  0  0  0  0
  8 27  1  0  0  0  0
  9 10  2  0  0  0  0
  9 11  1  0  0  0  0
 11 12  1  0  0  0  0
 11 28  1  0  0  0  0
 12 20  1  0  0  0  0
 12 13  1  0  0  0  0
 12 29  1  0  0  0  0
 13 14  1  0  0  0  0
 13 30  1  0  0  0  0
 13 31  1  0  0  0  0
 14 15  1  0  0  0  0
 14 32  1  0  0  0  0
 14 33  1  0  0  0  0
 15 20  1  0  0  0  0
 15 16  1  0  0  0  0
 15 43  1  0  0  0  0
 16 17  1  0  0  0  0
 16 34  1  0  0  0  0
 16 35  1  0  0  0  0
 17 18  1  0  0  0  0
 17 36  1  0  0  0  0
 17 37  1  0  0  0  0
 18 19  1  0  0  0  0
 18 38  1  0  0  0  0
 18 39  1  0  0  0  0
 19 20  1  0  0  0  0
 19 40  1  0  0  0  0
 19 41  1  0  0  0  0
 20 42  1  0  0  0  0
M  CHG  1  15   1
M  END
> <s_m_source_file>
AV-unprocessed.smi

> <i_m_source_file_index>
1709

> <i_lp_mmshare_version>
43012

> <i_f3d_flags>
0

> <s_epik_input>
W0NIM11jMVtjSF1bY0hdW2NIXW5jMVtOSF1DKD1PKVtOSF1bQ0BIXShbQ0gyXVtDSDJdMilbQ0BASF0oTjIzKVtDSDJdW0NIMl1bQ0gyXVtDSDJdMw==

> <s_epik_cmdline>
J2VwaWtfcHl0aG9uJywgJy1waCcsICc3LjAnLCAnLXRuJywgJzgnLCAnLW1hJywgJzIwMCcsICctbWV0YWxfYmluZGluZycsICctaW1hZScsICc8aW5maWxlLm1hZT4nLCAnLW9tYWUnLCAnPG91dGZpbGUubWFlPic=

> <r_epik_Ionization_Penalty>
0.00101524

> <r_epik_Ionization_Penalty_Charging>
0.000974069

> <r_epik_Ionization_Penalty_Neutral>
4.11757e-05

> <r_epik_State_Penalty>
0.000633842

> <r_epik_Charging_Adjusted_Penalty>
0.00160791

> <i_epik_Tot_Q>
1

> <i_epik_Tot_abs_Q>
1

> <r_epik_Metal_State_Penalty>
-0

> <b_epik_Metal_Only>
0

> <s_lp_Force_Field>
OPLS_2005

> <r_lp_Energy>
46.0591

> <b_lp_Chiralities_Consistent>
1

> <s_lp_Variant>
AV-unprocessed.smi:1709-4

> <Gold.Version>
5.8.1

> <Gold.Id.Protein>
6NUR|6NUR_protein|mol2

> <Gold.PLP.Fitness>
42.2398

> <Gold.PLP.PLP>
-31.4377

> <Gold.PLP.part.hbond>
-3.0703

> <Gold.PLP.part.metal>
0.0000

> <Gold.PLP.part.buried>
-3.8352

> <Gold.PLP.part.nonpolar>
-23.7636

> <Gold.PLP.part.repulsive>
0.1115

> <Gold.PLP.ligand.clash>
0.0000

> <Gold.PLP.ligand.torsion>
0.5993

> <Gold.PLP.Chemscore.Hbond>
4.0000

> <Gold.PLP.Chemscore.CHOScore>
0.0000

> <Gold.PLP.Chemscore.Metal>
0.0000

> <Gold.Chemscore.Hbonds>
donor molecule, donor type, donor heavy atom, donor atom, acceptor molecule, acceptor atom, score
      L1  H    11    28       P1  8029  0.95
      L1  H    15    43       P1  8028  2.00
      P1  H  6934  6946       L1    10  1.00

> <Gold.PLP.Chemscore.Internal.Correction>
0.0006

> <Gold.Rescore>
     Score         DG    S(hbond)    S(metal)    S(lipo)     H(rot)  DE(clash)    DE(int)     intcor
     19.72     -23.05       2.63        0.00      96.91       1.00       0.31       3.02       ----

> <Gold.Chemscore.Fitness>
19.7160

> <Gold.Chemscore.DG>
-23.0457

> <Gold.Chemscore.ZeroCoef>
-5.4800

> <Gold.Chemscore.Hbond>
2.6310

> <Gold.Chemscore.Metal>
0.0000

> <Gold.Chemscore.Lipo>
96.9068

> <Gold.Chemscore.Internal_Hbond>
0.0000

> <Gold.Chemscore.DEClash>
0.3106

> <Gold.Chemscore.DEInternal>
3.0191

> <Gold.Chemscore.Rot>
1.0000

> <Gold.Chemscore.Internal.Correction>
   9.000000E+99

> <Gold.Chemscore.Hbonds>
donor molecule, donor type, donor heavy atom, donor atom, acceptor molecule, acceptor atom, score
      L1  H    11    28       P1  8029  0.22
      L1  H    15    43       P1  8028  0.88
      P1  H  6934  6946       L1    10  1.00

> <Gold.Chemscore.Hbond.Weighted>
-8.7876

> <Gold.Chemscore.Metal.Weighted>
-0.0000

> <Gold.Chemscore.Lipo.Weighted>
-11.3381

> <Gold.Chemscore.Internal_Hbond.Weighted>
0.0000

> <Gold.Chemscore.DEClash.Weighted>
0.3106

> <Gold.Chemscore.DEInternal.Weighted>
3.0191

> <Gold.Chemscore.Rot.Weighted>
2.5600

> <Gold.Chemscore.Internal.Correction.Weighted>
   9.000000E+99

> <Gold.Protein.RotatedTorsions>
[ 6907 6896 6895 6894 ] final  143.08 input  -60.11 | X-H torsion
[ 7974 7965 7964 7962 ] final  -28.91 input  175.53 | X-H torsion
[ 8008 7997 7996 7995 ] final  122.62 input   59.86 | X-H torsion
[ 10167 10162 10161 10158 ] final -117.69 input  -65.29 | X-H torsion
[ 10718 10713 10712 10709 ] final -152.58 input   66.30 | X-H torsion
[ 10763 10752 10751 10750 ] final  -88.43 input  -60.55 | X-H torsion
[ 11005 11000 10999 10996 ] final   56.93 input  -57.11 | X-H torsion

> <Gold.Protein.ActiveResidues>
 VAL166  LYS551  ARG553  GLY616  TRP617  ASP618  TYR619  PRO620  LYS621  CYS622 
 ASP623  PHE694  ASN695  SER759  ASP760  ASP761  ALA762  ILE779  LEU786  VAL792 
 PHE793  MET794  SER795  GLU796  ALA797  LYS798  CYS799  TRP800  GLU811  SER814 

> <Gold.Protein.RotatedAtoms>
  152.2107  133.4909  159.5108 H   0  0  0  0  0  0  0  0  0  0  0  0  # atno 6907 bound_to 6896
  150.6989  134.1470  159.4135 H   0  0  0  0  0  0  0  0  0  0  0  0  # atno 6908 bound_to 6896
  151.9390  135.0222  160.0585 H   0  0  0  0  0  0  0  0  0  0  0  0  # atno 6909 bound_to 6896
  146.1255  140.5343  142.8716 H   0  0  0  0  0  0  0  0  0  0  0  0  # atno 7974 bound_to 7965
  156.2735  140.2781  156.1497 H   0  0  0  0  0  0  0  0  0  0  0  0  # atno 8008 bound_to 7997
  155.0866  140.0388  157.2673 H   0  0  0  0  0  0  0  0  0  0  0  0  # atno 8009 bound_to 7997
  154.6922  140.2631  155.6807 H   0  0  0  0  0  0  0  0  0  0  0  0  # atno 8010 bound_to 7997
  140.0656  143.4926  152.2008 H   0  0  0  0  0  0  0  0  0  0  0  0  # atno 10167 bound_to 10162
  156.4743  130.8273  151.2502 H   0  0  0  0  0  0  0  0  0  0  0  0  # atno 10718 bound_to 10713
  154.6444  135.5377  153.7827 H   0  0  0  0  0  0  0  0  0  0  0  0  # atno 10763 bound_to 10752
  153.0351  135.6467  154.1111 H   0  0  0  0  0  0  0  0  0  0  0  0  # atno 10764 bound_to 10752
  154.1033  135.2931  155.3227 H   0  0  0  0  0  0  0  0  0  0  0  0  # atno 10765 bound_to 10752
  140.0491  134.5763  155.9286 H   0  0  0  0  0  0  0  0  0  0  0  0  # atno 11005 bound_to 11000
  144.7638  140.5483  143.6717 LP  0  0  0  0  0  0  0  0  0  0  0  0  # atno 17320 bound_to 7965
  145.5375  139.1475  143.3465 LP  0  0  0  0  0  0  0  0  0  0  0  0  # atno 17321 bound_to 7965
  139.5867  144.7534  151.3503 LP  0  0  0  0  0  0  0  0  0  0  0  0  # atno 17342 bound_to 10162
  140.7150  143.7289  150.7639 LP  0  0  0  0  0  0  0  0  0  0  0  0  # atno 17343 bound_to 10162
  157.7489  131.0066  150.3157 LP  0  0  0  0  0  0  0  0  0  0  0  0  # atno 17370 bound_to 10713
  156.3586  130.3843  149.7270 LP  0  0  0  0  0  0  0  0  0  0  0  0  # atno 17371 bound_to 10713
  141.1921  133.6574  156.5488 LP  0  0  0  0  0  0  0  0  0  0  0  0  # atno 17394 bound_to 11000
  140.3946  134.7410  157.4743 LP  0  0  0  0  0  0  0  0  0  0  0  0  # atno 17395 bound_to 11000

$$$$
