AV-unprocessed.smi:2778|AV-procd|sdf|10710|dock1
  -GOLD-   2272015143D 1   1.00000     0.00000
 Structure written by MMmdl.
 37 38  0  0  0  0  0  0  0  0  1 V2000
  146.4819  142.5172  153.8196 C   0  0  0  0  0  0  0  0  0  0  0  0
  147.7950  142.4019  154.3474 O   0  0  0  0  0  0  0  0  0  0  0  0
  148.3684  141.1464  154.4053 C   0  0  0  0  0  0  0  0  0  0  0  0
  147.8554  140.0164  153.7189 C   0  0  0  0  0  0  0  0  0  0  0  0
  148.5100  138.7783  153.8404 C   0  0  0  0  0  0  0  0  0  0  0  0
  149.6592  138.7108  154.6478 C   0  0  0  0  0  0  0  0  0  0  0  0
  150.4151  137.4106  154.8246 C   0  0  0  0  0  0  0  0  0  0  0  0
  150.1566  139.7778  155.3047 N   0  0  0  0  0  0  0  0  0  0  0  0
  149.5348  140.9780  155.1953 C   0  0  0  0  0  0  0  0  0  0  0  0
  149.9971  142.1501  155.8530 N   0  0  0  0  0  0  0  0  0  0  0  0
  151.0175  142.2842  156.7231 C   0  0  0  0  0  0  0  0  0  0  0  0
  151.7306  141.3629  157.1165 O   0  0  0  0  0  0  0  0  0  0  0  0
  151.2000  143.5429  157.1632 N   0  0  0  0  0  0  0  0  0  0  0  0
  152.2094  144.0323  158.1061 C   0  0  0  0  0  0  0  0  0  0  0  0
  152.4437  143.0085  159.2329 C   0  0  0  0  0  0  0  0  0  0  0  0
  152.4412  143.8077  160.5366 C   0  0  0  0  0  0  0  0  0  0  0  0
  151.4935  144.9700  160.2610 C   0  0  0  0  0  0  0  0  0  0  0  0
  151.7631  145.3362  158.8009 C   0  0  0  0  0  0  0  0  0  0  0  0
  146.1741  143.5625  153.8478 H   0  0  0  0  0  0  0  0  0  0  0  0
  145.7631  141.9465  154.4090 H   0  0  0  0  0  0  0  0  0  0  0  0
  146.4398  142.1895  152.7801 H   0  0  0  0  0  0  0  0  0  0  0  0
  146.9727  140.0735  153.1003 H   0  0  0  0  0  0  0  0  0  0  0  0
  148.1360  137.9060  153.3249 H   0  0  0  0  0  0  0  0  0  0  0  0
  149.9068  136.5857  154.3243 H   0  0  0  0  0  0  0  0  0  0  0  0
  150.5033  137.1629  155.8829 H   0  0  0  0  0  0  0  0  0  0  0  0
  151.4184  137.4967  154.4068 H   0  0  0  0  0  0  0  0  0  0  0  0
  149.4865  142.9929  155.6343 H   0  0  0  0  0  0  0  0  0  0  0  0
  150.5430  144.2332  156.8292 H   0  0  0  0  0  0  0  0  0  0  0  0
  153.1531  144.2016  157.5841 H   0  0  0  0  0  0  0  0  0  0  0  0
  151.6318  142.2801  159.2651 H   0  0  0  0  0  0  0  0  0  0  0  0
  153.3708  142.4509  159.0970 H   0  0  0  0  0  0  0  0  0  0  0  0
  152.1353  143.2094  161.3951 H   0  0  0  0  0  0  0  0  0  0  0  0
  153.4429  144.1908  160.7361 H   0  0  0  0  0  0  0  0  0  0  0  0
  150.4612  144.6352  160.3710 H   0  0  0  0  0  0  0  0  0  0  0  0
  151.6470  145.8092  160.9402 H   0  0  0  0  0  0  0  0  0  0  0  0
  152.5765  146.0618  158.7548 H   0  0  0  0  0  0  0  0  0  0  0  0
  150.8940  145.8029  158.3355 H   0  0  0  0  0  0  0  0  0  0  0  0
  1  2  1  0  0  0  0
  1 19  1  0  0  0  0
  1 20  1  0  0  0  0
  1 21  1  0  0  0  0
  2  3  1  0  0  0  0
  3  9  1  0  0  0  0
  3  4  2  0  0  0  0
  4  5  1  0  0  0  0
  4 22  1  0  0  0  0
  5  6  2  0  0  0  0
  5 23  1  0  0  0  0
  6  7  1  0  0  0  0
  6  8  1  0  0  0  0
  7 24  1  0  0  0  0
  7 25  1  0  0  0  0
  7 26  1  0  0  0  0
  8  9  2  0  0  0  0
  9 10  1  0  0  0  0
 10 11  1  0  0  0  0
 10 27  1  0  0  0  0
 11 12  2  0  0  0  0
 11 13  1  0  0  0  0
 13 14  1  0  0  0  0
 13 28  1  0  0  0  0
 14 18  1  0  0  0  0
 14 15  1  0  0  0  0
 14 29  1  0  0  0  0
 15 16  1  0  0  0  0
 15 30  1  0  0  0  0
 15 31  1  0  0  0  0
 16 17  1  0  0  0  0
 16 32  1  0  0  0  0
 16 33  1  0  0  0  0
 17 18  1  0  0  0  0
 17 34  1  0  0  0  0
 17 35  1  0  0  0  0
 18 36  1  0  0  0  0
 18 37  1  0  0  0  0
M  END
> <s_m_source_file>
AV-unprocessed.smi

> <i_m_source_file_index>
2778

> <i_lp_mmshare_version>
43012

> <i_f3d_flags>
0

> <s_epik_input>
W0NIM11PYzFbY0hdW2NIXWMoW0NIM10pbmMxW05IXUMoPU8pW05IXVtDSF0yW0NIMl1bQ0gyXVtDSDJdW0NIMl0y

> <s_epik_cmdline>
J2VwaWtfcHl0aG9uJywgJy1waCcsICc3LjAnLCAnLXRuJywgJzgnLCAnLW1hJywgJzIwMCcsICctbWV0YWxfYmluZGluZycsICctaW1hZScsICc8aW5maWxlLm1hZT4nLCAnLW9tYWUnLCAnPG91dGZpbGUubWFlPic=

> <r_lp_tautomer_probability>
1

> <r_epik_Ionization_Penalty>
6.53997e-05

> <r_epik_Ionization_Penalty_Charging>
0

> <r_epik_Ionization_Penalty_Neutral>
6.53997e-05

> <r_epik_State_Penalty>
-0

> <r_epik_Charging_Adjusted_Penalty>
0

> <i_epik_Tot_Q>
0

> <i_epik_Tot_abs_Q>
0

> <r_epik_Metal_State_Penalty>
-0

> <b_epik_Metal_Only>
0

> <s_lp_Force_Field>
OPLS_2005

> <r_lp_Energy>
34.0049

> <b_lp_Chiralities_Consistent>
1

> <s_lp_Variant>
AV-unprocessed.smi:2778-1

> <Gold.Version>
5.8.1

> <Gold.Id.Protein>
6NUR|6NUR_protein|mol2

> <Gold.PLP.Fitness>
45.3660

> <Gold.PLP.PLP>
-40.3722

> <Gold.PLP.part.hbond>
-2.0000

> <Gold.PLP.part.metal>
0.0000

> <Gold.PLP.part.buried>
-3.9386

> <Gold.PLP.part.nonpolar>
-36.4333

> <Gold.PLP.part.repulsive>
1.9246

> <Gold.PLP.ligand.clash>
0.0000

> <Gold.PLP.ligand.torsion>
0.4965

> <Gold.PLP.Chemscore.Hbond>
1.9913

> <Gold.PLP.Chemscore.CHOScore>
0.0000

> <Gold.PLP.Chemscore.Metal>
0.0000

> <Gold.Chemscore.Hbonds>
donor molecule, donor type, donor heavy atom, donor atom, acceptor molecule, acceptor atom, score
      L1  H    10    27       P1  8028  1.00
      L1  H    13    28       P1  8028  0.93

> <Gold.PLP.Chemscore.Internal.Correction>
0.0131

> <Gold.Rescore>
     Score         DG    S(hbond)    S(metal)    S(lipo)     H(rot)  DE(clash)    DE(int)     intcor
     16.38     -19.91       1.83        0.00      97.62       1.21       0.42       3.11       ----

> <Gold.Chemscore.Fitness>
16.3799

> <Gold.Chemscore.DG>
-19.9106

> <Gold.Chemscore.ZeroCoef>
-5.4800

> <Gold.Chemscore.Hbond>
1.8285

> <Gold.Chemscore.Metal>
0.0000

> <Gold.Chemscore.Lipo>
97.6228

> <Gold.Chemscore.Internal_Hbond>
0.0000

> <Gold.Chemscore.DEClash>
0.4164

> <Gold.Chemscore.DEInternal>
3.1143

> <Gold.Chemscore.Rot>
1.2103

> <Gold.Chemscore.Internal.Correction>
   9.000000E+99

> <Gold.Chemscore.Hbonds>
donor molecule, donor type, donor heavy atom, donor atom, acceptor molecule, acceptor atom, score
      L1  H    10    27       P1  8028  1.00
      L1  H    13    28       P1  8028  0.83

> <Gold.Chemscore.Hbond.Weighted>
-6.1072

> <Gold.Chemscore.Metal.Weighted>
-0.0000

> <Gold.Chemscore.Lipo.Weighted>
-11.4219

> <Gold.Chemscore.Internal_Hbond.Weighted>
0.0000

> <Gold.Chemscore.DEClash.Weighted>
0.4164

> <Gold.Chemscore.DEInternal.Weighted>
3.1143

> <Gold.Chemscore.Rot.Weighted>
3.0984

> <Gold.Chemscore.Internal.Correction.Weighted>
   9.000000E+99

> <Gold.Protein.RotatedTorsions>
[ 6907 6896 6895 6894 ] final  115.78 input  -60.11 | X-H torsion
[ 7974 7965 7964 7962 ] final  153.35 input  175.53 | X-H torsion
[ 8008 7997 7996 7995 ] final   -9.90 input   59.86 | X-H torsion
[ 10167 10162 10161 10158 ] final  145.20 input  -65.29 | X-H torsion
[ 10718 10713 10712 10709 ] final  163.81 input   66.30 | X-H torsion
[ 10763 10752 10751 10750 ] final  -81.63 input  -60.55 | X-H torsion
[ 11005 11000 10999 10996 ] final -147.27 input  -57.11 | X-H torsion

> <Gold.Protein.ActiveResidues>
 VAL166  LYS551  ARG553  GLY616  TRP617  ASP618  TYR619  PRO620  LYS621  CYS622 
 ASP623  PHE694  ASN695  SER759  ASP760  ASP761  ALA762  ILE779  LEU786  VAL792 
 PHE793  MET794  SER795  GLU796  ALA797  LYS798  CYS799  TRP800  GLU811  SER814 

> <Gold.Protein.RotatedAtoms>
  152.4720  133.8051  159.6973 H   0  0  0  0  0  0  0  0  0  0  0  0  # atno 6907 bound_to 6896
  150.8714  133.7490  159.2966 H   0  0  0  0  0  0  0  0  0  0  0  0  # atno 6908 bound_to 6896
  151.5024  135.1065  159.9884 H   0  0  0  0  0  0  0  0  0  0  0  0  # atno 6909 bound_to 6896
  144.8160  139.6789  143.6121 H   0  0  0  0  0  0  0  0  0  0  0  0  # atno 7974 bound_to 7965
  154.5604  140.2343  155.8344 H   0  0  0  0  0  0  0  0  0  0  0  0  # atno 8008 bound_to 7997
  156.2024  140.3049  155.9515 H   0  0  0  0  0  0  0  0  0  0  0  0  # atno 8009 bound_to 7997
  155.2900  140.0426  157.3013 H   0  0  0  0  0  0  0  0  0  0  0  0  # atno 8010 bound_to 7997
  139.4931  144.5918  151.6665 H   0  0  0  0  0  0  0  0  0  0  0  0  # atno 10167 bound_to 10162
  157.1032  131.0448  151.2489 H   0  0  0  0  0  0  0  0  0  0  0  0  # atno 10718 bound_to 10713
  154.5659  135.5619  153.7050 H   0  0  0  0  0  0  0  0  0  0  0  0  # atno 10763 bound_to 10752
  153.0032  135.6285  154.2181 H   0  0  0  0  0  0  0  0  0  0  0  0  # atno 10764 bound_to 10752
  154.2120  135.2873  155.2935 H   0  0  0  0  0  0  0  0  0  0  0  0  # atno 10765 bound_to 10752
  140.7734  134.3163  157.5068 H   0  0  0  0  0  0  0  0  0  0  0  0  # atno 11005 bound_to 11000
  146.2463  139.6105  142.9457 LP  0  0  0  0  0  0  0  0  0  0  0  0  # atno 17320 bound_to 7965
  145.5213  141.0432  143.2434 LP  0  0  0  0  0  0  0  0  0  0  0  0  # atno 17321 bound_to 7965
  140.5547  144.0368  150.6142 LP  0  0  0  0  0  0  0  0  0  0  0  0  # atno 17342 bound_to 10162
  140.3434  143.3006  152.0564 LP  0  0  0  0  0  0  0  0  0  0  0  0  # atno 17343 bound_to 10162
  157.4623  130.7660  149.7247 LP  0  0  0  0  0  0  0  0  0  0  0  0  # atno 17370 bound_to 10713
  155.9868  130.3971  150.3193 LP  0  0  0  0  0  0  0  0  0  0  0  0  # atno 17371 bound_to 10713
  139.8752  134.9274  156.3425 LP  0  0  0  0  0  0  0  0  0  0  0  0  # atno 17394 bound_to 11000
  140.9552  133.7424  156.0326 LP  0  0  0  0  0  0  0  0  0  0  0  0  # atno 17395 bound_to 11000

$$$$
