AV-unprocessed.smi:2902|AV-procd|sdf|11153|dock6
  -GOLD-   2272016 33D 1   1.00000     0.00000
 Structure written by MMmdl.
 47 48  0  0  0  0  0  0  0  0  1 V2000
  142.9589  136.7839  154.4123 C   0  0  0  0  0  0  0  0  0  0  0  0
  142.8136  137.1738  152.9361 C   0  0  0  0  0  0  0  0  0  0  0  0
  143.8364  136.4637  152.0297 C   0  0  2  0  0  0  0  0  0  0  0  0
  143.7250  135.0583  152.2562 O   0  0  0  0  0  0  0  0  0  0  0  0
  144.1962  134.1994  151.2199 C   0  0  0  0  0  0  0  0  0  0  0  0
  143.3353  132.9474  151.0261 C   0  0  0  0  0  0  0  0  0  0  0  0
  144.2787  131.8989  150.4231 C   0  0  0  0  0  0  0  0  0  0  0  0
  145.7077  132.3760  150.7256 C   0  0  0  0  0  0  0  0  0  0  0  0
  145.5620  133.6280  151.5948 C   0  0  0  0  0  0  0  0  0  0  0  0
  145.2652  136.9413  152.3301 C   0  0  0  0  0  0  0  0  0  0  0  0
  146.1240  136.1383  152.6950 O   0  0  0  0  0  0  0  0  0  0  0  0
  145.4953  138.2547  152.1716 N   0  0  0  0  0  0  0  0  0  0  0  0
  146.7588  138.9462  152.4298 C   0  0  1  0  0  0  0  0  0  0  0  0
  146.5647  140.4274  152.0655 C   0  0  0  0  0  0  0  0  0  0  0  0
  147.2016  138.7316  153.9039 C   0  0  2  0  0  0  0  0  0  0  0  0
  146.0556  138.9234  154.9164 C   0  0  0  0  0  0  0  0  0  0  0  0
  148.3264  139.5934  154.2520 N   0  0  0  0  0  0  0  0  0  0  0  0
  149.6192  139.3009  154.4086 C   0  0  0  0  0  0  0  0  0  0  0  0
  150.3800  140.3524  154.6780 N   0  0  0  0  0  0  0  0  0  0  0  0
  149.4271  141.3312  154.6689 C   0  0  0  0  0  0  0  0  0  0  0  0
  148.1811  140.9312  154.4163 N   0  0  0  0  0  0  0  0  0  0  0  0
  142.2155  137.2960  155.0234 H   0  0  0  0  0  0  0  0  0  0  0  0
  143.9441  137.0493  154.7962 H   0  0  0  0  0  0  0  0  0  0  0  0
  142.8222  135.7114  154.5517 H   0  0  0  0  0  0  0  0  0  0  0  0
  141.8007  136.9305  152.6106 H   0  0  0  0  0  0  0  0  0  0  0  0
  142.9148  138.2556  152.8379 H   0  0  0  0  0  0  0  0  0  0  0  0
  143.5906  136.6958  150.9922 H   0  0  0  0  0  0  0  0  0  0  0  0
  144.2968  134.7299  150.2719 H   0  0  0  0  0  0  0  0  0  0  0  0
  142.9769  132.5964  151.9949 H   0  0  0  0  0  0  0  0  0  0  0  0
  142.4634  133.1311  150.3977 H   0  0  0  0  0  0  0  0  0  0  0  0
  144.0853  130.9117  150.8441 H   0  0  0  0  0  0  0  0  0  0  0  0
  144.1316  131.8277  149.3446 H   0  0  0  0  0  0  0  0  0  0  0  0
  146.3021  131.6082  151.2219 H   0  0  0  0  0  0  0  0  0  0  0  0
  146.2140  132.6294  149.7934 H   0  0  0  0  0  0  0  0  0  0  0  0
  146.3722  134.3420  151.4446 H   0  0  0  0  0  0  0  0  0  0  0  0
  145.5647  133.3408  152.6474 H   0  0  0  0  0  0  0  0  0  0  0  0
  144.7247  138.8276  151.8595 H   0  0  0  0  0  0  0  0  0  0  0  0
  147.5353  138.5524  151.7715 H   0  0  0  0  0  0  0  0  0  0  0  0
  147.5019  140.9811  152.1157 H   0  0  0  0  0  0  0  0  0  0  0  0
  145.8518  140.9120  152.7334 H   0  0  0  0  0  0  0  0  0  0  0  0
  146.1888  140.5321  151.0469 H   0  0  0  0  0  0  0  0  0  0  0  0
  147.5523  137.7032  154.0051 H   0  0  0  0  0  0  0  0  0  0  0  0
  145.2806  138.1670  154.7946 H   0  0  0  0  0  0  0  0  0  0  0  0
  145.5860  139.9019  154.8103 H   0  0  0  0  0  0  0  0  0  0  0  0
  146.4218  138.8403  155.9401 H   0  0  0  0  0  0  0  0  0  0  0  0
  150.0142  138.3004  154.3110 H   0  0  0  0  0  0  0  0  0  0  0  0
  149.6590  142.3702  154.8516 H   0  0  0  0  0  0  0  0  0  0  0  0
  1  2  1  0  0  0  0
  1 22  1  0  0  0  0
  1 23  1  0  0  0  0
  1 24  1  0  0  0  0
  2  3  1  0  0  0  0
  2 25  1  0  0  0  0
  2 26  1  0  0  0  0
  3  4  1  0  0  0  0
  3 10  1  0  0  0  0
  3 27  1  0  0  0  0
  4  5  1  0  0  0  0
  5  9  1  0  0  0  0
  5  6  1  0  0  0  0
  5 28  1  0  0  0  0
  6  7  1  0  0  0  0
  6 29  1  0  0  0  0
  6 30  1  0  0  0  0
  7  8  1  0  0  0  0
  7 31  1  0  0  0  0
  7 32  1  0  0  0  0
  8  9  1  0  0  0  0
  8 33  1  0  0  0  0
  8 34  1  0  0  0  0
  9 35  1  0  0  0  0
  9 36  1  0  0  0  0
 10 11  2  0  0  0  0
 10 12  1  0  0  0  0
 12 13  1  0  0  0  0
 12 37  1  0  0  0  0
 13 14  1  0  0  0  0
 13 15  1  0  0  0  0
 13 38  1  0  0  0  0
 14 39  1  0  0  0  0
 14 40  1  0  0  0  0
 14 41  1  0  0  0  0
 15 16  1  0  0  0  0
 15 17  1  0  0  0  0
 15 42  1  0  0  0  0
 16 43  1  0  0  0  0
 16 44  1  0  0  0  0
 16 45  1  0  0  0  0
 17 21  1  0  0  0  0
 17 18  1  0  0  0  0
 18 19  2  0  0  0  0
 18 46  1  0  0  0  0
 19 20  1  0  0  0  0
 20 21  2  0  0  0  0
 20 47  1  0  0  0  0
M  END
> <s_m_source_file>
AV-unprocessed.smi

> <i_m_source_file_index>
2902

> <i_lp_mmshare_version>
43012

> <i_f3d_flags>
0

> <s_epik_input>
W0NIMl0xW0NIMl1bQ0gyXVtDSDJdW0NIXTFPW0NAQEhdKFtDSDJdW0NIM10pQyg9TylbTkhdW0NASF0oW0NIM10pW0NASF0oW0NIM10pbjJbY0hdbltjSF1uMg==

> <s_epik_cmdline>
J2VwaWtfcHl0aG9uJywgJy1waCcsICc3LjAnLCAnLXRuJywgJzgnLCAnLW1hJywgJzIwMCcsICctbWV0YWxfYmluZGluZycsICctaW1hZScsICc8aW5maWxlLm1hZT4nLCAnLW9tYWUnLCAnPG91dGZpbGUubWFlPic=

> <r_lp_tautomer_probability>
1

> <r_epik_Ionization_Penalty>
6.95617e-05

> <r_epik_Ionization_Penalty_Charging>
0

> <r_epik_Ionization_Penalty_Neutral>
6.95617e-05

> <r_epik_State_Penalty>
-0

> <r_epik_Charging_Adjusted_Penalty>
0

> <i_epik_Tot_Q>
0

> <i_epik_Tot_abs_Q>
0

> <r_epik_Metal_State_Penalty>
-0

> <b_epik_Metal_Only>
0

> <s_lp_Force_Field>
OPLS_2005

> <r_lp_Energy>
29.2018

> <b_lp_Chiralities_Consistent>
1

> <s_lp_Variant>
AV-unprocessed.smi:2902-3

> <Gold.Version>
5.8.1

> <Gold.Id.Protein>
6NUR|6NUR_protein|mol2

> <Gold.PLP.Fitness>
40.5852

> <Gold.PLP.PLP>
-34.3463

> <Gold.PLP.part.hbond>
-3.0000

> <Gold.PLP.part.metal>
0.0000

> <Gold.PLP.part.buried>
-2.5353

> <Gold.PLP.part.nonpolar>
-30.5051

> <Gold.PLP.part.repulsive>
2.0340

> <Gold.PLP.ligand.clash>
0.0000

> <Gold.PLP.ligand.torsion>
1.1757

> <Gold.PLP.Chemscore.Hbond>
1.7977

> <Gold.PLP.Chemscore.CHOScore>
1.0000

> <Gold.PLP.Chemscore.Metal>
0.0000

> <Gold.Chemscore.Hbonds>
donor molecule, donor type, donor heavy atom, donor atom, acceptor molecule, acceptor atom, score
      L1  H    12    37       P1 10175  0.82
      P1  H  7989  7998       L1    19  1.00
      L1  C    20    47       P1  8028  0.84

> <Gold.PLP.Chemscore.Internal.Correction>
0.1973

> <Gold.Rescore>
     Score         DG    S(hbond)    S(metal)    S(lipo)     H(rot)  DE(clash)    DE(int)     intcor
      7.01     -12.65       1.76        0.00      69.98       2.69       1.89       3.75       ----

> <Gold.Chemscore.Fitness>
7.0060

> <Gold.Chemscore.DG>
-12.6459

> <Gold.Chemscore.ZeroCoef>
-5.4800

> <Gold.Chemscore.Hbond>
1.7586

> <Gold.Chemscore.Metal>
0.0000

> <Gold.Chemscore.Lipo>
69.9803

> <Gold.Chemscore.Internal_Hbond>
0.0000

> <Gold.Chemscore.DEClash>
1.8927

> <Gold.Chemscore.DEInternal>
3.7473

> <Gold.Chemscore.Rot>
2.6935

> <Gold.Chemscore.Internal.Correction>
   9.000000E+99

> <Gold.Chemscore.Hbonds>
donor molecule, donor type, donor heavy atom, donor atom, acceptor molecule, acceptor atom, score
      L1  H    12    37       P1 10175  0.75
      P1  H  7989  7998       L1    19  0.47

> <Gold.Chemscore.Hbond.Weighted>
-5.8736

> <Gold.Chemscore.Metal.Weighted>
-0.0000

> <Gold.Chemscore.Lipo.Weighted>
-8.1877

> <Gold.Chemscore.Internal_Hbond.Weighted>
0.0000

> <Gold.Chemscore.DEClash.Weighted>
1.8927

> <Gold.Chemscore.DEInternal.Weighted>
3.7473

> <Gold.Chemscore.Rot.Weighted>
6.8954

> <Gold.Chemscore.Internal.Correction.Weighted>
   9.000000E+99

> <Gold.Protein.RotatedTorsions>
[ 6907 6896 6895 6894 ] final -105.27 input  -60.11 | X-H torsion
[ 7974 7965 7964 7962 ] final -141.95 input  175.53 | X-H torsion
[ 8008 7997 7996 7995 ] final   36.29 input   59.86 | X-H torsion
[ 10167 10162 10161 10158 ] final   26.52 input  -65.29 | X-H torsion
[ 10718 10713 10712 10709 ] final  -86.98 input   66.30 | X-H torsion
[ 10763 10752 10751 10750 ] final  146.53 input  -60.55 | X-H torsion
[ 11005 11000 10999 10996 ] final  123.08 input  -57.11 | X-H torsion

> <Gold.Protein.ActiveResidues>
 VAL166  LYS551  ARG553  GLY616  TRP617  ASP618  TYR619  PRO620  LYS621  CYS622 
 ASP623  PHE694  ASN695  SER759  ASP760  ASP761  ALA762  ILE779  LEU786  VAL792 
 PHE793  MET794  SER795  GLU796  ALA797  LYS798  CYS799  TRP800  GLU811  SER814 

> <Gold.Protein.RotatedAtoms>
  150.7328  134.0152  159.3682 H   0  0  0  0  0  0  0  0  0  0  0  0  # atno 6907 bound_to 6896
  151.8114  135.0677  160.0422 H   0  0  0  0  0  0  0  0  0  0  0  0  # atno 6908 bound_to 6896
  152.3070  133.5677  159.5692 H   0  0  0  0  0  0  0  0  0  0  0  0  # atno 6909 bound_to 6896
  144.8480  140.6017  143.5409 H   0  0  0  0  0  0  0  0  0  0  0  0  # atno 7974 bound_to 7965
  155.1849  140.3303  155.4368 H   0  0  0  0  0  0  0  0  0  0  0  0  # atno 8008 bound_to 7997
  156.2463  140.1920  156.6895 H   0  0  0  0  0  0  0  0  0  0  0  0  # atno 8009 bound_to 7997
  154.6245  140.0591  156.9643 H   0  0  0  0  0  0  0  0  0  0  0  0  # atno 8010 bound_to 7997
  140.5015  144.0307  150.6335 H   0  0  0  0  0  0  0  0  0  0  0  0  # atno 10167 bound_to 10162
  155.9987  130.4784  150.4797 H   0  0  0  0  0  0  0  0  0  0  0  0  # atno 10718 bound_to 10713
  154.0235  135.2904  155.3378 H   0  0  0  0  0  0  0  0  0  0  0  0  # atno 10763 bound_to 10752
  154.7032  135.5180  153.8560 H   0  0  0  0  0  0  0  0  0  0  0  0  # atno 10764 bound_to 10752
  153.0671  135.6634  154.0454 H   0  0  0  0  0  0  0  0  0  0  0  0  # atno 10765 bound_to 10752
  139.9296  134.9641  156.8205 H   0  0  0  0  0  0  0  0  0  0  0  0  # atno 11005 bound_to 11000
  145.4558  139.1518  143.3893 LP  0  0  0  0  0  0  0  0  0  0  0  0  # atno 17320 bound_to 7965
  146.2761  140.4685  142.8795 LP  0  0  0  0  0  0  0  0  0  0  0  0  # atno 17321 bound_to 7965
  140.3604  143.2911  152.0390 LP  0  0  0  0  0  0  0  0  0  0  0  0  # atno 17342 bound_to 10162
  139.4873  144.6307  151.7075 LP  0  0  0  0  0  0  0  0  0  0  0  0  # atno 17343 bound_to 10162
  157.2803  131.0605  151.2202 LP  0  0  0  0  0  0  0  0  0  0  0  0  # atno 17370 bound_to 10713
  157.3250  130.6956  149.6291 LP  0  0  0  0  0  0  0  0  0  0  0  0  # atno 17371 bound_to 10713
  140.6238  133.9969  155.7630 LP  0  0  0  0  0  0  0  0  0  0  0  0  # atno 17394 bound_to 11000
  141.0877  133.9965  157.3287 LP  0  0  0  0  0  0  0  0  0  0  0  0  # atno 17395 bound_to 11000

$$$$
