AV-unprocessed.smi:1106|AV-procd|sdf|4780|dock10
  -GOLD-   22720 3323D 1   1.00000     0.00000
 Structure written by MMmdl.
 48 49  0  0  0  0  0  0  0  0  2 V2000
  144.3032  131.8182  150.2420 C   0  0  0  0  0  0  0  0  0  0  0  0
  145.4302  132.8156  149.9353 C   0  0  0  0  0  0  0  0  0  0  0  0
  145.9953  133.4056  151.1208 N   0  0  0  0  0  0  0  0  0  0  0  0
  146.7971  132.6807  151.9810 C   0  0  0  0  0  0  0  0  0  0  0  0
  147.3365  133.2096  153.1005 C   0  0  0  0  0  0  0  0  0  0  0  0
  148.1669  132.4420  153.9683 C   0  0  0  0  0  0  0  0  0  0  0  0
  148.8393  131.8011  154.6588 N   0  0  0  0  0  0  0  0  0  0  0  0
  147.0923  134.6017  153.4719 C   0  0  0  0  0  0  0  0  0  0  0  0
  147.5840  135.1417  154.4651 O   0  0  0  0  0  0  0  0  0  0  0  0
  146.2449  135.3082  152.5812 N   0  0  0  0  0  0  0  0  0  0  0  0
  145.9622  136.7024  152.8838 C   0  0  0  0  0  0  0  0  0  0  0  0
  146.8837  137.6877  152.1319 C   0  0  1  0  0  0  0  0  0  0  0  0
  146.6049  137.5991  150.7482 O   0  0  0  0  0  0  0  0  0  0  0  0
  146.6145  139.1454  152.5548 C   0  0  0  0  0  0  0  0  0  0  0  0
  147.8009  139.7720  153.1912 N   0  3  2  0  0  0  0  0  0  0  0  0
  148.5078  138.8619  154.1309 C   0  0  0  0  0  0  0  0  0  0  0  0
  149.8068  139.5016  154.6522 C   0  0  0  0  0  0  0  0  0  0  0  0
  149.5593  140.8726  155.3079 C   0  0  2  0  0  0  0  0  0  0  0  0
  148.8995  140.7611  156.6934 C   0  0  0  0  0  0  0  0  0  0  0  0
  148.7622  141.7669  154.3405 C   0  0  0  0  0  0  0  0  0  0  0  0
  147.4858  141.0771  153.8255 C   0  0  0  0  0  0  0  0  0  0  0  0
  145.6921  134.7588  151.3996 C   0  0  0  0  0  0  0  0  0  0  0  0
  144.9841  135.4271  150.6414 O   0  0  0  0  0  0  0  0  0  0  0  0
  143.9268  131.3682  149.3234 H   0  0  0  0  0  0  0  0  0  0  0  0
  143.4627  132.3013  150.7407 H   0  0  0  0  0  0  0  0  0  0  0  0
  144.6565  131.0123  150.8859 H   0  0  0  0  0  0  0  0  0  0  0  0
  146.2561  132.3180  149.4254 H   0  0  0  0  0  0  0  0  0  0  0  0
  145.1058  133.6289  149.2833 H   0  0  0  0  0  0  0  0  0  0  0  0
  147.0044  131.6460  151.7480 H   0  0  0  0  0  0  0  0  0  0  0  0
  144.9028  136.8995  152.7107 H   0  0  0  0  0  0  0  0  0  0  0  0
  146.0756  136.8049  153.9646 H   0  0  0  0  0  0  0  0  0  0  0  0
  147.9281  137.4286  152.3045 H   0  0  0  0  0  0  0  0  0  0  0  0
  145.9108  138.2067  150.5394 H   0  0  0  0  0  0  0  0  0  0  0  0
  146.3147  139.7133  151.6721 H   0  0  0  0  0  0  0  0  0  0  0  0
  145.7713  139.1985  153.2455 H   0  0  0  0  0  0  0  0  0  0  0  0
  147.8489  138.6093  154.9628 H   0  0  0  0  0  0  0  0  0  0  0  0
  148.7519  137.9230  153.6348 H   0  0  0  0  0  0  0  0  0  0  0  0
  150.2997  138.8292  155.3553 H   0  0  0  0  0  0  0  0  0  0  0  0
  150.4986  139.6245  153.8176 H   0  0  0  0  0  0  0  0  0  0  0  0
  150.5313  141.3418  155.4664 H   0  0  0  0  0  0  0  0  0  0  0  0
  147.9094  140.3086  156.6437 H   0  0  0  0  0  0  0  0  0  0  0  0
  148.7894  141.7441  157.1521 H   0  0  0  0  0  0  0  0  0  0  0  0
  149.5057  140.1543  157.3667 H   0  0  0  0  0  0  0  0  0  0  0  0
  148.5098  142.7132  154.8204 H   0  0  0  0  0  0  0  0  0  0  0  0
  149.3941  142.0202  153.4881 H   0  0  0  0  0  0  0  0  0  0  0  0
  147.0021  141.7296  153.0975 H   0  0  0  0  0  0  0  0  0  0  0  0
  146.7723  140.9289  154.6372 H   0  0  0  0  0  0  0  0  0  0  0  0
  148.4425  139.9781  152.4384 H   0  0  0  0  0  0  0  0  0  0  0  0
  1  2  1  0  0  0  0
  1 24  1  0  0  0  0
  1 25  1  0  0  0  0
  1 26  1  0  0  0  0
  2  3  1  0  0  0  0
  2 27  1  0  0  0  0
  2 28  1  0  0  0  0
  3 22  1  0  0  0  0
  3  4  1  0  0  0  0
  4  5  2  0  0  0  0
  4 29  1  0  0  0  0
  5  6  1  0  0  0  0
  5  8  1  0  0  0  0
  6  7  3  0  0  0  0
  8  9  2  0  0  0  0
  8 10  1  0  0  0  0
 10 11  1  0  0  0  0
 10 22  1  0  0  0  0
 11 12  1  0  0  0  0
 11 30  1  0  0  0  0
 11 31  1  0  0  0  0
 12 13  1  0  0  0  0
 12 14  1  0  0  0  0
 12 32  1  0  0  0  0
 13 33  1  0  0  0  0
 14 15  1  0  0  0  0
 14 34  1  0  0  0  0
 14 35  1  0  0  0  0
 15 21  1  0  0  0  0
 15 16  1  0  0  0  0
 15 48  1  0  0  0  0
 16 17  1  0  0  0  0
 16 36  1  0  0  0  0
 16 37  1  0  0  0  0
 17 18  1  0  0  0  0
 17 38  1  0  0  0  0
 17 39  1  0  0  0  0
 18 19  1  0  0  0  0
 18 20  1  0  0  0  0
 18 40  1  0  0  0  0
 19 41  1  0  0  0  0
 19 42  1  0  0  0  0
 19 43  1  0  0  0  0
 20 21  1  0  0  0  0
 20 44  1  0  0  0  0
 20 45  1  0  0  0  0
 21 46  1  0  0  0  0
 21 47  1  0  0  0  0
 22 23  2  0  0  0  0
M  CHG  1  15   1
M  END
> <s_m_source_file>
AV-unprocessed.smi

> <i_m_source_file_index>
1106

> <i_lp_mmshare_version>
43012

> <i_f3d_flags>
0

> <s_epik_input>
W0NIM11bQ0gyXW4xW2NIXWMoQyNOKWMoPU8pbihjMT1PKVtDSDJdW0NASF0oW09IXSlbQ0gyXU4yW0NIMl1bQ0gyXVtDSF0oW0NIM10pW0NIMl1bQ0gyXTI=

> <s_epik_cmdline>
J2VwaWtfcHl0aG9uJywgJy1waCcsICc3LjAnLCAnLXRuJywgJzgnLCAnLW1hJywgJzIwMCcsICctbWV0YWxfYmluZGluZycsICctaW1hZScsICc8aW5maWxlLm1hZT4nLCAnLW9tYWUnLCAnPG91dGZpbGUubWFlPic=

> <r_epik_Ionization_Penalty>
0.00136816

> <r_epik_Ionization_Penalty_Charging>
0.00136813

> <r_epik_Ionization_Penalty_Neutral>
3.19882e-08

> <r_epik_State_Penalty>
0.000910892

> <r_epik_Charging_Adjusted_Penalty>
0.00227902

> <i_epik_Tot_Q>
1

> <i_epik_Tot_abs_Q>
1

> <r_epik_Metal_State_Penalty>
-0

> <b_epik_Metal_Only>
0

> <s_lp_Force_Field>
OPLS_2005

> <r_lp_Energy>
30.5318

> <b_lp_Chiralities_Consistent>
1

> <s_lp_Variant>
AV-unprocessed.smi:1106-4

> <Gold.Version>
5.8.1

> <Gold.Id.Protein>
6NUR|6NUR_protein|mol2

> <Gold.PLP.Fitness>
45.2432

> <Gold.PLP.PLP>
-36.4989

> <Gold.PLP.part.hbond>
-3.9959

> <Gold.PLP.part.metal>
0.0000

> <Gold.PLP.part.buried>
4.8999

> <Gold.PLP.part.nonpolar>
-37.9930

> <Gold.PLP.part.repulsive>
1.1188

> <Gold.PLP.ligand.clash>
0.0000

> <Gold.PLP.ligand.torsion>
1.3284

> <Gold.PLP.Chemscore.Hbond>
3.0000

> <Gold.PLP.Chemscore.CHOScore>
0.7862

> <Gold.PLP.Chemscore.Metal>
0.0000

> <Gold.Chemscore.Hbonds>
donor molecule, donor type, donor heavy atom, donor atom, acceptor molecule, acceptor atom, score
      L1  H    13    33       P1 10171  0.62
      L1  H    15    48       P1  7957  1.00
      P1  H  7954  7966       L1    13  1.00
      L1  C     4    29       P1 10747  0.76

> <Gold.PLP.Chemscore.Internal.Correction>
0.0425

> <Gold.Rescore>
     Score         DG    S(hbond)    S(metal)    S(lipo)     H(rot)  DE(clash)    DE(int)     intcor
     11.64     -16.14       2.15        0.00      83.97       2.48       1.84       2.66       ----

> <Gold.Chemscore.Fitness>
11.6363

> <Gold.Chemscore.DG>
-16.1370

> <Gold.Chemscore.ZeroCoef>
-5.4800

> <Gold.Chemscore.Hbond>
2.1530

> <Gold.Chemscore.Metal>
0.0000

> <Gold.Chemscore.Lipo>
83.9684

> <Gold.Chemscore.Internal_Hbond>
0.0000

> <Gold.Chemscore.DEClash>
1.8366

> <Gold.Chemscore.DEInternal>
2.6641

> <Gold.Chemscore.Rot>
2.4838

> <Gold.Chemscore.Internal.Correction>
   9.000000E+99

> <Gold.Chemscore.Hbonds>
donor molecule, donor type, donor heavy atom, donor atom, acceptor molecule, acceptor atom, score
      L1  H    13    33       P1 10171  0.59
      L1  H    15    48       P1  7957  1.00
      P1  H  7954  7966       L1    13  0.55

> <Gold.Chemscore.Hbond.Weighted>
-7.1912

> <Gold.Chemscore.Metal.Weighted>
-0.0000

> <Gold.Chemscore.Lipo.Weighted>
-9.8243

> <Gold.Chemscore.Internal_Hbond.Weighted>
0.0000

> <Gold.Chemscore.DEClash.Weighted>
1.8366

> <Gold.Chemscore.DEInternal.Weighted>
2.6641

> <Gold.Chemscore.Rot.Weighted>
6.3585

> <Gold.Chemscore.Internal.Correction.Weighted>
   9.000000E+99

> <Gold.Protein.RotatedTorsions>
[ 6907 6896 6895 6894 ] final -113.28 input  -60.11 | X-H torsion
[ 7974 7965 7964 7962 ] final   21.82 input  175.53 | X-H torsion
[ 8008 7997 7996 7995 ] final -147.02 input   59.86 | X-H torsion
[ 10167 10162 10161 10158 ] final  125.87 input  -65.29 | X-H torsion
[ 10718 10713 10712 10709 ] final  -56.09 input   66.30 | X-H torsion
[ 10763 10752 10751 10750 ] final  116.93 input  -60.55 | X-H torsion
[ 11005 11000 10999 10996 ] final -106.55 input  -57.11 | X-H torsion

> <Gold.Protein.ActiveResidues>
 VAL166  LYS551  ARG553  GLY616  TRP617  ASP618  TYR619  PRO620  LYS621  CYS622 
 ASP623  PHE694  ASN695  SER759  ASP760  ASP761  ALA762  ILE779  LEU786  VAL792 
 PHE793  MET794  SER795  GLU796  ALA797  LYS798  CYS799  TRP800  GLU811  SER814 

> <Gold.Protein.RotatedAtoms>
  150.7818  133.8967  159.3329 H   0  0  0  0  0  0  0  0  0  0  0  0  # atno 6907 bound_to 6896
  151.6828  135.0957  160.0228 H   0  0  0  0  0  0  0  0  0  0  0  0  # atno 6908 bound_to 6896
  152.3871  133.6588  159.6243 H   0  0  0  0  0  0  0  0  0  0  0  0  # atno 6909 bound_to 6896
  146.2055  139.7973  142.8729 H   0  0  0  0  0  0  0  0  0  0  0  0  # atno 7974 bound_to 7965
  155.5687  140.0632  157.2811 H   0  0  0  0  0  0  0  0  0  0  0  0  # atno 8008 bound_to 7997
  154.4367  140.1872  156.0903 H   0  0  0  0  0  0  0  0  0  0  0  0  # atno 8009 bound_to 7997
  156.0392  140.3297  155.7229 H   0  0  0  0  0  0  0  0  0  0  0  0  # atno 8010 bound_to 7997
  139.5662  144.6912  151.3905 H   0  0  0  0  0  0  0  0  0  0  0  0  # atno 10167 bound_to 10162
  156.1316  130.4159  150.0259 H   0  0  0  0  0  0  0  0  0  0  0  0  # atno 10718 bound_to 10713
  153.5447  135.3551  155.2734 H   0  0  0  0  0  0  0  0  0  0  0  0  # atno 10763 bound_to 10752
  154.8713  135.4099  154.3004 H   0  0  0  0  0  0  0  0  0  0  0  0  # atno 10764 bound_to 10752
  153.3718  135.7064  153.6700 H   0  0  0  0  0  0  0  0  0  0  0  0  # atno 10765 bound_to 10752
  141.0999  133.8903  157.1869 H   0  0  0  0  0  0  0  0  0  0  0  0  # atno 11005 bound_to 11000
  145.3334  141.0271  143.3433 LP  0  0  0  0  0  0  0  0  0  0  0  0  # atno 17320 bound_to 7965
  144.8783  139.4940  143.6735 LP  0  0  0  0  0  0  0  0  0  0  0  0  # atno 17321 bound_to 7965
  140.6945  143.7782  150.7305 LP  0  0  0  0  0  0  0  0  0  0  0  0  # atno 17342 bound_to 10162
  140.1274  143.4557  152.2275 LP  0  0  0  0  0  0  0  0  0  0  0  0  # atno 17343 bound_to 10162
  156.8170  130.9345  151.3642 LP  0  0  0  0  0  0  0  0  0  0  0  0  # atno 17370 bound_to 10713
  157.6493  130.8871  149.9601 LP  0  0  0  0  0  0  0  0  0  0  0  0  # atno 17371 bound_to 10713
  139.9847  135.0086  156.9833 LP  0  0  0  0  0  0  0  0  0  0  0  0  # atno 17394 bound_to 11000
  140.5048  134.1061  155.7258 LP  0  0  0  0  0  0  0  0  0  0  0  0  # atno 17395 bound_to 11000

$$$$
