AV-unprocessed.smi:2550|AV-procd|sdf|10011|dock9
  -GOLD-   2272014 53D 1   1.00000     0.00000
 Structure written by MMmdl.
 28 29  0  0  0  0  0  0  0  0  2 V2000
  147.7286  129.3010  153.9207 C   0  0  0  0  0  0  0  0  0  0  0  0
  146.6880  129.0889  152.8092 C   0  0  0  0  0  0  0  0  0  0  0  0
  147.2668  128.3119  151.6157 C   0  0  0  0  0  0  0  0  0  0  0  0
  145.6498  128.2983  153.3577 O   0  0  0  0  0  0  0  0  0  0  0  0
  146.0597  130.3919  152.3758 C   0  0  0  0  0  0  0  0  0  0  0  0
  145.1004  130.6426  151.4319 C   0  0  0  0  0  0  0  0  0  0  0  0
  144.9297  132.0086  151.4983 N   0  0  0  0  0  0  0  0  0  0  0  0
  144.0906  132.8273  150.6755 C   0  0  0  0  0  0  0  0  0  0  0  0
  144.1944  132.7926  149.1506 C   0  0  0  0  0  0  0  0  0  0  0  0
  143.8674  134.2130  149.1579 N   0  3  0  0  0  0  0  0  0  0  0  0
  144.3674  134.3214  150.5228 C   0  0  0  0  0  0  0  0  0  0  0  0
  145.7710  132.5731  152.3943 N   0  0  0  0  0  0  0  0  0  0  0  0
  146.4408  131.6103  152.9440 N   0  0  0  0  0  0  0  0  0  0  0  0
  148.5631  129.9086  153.5687 H   0  0  0  0  0  0  0  0  0  0  0  0
  148.1388  128.3525  154.2690 H   0  0  0  0  0  0  0  0  0  0  0  0
  147.2923  129.8092  154.7815 H   0  0  0  0  0  0  0  0  0  0  0  0
  148.0693  128.8705  151.1329 H   0  0  0  0  0  0  0  0  0  0  0  0
  146.5033  128.1156  150.8618 H   0  0  0  0  0  0  0  0  0  0  0  0
  147.6783  127.3515  151.9279 H   0  0  0  0  0  0  0  0  0  0  0  0
  145.0353  128.8707  153.7911 H   0  0  0  0  0  0  0  0  0  0  0  0
  144.5545  129.9992  150.7575 H   0  0  0  0  0  0  0  0  0  0  0  0
  143.0636  132.6506  151.0030 H   0  0  0  0  0  0  0  0  0  0  0  0
  145.2056  132.6068  148.7829 H   0  0  0  0  0  0  0  0  0  0  0  0
  143.4533  132.1671  148.6522 H   0  0  0  0  0  0  0  0  0  0  0  0
  144.3865  134.7587  148.4848 H   0  0  0  0  0  0  0  0  0  0  0  0
  143.7703  134.9684  151.1661 H   0  0  0  0  0  0  0  0  0  0  0  0
  145.4288  134.5755  150.5537 H   0  0  0  0  0  0  0  0  0  0  0  0
  142.8693  134.3628  149.1167 H   0  0  0  0  0  0  0  0  0  0  0  0
  1  2  1  0  0  0  0
  1 14  1  0  0  0  0
  1 15  1  0  0  0  0
  1 16  1  0  0  0  0
  2  3  1  0  0  0  0
  2  4  1  0  0  0  0
  2  5  1  0  0  0  0
  3 17  1  0  0  0  0
  3 18  1  0  0  0  0
  3 19  1  0  0  0  0
  4 20  1  0  0  0  0
  5 13  1  0  0  0  0
  5  6  2  0  0  0  0
  6  7  1  0  0  0  0
  6 21  1  0  0  0  0
  7  8  1  0  0  0  0
  7 12  1  0  0  0  0
  8 11  1  0  0  0  0
  8  9  1  0  0  0  0
  8 22  1  0  0  0  0
  9 10  1  0  0  0  0
  9 23  1  0  0  0  0
  9 24  1  0  0  0  0
 10 11  1  0  0  0  0
 10 25  1  0  0  0  0
 10 28  1  0  0  0  0
 11 26  1  0  0  0  0
 11 27  1  0  0  0  0
 12 13  2  0  0  0  0
M  CHG  1  10   1
M  END
> <s_m_source_file>
AV-unprocessed.smi

> <i_m_source_file_index>
2550

> <i_lp_mmshare_version>
43012

> <i_f3d_flags>
0

> <s_epik_input>
W0NIM11DKFtDSDNdKShbT0hdKWMxW2NIXW4obm4xKVtDSF0yW0NIMl1bTkhdW0NIMl0y

> <s_epik_cmdline>
J2VwaWtfcHl0aG9uJywgJy1waCcsICc3LjAnLCAnLXRuJywgJzgnLCAnLW1hJywgJzIwMCcsICctbWV0YWxfYmluZGluZycsICctaW1hZScsICc8aW5maWxlLm1hZT4nLCAnLW9tYWUnLCAnPG91dGZpbGUubWFlPic=

> <r_lp_tautomer_probability>
1

> <r_epik_Ionization_Penalty>
0.215038

> <r_epik_Ionization_Penalty_Charging>
0.215038

> <r_epik_Ionization_Penalty_Neutral>
3.71976e-07

> <r_epik_State_Penalty>
0.20523

> <r_epik_Charging_Adjusted_Penalty>
0.420268

> <i_epik_Tot_Q>
1

> <i_epik_Tot_abs_Q>
1

> <r_epik_Metal_State_Penalty>
0.20531

> <b_epik_Metal_Only>
0

> <s_lp_Force_Field>
OPLS_2005

> <r_lp_Energy>
9.80929

> <b_lp_Chiralities_Consistent>
1

> <s_lp_Variant>
AV-unprocessed.smi:2550-1

> <Gold.Version>
5.8.1

> <Gold.Id.Protein>
6NUR|6NUR_protein|mol2

> <Gold.PLP.Fitness>
39.9572

> <Gold.PLP.PLP>
-28.7511

> <Gold.PLP.part.hbond>
-3.0000

> <Gold.PLP.part.metal>
0.0000

> <Gold.PLP.part.buried>
-5.4495

> <Gold.PLP.part.nonpolar>
-20.8639

> <Gold.PLP.part.repulsive>
0.4000

> <Gold.PLP.ligand.clash>
0.0000

> <Gold.PLP.ligand.torsion>
0.3173

> <Gold.PLP.Chemscore.Hbond>
3.8393

> <Gold.PLP.Chemscore.CHOScore>
0.0000

> <Gold.PLP.Chemscore.Metal>
0.0000

> <Gold.Chemscore.Hbonds>
donor molecule, donor type, donor heavy atom, donor atom, acceptor molecule, acceptor atom, score
      L1  H     4    20       P1 10956  0.78
      L1  H    10    25       P1  7921  0.82
      L1  H    10    28       P1 10186  2.00

> <Gold.PLP.Chemscore.Internal.Correction>
0.3229

> <Gold.Rescore>
     Score         DG    S(hbond)    S(metal)    S(lipo)     H(rot)  DE(clash)    DE(int)     intcor
     18.36     -18.59       2.90        0.00      68.02       1.78       0.00       0.23       ----

> <Gold.Chemscore.Fitness>
18.3560

> <Gold.Chemscore.DG>
-18.5888

> <Gold.Chemscore.ZeroCoef>
-5.4800

> <Gold.Chemscore.Hbond>
2.9044

> <Gold.Chemscore.Metal>
0.0000

> <Gold.Chemscore.Lipo>
68.0198

> <Gold.Chemscore.Internal_Hbond>
0.0000

> <Gold.Chemscore.DEClash>
0.0033

> <Gold.Chemscore.DEInternal>
0.2295

> <Gold.Chemscore.Rot>
1.7775

> <Gold.Chemscore.Internal.Correction>
   9.000000E+99

> <Gold.Chemscore.Hbonds>
donor molecule, donor type, donor heavy atom, donor atom, acceptor molecule, acceptor atom, score
      L1  H     4    20       P1 10956  0.76
      L1  H    10    25       P1  7921  0.81
      L1  H    10    28       P1 10186  1.00

> <Gold.Chemscore.Hbond.Weighted>
-9.7008

> <Gold.Chemscore.Metal.Weighted>
-0.0000

> <Gold.Chemscore.Lipo.Weighted>
-7.9583

> <Gold.Chemscore.Internal_Hbond.Weighted>
0.0000

> <Gold.Chemscore.DEClash.Weighted>
0.0033

> <Gold.Chemscore.DEInternal.Weighted>
0.2295

> <Gold.Chemscore.Rot.Weighted>
4.5503

> <Gold.Chemscore.Internal.Correction.Weighted>
   9.000000E+99

> <Gold.Protein.RotatedTorsions>
[ 6907 6896 6895 6894 ] final   10.49 input  -60.11 | X-H torsion
[ 7974 7965 7964 7962 ] final -139.09 input  175.53 | X-H torsion
[ 8008 7997 7996 7995 ] final  174.45 input   59.86 | X-H torsion
[ 10167 10162 10161 10158 ] final  150.04 input  -65.29 | X-H torsion
[ 10718 10713 10712 10709 ] final   31.27 input   66.30 | X-H torsion
[ 10763 10752 10751 10750 ] final   54.32 input  -60.55 | X-H torsion
[ 11005 11000 10999 10996 ] final   19.20 input  -57.11 | X-H torsion

> <Gold.Protein.ActiveResidues>
 VAL166  LYS551  ARG553  GLY616  TRP617  ASP618  TYR619  PRO620  LYS621  CYS622 
 ASP623  PHE694  ASN695  SER759  ASP760  ASP761  ALA762  ILE779  LEU786  VAL792 
 PHE793  MET794  SER795  GLU796  ALA797  LYS798  CYS799  TRP800  GLU811  SER814 

> <Gold.Protein.RotatedAtoms>
  151.7391  135.0858  160.0312 H   0  0  0  0  0  0  0  0  0  0  0  0  # atno 6907 bound_to 6896
  152.3491  133.6154  159.5940 H   0  0  0  0  0  0  0  0  0  0  0  0  # atno 6908 bound_to 6896
  150.7528  133.9518  159.3529 H   0  0  0  0  0  0  0  0  0  0  0  0  # atno 6909 bound_to 6896
  144.8705  140.6359  143.5270 H   0  0  0  0  0  0  0  0  0  0  0  0  # atno 7974 bound_to 7965
  156.0973  140.1434  156.9514 H   0  0  0  0  0  0  0  0  0  0  0  0  # atno 8008 bound_to 7997
  154.4680  140.0920  156.7116 H   0  0  0  0  0  0  0  0  0  0  0  0  # atno 8009 bound_to 7997
  155.4819  140.3445  155.4343 H   0  0  0  0  0  0  0  0  0  0  0  0  # atno 8010 bound_to 7997
  139.4854  144.5553  151.7328 H   0  0  0  0  0  0  0  0  0  0  0  0  # atno 10167 bound_to 10162
  157.2703  130.7205  149.6501 H   0  0  0  0  0  0  0  0  0  0  0  0  # atno 10718 bound_to 10713
  152.9803  135.5749  154.4885 H   0  0  0  0  0  0  0  0  0  0  0  0  # atno 10763 bound_to 10752
  154.4423  135.2776  155.1841 H   0  0  0  0  0  0  0  0  0  0  0  0  # atno 10764 bound_to 10752
  154.3504  135.6210  153.5693 H   0  0  0  0  0  0  0  0  0  0  0  0  # atno 10765 bound_to 10752
  140.4163  134.1565  155.7670 H   0  0  0  0  0  0  0  0  0  0  0  0  # atno 11005 bound_to 11000
  145.4140  139.1575  143.4110 LP  0  0  0  0  0  0  0  0  0  0  0  0  # atno 17320 bound_to 7965
  146.2927  140.4245  142.8733 LP  0  0  0  0  0  0  0  0  0  0  0  0  # atno 17321 bound_to 7965
  140.5114  144.1019  150.5996 LP  0  0  0  0  0  0  0  0  0  0  0  0  # atno 17342 bound_to 10162
  140.3946  143.2735  152.0020 LP  0  0  0  0  0  0  0  0  0  0  0  0  # atno 17343 bound_to 10162
  155.9663  130.4369  150.5155 LP  0  0  0  0  0  0  0  0  0  0  0  0  # atno 17370 bound_to 10713
  157.3078  131.0658  151.2022 LP  0  0  0  0  0  0  0  0  0  0  0  0  # atno 17371 bound_to 10713
  141.1801  133.8431  157.1286 LP  0  0  0  0  0  0  0  0  0  0  0  0  # atno 17394 bound_to 11000
  140.0231  134.9936  157.0632 LP  0  0  0  0  0  0  0  0  0  0  0  0  # atno 17395 bound_to 11000

$$$$
