AV-unprocessed.smi:2104|AV-procd|sdf|8587|dock4
  -GOLD-   2272011313D 1   1.00000     0.00000
 Structure written by MMmdl.
 42 43  0  0  0  0  0  0  0  0  2 V2000
  145.5822  134.0185  162.5718 C   0  0  0  0  0  0  0  0  0  0  0  0
  146.5837  134.7380  161.7350 C   0  0  0  0  0  0  0  0  0  0  0  0
  147.1128  135.9955  161.7983 C   0  0  0  0  0  0  0  0  0  0  0  0
  148.0178  136.0232  160.7026 C   0  0  0  0  0  0  0  0  0  0  0  0
  148.7793  137.0665  160.3393 N   0  5  0  0  0  0  0  0  0  0  0  0
  149.7602  136.9073  159.4207 C   0  0  0  0  0  0  0  0  0  0  0  0
  149.8056  136.0446  158.5408 O   0  0  0  0  0  0  0  0  0  0  0  0
  150.7527  137.7995  159.5321 N   0  0  0  0  0  0  0  0  0  0  0  0
  151.9507  137.8430  158.7025 C   0  0  0  0  0  0  0  0  0  0  0  0
  152.6261  139.2139  158.8130 C   0  0  0  0  0  0  0  0  0  0  0  0
  151.6906  140.2083  158.4226 O   0  0  0  0  0  0  0  0  0  0  0  0
  152.2102  141.5299  158.3701 C   0  0  2  0  0  0  0  0  0  0  0  0
  152.6159  141.9831  159.7882 C   0  0  0  0  0  0  0  0  0  0  0  0
  153.0412  143.4586  159.8100 C   0  0  0  0  0  0  0  0  0  0  0  0
  151.9356  144.3591  159.2415 C   0  0  0  0  0  0  0  0  0  0  0  0
  151.5405  143.9182  157.8240 C   0  0  0  0  0  0  0  0  0  0  0  0
  151.1058  142.4395  157.7861 C   0  0  1  0  0  0  0  0  0  0  0  0
  150.7231  142.0208  156.3566 C   0  0  0  0  0  0  0  0  0  0  0  0
  148.0234  134.8887  160.0224 N   0  0  0  0  0  0  0  0  0  0  0  0
  147.1119  134.0562  160.6832 O   0  0  0  0  0  0  0  0  0  0  0  0
  144.7840  134.6923  162.8837 H   0  0  0  0  0  0  0  0  0  0  0  0
  146.0514  133.6117  163.4674 H   0  0  0  0  0  0  0  0  0  0  0  0
  145.1307  133.1934  162.0207 H   0  0  0  0  0  0  0  0  0  0  0  0
  146.8931  136.7715  162.5160 H   0  0  0  0  0  0  0  0  0  0  0  0
  150.6807  138.4863  160.2681 H   0  0  0  0  0  0  0  0  0  0  0  0
  152.6518  137.0614  158.9993 H   0  0  0  0  0  0  0  0  0  0  0  0
  151.6677  137.6479  157.6676 H   0  0  0  0  0  0  0  0  0  0  0  0
  152.9521  139.3840  159.8392 H   0  0  0  0  0  0  0  0  0  0  0  0
  153.5123  139.2456  158.1770 H   0  0  0  0  0  0  0  0  0  0  0  0
  153.0775  141.5723  157.7081 H   0  0  0  0  0  0  0  0  0  0  0  0
  151.7778  141.8379  160.4710 H   0  0  0  0  0  0  0  0  0  0  0  0
  153.4318  141.3678  160.1669 H   0  0  0  0  0  0  0  0  0  0  0  0
  153.2805  143.7621  160.8296 H   0  0  0  0  0  0  0  0  0  0  0  0
  153.9538  143.5855  159.2264 H   0  0  0  0  0  0  0  0  0  0  0  0
  151.0616  144.3237  159.8934 H   0  0  0  0  0  0  0  0  0  0  0  0
  152.2704  145.3966  159.2286 H   0  0  0  0  0  0  0  0  0  0  0  0
  150.7333  144.5533  157.4573 H   0  0  0  0  0  0  0  0  0  0  0  0
  152.3839  144.0719  157.1494 H   0  0  0  0  0  0  0  0  0  0  0  0
  150.2166  142.3363  158.4101 H   0  0  0  0  0  0  0  0  0  0  0  0
  151.5783  142.0824  155.6831 H   0  0  0  0  0  0  0  0  0  0  0  0
  149.9369  142.6613  155.9568 H   0  0  0  0  0  0  0  0  0  0  0  0
  150.3525  140.9956  156.3280 H   0  0  0  0  0  0  0  0  0  0  0  0
  1  2  1  0  0  0  0
  1 21  1  0  0  0  0
  1 22  1  0  0  0  0
  1 23  1  0  0  0  0
  2 20  1  0  0  0  0
  2  3  2  0  0  0  0
  3  4  1  0  0  0  0
  3 24  1  0  0  0  0
  4  5  1  0  0  0  0
  4 19  2  0  0  0  0
  5  6  1  0  0  0  0
  6  7  2  0  0  0  0
  6  8  1  0  0  0  0
  8  9  1  0  0  0  0
  8 25  1  0  0  0  0
  9 10  1  0  0  0  0
  9 26  1  0  0  0  0
  9 27  1  0  0  0  0
 10 11  1  0  0  0  0
 10 28  1  0  0  0  0
 10 29  1  0  0  0  0
 11 12  1  0  0  0  0
 12 17  1  0  0  0  0
 12 13  1  0  0  0  0
 12 30  1  0  0  0  0
 13 14  1  0  0  0  0
 13 31  1  0  0  0  0
 13 32  1  0  0  0  0
 14 15  1  0  0  0  0
 14 33  1  0  0  0  0
 14 34  1  0  0  0  0
 15 16  1  0  0  0  0
 15 35  1  0  0  0  0
 15 36  1  0  0  0  0
 16 17  1  0  0  0  0
 16 37  1  0  0  0  0
 16 38  1  0  0  0  0
 17 18  1  0  0  0  0
 17 39  1  0  0  0  0
 18 40  1  0  0  0  0
 18 41  1  0  0  0  0
 18 42  1  0  0  0  0
 19 20  1  0  0  0  0
M  CHG  1   5  -1
M  END
> <s_m_source_file>
AV-unprocessed.smi

> <i_m_source_file_index>
2104

> <i_lp_mmshare_version>
43012

> <i_f3d_flags>
0

> <s_epik_input>
W0NIM11jMVtjSF1jKG5vMSlbTkhdQyg9TylbTkhdW0NIMl1bQ0gyXU9bQ0BASF0yW0NIMl1bQ0gyXVtDSDJdW0NIMl1bQ0BIXTJbQ0gzXQ==

> <s_epik_cmdline>
J2VwaWtfcHl0aG9uJywgJy1waCcsICc3LjAnLCAnLXRuJywgJzgnLCAnLW1hJywgJzIwMCcsICctbWV0YWxfYmluZGluZycsICctaW1hZScsICc8aW5maWxlLm1hZT4nLCAnLW9tYWUnLCAnPG91dGZpbGUubWFlPic=

> <r_lp_tautomer_probability>
1

> <r_epik_Ionization_Penalty>
6.47137

> <r_epik_Ionization_Penalty_Charging>
6.47125

> <r_epik_Ionization_Penalty_Neutral>
0.000118933

> <r_epik_State_Penalty>
6.47124

> <r_epik_Charging_Adjusted_Penalty>
12.9425

> <i_epik_Tot_Q>
-1

> <i_epik_Tot_abs_Q>
1

> <r_epik_Metal_State_Penalty>
2.3995

> <b_epik_Metal_Only>
1

> <s_lp_Force_Field>
OPLS_2005

> <r_lp_Energy>
5.464

> <b_lp_Chiralities_Consistent>
1

> <s_lp_Variant>
AV-unprocessed.smi:2104-5

> <Gold.Version>
5.8.1

> <Gold.Id.Protein>
6NUR|6NUR_protein|mol2

> <Gold.PLP.Fitness>
47.6591

> <Gold.PLP.PLP>
-41.1190

> <Gold.PLP.part.hbond>
-2.2368

> <Gold.PLP.part.metal>
0.0000

> <Gold.PLP.part.buried>
-5.9004

> <Gold.PLP.part.nonpolar>
-34.7257

> <Gold.PLP.part.repulsive>
0.2228

> <Gold.PLP.ligand.clash>
0.0000

> <Gold.PLP.ligand.torsion>
0.3130

> <Gold.PLP.Chemscore.Hbond>
2.3120

> <Gold.PLP.Chemscore.CHOScore>
0.0000

> <Gold.PLP.Chemscore.Metal>
0.0000

> <Gold.Chemscore.Hbonds>
donor molecule, donor type, donor heavy atom, donor atom, acceptor molecule, acceptor atom, score
      P1  H  6896  6909       L1     7  1.00
      P1  H  6931  6943       L1     5  1.34

> <Gold.PLP.Chemscore.Internal.Correction>
0.2301

> <Gold.Rescore>
     Score         DG    S(hbond)    S(metal)    S(lipo)     H(rot)  DE(clash)    DE(int)     intcor
     16.17     -18.15       1.46        0.00     104.12       1.71       0.07       1.91       ----

> <Gold.Chemscore.Fitness>
16.1685

> <Gold.Chemscore.DG>
-18.1479

> <Gold.Chemscore.ZeroCoef>
-5.4800

> <Gold.Chemscore.Hbond>
1.4565

> <Gold.Chemscore.Metal>
0.0000

> <Gold.Chemscore.Lipo>
104.1164

> <Gold.Chemscore.Internal_Hbond>
0.0000

> <Gold.Chemscore.DEClash>
0.0691

> <Gold.Chemscore.DEInternal>
1.9104

> <Gold.Chemscore.Rot>
1.7103

> <Gold.Chemscore.Internal.Correction>
   9.000000E+99

> <Gold.Chemscore.Hbonds>
donor molecule, donor type, donor heavy atom, donor atom, acceptor molecule, acceptor atom, score
      P1  H  6896  6909       L1     7  0.24
      P1  H  6931  6943       L1     5  0.47

> <Gold.Chemscore.Hbond.Weighted>
-4.8647

> <Gold.Chemscore.Metal.Weighted>
-0.0000

> <Gold.Chemscore.Lipo.Weighted>
-12.1816

> <Gold.Chemscore.Internal_Hbond.Weighted>
0.0000

> <Gold.Chemscore.DEClash.Weighted>
0.0691

> <Gold.Chemscore.DEInternal.Weighted>
1.9104

> <Gold.Chemscore.Rot.Weighted>
4.3784

> <Gold.Chemscore.Internal.Correction.Weighted>
   9.000000E+99

> <Gold.Protein.RotatedTorsions>
[ 6907 6896 6895 6894 ] final   47.72 input  -60.11 | X-H torsion
[ 7974 7965 7964 7962 ] final   94.01 input  175.53 | X-H torsion
[ 8008 7997 7996 7995 ] final  -54.87 input   59.86 | X-H torsion
[ 10167 10162 10161 10158 ] final -169.60 input  -65.29 | X-H torsion
[ 10718 10713 10712 10709 ] final   95.38 input   66.30 | X-H torsion
[ 10763 10752 10751 10750 ] final -161.08 input  -60.55 | X-H torsion
[ 11005 11000 10999 10996 ] final  120.76 input  -57.11 | X-H torsion

> <Gold.Protein.ActiveResidues>
 VAL166  LYS551  ARG553  GLY616  TRP617  ASP618  TYR619  PRO620  LYS621  CYS622 
 ASP623  PHE694  ASN695  SER759  ASP760  ASP761  ALA762  ILE779  LEU786  VAL792 
 PHE793  MET794  SER795  GLU796  ALA797  LYS798  CYS799  TRP800  GLU811  SER814 

> <Gold.Protein.RotatedAtoms>
  152.2713  134.7929  160.0413 H   0  0  0  0  0  0  0  0  0  0  0  0  # atno 6907 bound_to 6896
  151.8541  133.3440  159.3691 H   0  0  0  0  0  0  0  0  0  0  0  0  # atno 6908 bound_to 6896
  150.7153  134.5198  159.5692 H   0  0  0  0  0  0  0  0  0  0  0  0  # atno 6909 bound_to 6896
  145.4713  139.2282  143.2933 H   0  0  0  0  0  0  0  0  0  0  0  0  # atno 7974 bound_to 7965
  154.4176  140.1166  156.5384 H   0  0  0  0  0  0  0  0  0  0  0  0  # atno 8008 bound_to 7997
  155.6533  140.3496  155.4737 H   0  0  0  0  0  0  0  0  0  0  0  0  # atno 8009 bound_to 7997
  155.9774  140.1153  157.0747 H   0  0  0  0  0  0  0  0  0  0  0  0  # atno 8010 bound_to 7997
  139.5913  144.1208  152.1637 H   0  0  0  0  0  0  0  0  0  0  0  0  # atno 10167 bound_to 10162
  157.6939  131.0543  150.4330 H   0  0  0  0  0  0  0  0  0  0  0  0  # atno 10718 bound_to 10713
  154.7335  135.3052  154.8851 H   0  0  0  0  0  0  0  0  0  0  0  0  # atno 10763 bound_to 10752
  153.9687  135.6744  153.4750 H   0  0  0  0  0  0  0  0  0  0  0  0  # atno 10764 bound_to 10752
  153.0940  135.4945  154.8666 H   0  0  0  0  0  0  0  0  0  0  0  0  # atno 10765 bound_to 10752
  139.9198  134.9636  156.7856 H   0  0  0  0  0  0  0  0  0  0  0  0  # atno 11005 bound_to 11000
  146.2395  140.5491  142.8940 LP  0  0  0  0  0  0  0  0  0  0  0  0  # atno 17320 bound_to 7965
  144.7943  140.6093  143.6520 LP  0  0  0  0  0  0  0  0  0  0  0  0  # atno 17321 bound_to 7965
  140.0783  144.5722  150.7141 LP  0  0  0  0  0  0  0  0  0  0  0  0  # atno 17342 bound_to 10162
  140.7175  143.2558  151.4387 LP  0  0  0  0  0  0  0  0  0  0  0  0  # atno 17343 bound_to 10162
  156.4695  130.4049  149.6527 LP  0  0  0  0  0  0  0  0  0  0  0  0  # atno 17370 bound_to 10713
  156.3612  130.7483  151.2455 LP  0  0  0  0  0  0  0  0  0  0  0  0  # atno 17371 bound_to 10713
  140.6509  133.9732  155.7754 LP  0  0  0  0  0  0  0  0  0  0  0  0  # atno 17394 bound_to 11000
  141.0709  134.0207  157.3528 LP  0  0  0  0  0  0  0  0  0  0  0  0  # atno 17395 bound_to 11000

$$$$
