AV-unprocessed.smi:103|AV-procd|sdf|978|dock4
  -GOLD-   2262017533D 1   1.00000     0.00000
 Structure written by MMmdl.
 53 55  0  0  0  0  0  0  0  0  1 V2000
  150.2108  131.4233  155.6170 C   0  0  0  0  0  0  0  0  0  0  0  0
  149.8025  132.3782  156.7315 C   0  0  0  0  0  0  0  0  0  0  0  0
  150.5073  132.5384  157.7281 O   0  0  0  0  0  0  0  0  0  0  0  0
  148.6316  132.9908  156.4832 O   0  0  0  0  0  0  0  0  0  0  0  0
  148.1317  133.9821  157.3712 C   0  0  0  0  0  0  0  0  0  0  0  0
  149.2361  134.9835  157.7707 C   0  0  1  0  0  0  0  0  0  0  0  0
  149.5200  135.8030  156.6336 O   0  0  0  0  0  0  0  0  0  0  0  0
  149.2185  137.1395  156.8960 C   0  0  1  0  0  0  0  0  0  0  0  0
  148.6169  137.7715  155.6756 N   0  0  0  0  0  0  0  0  0  0  0  0
  148.9541  138.9596  155.0595 C   0  0  0  0  0  0  0  0  0  0  0  0
  150.3002  140.0458  155.5142 S   0  0  0  0  0  0  0  0  0  0  0  0
  149.6849  141.6719  154.9168 C   0  0  0  0  0  0  0  0  0  0  0  0
  150.3654  140.0569  156.9840 O   0  0  0  0  0  0  0  0  0  0  0  0
  151.4710  139.6512  154.7163 O   0  0  0  0  0  0  0  0  0  0  0  0
  148.2954  139.2675  153.9759 N   0  0  0  0  0  0  0  0  0  0  0  0
  147.3710  138.2386  153.8686 C   0  0  0  0  0  0  0  0  0  0  0  0
  146.3240  137.9483  152.9582 C   0  0  0  0  0  0  0  0  0  0  0  0
  146.0228  138.7346  151.9160 N   0  0  0  0  0  0  0  0  0  0  0  0
  145.5914  136.8267  153.1497 N   0  0  0  0  0  0  0  0  0  0  0  0
  145.8711  136.0268  154.1830 C   0  0  0  0  0  0  0  0  0  0  0  0
  146.8172  136.1671  155.1142 N   0  0  0  0  0  0  0  0  0  0  0  0
  147.5579  137.2983  154.9224 C   0  0  0  0  0  0  0  0  0  0  0  0
  148.2794  137.1586  158.1072 C   0  0  1  0  0  0  0  0  0  0  0  0
  146.9189  136.9576  157.7250 O   0  0  0  0  0  0  0  0  0  0  0  0
  145.9129  137.3278  158.5370 C   0  0  0  0  0  0  0  0  0  0  0  0
  144.5475  136.9819  157.9593 C   0  0  0  0  0  0  0  0  0  0  0  0
  146.0269  137.8978  159.6217 O   0  0  0  0  0  0  0  0  0  0  0  0
  148.8250  135.9681  158.8775 C   0  0  1  0  0  0  0  0  0  0  0  0
  147.8989  135.4341  159.8186 O   0  0  0  0  0  0  0  0  0  0  0  0
  147.6514  136.0848  160.9688 C   0  0  0  0  0  0  0  0  0  0  0  0
  146.9255  135.2133  161.9846 C   0  0  0  0  0  0  0  0  0  0  0  0
  147.9501  137.2525  161.2195 O   0  0  0  0  0  0  0  0  0  0  0  0
  149.3486  131.1418  155.0116 H   0  0  0  0  0  0  0  0  0  0  0  0
  150.6472  130.5164  156.0364 H   0  0  0  0  0  0  0  0  0  0  0  0
  150.9500  131.8945  154.9692 H   0  0  0  0  0  0  0  0  0  0  0  0
  147.3080  134.4998  156.8814 H   0  0  0  0  0  0  0  0  0  0  0  0
  147.7079  133.5023  158.2545 H   0  0  0  0  0  0  0  0  0  0  0  0
  150.1348  134.4475  158.0765 H   0  0  0  0  0  0  0  0  0  0  0  0
  150.1534  137.6709  157.0720 H   0  0  0  0  0  0  0  0  0  0  0  0
  150.4243  142.4419  155.1354 H   0  0  0  0  0  0  0  0  0  0  0  0
  148.7501  141.9132  155.4227 H   0  0  0  0  0  0  0  0  0  0  0  0
  149.5140  141.6258  153.8417 H   0  0  0  0  0  0  0  0  0  0  0  0
  146.5536  139.5782  151.7530 H   0  0  0  0  0  0  0  0  0  0  0  0
  145.2628  138.4860  151.2995 H   0  0  0  0  0  0  0  0  0  0  0  0
  145.2504  135.1479  154.2765 H   0  0  0  0  0  0  0  0  0  0  0  0
  148.4094  138.0822  158.6717 H   0  0  0  0  0  0  0  0  0  0  0  0
  144.5591  137.0673  156.8722 H   0  0  0  0  0  0  0  0  0  0  0  0
  143.7864  137.6580  158.3497 H   0  0  0  0  0  0  0  0  0  0  0  0
  144.2740  135.9607  158.2252 H   0  0  0  0  0  0  0  0  0  0  0  0
  149.7351  136.2792  159.3937 H   0  0  0  0  0  0  0  0  0  0  0  0
  146.0944  134.6900  161.5112 H   0  0  0  0  0  0  0  0  0  0  0  0
  146.5308  135.8224  162.7981 H   0  0  0  0  0  0  0  0  0  0  0  0
  147.6078  134.4746  162.4050 H   0  0  0  0  0  0  0  0  0  0  0  0
  1  2  1  0  0  0  0
  1 33  1  0  0  0  0
  1 34  1  0  0  0  0
  1 35  1  0  0  0  0
  2  3  2  0  0  0  0
  2  4  1  0  0  0  0
  4  5  1  0  0  0  0
  5  6  1  0  0  0  0
  5 36  1  0  0  0  0
  5 37  1  0  0  0  0
  6 28  1  0  0  0  0
  6  7  1  0  0  0  0
  6 38  1  0  0  0  0
  7  8  1  0  0  0  0
  8  9  1  0  0  0  0
  8 23  1  0  0  0  0
  8 39  1  0  0  0  0
  9 22  1  0  0  0  0
  9 10  1  0  0  0  0
 10 11  1  0  0  0  0
 10 15  2  0  0  0  0
 11 12  1  0  0  0  0
 11 13  2  0  0  0  0
 11 14  2  0  0  0  0
 12 40  1  0  0  0  0
 12 41  1  0  0  0  0
 12 42  1  0  0  0  0
 15 16  1  0  0  0  0
 16 22  2  0  0  0  0
 16 17  1  0  0  0  0
 17 18  1  0  0  0  0
 17 19  2  0  0  0  0
 18 43  1  0  0  0  0
 18 44  1  0  0  0  0
 19 20  1  0  0  0  0
 20 21  2  0  0  0  0
 20 45  1  0  0  0  0
 21 22  1  0  0  0  0
 23 24  1  0  0  0  0
 23 28  1  0  0  0  0
 23 46  1  0  0  0  0
 24 25  1  0  0  0  0
 25 26  1  0  0  0  0
 25 27  2  0  0  0  0
 26 47  1  0  0  0  0
 26 48  1  0  0  0  0
 26 49  1  0  0  0  0
 28 29  1  0  0  0  0
 28 50  1  0  0  0  0
 29 30  1  0  0  0  0
 30 31  1  0  0  0  0
 30 32  2  0  0  0  0
 31 51  1  0  0  0  0
 31 52  1  0  0  0  0
 31 53  1  0  0  0  0
M  END
> <s_m_source_file>
AV-unprocessed.smi

> <i_m_source_file_index>
103

> <i_lp_mmshare_version>
43012

> <i_f3d_flags>
0

> <s_epik_input>
W0NIM11DKD1PKU9bQ0gyXVtDQEBIXTFPW0NASF0oW0NAQEhdKE9DKD1PKVtDSDNdKVtDQEhdMU9DKD1PKVtDSDNdKW4oYyhuMilTKD1PKSg9TylbQ0gzXSljKGMyMyluW2NIXW5jM1tOSDJd

> <s_epik_cmdline>
J2VwaWtfcHl0aG9uJywgJy1waCcsICc3LjAnLCAnLXRuJywgJzgnLCAnLW1hJywgJzIwMCcsICctbWV0YWxfYmluZGluZycsICctaW1hZScsICc8aW5maWxlLm1hZT4nLCAnLW9tYWUnLCAnPG91dGZpbGUubWFlPic=

> <r_lp_tautomer_probability>
1

> <r_epik_Ionization_Penalty>
1.51338e-05

> <r_epik_Ionization_Penalty_Charging>
0

> <r_epik_Ionization_Penalty_Neutral>
1.51338e-05

> <r_epik_State_Penalty>
-0

> <r_epik_Charging_Adjusted_Penalty>
0

> <i_epik_Tot_Q>
0

> <i_epik_Tot_abs_Q>
0

> <r_epik_Metal_State_Penalty>
-0

> <b_epik_Metal_Only>
0

> <s_epik_Chemistry_Notes>
This compound has an ester and may undergo hydrolysis at high or low pH. This compound contains an acetal/aminal-like group ( X-CH(R)-Y where X, Y are N, S, or O) that may be acid/base labile, releasing an aldehyde.

> <s_lp_Force_Field>
OPLS_2005

> <r_lp_Energy>
15.224

> <b_lp_Chiralities_Consistent>
1

> <s_lp_Variant>
AV-unprocessed.smi:103-2

> <Gold.Version>
5.8.1

> <Gold.Id.Protein>
6NUR|6NUR_protein|mol2

> <Gold.PLP.Fitness>
41.1641

> <Gold.PLP.PLP>
-28.0433

> <Gold.PLP.part.hbond>
-7.0000

> <Gold.PLP.part.metal>
0.0000

> <Gold.PLP.part.buried>
-3.6969

> <Gold.PLP.part.nonpolar>
-18.1089

> <Gold.PLP.part.repulsive>
0.5028

> <Gold.PLP.ligand.clash>
0.0000

> <Gold.PLP.ligand.torsion>
2.0160

> <Gold.PLP.Chemscore.Hbond>
4.8800

> <Gold.PLP.Chemscore.CHOScore>
0.0000

> <Gold.PLP.Chemscore.Metal>
0.0000

> <Gold.Chemscore.Hbonds>
donor molecule, donor type, donor heavy atom, donor atom, acceptor molecule, acceptor atom, score
      L1  H    18    44       P1 10171  0.99
      P1  H  6896  6909       L1     3  1.00
      P1  H  6931  6943       L1    32  0.99
      P1  H  6934  6947       L1    27  0.81
      P1  H  7989  7998       L1    14  1.00

> <Gold.PLP.Chemscore.Internal.Correction>
2.5128

> <Gold.Rescore>
     Score         DG    S(hbond)    S(metal)    S(lipo)     H(rot)  DE(clash)    DE(int)     intcor
      8.01     -14.02       4.59        0.00      34.89       4.25       0.28       5.72       ----

> <Gold.Chemscore.Fitness>
8.0124

> <Gold.Chemscore.DG>
-14.0189

> <Gold.Chemscore.ZeroCoef>
-5.4800

> <Gold.Chemscore.Hbond>
4.5883

> <Gold.Chemscore.Metal>
0.0000

> <Gold.Chemscore.Lipo>
34.8941

> <Gold.Chemscore.Internal_Hbond>
0.0000

> <Gold.Chemscore.DEClash>
0.2822

> <Gold.Chemscore.DEInternal>
5.7244

> <Gold.Chemscore.Rot>
4.2456

> <Gold.Chemscore.Internal.Correction>
   9.000000E+99

> <Gold.Chemscore.Hbonds>
donor molecule, donor type, donor heavy atom, donor atom, acceptor molecule, acceptor atom, score
      L1  H    18    44       P1 10171  0.92
      P1  H  6896  6909       L1     3  0.99
      P1  H  6931  6943       L1    32  0.93
      P1  H  6934  6947       L1    27  0.76
      P1  H  7989  7998       L1    14  0.55

> <Gold.Chemscore.Hbond.Weighted>
-15.3250

> <Gold.Chemscore.Metal.Weighted>
-0.0000

> <Gold.Chemscore.Lipo.Weighted>
-4.0826

> <Gold.Chemscore.Internal_Hbond.Weighted>
0.0000

> <Gold.Chemscore.DEClash.Weighted>
0.2822

> <Gold.Chemscore.DEInternal.Weighted>
5.7244

> <Gold.Chemscore.Rot.Weighted>
10.8687

> <Gold.Chemscore.Internal.Correction.Weighted>
   9.000000E+99

> <Gold.Protein.RotatedTorsions>
[ 6907 6896 6895 6894 ] final  -40.24 input  -60.11 | X-H torsion
[ 7974 7965 7964 7962 ] final  131.46 input  175.53 | X-H torsion
[ 8008 7997 7996 7995 ] final   22.01 input   59.86 | X-H torsion
[ 10167 10162 10161 10158 ] final  -94.01 input  -65.29 | X-H torsion
[ 10718 10713 10712 10709 ] final    6.26 input   66.30 | X-H torsion
[ 10763 10752 10751 10750 ] final  -18.62 input  -60.55 | X-H torsion
[ 11005 11000 10999 10996 ] final  -71.28 input  -57.11 | X-H torsion

> <Gold.Protein.ActiveResidues>
 VAL166  LYS551  ARG553  GLY616  TRP617  ASP618  TYR619  PRO620  LYS621  CYS622 
 ASP623  PHE694  ASN695  SER759  ASP760  ASP761  ALA762  ILE779  LEU786  VAL792 
 PHE793  MET794  SER795  GLU796  ALA797  LYS798  CYS799  TRP800  GLU811  SER814 

> <Gold.Protein.RotatedAtoms>
  150.9808  134.9163  159.7842 H   0  0  0  0  0  0  0  0  0  0  0  0  # atno 6907 bound_to 6896
  152.5221  134.3414  159.9228 H   0  0  0  0  0  0  0  0  0  0  0  0  # atno 6908 bound_to 6896
  151.3421  133.3917  159.2706 H   0  0  0  0  0  0  0  0  0  0  0  0  # atno 6909 bound_to 6896
  145.0070  139.4256  143.5263 H   0  0  0  0  0  0  0  0  0  0  0  0  # atno 7974 bound_to 7965
  154.9592  140.3076  155.5039 H   0  0  0  0  0  0  0  0  0  0  0  0  # atno 8008 bound_to 7997
  156.2979  140.2304  156.4614 H   0  0  0  0  0  0  0  0  0  0  0  0  # atno 8009 bound_to 7997
  154.7981  140.0435  157.1240 H   0  0  0  0  0  0  0  0  0  0  0  0  # atno 8010 bound_to 7997
  140.3188  143.3061  152.0069 H   0  0  0  0  0  0  0  0  0  0  0  0  # atno 10167 bound_to 10162
  156.9195  130.5785  149.5647 H   0  0  0  0  0  0  0  0  0  0  0  0  # atno 10718 bound_to 10713
  153.5921  135.7002  153.5419 H   0  0  0  0  0  0  0  0  0  0  0  0  # atno 10763 bound_to 10752
  153.3169  135.4085  155.1383 H   0  0  0  0  0  0  0  0  0  0  0  0  # atno 10764 bound_to 10752
  154.8598  135.3686  154.5454 H   0  0  0  0  0  0  0  0  0  0  0  0  # atno 10765 bound_to 10752
  141.1589  133.6813  156.6882 H   0  0  0  0  0  0  0  0  0  0  0  0  # atno 11005 bound_to 11000
  146.3463  139.9493  142.8731 LP  0  0  0  0  0  0  0  0  0  0  0  0  # atno 17320 bound_to 7965
  145.2074  140.9881  143.4120 LP  0  0  0  0  0  0  0  0  0  0  0  0  # atno 17321 bound_to 7965
  139.4878  144.6327  151.7037 LP  0  0  0  0  0  0  0  0  0  0  0  0  # atno 17342 bound_to 10162
  140.5502  144.0437  150.6124 LP  0  0  0  0  0  0  0  0  0  0  0  0  # atno 17343 bound_to 10162
  156.0498  130.5569  150.8963 LP  0  0  0  0  0  0  0  0  0  0  0  0  # atno 17370 bound_to 10713
  157.5917  131.0944  150.9108 LP  0  0  0  0  0  0  0  0  0  0  0  0  # atno 17371 bound_to 10713
  140.3051  134.8132  157.4130 LP  0  0  0  0  0  0  0  0  0  0  0  0  # atno 17394 bound_to 11000
  140.1228  134.5197  155.8170 LP  0  0  0  0  0  0  0  0  0  0  0  0  # atno 17395 bound_to 11000

$$$$
