AV-unprocessed.smi:1344|AV-procd|sdf|5509|dock2
  -GOLD-   22720 5 93D 1   1.00000     0.00000
 Structure written by MMmdl.
 32 34  0  0  0  0  0  0  0  0  1 V2000
  151.7219  140.6121  155.5202 O   0  0  0  0  0  0  0  0  0  0  0  0
  150.5140  140.5665  155.7535 C   0  0  0  0  0  0  0  0  0  0  0  0
  149.8605  141.6468  156.6175 C   0  0  0  0  0  0  0  0  0  0  0  0
  150.8929  142.3175  157.4768 C   0  0  0  0  0  0  0  0  0  0  0  0
  151.3033  143.6260  157.3991 C   0  0  0  0  0  0  0  0  0  0  0  0
  152.5192  144.0022  158.5892 S   0  0  0  0  0  0  0  0  0  0  0  0
  152.4267  142.3341  159.1614 C   0  0  0  0  0  0  0  0  0  0  0  0
  153.1678  141.7667  160.2396 N   0  0  0  0  0  0  0  0  0  0  0  0
  153.1025  142.3185  161.5892 C   0  0  0  0  0  0  0  0  0  0  0  0
  154.0668  141.4469  162.3877 C   0  0  0  0  0  0  0  0  0  0  0  0
  154.5287  140.5116  161.3892 N   0  0  0  0  0  0  0  0  0  0  0  0
  154.0047  140.7120  160.1779 C   0  0  0  0  0  0  0  0  0  0  0  0
  154.2643  140.0223  159.1936 O   0  0  0  0  0  0  0  0  0  0  0  0
  151.5474  141.5926  158.4795 N   0  0  0  0  0  0  0  0  0  0  0  0
  149.7009  139.6077  155.2849 N   0  0  0  0  0  0  0  0  0  0  0  0
  150.0910  138.5234  154.4440 C   0  0  0  0  0  0  0  0  0  0  0  0
  149.9144  137.1209  154.9848 C   0  0  0  0  0  0  0  0  0  0  0  0
  151.2941  137.7070  154.8638 C   0  0  0  0  0  0  0  0  0  0  0  0
  149.3574  142.3727  155.9771 H   0  0  0  0  0  0  0  0  0  0  0  0
  149.0838  141.1910  157.2333 H   0  0  0  0  0  0  0  0  0  0  0  0
  150.9607  144.3909  156.7179 H   0  0  0  0  0  0  0  0  0  0  0  0
  153.4120  143.3648  161.5945 H   0  0  0  0  0  0  0  0  0  0  0  0
  152.0872  142.2527  161.9832 H   0  0  0  0  0  0  0  0  0  0  0  0
  154.9025  142.0215  162.7887 H   0  0  0  0  0  0  0  0  0  0  0  0
  153.5685  140.9240  163.2047 H   0  0  0  0  0  0  0  0  0  0  0  0
  155.1861  139.7749  161.6011 H   0  0  0  0  0  0  0  0  0  0  0  0
  148.7230  139.6603  155.5317 H   0  0  0  0  0  0  0  0  0  0  0  0
  149.9450  138.6440  153.3715 H   0  0  0  0  0  0  0  0  0  0  0  0
  149.5024  137.0093  155.9862 H   0  0  0  0  0  0  0  0  0  0  0  0
  149.6355  136.3423  154.2776 H   0  0  0  0  0  0  0  0  0  0  0  0
  151.9369  137.3206  154.0756 H   0  0  0  0  0  0  0  0  0  0  0  0
  151.8037  137.9865  155.7841 H   0  0  0  0  0  0  0  0  0  0  0  0
  1  2  2  0  0  0  0
  2  3  1  0  0  0  0
  2 15  1  0  0  0  0
  3  4  1  0  0  0  0
  3 19  1  0  0  0  0
  3 20  1  0  0  0  0
  4 14  1  0  0  0  0
  4  5  2  0  0  0  0
  5  6  1  0  0  0  0
  5 21  1  0  0  0  0
  6  7  1  0  0  0  0
  7  8  1  0  0  0  0
  7 14  2  0  0  0  0
  8 12  1  0  0  0  0
  8  9  1  0  0  0  0
  9 10  1  0  0  0  0
  9 22  1  0  0  0  0
  9 23  1  0  0  0  0
 10 11  1  0  0  0  0
 10 24  1  0  0  0  0
 10 25  1  0  0  0  0
 11 12  1  0  0  0  0
 11 26  1  0  0  0  0
 12 13  2  0  0  0  0
 15 16  1  0  0  0  0
 15 27  1  0  0  0  0
 16 18  1  0  0  0  0
 16 17  1  0  0  0  0
 16 28  1  0  0  0  0
 17 18  1  0  0  0  0
 17 29  1  0  0  0  0
 17 30  1  0  0  0  0
 18 31  1  0  0  0  0
 18 32  1  0  0  0  0
M  END
> <s_m_source_file>
AV-unprocessed.smi

> <i_m_source_file_index>
1344

> <i_lp_mmshare_version>
43012

> <i_f3d_flags>
0

> <s_epik_input>
W0NIMl0xW0NIMl1bQ0hdMVtOSF1DKD1PKVtDSDJdYzJbY0hdc2MobjIpTjNbQ0gyXVtDSDJdW05IXUMzPU8=

> <s_epik_cmdline>
J2VwaWtfcHl0aG9uJywgJy1waCcsICc3LjAnLCAnLXRuJywgJzgnLCAnLW1hJywgJzIwMCcsICctbWV0YWxfYmluZGluZycsICctaW1hZScsICc8aW5maWxlLm1hZT4nLCAnLW9tYWUnLCAnPG91dGZpbGUubWFlPic=

> <r_lp_tautomer_probability>
1

> <r_epik_Ionization_Penalty>
0.000119825

> <r_epik_Ionization_Penalty_Charging>
0

> <r_epik_Ionization_Penalty_Neutral>
0.000119825

> <r_epik_State_Penalty>
-0

> <r_epik_Charging_Adjusted_Penalty>
0

> <i_epik_Tot_Q>
0

> <i_epik_Tot_abs_Q>
0

> <r_epik_Metal_State_Penalty>
-0

> <b_epik_Metal_Only>
0

> <s_lp_Force_Field>
OPLS_2005

> <r_lp_Energy>
42.6691

> <b_lp_Chiralities_Consistent>
1

> <s_lp_Variant>
AV-unprocessed.smi:1344-1

> <Gold.Version>
5.8.1

> <Gold.Id.Protein>
6NUR|6NUR_protein|mol2

> <Gold.PLP.Fitness>
43.8504

> <Gold.PLP.PLP>
-38.6745

> <Gold.PLP.part.hbond>
-2.0000

> <Gold.PLP.part.metal>
0.0000

> <Gold.PLP.part.buried>
-1.9151

> <Gold.PLP.part.nonpolar>
-35.6847

> <Gold.PLP.part.repulsive>
0.0616

> <Gold.PLP.ligand.clash>
0.0000

> <Gold.PLP.ligand.torsion>
1.4789

> <Gold.PLP.Chemscore.Hbond>
1.6960

> <Gold.PLP.Chemscore.CHOScore>
1.0000

> <Gold.PLP.Chemscore.Metal>
0.0000

> <Gold.Chemscore.Hbonds>
donor molecule, donor type, donor heavy atom, donor atom, acceptor molecule, acceptor atom, score
      P1  H  7989  7998       L1     1  0.70
      P1  H  7997  8010       L1    13  0.98
      L1  C     5    21       P1  8028  1.00

> <Gold.PLP.Chemscore.Internal.Correction>
0.0456

> <Gold.Rescore>
     Score         DG    S(hbond)    S(metal)    S(lipo)     H(rot)  DE(clash)    DE(int)     intcor
     14.66     -16.05       1.88        0.00      71.95       1.61       0.03       1.35       ----

> <Gold.Chemscore.Fitness>
14.6624

> <Gold.Chemscore.DG>
-16.0490

> <Gold.Chemscore.ZeroCoef>
-5.4800

> <Gold.Chemscore.Hbond>
1.8755

> <Gold.Chemscore.Metal>
0.0000

> <Gold.Chemscore.Lipo>
71.9498

> <Gold.Chemscore.Internal_Hbond>
0.0000

> <Gold.Chemscore.DEClash>
0.0331

> <Gold.Chemscore.DEInternal>
1.3535

> <Gold.Chemscore.Rot>
1.6067

> <Gold.Chemscore.Internal.Correction>
   9.000000E+99

> <Gold.Chemscore.Hbonds>
donor molecule, donor type, donor heavy atom, donor atom, acceptor molecule, acceptor atom, score
      P1  H  7989  7998       L1     1  0.17
      P1  H  7997  8010       L1    13  0.87

> <Gold.Chemscore.Hbond.Weighted>
-6.2641

> <Gold.Chemscore.Metal.Weighted>
-0.0000

> <Gold.Chemscore.Lipo.Weighted>
-8.4181

> <Gold.Chemscore.Internal_Hbond.Weighted>
0.0000

> <Gold.Chemscore.DEClash.Weighted>
0.0331

> <Gold.Chemscore.DEInternal.Weighted>
1.3535

> <Gold.Chemscore.Rot.Weighted>
4.1132

> <Gold.Chemscore.Internal.Correction.Weighted>
   9.000000E+99

> <Gold.Protein.RotatedTorsions>
[ 6907 6896 6895 6894 ] final -177.45 input  -60.11 | X-H torsion
[ 7974 7965 7964 7962 ] final -111.71 input  175.53 | X-H torsion
[ 8008 7997 7996 7995 ] final    0.34 input   59.86 | X-H torsion
[ 10167 10162 10161 10158 ] final -179.97 input  -65.29 | X-H torsion
[ 10718 10713 10712 10709 ] final  -52.60 input   66.30 | X-H torsion
[ 10763 10752 10751 10750 ] final  -12.25 input  -60.55 | X-H torsion
[ 11005 11000 10999 10996 ] final  -51.32 input  -57.11 | X-H torsion

> <Gold.Protein.ActiveResidues>
 VAL166  LYS551  ARG553  GLY616  TRP617  ASP618  TYR619  PRO620  LYS621  CYS622 
 ASP623  PHE694  ASN695  SER759  ASP760  ASP761  ALA762  ILE779  LEU786  VAL792 
 PHE793  MET794  SER795  GLU796  ALA797  LYS798  CYS799  TRP800  GLU811  SER814 

> <Gold.Protein.RotatedAtoms>
  151.6213  133.3339  159.3088 H   0  0  0  0  0  0  0  0  0  0  0  0  # atno 6907 bound_to 6896
  150.8105  134.7260  159.6695 H   0  0  0  0  0  0  0  0  0  0  0  0  # atno 6908 bound_to 6896
  152.4201  134.5975  160.0042 H   0  0  0  0  0  0  0  0  0  0  0  0  # atno 6909 bound_to 6896
  145.1527  140.8837  143.3637 H   0  0  0  0  0  0  0  0  0  0  0  0  # atno 7974 bound_to 7965
  154.6670  140.2603  155.7048 H   0  0  0  0  0  0  0  0  0  0  0  0  # atno 8008 bound_to 7997
  156.2643  140.2837  156.1086 H   0  0  0  0  0  0  0  0  0  0  0  0  # atno 8009 bound_to 7997
  155.1224  140.0377  157.2744 H   0  0  0  0  0  0  0  0  0  0  0  0  # atno 8010 bound_to 7997
  139.5362  144.2491  152.0799 H   0  0  0  0  0  0  0  0  0  0  0  0  # atno 10167 bound_to 10162
  156.1607  130.4150  149.9797 H   0  0  0  0  0  0  0  0  0  0  0  0  # atno 10718 bound_to 10713
  153.4957  135.7017  153.5860 H   0  0  0  0  0  0  0  0  0  0  0  0  # atno 10763 bound_to 10752
  153.4013  135.3871  155.1989 H   0  0  0  0  0  0  0  0  0  0  0  0  # atno 10764 bound_to 10752
  154.8714  135.3882  154.4422 H   0  0  0  0  0  0  0  0  0  0  0  0  # atno 10765 bound_to 10752
  141.0865  133.6641  156.3860 H   0  0  0  0  0  0  0  0  0  0  0  0  # atno 11005 bound_to 11000
  145.0413  139.3257  143.5975 LP  0  0  0  0  0  0  0  0  0  0  0  0  # atno 17320 bound_to 7965
  146.3492  139.9788  142.8698 LP  0  0  0  0  0  0  0  0  0  0  0  0  # atno 17321 bound_to 7965
  140.1962  144.4703  150.6454 LP  0  0  0  0  0  0  0  0  0  0  0  0  # atno 17342 bound_to 10162
  140.6570  143.2240  151.5946 LP  0  0  0  0  0  0  0  0  0  0  0  0  # atno 17343 bound_to 10162
  156.7627  130.9157  151.3642 LP  0  0  0  0  0  0  0  0  0  0  0  0  # atno 17370 bound_to 10713
  157.6730  130.9069  150.0085 LP  0  0  0  0  0  0  0  0  0  0  0  0  # atno 17371 bound_to 10713
  140.5352  134.6174  157.5362 LP  0  0  0  0  0  0  0  0  0  0  0  0  # atno 17394 bound_to 11000
  139.9684  134.7335  156.0092 LP  0  0  0  0  0  0  0  0  0  0  0  0  # atno 17395 bound_to 11000

$$$$
