AV-unprocessed.smi:2363|AV-procd|sdf|9416|dock1
  -GOLD-   2272013 53D 1   1.00000     0.00000
 Structure written by MMmdl.
 44 45  0  0  0  0  0  0  0  0  1 V2000
  145.6809  132.4414  150.8814 C   0  0  0  0  0  0  0  0  0  0  0  0
  146.5540  132.0310  152.0759 C   0  0  0  0  0  0  0  0  0  0  0  0
  147.5444  133.1170  152.5326 C   0  0  0  0  0  0  0  0  0  0  0  0
  148.5350  132.6160  153.4721 N   0  0  0  0  0  0  0  0  0  0  0  0
  148.5951  131.2921  153.7361 N   0  0  0  0  0  0  0  0  0  0  0  0
  149.5841  131.1593  154.6103 C   0  0  0  0  0  0  0  0  0  0  0  0
  150.2032  132.3971  154.9445 C   0  0  0  0  0  0  0  0  0  0  0  0
  149.4991  133.2945  154.1886 C   0  0  0  0  0  0  0  0  0  0  0  0
  149.6560  134.6420  154.0994 N   0  0  0  0  0  0  0  0  0  0  0  0
  150.4497  135.4461  154.8271 C   0  0  0  0  0  0  0  0  0  0  0  0
  151.1928  135.0792  155.7373 O   0  0  0  0  0  0  0  0  0  0  0  0
  150.3295  136.7234  154.4345 N   0  0  0  0  0  0  0  0  0  0  0  0
  151.0473  137.8676  154.9982 C   0  0  1  0  0  0  0  0  0  0  0  0
  152.2439  138.1738  154.0813 C   0  0  0  0  0  0  0  0  0  0  0  0
  150.0918  139.0767  155.1856 C   0  0  0  0  0  0  0  0  0  0  0  0
  149.1933  139.3138  153.9545 C   0  0  0  0  0  0  0  0  0  0  0  0
  148.3147  140.5627  154.1320 C   0  0  0  0  0  0  0  0  0  0  0  0
  149.1288  141.7009  154.3847 O   0  0  0  0  0  0  0  0  0  0  0  0
  149.8772  141.5810  155.5875 C   0  0  0  0  0  0  0  0  0  0  0  0
  150.8444  140.3907  155.4886 C   0  0  0  0  0  0  0  0  0  0  0  0
  144.9618  131.6581  150.6413 H   0  0  0  0  0  0  0  0  0  0  0  0
  146.2805  132.6194  149.9885 H   0  0  0  0  0  0  0  0  0  0  0  0
  145.1214  133.3516  151.0982 H   0  0  0  0  0  0  0  0  0  0  0  0
  145.9084  131.7677  152.9141 H   0  0  0  0  0  0  0  0  0  0  0  0
  147.1033  131.1235  151.8218 H   0  0  0  0  0  0  0  0  0  0  0  0
  148.0580  133.5439  151.6707 H   0  0  0  0  0  0  0  0  0  0  0  0
  147.0037  133.9389  153.0042 H   0  0  0  0  0  0  0  0  0  0  0  0
  149.8222  130.1715  154.9762 H   0  0  0  0  0  0  0  0  0  0  0  0
  151.0229  132.5734  155.6245 H   0  0  0  0  0  0  0  0  0  0  0  0
  149.1153  135.0898  153.3743 H   0  0  0  0  0  0  0  0  0  0  0  0
  149.6904  136.9242  153.6794 H   0  0  0  0  0  0  0  0  0  0  0  0
  151.4510  137.6015  155.9767 H   0  0  0  0  0  0  0  0  0  0  0  0
  152.9053  138.9227  154.5157 H   0  0  0  0  0  0  0  0  0  0  0  0
  151.9164  138.5391  153.1074 H   0  0  0  0  0  0  0  0  0  0  0  0
  152.8465  137.2801  153.9147 H   0  0  0  0  0  0  0  0  0  0  0  0
  149.4425  138.8648  156.0368 H   0  0  0  0  0  0  0  0  0  0  0  0
  149.8112  139.4315  153.0632 H   0  0  0  0  0  0  0  0  0  0  0  0
  148.5469  138.4552  153.7760 H   0  0  0  0  0  0  0  0  0  0  0  0
  147.7330  140.7415  153.2275 H   0  0  0  0  0  0  0  0  0  0  0  0
  147.6008  140.4247  154.9458 H   0  0  0  0  0  0  0  0  0  0  0  0
  150.4353  142.5038  155.7473 H   0  0  0  0  0  0  0  0  0  0  0  0
  149.2043  141.4655  156.4386 H   0  0  0  0  0  0  0  0  0  0  0  0
  151.4009  140.3128  156.4226 H   0  0  0  0  0  0  0  0  0  0  0  0
  151.5783  140.5846  154.7051 H   0  0  0  0  0  0  0  0  0  0  0  0
  1  2  1  0  0  0  0
  1 21  1  0  0  0  0
  1 22  1  0  0  0  0
  1 23  1  0  0  0  0
  2  3  1  0  0  0  0
  2 24  1  0  0  0  0
  2 25  1  0  0  0  0
  3  4  1  0  0  0  0
  3 26  1  0  0  0  0
  3 27  1  0  0  0  0
  4  8  1  0  0  0  0
  4  5  1  0  0  0  0
  5  6  2  0  0  0  0
  6  7  1  0  0  0  0
  6 28  1  0  0  0  0
  7  8  2  0  0  0  0
  7 29  1  0  0  0  0
  8  9  1  0  0  0  0
  9 10  1  0  0  0  0
  9 30  1  0  0  0  0
 10 11  2  0  0  0  0
 10 12  1  0  0  0  0
 12 13  1  0  0  0  0
 12 31  1  0  0  0  0
 13 14  1  0  0  0  0
 13 15  1  0  0  0  0
 13 32  1  0  0  0  0
 14 33  1  0  0  0  0
 14 34  1  0  0  0  0
 14 35  1  0  0  0  0
 15 20  1  0  0  0  0
 15 16  1  0  0  0  0
 15 36  1  0  0  0  0
 16 17  1  0  0  0  0
 16 37  1  0  0  0  0
 16 38  1  0  0  0  0
 17 18  1  0  0  0  0
 17 39  1  0  0  0  0
 17 40  1  0  0  0  0
 18 19  1  0  0  0  0
 19 20  1  0  0  0  0
 19 41  1  0  0  0  0
 19 42  1  0  0  0  0
 20 43  1  0  0  0  0
 20 44  1  0  0  0  0
M  END
> <s_m_source_file>
AV-unprocessed.smi

> <i_m_source_file_index>
2363

> <i_lp_mmshare_version>
43012

> <i_f3d_flags>
0

> <s_epik_input>
W0NIM11bQ0gyXVtDSDJdbjFuW2NIXVtjSF1jMVtOSF1DKD1PKVtOSF1bQ0BIXShbQ0gzXSlbQ0hdMltDSDJdW0NIMl1PW0NIMl1bQ0gyXTI=

> <s_epik_cmdline>
J2VwaWtfcHl0aG9uJywgJy1waCcsICc3LjAnLCAnLXRuJywgJzgnLCAnLW1hJywgJzIwMCcsICctbWV0YWxfYmluZGluZycsICctaW1hZScsICc8aW5maWxlLm1hZT4nLCAnLW9tYWUnLCAnPG91dGZpbGUubWFlPic=

> <r_lp_tautomer_probability>
1

> <r_epik_Ionization_Penalty>
3.26671e-05

> <r_epik_Ionization_Penalty_Charging>
0

> <r_epik_Ionization_Penalty_Neutral>
3.26671e-05

> <r_epik_State_Penalty>
-0

> <r_epik_Charging_Adjusted_Penalty>
0

> <i_epik_Tot_Q>
0

> <i_epik_Tot_abs_Q>
0

> <r_epik_Metal_State_Penalty>
-0

> <b_epik_Metal_Only>
0

> <s_lp_Force_Field>
OPLS_2005

> <r_lp_Energy>
15.2221

> <b_lp_Chiralities_Consistent>
1

> <s_lp_Variant>
AV-unprocessed.smi:2363-2

> <Gold.Version>
5.8.1

> <Gold.Id.Protein>
6NUR|6NUR_protein|mol2

> <Gold.PLP.Fitness>
46.1277

> <Gold.PLP.PLP>
-38.1401

> <Gold.PLP.part.hbond>
-5.3200

> <Gold.PLP.part.metal>
0.0000

> <Gold.PLP.part.buried>
1.0524

> <Gold.PLP.part.nonpolar>
-34.0764

> <Gold.PLP.part.repulsive>
0.4205

> <Gold.PLP.ligand.clash>
0.0000

> <Gold.PLP.ligand.torsion>
0.5563

> <Gold.PLP.Chemscore.Hbond>
2.9851

> <Gold.PLP.Chemscore.CHOScore>
0.0000

> <Gold.PLP.Chemscore.Metal>
0.0000

> <Gold.Chemscore.Hbonds>
donor molecule, donor type, donor heavy atom, donor atom, acceptor molecule, acceptor atom, score
      L1  H     9    30       P1  7948  0.95
      L1  H    12    31       P1  7948  0.83
      P1  H  8011  8017       L1    18  0.21
      P1  H 10752 10764       L1    11  0.87

> <Gold.PLP.Chemscore.Internal.Correction>
0.1447

> <Gold.Rescore>
     Score         DG    S(hbond)    S(metal)    S(lipo)     H(rot)  DE(clash)    DE(int)     intcor
     12.57     -14.23       1.09        0.00      76.97       1.52       0.08       1.58       ----

> <Gold.Chemscore.Fitness>
12.5661

> <Gold.Chemscore.DG>
-14.2287

> <Gold.Chemscore.ZeroCoef>
-5.4800

> <Gold.Chemscore.Hbond>
1.0864

> <Gold.Chemscore.Metal>
0.0000

> <Gold.Chemscore.Lipo>
76.9679

> <Gold.Chemscore.Internal_Hbond>
0.0000

> <Gold.Chemscore.DEClash>
0.0799

> <Gold.Chemscore.DEInternal>
1.5827

> <Gold.Chemscore.Rot>
1.5176

> <Gold.Chemscore.Internal.Correction>
   9.000000E+99

> <Gold.Chemscore.Hbonds>
donor molecule, donor type, donor heavy atom, donor atom, acceptor molecule, acceptor atom, score
      L1  H     9    30       P1  7948  0.21
      L1  H    12    31       P1  7948  0.54
      P1  H  8011  8017       L1    18  0.11
      P1  H 10752 10764       L1    11  0.28

> <Gold.Chemscore.Hbond.Weighted>
-3.6286

> <Gold.Chemscore.Metal.Weighted>
-0.0000

> <Gold.Chemscore.Lipo.Weighted>
-9.0052

> <Gold.Chemscore.Internal_Hbond.Weighted>
0.0000

> <Gold.Chemscore.DEClash.Weighted>
0.0799

> <Gold.Chemscore.DEInternal.Weighted>
1.5827

> <Gold.Chemscore.Rot.Weighted>
3.8851

> <Gold.Chemscore.Internal.Correction.Weighted>
   9.000000E+99

> <Gold.Protein.RotatedTorsions>
[ 6907 6896 6895 6894 ] final   54.82 input  -60.11 | X-H torsion
[ 7974 7965 7964 7962 ] final   63.33 input  175.53 | X-H torsion
[ 8008 7997 7996 7995 ] final  -76.81 input   59.86 | X-H torsion
[ 10167 10162 10161 10158 ] final   91.95 input  -65.29 | X-H torsion
[ 10718 10713 10712 10709 ] final  -58.16 input   66.30 | X-H torsion
[ 10763 10752 10751 10750 ] final  -35.68 input  -60.55 | X-H torsion
[ 11005 11000 10999 10996 ] final   55.85 input  -57.11 | X-H torsion

> <Gold.Protein.ActiveResidues>
 VAL166  LYS551  ARG553  GLY616  TRP617  ASP618  TYR619  PRO620  LYS621  CYS622 
 ASP623  PHE694  ASN695  SER759  ASP760  ASP761  ALA762  ILE779  LEU786  VAL792 
 PHE793  MET794  SER795  GLU796  ALA797  LYS798  CYS799  TRP800  GLU811  SER814 

> <Gold.Protein.RotatedAtoms>
  152.3477  134.7048  160.0245 H   0  0  0  0  0  0  0  0  0  0  0  0  # atno 6907 bound_to 6896
  151.7412  133.3317  159.3374 H   0  0  0  0  0  0  0  0  0  0  0  0  # atno 6908 bound_to 6896
  150.7520  134.6209  159.6180 H   0  0  0  0  0  0  0  0  0  0  0  0  # atno 6909 bound_to 6896
  145.8631  139.3328  143.0807 H   0  0  0  0  0  0  0  0  0  0  0  0  # atno 7974 bound_to 7965
  154.5539  140.0721  156.8712 H   0  0  0  0  0  0  0  0  0  0  0  0  # atno 8008 bound_to 7997
  155.2940  140.3380  155.4233 H   0  0  0  0  0  0  0  0  0  0  0  0  # atno 8009 bound_to 7997
  156.1985  140.1712  156.7935 H   0  0  0  0  0  0  0  0  0  0  0  0  # atno 8010 bound_to 7997
  139.8325  144.6680  150.9382 H   0  0  0  0  0  0  0  0  0  0  0  0  # atno 10167 bound_to 10162
  156.1156  130.4171  150.0539 H   0  0  0  0  0  0  0  0  0  0  0  0  # atno 10718 bound_to 10713
  153.8673  135.6834  153.4777 H   0  0  0  0  0  0  0  0  0  0  0  0  # atno 10763 bound_to 10752
  153.1307  135.4699  154.9342 H   0  0  0  0  0  0  0  0  0  0  0  0  # atno 10764 bound_to 10752
  154.7731  135.3244  154.8099 H   0  0  0  0  0  0  0  0  0  0  0  0  # atno 10765 bound_to 10752
  140.0575  134.5650  155.9191 H   0  0  0  0  0  0  0  0  0  0  0  0  # atno 11005 bound_to 11000
  145.9225  140.9105  143.0398 LP  0  0  0  0  0  0  0  0  0  0  0  0  # atno 17320 bound_to 7965
  144.6726  140.1308  143.7444 LP  0  0  0  0  0  0  0  0  0  0  0  0  # atno 17321 bound_to 7965
  140.7805  143.3988  151.1185 LP  0  0  0  0  0  0  0  0  0  0  0  0  # atno 17342 bound_to 10162
  139.7640  143.8592  152.3106 LP  0  0  0  0  0  0  0  0  0  0  0  0  # atno 17343 bound_to 10162
  156.8490  130.9452  151.3627 LP  0  0  0  0  0  0  0  0  0  0  0  0  # atno 17370 bound_to 10713
  157.6339  130.8751  149.9324 LP  0  0  0  0  0  0  0  0  0  0  0  0  # atno 17371 bound_to 10713
  141.1958  133.6589  156.5662 LP  0  0  0  0  0  0  0  0  0  0  0  0  # atno 17394 bound_to 11000
  140.3822  134.7513  157.4668 LP  0  0  0  0  0  0  0  0  0  0  0  0  # atno 17395 bound_to 11000

$$$$
