AV-unprocessed.smi:3231|AV-procd|sdf|12336|dock6
  -GOLD-   2272018193D 1   1.00000     0.00000
 Structure written by MMmdl.
 42 43  0  0  0  0  0  0  0  0  3 V2000
  144.4423  138.0864  151.9836 O   0  0  0  0  0  0  0  0  0  0  0  0
  145.7536  137.5619  152.0417 C   0  0  1  0  0  0  0  0  0  0  0  0
  146.6953  138.7284  152.3959 C   0  0  0  0  0  0  0  0  0  0  0  0
  146.1687  139.5398  153.5122 N   0  3  0  0  0  0  0  0  0  0  0  0
  147.0606  140.6412  153.9237 C   0  0  0  0  0  0  0  0  0  0  0  0
  148.5262  140.1844  153.9457 C   0  0  0  0  0  0  0  0  0  0  0  0
  149.2584  140.7837  155.0441 N   0  0  0  0  0  0  0  0  0  0  0  0
  148.8671  141.8075  155.8812 C   0  0  0  0  0  0  0  0  0  0  0  0
  149.8905  142.0278  156.7577 C   0  0  0  0  0  0  0  0  0  0  0  0
  150.8783  141.0796  156.3705 C   0  0  0  0  0  0  0  0  0  0  0  0
  150.4968  140.3368  155.3437 N   0  0  0  0  0  0  0  0  0  0  0  0
  145.7894  136.4336  153.0971 C   0  0  0  0  0  0  0  0  0  0  0  0
  146.7066  135.3194  152.7404 N   0  3  0  0  0  0  0  0  0  0  0  0
  147.0923  134.4683  153.8942 C   0  0  0  0  0  0  0  0  0  0  0  0
  148.0561  133.3556  153.4463 C   0  0  0  0  0  0  0  0  0  0  0  0
  147.4510  132.5860  152.4154 O   0  0  0  0  0  0  0  0  0  0  0  0
  147.1636  133.3714  151.2660 C   0  0  0  0  0  0  0  0  0  0  0  0
  146.1687  134.4836  151.6396 C   0  0  0  0  0  0  0  0  0  0  0  0
  144.4822  139.0288  152.0404 H   0  0  0  0  0  0  0  0  0  0  0  0
  146.0121  137.1903  151.0505 H   0  0  0  0  0  0  0  0  0  0  0  0
  147.6698  138.3404  152.6970 H   0  0  0  0  0  0  0  0  0  0  0  0
  146.8620  139.3616  151.5229 H   0  0  0  0  0  0  0  0  0  0  0  0
  145.2834  139.9384  153.2346 H   0  0  0  0  0  0  0  0  0  0  0  0
  146.9418  141.4797  153.2359 H   0  0  0  0  0  0  0  0  0  0  0  0
  146.7606  140.9898  154.9128 H   0  0  0  0  0  0  0  0  0  0  0  0
  148.5889  139.0991  154.0404 H   0  0  0  0  0  0  0  0  0  0  0  0
  149.0224  140.4511  153.0115 H   0  0  0  0  0  0  0  0  0  0  0  0
  147.9047  142.2888  155.7860 H   0  0  0  0  0  0  0  0  0  0  0  0
  149.9290  142.7567  157.5536 H   0  0  0  0  0  0  0  0  0  0  0  0
  151.8540  140.9103  156.8017 H   0  0  0  0  0  0  0  0  0  0  0  0
  146.0793  136.8283  154.0720 H   0  0  0  0  0  0  0  0  0  0  0  0
  144.7774  136.0432  153.2192 H   0  0  0  0  0  0  0  0  0  0  0  0
  147.5727  135.0644  154.6687 H   0  0  0  0  0  0  0  0  0  0  0  0
  146.1993  134.0262  154.3389 H   0  0  0  0  0  0  0  0  0  0  0  0
  149.0020  133.7742  153.0985 H   0  0  0  0  0  0  0  0  0  0  0  0
  148.2883  132.7001  154.2859 H   0  0  0  0  0  0  0  0  0  0  0  0
  148.0836  133.7909  150.8559 H   0  0  0  0  0  0  0  0  0  0  0  0
  146.7363  132.7283  150.4965 H   0  0  0  0  0  0  0  0  0  0  0  0
  145.2167  134.0455  151.9434 H   0  0  0  0  0  0  0  0  0  0  0  0
  145.9718  135.1041  150.7646 H   0  0  0  0  0  0  0  0  0  0  0  0
  146.0182  138.9354  154.3076 H   0  0  0  0  0  0  0  0  0  0  0  0
  147.5528  135.7399  152.3835 H   0  0  0  0  0  0  0  0  0  0  0  0
  1  2  1  0  0  0  0
  1 19  1  0  0  0  0
  2  3  1  0  0  0  0
  2 12  1  0  0  0  0
  2 20  1  0  0  0  0
  3  4  1  0  0  0  0
  3 21  1  0  0  0  0
  3 22  1  0  0  0  0
  4  5  1  0  0  0  0
  4 23  1  0  0  0  0
  4 41  1  0  0  0  0
  5  6  1  0  0  0  0
  5 24  1  0  0  0  0
  5 25  1  0  0  0  0
  6  7  1  0  0  0  0
  6 26  1  0  0  0  0
  6 27  1  0  0  0  0
  7 11  1  0  0  0  0
  7  8  1  0  0  0  0
  8  9  2  0  0  0  0
  8 28  1  0  0  0  0
  9 10  1  0  0  0  0
  9 29  1  0  0  0  0
 10 11  2  0  0  0  0
 10 30  1  0  0  0  0
 12 13  1  0  0  0  0
 12 31  1  0  0  0  0
 12 32  1  0  0  0  0
 13 18  1  0  0  0  0
 13 14  1  0  0  0  0
 13 42  1  0  0  0  0
 14 15  1  0  0  0  0
 14 33  1  0  0  0  0
 14 34  1  0  0  0  0
 15 16  1  0  0  0  0
 15 35  1  0  0  0  0
 15 36  1  0  0  0  0
 16 17  1  0  0  0  0
 17 18  1  0  0  0  0
 17 37  1  0  0  0  0
 17 38  1  0  0  0  0
 18 39  1  0  0  0  0
 18 40  1  0  0  0  0
M  CHG  1   4   1
M  CHG  1  13   1
M  END
> <s_m_source_file>
AV-unprocessed.smi

> <i_m_source_file_index>
3231

> <i_lp_mmshare_version>
43012

> <i_f3d_flags>
0

> <s_epik_input>
W0NIMl0xW0NIMl1PW0NIMl1bQ0gyXU4xW0NIMl1bQ0BIXShbT0hdKVtDSDJdW05IXVtDSDJdW0NIMl1uMltjSF1bY0hdW2NIXW4y

> <s_epik_cmdline>
J2VwaWtfcHl0aG9uJywgJy1waCcsICc3LjAnLCAnLXRuJywgJzgnLCAnLW1hJywgJzIwMCcsICctbWV0YWxfYmluZGluZycsICctaW1hZScsICc8aW5maWxlLm1hZT4nLCAnLW9tYWUnLCAnPG91dGZpbGUubWFlPic=

> <r_lp_tautomer_probability>
1

> <r_epik_Ionization_Penalty>
2.09881

> <r_epik_Ionization_Penalty_Charging>
2.09628

> <r_epik_Ionization_Penalty_Neutral>
0.0025303

> <r_epik_State_Penalty>
1.58657

> <r_epik_Charging_Adjusted_Penalty>
3.68285

> <i_epik_Tot_Q>
2

> <i_epik_Tot_abs_Q>
2

> <r_epik_Metal_State_Penalty>
1.58685

> <b_epik_Metal_Only>
0

> <s_lp_Force_Field>
OPLS_2005

> <r_lp_Energy>
27.3068

> <b_lp_Chiralities_Consistent>
1

> <s_lp_Variant>
AV-unprocessed.smi:3231-6

> <Gold.Version>
5.8.1

> <Gold.Id.Protein>
6NUR|6NUR_protein|mol2

> <Gold.PLP.Fitness>
48.7984

> <Gold.PLP.PLP>
-31.7879

> <Gold.PLP.part.hbond>
-4.6279

> <Gold.PLP.part.metal>
0.0000

> <Gold.PLP.part.buried>
0.4564

> <Gold.PLP.part.nonpolar>
-28.2698

> <Gold.PLP.part.repulsive>
0.2005

> <Gold.PLP.ligand.clash>
0.0000

> <Gold.PLP.ligand.torsion>
1.1389

> <Gold.PLP.Chemscore.Hbond>
5.9280

> <Gold.PLP.Chemscore.CHOScore>
0.4107

> <Gold.PLP.Chemscore.Metal>
0.0000

> <Gold.Chemscore.Hbonds>
donor molecule, donor type, donor heavy atom, donor atom, acceptor molecule, acceptor atom, score
      L1  H     1    19       P1 10175  0.93
      L1  H     4    23       P1 10175  2.00
      L1  H    13    42       P1  7948  2.00
      P1  H  7989  7998       L1    11  0.50
      L1  C     8    28       P1  8028  0.26

> <Gold.PLP.Chemscore.Internal.Correction>
0.2720

> <Gold.Rescore>
     Score         DG    S(hbond)    S(metal)    S(lipo)     H(rot)  DE(clash)    DE(int)     intcor
     15.97     -17.47       3.53        0.00      66.12       2.94       0.49       1.01       ----

> <Gold.Chemscore.Fitness>
15.9677

> <Gold.Chemscore.DG>
-17.4726

> <Gold.Chemscore.ZeroCoef>
-5.4800

> <Gold.Chemscore.Hbond>
3.5308

> <Gold.Chemscore.Metal>
0.0000

> <Gold.Chemscore.Lipo>
66.1154

> <Gold.Chemscore.Internal_Hbond>
0.0000

> <Gold.Chemscore.DEClash>
0.4923

> <Gold.Chemscore.DEInternal>
1.0126

> <Gold.Chemscore.Rot>
2.9437

> <Gold.Chemscore.Internal.Correction>
   9.000000E+99

> <Gold.Chemscore.Hbonds>
donor molecule, donor type, donor heavy atom, donor atom, acceptor molecule, acceptor atom, score
      L1  H     1    19       P1 10175  0.89
      L1  H     4    23       P1 10175  1.00
      L1  H    13    42       P1  7948  0.95
      P1  H  7989  7998       L1    11  0.13

> <Gold.Chemscore.Hbond.Weighted>
-11.7930

> <Gold.Chemscore.Metal.Weighted>
-0.0000

> <Gold.Chemscore.Lipo.Weighted>
-7.7355

> <Gold.Chemscore.Internal_Hbond.Weighted>
0.0000

> <Gold.Chemscore.DEClash.Weighted>
0.4923

> <Gold.Chemscore.DEInternal.Weighted>
1.0126

> <Gold.Chemscore.Rot.Weighted>
7.5359

> <Gold.Chemscore.Internal.Correction.Weighted>
   9.000000E+99

> <Gold.Protein.RotatedTorsions>
[ 6907 6896 6895 6894 ] final -104.17 input  -60.11 | X-H torsion
[ 7974 7965 7964 7962 ] final  -95.14 input  175.53 | X-H torsion
[ 8008 7997 7996 7995 ] final -108.59 input   59.86 | X-H torsion
[ 10167 10162 10161 10158 ] final -124.10 input  -65.29 | X-H torsion
[ 10718 10713 10712 10709 ] final   10.22 input   66.30 | X-H torsion
[ 10763 10752 10751 10750 ] final   69.84 input  -60.55 | X-H torsion
[ 11005 11000 10999 10996 ] final -111.72 input  -57.11 | X-H torsion

> <Gold.Protein.ActiveResidues>
 VAL166  LYS551  ARG553  GLY616  TRP617  ASP618  TYR619  PRO620  LYS621  CYS622 
 ASP623  PHE694  ASN695  SER759  ASP760  ASP761  ALA762  ILE779  LEU786  VAL792 
 PHE793  MET794  SER795  GLU796  ALA797  LYS798  CYS799  TRP800  GLU811  SER814 

> <Gold.Protein.RotatedAtoms>
  150.7274  134.0318  159.3735 H   0  0  0  0  0  0  0  0  0  0  0  0  # atno 6907 bound_to 6896
  151.8288  135.0626  160.0443 H   0  0  0  0  0  0  0  0  0  0  0  0  # atno 6908 bound_to 6896
  152.2949  133.5561  159.5617 H   0  0  0  0  0  0  0  0  0  0  0  0  # atno 6909 bound_to 6896
  145.3640  140.9496  143.2485 H   0  0  0  0  0  0  0  0  0  0  0  0  # atno 7974 bound_to 7965
  154.9466  140.0401  157.2123 H   0  0  0  0  0  0  0  0  0  0  0  0  # atno 8008 bound_to 7997
  154.8018  140.2853  155.5894 H   0  0  0  0  0  0  0  0  0  0  0  0  # atno 8009 bound_to 7997
  156.2962  140.2553  156.2888 H   0  0  0  0  0  0  0  0  0  0  0  0  # atno 8010 bound_to 7997
  139.9964  143.5586  152.2321 H   0  0  0  0  0  0  0  0  0  0  0  0  # atno 10167 bound_to 10162
  156.9778  130.5994  149.5674 H   0  0  0  0  0  0  0  0  0  0  0  0  # atno 10718 bound_to 10713
  153.0309  135.5196  154.7349 H   0  0  0  0  0  0  0  0  0  0  0  0  # atno 10763 bound_to 10752
  154.6366  135.2907  155.0156 H   0  0  0  0  0  0  0  0  0  0  0  0  # atno 10764 bound_to 10752
  154.1089  135.6625  153.4934 H   0  0  0  0  0  0  0  0  0  0  0  0  # atno 10765 bound_to 10752
  141.0717  133.9368  157.2471 H   0  0  0  0  0  0  0  0  0  0  0  0  # atno 11005 bound_to 11000
  144.8625  139.5156  143.6805 LP  0  0  0  0  0  0  0  0  0  0  0  0  # atno 17320 bound_to 7965
  146.2915  139.7152  142.9158 LP  0  0  0  0  0  0  0  0  0  0  0  0  # atno 17321 bound_to 7965
  139.6303  144.7643  151.2551 LP  0  0  0  0  0  0  0  0  0  0  0  0  # atno 17342 bound_to 10162
  140.7435  143.6491  150.8264 LP  0  0  0  0  0  0  0  0  0  0  0  0  # atno 17343 bound_to 10162
  156.0256  130.5350  150.8398 LP  0  0  0  0  0  0  0  0  0  0  0  0  # atno 17370 bound_to 10713
  157.5547  131.0944  150.9645 LP  0  0  0  0  0  0  0  0  0  0  0  0  # atno 17371 bound_to 10713
  139.9530  135.0171  156.9049 LP  0  0  0  0  0  0  0  0  0  0  0  0  # atno 17394 bound_to 11000
  140.5659  134.0490  155.7414 LP  0  0  0  0  0  0  0  0  0  0  0  0  # atno 17395 bound_to 11000

$$$$
