AV-unprocessed.smi:1321|AV-procd|sdf|5462|dock1
  -GOLD-   22720 5 33D 1   1.00000     0.00000
 Structure written by MMmdl.
 43 44  0  0  0  0  0  0  0  0  1 V2000
  152.9736  144.4274  158.2328 C   0  0  0  0  0  0  0  0  0  0  0  0
  152.3782  143.3413  159.1599 C   0  0  0  0  0  0  0  0  0  0  0  0
  153.4731  142.2966  159.4629 C   0  0  0  0  0  0  0  0  0  0  0  0
  151.9252  143.9942  160.4813 C   0  0  0  0  0  0  0  0  0  0  0  0
  151.1592  142.6278  158.5275 C   0  0  0  0  0  0  0  0  0  0  0  0
  150.0556  142.7187  159.0667 O   0  0  0  0  0  0  0  0  0  0  0  0
  151.3494  141.9404  157.3883 N   0  0  0  0  0  0  0  0  0  0  0  0
  150.3129  141.2933  156.5915 C   0  0  0  0  0  0  0  0  0  0  0  0
  150.8666  140.1286  155.7808 C   0  0  0  0  0  0  0  0  0  0  0  0
  152.1717  139.6624  156.0477 C   0  0  0  0  0  0  0  0  0  0  0  0
  152.6972  138.6087  155.2784 C   0  0  0  0  0  0  0  0  0  0  0  0
  151.8929  138.0597  154.2636 C   0  0  0  0  0  0  0  0  0  0  0  0
  150.6445  138.4941  153.9951 N   0  0  0  0  0  0  0  0  0  0  0  0
  150.1334  139.5098  154.7332 C   0  0  0  0  0  0  0  0  0  0  0  0
  148.8235  139.9249  154.4380 N   0  0  0  0  0  0  0  0  0  0  0  0
  148.6594  141.3301  154.0817 C   0  0  0  0  0  0  0  0  0  0  0  0
  147.1638  141.6678  153.9607 C   0  0  0  0  0  0  0  0  0  0  0  0
  146.5528  140.7938  153.0155 O   0  0  0  0  0  0  0  0  0  0  0  0
  146.6518  139.4272  153.4069 C   0  0  0  0  0  0  0  0  0  0  0  0
  148.1330  139.0263  153.5223 C   0  0  0  0  0  0  0  0  0  0  0  0
  153.8522  144.8893  158.6844 H   0  0  0  0  0  0  0  0  0  0  0  0
  152.2608  145.2290  158.0336 H   0  0  0  0  0  0  0  0  0  0  0  0
  153.2875  144.0112  157.2742 H   0  0  0  0  0  0  0  0  0  0  0  0
  153.7907  141.7774  158.5577 H   0  0  0  0  0  0  0  0  0  0  0  0
  153.1315  141.5424  160.1734 H   0  0  0  0  0  0  0  0  0  0  0  0
  154.3568  142.7660  159.8961 H   0  0  0  0  0  0  0  0  0  0  0  0
  152.7544  144.5028  160.9742 H   0  0  0  0  0  0  0  0  0  0  0  0
  151.5339  143.2578  161.1846 H   0  0  0  0  0  0  0  0  0  0  0  0
  151.1421  144.7349  160.3120 H   0  0  0  0  0  0  0  0  0  0  0  0
  152.2875  141.9073  157.0170 H   0  0  0  0  0  0  0  0  0  0  0  0
  149.5475  140.9262  157.2756 H   0  0  0  0  0  0  0  0  0  0  0  0
  149.8026  141.9978  155.9341 H   0  0  0  0  0  0  0  0  0  0  0  0
  152.7685  140.1101  156.8287 H   0  0  0  0  0  0  0  0  0  0  0  0
  153.6931  138.2329  155.4595 H   0  0  0  0  0  0  0  0  0  0  0  0
  152.2614  137.2503  153.6508 H   0  0  0  0  0  0  0  0  0  0  0  0
  149.1272  141.9600  154.8393 H   0  0  0  0  0  0  0  0  0  0  0  0
  149.1584  141.5343  153.1335 H   0  0  0  0  0  0  0  0  0  0  0  0
  146.6643  141.5822  154.9267 H   0  0  0  0  0  0  0  0  0  0  0  0
  147.0368  142.6977  153.6270 H   0  0  0  0  0  0  0  0  0  0  0  0
  146.1302  139.2700  154.3521 H   0  0  0  0  0  0  0  0  0  0  0  0
  146.1518  138.8073  152.6627 H   0  0  0  0  0  0  0  0  0  0  0  0
  148.6100  139.0745  152.5423 H   0  0  0  0  0  0  0  0  0  0  0  0
  148.2151  137.9953  153.8677 H   0  0  0  0  0  0  0  0  0  0  0  0
  1  2  1  0  0  0  0
  1 21  1  0  0  0  0
  1 22  1  0  0  0  0
  1 23  1  0  0  0  0
  2  3  1  0  0  0  0
  2  4  1  0  0  0  0
  2  5  1  0  0  0  0
  3 24  1  0  0  0  0
  3 25  1  0  0  0  0
  3 26  1  0  0  0  0
  4 27  1  0  0  0  0
  4 28  1  0  0  0  0
  4 29  1  0  0  0  0
  5  6  2  0  0  0  0
  5  7  1  0  0  0  0
  7  8  1  0  0  0  0
  7 30  1  0  0  0  0
  8  9  1  0  0  0  0
  8 31  1  0  0  0  0
  8 32  1  0  0  0  0
  9 14  1  0  0  0  0
  9 10  2  0  0  0  0
 10 11  1  0  0  0  0
 10 33  1  0  0  0  0
 11 12  2  0  0  0  0
 11 34  1  0  0  0  0
 12 13  1  0  0  0  0
 12 35  1  0  0  0  0
 13 14  2  0  0  0  0
 14 15  1  0  0  0  0
 15 20  1  0  0  0  0
 15 16  1  0  0  0  0
 16 17  1  0  0  0  0
 16 36  1  0  0  0  0
 16 37  1  0  0  0  0
 17 18  1  0  0  0  0
 17 38  1  0  0  0  0
 17 39  1  0  0  0  0
 18 19  1  0  0  0  0
 19 20  1  0  0  0  0
 19 40  1  0  0  0  0
 19 41  1  0  0  0  0
 20 42  1  0  0  0  0
 20 43  1  0  0  0  0
M  END
> <s_m_source_file>
AV-unprocessed.smi

> <i_m_source_file_index>
1321

> <i_lp_mmshare_version>
43012

> <i_f3d_flags>
0

> <s_epik_input>
W0NIM11DKFtDSDNdKShbQ0gzXSlDKD1PKVtOSF1bQ0gyXWMxW2NIXVtjSF1bY0hdbmMxTjJbQ0gyXVtDSDJdT1tDSDJdW0NIMl0y

> <s_epik_cmdline>
J2VwaWtfcHl0aG9uJywgJy1waCcsICc3LjAnLCAnLXRuJywgJzgnLCAnLW1hJywgJzIwMCcsICctbWV0YWxfYmluZGluZycsICctaW1hZScsICc8aW5maWxlLm1hZT4nLCAnLW9tYWUnLCAnPG91dGZpbGUubWFlPic=

> <r_lp_tautomer_probability>
1

> <r_epik_Ionization_Penalty>
0.0052234

> <r_epik_Ionization_Penalty_Charging>
0

> <r_epik_Ionization_Penalty_Neutral>
0.0052234

> <r_epik_State_Penalty>
0.0038086

> <r_epik_Charging_Adjusted_Penalty>
0.0038086

> <i_epik_Tot_Q>
0

> <i_epik_Tot_abs_Q>
0

> <r_epik_Metal_State_Penalty>
-0

> <b_epik_Metal_Only>
0

> <s_lp_Force_Field>
OPLS_2005

> <r_lp_Energy>
23.2048

> <b_lp_Chiralities_Consistent>
1

> <s_lp_Variant>
AV-unprocessed.smi:1321-1

> <Gold.Version>
5.8.1

> <Gold.Id.Protein>
6NUR|6NUR_protein|mol2

> <Gold.PLP.Fitness>
42.1419

> <Gold.PLP.PLP>
-41.1647

> <Gold.PLP.part.hbond>
-1.0000

> <Gold.PLP.part.metal>
0.0000

> <Gold.PLP.part.buried>
-2.1523

> <Gold.PLP.part.nonpolar>
-39.7845

> <Gold.PLP.part.repulsive>
1.9752

> <Gold.PLP.ligand.clash>
0.0000

> <Gold.PLP.ligand.torsion>
0.4389

> <Gold.PLP.Chemscore.Hbond>
0.0000

> <Gold.PLP.Chemscore.CHOScore>
0.5516

> <Gold.PLP.Chemscore.Metal>
0.0000

> <Gold.Chemscore.Hbonds>
donor molecule, donor type, donor heavy atom, donor atom, acceptor molecule, acceptor atom, score
      L1  C    12    35       P1  7949  0.52

> <Gold.PLP.Chemscore.Internal.Correction>
0.2002

> <Gold.Rescore>
     Score         DG    S(hbond)    S(metal)    S(lipo)     H(rot)  DE(clash)    DE(int)     intcor
     13.79     -14.64       0.00        0.00     111.46       1.52       0.37       0.47       ----

> <Gold.Chemscore.Fitness>
13.7947

> <Gold.Chemscore.DG>
-14.6366

> <Gold.Chemscore.ZeroCoef>
-5.4800

> <Gold.Chemscore.Hbond>
0.0000

> <Gold.Chemscore.Metal>
0.0000

> <Gold.Chemscore.Lipo>
111.4608

> <Gold.Chemscore.Internal_Hbond>
0.0000

> <Gold.Chemscore.DEClash>
0.3744

> <Gold.Chemscore.DEInternal>
0.4675

> <Gold.Chemscore.Rot>
1.5173

> <Gold.Chemscore.Internal.Correction>
   9.000000E+99

> <Gold.Chemscore.Hbond.Weighted>
-0.0000

> <Gold.Chemscore.Metal.Weighted>
-0.0000

> <Gold.Chemscore.Lipo.Weighted>
-13.0409

> <Gold.Chemscore.Internal_Hbond.Weighted>
0.0000

> <Gold.Chemscore.DEClash.Weighted>
0.3744

> <Gold.Chemscore.DEInternal.Weighted>
0.4675

> <Gold.Chemscore.Rot.Weighted>
3.8843

> <Gold.Chemscore.Internal.Correction.Weighted>
   9.000000E+99

> <Gold.Protein.RotatedTorsions>
[ 6907 6896 6895 6894 ] final -136.84 input  -60.11 | X-H torsion
[ 7974 7965 7964 7962 ] final -120.33 input  175.53 | X-H torsion
[ 8008 7997 7996 7995 ] final -176.37 input   59.86 | X-H torsion
[ 10167 10162 10161 10158 ] final  -93.22 input  -65.29 | X-H torsion
[ 10718 10713 10712 10709 ] final   27.55 input   66.30 | X-H torsion
[ 10763 10752 10751 10750 ] final  152.70 input  -60.55 | X-H torsion
[ 11005 11000 10999 10996 ] final   90.78 input  -57.11 | X-H torsion

> <Gold.Protein.ActiveResidues>
 VAL166  LYS551  ARG553  GLY616  TRP617  ASP618  TYR619  PRO620  LYS621  CYS622 
 ASP623  PHE694  ASN695  SER759  ASP760  ASP761  ALA762  ILE779  LEU786  VAL792 
 PHE793  MET794  SER795  GLU796  ALA797  LYS798  CYS799  TRP800  GLU811  SER814 

> <Gold.Protein.RotatedAtoms>
  151.0151  133.5929  159.2677 H   0  0  0  0  0  0  0  0  0  0  0  0  # atno 6907 bound_to 6896
  151.3066  135.0782  159.9267 H   0  0  0  0  0  0  0  0  0  0  0  0  # atno 6908 bound_to 6896
  152.5309  133.9823  159.7866 H   0  0  0  0  0  0  0  0  0  0  0  0  # atno 6909 bound_to 6896
  145.0525  140.8229  143.4201 H   0  0  0  0  0  0  0  0  0  0  0  0  # atno 7974 bound_to 7965
  155.9940  140.1207  157.0611 H   0  0  0  0  0  0  0  0  0  0  0  0  # atno 8008 bound_to 7997
  154.4221  140.1120  156.5674 H   0  0  0  0  0  0  0  0  0  0  0  0  # atno 8009 bound_to 7997
  155.6303  140.3473  155.4683 H   0  0  0  0  0  0  0  0  0  0  0  0  # atno 8010 bound_to 7997
  140.3269  143.3017  151.9985 H   0  0  0  0  0  0  0  0  0  0  0  0  # atno 10167 bound_to 10162
  157.2217  130.6982  149.6273 H   0  0  0  0  0  0  0  0  0  0  0  0  # atno 10718 bound_to 10713
  154.1242  135.2831  155.3201 H   0  0  0  0  0  0  0  0  0  0  0  0  # atno 10763 bound_to 10752
  154.6402  135.5405  153.7783 H   0  0  0  0  0  0  0  0  0  0  0  0  # atno 10764 bound_to 10752
  153.0303  135.6484  154.1395 H   0  0  0  0  0  0  0  0  0  0  0  0  # atno 10765 bound_to 10752
  139.8850  134.8634  156.3334 H   0  0  0  0  0  0  0  0  0  0  0  0  # atno 11005 bound_to 11000
  145.1509  139.2515  143.5441 LP  0  0  0  0  0  0  0  0  0  0  0  0  # atno 17320 bound_to 7965
  146.3519  140.1211  142.8600 LP  0  0  0  0  0  0  0  0  0  0  0  0  # atno 17321 bound_to 7965
  139.4863  144.6266  151.7152 LP  0  0  0  0  0  0  0  0  0  0  0  0  # atno 17342 bound_to 10162
  140.5433  144.0545  150.6097 LP  0  0  0  0  0  0  0  0  0  0  0  0  # atno 17343 bound_to 10162
  155.9682  130.4518  150.5748 LP  0  0  0  0  0  0  0  0  0  0  0  0  # atno 17370 bound_to 10713
  157.3569  131.0743  151.1668 LP  0  0  0  0  0  0  0  0  0  0  0  0  # atno 17371 bound_to 10713
  140.9708  133.7329  156.0531 LP  0  0  0  0  0  0  0  0  0  0  0  0  # atno 17394 bound_to 11000
  140.7873  134.3657  157.5473 LP  0  0  0  0  0  0  0  0  0  0  0  0  # atno 17395 bound_to 11000

$$$$
