AV-unprocessed.smi:54|AV-procd|sdf|538|dock2
  -GOLD-   2262016423D 1   1.00000     0.00000
 Structure written by MMmdl.
 44 46  0  0  0  0  0  0  0  0  1 V2000
  145.7050  137.1676  161.7082 C   0  0  0  0  0  0  0  0  0  0  0  0
  146.8132  136.1023  161.7090 C   0  0  0  0  0  0  0  0  0  0  0  0
  147.6331  136.1526  163.0086 C   0  0  0  0  0  0  0  0  0  0  0  0
  147.7238  136.2721  160.4875 C   0  0  0  0  0  0  0  0  0  0  0  0
  148.3231  137.3240  160.2616 O   0  0  0  0  0  0  0  0  0  0  0  0
  147.8223  135.1122  159.6187 N   0  0  0  0  0  0  0  0  0  0  0  0
  148.5456  134.9972  158.4807 C   0  0  0  0  0  0  0  0  0  0  0  0
  148.9520  136.0403  157.7714 N   0  0  0  0  0  0  0  0  0  0  0  0
  149.6670  135.7241  156.6499 C   0  0  0  0  0  0  0  0  0  0  0  0
  150.0036  134.4575  156.2208 C   0  0  0  0  0  0  0  0  0  0  0  0
  150.7503  134.5323  155.0509 N   0  0  0  0  0  0  0  0  0  0  0  0
  150.8419  135.8116  154.8145 C   0  0  0  0  0  0  0  0  0  0  0  0
  150.1849  136.6073  155.7258 N   0  0  0  0  0  0  0  0  0  0  0  0
  150.0896  138.1033  155.7998 C   0  0  1  0  0  0  0  0  0  0  0  0
  150.5570  138.5224  157.0431 O   0  0  0  0  0  0  0  0  0  0  0  0
  151.9593  138.7424  156.9653 C   0  0  2  0  0  0  0  0  0  0  0  0
  152.4120  139.6436  158.1234 C   0  0  0  0  0  0  0  0  0  0  0  0
  153.8014  139.5046  158.3287 O   0  0  0  0  0  0  0  0  0  0  0  0
  152.1144  139.3932  155.5860 C   0  0  1  0  0  0  0  0  0  0  0  0
  153.3856  139.0877  155.0477 O   0  0  0  0  0  0  0  0  0  0  0  0
  151.0034  138.7594  154.7468 C   0  0  2  0  0  0  0  0  0  0  0  0
  150.3115  139.7462  154.0089 O   0  0  0  0  0  0  0  0  0  0  0  0
  149.5803  133.3177  156.9824 C   0  0  0  0  0  0  0  0  0  0  0  0
  149.7861  132.1280  156.7522 O   0  0  0  0  0  0  0  0  0  0  0  0
  148.8432  133.6840  158.1162 N   0  0  0  0  0  0  0  0  0  0  0  0
  149.0250  138.3077  155.6757 H   0  0  0  0  0  0  0  0  0  0  0  0
  152.4857  137.7860  156.9863 H   0  0  0  0  0  0  0  0  0  0  0  0
  151.9845  140.4744  155.6580 H   0  0  0  0  0  0  0  0  0  0  0  0
  151.3914  138.0067  154.0584 H   0  0  0  0  0  0  0  0  0  0  0  0
  145.1177  137.1285  160.7901 H   0  0  0  0  0  0  0  0  0  0  0  0
  146.1158  138.1741  161.7984 H   0  0  0  0  0  0  0  0  0  0  0  0
  145.0186  137.0157  162.5416 H   0  0  0  0  0  0  0  0  0  0  0  0
  146.3395  135.1215  161.6479 H   0  0  0  0  0  0  0  0  0  0  0  0
  148.4226  135.4001  163.0092 H   0  0  0  0  0  0  0  0  0  0  0  0
  147.0004  135.9627  163.8761 H   0  0  0  0  0  0  0  0  0  0  0  0
  148.1017  137.1274  163.1500 H   0  0  0  0  0  0  0  0  0  0  0  0
  147.2671  134.3128  159.8855 H   0  0  0  0  0  0  0  0  0  0  0  0
  151.3904  136.2002  153.9686 H   0  0  0  0  0  0  0  0  0  0  0  0
  152.2203  140.6889  157.8805 H   0  0  0  0  0  0  0  0  0  0  0  0
  151.8664  139.4180  159.0401 H   0  0  0  0  0  0  0  0  0  0  0  0
  153.9462  138.7931  158.9336 H   0  0  0  0  0  0  0  0  0  0  0  0
  153.2773  138.8409  154.1418 H   0  0  0  0  0  0  0  0  0  0  0  0
  150.2161  139.4441  153.1187 H   0  0  0  0  0  0  0  0  0  0  0  0
  148.5093  132.9305  158.6988 H   0  0  0  0  0  0  0  0  0  0  0  0
  1  2  1  0  0  0  0
  1 30  1  0  0  0  0
  1 31  1  0  0  0  0
  1 32  1  0  0  0  0
  2  3  1  0  0  0  0
  2  4  1  0  0  0  0
  2 33  1  0  0  0  0
  3 34  1  0  0  0  0
  3 35  1  0  0  0  0
  3 36  1  0  0  0  0
  4  5  2  0  0  0  0
  4  6  1  0  0  0  0
  6 37  1  0  0  0  0
  6  7  1  0  0  0  0
  7 25  1  0  0  0  0
  7  8  2  0  0  0  0
  8  9  1  0  0  0  0
  9 13  1  0  0  0  0
  9 10  2  0  0  0  0
 10 11  1  0  0  0  0
 10 23  1  0  0  0  0
 11 12  2  0  0  0  0
 12 13  1  0  0  0  0
 12 38  1  0  0  0  0
 13 14  1  0  0  0  0
 14 26  1  0  0  0  0
 14 21  1  0  0  0  0
 14 15  1  0  0  0  0
 15 16  1  0  0  0  0
 16 27  1  0  0  0  0
 16 17  1  0  0  0  0
 16 19  1  0  0  0  0
 17 18  1  0  0  0  0
 17 39  1  0  0  0  0
 17 40  1  0  0  0  0
 18 41  1  0  0  0  0
 19 28  1  0  0  0  0
 19 20  1  0  0  0  0
 19 21  1  0  0  0  0
 20 42  1  0  0  0  0
 21 29  1  0  0  0  0
 21 22  1  0  0  0  0
 22 43  1  0  0  0  0
 23 24  2  0  0  0  0
 23 25  1  0  0  0  0
 25 44  1  0  0  0  0
M  END
> <s_m_source_file>
AV-unprocessed.smi

> <i_m_source_file_index>
54

> <i_lp_mmshare_version>
43012

> <i_f3d_flags>
0

> <s_epik_input>
W0NIM11bQ0hdKFtDSDNdKUMoPU8pW05IXWMobjEpW25IXWMoPU8pYyhjMTIpbltjSF1uMltDQEBIXTNPW0NASF0oW0NIMl1bT0hdKVtDQEBIXShbT0hdKVtDQEhdM1tPSF0=

> <s_epik_cmdline>
J2VwaWtfcHl0aG9uJywgJy1waCcsICc3LjAnLCAnLXRuJywgJzgnLCAnLW1hJywgJzIwMCcsICctbWV0YWxfYmluZGluZycsICctaW1hZScsICc8aW5maWxlLm1hZT4nLCAnLW9tYWUnLCAnPG91dGZpbGUubWFlPic=

> <r_lp_tautomer_probability>
0.85571

> <r_epik_Ionization_Penalty>
0.0316551

> <r_epik_Ionization_Penalty_Charging>
0.0316043

> <r_epik_Ionization_Penalty_Neutral>
5.07097e-05

> <r_epik_State_Penalty>
3.15494e-07

> <r_epik_Charging_Adjusted_Penalty>
0.0316047

> <i_epik_Tot_Q>
0

> <i_epik_Tot_abs_Q>
0

> <r_epik_Metal_State_Penalty>
0.421206

> <b_epik_Metal_Only>
0

> <s_epik_Chemistry_Notes>
This compound contains an acetal/aminal-like group ( X-CH(R)-Y where X, Y are N, S, or O) that may be acid/base labile, releasing an aldehyde.

> <s_lp_Force_Field>
OPLS_2005

> <r_lp_Energy>
36.3126

> <b_lp_Chiralities_Consistent>
1

> <s_lp_Variant>
AV-unprocessed.smi:54-10

> <Gold.Version>
5.8.1

> <Gold.Id.Protein>
6NUR|6NUR_protein|mol2

> <Gold.PLP.Fitness>
48.2080

> <Gold.PLP.PLP>
-32.6883

> <Gold.PLP.part.hbond>
-6.0000

> <Gold.PLP.part.metal>
0.0000

> <Gold.PLP.part.buried>
-4.8834

> <Gold.PLP.part.nonpolar>
-22.8733

> <Gold.PLP.part.repulsive>
0.2658

> <Gold.PLP.ligand.clash>
0.0000

> <Gold.PLP.ligand.torsion>
0.4897

> <Gold.PLP.Chemscore.Hbond>
4.4680

> <Gold.PLP.Chemscore.CHOScore>
1.0000

> <Gold.PLP.Chemscore.Metal>
0.0000

> <Gold.Chemscore.Hbonds>
donor molecule, donor type, donor heavy atom, donor atom, acceptor molecule, acceptor atom, score
      L1  H    22    43       P1  7957  0.67
      P1  H  6931  6943       L1     5  0.61
      P1  H  6934  6947       L1     5  0.42
      P1  H  7989  7998       L1    22  0.45
      P1  H  7997  8008       L1    20  0.96
      P1  H  7997  8010       L1    18  0.94
      L1  C    12    38       P1  7949  1.00

> <Gold.PLP.Chemscore.Internal.Correction>
0.0951

> <Gold.Rescore>
     Score         DG    S(hbond)    S(metal)    S(lipo)     H(rot)  DE(clash)    DE(int)     intcor
     11.05     -12.82       3.47        0.00      52.18       4.05       0.00       1.77       ----

> <Gold.Chemscore.Fitness>
11.0464

> <Gold.Chemscore.DG>
-12.8178

> <Gold.Chemscore.ZeroCoef>
-5.4800

> <Gold.Chemscore.Hbond>
3.4728

> <Gold.Chemscore.Metal>
0.0000

> <Gold.Chemscore.Lipo>
52.1773

> <Gold.Chemscore.Internal_Hbond>
0.0000

> <Gold.Chemscore.DEClash>
0.0000

> <Gold.Chemscore.DEInternal>
1.7714

> <Gold.Chemscore.Rot>
4.0493

> <Gold.Chemscore.Internal.Correction>
   9.000000E+99

> <Gold.Chemscore.Hbonds>
donor molecule, donor type, donor heavy atom, donor atom, acceptor molecule, acceptor atom, score
      L1  H    22    43       P1  7957  0.62
      P1  H  6931  6943       L1     5  0.53
      P1  H  6934  6947       L1     5  0.35
      P1  H  7989  7998       L1    22  0.01
      P1  H  7997  8008       L1    20  0.75
      P1  H  7997  8010       L1    18  0.89

> <Gold.Chemscore.Hbond.Weighted>
-11.5993

> <Gold.Chemscore.Metal.Weighted>
-0.0000

> <Gold.Chemscore.Lipo.Weighted>
-6.1047

> <Gold.Chemscore.Internal_Hbond.Weighted>
0.0000

> <Gold.Chemscore.DEClash.Weighted>
0.0000

> <Gold.Chemscore.DEInternal.Weighted>
1.7714

> <Gold.Chemscore.Rot.Weighted>
10.3662

> <Gold.Chemscore.Internal.Correction.Weighted>
   9.000000E+99

> <Gold.Protein.RotatedTorsions>
[ 6907 6896 6895 6894 ] final  -18.66 input  -60.11 | X-H torsion
[ 7974 7965 7964 7962 ] final  -95.29 input  175.53 | X-H torsion
[ 8008 7997 7996 7995 ] final    3.12 input   59.86 | X-H torsion
[ 10167 10162 10161 10158 ] final   38.02 input  -65.29 | X-H torsion
[ 10718 10713 10712 10709 ] final   54.29 input   66.30 | X-H torsion
[ 10763 10752 10751 10750 ] final   -8.23 input  -60.55 | X-H torsion
[ 11005 11000 10999 10996 ] final -123.39 input  -57.11 | X-H torsion

> <Gold.Protein.ActiveResidues>
 VAL166  LYS551  ARG553  GLY616  TRP617  ASP618  TYR619  PRO620  LYS621  CYS622 
 ASP623  PHE694  ASN695  SER759  ASP760  ASP761  ALA762  ILE779  LEU786  VAL792 
 PHE793  MET794  SER795  GLU796  ALA797  LYS798  CYS799  TRP800  GLU811  SER814 

> <Gold.Protein.RotatedAtoms>
  151.2748  135.0696  159.9147 H   0  0  0  0  0  0  0  0  0  0  0  0  # atno 6907 bound_to 6896
  152.5344  134.0092  159.7941 H   0  0  0  0  0  0  0  0  0  0  0  0  # atno 6908 bound_to 6896
  151.0336  133.5717  159.2689 H   0  0  0  0  0  0  0  0  0  0  0  0  # atno 6909 bound_to 6896
  145.3620  140.9493  143.2495 H   0  0  0  0  0  0  0  0  0  0  0  0  # atno 7974 bound_to 7965
  154.6998  140.2670  155.6730 H   0  0  0  0  0  0  0  0  0  0  0  0  # atno 8008 bound_to 7997
  156.2761  140.2774  156.1528 H   0  0  0  0  0  0  0  0  0  0  0  0  # atno 8009 bound_to 7997
  155.0780  140.0372  157.2620 H   0  0  0  0  0  0  0  0  0  0  0  0  # atno 8010 bound_to 7997
  140.3976  144.1767  150.6132 H   0  0  0  0  0  0  0  0  0  0  0  0  # atno 10167 bound_to 10162
  157.5244  130.8587  149.8602 H   0  0  0  0  0  0  0  0  0  0  0  0  # atno 10718 bound_to 10713
  153.4375  135.7013  153.6190 H   0  0  0  0  0  0  0  0  0  0  0  0  # atno 10763 bound_to 10752
  153.4579  135.3743  155.2322 H   0  0  0  0  0  0  0  0  0  0  0  0  # atno 10764 bound_to 10752
  154.8727  135.4013  154.3768 H   0  0  0  0  0  0  0  0  0  0  0  0  # atno 10765 bound_to 10752
  140.9923  134.0522  157.3640 H   0  0  0  0  0  0  0  0  0  0  0  0  # atno 11005 bound_to 11000
  144.8639  139.5136  143.6799 LP  0  0  0  0  0  0  0  0  0  0  0  0  # atno 17320 bound_to 7965
  146.2923  139.7175  142.9152 LP  0  0  0  0  0  0  0  0  0  0  0  0  # atno 17321 bound_to 7965
  140.4773  143.2391  151.9004 LP  0  0  0  0  0  0  0  0  0  0  0  0  # atno 17342 bound_to 10162
  139.4786  144.5306  151.8672 LP  0  0  0  0  0  0  0  0  0  0  0  0  # atno 17343 bound_to 10162
  156.0376  130.3747  150.1519 LP  0  0  0  0  0  0  0  0  0  0  0  0  # atno 17370 bound_to 10713
  156.9705  130.9833  151.3460 LP  0  0  0  0  0  0  0  0  0  0  0  0  # atno 17371 bound_to 10713
  139.8998  135.0160  156.7212 LP  0  0  0  0  0  0  0  0  0  0  0  0  # atno 17394 bound_to 11000
  140.7021  133.9297  155.8031 LP  0  0  0  0  0  0  0  0  0  0  0  0  # atno 17395 bound_to 11000

$$$$
