AV-unprocessed.smi:34|AV-procd|sdf|215|dock1
  -GOLD-   2262015523D 1   1.00000     0.00000
 Structure written by MMmdl.
 55 59  0  0  0  0  0  0  0  0  1 V2000
  153.1824  140.4114  159.5675 O   0  0  0  0  0  0  0  0  0  0  0  0
  152.5112  141.1913  158.8909 C   0  0  0  0  0  0  0  0  0  0  0  0
  151.9205  140.8033  157.6224 N   0  0  0  0  0  0  0  0  0  0  0  0
  151.9669  139.5963  157.0117 C   0  0  0  0  0  0  0  0  0  0  0  0
  152.9071  139.2839  156.0818 N   0  0  0  0  0  0  0  0  0  0  0  0
  152.8985  138.0843  155.4947 C   0  0  0  0  0  0  0  0  0  0  0  0
  152.0525  137.0700  155.6847 N   0  0  0  0  0  0  0  0  0  0  0  0
  151.1091  137.3705  156.6229 C   0  0  0  0  0  0  0  0  0  0  0  0
  151.0051  138.6023  157.3283 C   0  0  0  0  0  0  0  0  0  0  0  0
  149.9307  138.5538  158.2060 N   0  0  0  0  0  0  0  0  0  0  0  0
  149.4280  137.3632  158.0219 C   0  0  0  0  0  0  0  0  0  0  0  0
  150.0664  136.5875  157.0794 N   0  0  0  0  0  0  0  0  0  0  0  0
  149.6958  135.2006  156.6569 C   0  0  2  0  0  0  0  0  0  0  0  0
  150.5189  134.2910  157.3317 O   0  0  0  0  0  0  0  0  0  0  0  0
  151.2986  133.5489  156.3948 C   0  0  1  0  0  0  0  0  0  0  0  0
  151.6202  132.1480  156.9307 C   0  0  0  0  0  0  0  0  0  0  0  0
  152.7592  131.6422  156.2533 O   0  0  0  0  0  0  0  0  0  0  0  0
  153.9428  131.5560  156.8899 C   0  0  0  0  0  0  0  0  0  0  0  0
  154.1108  131.8871  158.0653 O   0  0  0  0  0  0  0  0  0  0  0  0
  155.0288  131.0133  156.0231 C   0  0  0  0  0  0  0  0  0  0  0  0
  154.7426  130.6838  154.6775 C   0  0  0  0  0  0  0  0  0  0  0  0
  155.7481  130.1712  153.8347 C   0  0  0  0  0  0  0  0  0  0  0  0
  157.0524  129.9816  154.3271 C   0  0  0  0  0  0  0  0  0  0  0  0
  157.3503  130.3061  155.6634 C   0  0  0  0  0  0  0  0  0  0  0  0
  156.3463  130.8192  156.5078 C   0  0  0  0  0  0  0  0  0  0  0  0
  150.4546  133.5781  155.1213 C   0  0  1  0  0  0  0  0  0  0  0  0
  149.4566  132.6963  155.2381 F   0  0  0  0  0  0  0  0  0  0  0  0
  149.9224  135.0001  155.1517 C   0  0  1  0  0  0  0  0  0  0  0  0
  148.7440  135.1051  154.3784 O   0  0  0  0  0  0  0  0  0  0  0  0
  152.3257  142.6260  159.2918 C   0  0  0  0  0  0  0  0  0  0  0  0
  152.4348  142.9994  160.6503 C   0  0  0  0  0  0  0  0  0  0  0  0
  152.2544  144.3415  161.0381 C   0  0  0  0  0  0  0  0  0  0  0  0
  151.9552  145.3203  160.0719 C   0  0  0  0  0  0  0  0  0  0  0  0
  151.8322  144.9554  158.7179 C   0  0  0  0  0  0  0  0  0  0  0  0
  152.0127  143.6136  158.3287 C   0  0  0  0  0  0  0  0  0  0  0  0
  151.4192  141.5278  157.1293 H   0  0  0  0  0  0  0  0  0  0  0  0
  153.6788  137.9145  154.7674 H   0  0  0  0  0  0  0  0  0  0  0  0
  148.5615  137.0188  158.5677 H   0  0  0  0  0  0  0  0  0  0  0  0
  148.6602  135.0653  156.9715 H   0  0  0  0  0  0  0  0  0  0  0  0
  152.2316  134.0826  156.2174 H   0  0  0  0  0  0  0  0  0  0  0  0
  151.8272  132.1956  158.0005 H   0  0  0  0  0  0  0  0  0  0  0  0
  150.7678  131.4812  156.7926 H   0  0  0  0  0  0  0  0  0  0  0  0
  153.7485  130.8212  154.2766 H   0  0  0  0  0  0  0  0  0  0  0  0
  155.5177  129.9239  152.8090 H   0  0  0  0  0  0  0  0  0  0  0  0
  157.8231  129.5882  153.6804 H   0  0  0  0  0  0  0  0  0  0  0  0
  158.3514  130.1623  156.0427 H   0  0  0  0  0  0  0  0  0  0  0  0
  156.6095  131.0585  157.5277 H   0  0  0  0  0  0  0  0  0  0  0  0
  151.0168  133.3386  154.2181 H   0  0  0  0  0  0  0  0  0  0  0  0
  150.6810  135.6934  154.7859 H   0  0  0  0  0  0  0  0  0  0  0  0
  148.9110  135.6938  153.6581 H   0  0  0  0  0  0  0  0  0  0  0  0
  152.6649  142.2599  161.4042 H   0  0  0  0  0  0  0  0  0  0  0  0
  152.3462  144.6197  162.0778 H   0  0  0  0  0  0  0  0  0  0  0  0
  151.8176  146.3494  160.3691 H   0  0  0  0  0  0  0  0  0  0  0  0
  151.5981  145.7056  157.9770 H   0  0  0  0  0  0  0  0  0  0  0  0
  151.9069  143.3544  157.2852 H   0  0  0  0  0  0  0  0  0  0  0  0
  1  2  2  0  0  0  0
  2  3  1  0  0  0  0
  2 30  1  0  0  0  0
  3  4  1  0  0  0  0
  3 36  1  0  0  0  0
  4  9  1  0  0  0  0
  4  5  2  0  0  0  0
  5  6  1  0  0  0  0
  6  7  2  0  0  0  0
  6 37  1  0  0  0  0
  7  8  1  0  0  0  0
  8 12  1  0  0  0  0
  8  9  2  0  0  0  0
  9 10  1  0  0  0  0
 10 11  2  0  0  0  0
 11 12  1  0  0  0  0
 11 38  1  0  0  0  0
 12 13  1  0  0  0  0
 13 28  1  0  0  0  0
 13 14  1  0  0  0  0
 13 39  1  0  0  0  0
 14 15  1  0  0  0  0
 15 16  1  0  0  0  0
 15 26  1  0  0  0  0
 15 40  1  0  0  0  0
 16 17  1  0  0  0  0
 16 41  1  0  0  0  0
 16 42  1  0  0  0  0
 17 18  1  0  0  0  0
 18 19  2  0  0  0  0
 18 20  1  0  0  0  0
 20 25  1  0  0  0  0
 20 21  2  0  0  0  0
 21 22  1  0  0  0  0
 21 43  1  0  0  0  0
 22 23  2  0  0  0  0
 22 44  1  0  0  0  0
 23 24  1  0  0  0  0
 23 45  1  0  0  0  0
 24 25  2  0  0  0  0
 24 46  1  0  0  0  0
 25 47  1  0  0  0  0
 26 27  1  0  0  0  0
 26 28  1  0  0  0  0
 26 48  1  0  0  0  0
 28 29  1  0  0  0  0
 28 49  1  0  0  0  0
 29 50  1  0  0  0  0
 30 35  1  0  0  0  0
 30 31  2  0  0  0  0
 31 32  1  0  0  0  0
 31 51  1  0  0  0  0
 32 33  2  0  0  0  0
 32 52  1  0  0  0  0
 33 34  1  0  0  0  0
 33 53  1  0  0  0  0
 34 35  2  0  0  0  0
 34 54  1  0  0  0  0
 35 55  1  0  0  0  0
M  END
> <s_m_source_file>
AV-unprocessed.smi

> <i_m_source_file_index>
34

> <i_lp_mmshare_version>
43012

> <i_f3d_flags>
0

> <s_epik_input>
W2NIXTFbY0hdW2NIXVtjSF1bY0hdYzFDKD1PKVtOSF1jKG5bY0hdbjIpYyhjMjMpbltjSF1uM1tDQEBIXTRPW0NASF0oW0NAQEhdKEYpW0NASF00W09IXSlbQ0gyXU9DKD1PKWM1W2NIXVtjSF1bY0hdW2NIXVtjSF01

> <s_epik_cmdline>
J2VwaWtfcHl0aG9uJywgJy1waCcsICc3LjAnLCAnLXRuJywgJzgnLCAnLW1hJywgJzIwMCcsICctbWV0YWxfYmluZGluZycsICctaW1hZScsICc8aW5maWxlLm1hZT4nLCAnLW9tYWUnLCAnPG91dGZpbGUubWFlPic=

> <r_lp_tautomer_probability>
1

> <r_epik_Ionization_Penalty>
0.00257489

> <r_epik_Ionization_Penalty_Charging>
0

> <r_epik_Ionization_Penalty_Neutral>
0.00257489

> <r_epik_State_Penalty>
0.00519398

> <r_epik_Charging_Adjusted_Penalty>
0.00519398

> <i_epik_Tot_Q>
0

> <i_epik_Tot_abs_Q>
0

> <r_epik_Metal_State_Penalty>
0.335891

> <b_epik_Metal_Only>
0

> <s_epik_Chemistry_Notes>
This compound has an ester and may undergo hydrolysis at high or low pH. This compound contains an acetal/aminal-like group ( X-CH(R)-Y where X, Y are N, S, or O) that may be acid/base labile, releasing an aldehyde.

> <s_lp_Force_Field>
OPLS_2005

> <r_lp_Energy>
46.7099

> <b_lp_Chiralities_Consistent>
1

> <s_lp_Variant>
AV-unprocessed.smi:34-1

> <Gold.Version>
5.8.1

> <Gold.Id.Protein>
6NUR|6NUR_protein|mol2

> <Gold.PLP.Fitness>
60.9621

> <Gold.PLP.PLP>
-53.9893

> <Gold.PLP.part.hbond>
-4.0000

> <Gold.PLP.part.metal>
0.0000

> <Gold.PLP.part.buried>
-8.4033

> <Gold.PLP.part.nonpolar>
-42.3313

> <Gold.PLP.part.repulsive>
0.1051

> <Gold.PLP.ligand.clash>
0.0000

> <Gold.PLP.ligand.torsion>
2.1754

> <Gold.PLP.Chemscore.Hbond>
3.6624

> <Gold.PLP.Chemscore.CHOScore>
0.0000

> <Gold.PLP.Chemscore.Metal>
0.0000

> <Gold.Chemscore.Hbonds>
donor molecule, donor type, donor heavy atom, donor atom, acceptor molecule, acceptor atom, score
      L1  H    29    50       P1  7948  1.00
      P1  H  6896  6907       L1    14  0.64
      P1  H  7997  8009       L1     5  1.00
      P1  H 10752 10765       L1     7  0.94

> <Gold.PLP.Chemscore.Internal.Correction>
0.3365

> <Gold.Rescore>
     Score         DG    S(hbond)    S(metal)    S(lipo)     H(rot)  DE(clash)    DE(int)     intcor
     19.12     -22.32       2.69        0.00     126.58       2.72       0.13       3.07       ----

> <Gold.Chemscore.Fitness>
19.1181

> <Gold.Chemscore.DG>
-22.3212

> <Gold.Chemscore.ZeroCoef>
-5.4800

> <Gold.Chemscore.Hbond>
2.6940

> <Gold.Chemscore.Metal>
0.0000

> <Gold.Chemscore.Lipo>
126.5837

> <Gold.Chemscore.Internal_Hbond>
0.0000

> <Gold.Chemscore.DEClash>
0.1328

> <Gold.Chemscore.DEInternal>
3.0703

> <Gold.Chemscore.Rot>
2.7215

> <Gold.Chemscore.Internal.Correction>
   9.000000E+99

> <Gold.Chemscore.Hbonds>
donor molecule, donor type, donor heavy atom, donor atom, acceptor molecule, acceptor atom, score
      L1  H    29    50       P1  7948  0.91
      P1  H  6896  6907       L1    14  0.60
      P1  H  7997  8009       L1     5  0.74
      P1  H 10752 10765       L1     7  0.26

> <Gold.Chemscore.Hbond.Weighted>
-8.9979

> <Gold.Chemscore.Metal.Weighted>
-0.0000

> <Gold.Chemscore.Lipo.Weighted>
-14.8103

> <Gold.Chemscore.Internal_Hbond.Weighted>
0.0000

> <Gold.Chemscore.DEClash.Weighted>
0.1328

> <Gold.Chemscore.DEInternal.Weighted>
3.0703

> <Gold.Chemscore.Rot.Weighted>
6.9670

> <Gold.Chemscore.Internal.Correction.Weighted>
   9.000000E+99

> <Gold.Protein.RotatedTorsions>
[ 6907 6896 6895 6894 ] final -113.79 input  -60.11 | X-H torsion
[ 7974 7965 7964 7962 ] final -158.49 input  175.53 | X-H torsion
[ 8008 7997 7996 7995 ] final -167.61 input   59.86 | X-H torsion
[ 10167 10162 10161 10158 ] final  -75.22 input  -65.29 | X-H torsion
[ 10718 10713 10712 10709 ] final -167.46 input   66.30 | X-H torsion
[ 10763 10752 10751 10750 ] final -173.29 input  -60.55 | X-H torsion
[ 11005 11000 10999 10996 ] final -116.73 input  -57.11 | X-H torsion

> <Gold.Protein.ActiveResidues>
 VAL166  LYS551  ARG553  GLY616  TRP617  ASP618  TYR619  PRO620  LYS621  CYS622 
 ASP623  PHE694  ASN695  SER759  ASP760  ASP761  ALA762  ILE779  LEU786  VAL792 
 PHE793  MET794  SER795  GLU796  ALA797  LYS798  CYS799  TRP800  GLU811  SER814 

> <Gold.Protein.RotatedAtoms>
  150.7854  133.8894  159.3308 H   0  0  0  0  0  0  0  0  0  0  0  0  # atno 6907 bound_to 6896
  151.6746  135.0969  160.0214 H   0  0  0  0  0  0  0  0  0  0  0  0  # atno 6908 bound_to 6896
  152.3917  133.6650  159.6278 H   0  0  0  0  0  0  0  0  0  0  0  0  # atno 6909 bound_to 6896
  144.7503  140.3819  143.6053 H   0  0  0  0  0  0  0  0  0  0  0  0  # atno 7974 bound_to 7965
  155.8801  140.1007  157.1491 H   0  0  0  0  0  0  0  0  0  0  0  0  # atno 8008 bound_to 7997
  154.4004  140.1330  156.4249 H   0  0  0  0  0  0  0  0  0  0  0  0  # atno 8009 bound_to 7997
  155.7653  140.3462  155.5221 H   0  0  0  0  0  0  0  0  0  0  0  0  # atno 8010 bound_to 7997
  140.4961  143.2370  151.7828 H   0  0  0  0  0  0  0  0  0  0  0  0  # atno 10167 bound_to 10162
  156.6827  130.9128  151.3059 H   0  0  0  0  0  0  0  0  0  0  0  0  # atno 10718 bound_to 10713
  154.6096  135.2863  155.0447 H   0  0  0  0  0  0  0  0  0  0  0  0  # atno 10763 bound_to 10752
  154.1682  135.6477  153.5006 H   0  0  0  0  0  0  0  0  0  0  0  0  # atno 10764 bound_to 10752
  153.0189  135.5394  154.6844 H   0  0  0  0  0  0  0  0  0  0  0  0  # atno 10765 bound_to 10752
  141.0402  133.9847  157.3006 H   0  0  0  0  0  0  0  0  0  0  0  0  # atno 11005 bound_to 11000
  145.6968  139.1651  143.2616 LP  0  0  0  0  0  0  0  0  0  0  0  0  # atno 17320 bound_to 7965
  146.1444  140.7013  142.9351 LP  0  0  0  0  0  0  0  0  0  0  0  0  # atno 17321 bound_to 7965
  139.4861  144.4584  151.9570 LP  0  0  0  0  0  0  0  0  0  0  0  0  # atno 17342 bound_to 10162
  140.3672  144.2900  150.5925 LP  0  0  0  0  0  0  0  0  0  0  0  0  # atno 17343 bound_to 10162
  157.7038  130.9362  150.0866 LP  0  0  0  0  0  0  0  0  0  0  0  0  # atno 17370 bound_to 10713
  156.1856  130.3652  149.8978 LP  0  0  0  0  0  0  0  0  0  0  0  0  # atno 17371 bound_to 10713
  139.9270  135.0201  156.8270 LP  0  0  0  0  0  0  0  0  0  0  0  0  # atno 17394 bound_to 11000
  140.6248  133.9960  155.7634 LP  0  0  0  0  0  0  0  0  0  0  0  0  # atno 17395 bound_to 11000

$$$$
