AV-unprocessed.smi:3287|AV-procd|sdf|12600|dock9
  -GOLD-   2272018523D 1   1.00000     0.00000
 Structure written by MMmdl.
 43 44  0  0  0  0  0  0  0  0  2 V2000
  143.7683  132.9689  149.3056 C   0  0  0  0  0  0  0  0  0  0  0  0
  144.1001  132.7176  150.7905 C   0  0  2  0  0  0  0  0  0  0  0  0
  143.4742  133.7921  151.7032 C   0  0  0  0  0  0  0  0  0  0  0  0
  144.1973  135.1462  151.5996 C   0  0  0  0  0  0  0  0  0  0  0  0
  145.7048  135.0048  151.8939 C   0  0  2  0  0  0  0  0  0  0  0  0
  146.4145  136.2925  151.7315 N   0  3  0  0  0  0  0  0  0  0  0  0
  146.2100  137.2685  152.8237 C   0  0  0  0  0  0  0  0  0  0  0  0
  146.4662  138.7084  152.3467 C   0  0  2  0  0  0  0  0  0  0  0  0
  147.4216  138.6798  151.3036 O   0  0  0  0  0  0  0  0  0  0  0  0
  146.9141  139.5947  153.4984 C   0  0  0  0  0  0  0  0  0  0  0  0
  147.0636  139.0613  154.7958 C   0  0  0  0  0  0  0  0  0  0  0  0
  147.4893  139.9174  155.8316 C   0  0  0  0  0  0  0  0  0  0  0  0
  147.7653  141.2258  155.6459 N   0  0  0  0  0  0  0  0  0  0  0  0
  147.6231  141.7312  154.4022 C   0  0  0  0  0  0  0  0  0  0  0  0
  147.2039  140.9620  153.2983 C   0  0  0  0  0  0  0  0  0  0  0  0
  146.3374  133.9421  150.9763 C   0  0  0  0  0  0  0  0  0  0  0  0
  145.6149  132.5846  151.0904 C   0  0  2  0  0  0  0  0  0  0  0  0
  146.3084  131.4962  150.2545 C   0  0  0  0  0  0  0  0  0  0  0  0
  144.2404  133.8737  148.9240 H   0  0  0  0  0  0  0  0  0  0  0  0
  142.6928  133.0759  149.1616 H   0  0  0  0  0  0  0  0  0  0  0  0
  144.0891  132.1379  148.6779 H   0  0  0  0  0  0  0  0  0  0  0  0
  143.6308  131.7679  151.0515 H   0  0  0  0  0  0  0  0  0  0  0  0
  142.4160  133.9154  151.4700 H   0  0  0  0  0  0  0  0  0  0  0  0
  143.5142  133.4490  152.7380 H   0  0  0  0  0  0  0  0  0  0  0  0
  144.0496  135.5687  150.6050 H   0  0  0  0  0  0  0  0  0  0  0  0
  143.7357  135.8439  152.2982 H   0  0  0  0  0  0  0  0  0  0  0  0
  145.8346  134.6729  152.9253 H   0  0  0  0  0  0  0  0  0  0  0  0
  147.4047  136.0939  151.6985 H   0  0  0  0  0  0  0  0  0  0  0  0
  145.1857  137.1856  153.1873 H   0  0  0  0  0  0  0  0  0  0  0  0
  146.8674  137.0262  153.6603 H   0  0  0  0  0  0  0  0  0  0  0  0
  145.5444  139.1199  151.9326 H   0  0  0  0  0  0  0  0  0  0  0  0
  148.0906  139.3209  151.4922 H   0  0  0  0  0  0  0  0  0  0  0  0
  146.8592  138.0205  154.9994 H   0  0  0  0  0  0  0  0  0  0  0  0
  147.6130  139.5400  156.8358 H   0  0  0  0  0  0  0  0  0  0  0  0
  147.8510  142.7799  154.2819 H   0  0  0  0  0  0  0  0  0  0  0  0
  147.1103  141.4159  152.3226 H   0  0  0  0  0  0  0  0  0  0  0  0
  146.3237  134.2859  149.9413 H   0  0  0  0  0  0  0  0  0  0  0  0
  147.3887  133.8167  151.2390 H   0  0  0  0  0  0  0  0  0  0  0  0
  145.7012  132.2669  152.1310 H   0  0  0  0  0  0  0  0  0  0  0  0
  146.3539  131.7634  149.1987 H   0  0  0  0  0  0  0  0  0  0  0  0
  145.7857  130.5430  150.3382 H   0  0  0  0  0  0  0  0  0  0  0  0
  147.3324  131.3385  150.5943 H   0  0  0  0  0  0  0  0  0  0  0  0
  146.1437  136.7100  150.8528 H   0  0  0  0  0  0  0  0  0  0  0  0
  1  2  1  0  0  0  0
  1 19  1  0  0  0  0
  1 20  1  0  0  0  0
  1 21  1  0  0  0  0
  2 17  1  0  0  0  0
  2  3  1  0  0  0  0
  2 22  1  0  0  0  0
  3  4  1  0  0  0  0
  3 23  1  0  0  0  0
  3 24  1  0  0  0  0
  4  5  1  0  0  0  0
  4 25  1  0  0  0  0
  4 26  1  0  0  0  0
  5  6  1  0  0  0  0
  5 16  1  0  0  0  0
  5 27  1  0  0  0  0
  6  7  1  0  0  0  0
  6 28  1  0  0  0  0
  6 43  1  0  0  0  0
  7  8  1  0  0  0  0
  7 29  1  0  0  0  0
  7 30  1  0  0  0  0
  8  9  1  0  0  0  0
  8 10  1  0  0  0  0
  8 31  1  0  0  0  0
  9 32  1  0  0  0  0
 10 15  1  0  0  0  0
 10 11  2  0  0  0  0
 11 12  1  0  0  0  0
 11 33  1  0  0  0  0
 12 13  2  0  0  0  0
 12 34  1  0  0  0  0
 13 14  1  0  0  0  0
 14 15  2  0  0  0  0
 14 35  1  0  0  0  0
 15 36  1  0  0  0  0
 16 17  1  0  0  0  0
 16 37  1  0  0  0  0
 16 38  1  0  0  0  0
 17 18  1  0  0  0  0
 17 39  1  0  0  0  0
 18 40  1  0  0  0  0
 18 41  1  0  0  0  0
 18 42  1  0  0  0  0
M  CHG  1   6   1
M  END
> <s_m_source_file>
AV-unprocessed.smi

> <i_m_source_file_index>
3287

> <i_lp_mmshare_version>
43012

> <i_f3d_flags>
0

> <s_epik_input>
W0NIM11bQ0BASF0xW0NIMl1bQ0gyXVtDQEhdKFtDSDJdW0NASF0xW0NIM10pW05IXVtDSDJdW0NASF0oW09IXSljMltjSF1bY0hdbltjSF1bY0hdMg==

> <s_epik_cmdline>
J2VwaWtfcHl0aG9uJywgJy1waCcsICc3LjAnLCAnLXRuJywgJzgnLCAnLW1hJywgJzIwMCcsICctbWV0YWxfYmluZGluZycsICctaW1hZScsICc8aW5maWxlLm1hZT4nLCAnLW9tYWUnLCAnPG91dGZpbGUubWFlPic=

> <r_lp_tautomer_probability>
1

> <r_epik_Ionization_Penalty>
0.00537262

> <r_epik_Ionization_Penalty_Charging>
0.00321624

> <r_epik_Ionization_Penalty_Neutral>
0.00215638

> <r_epik_State_Penalty>
-0

> <r_epik_Charging_Adjusted_Penalty>
0.00321624

> <i_epik_Tot_Q>
1

> <i_epik_Tot_abs_Q>
1

> <r_epik_Metal_State_Penalty>
-0

> <b_epik_Metal_Only>
0

> <s_lp_Force_Field>
OPLS_2005

> <r_lp_Energy>
17.0862

> <b_lp_Chiralities_Consistent>
1

> <s_lp_Variant>
AV-unprocessed.smi:3287-11

> <Gold.Version>
5.8.1

> <Gold.Id.Protein>
6NUR|6NUR_protein|mol2

> <Gold.PLP.Fitness>
46.6603

> <Gold.PLP.PLP>
-33.1603

> <Gold.PLP.part.hbond>
-3.9675

> <Gold.PLP.part.metal>
0.0000

> <Gold.PLP.part.buried>
-0.2001

> <Gold.PLP.part.nonpolar>
-29.1234

> <Gold.PLP.part.repulsive>
0.1386

> <Gold.PLP.ligand.clash>
0.0000

> <Gold.PLP.ligand.torsion>
0.6159

> <Gold.PLP.Chemscore.Hbond>
3.9040

> <Gold.PLP.Chemscore.CHOScore>
0.9999

> <Gold.PLP.Chemscore.Metal>
0.0000

> <Gold.Chemscore.Hbonds>
donor molecule, donor type, donor heavy atom, donor atom, acceptor molecule, acceptor atom, score
      L1  H     6    28       P1  7948  2.00
      L1  H     9    32       P1  7957  0.98
      P1  H  7954  7966       L1     9  0.91
      L1  C    14    35       P1  8028  0.94

> <Gold.PLP.Chemscore.Internal.Correction>
0.0203

> <Gold.Rescore>
     Score         DG    S(hbond)    S(metal)    S(lipo)     H(rot)  DE(clash)    DE(int)     intcor
     16.69     -18.69       2.02        0.00      96.88       1.90       1.33       0.67       ----

> <Gold.Chemscore.Fitness>
16.6858

> <Gold.Chemscore.DG>
-18.6872

> <Gold.Chemscore.ZeroCoef>
-5.4800

> <Gold.Chemscore.Hbond>
2.0197

> <Gold.Chemscore.Metal>
0.0000

> <Gold.Chemscore.Lipo>
96.8752

> <Gold.Chemscore.Internal_Hbond>
0.0000

> <Gold.Chemscore.DEClash>
1.3340

> <Gold.Chemscore.DEInternal>
0.6674

> <Gold.Chemscore.Rot>
1.9035

> <Gold.Chemscore.Internal.Correction>
   9.000000E+99

> <Gold.Chemscore.Hbonds>
donor molecule, donor type, donor heavy atom, donor atom, acceptor molecule, acceptor atom, score
      L1  H     6    28       P1  7948  0.93
      L1  H     9    32       P1  7957  0.88
      P1  H  7954  7966       L1     9  0.20

> <Gold.Chemscore.Hbond.Weighted>
-6.7457

> <Gold.Chemscore.Metal.Weighted>
-0.0000

> <Gold.Chemscore.Lipo.Weighted>
-11.3344

> <Gold.Chemscore.Internal_Hbond.Weighted>
0.0000

> <Gold.Chemscore.DEClash.Weighted>
1.3340

> <Gold.Chemscore.DEInternal.Weighted>
0.6674

> <Gold.Chemscore.Rot.Weighted>
4.8729

> <Gold.Chemscore.Internal.Correction.Weighted>
   9.000000E+99

> <Gold.Protein.RotatedTorsions>
[ 6907 6896 6895 6894 ] final  -48.77 input  -60.11 | X-H torsion
[ 7974 7965 7964 7962 ] final -172.90 input  175.53 | X-H torsion
[ 8008 7997 7996 7995 ] final  175.67 input   59.86 | X-H torsion
[ 10167 10162 10161 10158 ] final  152.75 input  -65.29 | X-H torsion
[ 10718 10713 10712 10709 ] final   89.59 input   66.30 | X-H torsion
[ 10763 10752 10751 10750 ] final   72.80 input  -60.55 | X-H torsion
[ 11005 11000 10999 10996 ] final   91.60 input  -57.11 | X-H torsion

> <Gold.Protein.ActiveResidues>
 VAL166  LYS551  ARG553  GLY616  TRP617  ASP618  TYR619  PRO620  LYS621  CYS622 
 ASP623  PHE694  ASN695  SER759  ASP760  ASP761  ALA762  ILE779  LEU786  VAL792 
 PHE793  MET794  SER795  GLU796  ALA797  LYS798  CYS799  TRP800  GLU811  SER814 

> <Gold.Protein.RotatedAtoms>
  150.8872  134.8271  159.7267 H   0  0  0  0  0  0  0  0  0  0  0  0  # atno 6907 bound_to 6896
  152.4815  134.4704  159.9643 H   0  0  0  0  0  0  0  0  0  0  0  0  # atno 6908 bound_to 6896
  151.4771  133.3516  159.2868 H   0  0  0  0  0  0  0  0  0  0  0  0  # atno 6909 bound_to 6896
  144.7142  140.1703  143.6368 H   0  0  0  0  0  0  0  0  0  0  0  0  # atno 7974 bound_to 7965
  156.0846  140.1403  156.9670 H   0  0  0  0  0  0  0  0  0  0  0  0  # atno 8008 bound_to 7997
  154.4605  140.0945  156.6928 H   0  0  0  0  0  0  0  0  0  0  0  0  # atno 8009 bound_to 7997
  155.5020  140.3451  155.4375 H   0  0  0  0  0  0  0  0  0  0  0  0  # atno 8010 bound_to 7997
  139.4831  144.5332  151.7689 H   0  0  0  0  0  0  0  0  0  0  0  0  # atno 10167 bound_to 10162
  157.6956  131.0339  150.3448 H   0  0  0  0  0  0  0  0  0  0  0  0  # atno 10718 bound_to 10713
  153.0482  135.5086  154.7799 H   0  0  0  0  0  0  0  0  0  0  0  0  # atno 10763 bound_to 10752
  154.6682  135.2949  154.9779 H   0  0  0  0  0  0  0  0  0  0  0  0  # atno 10764 bound_to 10752
  154.0606  135.6691  153.4864 H   0  0  0  0  0  0  0  0  0  0  0  0  # atno 10765 bound_to 10752
  139.8836  134.8683  156.3451 H   0  0  0  0  0  0  0  0  0  0  0  0  # atno 11005 bound_to 11000
  145.8950  139.2397  143.1527 LP  0  0  0  0  0  0  0  0  0  0  0  0  # atno 17320 bound_to 7965
  145.9867  140.8637  143.0087 LP  0  0  0  0  0  0  0  0  0  0  0  0  # atno 17321 bound_to 7965
  140.4861  144.1379  150.5941 LP  0  0  0  0  0  0  0  0  0  0  0  0  # atno 17342 bound_to 10162
  140.4224  143.2605  151.9699 LP  0  0  0  0  0  0  0  0  0  0  0  0  # atno 17343 bound_to 10162
  156.3904  130.3897  149.7034 LP  0  0  0  0  0  0  0  0  0  0  0  0  # atno 17370 bound_to 10713
  156.4386  130.7850  151.2871 LP  0  0  0  0  0  0  0  0  0  0  0  0  # atno 17371 bound_to 10713
  140.9632  133.7375  156.0430 LP  0  0  0  0  0  0  0  0  0  0  0  0  # atno 17394 bound_to 11000
  140.7963  134.3560  157.5451 LP  0  0  0  0  0  0  0  0  0  0  0  0  # atno 17395 bound_to 11000

$$$$
