AV-unprocessed.smi:1463|AV-procd|sdf|5934|dock5
  -GOLD-   22720 6 13D 1   1.00000     0.00000
 Structure written by MMmdl.
 46 47  0  0  0  0  0  0  0  0  1 V2000
  152.1257  145.0083  159.4506 C   0  0  0  0  0  0  0  0  0  0  0  0
  152.3545  143.6778  159.0229 O   0  0  0  0  0  0  0  0  0  0  0  0
  151.5114  143.2980  157.9476 C   0  0  0  0  0  0  0  0  0  0  0  0
  151.7577  141.8212  157.6289 C   0  0  0  0  0  0  0  0  0  0  0  0
  151.0946  141.5230  156.4063 O   0  0  0  0  0  0  0  0  0  0  0  0
  151.3189  140.3013  155.8029 C   0  0  0  0  0  0  0  0  0  0  0  0
  152.3922  139.5745  156.2044 N   0  0  0  0  0  0  0  0  0  0  0  0
  152.6031  138.3700  155.6339 C   0  0  0  0  0  0  0  0  0  0  0  0
  151.7605  137.8258  154.6467 C   0  0  0  0  0  0  0  0  0  0  0  0
  150.6481  138.5793  154.2281 C   0  0  0  0  0  0  0  0  0  0  0  0
  150.4252  139.8505  154.7984 C   0  0  0  0  0  0  0  0  0  0  0  0
  149.2264  140.6567  154.3812 C   0  0  0  0  0  0  0  0  0  0  0  0
  149.3275  141.3865  153.3943 O   0  0  0  0  0  0  0  0  0  0  0  0
  148.0786  140.5351  155.0956 N   0  0  0  0  0  0  0  0  0  0  0  0
  147.9623  139.9781  156.4519 C   0  0  0  0  0  0  0  0  0  0  0  0
  147.6745  141.1208  157.4424 C   0  0  0  0  0  0  0  0  0  0  0  0
  146.4105  141.9149  157.0485 C   0  0  0  0  0  0  0  0  0  0  0  0
  146.1851  143.1047  158.0092 C   0  0  0  0  0  0  0  0  0  0  0  0
  145.8969  142.6952  159.4586 C   0  0  0  0  0  0  0  0  0  0  0  0
  144.6479  142.3200  159.7446 N   0  0  0  0  0  0  0  0  0  0  0  0
  146.7829  142.7219  160.3108 O   0  0  0  0  0  0  0  0  0  0  0  0
  146.4882  142.3437  155.5639 C   0  0  0  0  0  0  0  0  0  0  0  0
  146.8192  141.1468  154.6559 C   0  0  0  0  0  0  0  0  0  0  0  0
  152.7963  145.2475  160.2760 H   0  0  0  0  0  0  0  0  0  0  0  0
  151.1007  145.1401  159.7992 H   0  0  0  0  0  0  0  0  0  0  0  0
  152.3170  145.7191  158.6457 H   0  0  0  0  0  0  0  0  0  0  0  0
  150.4695  143.4443  158.2358 H   0  0  0  0  0  0  0  0  0  0  0  0
  151.6998  143.9133  157.0663 H   0  0  0  0  0  0  0  0  0  0  0  0
  152.8298  141.6284  157.5612 H   0  0  0  0  0  0  0  0  0  0  0  0
  151.3499  141.1984  158.4264 H   0  0  0  0  0  0  0  0  0  0  0  0
  153.4666  137.8211  155.9791 H   0  0  0  0  0  0  0  0  0  0  0  0
  151.9618  136.8534  154.2222 H   0  0  0  0  0  0  0  0  0  0  0  0
  149.9816  138.1863  153.4738 H   0  0  0  0  0  0  0  0  0  0  0  0
  147.1531  139.2465  156.4722 H   0  0  0  0  0  0  0  0  0  0  0  0
  148.8510  139.4478  156.7880 H   0  0  0  0  0  0  0  0  0  0  0  0
  147.5606  140.7134  158.4475 H   0  0  0  0  0  0  0  0  0  0  0  0
  148.5351  141.7908  157.4774 H   0  0  0  0  0  0  0  0  0  0  0  0
  145.5661  141.2308  157.1489 H   0  0  0  0  0  0  0  0  0  0  0  0
  147.0740  143.7364  158.0222 H   0  0  0  0  0  0  0  0  0  0  0  0
  145.3720  143.7288  157.6351 H   0  0  0  0  0  0  0  0  0  0  0  0
  144.4066  142.0402  160.6842 H   0  0  0  0  0  0  0  0  0  0  0  0
  143.9476  142.3168  159.0171 H   0  0  0  0  0  0  0  0  0  0  0  0
  145.5453  142.7869  155.2432 H   0  0  0  0  0  0  0  0  0  0  0  0
  147.2502  143.1145  155.4398 H   0  0  0  0  0  0  0  0  0  0  0  0
  146.8498  141.4667  153.6133 H   0  0  0  0  0  0  0  0  0  0  0  0
  146.0224  140.4035  154.7114 H   0  0  0  0  0  0  0  0  0  0  0  0
  1  2  1  0  0  0  0
  1 24  1  0  0  0  0
  1 25  1  0  0  0  0
  1 26  1  0  0  0  0
  2  3  1  0  0  0  0
  3  4  1  0  0  0  0
  3 27  1  0  0  0  0
  3 28  1  0  0  0  0
  4  5  1  0  0  0  0
  4 29  1  0  0  0  0
  4 30  1  0  0  0  0
  5  6  1  0  0  0  0
  6 11  1  0  0  0  0
  6  7  2  0  0  0  0
  7  8  1  0  0  0  0
  8  9  2  0  0  0  0
  8 31  1  0  0  0  0
  9 10  1  0  0  0  0
  9 32  1  0  0  0  0
 10 11  2  0  0  0  0
 10 33  1  0  0  0  0
 11 12  1  0  0  0  0
 12 13  2  0  0  0  0
 12 14  1  0  0  0  0
 14 23  1  0  0  0  0
 14 15  1  0  0  0  0
 15 16  1  0  0  0  0
 15 34  1  0  0  0  0
 15 35  1  0  0  0  0
 16 17  1  0  0  0  0
 16 36  1  0  0  0  0
 16 37  1  0  0  0  0
 17 18  1  0  0  0  0
 17 22  1  0  0  0  0
 17 38  1  0  0  0  0
 18 19  1  0  0  0  0
 18 39  1  0  0  0  0
 18 40  1  0  0  0  0
 19 20  1  0  0  0  0
 19 21  2  0  0  0  0
 20 41  1  0  0  0  0
 20 42  1  0  0  0  0
 22 23  1  0  0  0  0
 22 43  1  0  0  0  0
 22 44  1  0  0  0  0
 23 45  1  0  0  0  0
 23 46  1  0  0  0  0
M  END
> <s_m_source_file>
AV-unprocessed.smi

> <i_m_source_file_index>
1463

> <i_lp_mmshare_version>
43012

> <i_f3d_flags>
0

> <s_epik_input>
W0NIM11PW0NIMl1bQ0gyXU9jMW5bY0hdW2NIXVtjSF1jMUMoPU8pTjJbQ0gyXVtDSDJdW0NIXShbQ0gyXVtDSDJdMilbQ0gyXUMoPU8pW05IMl0=

> <s_epik_cmdline>
J2VwaWtfcHl0aG9uJywgJy1waCcsICc3LjAnLCAnLXRuJywgJzgnLCAnLW1hJywgJzIwMCcsICctbWV0YWxfYmluZGluZycsICctaW1hZScsICc8aW5maWxlLm1hZT4nLCAnLW9tYWUnLCAnPG91dGZpbGUubWFlPic=

> <r_lp_tautomer_probability>
1

> <r_epik_Ionization_Penalty>
2.54873e-06

> <r_epik_Ionization_Penalty_Charging>
0

> <r_epik_Ionization_Penalty_Neutral>
2.54873e-06

> <r_epik_State_Penalty>
-0

> <r_epik_Charging_Adjusted_Penalty>
0

> <i_epik_Tot_Q>
0

> <i_epik_Tot_abs_Q>
0

> <r_epik_Metal_State_Penalty>
-0

> <b_epik_Metal_Only>
0

> <s_lp_Force_Field>
OPLS_2005

> <r_lp_Energy>
26.7295

> <b_lp_Chiralities_Consistent>
1

> <s_lp_Variant>
AV-unprocessed.smi:1463-1

> <Gold.Version>
5.8.1

> <Gold.Id.Protein>
6NUR|6NUR_protein|mol2

> <Gold.PLP.Fitness>
44.6342

> <Gold.PLP.PLP>
-36.1485

> <Gold.PLP.part.hbond>
-4.8079

> <Gold.PLP.part.metal>
0.0000

> <Gold.PLP.part.buried>
-4.4598

> <Gold.PLP.part.nonpolar>
-29.7278

> <Gold.PLP.part.repulsive>
3.4298

> <Gold.PLP.ligand.clash>
0.0000

> <Gold.PLP.ligand.torsion>
2.1454

> <Gold.PLP.Chemscore.Hbond>
3.6872

> <Gold.PLP.Chemscore.CHOScore>
0.0000

> <Gold.PLP.Chemscore.Metal>
0.0000

> <Gold.Chemscore.Hbonds>
donor molecule, donor type, donor heavy atom, donor atom, acceptor molecule, acceptor atom, score
      P1  H  6933  6944       L1    21  0.73
      P1  H  6934  6946       L1    21  0.98
      P1  H  7989  7998       L1    13  0.01
      P1  H  7997  8009       L1     7  0.89
      P1  H  8011  8017       L1    13  0.98

> <Gold.PLP.Chemscore.Internal.Correction>
1.7151

> <Gold.Rescore>
     Score         DG    S(hbond)    S(metal)    S(lipo)     H(rot)  DE(clash)    DE(int)     intcor
     11.44     -15.02       2.18        0.00      75.32       2.55       1.48       2.10       ----

> <Gold.Chemscore.Fitness>
11.4429

> <Gold.Chemscore.DG>
-15.0204

> <Gold.Chemscore.ZeroCoef>
-5.4800

> <Gold.Chemscore.Hbond>
2.1752

> <Gold.Chemscore.Metal>
0.0000

> <Gold.Chemscore.Lipo>
75.3192

> <Gold.Chemscore.Internal_Hbond>
0.0000

> <Gold.Chemscore.DEClash>
1.4810

> <Gold.Chemscore.DEInternal>
2.0964

> <Gold.Chemscore.Rot>
2.5536

> <Gold.Chemscore.Internal.Correction>
   9.000000E+99

> <Gold.Chemscore.Hbonds>
donor molecule, donor type, donor heavy atom, donor atom, acceptor molecule, acceptor atom, score
      P1  H  6933  6944       L1    21  0.70
      P1  H  6934  6946       L1    21  0.28
      P1  H  7997  8009       L1     7  0.17
      P1  H  8011  8017       L1    13  0.88

> <Gold.Chemscore.Hbond.Weighted>
-7.2653

> <Gold.Chemscore.Metal.Weighted>
-0.0000

> <Gold.Chemscore.Lipo.Weighted>
-8.8123

> <Gold.Chemscore.Internal_Hbond.Weighted>
0.0000

> <Gold.Chemscore.DEClash.Weighted>
1.4810

> <Gold.Chemscore.DEInternal.Weighted>
2.0964

> <Gold.Chemscore.Rot.Weighted>
6.5373

> <Gold.Chemscore.Internal.Correction.Weighted>
   9.000000E+99

> <Gold.Protein.RotatedTorsions>
[ 6907 6896 6895 6894 ] final  122.05 input  -60.11 | X-H torsion
[ 7974 7965 7964 7962 ] final   30.99 input  175.53 | X-H torsion
[ 8008 7997 7996 7995 ] final -169.90 input   59.86 | X-H torsion
[ 10167 10162 10161 10158 ] final  151.47 input  -65.29 | X-H torsion
[ 10718 10713 10712 10709 ] final -177.34 input   66.30 | X-H torsion
[ 10763 10752 10751 10750 ] final -167.26 input  -60.55 | X-H torsion
[ 11005 11000 10999 10996 ] final -165.14 input  -57.11 | X-H torsion

> <Gold.Protein.ActiveResidues>
 VAL166  LYS551  ARG553  GLY616  TRP617  ASP618  TYR619  PRO620  LYS621  CYS622 
 ASP623  PHE694  ASN695  SER759  ASP760  ASP761  ALA762  ILE779  LEU786  VAL792 
 PHE793  MET794  SER795  GLU796  ALA797  LYS798  CYS799  TRP800  GLU811  SER814 

> <Gold.Protein.RotatedAtoms>
  152.4273  133.7217  159.6536 H   0  0  0  0  0  0  0  0  0  0  0  0  # atno 6907 bound_to 6896
  150.8150  133.8342  159.3170 H   0  0  0  0  0  0  0  0  0  0  0  0  # atno 6908 bound_to 6896
  151.6041  135.1047  160.0118 H   0  0  0  0  0  0  0  0  0  0  0  0  # atno 6909 bound_to 6896
  146.1578  139.6715  142.9055 H   0  0  0  0  0  0  0  0  0  0  0  0  # atno 7974 bound_to 7965
  155.9111  140.1057  157.1278 H   0  0  0  0  0  0  0  0  0  0  0  0  # atno 8008 bound_to 7997
  154.4039  140.1274  156.4624 H   0  0  0  0  0  0  0  0  0  0  0  0  # atno 8009 bound_to 7997
  155.7308  140.3468  155.5061 H   0  0  0  0  0  0  0  0  0  0  0  0  # atno 8010 bound_to 7997
  139.4840  144.5438  151.7519 H   0  0  0  0  0  0  0  0  0  0  0  0  # atno 10167 bound_to 10162
  156.8280  130.9643  151.3108 H   0  0  0  0  0  0  0  0  0  0  0  0  # atno 10718 bound_to 10713
  154.6750  135.2945  154.9691 H   0  0  0  0  0  0  0  0  0  0  0  0  # atno 10763 bound_to 10752
  154.0706  135.6618  153.4827 H   0  0  0  0  0  0  0  0  0  0  0  0  # atno 10764 bound_to 10752
  153.0510  135.5174  154.7764 H   0  0  0  0  0  0  0  0  0  0  0  0  # atno 10765 bound_to 10752
  140.5791  134.5160  157.5175 H   0  0  0  0  0  0  0  0  0  0  0  0  # atno 11005 bound_to 11000
  145.4665  141.0435  143.2722 LP  0  0  0  0  0  0  0  0  0  0  0  0  # atno 17320 bound_to 7965
  144.7986  139.6185  143.7082 LP  0  0  0  0  0  0  0  0  0  0  0  0  # atno 17321 bound_to 7965
  140.4981  144.1209  150.5965 LP  0  0  0  0  0  0  0  0  0  0  0  0  # atno 17342 bound_to 10162
  140.4093  143.2664  151.9852 LP  0  0  0  0  0  0  0  0  0  0  0  0  # atno 17343 bound_to 10162
  157.6422  130.8815  149.9470 LP  0  0  0  0  0  0  0  0  0  0  0  0  # atno 17370 bound_to 10713
  156.0950  130.3660  150.0322 LP  0  0  0  0  0  0  0  0  0  0  0  0  # atno 17371 bound_to 10713
  139.9326  134.7935  156.0890 LP  0  0  0  0  0  0  0  0  0  0  0  0  # atno 17394 bound_to 11000
  141.1008  133.6678  156.2749 LP  0  0  0  0  0  0  0  0  0  0  0  0  # atno 17395 bound_to 11000

$$$$
