AV-unprocessed.smi:2568|AV-procd|sdf|10093|dock1
  -GOLD-   2272014113D 1   1.00000     0.00000
 Structure written by MMmdl.
 25 26  0  0  0  0  0  0  0  0  2 V2000
  152.2206  140.9772  158.5347 C   0  0  0  0  0  0  0  0  0  0  0  0
  151.3230  141.3537  157.4058 C   0  0  0  0  0  0  0  0  0  0  0  0
  150.9306  142.6133  157.2224 N   0  0  0  0  0  0  0  0  0  0  0  0
  150.1518  142.5078  156.1252 N   0  0  0  0  0  0  0  0  0  0  0  0
  150.1186  141.2337  155.7271 C   0  0  0  0  0  0  0  0  0  0  0  0
  149.3449  140.7941  154.5244 C   0  0  1  0  0  0  0  0  0  0  0  0
  149.4563  139.2775  154.2752 C   0  0  0  0  0  0  0  0  0  0  0  0
  148.5959  138.8884  153.1409 N   0  3  0  0  0  0  0  0  0  0  0  0
  147.2000  139.3227  153.3477 C   0  0  0  0  0  0  0  0  0  0  0  0
  147.1515  140.8339  153.6342 C   0  0  0  0  0  0  0  0  0  0  0  0
  147.9803  141.1383  154.7515 O   0  0  0  0  0  0  0  0  0  0  0  0
  150.8524  140.4414  156.5033 N   0  0  0  0  0  0  0  0  0  0  0  0
  149.6830  143.2980  155.7056 H   0  0  0  0  0  0  0  0  0  0  0  0
  152.6164  141.8644  159.0305 H   0  0  0  0  0  0  0  0  0  0  0  0
  153.0597  140.3850  158.1690 H   0  0  0  0  0  0  0  0  0  0  0  0
  151.6728  140.3864  159.2690 H   0  0  0  0  0  0  0  0  0  0  0  0
  149.7131  141.3442  153.6560 H   0  0  0  0  0  0  0  0  0  0  0  0
  150.4877  138.9958  154.0613 H   0  0  0  0  0  0  0  0  0  0  0  0
  149.1472  138.7209  155.1612 H   0  0  0  0  0  0  0  0  0  0  0  0
  148.9495  139.3239  152.3008 H   0  0  0  0  0  0  0  0  0  0  0  0
  146.6098  139.0793  152.4641 H   0  0  0  0  0  0  0  0  0  0  0  0
  146.7721  138.7674  154.1834 H   0  0  0  0  0  0  0  0  0  0  0  0
  147.4730  141.4062  152.7626 H   0  0  0  0  0  0  0  0  0  0  0  0
  146.1297  141.1415  153.8574 H   0  0  0  0  0  0  0  0  0  0  0  0
  148.6225  137.8849  153.0278 H   0  0  0  0  0  0  0  0  0  0  0  0
  1  2  1  0  0  0  0
  1 14  1  0  0  0  0
  1 15  1  0  0  0  0
  1 16  1  0  0  0  0
  2 12  1  0  0  0  0
  2  3  2  0  0  0  0
  3  4  1  0  0  0  0
  4 13  1  0  0  0  0
  4  5  1  0  0  0  0
  5  6  1  0  0  0  0
  5 12  2  0  0  0  0
  6 11  1  0  0  0  0
  6  7  1  0  0  0  0
  6 17  1  0  0  0  0
  7  8  1  0  0  0  0
  7 18  1  0  0  0  0
  7 19  1  0  0  0  0
  8  9  1  0  0  0  0
  8 20  1  0  0  0  0
  8 25  1  0  0  0  0
  9 10  1  0  0  0  0
  9 21  1  0  0  0  0
  9 22  1  0  0  0  0
 10 11  1  0  0  0  0
 10 23  1  0  0  0  0
 10 24  1  0  0  0  0
M  CHG  1   8   1
M  END
> <s_m_source_file>
AV-unprocessed.smi

> <i_m_source_file_index>
2568

> <i_lp_mmshare_version>
43012

> <i_f3d_flags>
0

> <s_epik_input>
W0NIM11jMW5bbkhdYyhuMSlbQ0BASF0yW0NIMl1bTkhdW0NIMl1bQ0gyXU8y

> <s_epik_cmdline>
J2VwaWtfcHl0aG9uJywgJy1waCcsICc3LjAnLCAnLXRuJywgJzgnLCAnLW1hJywgJzIwMCcsICctbWV0YWxfYmluZGluZycsICctaW1hZScsICc8aW5maWxlLm1hZT4nLCAnLW9tYWUnLCAnPG91dGZpbGUubWFlPic=

> <r_epik_Ionization_Penalty>
0.166663

> <r_epik_Ionization_Penalty_Charging>
0.125708

> <r_epik_Ionization_Penalty_Neutral>
0.0409555

> <r_epik_State_Penalty>
1.3004

> <r_epik_Charging_Adjusted_Penalty>
1.42611

> <i_epik_Tot_Q>
1

> <i_epik_Tot_abs_Q>
1

> <r_epik_Metal_State_Penalty>
1.60166

> <b_epik_Metal_Only>
0

> <s_lp_Force_Field>
OPLS_2005

> <r_lp_Energy>
12.4533

> <b_lp_Chiralities_Consistent>
1

> <s_lp_Variant>
AV-unprocessed.smi:2568-6

> <Gold.Version>
5.8.1

> <Gold.Id.Protein>
6NUR|6NUR_protein|mol2

> <Gold.PLP.Fitness>
32.7978

> <Gold.PLP.PLP>
-21.1200

> <Gold.PLP.part.hbond>
-2.8926

> <Gold.PLP.part.metal>
0.0000

> <Gold.PLP.part.buried>
-4.3738

> <Gold.PLP.part.nonpolar>
-15.5972

> <Gold.PLP.part.repulsive>
0.4345

> <Gold.PLP.ligand.clash>
0.0000

> <Gold.PLP.ligand.torsion>
0.0026

> <Gold.PLP.Chemscore.Hbond>
3.8940

> <Gold.PLP.Chemscore.CHOScore>
0.0000

> <Gold.PLP.Chemscore.Metal>
0.0000

> <Gold.Chemscore.Hbonds>
donor molecule, donor type, donor heavy atom, donor atom, acceptor molecule, acceptor atom, score
      L1  H     4    13       P1  8028  1.00
      L1  H     8    20       P1  7957  0.89
      L1  H     8    25       P1  7948  1.98

> <Gold.PLP.Chemscore.Internal.Correction>
0.0010

> <Gold.Rescore>
     Score         DG    S(hbond)    S(metal)    S(lipo)     H(rot)  DE(clash)    DE(int)     intcor
     16.67     -16.67       2.91        0.00      34.55       1.00       0.00       0.00       ----

> <Gold.Chemscore.Fitness>
16.6679

> <Gold.Chemscore.DG>
-16.6697

> <Gold.Chemscore.ZeroCoef>
-5.4800

> <Gold.Chemscore.Hbond>
2.9064

> <Gold.Chemscore.Metal>
0.0000

> <Gold.Chemscore.Lipo>
34.5507

> <Gold.Chemscore.Internal_Hbond>
0.0000

> <Gold.Chemscore.DEClash>
0.0000

> <Gold.Chemscore.DEInternal>
0.0018

> <Gold.Chemscore.Rot>
1.0000

> <Gold.Chemscore.Internal.Correction>
   9.000000E+99

> <Gold.Chemscore.Hbonds>
donor molecule, donor type, donor heavy atom, donor atom, acceptor molecule, acceptor atom, score
      L1  H     4    13       P1  8028  0.99
      L1  H     8    20       P1  7957  0.87
      L1  H     8    25       P1  7948  0.87

> <Gold.Chemscore.Hbond.Weighted>
-9.7073

> <Gold.Chemscore.Metal.Weighted>
-0.0000

> <Gold.Chemscore.Lipo.Weighted>
-4.0424

> <Gold.Chemscore.Internal_Hbond.Weighted>
0.0000

> <Gold.Chemscore.DEClash.Weighted>
0.0000

> <Gold.Chemscore.DEInternal.Weighted>
0.0018

> <Gold.Chemscore.Rot.Weighted>
2.5600

> <Gold.Chemscore.Internal.Correction.Weighted>
   9.000000E+99

> <Gold.Protein.RotatedTorsions>
[ 6907 6896 6895 6894 ] final   11.43 input  -60.11 | X-H torsion
[ 7974 7965 7964 7962 ] final  -18.31 input  175.53 | X-H torsion
[ 8008 7997 7996 7995 ] final  -39.73 input   59.86 | X-H torsion
[ 10167 10162 10161 10158 ] final -154.95 input  -65.29 | X-H torsion
[ 10718 10713 10712 10709 ] final   11.74 input   66.30 | X-H torsion
[ 10763 10752 10751 10750 ] final  -75.99 input  -60.55 | X-H torsion
[ 11005 11000 10999 10996 ] final  136.32 input  -57.11 | X-H torsion

> <Gold.Protein.ActiveResidues>
 VAL166  LYS551  ARG553  GLY616  TRP617  ASP618  TYR619  PRO620  LYS621  CYS622 
 ASP623  PHE694  ASN695  SER759  ASP760  ASP761  ALA762  ILE779  LEU786  VAL792 
 PHE793  MET794  SER795  GLU796  ALA797  LYS798  CYS799  TRP800  GLU811  SER814 

> <Gold.Protein.RotatedAtoms>
  151.7541  135.0825  160.0335 H   0  0  0  0  0  0  0  0  0  0  0  0  # atno 6907 bound_to 6896
  152.3397  133.6048  159.5876 H   0  0  0  0  0  0  0  0  0  0  0  0  # atno 6908 bound_to 6896
  150.7472  133.9657  159.3571 H   0  0  0  0  0  0  0  0  0  0  0  0  # atno 6909 bound_to 6896
  146.1898  140.3903  142.8462 H   0  0  0  0  0  0  0  0  0  0  0  0  # atno 7974 bound_to 7965
  154.4020  140.1544  156.2910 H   0  0  0  0  0  0  0  0  0  0  0  0  # atno 8008 bound_to 7997
  155.8785  140.3445  155.5849 H   0  0  0  0  0  0  0  0  0  0  0  0  # atno 8009 bound_to 7997
  155.7694  140.0828  157.2106 H   0  0  0  0  0  0  0  0  0  0  0  0  # atno 8010 bound_to 7997
  139.6971  143.9324  152.2412 H   0  0  0  0  0  0  0  0  0  0  0  0  # atno 10167 bound_to 10162
  156.9999  130.6075  149.5695 H   0  0  0  0  0  0  0  0  0  0  0  0  # atno 10718 bound_to 10713
  154.4939  135.5812  153.6480 H   0  0  0  0  0  0  0  0  0  0  0  0  # atno 10763 bound_to 10752
  152.9867  135.6119  154.3089 H   0  0  0  0  0  0  0  0  0  0  0  0  # atno 10764 bound_to 10752
  154.2991  135.2847  155.2599 H   0  0  0  0  0  0  0  0  0  0  0  0  # atno 10765 bound_to 10752
  140.0038  134.9467  157.0130 H   0  0  0  0  0  0  0  0  0  0  0  0  # atno 11005 bound_to 11000
  144.8465  140.6937  143.6195 LP  0  0  0  0  0  0  0  0  0  0  0  0  # atno 17320 bound_to 7965
  145.3827  139.1633  143.4272 LP  0  0  0  0  0  0  0  0  0  0  0  0  # atno 17321 bound_to 7965
  139.9156  144.6830  150.8515 LP  0  0  0  0  0  0  0  0  0  0  0  0  # atno 17342 bound_to 10162
  140.7699  143.3411  151.2206 LP  0  0  0  0  0  0  0  0  0  0  0  0  # atno 17343 bound_to 10162
  156.0175  130.5269  150.8178 LP  0  0  0  0  0  0  0  0  0  0  0  0  # atno 17370 bound_to 10713
  157.5398  131.0940  150.9843 LP  0  0  0  0  0  0  0  0  0  0  0  0  # atno 17371 bound_to 10713
  140.4679  134.1417  155.7199 LP  0  0  0  0  0  0  0  0  0  0  0  0  # atno 17394 bound_to 11000
  141.1662  133.8699  157.1708 LP  0  0  0  0  0  0  0  0  0  0  0  0  # atno 17395 bound_to 11000

$$$$
