AV-unprocessed.smi:196|AV-procd|sdf|1543|dock6
  -GOLD-   2262019403D 1   1.00000     0.00000
 Structure written by MMmdl.
 47 50  0  0  0  0  0  0  0  0  1 V2000
  150.5083  141.6091  157.0954 C   0  0  0  0  0  0  0  0  0  0  0  0
  151.1318  140.8033  155.9451 C   0  0  1  0  0  0  0  0  0  0  0  0
  151.9162  139.7645  156.5270 O   0  0  0  0  0  0  0  0  0  0  0  0
  151.9042  138.6407  155.6651 C   0  0  0  0  0  0  0  0  0  0  0  0
  150.4632  138.6164  155.1797 C   0  0  0  0  0  0  0  0  0  0  0  0
  150.1468  140.0947  154.9720 C   0  0  2  0  0  0  0  0  0  0  0  0
  150.5274  140.4340  153.6489 O   0  0  0  0  0  0  0  0  0  0  0  0
  148.6436  140.4417  155.1357 C   0  0  0  0  0  0  0  0  0  0  0  0
  147.7683  139.6183  154.3150 N   0  0  0  0  0  0  0  0  0  0  0  0
  147.7344  139.5666  152.9388 C   0  0  0  0  0  0  0  0  0  0  0  0
  146.8602  138.7397  152.4330 N   0  0  0  0  0  0  0  0  0  0  0  0
  146.2357  138.1918  153.5454 C   0  0  0  0  0  0  0  0  0  0  0  0
  145.1966  137.2431  153.7244 C   0  0  0  0  0  0  0  0  0  0  0  0
  144.5877  136.6477  152.6751 N   0  0  0  0  0  0  0  0  0  0  0  0
  145.4833  136.0906  151.6664 C   0  0  0  0  0  0  0  0  0  0  0  0
  144.8937  134.7335  151.2725 C   0  0  1  0  0  0  0  0  0  0  0  0
  145.4939  133.7703  151.9737 F   0  0  0  0  0  0  0  0  0  0  0  0
  143.4342  134.8410  151.7033 C   0  0  0  0  0  0  0  0  0  0  0  0
  143.5121  135.6998  152.9718 C   0  0  2  0  0  0  0  0  0  0  0  0
  142.1826  136.4071  153.2725 C   0  0  0  0  0  0  0  0  0  0  0  0
  141.1916  135.6470  153.7439 N   0  0  0  0  0  0  0  0  0  0  0  0
  142.0438  137.6132  153.0738 O   0  0  0  0  0  0  0  0  0  0  0  0
  144.8266  136.9326  154.9945 N   0  0  0  0  0  0  0  0  0  0  0  0
  145.4343  137.5239  156.0277 C   0  0  0  0  0  0  0  0  0  0  0  0
  146.4149  138.4299  156.0127 N   0  0  0  0  0  0  0  0  0  0  0  0
  146.7895  138.7357  154.7370 C   0  0  0  0  0  0  0  0  0  0  0  0
  145.0186  134.4973  150.2154 H   0  0  0  0  0  0  0  0  0  0  0  0
  143.7882  135.0640  153.8153 H   0  0  0  0  0  0  0  0  0  0  0  0
  149.8977  142.4310  156.7212 H   0  0  0  0  0  0  0  0  0  0  0  0
  151.2856  142.0410  157.7260 H   0  0  0  0  0  0  0  0  0  0  0  0
  149.8847  140.9811  157.7323 H   0  0  0  0  0  0  0  0  0  0  0  0
  151.8077  141.4588  155.3924 H   0  0  0  0  0  0  0  0  0  0  0  0
  152.5971  138.8007  154.8376 H   0  0  0  0  0  0  0  0  0  0  0  0
  152.1906  137.7278  156.1875 H   0  0  0  0  0  0  0  0  0  0  0  0
  150.3183  138.0027  154.2893 H   0  0  0  0  0  0  0  0  0  0  0  0
  149.8368  138.2057  155.9721 H   0  0  0  0  0  0  0  0  0  0  0  0
  150.2942  139.7174  153.0788 H   0  0  0  0  0  0  0  0  0  0  0  0
  148.3327  140.3198  156.1733 H   0  0  0  0  0  0  0  0  0  0  0  0
  148.4636  141.4869  154.8807 H   0  0  0  0  0  0  0  0  0  0  0  0
  148.3882  140.1611  152.3171 H   0  0  0  0  0  0  0  0  0  0  0  0
  145.4757  136.7653  150.8098 H   0  0  0  0  0  0  0  0  0  0  0  0
  146.5186  136.0004  152.0016 H   0  0  0  0  0  0  0  0  0  0  0  0
  142.8604  135.3471  150.9246 H   0  0  0  0  0  0  0  0  0  0  0  0
  142.9750  133.8674  151.8785 H   0  0  0  0  0  0  0  0  0  0  0  0
  140.2957  136.0611  153.9566 H   0  0  0  0  0  0  0  0  0  0  0  0
  141.3426  134.6586  153.8842 H   0  0  0  0  0  0  0  0  0  0  0  0
  145.0853  137.2289  157.0063 H   0  0  0  0  0  0  0  0  0  0  0  0
  1  2  1  0  0  0  0
  1 29  1  0  0  0  0
  1 30  1  0  0  0  0
  1 31  1  0  0  0  0
  2  6  1  0  0  0  0
  2  3  1  0  0  0  0
  2 32  1  0  0  0  0
  3  4  1  0  0  0  0
  4  5  1  0  0  0  0
  4 33  1  0  0  0  0
  4 34  1  0  0  0  0
  5  6  1  0  0  0  0
  5 35  1  0  0  0  0
  5 36  1  0  0  0  0
  6  7  1  0  0  0  0
  6  8  1  0  0  0  0
  7 37  1  0  0  0  0
  8  9  1  0  0  0  0
  8 38  1  0  0  0  0
  8 39  1  0  0  0  0
  9 26  1  0  0  0  0
  9 10  1  0  0  0  0
 10 11  2  0  0  0  0
 10 40  1  0  0  0  0
 11 12  1  0  0  0  0
 12 26  2  0  0  0  0
 12 13  1  0  0  0  0
 13 14  1  0  0  0  0
 13 23  2  0  0  0  0
 14 19  1  0  0  0  0
 14 15  1  0  0  0  0
 15 16  1  0  0  0  0
 15 41  1  0  0  0  0
 15 42  1  0  0  0  0
 16 27  1  0  0  0  0
 16 17  1  0  0  0  0
 16 18  1  0  0  0  0
 18 19  1  0  0  0  0
 18 43  1  0  0  0  0
 18 44  1  0  0  0  0
 19 28  1  0  0  0  0
 19 20  1  0  0  0  0
 20 21  1  0  0  0  0
 20 22  2  0  0  0  0
 21 45  1  0  0  0  0
 21 46  1  0  0  0  0
 23 24  1  0  0  0  0
 24 25  2  0  0  0  0
 24 47  1  0  0  0  0
 25 26  1  0  0  0  0
M  END
> <s_m_source_file>
AV-unprocessed.smi

> <i_m_source_file_index>
196

> <i_lp_mmshare_version>
43012

> <i_f3d_flags>
0

> <s_epik_input>
W0NIMl0xW0NIMl1PW0NAQEhdKFtDSDNdKVtDQEBdMShbT0hdKVtDSDJdbihbY0hdbjIpYyhjMjMpbltjSF1uYzNONFtDSDJdW0NASF0oRilbQ0gyXVtDQEhdNEMoPU8pW05IMl0=

> <s_epik_cmdline>
J2VwaWtfcHl0aG9uJywgJy1waCcsICc3LjAnLCAnLXRuJywgJzgnLCAnLW1hJywgJzIwMCcsICctbWV0YWxfYmluZGluZycsICctaW1hZScsICc8aW5maWxlLm1hZT4nLCAnLW9tYWUnLCAnPG91dGZpbGUubWFlPic=

> <r_lp_tautomer_probability>
1

> <r_epik_Ionization_Penalty>
0.000857933

> <r_epik_Ionization_Penalty_Charging>
0

> <r_epik_Ionization_Penalty_Neutral>
0.000857933

> <r_epik_State_Penalty>
0.000462053

> <r_epik_Charging_Adjusted_Penalty>
0.000462053

> <i_epik_Tot_Q>
0

> <i_epik_Tot_abs_Q>
0

> <r_epik_Metal_State_Penalty>
-0

> <b_epik_Metal_Only>
0

> <s_lp_Force_Field>
OPLS_2005

> <r_lp_Energy>
44.4191

> <b_lp_Chiralities_Consistent>
1

> <s_lp_Variant>
AV-unprocessed.smi:196-16

> <Gold.Version>
5.8.1

> <Gold.Id.Protein>
6NUR|6NUR_protein|mol2

> <Gold.PLP.Fitness>
48.3149

> <Gold.PLP.PLP>
-34.7840

> <Gold.PLP.part.hbond>
-4.5919

> <Gold.PLP.part.metal>
0.0000

> <Gold.PLP.part.buried>
-2.6968

> <Gold.PLP.part.nonpolar>
-26.6776

> <Gold.PLP.part.repulsive>
0.5358

> <Gold.PLP.ligand.clash>
0.0000

> <Gold.PLP.ligand.torsion>
0.4176

> <Gold.PLP.Chemscore.Hbond>
3.9389

> <Gold.PLP.Chemscore.CHOScore>
0.7872

> <Gold.PLP.Chemscore.Metal>
0.0000

> <Gold.Chemscore.Hbonds>
donor molecule, donor type, donor heavy atom, donor atom, acceptor molecule, acceptor atom, score
      L1  H     7    37       P1  7957  0.41
      P1  H  7989  7998       L1     7  0.08
      L1  C    10    40       P1  7957  0.11

> <Gold.PLP.Chemscore.Internal.Correction>
0.1881

> <Gold.Rescore>
     Score         DG    S(hbond)    S(metal)    S(lipo)     H(rot)  DE(clash)    DE(int)     intcor
     12.45     -13.36       2.83        0.00      52.96       3.04       0.01       0.89       ----

> <Gold.Chemscore.Fitness>
12.4474

> <Gold.Chemscore.DG>
-13.3553

> <Gold.Chemscore.ZeroCoef>
-5.4800

> <Gold.Chemscore.Hbond>
2.8337

> <Gold.Chemscore.Metal>
0.0000

> <Gold.Chemscore.Lipo>
52.9614

> <Gold.Chemscore.Internal_Hbond>
0.0000

> <Gold.Chemscore.DEClash>
0.0130

> <Gold.Chemscore.DEInternal>
0.8949

> <Gold.Chemscore.Rot>
3.0413

> <Gold.Chemscore.Internal.Correction>
   9.000000E+99

> <Gold.Chemscore.Hbonds>
donor molecule, donor type, donor heavy atom, donor atom, acceptor molecule, acceptor atom, score
      L1  H     7    37       P1  7957  0.39
      P1  H  7989  7998       L1     7  0.09
      P1  H  7997  8009       L1     3  0.01
      P1  H  8011  8017       L1     7  0.01

> <Gold.Chemscore.Hbond.Weighted>
-9.4644

> <Gold.Chemscore.Metal.Weighted>
-0.0000

> <Gold.Chemscore.Lipo.Weighted>
-6.1965

> <Gold.Chemscore.Internal_Hbond.Weighted>
0.0000

> <Gold.Chemscore.DEClash.Weighted>
0.0130

> <Gold.Chemscore.DEInternal.Weighted>
0.8949

> <Gold.Chemscore.Rot.Weighted>
7.7856

> <Gold.Chemscore.Internal.Correction.Weighted>
   9.000000E+99

> <Gold.Protein.RotatedTorsions>
[ 6907 6896 6895 6894 ] final -106.99 input  -60.11 | X-H torsion
[ 7974 7965 7964 7962 ] final   20.23 input  175.53 | X-H torsion
[ 8008 7997 7996 7995 ] final -167.54 input   59.86 | X-H torsion
[ 10167 10162 10161 10158 ] final   30.44 input  -65.29 | X-H torsion
[ 10718 10713 10712 10709 ] final   97.76 input   66.30 | X-H torsion
[ 10763 10752 10751 10750 ] final -126.00 input  -60.55 | X-H torsion
[ 11005 11000 10999 10996 ] final -157.47 input  -57.11 | X-H torsion

> <Gold.Protein.ActiveResidues>
 VAL166  LYS551  ARG553  GLY616  TRP617  ASP618  TYR619  PRO620  LYS621  CYS622 
 ASP623  PHE694  ASN695  SER759  ASP760  ASP761  ALA762  ILE779  LEU786  VAL792 
 PHE793  MET794  SER795  GLU796  ALA797  LYS798  CYS799  TRP800  GLU811  SER814 

> <Gold.Protein.RotatedAtoms>
  150.7419  133.9894  159.3601 H   0  0  0  0  0  0  0  0  0  0  0  0  # atno 6907 bound_to 6896
  151.7840  135.0752  160.0387 H   0  0  0  0  0  0  0  0  0  0  0  0  # atno 6908 bound_to 6896
  152.3254  133.5862  159.5809 H   0  0  0  0  0  0  0  0  0  0  0  0  # atno 6909 bound_to 6896
  146.2119  139.8199  142.8682 H   0  0  0  0  0  0  0  0  0  0  0  0  # atno 7974 bound_to 7965
  155.8791  140.1006  157.1497 H   0  0  0  0  0  0  0  0  0  0  0  0  # atno 8008 bound_to 7997
  154.4003  140.1332  156.4237 H   0  0  0  0  0  0  0  0  0  0  0  0  # atno 8009 bound_to 7997
  155.7663  140.3462  155.5226 H   0  0  0  0  0  0  0  0  0  0  0  0  # atno 8010 bound_to 7997
  140.4677  144.0810  150.6229 H   0  0  0  0  0  0  0  0  0  0  0  0  # atno 10167 bound_to 10162
  157.6907  131.0619  150.4692 H   0  0  0  0  0  0  0  0  0  0  0  0  # atno 10718 bound_to 10713
  154.8741  135.4010  154.3360 H   0  0  0  0  0  0  0  0  0  0  0  0  # atno 10763 bound_to 10752
  153.4166  135.7022  153.6328 H   0  0  0  0  0  0  0  0  0  0  0  0  # atno 10764 bound_to 10752
  153.5008  135.3728  155.2509 H   0  0  0  0  0  0  0  0  0  0  0  0  # atno 10765 bound_to 10752
  140.6642  134.4316  157.5233 H   0  0  0  0  0  0  0  0  0  0  0  0  # atno 11005 bound_to 11000
  145.3107  141.0219  143.3556 LP  0  0  0  0  0  0  0  0  0  0  0  0  # atno 17320 bound_to 7965
  144.8938  139.4739  143.6665 LP  0  0  0  0  0  0  0  0  0  0  0  0  # atno 17321 bound_to 7965
  140.4016  143.2701  151.9941 LP  0  0  0  0  0  0  0  0  0  0  0  0  # atno 17342 bound_to 10162
  139.4814  144.5993  151.7634 LP  0  0  0  0  0  0  0  0  0  0  0  0  # atno 17343 bound_to 10162
  156.5031  130.4122  149.6342 LP  0  0  0  0  0  0  0  0  0  0  0  0  # atno 17370 bound_to 10713
  156.3310  130.7331  151.2260 LP  0  0  0  0  0  0  0  0  0  0  0  0  # atno 17371 bound_to 10713
  139.9003  134.8572  156.1926 LP  0  0  0  0  0  0  0  0  0  0  0  0  # atno 17394 bound_to 11000
  141.0442  133.6922  156.1652 LP  0  0  0  0  0  0  0  0  0  0  0  0  # atno 17395 bound_to 11000

$$$$
