AV-unprocessed.smi:1962|AV-procd|sdf|7922|dock1
  -GOLD-   2272010 93D 1   1.00000     0.00000
 Structure written by MMmdl.
 36 37  0  0  0  0  0  0  0  0  1 V2000
  147.5697  142.3768  154.0276 C   0  0  0  0  0  0  0  0  0  0  0  0
  148.6798  141.3621  154.3327 C   0  0  2  0  0  0  0  0  0  0  0  0
  148.1001  139.9584  154.6066 C   0  0  0  0  0  0  0  0  0  0  0  0
  147.2627  139.4781  153.5209 N   0  0  0  0  0  0  0  0  0  0  0  0
  147.1853  139.9476  152.2266 C   0  0  0  0  0  0  0  0  0  0  0  0
  146.2751  139.1724  151.5673 C   0  0  0  0  0  0  0  0  0  0  0  0
  145.8423  138.2445  152.5555 C   0  0  0  0  0  0  0  0  0  0  0  0
  146.4320  138.4322  153.7247 N   0  0  0  0  0  0  0  0  0  0  0  0
  149.4545  141.8354  155.4788 N   0  0  0  0  0  0  0  0  0  0  0  0
  150.5794  141.2716  155.9581 C   0  0  0  0  0  0  0  0  0  0  0  0
  151.1104  140.2870  155.4433 O   0  0  0  0  0  0  0  0  0  0  0  0
  151.1510  141.8990  157.1790 C   0  0  0  0  0  0  0  0  0  0  0  0
  151.1919  143.1902  157.2874 N   0  0  0  0  0  0  0  0  0  0  0  0
  151.6954  143.8157  158.4098 N   0  0  0  0  0  0  0  0  0  0  0  0
  151.4156  145.2478  158.4914 C   0  0  0  0  0  0  0  0  0  0  0  0
  152.4207  143.1993  159.3760 C   0  0  0  0  0  0  0  0  0  0  0  0
  152.8490  143.7698  160.3792 O   0  0  0  0  0  0  0  0  0  0  0  0
  152.7292  141.7156  159.1554 C   0  0  0  0  0  0  0  0  0  0  0  0
  151.6497  141.0158  158.3058 C   0  0  0  0  0  0  0  0  0  0  0  0
  146.9834  142.0680  153.1618 H   0  0  0  0  0  0  0  0  0  0  0  0
  147.9865  143.3603  153.8078 H   0  0  0  0  0  0  0  0  0  0  0  0
  146.8865  142.4848  154.8708 H   0  0  0  0  0  0  0  0  0  0  0  0
  149.3174  141.3073  153.4485 H   0  0  0  0  0  0  0  0  0  0  0  0
  148.9020  139.2402  154.7869 H   0  0  0  0  0  0  0  0  0  0  0  0
  147.4917  139.9767  155.5116 H   0  0  0  0  0  0  0  0  0  0  0  0
  147.7825  140.7804  151.8855 H   0  0  0  0  0  0  0  0  0  0  0  0
  145.9671  139.2539  150.5355 H   0  0  0  0  0  0  0  0  0  0  0  0
  145.1213  137.4462  152.4590 H   0  0  0  0  0  0  0  0  0  0  0  0
  149.0894  142.6380  155.9714 H   0  0  0  0  0  0  0  0  0  0  0  0
  152.3433  145.8200  158.5406 H   0  0  0  0  0  0  0  0  0  0  0  0
  150.8268  145.4723  159.3821 H   0  0  0  0  0  0  0  0  0  0  0  0
  150.8537  145.6054  157.6269 H   0  0  0  0  0  0  0  0  0  0  0  0
  153.6925  141.6535  158.6480 H   0  0  0  0  0  0  0  0  0  0  0  0
  152.8455  141.2092  160.1141 H   0  0  0  0  0  0  0  0  0  0  0  0
  150.8074  140.7290  158.9363 H   0  0  0  0  0  0  0  0  0  0  0  0
  152.0687  140.0887  157.9122 H   0  0  0  0  0  0  0  0  0  0  0  0
  1  2  1  0  0  0  0
  1 20  1  0  0  0  0
  1 21  1  0  0  0  0
  1 22  1  0  0  0  0
  2  3  1  0  0  0  0
  2  9  1  0  0  0  0
  2 23  1  0  0  0  0
  3  4  1  0  0  0  0
  3 24  1  0  0  0  0
  3 25  1  0  0  0  0
  4  8  1  0  0  0  0
  4  5  1  0  0  0  0
  5  6  2  0  0  0  0
  5 26  1  0  0  0  0
  6  7  1  0  0  0  0
  6 27  1  0  0  0  0
  7  8  2  0  0  0  0
  7 28  1  0  0  0  0
  9 10  1  0  0  0  0
  9 29  1  0  0  0  0
 10 11  2  0  0  0  0
 10 12  1  0  0  0  0
 12 19  1  0  0  0  0
 12 13  2  0  0  0  0
 13 14  1  0  0  0  0
 14 15  1  0  0  0  0
 14 16  1  0  0  0  0
 15 30  1  0  0  0  0
 15 31  1  0  0  0  0
 15 32  1  0  0  0  0
 16 17  2  0  0  0  0
 16 18  1  0  0  0  0
 18 19  1  0  0  0  0
 18 33  1  0  0  0  0
 18 34  1  0  0  0  0
 19 35  1  0  0  0  0
 19 36  1  0  0  0  0
M  END
> <s_m_source_file>
AV-unprocessed.smi

> <i_m_source_file_index>
1962

> <i_lp_mmshare_version>
43012

> <i_f3d_flags>
0

> <s_epik_input>
bjFbY0hdW2NIXVtjSF1uMVtDSDJdW0NAQEhdKFtDSDNdKVtOSF1DKD1PKUMyPU5OKFtDSDNdKUMoPU8pW0NIMl1bQ0gyXTI=

> <s_epik_cmdline>
J2VwaWtfcHl0aG9uJywgJy1waCcsICc3LjAnLCAnLXRuJywgJzgnLCAnLW1hJywgJzIwMCcsICctbWV0YWxfYmluZGluZycsICctaW1hZScsICc8aW5maWxlLm1hZT4nLCAnLW9tYWUnLCAnPG91dGZpbGUubWFlPic=

> <r_lp_tautomer_probability>
1

> <r_epik_Ionization_Penalty>
9.43868e-05

> <r_epik_Ionization_Penalty_Charging>
0

> <r_epik_Ionization_Penalty_Neutral>
9.43868e-05

> <r_epik_State_Penalty>
-0

> <r_epik_Charging_Adjusted_Penalty>
0

> <i_epik_Tot_Q>
0

> <i_epik_Tot_abs_Q>
0

> <r_epik_Metal_State_Penalty>
0.0732556

> <b_epik_Metal_Only>
0

> <s_epik_Chemistry_Notes>
This compound has an imine and may undergo hydrolysis.

> <s_lp_Force_Field>
OPLS_2005

> <r_lp_Energy>
16.0967

> <b_lp_Chiralities_Consistent>
1

> <s_lp_Variant>
AV-unprocessed.smi:1962-1

> <Gold.Version>
5.8.1

> <Gold.Id.Protein>
6NUR|6NUR_protein|mol2

> <Gold.PLP.Fitness>
42.2539

> <Gold.PLP.PLP>
-39.2340

> <Gold.PLP.part.hbond>
-2.0000

> <Gold.PLP.part.metal>
0.0000

> <Gold.PLP.part.buried>
1.7580

> <Gold.PLP.part.nonpolar>
-39.4664

> <Gold.PLP.part.repulsive>
0.5461

> <Gold.PLP.ligand.clash>
0.0000

> <Gold.PLP.ligand.torsion>
0.9207

> <Gold.PLP.Chemscore.Hbond>
1.1874

> <Gold.PLP.Chemscore.CHOScore>
0.4062

> <Gold.PLP.Chemscore.Metal>
0.0000

> <Gold.Chemscore.Hbonds>
donor molecule, donor type, donor heavy atom, donor atom, acceptor molecule, acceptor atom, score
      L1  H     9    29       P1  8028  0.61
      P1  H  7989  7998       L1    11  0.84
      L1  C     5    26       P1  7957  0.58

> <Gold.PLP.Chemscore.Internal.Correction>
0.0805

> <Gold.Rescore>
     Score         DG    S(hbond)    S(metal)    S(lipo)     H(rot)  DE(clash)    DE(int)     intcor
     10.26     -13.70       0.71        0.00      83.28       1.53       2.16       1.29       ----

> <Gold.Chemscore.Fitness>
10.2554

> <Gold.Chemscore.DG>
-13.7013

> <Gold.Chemscore.ZeroCoef>
-5.4800

> <Gold.Chemscore.Hbond>
0.7133

> <Gold.Chemscore.Metal>
0.0000

> <Gold.Chemscore.Lipo>
83.2808

> <Gold.Chemscore.Internal_Hbond>
0.0000

> <Gold.Chemscore.DEClash>
2.1587

> <Gold.Chemscore.DEInternal>
1.2873

> <Gold.Chemscore.Rot>
1.5254

> <Gold.Chemscore.Internal.Correction>
   9.000000E+99

> <Gold.Chemscore.Hbonds>
donor molecule, donor type, donor heavy atom, donor atom, acceptor molecule, acceptor atom, score
      L1  H     9    29       P1  8028  0.60
      P1  H  7989  7998       L1    11  0.43

> <Gold.Chemscore.Hbond.Weighted>
-2.3825

> <Gold.Chemscore.Metal.Weighted>
-0.0000

> <Gold.Chemscore.Lipo.Weighted>
-9.7439

> <Gold.Chemscore.Internal_Hbond.Weighted>
0.0000

> <Gold.Chemscore.DEClash.Weighted>
2.1587

> <Gold.Chemscore.DEInternal.Weighted>
1.2873

> <Gold.Chemscore.Rot.Weighted>
3.9051

> <Gold.Chemscore.Internal.Correction.Weighted>
   9.000000E+99

> <Gold.Protein.RotatedTorsions>
[ 6907 6896 6895 6894 ] final  134.45 input  -60.11 | X-H torsion
[ 7974 7965 7964 7962 ] final   -9.97 input  175.53 | X-H torsion
[ 8008 7997 7996 7995 ] final   88.90 input   59.86 | X-H torsion
[ 10167 10162 10161 10158 ] final -110.32 input  -65.29 | X-H torsion
[ 10718 10713 10712 10709 ] final  -87.91 input   66.30 | X-H torsion
[ 10763 10752 10751 10750 ] final   10.12 input  -60.55 | X-H torsion
[ 11005 11000 10999 10996 ] final  128.61 input  -57.11 | X-H torsion

> <Gold.Protein.ActiveResidues>
 VAL166  LYS551  ARG553  GLY616  TRP617  ASP618  TYR619  PRO620  LYS621  CYS622 
 ASP623  PHE694  ASN695  SER759  ASP760  ASP761  ALA762  ILE779  LEU786  VAL792 
 PHE793  MET794  SER795  GLU796  ALA797  LYS798  CYS799  TRP800  GLU811  SER814 

> <Gold.Protein.RotatedAtoms>
  152.3111  133.5754  159.5681 H   0  0  0  0  0  0  0  0  0  0  0  0  # atno 6907 bound_to 6896
  150.7323  134.0150  159.3691 H   0  0  0  0  0  0  0  0  0  0  0  0  # atno 6908 bound_to 6896
  151.8043  135.0700  160.0455 H   0  0  0  0  0  0  0  0  0  0  0  0  # atno 6909 bound_to 6896
  146.2235  140.2695  142.8356 H   0  0  0  0  0  0  0  0  0  0  0  0  # atno 7974 bound_to 7965
  155.9934  140.3366  155.6775 H   0  0  0  0  0  0  0  0  0  0  0  0  # atno 8008 bound_to 7997
  155.6389  140.0693  157.2643 H   0  0  0  0  0  0  0  0  0  0  0  0  # atno 8009 bound_to 7997
  154.4226  140.1746  156.1539 H   0  0  0  0  0  0  0  0  0  0  0  0  # atno 8010 bound_to 7997
  140.1458  143.4241  152.1530 H   0  0  0  0  0  0  0  0  0  0  0  0  # atno 10167 bound_to 10162
  155.9984  130.4817  150.4939 H   0  0  0  0  0  0  0  0  0  0  0  0  # atno 10718 bound_to 10713
  153.2066  135.6863  153.8164 H   0  0  0  0  0  0  0  0  0  0  0  0  # atno 10763 bound_to 10752
  153.7412  135.3238  155.3305 H   0  0  0  0  0  0  0  0  0  0  0  0  # atno 10764 bound_to 10752
  154.8200  135.4658  154.0856 H   0  0  0  0  0  0  0  0  0  0  0  0  # atno 10765 bound_to 10752
  139.9570  134.9611  156.9027 H   0  0  0  0  0  0  0  0  0  0  0  0  # atno 11005 bound_to 11000
  144.9279  140.7942  143.5708 LP  0  0  0  0  0  0  0  0  0  0  0  0  # atno 17320 bound_to 7965
  145.2636  139.1982  143.4879 LP  0  0  0  0  0  0  0  0  0  0  0  0  # atno 17321 bound_to 7965
  139.5450  144.7290  151.4613 LP  0  0  0  0  0  0  0  0  0  0  0  0  # atno 17342 bound_to 10162
  140.6733  143.8246  150.7026 LP  0  0  0  0  0  0  0  0  0  0  0  0  # atno 17343 bound_to 10162
  157.2931  131.0630  151.2120 LP  0  0  0  0  0  0  0  0  0  0  0  0  # atno 17370 bound_to 10713
  157.3126  130.6897  149.6224 LP  0  0  0  0  0  0  0  0  0  0  0  0  # atno 17371 bound_to 10713
  140.5586  134.0556  155.7392 LP  0  0  0  0  0  0  0  0  0  0  0  0  # atno 17394 bound_to 11000
  141.1243  133.9410  157.2667 LP  0  0  0  0  0  0  0  0  0  0  0  0  # atno 17395 bound_to 11000

$$$$
