AV-unprocessed.smi:2950|AV-procd|sdf|11288|dock1
  -GOLD-   2272016183D 1   1.00000     0.00000
 Structure written by MMmdl.
 29 30  0  0  0  0  0  0  0  0  1 V2000
  149.1971  140.9319  154.4461 C   0  0  0  0  0  0  0  0  0  0  0  0
  150.4775  140.5035  154.8756 O   0  0  0  0  0  0  0  0  0  0  0  0
  151.0041  141.3189  155.9081 C   0  0  0  0  0  0  0  0  0  0  0  0
  150.7262  140.6484  157.2591 C   0  0  0  0  0  0  0  0  0  0  0  0
  151.5360  141.2255  158.3204 N   0  0  0  0  0  0  0  0  0  0  0  0
  152.4817  140.6163  159.0786 C   0  0  0  0  0  0  0  0  0  0  0  0
  152.8181  139.1644  158.8902 C   0  0  0  0  0  0  0  0  0  0  0  0
  153.3915  138.8663  157.6333 O   0  0  0  0  0  0  0  0  0  0  0  0
  153.0737  141.3898  159.9921 N   0  0  0  0  0  0  0  0  0  0  0  0
  152.4608  142.6126  159.8023 C   0  0  0  0  0  0  0  0  0  0  0  0
  152.6518  143.8484  160.4610 C   0  0  0  0  0  0  0  0  0  0  0  0
  151.8986  144.9806  160.0868 C   0  0  0  0  0  0  0  0  0  0  0  0
  150.9464  144.8939  159.0506 C   0  0  0  0  0  0  0  0  0  0  0  0
  150.7400  143.6719  158.3817 C   0  0  0  0  0  0  0  0  0  0  0  0
  151.4935  142.5446  158.7603 C   0  0  0  0  0  0  0  0  0  0  0  0
  148.8362  140.2729  153.6566 H   0  0  0  0  0  0  0  0  0  0  0  0
  149.2331  141.9466  154.0474 H   0  0  0  0  0  0  0  0  0  0  0  0
  148.4765  140.9024  155.2645 H   0  0  0  0  0  0  0  0  0  0  0  0
  152.0774  141.4540  155.7656 H   0  0  0  0  0  0  0  0  0  0  0  0
  150.5402  142.3062  155.8770 H   0  0  0  0  0  0  0  0  0  0  0  0
  149.6747  140.7633  157.5246 H   0  0  0  0  0  0  0  0  0  0  0  0
  150.9116  139.5758  157.2012 H   0  0  0  0  0  0  0  0  0  0  0  0
  153.5116  138.8580  159.6737 H   0  0  0  0  0  0  0  0  0  0  0  0
  151.9139  138.5658  159.0012 H   0  0  0  0  0  0  0  0  0  0  0  0
  152.7197  138.5087  157.0734 H   0  0  0  0  0  0  0  0  0  0  0  0
  153.3797  143.9247  161.2551 H   0  0  0  0  0  0  0  0  0  0  0  0
  152.0528  145.9202  160.5968 H   0  0  0  0  0  0  0  0  0  0  0  0
  150.3745  145.7663  158.7700 H   0  0  0  0  0  0  0  0  0  0  0  0
  150.0118  143.6024  157.5873 H   0  0  0  0  0  0  0  0  0  0  0  0
  1  2  1  0  0  0  0
  1 16  1  0  0  0  0
  1 17  1  0  0  0  0
  1 18  1  0  0  0  0
  2  3  1  0  0  0  0
  3  4  1  0  0  0  0
  3 19  1  0  0  0  0
  3 20  1  0  0  0  0
  4  5  1  0  0  0  0
  4 21  1  0  0  0  0
  4 22  1  0  0  0  0
  5 15  1  0  0  0  0
  5  6  1  0  0  0  0
  6  7  1  0  0  0  0
  6  9  2  0  0  0  0
  7  8  1  0  0  0  0
  7 23  1  0  0  0  0
  7 24  1  0  0  0  0
  8 25  1  0  0  0  0
  9 10  1  0  0  0  0
 10 15  2  0  0  0  0
 10 11  1  0  0  0  0
 11 12  2  0  0  0  0
 11 26  1  0  0  0  0
 12 13  1  0  0  0  0
 12 27  1  0  0  0  0
 13 14  2  0  0  0  0
 13 28  1  0  0  0  0
 14 15  1  0  0  0  0
 14 29  1  0  0  0  0
M  END
> <s_m_source_file>
AV-unprocessed.smi

> <i_m_source_file_index>
2950

> <i_lp_mmshare_version>
43012

> <i_f3d_flags>
0

> <s_epik_input>
W0NIM11PW0NIMl1bQ0gyXW4oYyhuMSlbQ0gyXVtPSF0pYyhjMTIpW2NIXVtjSF1bY0hdW2NIXTI=

> <s_epik_cmdline>
J2VwaWtfcHl0aG9uJywgJy1waCcsICc3LjAnLCAnLXRuJywgJzgnLCAnLW1hJywgJzIwMCcsICctbWV0YWxfYmluZGluZycsICctaW1hZScsICc8aW5maWxlLm1hZT4nLCAnLW9tYWUnLCAnPG91dGZpbGUubWFlPic=

> <r_epik_Ionization_Penalty>
0.0637339

> <r_epik_Ionization_Penalty_Charging>
0

> <r_epik_Ionization_Penalty_Neutral>
0.0637339

> <r_epik_State_Penalty>
0.0554025

> <r_epik_Charging_Adjusted_Penalty>
0.0554025

> <i_epik_Tot_Q>
0

> <i_epik_Tot_abs_Q>
0

> <r_epik_Metal_State_Penalty>
5.80726e-05

> <b_epik_Metal_Only>
0

> <s_lp_Force_Field>
OPLS_2005

> <r_lp_Energy>
9.41749

> <b_lp_Chiralities_Consistent>
1

> <s_lp_Variant>
AV-unprocessed.smi:2950-1

> <Gold.Version>
5.8.1

> <Gold.Id.Protein>
6NUR|6NUR_protein|mol2

> <Gold.PLP.Fitness>
40.6918

> <Gold.PLP.PLP>
-35.3518

> <Gold.PLP.part.hbond>
-2.0000

> <Gold.PLP.part.metal>
0.0000

> <Gold.PLP.part.buried>
-5.4691

> <Gold.PLP.part.nonpolar>
-26.7521

> <Gold.PLP.part.repulsive>
0.0808

> <Gold.PLP.ligand.clash>
0.0000

> <Gold.PLP.ligand.torsion>
0.3457

> <Gold.PLP.Chemscore.Hbond>
2.0000

> <Gold.PLP.Chemscore.CHOScore>
0.0000

> <Gold.PLP.Chemscore.Metal>
0.0000

> <Gold.Chemscore.Hbonds>
donor molecule, donor type, donor heavy atom, donor atom, acceptor molecule, acceptor atom, score
      P1  H  7989  7998       L1     2  1.00
      P1  H  7997  8008       L1     8  1.00

> <Gold.PLP.Chemscore.Internal.Correction>
0.0313

> <Gold.Rescore>
     Score         DG    S(hbond)    S(metal)    S(lipo)     H(rot)  DE(clash)    DE(int)     intcor
     15.80     -15.97       1.69        0.00      88.36       2.14       0.00       0.18       ----

> <Gold.Chemscore.Fitness>
15.7983

> <Gold.Chemscore.DG>
-15.9745

> <Gold.Chemscore.ZeroCoef>
-5.4800

> <Gold.Chemscore.Hbond>
1.6887

> <Gold.Chemscore.Metal>
0.0000

> <Gold.Chemscore.Lipo>
88.3554

> <Gold.Chemscore.Internal_Hbond>
0.0000

> <Gold.Chemscore.DEClash>
0.0000

> <Gold.Chemscore.DEInternal>
0.1762

> <Gold.Chemscore.Rot>
2.1420

> <Gold.Chemscore.Internal.Correction>
   9.000000E+99

> <Gold.Chemscore.Hbonds>
donor molecule, donor type, donor heavy atom, donor atom, acceptor molecule, acceptor atom, score
      P1  H  7989  7998       L1     2  0.16
      P1  H  7997  8008       L1     8  0.87

> <Gold.Chemscore.Hbond.Weighted>
-5.6404

> <Gold.Chemscore.Metal.Weighted>
-0.0000

> <Gold.Chemscore.Lipo.Weighted>
-10.3376

> <Gold.Chemscore.Internal_Hbond.Weighted>
0.0000

> <Gold.Chemscore.DEClash.Weighted>
0.0000

> <Gold.Chemscore.DEInternal.Weighted>
0.1762

> <Gold.Chemscore.Rot.Weighted>
5.4834

> <Gold.Chemscore.Internal.Correction.Weighted>
   9.000000E+99

> <Gold.Protein.RotatedTorsions>
[ 6907 6896 6895 6894 ] final  144.30 input  -60.11 | X-H torsion
[ 7974 7965 7964 7962 ] final   96.22 input  175.53 | X-H torsion
[ 8008 7997 7996 7995 ] final  -71.09 input   59.86 | X-H torsion
[ 10167 10162 10161 10158 ] final -147.69 input  -65.29 | X-H torsion
[ 10718 10713 10712 10709 ] final  137.43 input   66.30 | X-H torsion
[ 10763 10752 10751 10750 ] final   55.01 input  -60.55 | X-H torsion
[ 11005 11000 10999 10996 ] final   98.86 input  -57.11 | X-H torsion

> <Gold.Protein.ActiveResidues>
 VAL166  LYS551  ARG553  GLY616  TRP617  ASP618  TYR619  PRO620  LYS621  CYS622 
 ASP623  PHE694  ASN695  SER759  ASP760  ASP761  ALA762  ILE779  LEU786  VAL792 
 PHE793  MET794  SER795  GLU796  ALA797  LYS798  CYS799  TRP800  GLU811  SER814 

> <Gold.Protein.RotatedAtoms>
  152.1955  133.4803  159.5030 H   0  0  0  0  0  0  0  0  0  0  0  0  # atno 6907 bound_to 6896
  150.6959  134.1658  159.4202 H   0  0  0  0  0  0  0  0  0  0  0  0  # atno 6908 bound_to 6896
  151.9574  135.0140  160.0596 H   0  0  0  0  0  0  0  0  0  0  0  0  # atno 6909 bound_to 6896
  145.4417  139.2300  143.3088 H   0  0  0  0  0  0  0  0  0  0  0  0  # atno 7974 bound_to 7965
  154.5061  140.0822  156.7897 H   0  0  0  0  0  0  0  0  0  0  0  0  # atno 8008 bound_to 7997
  155.3891  140.3431  155.4232 H   0  0  0  0  0  0  0  0  0  0  0  0  # atno 8009 bound_to 7997
  156.1517  140.1560  156.8746 H   0  0  0  0  0  0  0  0  0  0  0  0  # atno 8010 bound_to 7997
  139.7599  143.8392  152.2605 H   0  0  0  0  0  0  0  0  0  0  0  0  # atno 10167 bound_to 10162
  157.4362  131.1053  151.0195 H   0  0  0  0  0  0  0  0  0  0  0  0  # atno 10718 bound_to 10713
  152.9811  135.5725  154.4998 H   0  0  0  0  0  0  0  0  0  0  0  0  # atno 10763 bound_to 10752
  154.4519  135.2779  155.1777 H   0  0  0  0  0  0  0  0  0  0  0  0  # atno 10764 bound_to 10752
  154.3401  135.6231  153.5646 H   0  0  0  0  0  0  0  0  0  0  0  0  # atno 10765 bound_to 10752
  139.8771  134.9069  156.4519 H   0  0  0  0  0  0  0  0  0  0  0  0  # atno 11005 bound_to 11000
  146.2553  140.5166  142.8876 LP  0  0  0  0  0  0  0  0  0  0  0  0  # atno 17320 bound_to 7965
  144.8117  140.6398  143.6411 LP  0  0  0  0  0  0  0  0  0  0  0  0  # atno 17321 bound_to 7965
  139.8395  144.7216  150.9349 LP  0  0  0  0  0  0  0  0  0  0  0  0  # atno 17342 bound_to 10162
  140.7806  143.3996  151.1171 LP  0  0  0  0  0  0  0  0  0  0  0  0  # atno 17343 bound_to 10162
  157.1074  130.6007  149.5474 LP  0  0  0  0  0  0  0  0  0  0  0  0  # atno 17370 bound_to 10713
  155.9931  130.4991  150.7367 LP  0  0  0  0  0  0  0  0  0  0  0  0  # atno 17371 bound_to 10713
  140.8926  133.7837  155.9589 LP  0  0  0  0  0  0  0  0  0  0  0  0  # atno 17394 bound_to 11000
  140.8737  134.2695  157.5178 LP  0  0  0  0  0  0  0  0  0  0  0  0  # atno 17395 bound_to 11000

$$$$
