AV-unprocessed.smi:1205|AV-procd|sdf|5046|dock5
  -GOLD-   22720 4 73D 1   1.00000     0.00000
 Structure written by MMmdl.
 49 50  0  0  0  0  0  0  0  0  2 V2000
  152.2151  141.2579  157.9614 C   0  0  0  0  0  0  0  0  0  0  0  0
  151.6753  140.5456  156.7564 C   0  0  0  0  0  0  0  0  0  0  0  0
  150.4690  140.8127  156.0453 C   0  0  0  0  0  0  0  0  0  0  0  0
  150.4882  139.8682  155.0557 C   0  0  0  0  0  0  0  0  0  0  0  0
  149.5759  139.6397  154.0740 N   0  0  0  0  0  0  0  0  0  0  0  0
  148.3536  139.0896  154.1748 C   0  0  0  0  0  0  0  0  0  0  0  0
  147.8321  138.6875  155.2152 O   0  0  0  0  0  0  0  0  0  0  0  0
  147.7465  139.0369  152.9808 N   0  0  0  0  0  0  0  0  0  0  0  0
  146.4080  138.5042  152.7474 C   0  0  0  0  0  0  0  0  0  0  0  0
  146.1658  137.1614  153.4838 C   0  0  1  0  0  0  0  0  0  0  0  0
  144.9285  137.2006  154.4012 C   0  0  0  0  0  0  0  0  0  0  0  0
  146.1013  135.9897  152.5621 N   0  3  2  0  0  0  0  0  0  0  0  0
  144.9606  136.0470  151.6100 C   0  0  0  0  0  0  0  0  0  0  0  0
  145.1001  134.9638  150.5284 C   0  0  0  0  0  0  0  0  0  0  0  0
  145.2274  133.5696  151.1571 C   0  0  0  0  0  0  0  0  0  0  0  0
  146.3870  133.5392  152.1681 C   0  0  2  0  0  0  0  0  0  0  0  0
  146.5155  132.1614  152.8327 C   0  0  0  0  0  0  0  0  0  0  0  0
  146.2074  134.6559  153.2155 C   0  0  0  0  0  0  0  0  0  0  0  0
  151.6270  139.1054  155.1899 N   0  0  0  0  0  0  0  0  0  0  0  0
  152.0867  137.9862  154.3907 C   0  0  0  0  0  0  0  0  0  0  0  0
  152.3590  139.5292  156.2425 N   0  0  0  0  0  0  0  0  0  0  0  0
  151.5638  142.0800  158.2583 H   0  0  0  0  0  0  0  0  0  0  0  0
  153.2033  141.6735  157.7624 H   0  0  0  0  0  0  0  0  0  0  0  0
  152.3024  140.5805  158.8112 H   0  0  0  0  0  0  0  0  0  0  0  0
  149.7284  141.5716  156.2472 H   0  0  0  0  0  0  0  0  0  0  0  0
  149.8554  139.9394  153.1517 H   0  0  0  0  0  0  0  0  0  0  0  0
  148.2460  139.3866  152.1759 H   0  0  0  0  0  0  0  0  0  0  0  0
  145.7027  139.2613  153.0898 H   0  0  0  0  0  0  0  0  0  0  0  0
  146.2485  138.3966  151.6736 H   0  0  0  0  0  0  0  0  0  0  0  0
  147.0141  136.9844  154.1464 H   0  0  0  0  0  0  0  0  0  0  0  0
  145.0497  137.9362  155.1970 H   0  0  0  0  0  0  0  0  0  0  0  0
  144.7653  136.2351  154.8810 H   0  0  0  0  0  0  0  0  0  0  0  0
  144.0219  137.4606  153.8552 H   0  0  0  0  0  0  0  0  0  0  0  0
  144.0197  135.9188  152.1462 H   0  0  0  0  0  0  0  0  0  0  0  0
  144.9218  137.0256  151.1298 H   0  0  0  0  0  0  0  0  0  0  0  0
  144.2403  134.9928  149.8583 H   0  0  0  0  0  0  0  0  0  0  0  0
  145.9778  135.1703  149.9141 H   0  0  0  0  0  0  0  0  0  0  0  0
  144.2929  133.3063  151.6547 H   0  0  0  0  0  0  0  0  0  0  0  0
  145.3855  132.8245  150.3766 H   0  0  0  0  0  0  0  0  0  0  0  0
  147.3146  133.7303  151.6262 H   0  0  0  0  0  0  0  0  0  0  0  0
  145.6178  131.9076  153.3975 H   0  0  0  0  0  0  0  0  0  0  0  0
  147.3603  132.1336  153.5215 H   0  0  0  0  0  0  0  0  0  0  0  0
  146.6724  131.3800  152.0885 H   0  0  0  0  0  0  0  0  0  0  0  0
  147.0538  134.6409  153.9016 H   0  0  0  0  0  0  0  0  0  0  0  0
  145.3135  134.4597  153.8090 H   0  0  0  0  0  0  0  0  0  0  0  0
  152.0279  138.2406  153.3321 H   0  0  0  0  0  0  0  0  0  0  0  0
  151.4585  137.1168  154.5849 H   0  0  0  0  0  0  0  0  0  0  0  0
  153.1208  137.7394  154.6353 H   0  0  0  0  0  0  0  0  0  0  0  0
  146.9244  136.0743  151.9831 H   0  0  0  0  0  0  0  0  0  0  0  0
  1  2  1  0  0  0  0
  1 22  1  0  0  0  0
  1 23  1  0  0  0  0
  1 24  1  0  0  0  0
  2 21  2  0  0  0  0
  2  3  1  0  0  0  0
  3  4  2  0  0  0  0
  3 25  1  0  0  0  0
  4  5  1  0  0  0  0
  4 19  1  0  0  0  0
  5  6  1  0  0  0  0
  5 26  1  0  0  0  0
  6  7  2  0  0  0  0
  6  8  1  0  0  0  0
  8  9  1  0  0  0  0
  8 27  1  0  0  0  0
  9 10  1  0  0  0  0
  9 28  1  0  0  0  0
  9 29  1  0  0  0  0
 10 11  1  0  0  0  0
 10 12  1  0  0  0  0
 10 30  1  0  0  0  0
 11 31  1  0  0  0  0
 11 32  1  0  0  0  0
 11 33  1  0  0  0  0
 12 18  1  0  0  0  0
 12 13  1  0  0  0  0
 12 49  1  0  0  0  0
 13 14  1  0  0  0  0
 13 34  1  0  0  0  0
 13 35  1  0  0  0  0
 14 15  1  0  0  0  0
 14 36  1  0  0  0  0
 14 37  1  0  0  0  0
 15 16  1  0  0  0  0
 15 38  1  0  0  0  0
 15 39  1  0  0  0  0
 16 17  1  0  0  0  0
 16 18  1  0  0  0  0
 16 40  1  0  0  0  0
 17 41  1  0  0  0  0
 17 42  1  0  0  0  0
 17 43  1  0  0  0  0
 18 44  1  0  0  0  0
 18 45  1  0  0  0  0
 19 20  1  0  0  0  0
 19 21  1  0  0  0  0
 20 46  1  0  0  0  0
 20 47  1  0  0  0  0
 20 48  1  0  0  0  0
M  CHG  1  12   1
M  END
> <s_m_source_file>
AV-unprocessed.smi

> <i_m_source_file_index>
1205

> <i_lp_mmshare_version>
43012

> <i_f3d_flags>
0

> <s_epik_input>
W0NIM11jMVtjSF1jKG4objEpW0NIM10pW05IXUMoPU8pW05IXVtDSDJdW0NASF0oW0NIM10pTjJbQ0gyXVtDSDJdW0NIMl1bQ0BASF0oW0NIM10pW0NIMl0y

> <s_epik_cmdline>
J2VwaWtfcHl0aG9uJywgJy1waCcsICc3LjAnLCAnLXRuJywgJzgnLCAnLW1hJywgJzIwMCcsICctbWV0YWxfYmluZGluZycsICctaW1hZScsICc8aW5maWxlLm1hZT4nLCAnLW9tYWUnLCAnPG91dGZpbGUubWFlPic=

> <r_lp_tautomer_probability>
1

> <r_epik_Ionization_Penalty>
0.0020309

> <r_epik_Ionization_Penalty_Charging>
0.00195276

> <r_epik_Ionization_Penalty_Neutral>
7.81448e-05

> <r_epik_State_Penalty>
0.00133177

> <r_epik_Charging_Adjusted_Penalty>
0.00328452

> <i_epik_Tot_Q>
1

> <i_epik_Tot_abs_Q>
1

> <r_epik_Metal_State_Penalty>
-0

> <b_epik_Metal_Only>
0

> <s_lp_Force_Field>
OPLS_2005

> <r_lp_Energy>
21.2667

> <b_lp_Chiralities_Consistent>
1

> <s_lp_Variant>
AV-unprocessed.smi:1205-8

> <Gold.Version>
5.8.1

> <Gold.Id.Protein>
6NUR|6NUR_protein|mol2

> <Gold.PLP.Fitness>
47.7502

> <Gold.PLP.PLP>
-35.8168

> <Gold.PLP.part.hbond>
-4.6542

> <Gold.PLP.part.metal>
0.0000

> <Gold.PLP.part.buried>
-2.7365

> <Gold.PLP.part.nonpolar>
-28.2950

> <Gold.PLP.part.repulsive>
0.2563

> <Gold.PLP.ligand.clash>
0.0000

> <Gold.PLP.ligand.torsion>
1.5692

> <Gold.PLP.Chemscore.Hbond>
4.9840

> <Gold.PLP.Chemscore.CHOScore>
0.0000

> <Gold.PLP.Chemscore.Metal>
0.0000

> <Gold.Chemscore.Hbonds>
donor molecule, donor type, donor heavy atom, donor atom, acceptor molecule, acceptor atom, score
      L1  H     5    26       P1  7957  1.00
      L1  H     8    27       P1  7957  1.00
      L1  H    12    49       P1  7948  1.98
      P1  H  7997  8009       L1    21  0.93

> <Gold.PLP.Chemscore.Internal.Correction>
0.1197

> <Gold.Rescore>
     Score         DG    S(hbond)    S(metal)    S(lipo)     H(rot)  DE(clash)    DE(int)     intcor
     19.19     -22.30       3.72        0.00      69.59       1.47       0.05       3.07       ----

> <Gold.Chemscore.Fitness>
19.1894

> <Gold.Chemscore.DG>
-22.3025

> <Gold.Chemscore.ZeroCoef>
-5.4800

> <Gold.Chemscore.Hbond>
3.7226

> <Gold.Chemscore.Metal>
0.0000

> <Gold.Chemscore.Lipo>
69.5867

> <Gold.Chemscore.Internal_Hbond>
0.0000

> <Gold.Chemscore.DEClash>
0.0470

> <Gold.Chemscore.DEInternal>
3.0661

> <Gold.Chemscore.Rot>
1.4658

> <Gold.Chemscore.Internal.Correction>
   9.000000E+99

> <Gold.Chemscore.Hbonds>
donor molecule, donor type, donor heavy atom, donor atom, acceptor molecule, acceptor atom, score
      L1  H     5    26       P1  7957  0.92
      L1  H     8    27       P1  7957  1.00
      L1  H    12    49       P1  7948  0.90
      P1  H  7997  8009       L1    21  0.44

> <Gold.Chemscore.Hbond.Weighted>
-12.4334

> <Gold.Chemscore.Metal.Weighted>
-0.0000

> <Gold.Chemscore.Lipo.Weighted>
-8.1416

> <Gold.Chemscore.Internal_Hbond.Weighted>
0.0000

> <Gold.Chemscore.DEClash.Weighted>
0.0470

> <Gold.Chemscore.DEInternal.Weighted>
3.0661

> <Gold.Chemscore.Rot.Weighted>
3.7526

> <Gold.Chemscore.Internal.Correction.Weighted>
   9.000000E+99

> <Gold.Protein.RotatedTorsions>
[ 6907 6896 6895 6894 ] final   88.83 input  -60.11 | X-H torsion
[ 7974 7965 7964 7962 ] final   -7.25 input  175.53 | X-H torsion
[ 8008 7997 7996 7995 ] final -162.30 input   59.86 | X-H torsion
[ 10167 10162 10161 10158 ] final  -86.71 input  -65.29 | X-H torsion
[ 10718 10713 10712 10709 ] final  -80.33 input   66.30 | X-H torsion
[ 10763 10752 10751 10750 ] final  -34.12 input  -60.55 | X-H torsion
[ 11005 11000 10999 10996 ] final -127.41 input  -57.11 | X-H torsion

> <Gold.Protein.ActiveResidues>
 VAL166  LYS551  ARG553  GLY616  TRP617  ASP618  TYR619  PRO620  LYS621  CYS622 
 ASP623  PHE694  ASN695  SER759  ASP760  ASP761  ALA762  ILE779  LEU786  VAL792 
 PHE793  MET794  SER795  GLU796  ALA797  LYS798  CYS799  TRP800  GLU811  SER814 

> <Gold.Protein.RotatedAtoms>
  152.5430  134.2060  159.8730 H   0  0  0  0  0  0  0  0  0  0  0  0  # atno 6907 bound_to 6896
  151.2045  133.4584  159.2604 H   0  0  0  0  0  0  0  0  0  0  0  0  # atno 6908 bound_to 6896
  151.0956  134.9955  159.8479 H   0  0  0  0  0  0  0  0  0  0  0  0  # atno 6909 bound_to 6896
  146.2311  140.2292  142.8339 H   0  0  0  0  0  0  0  0  0  0  0  0  # atno 7974 bound_to 7965
  155.8048  140.0897  157.1937 H   0  0  0  0  0  0  0  0  0  0  0  0  # atno 8008 bound_to 7997
  154.3981  140.1465  156.3376 H   0  0  0  0  0  0  0  0  0  0  0  0  # atno 8009 bound_to 7997
  155.8426  140.3438  155.5644 H   0  0  0  0  0  0  0  0  0  0  0  0  # atno 8010 bound_to 7997
  140.3915  143.2703  151.9258 H   0  0  0  0  0  0  0  0  0  0  0  0  # atno 10167 bound_to 10162
  156.0072  130.4571  150.3784 H   0  0  0  0  0  0  0  0  0  0  0  0  # atno 10718 bound_to 10713
  153.8415  135.6857  153.4802 H   0  0  0  0  0  0  0  0  0  0  0  0  # atno 10763 bound_to 10752
  153.1451  135.4641  154.9552 H   0  0  0  0  0  0  0  0  0  0  0  0  # atno 10764 bound_to 10752
  154.7843  135.3279  154.7868 H   0  0  0  0  0  0  0  0  0  0  0  0  # atno 10765 bound_to 10752
  140.9601  134.0947  157.3976 H   0  0  0  0  0  0  0  0  0  0  0  0  # atno 11005 bound_to 11000
  144.9571  140.8238  143.5536 LP  0  0  0  0  0  0  0  0  0  0  0  0  # atno 17320 bound_to 7965
  145.2258  139.2137  143.5069 LP  0  0  0  0  0  0  0  0  0  0  0  0  # atno 17321 bound_to 7965
  139.4789  144.5723  151.8068 LP  0  0  0  0  0  0  0  0  0  0  0  0  # atno 17342 bound_to 10162
  140.4835  144.1415  150.5937 LP  0  0  0  0  0  0  0  0  0  0  0  0  # atno 17343 bound_to 10162
  157.1865  131.0405  151.2722 LP  0  0  0  0  0  0  0  0  0  0  0  0  # atno 17370 bound_to 10713
  157.4100  130.7380  149.6831 LP  0  0  0  0  0  0  0  0  0  0  0  0  # atno 17371 bound_to 10713
  139.8875  135.0090  156.6566 LP  0  0  0  0  0  0  0  0  0  0  0  0  # atno 17394 bound_to 11000
  140.7479  133.8922  155.8325 LP  0  0  0  0  0  0  0  0  0  0  0  0  # atno 17395 bound_to 11000

$$$$
