AV-unprocessed.smi:2845|AV-procd|sdf|10949|dock9
  -GOLD-   2272015403D 1   1.00000     0.00000
 Structure written by MMmdl.
 43 45  0  0  0  0  0  0  0  0  2 V2000
  152.1838  143.5155  160.3102 C   0  0  0  0  0  0  0  0  0  0  0  0
  151.8807  142.5786  159.1533 C   0  0  0  0  0  0  0  0  0  0  0  0
  151.0426  143.0402  158.1133 C   0  0  0  0  0  0  0  0  0  0  0  0
  150.7824  142.1593  157.0701 C   0  0  0  0  0  0  0  0  0  0  0  0
  150.0057  142.3094  155.9193 N   0  3  0  0  0  0  0  0  0  0  0  0
  150.0521  141.1623  155.1868 C   0  0  0  0  0  0  0  0  0  0  0  0
  150.8486  140.2821  155.8517 N   0  0  0  0  0  0  0  0  0  0  0  0
  151.2312  138.9081  155.4949 C   0  0  0  0  0  0  0  0  0  0  0  0
  150.0628  138.0898  154.9115 C   0  0  2  0  0  0  0  0  0  0  0  0
  149.7530  138.5491  153.6091 O   0  0  0  0  0  0  0  0  0  0  0  0
  148.8095  138.1671  155.8045 C   0  0  0  0  0  0  0  0  0  0  0  0
  148.8429  137.2102  156.8961 N   0  0  0  0  0  0  0  0  0  0  0  0
  149.3412  135.9714  156.9488 C   0  0  0  0  0  0  0  0  0  0  0  0
  149.1826  135.3757  158.1236 N   0  0  0  0  0  0  0  0  0  0  0  0
  148.5394  136.3802  158.7860 C   0  0  0  0  0  0  0  0  0  0  0  0
  148.0068  136.1877  160.5158 S   0  0  2  0  0  0  0  0  0  0  0  0
  147.0168  134.6461  160.2279 C   0  0  0  0  0  0  0  0  0  0  0  0
  147.0088  137.3175  160.7776 O   0  0  0  0  0  0  0  0  0  0  0  0
  148.3071  137.5007  158.1052 N   0  0  0  0  0  0  0  0  0  0  0  0
  151.3258  140.8605  157.0343 C   0  0  0  0  0  0  0  0  0  0  0  0
  152.1529  140.3902  158.0519 C   0  0  0  0  0  0  0  0  0  0  0  0
  152.4274  141.2696  159.1235 C   0  0  0  0  0  0  0  0  0  0  0  0
  153.3228  140.7812  160.2495 C   0  0  0  0  0  0  0  0  0  0  0  0
  151.7090  144.4874  160.1719 H   0  0  0  0  0  0  0  0  0  0  0  0
  153.2578  143.6800  160.3991 H   0  0  0  0  0  0  0  0  0  0  0  0
  151.8181  143.0962  161.2478 H   0  0  0  0  0  0  0  0  0  0  0  0
  150.6212  144.0347  158.1301 H   0  0  0  0  0  0  0  0  0  0  0  0
  149.5488  140.9839  154.2475 H   0  0  0  0  0  0  0  0  0  0  0  0
  152.0336  138.9815  154.7598 H   0  0  0  0  0  0  0  0  0  0  0  0
  151.6632  138.4171  156.3673 H   0  0  0  0  0  0  0  0  0  0  0  0
  150.3714  137.0470  154.8269 H   0  0  0  0  0  0  0  0  0  0  0  0
  149.5338  137.8026  153.0719 H   0  0  0  0  0  0  0  0  0  0  0  0
  148.7182  139.1650  156.2352 H   0  0  0  0  0  0  0  0  0  0  0  0
  147.9069  137.9989  155.2147 H   0  0  0  0  0  0  0  0  0  0  0  0
  149.8259  135.4947  156.1093 H   0  0  0  0  0  0  0  0  0  0  0  0
  147.4592  134.0399  159.4371 H   0  0  0  0  0  0  0  0  0  0  0  0
  145.9970  134.9014  159.9403 H   0  0  0  0  0  0  0  0  0  0  0  0
  146.9810  134.0493  161.1389 H   0  0  0  0  0  0  0  0  0  0  0  0
  152.5644  139.3919  158.0333 H   0  0  0  0  0  0  0  0  0  0  0  0
  153.6426  139.7512  160.0875 H   0  0  0  0  0  0  0  0  0  0  0  0
  152.7949  140.8191  161.2026 H   0  0  0  0  0  0  0  0  0  0  0  0
  154.2172  141.4002  160.3231 H   0  0  0  0  0  0  0  0  0  0  0  0
  149.4810  143.1323  155.6518 H   0  0  0  0  0  0  0  0  0  0  0  0
  1  2  1  0  0  0  0
  1 24  1  0  0  0  0
  1 25  1  0  0  0  0
  1 26  1  0  0  0  0
  2 22  1  0  0  0  0
  2  3  2  0  0  0  0
  3  4  1  0  0  0  0
  3 27  1  0  0  0  0
  4 20  2  0  0  0  0
  4  5  1  0  0  0  0
  5  6  2  0  0  0  0
  5 43  1  0  0  0  0
  6  7  1  0  0  0  0
  6 28  1  0  0  0  0
  7  8  1  0  0  0  0
  7 20  1  0  0  0  0
  8  9  1  0  0  0  0
  8 29  1  0  0  0  0
  8 30  1  0  0  0  0
  9 10  1  0  0  0  0
  9 11  1  0  0  0  0
  9 31  1  0  0  0  0
 10 32  1  0  0  0  0
 11 12  1  0  0  0  0
 11 33  1  0  0  0  0
 11 34  1  0  0  0  0
 12 19  1  0  0  0  0
 12 13  1  0  0  0  0
 13 14  2  0  0  0  0
 13 35  1  0  0  0  0
 14 15  1  0  0  0  0
 15 16  1  0  0  0  0
 15 19  2  0  0  0  0
 16 17  1  0  0  0  0
 16 18  2  0  0  0  0
 17 36  1  0  0  0  0
 17 37  1  0  0  0  0
 17 38  1  0  0  0  0
 20 21  1  0  0  0  0
 21 22  2  0  0  0  0
 21 39  1  0  0  0  0
 22 23  1  0  0  0  0
 23 40  1  0  0  0  0
 23 41  1  0  0  0  0
 23 42  1  0  0  0  0
M  CHG  1   5   1
M  END
> <s_m_source_file>
AV-unprocessed.smi

> <i_m_source_file_index>
2845

> <i_lp_mmshare_version>
43012

> <i_f3d_flags>
0

> <s_epik_input>
W0NIM11jKFtjSF0xKWMoW0NIM10pW2NIXWMoYzEyKW4oW2NIXW4yKVtDSDJdW0NASF0oW09IXSlbQ0gyXW4zW2NIXW5jKG4zKVtTQF0oPU8pW0NIM10=

> <s_epik_cmdline>
J2VwaWtfcHl0aG9uJywgJy1waCcsICc3LjAnLCAnLXRuJywgJzgnLCAnLW1hJywgJzIwMCcsICctbWV0YWxfYmluZGluZycsICctaW1hZScsICc8aW5maWxlLm1hZT4nLCAnLW9tYWUnLCAnPG91dGZpbGUubWFlPic=

> <r_lp_tautomer_probability>
1

> <r_epik_Ionization_Penalty>
1.12076

> <r_epik_Ionization_Penalty_Charging>
1.12075

> <r_epik_Ionization_Penalty_Neutral>
1.54566e-06

> <r_epik_State_Penalty>
1.17957

> <r_epik_Charging_Adjusted_Penalty>
2.30033

> <i_epik_Tot_Q>
1

> <i_epik_Tot_abs_Q>
1

> <r_epik_Metal_State_Penalty>
1.26402

> <b_epik_Metal_Only>
0

> <s_lp_Force_Field>
OPLS_2005

> <r_lp_Energy>
14.9183

> <b_lp_Chiralities_Consistent>
1

> <s_lp_Variant>
AV-unprocessed.smi:2845-7

> <Gold.Version>
5.8.1

> <Gold.Id.Protein>
6NUR|6NUR_protein|mol2

> <Gold.PLP.Fitness>
55.2630

> <Gold.PLP.PLP>
-41.0972

> <Gold.PLP.part.hbond>
-6.0000

> <Gold.PLP.part.metal>
0.0000

> <Gold.PLP.part.buried>
-4.2563

> <Gold.PLP.part.nonpolar>
-31.0305

> <Gold.PLP.part.repulsive>
0.1407

> <Gold.PLP.ligand.clash>
0.0000

> <Gold.PLP.ligand.torsion>
1.5104

> <Gold.PLP.Chemscore.Hbond>
5.3894

> <Gold.PLP.Chemscore.CHOScore>
0.0000

> <Gold.PLP.Chemscore.Metal>
0.0000

> <Gold.Chemscore.Hbonds>
donor molecule, donor type, donor heavy atom, donor atom, acceptor molecule, acceptor atom, score
      L1  H     5    43       P1  8028  2.00
      L1  H    10    32       P1  7948  1.00
      P1  H  6896  6907       L1    14  0.55
      P1  H  6934  6947       L1    18  1.00

> <Gold.PLP.Chemscore.Internal.Correction>
1.0183

> <Gold.Rescore>
     Score         DG    S(hbond)    S(metal)    S(lipo)     H(rot)  DE(clash)    DE(int)     intcor
     20.37     -21.92       3.88        0.00      90.26       2.77       0.05       1.49       ----

> <Gold.Chemscore.Fitness>
20.3707

> <Gold.Chemscore.DG>
-21.9170

> <Gold.Chemscore.ZeroCoef>
-5.4800

> <Gold.Chemscore.Hbond>
3.8812

> <Gold.Chemscore.Metal>
0.0000

> <Gold.Chemscore.Lipo>
90.2567

> <Gold.Chemscore.Internal_Hbond>
0.0000

> <Gold.Chemscore.DEClash>
0.0545

> <Gold.Chemscore.DEInternal>
1.4919

> <Gold.Chemscore.Rot>
2.7681

> <Gold.Chemscore.Internal.Correction>
   9.000000E+99

> <Gold.Chemscore.Hbonds>
donor molecule, donor type, donor heavy atom, donor atom, acceptor molecule, acceptor atom, score
      L1  H     5    43       P1  8028  1.00
      L1  H    10    32       P1  7948  0.80
      P1  H  6896  6907       L1    14  0.42
      P1  H  6934  6947       L1    18  1.00

> <Gold.Chemscore.Hbond.Weighted>
-12.9633

> <Gold.Chemscore.Metal.Weighted>
-0.0000

> <Gold.Chemscore.Lipo.Weighted>
-10.5600

> <Gold.Chemscore.Internal_Hbond.Weighted>
0.0000

> <Gold.Chemscore.DEClash.Weighted>
0.0545

> <Gold.Chemscore.DEInternal.Weighted>
1.4919

> <Gold.Chemscore.Rot.Weighted>
7.0863

> <Gold.Chemscore.Internal.Correction.Weighted>
   9.000000E+99

> <Gold.Protein.RotatedTorsions>
[ 6907 6896 6895 6894 ] final  -84.51 input  -60.11 | X-H torsion
[ 7974 7965 7964 7962 ] final  -87.53 input  175.53 | X-H torsion
[ 8008 7997 7996 7995 ] final   84.02 input   59.86 | X-H torsion
[ 10167 10162 10161 10158 ] final -178.39 input  -65.29 | X-H torsion
[ 10718 10713 10712 10709 ] final  -46.94 input   66.30 | X-H torsion
[ 10763 10752 10751 10750 ] final   88.53 input  -60.55 | X-H torsion
[ 11005 11000 10999 10996 ] final   19.00 input  -57.11 | X-H torsion

> <Gold.Protein.ActiveResidues>
 VAL166  LYS551  ARG553  GLY616  TRP617  ASP618  TYR619  PRO620  LYS621  CYS622 
 ASP623  PHE694  ASN695  SER759  ASP760  ASP761  ALA762  ILE779  LEU786  VAL792 
 PHE793  MET794  SER795  GLU796  ALA797  LYS798  CYS799  TRP800  GLU811  SER814 

> <Gold.Protein.RotatedAtoms>
  150.6876  134.3348  159.4842 H   0  0  0  0  0  0  0  0  0  0  0  0  # atno 6907 bound_to 6896
  152.1208  134.9204  160.0572 H   0  0  0  0  0  0  0  0  0  0  0  0  # atno 6908 bound_to 6896
  152.0411  133.3943  159.4374 H   0  0  0  0  0  0  0  0  0  0  0  0  # atno 6909 bound_to 6896
  145.4653  140.9560  143.1947 H   0  0  0  0  0  0  0  0  0  0  0  0  # atno 7974 bound_to 7965
  155.9316  140.3414  155.6254 H   0  0  0  0  0  0  0  0  0  0  0  0  # atno 8008 bound_to 7997
  155.7150  140.0776  157.2373 H   0  0  0  0  0  0  0  0  0  0  0  0  # atno 8009 bound_to 7997
  154.4086  140.1616  156.2326 H   0  0  0  0  0  0  0  0  0  0  0  0  # atno 8010 bound_to 7997
  139.5435  144.2299  152.0942 H   0  0  0  0  0  0  0  0  0  0  0  0  # atno 10167 bound_to 10162
  156.2133  130.4162  149.9086 H   0  0  0  0  0  0  0  0  0  0  0  0  # atno 10718 bound_to 10713
  153.1778  135.4503  154.9988 H   0  0  0  0  0  0  0  0  0  0  0  0  # atno 10763 bound_to 10752
  154.8010  135.3255  154.7553 H   0  0  0  0  0  0  0  0  0  0  0  0  # atno 10764 bound_to 10752
  153.8021  135.6961  153.4909 H   0  0  0  0  0  0  0  0  0  0  0  0  # atno 10765 bound_to 10752
  140.4186  134.1543  155.7671 H   0  0  0  0  0  0  0  0  0  0  0  0  # atno 11005 bound_to 11000
  144.7978  139.6201  143.7085 LP  0  0  0  0  0  0  0  0  0  0  0  0  # atno 17320 bound_to 7965
  146.2427  139.6035  142.9480 LP  0  0  0  0  0  0  0  0  0  0  0  0  # atno 17321 bound_to 7965
  140.1782  144.4870  150.6543 LP  0  0  0  0  0  0  0  0  0  0  0  0  # atno 17342 bound_to 10162
  140.6674  143.2273  151.5709 LP  0  0  0  0  0  0  0  0  0  0  0  0  # atno 17343 bound_to 10162
  156.6757  130.8838  151.3569 LP  0  0  0  0  0  0  0  0  0  0  0  0  # atno 17370 bound_to 10713
  157.7050  130.9375  150.0902 LP  0  0  0  0  0  0  0  0  0  0  0  0  # atno 17371 bound_to 10713
  141.1793  133.8448  157.1313 LP  0  0  0  0  0  0  0  0  0  0  0  0  # atno 17394 bound_to 11000
  140.0216  134.9943  157.0604 LP  0  0  0  0  0  0  0  0  0  0  0  0  # atno 17395 bound_to 11000

$$$$
