AV-unprocessed.smi:1000|AV-procd|sdf|4355|dock5
  -GOLD-   22720 2253D 1   1.00000     0.00000
 Structure written by MMmdl.
 40 41  0  0  0  0  0  0  0  0  1 V2000
  149.9191  134.1918  155.3479 C   0  0  0  0  0  0  0  0  0  0  0  0
  150.5124  135.5686  156.4396 S   0  0  2  0  0  0  0  0  0  0  0  0
  149.7405  135.4663  157.7565 O   0  0  0  0  0  0  0  0  0  0  0  0
  149.6486  136.8846  155.5115 C   0  0  0  0  0  0  0  0  0  0  0  0
  148.3271  137.0784  155.5510 N   0  0  0  0  0  0  0  0  0  0  0  0
  148.1004  138.1580  154.7185 N   0  0  0  0  0  0  0  0  0  0  0  0
  149.3094  138.4980  154.2672 C   0  0  0  0  0  0  0  0  0  0  0  0
  150.3222  137.7449  154.7247 N   0  0  0  0  0  0  0  0  0  0  0  0
  151.7425  137.8543  154.4339 C   0  0  0  0  0  0  0  0  0  0  0  0
  152.3574  139.0905  155.0929 C   0  0  0  0  0  0  0  0  0  0  0  0
  153.4440  139.5153  154.7016 O   0  0  0  0  0  0  0  0  0  0  0  0
  151.6633  139.6483  156.0972 N   0  0  0  0  0  0  0  0  0  0  0  0
  152.1175  140.7749  156.9023 C   0  0  0  0  0  0  0  0  0  0  0  0
  150.9599  141.3749  157.7195 C   0  0  0  0  0  0  0  0  0  0  0  0
  151.3864  142.5680  158.5580 C   0  0  0  0  0  0  0  0  0  0  0  0
  151.1471  143.8351  158.1676 C   0  0  0  0  0  0  0  0  0  0  0  0
  151.5370  145.0639  158.9704 C   0  0  0  0  0  0  0  0  0  0  0  0
  151.9208  144.7205  160.4196 C   0  0  0  0  0  0  0  0  0  0  0  0
  152.8102  143.4721  160.4760 C   0  0  0  0  0  0  0  0  0  0  0  0
  152.0999  142.2496  159.8672 C   0  0  0  0  0  0  0  0  0  0  0  0
  149.7809  134.5353  154.3225 H   0  0  0  0  0  0  0  0  0  0  0  0
  148.9698  133.8023  155.7153 H   0  0  0  0  0  0  0  0  0  0  0  0
  150.6472  133.3810  155.3423 H   0  0  0  0  0  0  0  0  0  0  0  0
  149.4593  139.3228  153.5860 H   0  0  0  0  0  0  0  0  0  0  0  0
  152.2437  136.9495  154.7805 H   0  0  0  0  0  0  0  0  0  0  0  0
  151.8842  137.9076  153.3537 H   0  0  0  0  0  0  0  0  0  0  0  0
  150.7765  139.2362  156.3495 H   0  0  0  0  0  0  0  0  0  0  0  0
  152.9316  140.4652  157.5600 H   0  0  0  0  0  0  0  0  0  0  0  0
  152.5311  141.5222  156.2251 H   0  0  0  0  0  0  0  0  0  0  0  0
  150.1520  141.6852  157.0555 H   0  0  0  0  0  0  0  0  0  0  0  0
  150.5386  140.6106  158.3745 H   0  0  0  0  0  0  0  0  0  0  0  0
  150.6551  144.0227  157.2244 H   0  0  0  0  0  0  0  0  0  0  0  0
  152.3732  145.5453  158.4630 H   0  0  0  0  0  0  0  0  0  0  0  0
  150.7103  145.7745  158.9645 H   0  0  0  0  0  0  0  0  0  0  0  0
  152.4249  145.5691  160.8829 H   0  0  0  0  0  0  0  0  0  0  0  0
  151.0172  144.5412  161.0036 H   0  0  0  0  0  0  0  0  0  0  0  0
  153.7340  143.6658  159.9291 H   0  0  0  0  0  0  0  0  0  0  0  0
  153.1005  143.2589  161.5053 H   0  0  0  0  0  0  0  0  0  0  0  0
  151.3618  141.8667  160.5724 H   0  0  0  0  0  0  0  0  0  0  0  0
  152.8252  141.4517  159.7039 H   0  0  0  0  0  0  0  0  0  0  0  0
  1  2  1  0  0  0  0
  1 21  1  0  0  0  0
  1 22  1  0  0  0  0
  1 23  1  0  0  0  0
  2  3  2  0  0  0  0
  2  4  1  0  0  0  0
  4  8  1  0  0  0  0
  4  5  2  0  0  0  0
  5  6  1  0  0  0  0
  6  7  2  0  0  0  0
  7  8  1  0  0  0  0
  7 24  1  0  0  0  0
  8  9  1  0  0  0  0
  9 10  1  0  0  0  0
  9 25  1  0  0  0  0
  9 26  1  0  0  0  0
 10 11  2  0  0  0  0
 10 12  1  0  0  0  0
 12 13  1  0  0  0  0
 12 27  1  0  0  0  0
 13 14  1  0  0  0  0
 13 28  1  0  0  0  0
 13 29  1  0  0  0  0
 14 15  1  0  0  0  0
 14 30  1  0  0  0  0
 14 31  1  0  0  0  0
 15 20  1  0  0  0  0
 15 16  2  0  0  0  0
 16 17  1  0  0  0  0
 16 32  1  0  0  0  0
 17 18  1  0  0  0  0
 17 33  1  0  0  0  0
 17 34  1  0  0  0  0
 18 19  1  0  0  0  0
 18 35  1  0  0  0  0
 18 36  1  0  0  0  0
 19 20  1  0  0  0  0
 19 37  1  0  0  0  0
 19 38  1  0  0  0  0
 20 39  1  0  0  0  0
 20 40  1  0  0  0  0
M  END
> <s_m_source_file>
AV-unprocessed.smi

> <i_m_source_file_index>
1000

> <i_lp_mmshare_version>
43012

> <i_f3d_flags>
0

> <s_epik_input>
W0NIM11bU0BdKD1PKWMxbm5bY0hdbjFbQ0gyXUMoPU8pW05IXVtDSDJdW0NIMl1DMj1bQ0hdW0NIMl1bQ0gyXVtDSDJdW0NIMl0y

> <s_epik_cmdline>
J2VwaWtfcHl0aG9uJywgJy1waCcsICc3LjAnLCAnLXRuJywgJzgnLCAnLW1hJywgJzIwMCcsICctbWV0YWxfYmluZGluZycsICctaW1hZScsICc8aW5maWxlLm1hZT4nLCAnLW9tYWUnLCAnPG91dGZpbGUubWFlPic=

> <r_lp_tautomer_probability>
1

> <r_epik_Ionization_Penalty>
9.22166e-08

> <r_epik_Ionization_Penalty_Charging>
0

> <r_epik_Ionization_Penalty_Neutral>
9.22166e-08

> <r_epik_State_Penalty>
-0

> <r_epik_Charging_Adjusted_Penalty>
0

> <i_epik_Tot_Q>
0

> <i_epik_Tot_abs_Q>
0

> <r_epik_Metal_State_Penalty>
-0

> <b_epik_Metal_Only>
0

> <s_lp_Force_Field>
OPLS_2005

> <r_lp_Energy>
5.87902

> <b_lp_Chiralities_Consistent>
1

> <s_lp_Variant>
AV-unprocessed.smi:1000-1

> <Gold.Version>
5.8.1

> <Gold.Id.Protein>
6NUR|6NUR_protein|mol2

> <Gold.PLP.Fitness>
44.3472

> <Gold.PLP.PLP>
-38.7219

> <Gold.PLP.part.hbond>
-3.0000

> <Gold.PLP.part.metal>
0.0000

> <Gold.PLP.part.buried>
-5.5934

> <Gold.PLP.part.nonpolar>
-30.6507

> <Gold.PLP.part.repulsive>
0.3146

> <Gold.PLP.ligand.clash>
0.0000

> <Gold.PLP.ligand.torsion>
1.6660

> <Gold.PLP.Chemscore.Hbond>
1.8736

> <Gold.PLP.Chemscore.CHOScore>
0.7250

> <Gold.PLP.Chemscore.Metal>
0.0000

> <Gold.Chemscore.Hbonds>
donor molecule, donor type, donor heavy atom, donor atom, acceptor molecule, acceptor atom, score
      P1  H  6896  6908       L1     3  0.55
      P1  H  7997  8009       L1    11  1.00
      L1  C     7    24       P1  7957  1.00

> <Gold.PLP.Chemscore.Internal.Correction>
1.1615

> <Gold.Rescore>
     Score         DG    S(hbond)    S(metal)    S(lipo)     H(rot)  DE(clash)    DE(int)     intcor
     15.43     -17.09       1.94        0.00      93.27       2.26       0.05       1.60       ----

> <Gold.Chemscore.Fitness>
15.4283

> <Gold.Chemscore.DG>
-17.0855

> <Gold.Chemscore.ZeroCoef>
-5.4800

> <Gold.Chemscore.Hbond>
1.9428

> <Gold.Chemscore.Metal>
0.0000

> <Gold.Chemscore.Lipo>
93.2663

> <Gold.Chemscore.Internal_Hbond>
0.0000

> <Gold.Chemscore.DEClash>
0.0544

> <Gold.Chemscore.DEInternal>
1.6028

> <Gold.Chemscore.Rot>
2.2640

> <Gold.Chemscore.Internal.Correction>
   9.000000E+99

> <Gold.Chemscore.Hbonds>
donor molecule, donor type, donor heavy atom, donor atom, acceptor molecule, acceptor atom, score
      P1  H  6896  6908       L1     3  0.52
      P1  H  7997  8009       L1    11  0.99

> <Gold.Chemscore.Hbond.Weighted>
-6.4891

> <Gold.Chemscore.Metal.Weighted>
-0.0000

> <Gold.Chemscore.Lipo.Weighted>
-10.9122

> <Gold.Chemscore.Internal_Hbond.Weighted>
0.0000

> <Gold.Chemscore.DEClash.Weighted>
0.0544

> <Gold.Chemscore.DEInternal.Weighted>
1.6028

> <Gold.Chemscore.Rot.Weighted>
5.7957

> <Gold.Chemscore.Internal.Correction.Weighted>
   9.000000E+99

> <Gold.Protein.RotatedTorsions>
[ 6907 6896 6895 6894 ] final  168.49 input  -60.11 | X-H torsion
[ 7974 7965 7964 7962 ] final  140.53 input  175.53 | X-H torsion
[ 8008 7997 7996 7995 ] final -122.49 input   59.86 | X-H torsion
[ 10167 10162 10161 10158 ] final   76.60 input  -65.29 | X-H torsion
[ 10718 10713 10712 10709 ] final  102.37 input   66.30 | X-H torsion
[ 10763 10752 10751 10750 ] final  -10.75 input  -60.55 | X-H torsion
[ 11005 11000 10999 10996 ] final   31.41 input  -57.11 | X-H torsion

> <Gold.Protein.ActiveResidues>
 VAL166  LYS551  ARG553  GLY616  TRP617  ASP618  TYR619  PRO620  LYS621  CYS622 
 ASP623  PHE694  ASN695  SER759  ASP760  ASP761  ALA762  ILE779  LEU786  VAL792 
 PHE793  MET794  SER795  GLU796  ALA797  LYS798  CYS799  TRP800  GLU811  SER814 

> <Gold.Protein.RotatedAtoms>
  151.8468  133.3433  159.3660 H   0  0  0  0  0  0  0  0  0  0  0  0  # atno 6907 bound_to 6896
  150.7218  134.5338  159.5722 H   0  0  0  0  0  0  0  0  0  0  0  0  # atno 6908 bound_to 6896
  152.2823  134.7815  160.0445 H   0  0  0  0  0  0  0  0  0  0  0  0  # atno 6909 bound_to 6896
  144.9179  139.5207  143.5677 H   0  0  0  0  0  0  0  0  0  0  0  0  # atno 7974 bound_to 7965
  155.1650  140.0407  157.2851 H   0  0  0  0  0  0  0  0  0  0  0  0  # atno 8008 bound_to 7997
  154.6309  140.2524  155.7407 H   0  0  0  0  0  0  0  0  0  0  0  0  # atno 8009 bound_to 7997
  156.2484  140.2875  156.0661 H   0  0  0  0  0  0  0  0  0  0  0  0  # atno 8010 bound_to 7997
  139.9905  144.5760  150.7822 H   0  0  0  0  0  0  0  0  0  0  0  0  # atno 10167 bound_to 10162
  157.6804  131.0751  150.5393 H   0  0  0  0  0  0  0  0  0  0  0  0  # atno 10718 bound_to 10713
  153.4737  135.7017  153.5978 H   0  0  0  0  0  0  0  0  0  0  0  0  # atno 10763 bound_to 10752
  153.4221  135.3823  155.2118 H   0  0  0  0  0  0  0  0  0  0  0  0  # atno 10764 bound_to 10752
  154.8724  135.3930  154.4178 H   0  0  0  0  0  0  0  0  0  0  0  0  # atno 10765 bound_to 10752
  140.2842  134.2938  155.7792 H   0  0  0  0  0  0  0  0  0  0  0  0  # atno 11005 bound_to 11000
  146.3190  139.8035  142.8960 LP  0  0  0  0  0  0  0  0  0  0  0  0  # atno 17320 bound_to 7965
  145.3345  141.0274  143.3427 LP  0  0  0  0  0  0  0  0  0  0  0  0  # atno 17321 bound_to 7965
  140.7456  143.2878  151.3414 LP  0  0  0  0  0  0  0  0  0  0  0  0  # atno 17342 bound_to 10162
  139.6343  144.0660  152.2503 LP  0  0  0  0  0  0  0  0  0  0  0  0  # atno 17343 bound_to 10162
  156.5700  130.4277  149.6023 LP  0  0  0  0  0  0  0  0  0  0  0  0  # atno 17370 bound_to 10713
  156.2748  130.7037  151.1845 LP  0  0  0  0  0  0  0  0  0  0  0  0  # atno 17371 bound_to 10713
  141.2157  133.7544  156.9527 LP  0  0  0  0  0  0  0  0  0  0  0  0  # atno 17394 bound_to 11000
  140.1255  134.9389  157.2264 LP  0  0  0  0  0  0  0  0  0  0  0  0  # atno 17395 bound_to 11000

$$$$
