AV-unprocessed.smi:172|AV-procd|sdf|1422|dock1
  -GOLD-   2262019193D 1   1.00000     0.00000
 Structure written by MMmdl.
 56 60  0  0  0  0  0  0  0  0  1 V2000
  145.6239  131.9593  154.5358 O   0  0  0  0  0  0  0  0  0  0  0  0
  145.9577  131.5104  153.2367 C   0  0  0  0  0  0  0  0  0  0  0  0
  146.7779  132.5462  152.4414 C   0  0  0  0  0  0  0  0  0  0  0  0
  148.1315  132.8220  153.1313 C   0  0  0  0  0  0  0  0  0  0  0  0
  148.0564  133.6750  154.3065 N   0  0  0  0  0  0  0  0  0  0  0  0
  147.4450  134.9072  154.3875 C   0  0  0  0  0  0  0  0  0  0  0  0
  147.5193  135.4924  155.5515 N   0  0  0  0  0  0  0  0  0  0  0  0
  148.2250  134.5885  156.3337 C   0  0  0  0  0  0  0  0  0  0  0  0
  148.6649  134.5886  157.6829 C   0  0  0  0  0  0  0  0  0  0  0  0
  148.4347  135.6362  158.5109 N   0  0  0  0  0  0  0  0  0  0  0  0
  149.2368  136.8077  158.1326 C   0  0  0  0  0  0  0  0  0  0  0  0
  150.7430  136.5832  158.1834 C   0  0  0  0  0  0  0  0  0  0  0  0
  151.6244  137.5192  158.9764 C   0  0  0  0  0  0  0  0  0  0  0  0
  151.6887  137.5187  157.4683 C   0  0  0  0  0  0  0  0  0  0  0  0
  148.3833  135.2584  159.9369 C   0  0  0  0  0  0  0  0  0  0  0  0
  147.5428  133.9715  160.1748 C   0  0  0  0  0  0  0  0  0  0  0  0
  147.4685  133.5829  161.6591 C   0  0  0  0  0  0  0  0  0  0  0  0
  146.9036  134.7291  162.5052 C   0  0  0  0  0  0  0  0  0  0  0  0
  147.7353  136.0014  162.3081 C   0  0  0  0  0  0  0  0  0  0  0  0
  147.8178  136.3969  160.8248 C   0  0  0  0  0  0  0  0  0  0  0  0
  149.3493  133.5038  158.1327 N   0  0  0  0  0  0  0  0  0  0  0  0
  149.5861  132.4794  157.3076 C   0  0  0  0  0  0  0  0  0  0  0  0
  149.2413  132.3427  156.0248 N   0  0  0  0  0  0  0  0  0  0  0  0
  148.5600  133.4345  155.5730 C   0  0  0  0  0  0  0  0  0  0  0  0
  146.8912  132.2281  150.9428 C   0  0  0  0  0  0  0  0  0  0  0  0
  145.8674  133.1857  150.6033 O   0  0  0  0  0  0  0  0  0  0  0  0
  145.9935  133.7618  151.9200 C   0  0  0  0  0  0  0  0  0  0  0  0
  144.6847  131.9232  154.6352 H   0  0  0  0  0  0  0  0  0  0  0  0
  146.4932  130.5640  153.3174 H   0  0  0  0  0  0  0  0  0  0  0  0
  145.0203  131.2882  152.7255 H   0  0  0  0  0  0  0  0  0  0  0  0
  148.5991  131.8819  153.4266 H   0  0  0  0  0  0  0  0  0  0  0  0
  148.8282  133.2868  152.4322 H   0  0  0  0  0  0  0  0  0  0  0  0
  146.9506  135.3679  153.5447 H   0  0  0  0  0  0  0  0  0  0  0  0
  148.9952  137.1082  157.1150 H   0  0  0  0  0  0  0  0  0  0  0  0
  148.9822  137.6496  158.7779 H   0  0  0  0  0  0  0  0  0  0  0  0
  151.0414  135.5371  158.2269 H   0  0  0  0  0  0  0  0  0  0  0  0
  151.1551  138.3749  159.4578 H   0  0  0  0  0  0  0  0  0  0  0  0
  152.4631  137.0829  159.5152 H   0  0  0  0  0  0  0  0  0  0  0  0
  152.5644  137.0765  156.9979 H   0  0  0  0  0  0  0  0  0  0  0  0
  151.2569  138.3690  156.9443 H   0  0  0  0  0  0  0  0  0  0  0  0
  149.4062  135.0618  160.2622 H   0  0  0  0  0  0  0  0  0  0  0  0
  146.5333  134.1178  159.7880 H   0  0  0  0  0  0  0  0  0  0  0  0
  147.9581  133.1222  159.6319 H   0  0  0  0  0  0  0  0  0  0  0  0
  146.8489  132.6939  161.7789 H   0  0  0  0  0  0  0  0  0  0  0  0
  148.4637  133.3173  162.0178 H   0  0  0  0  0  0  0  0  0  0  0  0
  145.8667  134.9185  162.2247 H   0  0  0  0  0  0  0  0  0  0  0  0
  146.8952  134.4473  163.5586 H   0  0  0  0  0  0  0  0  0  0  0  0
  147.3040  136.8191  162.8861 H   0  0  0  0  0  0  0  0  0  0  0  0
  148.7414  135.8447  162.6993 H   0  0  0  0  0  0  0  0  0  0  0  0
  148.4445  137.2856  160.7648 H   0  0  0  0  0  0  0  0  0  0  0  0
  146.8281  136.6860  160.4684 H   0  0  0  0  0  0  0  0  0  0  0  0
  150.1333  131.6524  157.7350 H   0  0  0  0  0  0  0  0  0  0  0  0
  147.8538  132.4956  150.5032 H   0  0  0  0  0  0  0  0  0  0  0  0
  146.6172  131.2064  150.6778 H   0  0  0  0  0  0  0  0  0  0  0  0
  145.0286  133.9201  152.4025 H   0  0  0  0  0  0  0  0  0  0  0  0
  146.5703  134.6870  151.8945 H   0  0  0  0  0  0  0  0  0  0  0  0
  1  2  1  0  0  0  0
  1 28  1  0  0  0  0
  2  3  1  0  0  0  0
  2 29  1  0  0  0  0
  2 30  1  0  0  0  0
  3 27  1  0  0  0  0
  3  4  1  0  0  0  0
  3 25  1  0  0  0  0
  4  5  1  0  0  0  0
  4 31  1  0  0  0  0
  4 32  1  0  0  0  0
  5 24  1  0  0  0  0
  5  6  1  0  0  0  0
  6  7  2  0  0  0  0
  6 33  1  0  0  0  0
  7  8  1  0  0  0  0
  8 24  2  0  0  0  0
  8  9  1  0  0  0  0
  9 10  1  0  0  0  0
  9 21  2  0  0  0  0
 10 11  1  0  0  0  0
 10 15  1  0  0  0  0
 11 12  1  0  0  0  0
 11 34  1  0  0  0  0
 11 35  1  0  0  0  0
 12 14  1  0  0  0  0
 12 13  1  0  0  0  0
 12 36  1  0  0  0  0
 13 14  1  0  0  0  0
 13 37  1  0  0  0  0
 13 38  1  0  0  0  0
 14 39  1  0  0  0  0
 14 40  1  0  0  0  0
 15 20  1  0  0  0  0
 15 16  1  0  0  0  0
 15 41  1  0  0  0  0
 16 17  1  0  0  0  0
 16 42  1  0  0  0  0
 16 43  1  0  0  0  0
 17 18  1  0  0  0  0
 17 44  1  0  0  0  0
 17 45  1  0  0  0  0
 18 19  1  0  0  0  0
 18 46  1  0  0  0  0
 18 47  1  0  0  0  0
 19 20  1  0  0  0  0
 19 48  1  0  0  0  0
 19 49  1  0  0  0  0
 20 50  1  0  0  0  0
 20 51  1  0  0  0  0
 21 22  1  0  0  0  0
 22 23  2  0  0  0  0
 22 52  1  0  0  0  0
 23 24  1  0  0  0  0
 25 26  1  0  0  0  0
 25 53  1  0  0  0  0
 25 54  1  0  0  0  0
 26 27  1  0  0  0  0
 27 55  1  0  0  0  0
 27 56  1  0  0  0  0
M  END
> <s_m_source_file>
AV-unprocessed.smi

> <i_m_source_file_index>
172

> <i_lp_mmshare_version>
43012

> <i_f3d_flags>
0

> <s_epik_input>
W0NIMl0xT1tDSDJdQzEoW0NIMl1bT0hdKVtDSDJdbihbY0hdbjIpYyhjMjMpbltjSF1uYzNOKFtDSDJdW0NIXTRbQ0gyXVtDSDJdNClbQ0hdNVtDSDJdW0NIMl1bQ0gyXVtDSDJdW0NIMl01

> <s_epik_cmdline>
J2VwaWtfcHl0aG9uJywgJy1waCcsICc3LjAnLCAnLXRuJywgJzgnLCAnLW1hJywgJzIwMCcsICctbWV0YWxfYmluZGluZycsICctaW1hZScsICc8aW5maWxlLm1hZT4nLCAnLW9tYWUnLCAnPG91dGZpbGUubWFlPic=

> <r_lp_tautomer_probability>
1

> <r_epik_Ionization_Penalty>
0.0023612

> <r_epik_Ionization_Penalty_Charging>
0

> <r_epik_Ionization_Penalty_Neutral>
0.0023612

> <r_epik_State_Penalty>
0.00145434

> <r_epik_Charging_Adjusted_Penalty>
0.00145434

> <i_epik_Tot_Q>
0

> <i_epik_Tot_abs_Q>
0

> <r_epik_Metal_State_Penalty>
-0

> <b_epik_Metal_Only>
0

> <s_lp_Force_Field>
OPLS_2005

> <r_lp_Energy>
48.1575

> <b_lp_Chiralities_Consistent>
1

> <s_lp_Variant>
AV-unprocessed.smi:172-1

> <Gold.Version>
5.8.1

> <Gold.Id.Protein>
6NUR|6NUR_protein|mol2

> <Gold.PLP.Fitness>
42.0335

> <Gold.PLP.PLP>
-37.2449

> <Gold.PLP.part.hbond>
-2.0000

> <Gold.PLP.part.metal>
0.0000

> <Gold.PLP.part.buried>
-3.9396

> <Gold.PLP.part.nonpolar>
-31.6534

> <Gold.PLP.part.repulsive>
0.1952

> <Gold.PLP.ligand.clash>
0.0000

> <Gold.PLP.ligand.torsion>
1.4174

> <Gold.PLP.Chemscore.Hbond>
2.0000

> <Gold.PLP.Chemscore.CHOScore>
0.0000

> <Gold.PLP.Chemscore.Metal>
0.0000

> <Gold.Chemscore.Hbonds>
donor molecule, donor type, donor heavy atom, donor atom, acceptor molecule, acceptor atom, score
      L1  H     1    28       P1 10957  0.90
      P1  H  6896  6909       L1    21  1.00
      L1  C     6    33       P1  7948  0.24

> <Gold.PLP.Chemscore.Internal.Correction>
1.6233

> <Gold.Rescore>
     Score         DG    S(hbond)    S(metal)    S(lipo)     H(rot)  DE(clash)    DE(int)     intcor
     10.79     -14.30       1.81        0.00      86.54       2.87       0.01       3.50       ----

> <Gold.Chemscore.Fitness>
10.7857

> <Gold.Chemscore.DG>
-14.2968

> <Gold.Chemscore.ZeroCoef>
-5.4800

> <Gold.Chemscore.Hbond>
1.8113

> <Gold.Chemscore.Metal>
0.0000

> <Gold.Chemscore.Lipo>
86.5415

> <Gold.Chemscore.Internal_Hbond>
0.0000

> <Gold.Chemscore.DEClash>
0.0126

> <Gold.Chemscore.DEInternal>
3.4985

> <Gold.Chemscore.Rot>
2.8744

> <Gold.Chemscore.Internal.Correction>
   9.000000E+99

> <Gold.Chemscore.Hbonds>
donor molecule, donor type, donor heavy atom, donor atom, acceptor molecule, acceptor atom, score
      L1  H     1    28       P1 10957  0.17
      P1  H  6896  6909       L1    21  0.82

> <Gold.Chemscore.Hbond.Weighted>
-6.0499

> <Gold.Chemscore.Metal.Weighted>
-0.0000

> <Gold.Chemscore.Lipo.Weighted>
-10.1254

> <Gold.Chemscore.Internal_Hbond.Weighted>
0.0000

> <Gold.Chemscore.DEClash.Weighted>
0.0126

> <Gold.Chemscore.DEInternal.Weighted>
3.4985

> <Gold.Chemscore.Rot.Weighted>
7.3584

> <Gold.Chemscore.Internal.Correction.Weighted>
   9.000000E+99

> <Gold.Protein.RotatedTorsions>
[ 6907 6896 6895 6894 ] final    8.92 input  -60.11 | X-H torsion
[ 7974 7965 7964 7962 ] final -129.20 input  175.53 | X-H torsion
[ 8008 7997 7996 7995 ] final   94.57 input   59.86 | X-H torsion
[ 10167 10162 10161 10158 ] final  153.04 input  -65.29 | X-H torsion
[ 10718 10713 10712 10709 ] final -145.63 input   66.30 | X-H torsion
[ 10763 10752 10751 10750 ] final  -68.49 input  -60.55 | X-H torsion
[ 11005 11000 10999 10996 ] final  -41.99 input  -57.11 | X-H torsion

> <Gold.Protein.ActiveResidues>
 VAL166  LYS551  ARG553  GLY616  TRP617  ASP618  TYR619  PRO620  LYS621  CYS622 
 ASP623  PHE694  ASN695  SER759  ASP760  ASP761  ALA762  ILE779  LEU786  VAL792 
 PHE793  MET794  SER795  GLU796  ALA797  LYS798  CYS799  TRP800  GLU811  SER814 

> <Gold.Protein.RotatedAtoms>
  151.7138  135.0907  160.0272 H   0  0  0  0  0  0  0  0  0  0  0  0  # atno 6907 bound_to 6896
  152.3645  133.6334  159.6048 H   0  0  0  0  0  0  0  0  0  0  0  0  # atno 6908 bound_to 6896
  150.7628  133.9287  159.3461 H   0  0  0  0  0  0  0  0  0  0  0  0  # atno 6909 bound_to 6896
  144.9595  140.7432  143.4737 H   0  0  0  0  0  0  0  0  0  0  0  0  # atno 7974 bound_to 7965
  156.0593  140.3298  155.7443 H   0  0  0  0  0  0  0  0  0  0  0  0  # atno 8008 bound_to 7997
  155.5479  140.0607  157.2873 H   0  0  0  0  0  0  0  0  0  0  0  0  # atno 8009 bound_to 7997
  154.4473  140.1899  156.0645 H   0  0  0  0  0  0  0  0  0  0  0  0  # atno 8010 bound_to 7997
  139.4829  144.5307  151.7728 H   0  0  0  0  0  0  0  0  0  0  0  0  # atno 10167 bound_to 10162
  156.3849  130.7856  151.2052 H   0  0  0  0  0  0  0  0  0  0  0  0  # atno 10718 bound_to 10713
  154.3897  135.6055  153.5836 H   0  0  0  0  0  0  0  0  0  0  0  0  # atno 10763 bound_to 10752
  152.9787  135.5881  154.4312 H   0  0  0  0  0  0  0  0  0  0  0  0  # atno 10764 bound_to 10752
  154.4094  135.2844  155.2024 H   0  0  0  0  0  0  0  0  0  0  0  0  # atno 10765 bound_to 10752
  141.0285  133.6831  156.2533 H   0  0  0  0  0  0  0  0  0  0  0  0  # atno 11005 bound_to 11000
  145.2721  139.1951  143.4836 LP  0  0  0  0  0  0  0  0  0  0  0  0  # atno 17320 bound_to 7965
  146.3348  140.2669  142.8604 LP  0  0  0  0  0  0  0  0  0  0  0  0  # atno 17321 bound_to 7965
  140.4832  144.1418  150.5936 LP  0  0  0  0  0  0  0  0  0  0  0  0  # atno 17342 bound_to 10162
  140.4254  143.2592  151.9663 LP  0  0  0  0  0  0  0  0  0  0  0  0  # atno 17343 bound_to 10162
  157.7495  131.0333  150.4265 LP  0  0  0  0  0  0  0  0  0  0  0  0  # atno 17370 bound_to 10713
  156.4516  130.4013  149.6632 LP  0  0  0  0  0  0  0  0  0  0  0  0  # atno 17371 bound_to 10713
  140.6449  134.5127  157.5573 LP  0  0  0  0  0  0  0  0  0  0  0  0  # atno 17394 bound_to 11000
  139.9191  134.8184  156.1267 LP  0  0  0  0  0  0  0  0  0  0  0  0  # atno 17395 bound_to 11000

$$$$
