AV-unprocessed.smi:2136|AV-procd|sdf|8704|dock3
  -GOLD-   2272011463D 1   1.00000     0.00000
 Structure written by MMmdl.
 43 44  0  0  0  0  0  0  0  0  2 V2000
  152.2515  131.6391  156.4936 C   0  0  0  0  0  0  0  0  0  0  0  0
  150.9329  132.8951  156.7702 S   0  0  0  0  0  0  0  0  0  0  0  0
  150.2033  132.5686  158.0053 O   0  0  0  0  0  0  0  0  0  0  0  0
  151.5707  134.2141  156.6352 O   0  0  0  0  0  0  0  0  0  0  0  0
  149.8513  132.6762  155.4106 N   0  0  0  0  0  0  0  0  0  0  0  0
  149.9501  131.3664  154.7208 C   0  0  0  0  0  0  0  0  0  0  0  0
  148.7851  131.0931  153.7608 C   0  0  0  0  0  0  0  0  0  0  0  0
  148.6203  132.2354  152.7660 C   0  0  0  0  0  0  0  0  0  0  0  0
  148.3570  133.5130  153.5568 C   0  0  0  0  0  0  0  0  0  0  0  0
  149.5066  133.8448  154.5400 C   0  0  1  0  0  0  0  0  0  0  0  0
  149.1447  135.1432  155.2808 C   0  0  0  0  0  0  0  0  0  0  0  0
  149.0151  135.1451  156.5057 O   0  0  0  0  0  0  0  0  0  0  0  0
  148.9838  136.2430  154.5283 N   0  0  0  0  0  0  0  0  0  0  0  0
  148.6594  137.5682  155.0407 C   0  0  0  0  0  0  0  0  0  0  0  0
  149.1191  138.6776  154.0796 C   0  0  0  0  0  0  0  0  0  0  0  0
  149.7223  139.8600  154.8127 C   0  0  0  0  0  0  0  0  0  0  0  0
  150.8932  139.7007  155.5865 C   0  0  0  0  0  0  0  0  0  0  0  0
  151.4353  140.8160  156.2585 C   0  0  0  0  0  0  0  0  0  0  0  0
  150.7926  142.0656  156.1435 C   0  0  0  0  0  0  0  0  0  0  0  0
  149.6732  142.1796  155.3953 N   0  3  0  0  0  0  0  0  0  0  0  0
  149.1238  141.1364  154.7351 C   0  0  0  0  0  0  0  0  0  0  0  0
  153.0672  131.8192  157.1933 H   0  0  0  0  0  0  0  0  0  0  0  0
  152.6278  131.7235  155.4744 H   0  0  0  0  0  0  0  0  0  0  0  0
  151.8668  130.6358  156.6608 H   0  0  0  0  0  0  0  0  0  0  0  0
  150.8968  131.3289  154.1806 H   0  0  0  0  0  0  0  0  0  0  0  0
  149.9739  130.5633  155.4571 H   0  0  0  0  0  0  0  0  0  0  0  0
  148.9583  130.1580  153.2274 H   0  0  0  0  0  0  0  0  0  0  0  0
  147.8632  130.9587  154.3284 H   0  0  0  0  0  0  0  0  0  0  0  0
  149.5159  132.3417  152.1529 H   0  0  0  0  0  0  0  0  0  0  0  0
  147.7905  132.0309  152.0890 H   0  0  0  0  0  0  0  0  0  0  0  0
  148.2124  134.3397  152.8597 H   0  0  0  0  0  0  0  0  0  0  0  0
  147.4147  133.4023  154.0964 H   0  0  0  0  0  0  0  0  0  0  0  0
  150.3936  134.0505  153.9379 H   0  0  0  0  0  0  0  0  0  0  0  0
  149.1194  136.1579  153.5309 H   0  0  0  0  0  0  0  0  0  0  0  0
  147.5864  137.6386  155.2279 H   0  0  0  0  0  0  0  0  0  0  0  0
  149.1514  137.6855  156.0066 H   0  0  0  0  0  0  0  0  0  0  0  0
  149.8497  138.2796  153.3739 H   0  0  0  0  0  0  0  0  0  0  0  0
  148.2797  139.0357  153.4820 H   0  0  0  0  0  0  0  0  0  0  0  0
  151.3720  138.7351  155.6631 H   0  0  0  0  0  0  0  0  0  0  0  0
  152.3308  140.7133  156.8540 H   0  0  0  0  0  0  0  0  0  0  0  0
  151.1373  142.9702  156.6234 H   0  0  0  0  0  0  0  0  0  0  0  0
  148.2291  141.3544  154.1699 H   0  0  0  0  0  0  0  0  0  0  0  0
  149.2232  143.0928  155.3259 H   0  0  0  0  0  0  0  0  0  0  0  0
  1  2  1  0  0  0  0
  1 22  1  0  0  0  0
  1 23  1  0  0  0  0
  1 24  1  0  0  0  0
  2  3  2  0  0  0  0
  2  4  2  0  0  0  0
  2  5  1  0  0  0  0
  5 10  1  0  0  0  0
  5  6  1  0  0  0  0
  6  7  1  0  0  0  0
  6 25  1  0  0  0  0
  6 26  1  0  0  0  0
  7  8  1  0  0  0  0
  7 27  1  0  0  0  0
  7 28  1  0  0  0  0
  8  9  1  0  0  0  0
  8 29  1  0  0  0  0
  8 30  1  0  0  0  0
  9 10  1  0  0  0  0
  9 31  1  0  0  0  0
  9 32  1  0  0  0  0
 10 11  1  0  0  0  0
 10 33  1  0  0  0  0
 11 12  2  0  0  0  0
 11 13  1  0  0  0  0
 13 14  1  0  0  0  0
 13 34  1  0  0  0  0
 14 15  1  0  0  0  0
 14 35  1  0  0  0  0
 14 36  1  0  0  0  0
 15 16  1  0  0  0  0
 15 37  1  0  0  0  0
 15 38  1  0  0  0  0
 16 21  1  0  0  0  0
 16 17  2  0  0  0  0
 17 18  1  0  0  0  0
 17 39  1  0  0  0  0
 18 19  2  0  0  0  0
 18 40  1  0  0  0  0
 19 20  1  0  0  0  0
 19 41  1  0  0  0  0
 20 21  2  0  0  0  0
 20 43  1  0  0  0  0
 21 42  1  0  0  0  0
M  CHG  1  20   1
M  END
> <s_m_source_file>
AV-unprocessed.smi

> <i_m_source_file_index>
2136

> <i_lp_mmshare_version>
43012

> <i_f3d_flags>
0

> <s_epik_input>
W0NIM11TKD1PKSg9TylOMVtDSDJdW0NIMl1bQ0gyXVtDSDJdW0NASF0xQyg9TylbTkhdW0NIMl1bQ0gyXWMyW2NIXVtjSF1bY0hdbltjSF0y

> <s_epik_cmdline>
J2VwaWtfcHl0aG9uJywgJy1waCcsICc3LjAnLCAnLXRuJywgJzgnLCAnLW1hJywgJzIwMCcsICctbWV0YWxfYmluZGluZycsICctaW1hZScsICc8aW5maWxlLm1hZT4nLCAnLW9tYWUnLCAnPG91dGZpbGUubWFlPic=

> <r_epik_Ionization_Penalty>
2.2835

> <r_epik_Ionization_Penalty_Charging>
2.2835

> <r_epik_Ionization_Penalty_Neutral>
1.35461e-07

> <r_epik_State_Penalty>
2.43297

> <r_epik_Charging_Adjusted_Penalty>
4.71647

> <i_epik_Tot_Q>
1

> <i_epik_Tot_abs_Q>
1

> <r_epik_Metal_State_Penalty>
2.44557

> <b_epik_Metal_Only>
0

> <s_lp_Force_Field>
OPLS_2005

> <r_lp_Energy>
13.1957

> <b_lp_Chiralities_Consistent>
1

> <s_lp_Variant>
AV-unprocessed.smi:2136-3

> <Gold.Version>
5.8.1

> <Gold.Id.Protein>
6NUR|6NUR_protein|mol2

> <Gold.PLP.Fitness>
46.0842

> <Gold.PLP.PLP>
-35.3131

> <Gold.PLP.part.hbond>
-3.3279

> <Gold.PLP.part.metal>
0.0000

> <Gold.PLP.part.buried>
-1.1189

> <Gold.PLP.part.nonpolar>
-30.0497

> <Gold.PLP.part.repulsive>
0.1992

> <Gold.PLP.ligand.clash>
0.0000

> <Gold.PLP.ligand.torsion>
1.6920

> <Gold.PLP.Chemscore.Hbond>
4.0000

> <Gold.PLP.Chemscore.CHOScore>
0.0000

> <Gold.PLP.Chemscore.Metal>
0.0000

> <Gold.Chemscore.Hbonds>
donor molecule, donor type, donor heavy atom, donor atom, acceptor molecule, acceptor atom, score
      L1  H    13    34       P1  7948  1.00
      L1  H    20    43       P1  8028  2.00
      P1  H  6896  6908       L1     3  1.00

> <Gold.PLP.Chemscore.Internal.Correction>
2.1551

> <Gold.Rescore>
     Score         DG    S(hbond)    S(metal)    S(lipo)     H(rot)  DE(clash)    DE(int)     intcor
     14.34     -19.83       2.91        0.00      75.71       1.65       0.15       5.34       ----

> <Gold.Chemscore.Fitness>
14.3401

> <Gold.Chemscore.DG>
-19.8343

> <Gold.Chemscore.ZeroCoef>
-5.4800

> <Gold.Chemscore.Hbond>
2.9132

> <Gold.Chemscore.Metal>
0.0000

> <Gold.Chemscore.Lipo>
75.7083

> <Gold.Chemscore.Internal_Hbond>
0.0000

> <Gold.Chemscore.DEClash>
0.1532

> <Gold.Chemscore.DEInternal>
5.3409

> <Gold.Chemscore.Rot>
1.6538

> <Gold.Chemscore.Internal.Correction>
   9.000000E+99

> <Gold.Chemscore.Hbonds>
donor molecule, donor type, donor heavy atom, donor atom, acceptor molecule, acceptor atom, score
      L1  H    13    34       P1  7948  0.94
      L1  H    20    43       P1  8028  1.00
      P1  H  6896  6908       L1     3  0.30

> <Gold.Chemscore.Hbond.Weighted>
-9.7301

> <Gold.Chemscore.Metal.Weighted>
-0.0000

> <Gold.Chemscore.Lipo.Weighted>
-8.8579

> <Gold.Chemscore.Internal_Hbond.Weighted>
0.0000

> <Gold.Chemscore.DEClash.Weighted>
0.1532

> <Gold.Chemscore.DEInternal.Weighted>
5.3409

> <Gold.Chemscore.Rot.Weighted>
4.2337

> <Gold.Chemscore.Internal.Correction.Weighted>
   9.000000E+99

> <Gold.Protein.RotatedTorsions>
[ 6907 6896 6895 6894 ] final   89.68 input  -60.11 | X-H torsion
[ 7974 7965 7964 7962 ] final   -6.75 input  175.53 | X-H torsion
[ 8008 7997 7996 7995 ] final -144.82 input   59.86 | X-H torsion
[ 10167 10162 10161 10158 ] final  -57.99 input  -65.29 | X-H torsion
[ 10718 10713 10712 10709 ] final   64.80 input   66.30 | X-H torsion
[ 10763 10752 10751 10750 ] final  162.42 input  -60.55 | X-H torsion
[ 11005 11000 10999 10996 ] final  -34.58 input  -57.11 | X-H torsion

> <Gold.Protein.ActiveResidues>
 VAL166  LYS551  ARG553  GLY616  TRP617  ASP618  TYR619  PRO620  LYS621  CYS622 
 ASP623  PHE694  ASN695  SER759  ASP760  ASP761  ALA762  ILE779  LEU786  VAL792 
 PHE793  MET794  SER795  GLU796  ALA797  LYS798  CYS799  TRP800  GLU811  SER814 

> <Gold.Protein.RotatedAtoms>
  152.5438  134.1928  159.8680 H   0  0  0  0  0  0  0  0  0  0  0  0  # atno 6907 bound_to 6896
  151.1922  133.4653  159.2602 H   0  0  0  0  0  0  0  0  0  0  0  0  # atno 6908 bound_to 6896
  151.1071  135.0018  159.8532 H   0  0  0  0  0  0  0  0  0  0  0  0  # atno 6909 bound_to 6896
  146.2323  140.2218  142.8337 H   0  0  0  0  0  0  0  0  0  0  0  0  # atno 7974 bound_to 7965
  155.5331  140.0601  157.2885 H   0  0  0  0  0  0  0  0  0  0  0  0  # atno 8008 bound_to 7997
  154.4477  140.1932  156.0559 H   0  0  0  0  0  0  0  0  0  0  0  0  # atno 8009 bound_to 7997
  156.0638  140.3269  155.7497 H   0  0  0  0  0  0  0  0  0  0  0  0  # atno 8010 bound_to 7997
  140.6225  143.2425  151.5446 H   0  0  0  0  0  0  0  0  0  0  0  0  # atno 10167 bound_to 10162
  157.6063  130.9179  149.9893 H   0  0  0  0  0  0  0  0  0  0  0  0  # atno 10718 bound_to 10713
  154.2782  135.2764  155.2709 H   0  0  0  0  0  0  0  0  0  0  0  0  # atno 10763 bound_to 10752
  154.5242  135.5748  153.6709 H   0  0  0  0  0  0  0  0  0  0  0  0  # atno 10764 bound_to 10752
  152.9933  135.6212  154.2940 H   0  0  0  0  0  0  0  0  0  0  0  0  # atno 10765 bound_to 10752
  140.9727  133.7100  156.1551 H   0  0  0  0  0  0  0  0  0  0  0  0  # atno 11005 bound_to 11000
  144.9626  140.8290  143.5504 LP  0  0  0  0  0  0  0  0  0  0  0  0  # atno 17320 bound_to 7965
  145.2190  139.2168  143.5103 LP  0  0  0  0  0  0  0  0  0  0  0  0  # atno 17321 bound_to 7965
  139.5451  144.2543  152.1426 LP  0  0  0  0  0  0  0  0  0  0  0  0  # atno 17342 bound_to 10162
  140.1767  144.4884  150.6550 LP  0  0  0  0  0  0  0  0  0  0  0  0  # atno 17343 bound_to 10162
  156.1151  130.3648  149.9982 LP  0  0  0  0  0  0  0  0  0  0  0  0  # atno 17370 bound_to 10713
  156.8073  130.9312  151.3645 LP  0  0  0  0  0  0  0  0  0  0  0  0  # atno 17371 bound_to 10713
  140.7304  134.4260  157.5566 LP  0  0  0  0  0  0  0  0  0  0  0  0  # atno 17394 bound_to 11000
  139.8918  134.8769  156.2299 LP  0  0  0  0  0  0  0  0  0  0  0  0  # atno 17395 bound_to 11000

$$$$
