AV-unprocessed.smi:529|AV-procd|sdf|2840|dock5
  -GOLD-   2262023333D 1   1.00000     0.00000
 Structure written by MMmdl.
 30 31  0  0  0  0  0  0  0  0  1 V2000
  149.7294  138.5533  153.6546 N   0  0  0  0  0  0  0  0  0  0  0  0
  148.8164  139.4545  153.7538 C   0  0  0  0  0  0  0  0  0  0  0  0
  147.1087  139.3490  153.1123 S   0  0  0  0  0  0  0  0  0  0  0  0
  146.7770  140.9420  153.7582 C   0  0  0  0  0  0  0  0  0  0  0  0
  147.8372  141.4668  154.3701 C   0  0  0  0  0  0  0  0  0  0  0  0
  148.9780  140.6903  154.3848 N   0  0  0  0  0  0  0  0  0  0  0  0
  150.2083  141.1179  155.0520 C   0  0  0  0  0  0  0  0  0  0  0  0
  149.9881  141.5981  156.4932 C   0  0  0  0  0  0  0  0  0  0  0  0
  148.8805  141.5251  157.0273 O   0  0  0  0  0  0  0  0  0  0  0  0
  151.0668  142.1032  157.1104 N   0  0  0  0  0  0  0  0  0  0  0  0
  151.0856  142.6188  158.4766 C   0  0  0  0  0  0  0  0  0  0  0  0
  151.3883  144.1317  158.5145 C   0  0  0  0  0  0  0  0  0  0  0  0
  152.5062  144.3157  159.5423 C   0  0  0  0  0  0  0  0  0  0  0  0
  153.2802  143.0023  159.4960 C   0  0  0  0  0  0  0  0  0  0  0  0
  152.1986  141.9404  159.2964 C   0  0  0  0  0  0  0  0  0  0  0  0
  149.3760  137.7492  153.1570 H   0  0  0  0  0  0  0  0  0  0  0  0
  145.8052  141.3997  153.6480 H   0  0  0  0  0  0  0  0  0  0  0  0
  147.8860  142.4327  154.8516 H   0  0  0  0  0  0  0  0  0  0  0  0
  150.9404  140.3089  155.0467 H   0  0  0  0  0  0  0  0  0  0  0  0
  150.6596  141.9328  154.4841 H   0  0  0  0  0  0  0  0  0  0  0  0
  151.9374  142.1323  156.5998 H   0  0  0  0  0  0  0  0  0  0  0  0
  150.1246  142.4136  158.9519 H   0  0  0  0  0  0  0  0  0  0  0  0
  151.7415  144.4790  157.5421 H   0  0  0  0  0  0  0  0  0  0  0  0
  150.5051  144.7207  158.7632 H   0  0  0  0  0  0  0  0  0  0  0  0
  153.1331  145.1822  159.3303 H   0  0  0  0  0  0  0  0  0  0  0  0
  152.0745  144.4511  160.5348 H   0  0  0  0  0  0  0  0  0  0  0  0
  153.9569  143.0047  158.6404 H   0  0  0  0  0  0  0  0  0  0  0  0
  153.8758  142.8322  160.3931 H   0  0  0  0  0  0  0  0  0  0  0  0
  151.8004  141.6505  160.2696 H   0  0  0  0  0  0  0  0  0  0  0  0
  152.5918  141.0357  158.8308 H   0  0  0  0  0  0  0  0  0  0  0  0
  1  2  2  0  0  0  0
  1 16  1  0  0  0  0
  2  6  1  0  0  0  0
  2  3  1  0  0  0  0
  3  4  1  0  0  0  0
  4  5  2  0  0  0  0
  4 17  1  0  0  0  0
  5  6  1  0  0  0  0
  5 18  1  0  0  0  0
  6  7  1  0  0  0  0
  7  8  1  0  0  0  0
  7 19  1  0  0  0  0
  7 20  1  0  0  0  0
  8  9  2  0  0  0  0
  8 10  1  0  0  0  0
 10 11  1  0  0  0  0
 10 21  1  0  0  0  0
 11 15  1  0  0  0  0
 11 12  1  0  0  0  0
 11 22  1  0  0  0  0
 12 13  1  0  0  0  0
 12 23  1  0  0  0  0
 12 24  1  0  0  0  0
 13 14  1  0  0  0  0
 13 25  1  0  0  0  0
 13 26  1  0  0  0  0
 14 15  1  0  0  0  0
 14 27  1  0  0  0  0
 14 28  1  0  0  0  0
 15 29  1  0  0  0  0
 15 30  1  0  0  0  0
M  END
> <s_m_source_file>
AV-unprocessed.smi

> <i_m_source_file_index>
529

> <i_lp_mmshare_version>
43012

> <i_f3d_flags>
0

> <s_epik_input>
W0hdL049YzFcc1tjSF1bY0hdbjFbQ0gyXUMoPU8pW05IXVtDSF0yW0NIMl1bQ0gyXVtDSDJdW0NIMl0y

> <s_epik_cmdline>
J2VwaWtfcHl0aG9uJywgJy1waCcsICc3LjAnLCAnLXRuJywgJzgnLCAnLW1hJywgJzIwMCcsICctbWV0YWxfYmluZGluZycsICctaW1hZScsICc8aW5maWxlLm1hZT4nLCAnLW9tYWUnLCAnPG91dGZpbGUubWFlPic=

> <r_epik_Ionization_Penalty>
2.18041

> <r_epik_Ionization_Penalty_Charging>
2.18041

> <r_epik_Ionization_Penalty_Neutral>
1.25369e-07

> <r_epik_State_Penalty>
2.33404

> <r_epik_Charging_Adjusted_Penalty>
4.51444

> <i_epik_Tot_Q>
0

> <i_epik_Tot_abs_Q>
0

> <r_epik_Metal_State_Penalty>
2.33404

> <b_epik_Metal_Only>
0

> <s_lp_Force_Field>
OPLS_2005

> <r_lp_Energy>
15.3577

> <b_lp_Chiralities_Consistent>
1

> <s_lp_Variant>
AV-unprocessed.smi:529-2

> <Gold.Version>
5.8.1

> <Gold.Id.Protein>
6NUR|6NUR_protein|mol2

> <Gold.PLP.Fitness>
40.4438

> <Gold.PLP.PLP>
-32.5049

> <Gold.PLP.part.hbond>
-2.0000

> <Gold.PLP.part.metal>
0.0000

> <Gold.PLP.part.buried>
-0.2259

> <Gold.PLP.part.nonpolar>
-31.0710

> <Gold.PLP.part.repulsive>
0.1650

> <Gold.PLP.ligand.clash>
0.0000

> <Gold.PLP.ligand.torsion>
0.1310

> <Gold.PLP.Chemscore.Hbond>
0.9913

> <Gold.PLP.Chemscore.CHOScore>
1.7392

> <Gold.PLP.Chemscore.Metal>
0.0000

> <Gold.Chemscore.Hbonds>
donor molecule, donor type, donor heavy atom, donor atom, acceptor molecule, acceptor atom, score
      L1  H     1    16       P1  7948  1.00
      L1  C     4    17       P1 10175  0.88
      L1  C     5    18       P1  8028  0.83

> <Gold.PLP.Chemscore.Internal.Correction>
0.0095

> <Gold.Rescore>
     Score         DG    S(hbond)    S(metal)    S(lipo)     H(rot)  DE(clash)    DE(int)     intcor
     12.55     -14.12       0.94        0.00      81.36       1.56       0.13       1.44       ----

> <Gold.Chemscore.Fitness>
12.5524

> <Gold.Chemscore.DG>
-14.1234

> <Gold.Chemscore.ZeroCoef>
-5.4800

> <Gold.Chemscore.Hbond>
0.9363

> <Gold.Chemscore.Metal>
0.0000

> <Gold.Chemscore.Lipo>
81.3555

> <Gold.Chemscore.Internal_Hbond>
0.0000

> <Gold.Chemscore.DEClash>
0.1267

> <Gold.Chemscore.DEInternal>
1.4442

> <Gold.Chemscore.Rot>
1.5635

> <Gold.Chemscore.Internal.Correction>
   9.000000E+99

> <Gold.Chemscore.Hbonds>
donor molecule, donor type, donor heavy atom, donor atom, acceptor molecule, acceptor atom, score
      L1  H     1    16       P1  7948  0.91

> <Gold.Chemscore.Hbond.Weighted>
-3.1273

> <Gold.Chemscore.Metal.Weighted>
-0.0000

> <Gold.Chemscore.Lipo.Weighted>
-9.5186

> <Gold.Chemscore.Internal_Hbond.Weighted>
0.0000

> <Gold.Chemscore.DEClash.Weighted>
0.1267

> <Gold.Chemscore.DEInternal.Weighted>
1.4442

> <Gold.Chemscore.Rot.Weighted>
4.0025

> <Gold.Chemscore.Internal.Correction.Weighted>
   9.000000E+99

> <Gold.Protein.RotatedTorsions>
[ 6907 6896 6895 6894 ] final   89.24 input  -60.11 | X-H torsion
[ 7974 7965 7964 7962 ] final -159.11 input  175.53 | X-H torsion
[ 8008 7997 7996 7995 ] final  148.46 input   59.86 | X-H torsion
[ 10167 10162 10161 10158 ] final -127.63 input  -65.29 | X-H torsion
[ 10718 10713 10712 10709 ] final  -20.10 input   66.30 | X-H torsion
[ 10763 10752 10751 10750 ] final  -78.07 input  -60.55 | X-H torsion
[ 11005 11000 10999 10996 ] final  -12.11 input  -57.11 | X-H torsion

> <Gold.Protein.ActiveResidues>
 VAL166  LYS551  ARG553  GLY616  TRP617  ASP618  TYR619  PRO620  LYS621  CYS622 
 ASP623  PHE694  ASN695  SER759  ASP760  ASP761  ALA762  ILE779  LEU786  VAL792 
 PHE793  MET794  SER795  GLU796  ALA797  LYS798  CYS799  TRP800  GLU811  SER814 

> <Gold.Protein.RotatedAtoms>
  152.5434  134.1997  159.8706 H   0  0  0  0  0  0  0  0  0  0  0  0  # atno 6907 bound_to 6896
  151.1987  133.4617  159.2603 H   0  0  0  0  0  0  0  0  0  0  0  0  # atno 6908 bound_to 6896
  151.1011  134.9985  159.8505 H   0  0  0  0  0  0  0  0  0  0  0  0  # atno 6909 bound_to 6896
  144.7478  140.3731  143.6071 H   0  0  0  0  0  0  0  0  0  0  0  0  # atno 7974 bound_to 7965
  156.2790  140.2128  156.5702 H   0  0  0  0  0  0  0  0  0  0  0  0  # atno 8008 bound_to 7997
  154.7142  140.0509  157.0602 H   0  0  0  0  0  0  0  0  0  0  0  0  # atno 8009 bound_to 7997
  155.0565  140.3162  155.4678 H   0  0  0  0  0  0  0  0  0  0  0  0  # atno 8010 bound_to 7997
  139.9589  143.5972  152.2452 H   0  0  0  0  0  0  0  0  0  0  0  0  # atno 10167 bound_to 10162
  156.5365  130.4668  149.6520 H   0  0  0  0  0  0  0  0  0  0  0  0  # atno 10718 bound_to 10713
  154.5212  135.5742  153.6682 H   0  0  0  0  0  0  0  0  0  0  0  0  # atno 10763 bound_to 10752
  152.9917  135.6182  154.2752 H   0  0  0  0  0  0  0  0  0  0  0  0  # atno 10764 bound_to 10752
  154.2673  135.2854  155.2733 H   0  0  0  0  0  0  0  0  0  0  0  0  # atno 10765 bound_to 10752
  140.7623  133.8505  155.9135 H   0  0  0  0  0  0  0  0  0  0  0  0  # atno 11005 bound_to 11000
  145.7056  139.1672  143.2568 LP  0  0  0  0  0  0  0  0  0  0  0  0  # atno 17320 bound_to 7965
  146.1384  140.7091  142.9379 LP  0  0  0  0  0  0  0  0  0  0  0  0  # atno 17321 bound_to 7965
  139.6570  144.7662  151.2037 LP  0  0  0  0  0  0  0  0  0  0  0  0  # atno 17342 bound_to 10162
  140.7559  143.6070  150.8643 LP  0  0  0  0  0  0  0  0  0  0  0  0  # atno 17343 bound_to 10162
  156.3011  130.7177  151.2049 LP  0  0  0  0  0  0  0  0  0  0  0  0  # atno 17370 bound_to 10713
  157.7413  131.0506  150.5108 LP  0  0  0  0  0  0  0  0  0  0  0  0  # atno 17371 bound_to 10713
  140.9651  134.1604  157.4622 LP  0  0  0  0  0  0  0  0  0  0  0  0  # atno 17394 bound_to 11000
  139.8769  134.9959  156.5766 LP  0  0  0  0  0  0  0  0  0  0  0  0  # atno 17395 bound_to 11000

$$$$
