AV-unprocessed.smi:1207|AV-procd|sdf|5060|dock1
  -GOLD-   22720 4 93D 1   1.00000     0.00000
 Structure written by MMmdl.
 53 55  0  0  0  0  0  0  0  0  3 V2000
  152.3950  144.1335  160.5891 C   0  0  0  0  0  0  0  0  0  0  0  0
  152.1053  143.1301  159.4858 C   0  0  0  0  0  0  0  0  0  0  0  0
  151.2744  143.5272  158.4142 C   0  0  0  0  0  0  0  0  0  0  0  0
  151.0277  142.5875  157.4206 C   0  0  0  0  0  0  0  0  0  0  0  0
  150.2630  142.6704  156.2553 N   0  3  0  0  0  0  0  0  0  0  0  0
  150.3188  141.4843  155.5889 C   0  0  0  0  0  0  0  0  0  0  0  0
  151.1043  140.6422  156.3141 N   0  0  0  0  0  0  0  0  0  0  0  0
  151.4884  139.2504  156.0371 C   0  0  0  0  0  0  0  0  0  0  0  0
  150.5308  138.5357  155.0605 C   0  0  1  0  0  0  0  0  0  0  0  0
  150.8132  139.0326  153.7675 O   0  0  0  0  0  0  0  0  0  0  0  0
  150.6795  136.9967  155.0649 C   0  0  0  0  0  0  0  0  0  0  0  0
  149.5239  136.2736  154.4630 N   0  3  2  0  0  0  0  0  0  0  0  0
  148.2296  136.6043  155.1065 C   0  0  0  0  0  0  0  0  0  0  0  0
  149.7258  134.8025  154.3916 C   0  0  0  0  0  0  0  0  0  0  0  0
  149.4758  134.1258  155.7155 C   0  0  0  0  0  0  0  0  0  0  0  0
  148.2229  133.7698  156.2928 C   0  0  0  0  0  0  0  0  0  0  0  0
  146.8454  133.9686  155.7282 C   0  0  0  0  0  0  0  0  0  0  0  0
  148.3689  133.2025  157.4776 N   0  0  0  0  0  0  0  0  0  0  0  0
  149.7464  133.1563  157.7132 O   0  0  0  0  0  0  0  0  0  0  0  0
  150.3835  133.7084  156.6501 C   0  0  0  0  0  0  0  0  0  0  0  0
  151.8725  133.7552  156.7179 C   0  0  0  0  0  0  0  0  0  0  0  0
  151.5749  141.2901  157.4641 C   0  0  0  0  0  0  0  0  0  0  0  0
  152.3965  140.8837  158.5139 C   0  0  0  0  0  0  0  0  0  0  0  0
  152.6584  141.8245  159.5353 C   0  0  0  0  0  0  0  0  0  0  0  0
  153.5492  141.4068  160.6930 C   0  0  0  0  0  0  0  0  0  0  0  0
  151.9451  145.1034  160.3745 H   0  0  0  0  0  0  0  0  0  0  0  0
  153.4691  144.2833  160.7005 H   0  0  0  0  0  0  0  0  0  0  0  0
  151.9933  143.7821  161.5398 H   0  0  0  0  0  0  0  0  0  0  0  0
  150.8498  144.5198  158.3702 H   0  0  0  0  0  0  0  0  0  0  0  0
  149.8285  141.2541  154.6536 H   0  0  0  0  0  0  0  0  0  0  0  0
  152.4960  139.2724  155.6195 H   0  0  0  0  0  0  0  0  0  0  0  0
  151.5665  138.7070  156.9787 H   0  0  0  0  0  0  0  0  0  0  0  0
  149.5122  138.8193  155.3235 H   0  0  0  0  0  0  0  0  0  0  0  0
  150.0022  139.1490  153.2972 H   0  0  0  0  0  0  0  0  0  0  0  0
  151.5926  136.7583  154.5211 H   0  0  0  0  0  0  0  0  0  0  0  0
  150.8242  136.6279  156.0810 H   0  0  0  0  0  0  0  0  0  0  0  0
  148.2448  136.3506  156.1673 H   0  0  0  0  0  0  0  0  0  0  0  0
  147.4127  136.0540  154.6387 H   0  0  0  0  0  0  0  0  0  0  0  0
  147.9894  137.6619  155.0088 H   0  0  0  0  0  0  0  0  0  0  0  0
  149.0824  134.3953  153.6104 H   0  0  0  0  0  0  0  0  0  0  0  0
  150.7475  134.6000  154.0679 H   0  0  0  0  0  0  0  0  0  0  0  0
  146.6595  135.0202  155.5123 H   0  0  0  0  0  0  0  0  0  0  0  0
  146.0720  133.6295  156.4181 H   0  0  0  0  0  0  0  0  0  0  0  0
  146.7231  133.4135  154.7984 H   0  0  0  0  0  0  0  0  0  0  0  0
  152.2950  134.1704  155.8029 H   0  0  0  0  0  0  0  0  0  0  0  0
  152.2846  132.7554  156.8555 H   0  0  0  0  0  0  0  0  0  0  0  0
  152.2010  134.3744  157.5526 H   0  0  0  0  0  0  0  0  0  0  0  0
  152.8203  139.8914  158.5582 H   0  0  0  0  0  0  0  0  0  0  0  0
  153.8307  140.3556  160.6215 H   0  0  0  0  0  0  0  0  0  0  0  0
  153.0355  141.5477  161.6441 H   0  0  0  0  0  0  0  0  0  0  0  0
  154.4648  141.9985  160.7032 H   0  0  0  0  0  0  0  0  0  0  0  0
  149.4572  136.5886  153.5057 H   0  0  0  0  0  0  0  0  0  0  0  0
  149.7439  143.4777  155.9338 H   0  0  0  0  0  0  0  0  0  0  0  0
  1  2  1  0  0  0  0
  1 26  1  0  0  0  0
  1 27  1  0  0  0  0
  1 28  1  0  0  0  0
  2 24  1  0  0  0  0
  2  3  2  0  0  0  0
  3  4  1  0  0  0  0
  3 29  1  0  0  0  0
  4 22  2  0  0  0  0
  4  5  1  0  0  0  0
  5  6  2  0  0  0  0
  5 53  1  0  0  0  0
  6  7  1  0  0  0  0
  6 30  1  0  0  0  0
  7  8  1  0  0  0  0
  7 22  1  0  0  0  0
  8  9  1  0  0  0  0
  8 31  1  0  0  0  0
  8 32  1  0  0  0  0
  9 10  1  0  0  0  0
  9 11  1  0  0  0  0
  9 33  1  0  0  0  0
 10 34  1  0  0  0  0
 11 12  1  0  0  0  0
 11 35  1  0  0  0  0
 11 36  1  0  0  0  0
 12 13  1  0  0  0  0
 12 14  1  0  0  0  0
 12 52  1  0  0  0  0
 13 37  1  0  0  0  0
 13 38  1  0  0  0  0
 13 39  1  0  0  0  0
 14 15  1  0  0  0  0
 14 40  1  0  0  0  0
 14 41  1  0  0  0  0
 15 20  2  0  0  0  0
 15 16  1  0  0  0  0
 16 17  1  0  0  0  0
 16 18  2  0  0  0  0
 17 42  1  0  0  0  0
 17 43  1  0  0  0  0
 17 44  1  0  0  0  0
 18 19  1  0  0  0  0
 19 20  1  0  0  0  0
 20 21  1  0  0  0  0
 21 45  1  0  0  0  0
 21 46  1  0  0  0  0
 21 47  1  0  0  0  0
 22 23  1  0  0  0  0
 23 24  2  0  0  0  0
 23 48  1  0  0  0  0
 24 25  1  0  0  0  0
 25 49  1  0  0  0  0
 25 50  1  0  0  0  0
 25 51  1  0  0  0  0
M  CHG  1   5   1
M  CHG  1  12   1
M  END
> <s_m_source_file>
AV-unprocessed.smi

> <i_m_source_file_index>
1207

> <i_lp_mmshare_version>
43012

> <i_f3d_flags>
0

> <s_epik_input>
W0NIM11jKFtjSF0xKWMoW0NIM10pW2NIXWMoYzEyKW4oW2NIXW4yKVtDSDJdW0NASF0oW09IXSlbQ0gyXU4oW0NIM10pW0NIMl1jM2MoW0NIM10pbm9jM1tDSDNd

> <s_epik_cmdline>
J2VwaWtfcHl0aG9uJywgJy1waCcsICc3LjAnLCAnLXRuJywgJzgnLCAnLW1hJywgJzIwMCcsICctbWV0YWxfYmluZGluZycsICctaW1hZScsICc8aW5maWxlLm1hZT4nLCAnLW9tYWUnLCAnPG91dGZpbGUubWFlPic=

> <r_epik_Ionization_Penalty>
1.77463

> <r_epik_Ionization_Penalty_Charging>
1.77463

> <r_epik_Ionization_Penalty_Neutral>
3.70885e-06

> <r_epik_State_Penalty>
1.85225

> <r_epik_Charging_Adjusted_Penalty>
3.62688

> <i_epik_Tot_Q>
2

> <i_epik_Tot_abs_Q>
2

> <r_epik_Metal_State_Penalty>
1.92674

> <b_epik_Metal_Only>
0

> <s_lp_Force_Field>
OPLS_2005

> <r_lp_Energy>
19.6609

> <b_lp_Chiralities_Consistent>
1

> <s_lp_Variant>
AV-unprocessed.smi:1207-12

> <Gold.Version>
5.8.1

> <Gold.Id.Protein>
6NUR|6NUR_protein|mol2

> <Gold.PLP.Fitness>
57.2877

> <Gold.PLP.PLP>
-40.6178

> <Gold.PLP.part.hbond>
-5.0000

> <Gold.PLP.part.metal>
0.0000

> <Gold.PLP.part.buried>
-1.1241

> <Gold.PLP.part.nonpolar>
-34.3826

> <Gold.PLP.part.repulsive>
0.1304

> <Gold.PLP.ligand.clash>
0.0000

> <Gold.PLP.ligand.torsion>
0.9725

> <Gold.PLP.Chemscore.Hbond>
6.0646

> <Gold.PLP.Chemscore.CHOScore>
0.0000

> <Gold.PLP.Chemscore.Metal>
0.0000

> <Gold.Chemscore.Hbonds>
donor molecule, donor type, donor heavy atom, donor atom, acceptor molecule, acceptor atom, score
      L1  H     5    53       P1  8028  2.00
      L1  H    10    34       P1  7957  0.13
      L1  H    12    52       P1  7948  1.92
      P1  H  6896  6908       L1    19  1.00
      P1  H  7989  7998       L1    10  0.93

> <Gold.PLP.Chemscore.Internal.Correction>
0.4211

> <Gold.Rescore>
     Score         DG    S(hbond)    S(metal)    S(lipo)     H(rot)  DE(clash)    DE(int)     intcor
     21.78     -24.02       3.41        0.00     116.69       2.54       1.18       1.06       ----

> <Gold.Chemscore.Fitness>
21.7789

> <Gold.Chemscore.DG>
-24.0175

> <Gold.Chemscore.ZeroCoef>
-5.4800

> <Gold.Chemscore.Hbond>
3.4057

> <Gold.Chemscore.Metal>
0.0000

> <Gold.Chemscore.Lipo>
116.6878

> <Gold.Chemscore.Internal_Hbond>
0.0000

> <Gold.Chemscore.DEClash>
1.1768

> <Gold.Chemscore.DEInternal>
1.0617

> <Gold.Chemscore.Rot>
2.5351

> <Gold.Chemscore.Internal.Correction>
   9.000000E+99

> <Gold.Chemscore.Hbonds>
donor molecule, donor type, donor heavy atom, donor atom, acceptor molecule, acceptor atom, score
      L1  H     5    53       P1  8028  0.93
      L1  H    10    34       P1  7957  0.13
      L1  H    12    52       P1  7948  0.72
      P1  H  6896  6908       L1    19  0.33
      P1  H  7989  7998       L1    10  0.19

> <Gold.Chemscore.Hbond.Weighted>
-11.3750

> <Gold.Chemscore.Metal.Weighted>
-0.0000

> <Gold.Chemscore.Lipo.Weighted>
-13.6525

> <Gold.Chemscore.Internal_Hbond.Weighted>
0.0000

> <Gold.Chemscore.DEClash.Weighted>
1.1768

> <Gold.Chemscore.DEInternal.Weighted>
1.0617

> <Gold.Chemscore.Rot.Weighted>
6.4900

> <Gold.Chemscore.Internal.Correction.Weighted>
   9.000000E+99

> <Gold.Protein.RotatedTorsions>
[ 6907 6896 6895 6894 ] final   98.92 input  -60.11 | X-H torsion
[ 7974 7965 7964 7962 ] final  -36.94 input  175.53 | X-H torsion
[ 8008 7997 7996 7995 ] final   -2.53 input   59.86 | X-H torsion
[ 10167 10162 10161 10158 ] final  114.60 input  -65.29 | X-H torsion
[ 10718 10713 10712 10709 ] final -179.74 input   66.30 | X-H torsion
[ 10763 10752 10751 10750 ] final  -93.95 input  -60.55 | X-H torsion
[ 11005 11000 10999 10996 ] final -150.87 input  -57.11 | X-H torsion

> <Gold.Protein.ActiveResidues>
 VAL166  LYS551  ARG553  GLY616  TRP617  ASP618  TYR619  PRO620  LYS621  CYS622 
 ASP623  PHE694  ASN695  SER759  ASP760  ASP761  ALA762  ILE779  LEU786  VAL792 
 PHE793  MET794  SER795  GLU796  ALA797  LYS798  CYS799  TRP800  GLU811  SER814 

> <Gold.Protein.RotatedAtoms>
  152.5401  134.0507  159.8108 H   0  0  0  0  0  0  0  0  0  0  0  0  # atno 6907 bound_to 6896
  151.0649  133.5506  159.2638 H   0  0  0  0  0  0  0  0  0  0  0  0  # atno 6908 bound_to 6896
  151.2391  135.0590  159.9072 H   0  0  0  0  0  0  0  0  0  0  0  0  # atno 6909 bound_to 6896
  146.0618  140.6337  142.8993 H   0  0  0  0  0  0  0  0  0  0  0  0  # atno 7974 bound_to 7965
  154.6347  140.2532  155.7392 H   0  0  0  0  0  0  0  0  0  0  0  0  # atno 8008 bound_to 7997
  156.2498  140.2899  156.0635 H   0  0  0  0  0  0  0  0  0  0  0  0  # atno 8009 bound_to 7997
  155.1689  140.0386  157.2849 H   0  0  0  0  0  0  0  0  0  0  0  0  # atno 8010 bound_to 7997
  139.6377  144.7121  151.2301 H   0  0  0  0  0  0  0  0  0  0  0  0  # atno 10167 bound_to 10162
  156.8636  130.9760  151.3081 H   0  0  0  0  0  0  0  0  0  0  0  0  # atno 10718 bound_to 10713
  154.7008  135.5175  153.8524 H   0  0  0  0  0  0  0  0  0  0  0  0  # atno 10763 bound_to 10752
  153.0703  135.6599  154.0272 H   0  0  0  0  0  0  0  0  0  0  0  0  # atno 10764 bound_to 10752
  154.0131  135.3000  155.3369 H   0  0  0  0  0  0  0  0  0  0  0  0  # atno 10765 bound_to 10752
  140.7356  134.3572  157.5158 H   0  0  0  0  0  0  0  0  0  0  0  0  # atno 11005 bound_to 11000
  144.7179  140.4274  143.7030 LP  0  0  0  0  0  0  0  0  0  0  0  0  # atno 17320 bound_to 7965
  145.6547  139.1571  143.2842 LP  0  0  0  0  0  0  0  0  0  0  0  0  # atno 17321 bound_to 7965
  140.7474  143.6367  150.8372 LP  0  0  0  0  0  0  0  0  0  0  0  0  # atno 17342 bound_to 10162
  140.0001  143.5754  152.2879 LP  0  0  0  0  0  0  0  0  0  0  0  0  # atno 17343 bound_to 10162
  157.6236  130.8674  149.9150 LP  0  0  0  0  0  0  0  0  0  0  0  0  # atno 17370 bound_to 10713
  156.0763  130.3678  150.0670 LP  0  0  0  0  0  0  0  0  0  0  0  0  # atno 17371 bound_to 10713
  139.8817  134.9047  156.2883 LP  0  0  0  0  0  0  0  0  0  0  0  0  # atno 17394 bound_to 11000
  140.9882  133.7225  156.0774 LP  0  0  0  0  0  0  0  0  0  0  0  0  # atno 17395 bound_to 11000

$$$$
