AV-unprocessed.smi:2083|AV-procd|sdf|8509|dock7
  -GOLD-   2272011223D 1   1.00000     0.00000
 Structure written by MMmdl.
 44 45  0  0  0  0  0  0  0  0  3 V2000
  154.4554  136.3725  163.9869 C   0  0  0  0  0  0  0  0  0  0  0  0
  154.1068  136.5279  162.5463 C   0  0  0  0  0  0  0  0  0  0  0  0
  153.6725  137.5902  161.8048 C   0  0  0  0  0  0  0  0  0  0  0  0
  153.5427  137.0407  160.5014 C   0  0  0  0  0  0  0  0  0  0  0  0
  153.1073  137.8466  159.4166 N   0  0  0  0  0  0  0  0  0  0  0  0
  153.7904  138.7858  158.7373 C   0  0  0  0  0  0  0  0  0  0  0  0
  154.9679  139.0332  159.0244 O   0  0  0  0  0  0  0  0  0  0  0  0
  153.0388  139.3649  157.7603 N   0  5  0  0  0  0  0  0  0  0  0  0
  151.6160  139.6871  157.8814 C   0  0  0  0  0  0  0  0  0  0  0  0
  151.3189  141.1192  157.3566 C   0  0  1  0  0  0  0  0  0  0  0  0
  149.9347  141.2741  156.6777 C   0  0  0  0  0  0  0  0  0  0  0  0
  151.5552  142.1318  158.4327 N   0  3  2  0  0  0  0  0  0  0  0  0
  151.0399  143.5078  158.1680 C   0  0  0  0  0  0  0  0  0  0  0  0
  151.1062  144.3679  159.4388 C   0  0  0  0  0  0  0  0  0  0  0  0
  152.5383  144.4186  159.9902 C   0  0  0  0  0  0  0  0  0  0  0  0
  153.1100  143.0034  160.1972 C   0  0  1  0  0  0  0  0  0  0  0  0
  152.5099  142.2931  161.4235 C   0  0  0  0  0  0  0  0  0  0  0  0
  152.9645  142.1626  158.9114 C   0  0  0  0  0  0  0  0  0  0  0  0
  153.8672  135.7569  160.4534 N   0  0  0  0  0  0  0  0  0  0  0  0
  154.2309  135.4223  161.7631 O   0  0  0  0  0  0  0  0  0  0  0  0
  153.9709  137.1415  164.5887 H   0  0  0  0  0  0  0  0  0  0  0  0
  155.5322  136.4560  164.1333 H   0  0  0  0  0  0  0  0  0  0  0  0
  154.1365  135.3999  164.3622 H   0  0  0  0  0  0  0  0  0  0  0  0
  153.4815  138.5984  162.1413 H   0  0  0  0  0  0  0  0  0  0  0  0
  152.1532  137.7011  159.1215 H   0  0  0  0  0  0  0  0  0  0  0  0
  151.0008  138.9740  157.3326 H   0  0  0  0  0  0  0  0  0  0  0  0
  151.2773  139.6136  158.9162 H   0  0  0  0  0  0  0  0  0  0  0  0
  152.0642  141.3108  156.5831 H   0  0  0  0  0  0  0  0  0  0  0  0
  149.8424  140.6366  155.7966 H   0  0  0  0  0  0  0  0  0  0  0  0
  149.7835  142.2977  156.3346 H   0  0  0  0  0  0  0  0  0  0  0  0
  149.1064  141.0264  157.3437 H   0  0  0  0  0  0  0  0  0  0  0  0
  151.6250  143.9809  157.3784 H   0  0  0  0  0  0  0  0  0  0  0  0
  150.0078  143.4731  157.8189 H   0  0  0  0  0  0  0  0  0  0  0  0
  150.7578  145.3779  159.2213 H   0  0  0  0  0  0  0  0  0  0  0  0
  150.4277  143.9662  160.1919 H   0  0  0  0  0  0  0  0  0  0  0  0
  153.1704  144.9615  159.2861 H   0  0  0  0  0  0  0  0  0  0  0  0
  152.5661  144.9835  160.9226 H   0  0  0  0  0  0  0  0  0  0  0  0
  154.1768  143.1110  160.3973 H   0  0  0  0  0  0  0  0  0  0  0  0
  151.4412  142.1120  161.3080 H   0  0  0  0  0  0  0  0  0  0  0  0
  152.6502  142.8862  162.3275 H   0  0  0  0  0  0  0  0  0  0  0  0
  152.9894  141.3279  161.5890 H   0  0  0  0  0  0  0  0  0  0  0  0
  153.3229  141.1511  159.1067 H   0  0  0  0  0  0  0  0  0  0  0  0
  153.5994  142.5712  158.1238 H   0  0  0  0  0  0  0  0  0  0  0  0
  151.0239  141.7839  159.2184 H   0  0  0  0  0  0  0  0  0  0  0  0
  1  2  1  0  0  0  0
  1 21  1  0  0  0  0
  1 22  1  0  0  0  0
  1 23  1  0  0  0  0
  2 20  1  0  0  0  0
  2  3  2  0  0  0  0
  3  4  1  0  0  0  0
  3 24  1  0  0  0  0
  4  5  1  0  0  0  0
  4 19  2  0  0  0  0
  5  6  1  0  0  0  0
  5 25  1  0  0  0  0
  6  7  2  0  0  0  0
  6  8  1  0  0  0  0
  8  9  1  0  0  0  0
  9 10  1  0  0  0  0
  9 26  1  0  0  0  0
  9 27  1  0  0  0  0
 10 11  1  0  0  0  0
 10 12  1  0  0  0  0
 10 28  1  0  0  0  0
 11 29  1  0  0  0  0
 11 30  1  0  0  0  0
 11 31  1  0  0  0  0
 12 18  1  0  0  0  0
 12 13  1  0  0  0  0
 12 44  1  0  0  0  0
 13 14  1  0  0  0  0
 13 32  1  0  0  0  0
 13 33  1  0  0  0  0
 14 15  1  0  0  0  0
 14 34  1  0  0  0  0
 14 35  1  0  0  0  0
 15 16  1  0  0  0  0
 15 36  1  0  0  0  0
 15 37  1  0  0  0  0
 16 17  1  0  0  0  0
 16 18  1  0  0  0  0
 16 38  1  0  0  0  0
 17 39  1  0  0  0  0
 17 40  1  0  0  0  0
 17 41  1  0  0  0  0
 18 42  1  0  0  0  0
 18 43  1  0  0  0  0
 19 20  1  0  0  0  0
M  CHG  1   8  -1
M  CHG  1  12   1
M  END
> <s_m_source_file>
AV-unprocessed.smi

> <i_m_source_file_index>
2083

> <i_lp_mmshare_version>
43012

> <i_f3d_flags>
0

> <s_epik_input>
W0NIM11jMVtjSF1jKG5vMSlbTkhdQyg9TylbTkhdW0NIMl1bQ0BIXShbQ0gzXSlOMltDSDJdW0NIMl1bQ0gyXVtDQEBIXShbQ0gzXSlbQ0gyXTI=

> <s_epik_cmdline>
J2VwaWtfcHl0aG9uJywgJy1waCcsICc3LjAnLCAnLXRuJywgJzgnLCAnLW1hJywgJzIwMCcsICctbWV0YWxfYmluZGluZycsICctaW1hZScsICc8aW5maWxlLm1hZT4nLCAnLW9tYWUnLCAnPG91dGZpbGUubWFlPic=

> <r_epik_Ionization_Penalty>
6.76934

> <r_epik_Ionization_Penalty_Charging>
6.76934

> <r_epik_Ionization_Penalty_Neutral>
5.77849e-06

> <r_epik_State_Penalty>
6.79457

> <r_epik_Charging_Adjusted_Penalty>
13.5639

> <i_epik_Tot_Q>
0

> <i_epik_Tot_abs_Q>
2

> <r_epik_Metal_State_Penalty>
2.72837

> <b_epik_Metal_Only>
1

> <s_lp_Force_Field>
OPLS_2005

> <r_lp_Energy>
19.7061

> <b_lp_Chiralities_Consistent>
1

> <s_lp_Variant>
AV-unprocessed.smi:2083-20

> <Gold.Version>
5.8.1

> <Gold.Id.Protein>
6NUR|6NUR_protein|mol2

> <Gold.PLP.Fitness>
44.3253

> <Gold.PLP.PLP>
-38.5753

> <Gold.PLP.part.hbond>
-2.9560

> <Gold.PLP.part.metal>
0.0000

> <Gold.PLP.part.buried>
-5.4204

> <Gold.PLP.part.nonpolar>
-30.8250

> <Gold.PLP.part.repulsive>
0.1544

> <Gold.PLP.ligand.clash>
0.0000

> <Gold.PLP.ligand.torsion>
1.6160

> <Gold.PLP.Chemscore.Hbond>
2.9425

> <Gold.PLP.Chemscore.CHOScore>
0.0000

> <Gold.PLP.Chemscore.Metal>
0.0000

> <Gold.Chemscore.Hbonds>
donor molecule, donor type, donor heavy atom, donor atom, acceptor molecule, acceptor atom, score
      P1  H  6896  6907       L1    19  1.00
      P1  H  7997  8010       L1     8  1.70

> <Gold.PLP.Chemscore.Internal.Correction>
0.1544

> <Gold.Rescore>
     Score         DG    S(hbond)    S(metal)    S(lipo)     H(rot)  DE(clash)    DE(int)     intcor
     17.13     -20.31       1.69        0.00     111.86       1.52       0.61       2.58       ----

> <Gold.Chemscore.Fitness>
17.1268

> <Gold.Chemscore.DG>
-20.3105

> <Gold.Chemscore.ZeroCoef>
-5.4800

> <Gold.Chemscore.Hbond>
1.6859

> <Gold.Chemscore.Metal>
0.0000

> <Gold.Chemscore.Lipo>
111.8643

> <Gold.Chemscore.Internal_Hbond>
0.0000

> <Gold.Chemscore.DEClash>
0.6060

> <Gold.Chemscore.DEInternal>
2.5777

> <Gold.Chemscore.Rot>
1.5190

> <Gold.Chemscore.Internal.Correction>
   9.000000E+99

> <Gold.Chemscore.Hbonds>
donor molecule, donor type, donor heavy atom, donor atom, acceptor molecule, acceptor atom, score
      P1  H  6896  6907       L1    19  0.45
      P1  H  7997  8010       L1     8  0.15

> <Gold.Chemscore.Hbond.Weighted>
-5.6310

> <Gold.Chemscore.Metal.Weighted>
-0.0000

> <Gold.Chemscore.Lipo.Weighted>
-13.0881

> <Gold.Chemscore.Internal_Hbond.Weighted>
0.0000

> <Gold.Chemscore.DEClash.Weighted>
0.6060

> <Gold.Chemscore.DEInternal.Weighted>
2.5777

> <Gold.Chemscore.Rot.Weighted>
3.8886

> <Gold.Chemscore.Internal.Correction.Weighted>
   9.000000E+99

> <Gold.Protein.RotatedTorsions>
[ 6907 6896 6895 6894 ] final   52.97 input  -60.11 | X-H torsion
[ 7974 7965 7964 7962 ] final -136.80 input  175.53 | X-H torsion
[ 8008 7997 7996 7995 ] final   51.27 input   59.86 | X-H torsion
[ 10167 10162 10161 10158 ] final -109.39 input  -65.29 | X-H torsion
[ 10718 10713 10712 10709 ] final -129.77 input   66.30 | X-H torsion
[ 10763 10752 10751 10750 ] final   79.32 input  -60.55 | X-H torsion
[ 11005 11000 10999 10996 ] final   61.84 input  -57.11 | X-H torsion

> <Gold.Protein.ActiveResidues>
 VAL166  LYS551  ARG553  GLY616  TRP617  ASP618  TYR619  PRO620  LYS621  CYS622 
 ASP623  PHE694  ASN695  SER759  ASP760  ASP761  ALA762  ILE779  LEU786  VAL792 
 PHE793  MET794  SER795  GLU796  ALA797  LYS798  CYS799  TRP800  GLU811  SER814 

> <Gold.Protein.RotatedAtoms>
  152.3288  134.7286  160.0294 H   0  0  0  0  0  0  0  0  0  0  0  0  # atno 6907 bound_to 6896
  151.7709  133.3336  159.3452 H   0  0  0  0  0  0  0  0  0  0  0  0  # atno 6908 bound_to 6896
  150.7411  134.5951  159.6052 H   0  0  0  0  0  0  0  0  0  0  0  0  # atno 6909 bound_to 6896
  144.8896  140.6624  143.5153 H   0  0  0  0  0  0  0  0  0  0  0  0  # atno 7974 bound_to 7965
  155.4325  140.3451  155.4281 H   0  0  0  0  0  0  0  0  0  0  0  0  # atno 8008 bound_to 7997
  156.1328  140.1519  156.9071 H   0  0  0  0  0  0  0  0  0  0  0  0  # atno 8009 bound_to 7997
  154.4908  140.0842  156.7569 H   0  0  0  0  0  0  0  0  0  0  0  0  # atno 8010 bound_to 7997
  140.1558  143.4161  152.1461 H   0  0  0  0  0  0  0  0  0  0  0  0  # atno 10167 bound_to 10162
  156.2079  130.6899  151.0616 H   0  0  0  0  0  0  0  0  0  0  0  0  # atno 10718 bound_to 10713
  153.0943  135.4844  154.8749 H   0  0  0  0  0  0  0  0  0  0  0  0  # atno 10763 bound_to 10752
  154.7306  135.3059  154.8900 H   0  0  0  0  0  0  0  0  0  0  0  0  # atno 10764 bound_to 10752
  153.9537  135.6820  153.4797 H   0  0  0  0  0  0  0  0  0  0  0  0  # atno 10765 bound_to 10752
  140.0133  134.6263  155.9747 H   0  0  0  0  0  0  0  0  0  0  0  0  # atno 11005 bound_to 11000
  145.3806  139.1638  143.4282 LP  0  0  0  0  0  0  0  0  0  0  0  0  # atno 17320 bound_to 7965
  146.3046  140.3887  142.8692 LP  0  0  0  0  0  0  0  0  0  0  0  0  # atno 17321 bound_to 7965
  139.5404  144.7251  151.4753 LP  0  0  0  0  0  0  0  0  0  0  0  0  # atno 17342 bound_to 10162
  140.6674  143.8369  150.6958 LP  0  0  0  0  0  0  0  0  0  0  0  0  # atno 17343 bound_to 10162
  157.7022  131.0771  150.6782 LP  0  0  0  0  0  0  0  0  0  0  0  0  # atno 17370 bound_to 10713
  156.6841  130.4576  149.5619 LP  0  0  0  0  0  0  0  0  0  0  0  0  # atno 17371 bound_to 10713
  141.1726  133.6538  156.4707 LP  0  0  0  0  0  0  0  0  0  0  0  0  # atno 17394 bound_to 11000
  140.4515  134.6924  157.5042 LP  0  0  0  0  0  0  0  0  0  0  0  0  # atno 17395 bound_to 11000

$$$$
