AV-unprocessed.smi:2816|AV-procd|sdf|10843|dock5
  -GOLD-   2272015283D 1   1.00000     0.00000
 Structure written by MMmdl.
 43 45  0  0  0  0  0  0  0  0  1 V2000
  151.7316  131.4341  158.3758 C   0  0  0  0  0  0  0  0  0  0  0  0
  150.8232  131.5522  157.1396 C   0  0  0  0  0  0  0  0  0  0  0  0
  151.6364  131.2379  155.8707 C   0  0  0  0  0  0  0  0  0  0  0  0
  149.6424  130.5733  157.2772 C   0  0  0  0  0  0  0  0  0  0  0  0
  150.1972  133.3039  157.0615 S   0  0  0  0  0  0  0  0  0  0  0  0
  149.3248  133.5379  158.2234 O   0  0  0  0  0  0  0  0  0  0  0  0
  151.3556  134.1854  156.8458 O   0  0  0  0  0  0  0  0  0  0  0  0
  149.1713  133.3944  155.5923 C   0  0  0  0  0  0  0  0  0  0  0  0
  147.9315  134.0632  155.6384 C   0  0  0  0  0  0  0  0  0  0  0  0
  147.1793  134.1495  154.4522 C   0  0  0  0  0  0  0  0  0  0  0  0
  147.6975  133.5759  153.2666 C   0  0  0  0  0  0  0  0  0  0  0  0
  147.0306  133.6147  152.0335 N   0  0  0  0  0  0  0  0  0  0  0  0
  145.5748  133.6638  151.9554 C   0  0  1  0  0  0  0  0  0  0  0  0
  145.0352  134.4413  150.7491 C   0  0  0  0  0  0  0  0  0  0  0  0
  144.0871  133.4156  150.1124 C   0  0  1  0  0  0  0  0  0  0  0  0
  144.8620  132.3219  149.3673 C   0  0  0  0  0  0  0  0  0  0  0  0
  145.4511  131.5180  150.5243 C   0  0  0  0  0  0  0  0  0  0  0  0
  144.9224  132.2846  151.7497 C   0  0  2  0  0  0  0  0  0  0  0  0
  143.6581  132.6947  151.2559 O   0  0  0  0  0  0  0  0  0  0  0  0
  148.9540  132.9362  153.3400 C   0  0  0  0  0  0  0  0  0  0  0  0
  149.6860  132.8479  154.4701 N   0  0  0  0  0  0  0  0  0  0  0  0
  152.1314  130.4250  158.4814 H   0  0  0  0  0  0  0  0  0  0  0  0
  151.1873  131.6705  159.2905 H   0  0  0  0  0  0  0  0  0  0  0  0
  152.5785  132.1180  158.3124 H   0  0  0  0  0  0  0  0  0  0  0  0
  152.4616  131.9389  155.7420 H   0  0  0  0  0  0  0  0  0  0  0  0
  151.0181  131.2873  154.9747 H   0  0  0  0  0  0  0  0  0  0  0  0
  152.0624  130.2350  155.9146 H   0  0  0  0  0  0  0  0  0  0  0  0
  149.9951  129.5497  157.4065 H   0  0  0  0  0  0  0  0  0  0  0  0
  149.0045  130.5819  156.3943 H   0  0  0  0  0  0  0  0  0  0  0  0
  149.0209  130.8160  158.1396 H   0  0  0  0  0  0  0  0  0  0  0  0
  147.5650  134.5025  156.5542 H   0  0  0  0  0  0  0  0  0  0  0  0
  146.2255  134.6542  154.4698 H   0  0  0  0  0  0  0  0  0  0  0  0
  147.5591  133.8102  151.1952 H   0  0  0  0  0  0  0  0  0  0  0  0
  145.1783  134.0927  152.8765 H   0  0  0  0  0  0  0  0  0  0  0  0
  144.4881  135.3236  151.0830 H   0  0  0  0  0  0  0  0  0  0  0  0
  145.8091  134.7670  150.0522 H   0  0  0  0  0  0  0  0  0  0  0  0
  143.2802  133.8604  149.5297 H   0  0  0  0  0  0  0  0  0  0  0  0
  144.1879  131.7020  148.7751 H   0  0  0  0  0  0  0  0  0  0  0  0
  145.6241  132.7304  148.7028 H   0  0  0  0  0  0  0  0  0  0  0  0
  145.0599  130.5000  150.5131 H   0  0  0  0  0  0  0  0  0  0  0  0
  146.5390  131.4582  150.4904 H   0  0  0  0  0  0  0  0  0  0  0  0
  144.8724  131.6825  152.6573 H   0  0  0  0  0  0  0  0  0  0  0  0
  149.3914  132.4861  152.4607 H   0  0  0  0  0  0  0  0  0  0  0  0
  1  2  1  0  0  0  0
  1 22  1  0  0  0  0
  1 23  1  0  0  0  0
  1 24  1  0  0  0  0
  2  3  1  0  0  0  0
  2  4  1  0  0  0  0
  2  5  1  0  0  0  0
  3 25  1  0  0  0  0
  3 26  1  0  0  0  0
  3 27  1  0  0  0  0
  4 28  1  0  0  0  0
  4 29  1  0  0  0  0
  4 30  1  0  0  0  0
  5  6  2  0  0  0  0
  5  7  2  0  0  0  0
  5  8  1  0  0  0  0
  8 21  1  0  0  0  0
  8  9  2  0  0  0  0
  9 10  1  0  0  0  0
  9 31  1  0  0  0  0
 10 11  2  0  0  0  0
 10 32  1  0  0  0  0
 11 12  1  0  0  0  0
 11 20  1  0  0  0  0
 12 13  1  0  0  0  0
 12 33  1  0  0  0  0
 13 18  1  0  0  0  0
 13 14  1  0  0  0  0
 13 34  1  0  0  0  0
 14 15  1  0  0  0  0
 14 35  1  0  0  0  0
 14 36  1  0  0  0  0
 15 19  1  0  0  0  0
 15 16  1  0  0  0  0
 15 37  1  0  0  0  0
 16 17  1  0  0  0  0
 16 38  1  0  0  0  0
 16 39  1  0  0  0  0
 17 18  1  0  0  0  0
 17 40  1  0  0  0  0
 17 41  1  0  0  0  0
 18 19  1  0  0  0  0
 18 42  1  0  0  0  0
 20 21  2  0  0  0  0
 20 43  1  0  0  0  0
M  END
> <s_m_source_file>
AV-unprocessed.smi

> <i_m_source_file_index>
2816

> <i_lp_mmshare_version>
43012

> <i_f3d_flags>
0

> <s_epik_input>
W0NIM11DKFtDSDNdKShbQ0gzXSlTKD1PKSg9TyljMVtjSF1bY0hdYyhbY0hdbjEpW05IXVtDQEhdKFtDSDJdW0NAQEhdMjMpW0NAQEhdKE8zKVtDSDJdW0NIMl0y

> <s_epik_cmdline>
J2VwaWtfcHl0aG9uJywgJy1waCcsICc3LjAnLCAnLXRuJywgJzgnLCAnLW1hJywgJzIwMCcsICctbWV0YWxfYmluZGluZycsICctaW1hZScsICc8aW5maWxlLm1hZT4nLCAnLW9tYWUnLCAnPG91dGZpbGUubWFlPic=

> <r_lp_tautomer_probability>
1

> <r_epik_Ionization_Penalty>
1.94439e-07

> <r_epik_Ionization_Penalty_Charging>
0

> <r_epik_Ionization_Penalty_Neutral>
1.94439e-07

> <r_epik_State_Penalty>
-0

> <r_epik_Charging_Adjusted_Penalty>
0

> <i_epik_Tot_Q>
0

> <i_epik_Tot_abs_Q>
0

> <r_epik_Metal_State_Penalty>
-0

> <b_epik_Metal_Only>
0

> <s_lp_Force_Field>
OPLS_2005

> <r_lp_Energy>
43.8741

> <b_lp_Chiralities_Consistent>
1

> <s_lp_Variant>
AV-unprocessed.smi:2816-2

> <Gold.Version>
5.8.1

> <Gold.Id.Protein>
6NUR|6NUR_protein|mol2

> <Gold.PLP.Fitness>
34.6348

> <Gold.PLP.PLP>
-29.8710

> <Gold.PLP.part.hbond>
-1.7420

> <Gold.PLP.part.metal>
0.0000

> <Gold.PLP.part.buried>
-5.3746

> <Gold.PLP.part.nonpolar>
-23.3753

> <Gold.PLP.part.repulsive>
0.3078

> <Gold.PLP.ligand.clash>
0.0000

> <Gold.PLP.ligand.torsion>
1.7306

> <Gold.PLP.Chemscore.Hbond>
1.0000

> <Gold.PLP.Chemscore.CHOScore>
1.0000

> <Gold.PLP.Chemscore.Metal>
0.0000

> <Gold.Chemscore.Hbonds>
donor molecule, donor type, donor heavy atom, donor atom, acceptor molecule, acceptor atom, score
      P1  H  6896  6907       L1     6  0.55
      L1  C    20    43       P1 10747  0.52

> <Gold.PLP.Chemscore.Internal.Correction>
2.2251

> <Gold.Rescore>
     Score         DG    S(hbond)    S(metal)    S(lipo)     H(rot)  DE(clash)    DE(int)     intcor
     11.48     -14.56       0.78        0.00      80.29       1.15       0.18       2.90       ----

> <Gold.Chemscore.Fitness>
11.4764

> <Gold.Chemscore.DG>
-14.5564

> <Gold.Chemscore.ZeroCoef>
-5.4800

> <Gold.Chemscore.Hbond>
0.7843

> <Gold.Chemscore.Metal>
0.0000

> <Gold.Chemscore.Lipo>
80.2865

> <Gold.Chemscore.Internal_Hbond>
0.0000

> <Gold.Chemscore.DEClash>
0.1759

> <Gold.Chemscore.DEInternal>
2.9041

> <Gold.Chemscore.Rot>
1.1471

> <Gold.Chemscore.Internal.Correction>
   9.000000E+99

> <Gold.Chemscore.Hbonds>
donor molecule, donor type, donor heavy atom, donor atom, acceptor molecule, acceptor atom, score
      P1  H  6896  6907       L1     6  0.03

> <Gold.Chemscore.Hbond.Weighted>
-2.6195

> <Gold.Chemscore.Metal.Weighted>
-0.0000

> <Gold.Chemscore.Lipo.Weighted>
-9.3935

> <Gold.Chemscore.Internal_Hbond.Weighted>
0.0000

> <Gold.Chemscore.DEClash.Weighted>
0.1759

> <Gold.Chemscore.DEInternal.Weighted>
2.9041

> <Gold.Chemscore.Rot.Weighted>
2.9366

> <Gold.Chemscore.Internal.Correction.Weighted>
   9.000000E+99

> <Gold.Protein.RotatedTorsions>
[ 6907 6896 6895 6894 ] final -118.11 input  -60.11 | X-H torsion
[ 7974 7965 7964 7962 ] final   64.34 input  175.53 | X-H torsion
[ 8008 7997 7996 7995 ] final  -96.02 input   59.86 | X-H torsion
[ 10167 10162 10161 10158 ] final  105.52 input  -65.29 | X-H torsion
[ 10718 10713 10712 10709 ] final -138.71 input   66.30 | X-H torsion
[ 10763 10752 10751 10750 ] final  125.39 input  -60.55 | X-H torsion
[ 11005 11000 10999 10996 ] final  -11.18 input  -57.11 | X-H torsion

> <Gold.Protein.ActiveResidues>
 VAL166  LYS551  ARG553  GLY616  TRP617  ASP618  TYR619  PRO620  LYS621  CYS622 
 ASP623  PHE694  ASN695  SER759  ASP760  ASP761  ALA762  ILE779  LEU786  VAL792 
 PHE793  MET794  SER795  GLU796  ALA797  LYS798  CYS799  TRP800  GLU811  SER814 

> <Gold.Protein.RotatedAtoms>
  150.8193  133.8282  159.3146 H   0  0  0  0  0  0  0  0  0  0  0  0  # atno 6907 bound_to 6896
  151.6045  135.1043  160.0077 H   0  0  0  0  0  0  0  0  0  0  0  0  # atno 6908 bound_to 6896
  152.4282  133.7191  159.6580 H   0  0  0  0  0  0  0  0  0  0  0  0  # atno 6909 bound_to 6896
  145.8513  139.3256  143.0873 H   0  0  0  0  0  0  0  0  0  0  0  0  # atno 7974 bound_to 7965
  154.7690  140.0475  157.1036 H   0  0  0  0  0  0  0  0  0  0  0  0  # atno 8008 bound_to 7997
  154.9844  140.3105  155.4913 H   0  0  0  0  0  0  0  0  0  0  0  0  # atno 8009 bound_to 7997
  156.2918  140.2230  156.4945 H   0  0  0  0  0  0  0  0  0  0  0  0  # atno 8010 bound_to 7997
  139.7086  144.7082  151.1065 H   0  0  0  0  0  0  0  0  0  0  0  0  # atno 10167 bound_to 10162
  156.3025  130.7436  151.1492 H   0  0  0  0  0  0  0  0  0  0  0  0  # atno 10718 bound_to 10713
  153.6766  135.3321  155.3167 H   0  0  0  0  0  0  0  0  0  0  0  0  # atno 10763 bound_to 10752
  154.8477  135.4399  154.1649 H   0  0  0  0  0  0  0  0  0  0  0  0  # atno 10764 bound_to 10752
  153.2655  135.6995  153.7611 H   0  0  0  0  0  0  0  0  0  0  0  0  # atno 10765 bound_to 10752
  140.7525  133.8580  155.9057 H   0  0  0  0  0  0  0  0  0  0  0  0  # atno 11005 bound_to 11000
  145.9354  140.9018  143.0335 LP  0  0  0  0  0  0  0  0  0  0  0  0  # atno 17320 bound_to 7965
  144.6729  140.1475  143.7432 LP  0  0  0  0  0  0  0  0  0  0  0  0  # atno 17321 bound_to 7965
  140.7728  143.5324  150.9407 LP  0  0  0  0  0  0  0  0  0  0  0  0  # atno 17342 bound_to 10162
  139.9008  143.6838  152.3131 LP  0  0  0  0  0  0  0  0  0  0  0  0  # atno 17343 bound_to 10162
  157.7371  131.0555  150.5373 LP  0  0  0  0  0  0  0  0  0  0  0  0  # atno 17370 bound_to 10713
  156.5502  130.4230  149.6111 LP  0  0  0  0  0  0  0  0  0  0  0  0  # atno 17371 bound_to 10713
  140.9737  134.1497  157.4554 LP  0  0  0  0  0  0  0  0  0  0  0  0  # atno 17394 bound_to 11000
  139.8785  134.9987  156.5916 LP  0  0  0  0  0  0  0  0  0  0  0  0  # atno 17395 bound_to 11000

$$$$
