AV-unprocessed.smi:148|AV-procd|sdf|1221|dock10
  -GOLD-   2262018413D 1   1.00000     0.00000
 Structure written by MMmdl.
 63 67  0  0  0  0  0  0  0  0  1 V2000
  145.2803  132.5853  160.8166 O   0  0  0  0  0  0  0  0  0  0  0  0
  146.6007  132.6092  160.3158 C   0  0  0  0  0  0  0  0  0  0  0  0
  146.9452  133.9878  159.6990 C   0  0  1  0  0  0  0  0  0  0  0  0
  146.1368  134.2732  158.4053 C   0  0  0  0  0  0  0  0  0  0  0  0
  146.3168  133.2574  157.3833 N   0  0  0  0  0  0  0  0  0  0  0  0
  145.9290  131.9392  157.4564 C   0  0  0  0  0  0  0  0  0  0  0  0
  146.1968  131.2226  156.3990 N   0  0  0  0  0  0  0  0  0  0  0  0
  146.8145  132.1152  155.5304 C   0  0  0  0  0  0  0  0  0  0  0  0
  147.3473  132.0203  154.2126 C   0  0  0  0  0  0  0  0  0  0  0  0
  147.3558  130.8999  153.4534 N   0  0  0  0  0  0  0  0  0  0  0  0
  147.6670  129.7463  154.2995 C   0  0  0  0  0  0  0  0  0  0  0  0
  147.9332  128.4863  153.4656 C   0  0  0  0  0  0  0  0  0  0  0  0
  146.7555  128.2101  152.5257 C   0  0  0  0  0  0  0  0  0  0  0  0
  146.4994  129.4410  151.6478 C   0  0  0  0  0  0  0  0  0  0  0  0
  146.2416  130.7083  152.5053 C   0  0  2  0  0  0  0  0  0  0  0  0
  145.9158  131.9730  151.6453 C   0  0  2  0  0  0  0  0  0  0  0  0
  144.8713  132.9166  152.2810 C   0  0  0  0  0  0  0  0  0  0  0  0
  143.9395  133.3727  151.1498 C   0  0  0  0  0  0  0  0  0  0  0  0
  144.6670  133.0183  149.8549 C   0  0  0  0  0  0  0  0  0  0  0  0
  145.4179  131.7350  150.2045 C   0  0  1  0  0  0  0  0  0  0  0  0
  146.4721  131.5092  149.2926 O   0  0  0  0  0  0  0  0  0  0  0  0
  147.9148  133.1288  153.6758 N   0  0  0  0  0  0  0  0  0  0  0  0
  147.9348  134.2722  154.3671 C   0  0  0  0  0  0  0  0  0  0  0  0
  147.4607  134.5163  155.5904 N   0  0  0  0  0  0  0  0  0  0  0  0
  146.9088  133.3971  156.1407 C   0  0  0  0  0  0  0  0  0  0  0  0
  146.8474  135.1246  160.7558 C   0  0  1  0  0  0  0  0  0  0  0  0
  147.5203  134.8761  162.0940 C   0  0  0  0  0  0  0  0  0  0  0  0
  147.5161  136.2783  162.6923 C   0  0  0  0  0  0  0  0  0  0  0  0
  147.7228  137.1566  161.5904 O   0  0  0  0  0  0  0  0  0  0  0  0
  147.4331  136.4866  160.3649 C   0  0  0  0  0  0  0  0  0  0  0  0
  144.9633  131.6953  160.7861 H   0  0  0  0  0  0  0  0  0  0  0  0
  147.2553  132.3730  161.1542 H   0  0  0  0  0  0  0  0  0  0  0  0
  146.7252  131.8119  159.5828 H   0  0  0  0  0  0  0  0  0  0  0  0
  147.9924  133.9378  159.3956 H   0  0  0  0  0  0  0  0  0  0  0  0
  145.0717  134.3503  158.6196 H   0  0  0  0  0  0  0  0  0  0  0  0
  146.4330  135.2242  157.9647 H   0  0  0  0  0  0  0  0  0  0  0  0
  145.4338  131.5254  158.3230 H   0  0  0  0  0  0  0  0  0  0  0  0
  148.5402  129.9581  154.9190 H   0  0  0  0  0  0  0  0  0  0  0  0
  146.8332  129.5663  154.9802 H   0  0  0  0  0  0  0  0  0  0  0  0
  148.8474  128.6169  152.8850 H   0  0  0  0  0  0  0  0  0  0  0  0
  148.0995  127.6319  154.1220 H   0  0  0  0  0  0  0  0  0  0  0  0
  146.9670  127.3402  151.9033 H   0  0  0  0  0  0  0  0  0  0  0  0
  145.8622  127.9737  153.1052 H   0  0  0  0  0  0  0  0  0  0  0  0
  147.3691  129.5813  151.0072 H   0  0  0  0  0  0  0  0  0  0  0  0
  145.6601  129.2346  150.9855 H   0  0  0  0  0  0  0  0  0  0  0  0
  145.3565  130.4980  153.1057 H   0  0  0  0  0  0  0  0  0  0  0  0
  146.8117  132.5894  151.5672 H   0  0  0  0  0  0  0  0  0  0  0  0
  144.2976  132.4492  153.0799 H   0  0  0  0  0  0  0  0  0  0  0  0
  145.3755  133.7747  152.7275 H   0  0  0  0  0  0  0  0  0  0  0  0
  143.0040  132.8142  151.2033 H   0  0  0  0  0  0  0  0  0  0  0  0
  143.6936  134.4331  151.2120 H   0  0  0  0  0  0  0  0  0  0  0  0
  143.9877  132.8933  149.0111 H   0  0  0  0  0  0  0  0  0  0  0  0
  145.3707  133.8136  149.6034 H   0  0  0  0  0  0  0  0  0  0  0  0
  144.7178  130.9035  150.1520 H   0  0  0  0  0  0  0  0  0  0  0  0
  147.2520  131.2945  149.7821 H   0  0  0  0  0  0  0  0  0  0  0  0
  148.3942  135.1124  153.8676 H   0  0  0  0  0  0  0  0  0  0  0  0
  145.7906  135.2840  160.9776 H   0  0  0  0  0  0  0  0  0  0  0  0
  146.9932  134.1492  162.7125 H   0  0  0  0  0  0  0  0  0  0  0  0
  148.5510  134.5449  161.9753 H   0  0  0  0  0  0  0  0  0  0  0  0
  146.5458  136.4992  163.1391 H   0  0  0  0  0  0  0  0  0  0  0  0
  148.2804  136.4105  163.4585 H   0  0  0  0  0  0  0  0  0  0  0  0
  148.3649  136.3879  159.8101 H   0  0  0  0  0  0  0  0  0  0  0  0
  146.7425  137.0701  159.7554 H   0  0  0  0  0  0  0  0  0  0  0  0
  1  2  1  0  0  0  0
  1 31  1  0  0  0  0
  2  3  1  0  0  0  0
  2 32  1  0  0  0  0
  2 33  1  0  0  0  0
  3  4  1  0  0  0  0
  3 26  1  0  0  0  0
  3 34  1  0  0  0  0
  4  5  1  0  0  0  0
  4 35  1  0  0  0  0
  4 36  1  0  0  0  0
  5 25  1  0  0  0  0
  5  6  1  0  0  0  0
  6  7  2  0  0  0  0
  6 37  1  0  0  0  0
  7  8  1  0  0  0  0
  8 25  2  0  0  0  0
  8  9  1  0  0  0  0
  9 10  1  0  0  0  0
  9 22  2  0  0  0  0
 10 15  1  0  0  0  0
 10 11  1  0  0  0  0
 11 12  1  0  0  0  0
 11 38  1  0  0  0  0
 11 39  1  0  0  0  0
 12 13  1  0  0  0  0
 12 40  1  0  0  0  0
 12 41  1  0  0  0  0
 13 14  1  0  0  0  0
 13 42  1  0  0  0  0
 13 43  1  0  0  0  0
 14 15  1  0  0  0  0
 14 44  1  0  0  0  0
 14 45  1  0  0  0  0
 15 16  1  0  0  0  0
 15 46  1  0  0  0  0
 16 20  1  0  0  0  0
 16 17  1  0  0  0  0
 16 47  1  0  0  0  0
 17 18  1  0  0  0  0
 17 48  1  0  0  0  0
 17 49  1  0  0  0  0
 18 19  1  0  0  0  0
 18 50  1  0  0  0  0
 18 51  1  0  0  0  0
 19 20  1  0  0  0  0
 19 52  1  0  0  0  0
 19 53  1  0  0  0  0
 20 21  1  0  0  0  0
 20 54  1  0  0  0  0
 21 55  1  0  0  0  0
 22 23  1  0  0  0  0
 23 24  2  0  0  0  0
 23 56  1  0  0  0  0
 24 25  1  0  0  0  0
 26 30  1  0  0  0  0
 26 27  1  0  0  0  0
 26 57  1  0  0  0  0
 27 28  1  0  0  0  0
 27 58  1  0  0  0  0
 27 59  1  0  0  0  0
 28 29  1  0  0  0  0
 28 60  1  0  0  0  0
 28 61  1  0  0  0  0
 29 30  1  0  0  0  0
 30 62  1  0  0  0  0
 30 63  1  0  0  0  0
M  END
> <s_m_source_file>
AV-unprocessed.smi

> <i_m_source_file_index>
148

> <i_lp_mmshare_version>
43012

> <i_f3d_flags>
0

> <s_epik_input>
W0NIMl0xT1tDSDJdW0NIMl1bQ0BIXTFbQ0BIXShbQ0gyXVtPSF0pW0NIMl1uKFtjSF1uMiljKGMyMyluW2NIXW5jM040W0NIMl1bQ0gyXVtDSDJdW0NIMl1bQ0BIXTRbQ0BASF01W0NIMl1bQ0gyXVtDSDJdW0NASF01W09IXQ==

> <s_epik_cmdline>
J2VwaWtfcHl0aG9uJywgJy1waCcsICc3LjAnLCAnLXRuJywgJzgnLCAnLW1hJywgJzIwMCcsICctbWV0YWxfYmluZGluZycsICctaW1hZScsICc8aW5maWxlLm1hZT4nLCAnLW9tYWUnLCAnPG91dGZpbGUubWFlPic=

> <r_lp_tautomer_probability>
1

> <r_epik_Ionization_Penalty>
0.00556303

> <r_epik_Ionization_Penalty_Charging>
0

> <r_epik_Ionization_Penalty_Neutral>
0.00556303

> <r_epik_State_Penalty>
0.00401767

> <r_epik_Charging_Adjusted_Penalty>
0.00401767

> <i_epik_Tot_Q>
0

> <i_epik_Tot_abs_Q>
0

> <r_epik_Metal_State_Penalty>
-0

> <b_epik_Metal_Only>
0

> <s_lp_Force_Field>
OPLS_2005

> <r_lp_Energy>
68.4806

> <b_lp_Chiralities_Consistent>
1

> <s_lp_Variant>
AV-unprocessed.smi:148-20

> <Gold.Version>
5.8.1

> <Gold.Id.Protein>
6NUR|6NUR_protein|mol2

> <Gold.PLP.Fitness>
49.1328

> <Gold.PLP.PLP>
-41.2191

> <Gold.PLP.part.hbond>
-3.0000

> <Gold.PLP.part.metal>
0.0000

> <Gold.PLP.part.buried>
-6.4829

> <Gold.PLP.part.nonpolar>
-31.8947

> <Gold.PLP.part.repulsive>
0.3780

> <Gold.PLP.ligand.clash>
0.0000

> <Gold.PLP.ligand.torsion>
1.7048

> <Gold.PLP.Chemscore.Hbond>
2.6392

> <Gold.PLP.Chemscore.CHOScore>
1.0000

> <Gold.PLP.Chemscore.Metal>
0.0000

> <Gold.Chemscore.Hbonds>
donor molecule, donor type, donor heavy atom, donor atom, acceptor molecule, acceptor atom, score
      L1  H    21    55       P1 10747  1.00
      P1  H  6931  6943       L1    29  1.00
      P1  H  6934  6947       L1    29  0.56
      L1  C    23    56       P1  7948  1.00

> <Gold.PLP.Chemscore.Internal.Correction>
0.4057

> <Gold.Rescore>
     Score         DG    S(hbond)    S(metal)    S(lipo)     H(rot)  DE(clash)    DE(int)     intcor
     13.22     -16.46       1.99        0.00     109.71       3.32       0.05       3.19       ----

> <Gold.Chemscore.Fitness>
13.2231

> <Gold.Chemscore.DG>
-16.4612

> <Gold.Chemscore.ZeroCoef>
-5.4800

> <Gold.Chemscore.Hbond>
1.9894

> <Gold.Chemscore.Metal>
0.0000

> <Gold.Chemscore.Lipo>
109.7149

> <Gold.Chemscore.Internal_Hbond>
0.0000

> <Gold.Chemscore.DEClash>
0.0502

> <Gold.Chemscore.DEInternal>
3.1879

> <Gold.Chemscore.Rot>
3.3203

> <Gold.Chemscore.Internal.Correction>
   9.000000E+99

> <Gold.Chemscore.Hbonds>
donor molecule, donor type, donor heavy atom, donor atom, acceptor molecule, acceptor atom, score
      L1  H    21    55       P1 10747  1.00
      P1  H  6931  6943       L1    29  0.75
      P1  H  6934  6947       L1    29  0.08

> <Gold.Chemscore.Hbond.Weighted>
-6.6446

> <Gold.Chemscore.Metal.Weighted>
-0.0000

> <Gold.Chemscore.Lipo.Weighted>
-12.8366

> <Gold.Chemscore.Internal_Hbond.Weighted>
0.0000

> <Gold.Chemscore.DEClash.Weighted>
0.0502

> <Gold.Chemscore.DEInternal.Weighted>
3.1879

> <Gold.Chemscore.Rot.Weighted>
8.5000

> <Gold.Chemscore.Internal.Correction.Weighted>
   9.000000E+99

> <Gold.Protein.RotatedTorsions>
[ 6907 6896 6895 6894 ] final  110.07 input  -60.11 | X-H torsion
[ 7974 7965 7964 7962 ] final  -99.94 input  175.53 | X-H torsion
[ 8008 7997 7996 7995 ] final   50.70 input   59.86 | X-H torsion
[ 10167 10162 10161 10158 ] final  -80.23 input  -65.29 | X-H torsion
[ 10718 10713 10712 10709 ] final -123.96 input   66.30 | X-H torsion
[ 10763 10752 10751 10750 ] final  142.53 input  -60.55 | X-H torsion
[ 11005 11000 10999 10996 ] final  -79.42 input  -57.11 | X-H torsion

> <Gold.Protein.ActiveResidues>
 VAL166  LYS551  ARG553  GLY616  TRP617  ASP618  TYR619  PRO620  LYS621  CYS622 
 ASP623  PHE694  ASN695  SER759  ASP760  ASP761  ALA762  ILE779  LEU786  VAL792 
 PHE793  MET794  SER795  GLU796  ALA797  LYS798  CYS799  TRP800  GLU811  SER814 

> <Gold.Protein.RotatedAtoms>
  152.5037  133.8853  159.7366 H   0  0  0  0  0  0  0  0  0  0  0  0  # atno 6907 bound_to 6896
  150.9305  133.6764  159.2818 H   0  0  0  0  0  0  0  0  0  0  0  0  # atno 6908 bound_to 6896
  151.4110  135.0989  159.9637 H   0  0  0  0  0  0  0  0  0  0  0  0  # atno 6909 bound_to 6896
  145.3011  140.9377  143.2823 H   0  0  0  0  0  0  0  0  0  0  0  0  # atno 7974 bound_to 7965
  155.4231  140.3447  155.4273 H   0  0  0  0  0  0  0  0  0  0  0  0  # atno 8008 bound_to 7997
  156.1381  140.1534  156.8994 H   0  0  0  0  0  0  0  0  0  0  0  0  # atno 8009 bound_to 7997
  154.4948  140.0831  156.7654 H   0  0  0  0  0  0  0  0  0  0  0  0  # atno 8010 bound_to 7997
  140.4521  143.2479  151.8473 H   0  0  0  0  0  0  0  0  0  0  0  0  # atno 10167 bound_to 10162
  156.1547  130.6559  150.9964 H   0  0  0  0  0  0  0  0  0  0  0  0  # atno 10718 bound_to 10713
  153.9574  135.2963  155.3435 H   0  0  0  0  0  0  0  0  0  0  0  0  # atno 10763 bound_to 10752
  154.7393  135.5032  153.9099 H   0  0  0  0  0  0  0  0  0  0  0  0  # atno 10764 bound_to 10752
  153.0963  135.6722  153.9866 H   0  0  0  0  0  0  0  0  0  0  0  0  # atno 10765 bound_to 10752
  141.1667  133.7105  156.8119 H   0  0  0  0  0  0  0  0  0  0  0  0  # atno 11005 bound_to 11000
  144.9093  139.4549  143.6595 LP  0  0  0  0  0  0  0  0  0  0  0  0  # atno 17320 bound_to 7965
  146.3152  139.7892  142.8989 LP  0  0  0  0  0  0  0  0  0  0  0  0  # atno 17321 bound_to 7965
  139.4797  144.5107  151.8936 LP  0  0  0  0  0  0  0  0  0  0  0  0  # atno 17342 bound_to 10162
  140.4194  144.2263  150.5887 LP  0  0  0  0  0  0  0  0  0  0  0  0  # atno 17343 bound_to 10162
  157.6685  131.0866  150.7670 LP  0  0  0  0  0  0  0  0  0  0  0  0  # atno 17370 bound_to 10713
  156.7736  130.4836  149.5414 LP  0  0  0  0  0  0  0  0  0  0  0  0  # atno 17371 bound_to 10713
  140.2181  134.8777  157.3348 LP  0  0  0  0  0  0  0  0  0  0  0  0  # atno 17394 bound_to 11000
  140.2016  134.4247  155.7659 LP  0  0  0  0  0  0  0  0  0  0  0  0  # atno 17395 bound_to 11000

$$$$
