AV-unprocessed.smi:235|AV-procd|sdf|1807|dock3
  -GOLD-   2262020383D 1   1.00000     0.00000
 Structure written by MMmdl.
 54 58  0  0  0  0  0  0  0  0  1 V2000
  145.8248  133.0048  160.5263 O   0  0  0  0  0  0  0  0  0  0  0  0
  147.0296  132.7659  160.6209 C   0  0  0  0  0  0  0  0  0  0  0  0
  147.8298  133.3479  161.5260 N   0  0  0  0  0  0  0  0  0  0  0  0
  147.4209  134.3038  162.5031 C   0  0  0  0  0  0  0  0  0  0  0  0
  146.2482  135.1981  162.1617 C   0  0  0  0  0  0  0  0  0  0  0  0
  147.6401  135.7675  162.1869 C   0  0  0  0  0  0  0  0  0  0  0  0
  147.7046  131.7687  159.6685 C   0  0  2  0  0  0  0  0  0  0  0  0
  148.5144  130.7062  160.4224 C   0  0  0  0  0  0  0  0  0  0  0  0
  149.5272  130.2485  159.3801 C   0  0  0  0  0  0  0  0  0  0  0  0
  149.8422  131.5345  158.6157 C   0  0  0  0  0  0  0  0  0  0  0  0
  148.6915  132.4147  158.8005 N   0  0  0  0  0  0  0  0  0  0  0  0
  148.1957  132.9779  157.6768 C   0  0  0  0  0  0  0  0  0  0  0  0
  147.2141  133.9003  157.8255 N   0  0  0  0  0  0  0  0  0  0  0  0
  146.6771  134.4823  156.7485 C   0  0  0  0  0  0  0  0  0  0  0  0
  146.9695  134.2879  155.4601 N   0  0  0  0  0  0  0  0  0  0  0  0
  147.9576  133.3595  155.3112 C   0  0  0  0  0  0  0  0  0  0  0  0
  148.6227  132.6611  156.3568 C   0  0  0  0  0  0  0  0  0  0  0  0
  149.5696  131.7945  155.8237 N   0  0  0  0  0  0  0  0  0  0  0  0
  149.4706  131.9721  154.5341 C   0  0  0  0  0  0  0  0  0  0  0  0
  148.5271  132.8939  154.1403 N   0  0  0  0  0  0  0  0  0  0  0  0
  148.2066  133.2881  152.7805 C   0  0  0  0  0  0  0  0  0  0  0  0
  146.6901  133.4501  152.5615 C   0  0  1  0  0  0  0  0  0  0  0  0
  146.3849  134.7661  152.1390 O   0  0  0  0  0  0  0  0  0  0  0  0
  146.1161  132.4211  151.5672 C   0  0  1  0  0  0  0  0  0  0  0  0
  144.5817  132.3253  151.5017 C   0  0  0  0  0  0  0  0  0  0  0  0
  144.2701  132.4831  150.0225 C   0  0  0  0  0  0  0  0  0  0  0  0
  145.5948  132.1423  149.3511 C   0  0  0  0  0  0  0  0  0  0  0  0
  146.5515  132.6946  150.2395 O   0  0  0  0  0  0  0  0  0  0  0  0
  148.8063  133.0913  161.5241 H   0  0  0  0  0  0  0  0  0  0  0  0
  147.5170  134.0216  163.5506 H   0  0  0  0  0  0  0  0  0  0  0  0
  145.7758  135.0711  161.1894 H   0  0  0  0  0  0  0  0  0  0  0  0
  145.5771  135.4769  162.9719 H   0  0  0  0  0  0  0  0  0  0  0  0
  147.8990  136.4252  163.0141 H   0  0  0  0  0  0  0  0  0  0  0  0
  148.0983  136.0188  161.2320 H   0  0  0  0  0  0  0  0  0  0  0  0
  146.9437  131.2701  159.0646 H   0  0  0  0  0  0  0  0  0  0  0  0
  149.0372  131.1411  161.2765 H   0  0  0  0  0  0  0  0  0  0  0  0
  147.8948  129.8868  160.7883 H   0  0  0  0  0  0  0  0  0  0  0  0
  150.4122  129.7854  159.8174 H   0  0  0  0  0  0  0  0  0  0  0  0
  149.0617  129.5247  158.7096 H   0  0  0  0  0  0  0  0  0  0  0  0
  150.7114  132.0276  159.0520 H   0  0  0  0  0  0  0  0  0  0  0  0
  150.0778  131.3291  157.5700 H   0  0  0  0  0  0  0  0  0  0  0  0
  145.9013  135.2067  156.9482 H   0  0  0  0  0  0  0  0  0  0  0  0
  150.0891  131.4341  153.8303 H   0  0  0  0  0  0  0  0  0  0  0  0
  148.7306  134.2179  152.5553 H   0  0  0  0  0  0  0  0  0  0  0  0
  148.6067  132.5323  152.1037 H   0  0  0  0  0  0  0  0  0  0  0  0
  146.1858  133.3063  153.5180 H   0  0  0  0  0  0  0  0  0  0  0  0
  147.1968  135.2289  151.9983 H   0  0  0  0  0  0  0  0  0  0  0  0
  146.5056  131.4349  151.8259 H   0  0  0  0  0  0  0  0  0  0  0  0
  144.2531  131.3500  151.8631 H   0  0  0  0  0  0  0  0  0  0  0  0
  144.0709  133.0824  152.0974 H   0  0  0  0  0  0  0  0  0  0  0  0
  143.4485  131.8492  149.6881 H   0  0  0  0  0  0  0  0  0  0  0  0
  144.0072  133.5200  149.8099 H   0  0  0  0  0  0  0  0  0  0  0  0
  145.7343  131.0621  149.2859 H   0  0  0  0  0  0  0  0  0  0  0  0
  145.6825  132.5648  148.3499 H   0  0  0  0  0  0  0  0  0  0  0  0
  1  2  2  0  0  0  0
  2  3  1  0  0  0  0
  2  7  1  0  0  0  0
  3  4  1  0  0  0  0
  3 29  1  0  0  0  0
  4  6  1  0  0  0  0
  4  5  1  0  0  0  0
  4 30  1  0  0  0  0
  5  6  1  0  0  0  0
  5 31  1  0  0  0  0
  5 32  1  0  0  0  0
  6 33  1  0  0  0  0
  6 34  1  0  0  0  0
  7 11  1  0  0  0  0
  7  8  1  0  0  0  0
  7 35  1  0  0  0  0
  8  9  1  0  0  0  0
  8 36  1  0  0  0  0
  8 37  1  0  0  0  0
  9 10  1  0  0  0  0
  9 38  1  0  0  0  0
  9 39  1  0  0  0  0
 10 11  1  0  0  0  0
 10 40  1  0  0  0  0
 10 41  1  0  0  0  0
 11 12  1  0  0  0  0
 12 17  1  0  0  0  0
 12 13  2  0  0  0  0
 13 14  1  0  0  0  0
 14 15  2  0  0  0  0
 14 42  1  0  0  0  0
 15 16  1  0  0  0  0
 16 20  1  0  0  0  0
 16 17  2  0  0  0  0
 17 18  1  0  0  0  0
 18 19  2  0  0  0  0
 19 20  1  0  0  0  0
 19 43  1  0  0  0  0
 20 21  1  0  0  0  0
 21 22  1  0  0  0  0
 21 44  1  0  0  0  0
 21 45  1  0  0  0  0
 22 23  1  0  0  0  0
 22 24  1  0  0  0  0
 22 46  1  0  0  0  0
 23 47  1  0  0  0  0
 24 28  1  0  0  0  0
 24 25  1  0  0  0  0
 24 48  1  0  0  0  0
 25 26  1  0  0  0  0
 25 49  1  0  0  0  0
 25 50  1  0  0  0  0
 26 27  1  0  0  0  0
 26 51  1  0  0  0  0
 26 52  1  0  0  0  0
 27 28  1  0  0  0  0
 27 53  1  0  0  0  0
 27 54  1  0  0  0  0
M  END
> <s_m_source_file>
AV-unprocessed.smi

> <i_m_source_file_index>
235

> <i_lp_mmshare_version>
43012

> <i_f3d_flags>
0

> <s_epik_input>
W0NIMl0xW0NIMl1bQ0hdMVtOSF1DKD1PKVtDQEBIXTJbQ0gyXVtDSDJdW0NIMl1OMmMobltjSF1uMyljKGMzNCluW2NIXW40W0NIMl1bQ0BIXShbT0hdKVtDQEBIXTVbQ0gyXVtDSDJdW0NIMl1PNQ==

> <s_epik_cmdline>
J2VwaWtfcHl0aG9uJywgJy1waCcsICc3LjAnLCAnLXRuJywgJzgnLCAnLW1hJywgJzIwMCcsICctbWV0YWxfYmluZGluZycsICctaW1hZScsICc8aW5maWxlLm1hZT4nLCAnLW9tYWUnLCAnPG91dGZpbGUubWFlPic=

> <r_lp_tautomer_probability>
1

> <r_epik_Ionization_Penalty>
0.000526714

> <r_epik_Ionization_Penalty_Charging>
0

> <r_epik_Ionization_Penalty_Neutral>
0.000526714

> <r_epik_State_Penalty>
0.000272704

> <r_epik_Charging_Adjusted_Penalty>
0.000272704

> <i_epik_Tot_Q>
0

> <i_epik_Tot_abs_Q>
0

> <r_epik_Metal_State_Penalty>
-0

> <b_epik_Metal_Only>
0

> <s_lp_Force_Field>
OPLS_2005

> <r_lp_Energy>
60.9584

> <b_lp_Chiralities_Consistent>
1

> <s_lp_Variant>
AV-unprocessed.smi:235-7

> <Gold.Version>
5.8.1

> <Gold.Id.Protein>
6NUR|6NUR_protein|mol2

> <Gold.PLP.Fitness>
38.9287

> <Gold.PLP.PLP>
-38.8474

> <Gold.PLP.part.hbond>
-1.0000

> <Gold.PLP.part.metal>
0.0000

> <Gold.PLP.part.buried>
-5.5691

> <Gold.PLP.part.nonpolar>
-32.7992

> <Gold.PLP.part.repulsive>
1.0260

> <Gold.PLP.ligand.clash>
0.0000

> <Gold.PLP.ligand.torsion>
1.5830

> <Gold.PLP.Chemscore.Hbond>
1.0000

> <Gold.PLP.Chemscore.CHOScore>
0.0000

> <Gold.PLP.Chemscore.Metal>
0.0000

> <Gold.Chemscore.Hbonds>
donor molecule, donor type, donor heavy atom, donor atom, acceptor molecule, acceptor atom, score
      L1  H    23    47       P1  7948  1.00

> <Gold.PLP.Chemscore.Internal.Correction>
0.2474

> <Gold.Rescore>
     Score         DG    S(hbond)    S(metal)    S(lipo)     H(rot)  DE(clash)    DE(int)     intcor
      4.57     -11.00       0.98        0.00      84.94       3.00       0.00       6.43       ----

> <Gold.Chemscore.Fitness>
4.5712

> <Gold.Chemscore.DG>
-11.0034

> <Gold.Chemscore.ZeroCoef>
-5.4800

> <Gold.Chemscore.Hbond>
0.9769

> <Gold.Chemscore.Metal>
0.0000

> <Gold.Chemscore.Lipo>
84.9374

> <Gold.Chemscore.Internal_Hbond>
0.0000

> <Gold.Chemscore.DEClash>
0.0009

> <Gold.Chemscore.DEInternal>
6.4313

> <Gold.Chemscore.Rot>
2.9989

> <Gold.Chemscore.Internal.Correction>
   9.000000E+99

> <Gold.Chemscore.Hbonds>
donor molecule, donor type, donor heavy atom, donor atom, acceptor molecule, acceptor atom, score
      L1  H    23    47       P1  7948  0.96

> <Gold.Chemscore.Hbond.Weighted>
-3.2629

> <Gold.Chemscore.Metal.Weighted>
-0.0000

> <Gold.Chemscore.Lipo.Weighted>
-9.9377

> <Gold.Chemscore.Internal_Hbond.Weighted>
0.0000

> <Gold.Chemscore.DEClash.Weighted>
0.0009

> <Gold.Chemscore.DEInternal.Weighted>
6.4313

> <Gold.Chemscore.Rot.Weighted>
7.6772

> <Gold.Chemscore.Internal.Correction.Weighted>
   9.000000E+99

> <Gold.Protein.RotatedTorsions>
[ 6907 6896 6895 6894 ] final  170.00 input  -60.11 | X-H torsion
[ 7974 7965 7964 7962 ] final  -79.22 input  175.53 | X-H torsion
[ 8008 7997 7996 7995 ] final -112.45 input   59.86 | X-H torsion
[ 10167 10162 10161 10158 ] final  161.97 input  -65.29 | X-H torsion
[ 10718 10713 10712 10709 ] final  167.04 input   66.30 | X-H torsion
[ 10763 10752 10751 10750 ] final -138.20 input  -60.55 | X-H torsion
[ 11005 11000 10999 10996 ] final  158.29 input  -57.11 | X-H torsion

> <Gold.Protein.ActiveResidues>
 VAL166  LYS551  ARG553  GLY616  TRP617  ASP618  TYR619  PRO620  LYS621  CYS622 
 ASP623  PHE694  ASN695  SER759  ASP760  ASP761  ALA762  ILE779  LEU786  VAL792 
 PHE793  MET794  SER795  GLU796  ALA797  LYS798  CYS799  TRP800  GLU811  SER814 

> <Gold.Protein.RotatedAtoms>
  151.8230  133.3397  159.3589 H   0  0  0  0  0  0  0  0  0  0  0  0  # atno 6907 bound_to 6896
  150.7288  134.5556  159.5826 H   0  0  0  0  0  0  0  0  0  0  0  0  # atno 6908 bound_to 6896
  152.2992  134.7632  160.0412 H   0  0  0  0  0  0  0  0  0  0  0  0  # atno 6909 bound_to 6896
  145.5761  140.9457  143.1369 H   0  0  0  0  0  0  0  0  0  0  0  0  # atno 7974 bound_to 7965
  155.0054  140.0394  157.2377 H   0  0  0  0  0  0  0  0  0  0  0  0  # atno 8008 bound_to 7997
  154.7507  140.2766  155.6272 H   0  0  0  0  0  0  0  0  0  0  0  0  # atno 8009 bound_to 7997
  156.2884  140.2647  156.2259 H   0  0  0  0  0  0  0  0  0  0  0  0  # atno 8010 bound_to 7997
  139.4855  144.4484  151.8862 H   0  0  0  0  0  0  0  0  0  0  0  0  # atno 10167 bound_to 10162
  157.0573  131.0330  151.2659 H   0  0  0  0  0  0  0  0  0  0  0  0  # atno 10718 bound_to 10713
  154.8643  135.3619  154.5346 H   0  0  0  0  0  0  0  0  0  0  0  0  # atno 10763 bound_to 10752
  153.5970  135.7014  153.5404 H   0  0  0  0  0  0  0  0  0  0  0  0  # atno 10764 bound_to 10752
  153.3323  135.4121  155.1467 H   0  0  0  0  0  0  0  0  0  0  0  0  # atno 10765 bound_to 10752
  140.1851  134.8448  157.2847 H   0  0  0  0  0  0  0  0  0  0  0  0  # atno 11005 bound_to 11000
  144.7415  139.7436  143.7309 LP  0  0  0  0  0  0  0  0  0  0  0  0  # atno 17320 bound_to 7965
  146.1749  139.4916  142.9903 LP  0  0  0  0  0  0  0  0  0  0  0  0  # atno 17321 bound_to 7965
  140.3939  144.2580  150.5897 LP  0  0  0  0  0  0  0  0  0  0  0  0  # atno 17342 bound_to 10162
  140.5120  143.2288  151.8521 LP  0  0  0  0  0  0  0  0  0  0  0  0  # atno 17343 bound_to 10162
  157.4983  130.7864  149.7578 LP  0  0  0  0  0  0  0  0  0  0  0  0  # atno 17370 bound_to 10713
  155.9989  130.3891  150.2684 LP  0  0  0  0  0  0  0  0  0  0  0  0  # atno 17371 bound_to 10713
  140.2223  134.4008  155.7560 LP  0  0  0  0  0  0  0  0  0  0  0  0  # atno 17394 bound_to 11000
  141.2224  133.7172  156.8510 LP  0  0  0  0  0  0  0  0  0  0  0  0  # atno 17395 bound_to 11000

$$$$
