AV-unprocessed.smi:1978|AV-procd|sdf|8013|dock1
  -GOLD-   2272010203D 1   1.00000     0.00000
 Structure written by MMmdl.
 44 45  0  0  0  0  0  0  0  0  3 V2000
  139.2428  147.2674  154.5088 C   0  0  0  0  0  0  0  0  0  0  0  0
  139.9911  145.9956  154.3012 C   0  0  0  0  0  0  0  0  0  0  0  0
  141.2516  145.5917  154.6402 C   0  0  0  0  0  0  0  0  0  0  0  0
  141.3069  144.2617  154.1446 C   0  0  0  0  0  0  0  0  0  0  0  0
  142.4799  143.4779  154.3052 N   0  0  0  0  0  0  0  0  0  0  0  0
  143.5449  143.7085  155.0941 C   0  0  0  0  0  0  0  0  0  0  0  0
  143.5909  144.7218  155.8018 O   0  0  0  0  0  0  0  0  0  0  0  0
  144.4817  142.7249  154.9970 N   0  5  0  0  0  0  0  0  0  0  0  0
  145.9236  142.9254  155.1511 C   0  0  0  0  0  0  0  0  0  0  0  0
  146.5117  141.9755  156.2491 C   0  0  1  0  0  0  0  0  0  0  0  0
  146.0667  140.5021  156.0775 C   0  0  0  0  0  0  0  0  0  0  0  0
  148.0068  142.0563  156.4440 N   0  3  1  0  0  0  0  0  0  0  0  0
  148.4662  142.1164  157.8683 C   0  0  0  0  0  0  0  0  0  0  0  0
  149.9301  142.5658  157.9675 C   0  0  0  0  0  0  0  0  0  0  0  0
  150.8336  141.6242  157.1695 C   0  0  0  0  0  0  0  0  0  0  0  0
  150.3489  141.5551  155.7181 C   0  0  0  0  0  0  0  0  0  0  0  0
  148.8656  141.1358  155.6172 C   0  0  2  0  0  0  0  0  0  0  0  0
  148.4717  141.0841  154.1262 C   0  0  0  0  0  0  0  0  0  0  0  0
  140.1825  143.8909  153.5502 N   0  0  0  0  0  0  0  0  0  0  0  0
  139.3338  144.9997  153.6478 O   0  0  0  0  0  0  0  0  0  0  0  0
  139.8057  147.9520  155.1435 H   0  0  0  0  0  0  0  0  0  0  0  0
  138.2819  147.0762  154.9867 H   0  0  0  0  0  0  0  0  0  0  0  0
  139.0553  147.7643  153.5570 H   0  0  0  0  0  0  0  0  0  0  0  0
  142.0098  146.1560  155.1624 H   0  0  0  0  0  0  0  0  0  0  0  0
  142.5205  142.6361  153.7501 H   0  0  0  0  0  0  0  0  0  0  0  0
  146.4499  142.7487  154.2129 H   0  0  0  0  0  0  0  0  0  0  0  0
  146.1530  143.9587  155.4129 H   0  0  0  0  0  0  0  0  0  0  0  0
  146.0667  142.2628  157.1996 H   0  0  0  0  0  0  0  0  0  0  0  0
  144.9874  140.3887  156.1968 H   0  0  0  0  0  0  0  0  0  0  0  0
  146.5289  139.8698  156.8361 H   0  0  0  0  0  0  0  0  0  0  0  0
  146.3247  140.0845  155.1034 H   0  0  0  0  0  0  0  0  0  0  0  0
  147.8596  142.8119  158.4456 H   0  0  0  0  0  0  0  0  0  0  0  0
  148.3583  141.1393  158.3413 H   0  0  0  0  0  0  0  0  0  0  0  0
  150.0309  143.5854  157.5924 H   0  0  0  0  0  0  0  0  0  0  0  0
  150.2443  142.5859  159.0115 H   0  0  0  0  0  0  0  0  0  0  0  0
  151.8668  141.9709  157.2063 H   0  0  0  0  0  0  0  0  0  0  0  0
  150.8196  140.6281  157.6141 H   0  0  0  0  0  0  0  0  0  0  0  0
  150.4878  142.5284  155.2449 H   0  0  0  0  0  0  0  0  0  0  0  0
  150.9747  140.8534  155.1651 H   0  0  0  0  0  0  0  0  0  0  0  0
  148.7787  140.1263  156.0219 H   0  0  0  0  0  0  0  0  0  0  0  0
  149.2040  140.5188  153.5495 H   0  0  0  0  0  0  0  0  0  0  0  0
  148.4134  142.0831  153.6930 H   0  0  0  0  0  0  0  0  0  0  0  0
  147.5152  140.5867  153.9698 H   0  0  0  0  0  0  0  0  0  0  0  0
  148.2258  142.9710  156.0772 H   0  0  0  0  0  0  0  0  0  0  0  0
  1  2  1  0  0  0  0
  1 21  1  0  0  0  0
  1 22  1  0  0  0  0
  1 23  1  0  0  0  0
  2 20  1  0  0  0  0
  2  3  2  0  0  0  0
  3  4  1  0  0  0  0
  3 24  1  0  0  0  0
  4  5  1  0  0  0  0
  4 19  2  0  0  0  0
  5  6  1  0  0  0  0
  5 25  1  0  0  0  0
  6  7  2  0  0  0  0
  6  8  1  0  0  0  0
  8  9  1  0  0  0  0
  9 10  1  0  0  0  0
  9 26  1  0  0  0  0
  9 27  1  0  0  0  0
 10 11  1  0  0  0  0
 10 12  1  0  0  0  0
 10 28  1  0  0  0  0
 11 29  1  0  0  0  0
 11 30  1  0  0  0  0
 11 31  1  0  0  0  0
 12 17  1  0  0  0  0
 12 13  1  0  0  0  0
 12 44  1  0  0  0  0
 13 14  1  0  0  0  0
 13 32  1  0  0  0  0
 13 33  1  0  0  0  0
 14 15  1  0  0  0  0
 14 34  1  0  0  0  0
 14 35  1  0  0  0  0
 15 16  1  0  0  0  0
 15 36  1  0  0  0  0
 15 37  1  0  0  0  0
 16 17  1  0  0  0  0
 16 38  1  0  0  0  0
 16 39  1  0  0  0  0
 17 18  1  0  0  0  0
 17 40  1  0  0  0  0
 18 41  1  0  0  0  0
 18 42  1  0  0  0  0
 18 43  1  0  0  0  0
 19 20  1  0  0  0  0
M  CHG  1   8  -1
M  CHG  1  12   1
M  END
> <s_m_source_file>
AV-unprocessed.smi

> <i_m_source_file_index>
1978

> <i_lp_mmshare_version>
43012

> <i_f3d_flags>
0

> <s_epik_input>
W0NIM11jMVtjSF1jKG5vMSlbTkhdQyg9TylbTkhdW0NIMl1bQ0BIXShbQ0gzXSlOMltDSDJdW0NIMl1bQ0gyXVtDSDJdW0NASF0yW0NIM10=

> <s_epik_cmdline>
J2VwaWtfcHl0aG9uJywgJy1waCcsICc3LjAnLCAnLXRuJywgJzgnLCAnLW1hJywgJzIwMCcsICctbWV0YWxfYmluZGluZycsICctaW1hZScsICc8aW5maWxlLm1hZT4nLCAnLW9tYWUnLCAnPG91dGZpbGUubWFlPic=

> <r_epik_Ionization_Penalty>
6.7666

> <r_epik_Ionization_Penalty_Charging>
6.7666

> <r_epik_Ionization_Penalty_Neutral>
5.77131e-06

> <r_epik_State_Penalty>
6.79217

> <r_epik_Charging_Adjusted_Penalty>
13.5588

> <i_epik_Tot_Q>
0

> <i_epik_Tot_abs_Q>
2

> <r_epik_Metal_State_Penalty>
2.72569

> <b_epik_Metal_Only>
1

> <s_lp_Force_Field>
OPLS_2005

> <r_lp_Energy>
22.3243

> <b_lp_Chiralities_Consistent>
1

> <s_lp_Variant>
AV-unprocessed.smi:1978-22

> <Gold.Version>
5.8.1

> <Gold.Id.Protein>
6NUR|6NUR_protein|mol2

> <Gold.PLP.Fitness>
39.1519

> <Gold.PLP.PLP>
-29.4848

> <Gold.PLP.part.hbond>
-3.6663

> <Gold.PLP.part.metal>
0.0000

> <Gold.PLP.part.buried>
-5.2122

> <Gold.PLP.part.nonpolar>
-20.7523

> <Gold.PLP.part.repulsive>
0.3660

> <Gold.PLP.ligand.clash>
0.0000

> <Gold.PLP.ligand.torsion>
1.1397

> <Gold.PLP.Chemscore.Hbond>
3.8800

> <Gold.PLP.Chemscore.CHOScore>
0.0000

> <Gold.PLP.Chemscore.Metal>
0.0000

> <Gold.Chemscore.Hbonds>
donor molecule, donor type, donor heavy atom, donor atom, acceptor molecule, acceptor atom, score
      L1  H     5    25       P1 10174  0.59
      L1  H    12    44       P1  8028  2.00
      P1  H 10162 10167       L1    19  0.33

> <Gold.PLP.Chemscore.Internal.Correction>
0.3066

> <Gold.Rescore>
     Score         DG    S(hbond)    S(metal)    S(lipo)     H(rot)  DE(clash)    DE(int)     intcor
     15.23     -17.98       2.71        0.00      62.66       1.52       0.07       2.69       ----

> <Gold.Chemscore.Fitness>
15.2271

> <Gold.Chemscore.DG>
-17.9830

> <Gold.Chemscore.ZeroCoef>
-5.4800

> <Gold.Chemscore.Hbond>
2.7127

> <Gold.Chemscore.Metal>
0.0000

> <Gold.Chemscore.Lipo>
62.6606

> <Gold.Chemscore.Internal_Hbond>
0.0000

> <Gold.Chemscore.DEClash>
0.0686

> <Gold.Chemscore.DEInternal>
2.6873

> <Gold.Chemscore.Rot>
1.5190

> <Gold.Chemscore.Internal.Correction>
   9.000000E+99

> <Gold.Chemscore.Hbonds>
donor molecule, donor type, donor heavy atom, donor atom, acceptor molecule, acceptor atom, score
      L1  H     5    25       P1 10174  0.51
      L1  H    12    44       P1  8028  0.82
      P1  H 10162 10167       L1    19  0.06

> <Gold.Chemscore.Hbond.Weighted>
-9.0603

> <Gold.Chemscore.Metal.Weighted>
-0.0000

> <Gold.Chemscore.Lipo.Weighted>
-7.3313

> <Gold.Chemscore.Internal_Hbond.Weighted>
0.0000

> <Gold.Chemscore.DEClash.Weighted>
0.0686

> <Gold.Chemscore.DEInternal.Weighted>
2.6873

> <Gold.Chemscore.Rot.Weighted>
3.8886

> <Gold.Chemscore.Internal.Correction.Weighted>
   9.000000E+99

> <Gold.Protein.RotatedTorsions>
[ 6907 6896 6895 6894 ] final   72.60 input  -60.11 | X-H torsion
[ 7974 7965 7964 7962 ] final  -23.65 input  175.53 | X-H torsion
[ 8008 7997 7996 7995 ] final   -4.11 input   59.86 | X-H torsion
[ 10167 10162 10161 10158 ] final -128.47 input  -65.29 | X-H torsion
[ 10718 10713 10712 10709 ] final -146.97 input   66.30 | X-H torsion
[ 10763 10752 10751 10750 ] final   81.98 input  -60.55 | X-H torsion
[ 11005 11000 10999 10996 ] final   30.86 input  -57.11 | X-H torsion

> <Gold.Protein.ActiveResidues>
 VAL166  LYS551  ARG553  GLY616  TRP617  ASP618  TYR619  PRO620  LYS621  CYS622 
 ASP623  PHE694  ASN695  SER759  ASP760  ASP761  ALA762  ILE779  LEU786  VAL792 
 PHE793  MET794  SER795  GLU796  ALA797  LYS798  CYS799  TRP800  GLU811  SER814 

> <Gold.Protein.RotatedAtoms>
  152.4877  134.4547  159.9585 H   0  0  0  0  0  0  0  0  0  0  0  0  # atno 6907 bound_to 6896
  151.4540  133.3604  159.2807 H   0  0  0  0  0  0  0  0  0  0  0  0  # atno 6908 bound_to 6896
  150.9002  134.8438  159.7415 H   0  0  0  0  0  0  0  0  0  0  0  0  # atno 6909 bound_to 6896
  146.1603  140.4644  142.8574 H   0  0  0  0  0  0  0  0  0  0  0  0  # atno 7974 bound_to 7965
  154.6178  140.2492  155.7587 H   0  0  0  0  0  0  0  0  0  0  0  0  # atno 8008 bound_to 7997
  156.2409  140.2933  156.0390 H   0  0  0  0  0  0  0  0  0  0  0  0  # atno 8009 bound_to 7997
  155.1946  140.0392  157.2897 H   0  0  0  0  0  0  0  0  0  0  0  0  # atno 8010 bound_to 7997
  139.9500  143.6067  152.2478 H   0  0  0  0  0  0  0  0  0  0  0  0  # atno 10167 bound_to 10162
  156.4016  130.7936  151.2147 H   0  0  0  0  0  0  0  0  0  0  0  0  # atno 10718 bound_to 10713
  153.1163  135.4745  154.9120 H   0  0  0  0  0  0  0  0  0  0  0  0  # atno 10763 bound_to 10752
  154.7531  135.3111  154.8522 H   0  0  0  0  0  0  0  0  0  0  0  0  # atno 10764 bound_to 10752
  153.9098  135.6866  153.4805 H   0  0  0  0  0  0  0  0  0  0  0  0  # atno 10765 bound_to 10752
  140.2899  134.2876  155.7778 H   0  0  0  0  0  0  0  0  0  0  0  0  # atno 11005 bound_to 11000
  144.8018  140.6227  143.6473 LP  0  0  0  0  0  0  0  0  0  0  0  0  # atno 17320 bound_to 7965
  145.4604  139.1513  143.3869 LP  0  0  0  0  0  0  0  0  0  0  0  0  # atno 17321 bound_to 7965
  139.6636  144.7662  151.1915 LP  0  0  0  0  0  0  0  0  0  0  0  0  # atno 17342 bound_to 10162
  140.7586  143.5972  150.8736 LP  0  0  0  0  0  0  0  0  0  0  0  0  # atno 17343 bound_to 10162
  157.7504  131.0285  150.4052 LP  0  0  0  0  0  0  0  0  0  0  0  0  # atno 17370 bound_to 10713
  156.4332  130.3976  149.6746 LP  0  0  0  0  0  0  0  0  0  0  0  0  # atno 17371 bound_to 10713
  141.2148  133.7578  156.9609 LP  0  0  0  0  0  0  0  0  0  0  0  0  # atno 17394 bound_to 11000
  140.1205  134.9420  157.2196 LP  0  0  0  0  0  0  0  0  0  0  0  0  # atno 17395 bound_to 11000

$$$$
