AV-unprocessed.smi:211|AV-procd|sdf|1616|dock10
  -GOLD-   2262019543D 1   1.00000     0.00000
 Structure written by MMmdl.
 59 62  0  0  0  0  0  0  0  0  1 V2000
  152.8167  143.1137  161.5428 C   0  0  0  0  0  0  0  0  0  0  0  0
  152.0766  143.5845  160.2957 C   0  0  0  0  0  0  0  0  0  0  0  0
  151.8616  144.7835  160.1212 O   0  0  0  0  0  0  0  0  0  0  0  0
  151.6921  142.6258  159.4391 N   0  0  0  0  0  0  0  0  0  0  0  0
  150.9493  142.8388  158.1972 C   0  0  1  0  0  0  0  0  0  0  0  0
  151.6316  143.9670  157.4006 C   0  0  0  0  0  0  0  0  0  0  0  0
  150.8390  141.5071  157.4082 C   0  0  0  0  0  0  0  0  0  0  0  0
  149.8961  141.6138  156.1884 C   0  0  0  0  0  0  0  0  0  0  0  0
  149.7835  140.2782  155.4352 C   0  0  0  0  0  0  0  0  0  0  0  0
  149.3769  139.1985  156.3344 N   0  0  0  0  0  0  0  0  0  0  0  0
  148.9620  138.0353  155.7700 C   0  0  0  0  0  0  0  0  0  0  0  0
  149.6449  136.8832  156.0089 N   0  0  0  0  0  0  0  0  0  0  0  0
  149.2334  135.7300  155.4738 C   0  0  0  0  0  0  0  0  0  0  0  0
  148.1849  135.5061  154.6801 N   0  0  0  0  0  0  0  0  0  0  0  0
  147.5020  136.6589  154.4258 C   0  0  0  0  0  0  0  0  0  0  0  0
  147.8163  137.9533  154.9286 C   0  0  0  0  0  0  0  0  0  0  0  0
  146.8920  138.8790  154.4581 N   0  0  0  0  0  0  0  0  0  0  0  0
  146.0691  138.1696  153.7350 C   0  0  0  0  0  0  0  0  0  0  0  0
  146.3765  136.8312  153.6393 N   0  0  0  0  0  0  0  0  0  0  0  0
  145.6257  135.8222  152.9518 C   0  0  0  0  0  0  0  0  0  0  0  0
  146.0988  134.3670  152.9201 C   0  0  0  0  0  0  0  0  0  0  0  0
  145.4671  134.2017  151.5203 C   0  0  0  0  0  0  0  0  0  0  0  0
  146.3025  133.3914  150.5152 C   0  0  0  0  0  0  0  0  0  0  0  0
  146.3796  132.0309  150.8905 O   0  0  0  0  0  0  0  0  0  0  0  0
  144.0172  133.6757  151.5147 C   0  0  0  0  0  0  0  0  0  0  0  0
  143.4849  133.6439  150.2061 O   0  0  0  0  0  0  0  0  0  0  0  0
  145.6128  135.7377  151.4236 C   0  0  0  0  0  0  0  0  0  0  0  0
  150.2363  139.0266  157.5030 C   0  0  0  0  0  0  0  0  0  0  0  0
  150.3544  140.3367  158.2970 C   0  0  0  0  0  0  0  0  0  0  0  0
  153.6938  142.5268  161.2690 H   0  0  0  0  0  0  0  0  0  0  0  0
  152.1644  142.4949  162.1597 H   0  0  0  0  0  0  0  0  0  0  0  0
  153.1478  143.9630  162.1416 H   0  0  0  0  0  0  0  0  0  0  0  0
  151.9214  141.6701  159.6706 H   0  0  0  0  0  0  0  0  0  0  0  0
  149.9366  143.1630  158.4445 H   0  0  0  0  0  0  0  0  0  0  0  0
  151.0398  144.2674  156.5366 H   0  0  0  0  0  0  0  0  0  0  0  0
  152.6165  143.6627  157.0444 H   0  0  0  0  0  0  0  0  0  0  0  0
  151.7629  144.8591  158.0141 H   0  0  0  0  0  0  0  0  0  0  0  0
  151.8340  141.2534  157.0386 H   0  0  0  0  0  0  0  0  0  0  0  0
  148.9051  141.9315  156.5152 H   0  0  0  0  0  0  0  0  0  0  0  0
  150.2503  142.3707  155.4895 H   0  0  0  0  0  0  0  0  0  0  0  0
  149.0602  140.3809  154.6248 H   0  0  0  0  0  0  0  0  0  0  0  0
  150.7434  140.0276  154.9811 H   0  0  0  0  0  0  0  0  0  0  0  0
  149.8294  134.8626  155.7170 H   0  0  0  0  0  0  0  0  0  0  0  0
  145.2125  138.6092  153.2448 H   0  0  0  0  0  0  0  0  0  0  0  0
  144.6091  135.8891  153.3425 H   0  0  0  0  0  0  0  0  0  0  0  0
  147.1875  134.2830  152.9100 H   0  0  0  0  0  0  0  0  0  0  0  0
  145.6667  133.7344  153.6959 H   0  0  0  0  0  0  0  0  0  0  0  0
  145.8941  133.4582  149.5067 H   0  0  0  0  0  0  0  0  0  0  0  0
  147.3204  133.7781  150.4578 H   0  0  0  0  0  0  0  0  0  0  0  0
  147.2209  131.6931  150.6238 H   0  0  0  0  0  0  0  0  0  0  0  0
  143.9534  132.6758  151.9444 H   0  0  0  0  0  0  0  0  0  0  0  0
  143.3663  134.3047  152.1220 H   0  0  0  0  0  0  0  0  0  0  0  0
  142.6781  134.1361  150.1987 H   0  0  0  0  0  0  0  0  0  0  0  0
  144.7764  136.2545  150.9520 H   0  0  0  0  0  0  0  0  0  0  0  0
  146.5610  136.0479  150.9801 H   0  0  0  0  0  0  0  0  0  0  0  0
  149.8628  138.2428  158.1612 H   0  0  0  0  0  0  0  0  0  0  0  0
  151.2238  138.7063  157.1674 H   0  0  0  0  0  0  0  0  0  0  0  0
  151.0351  140.1735  159.1324 H   0  0  0  0  0  0  0  0  0  0  0  0
  149.3855  140.5837  158.7336 H   0  0  0  0  0  0  0  0  0  0  0  0
  1  2  1  0  0  0  0
  1 30  1  0  0  0  0
  1 31  1  0  0  0  0
  1 32  1  0  0  0  0
  2  3  2  0  0  0  0
  2  4  1  0  0  0  0
  4  5  1  0  0  0  0
  4 33  1  0  0  0  0
  5  6  1  0  0  0  0
  5  7  1  0  0  0  0
  5 34  1  0  0  0  0
  6 35  1  0  0  0  0
  6 36  1  0  0  0  0
  6 37  1  0  0  0  0
  7 29  1  0  0  0  0
  7  8  1  0  0  0  0
  7 38  1  0  0  0  0
  8  9  1  0  0  0  0
  8 39  1  0  0  0  0
  8 40  1  0  0  0  0
  9 10  1  0  0  0  0
  9 41  1  0  0  0  0
  9 42  1  0  0  0  0
 10 11  1  0  0  0  0
 10 28  1  0  0  0  0
 11 16  1  0  0  0  0
 11 12  2  0  0  0  0
 12 13  1  0  0  0  0
 13 14  2  0  0  0  0
 13 43  1  0  0  0  0
 14 15  1  0  0  0  0
 15 19  1  0  0  0  0
 15 16  2  0  0  0  0
 16 17  1  0  0  0  0
 17 18  2  0  0  0  0
 18 19  1  0  0  0  0
 18 44  1  0  0  0  0
 19 20  1  0  0  0  0
 20 27  1  0  0  0  0
 20 21  1  0  0  0  0
 20 45  1  0  0  0  0
 21 22  1  0  0  0  0
 21 46  1  0  0  0  0
 21 47  1  0  0  0  0
 22 23  1  0  0  0  0
 22 25  1  0  0  0  0
 22 27  1  0  0  0  0
 23 24  1  0  0  0  0
 23 48  1  0  0  0  0
 23 49  1  0  0  0  0
 24 50  1  0  0  0  0
 25 26  1  0  0  0  0
 25 51  1  0  0  0  0
 25 52  1  0  0  0  0
 26 53  1  0  0  0  0
 27 54  1  0  0  0  0
 27 55  1  0  0  0  0
 28 29  1  0  0  0  0
 28 56  1  0  0  0  0
 28 57  1  0  0  0  0
 29 58  1  0  0  0  0
 29 59  1  0  0  0  0
M  END
> <s_m_source_file>
AV-unprocessed.smi

> <i_m_source_file_index>
211

> <i_lp_mmshare_version>
43012

> <i_f3d_flags>
0

> <s_epik_input>
W0NIM11DKD1PKVtOSF1bQ0BIXShbQ0gzXSlbQ0hdMVtDSDJdW0NIMl1OKFtDSDJdW0NIMl0xKWMobltjSF1uMiljKGMyMyluW2NIXW4zW0NIXShbQ0gyXTQpW0NIMl1DNChbQ0gyXVtPSF0pW0NIMl1bT0hd

> <s_epik_cmdline>
J2VwaWtfcHl0aG9uJywgJy1waCcsICc3LjAnLCAnLXRuJywgJzgnLCAnLW1hJywgJzIwMCcsICctbWV0YWxfYmluZGluZycsICctaW1hZScsICc8aW5maWxlLm1hZT4nLCAnLW9tYWUnLCAnPG91dGZpbGUubWFlPic=

> <r_lp_tautomer_probability>
1

> <r_epik_Ionization_Penalty>
0.00335435

> <r_epik_Ionization_Penalty_Charging>
0

> <r_epik_Ionization_Penalty_Neutral>
0.00335435

> <r_epik_State_Penalty>
0.00231338

> <r_epik_Charging_Adjusted_Penalty>
0.00231338

> <i_epik_Tot_Q>
0

> <i_epik_Tot_abs_Q>
0

> <r_epik_Metal_State_Penalty>
-0

> <b_epik_Metal_Only>
0

> <s_lp_Force_Field>
OPLS_2005

> <r_lp_Energy>
40.8238

> <b_lp_Chiralities_Consistent>
1

> <s_lp_Variant>
AV-unprocessed.smi:211-2

> <Gold.Version>
5.8.1

> <Gold.Id.Protein>
6NUR|6NUR_protein|mol2

> <Gold.PLP.Fitness>
45.8457

> <Gold.PLP.PLP>
-37.4720

> <Gold.PLP.part.hbond>
-2.0000

> <Gold.PLP.part.metal>
0.0000

> <Gold.PLP.part.buried>
-5.6347

> <Gold.PLP.part.nonpolar>
-30.5983

> <Gold.PLP.part.repulsive>
1.2204

> <Gold.PLP.ligand.clash>
0.0000

> <Gold.PLP.ligand.torsion>
0.7572

> <Gold.PLP.Chemscore.Hbond>
2.0000

> <Gold.PLP.Chemscore.CHOScore>
1.0000

> <Gold.PLP.Chemscore.Metal>
0.0000

> <Gold.Chemscore.Hbonds>
donor molecule, donor type, donor heavy atom, donor atom, acceptor molecule, acceptor atom, score
      L1  H    24    50       P1 10747  1.00
      L1  H    26    53       P1 10186  1.00
      L1  C    18    44       P1 10175  1.00

> <Gold.PLP.Chemscore.Internal.Correction>
0.8882

> <Gold.Rescore>
     Score         DG    S(hbond)    S(metal)    S(lipo)     H(rot)  DE(clash)    DE(int)     intcor
      8.90     -12.17       1.95        0.00      87.22       3.92       0.10       3.18       ----

> <Gold.Chemscore.Fitness>
8.8951

> <Gold.Chemscore.DG>
-12.1721

> <Gold.Chemscore.ZeroCoef>
-5.4800

> <Gold.Chemscore.Hbond>
1.9492

> <Gold.Chemscore.Metal>
0.0000

> <Gold.Chemscore.Lipo>
87.2249

> <Gold.Chemscore.Internal_Hbond>
0.0000

> <Gold.Chemscore.DEClash>
0.0983

> <Gold.Chemscore.DEInternal>
3.1787

> <Gold.Chemscore.Rot>
3.9155

> <Gold.Chemscore.Internal.Correction>
   9.000000E+99

> <Gold.Chemscore.Hbonds>
donor molecule, donor type, donor heavy atom, donor atom, acceptor molecule, acceptor atom, score
      L1  H    24    50       P1 10747  0.98
      L1  H    26    53       P1 10186  0.90

> <Gold.Chemscore.Hbond.Weighted>
-6.5103

> <Gold.Chemscore.Metal.Weighted>
-0.0000

> <Gold.Chemscore.Lipo.Weighted>
-10.2053

> <Gold.Chemscore.Internal_Hbond.Weighted>
0.0000

> <Gold.Chemscore.DEClash.Weighted>
0.0983

> <Gold.Chemscore.DEInternal.Weighted>
3.1787

> <Gold.Chemscore.Rot.Weighted>
10.0236

> <Gold.Chemscore.Internal.Correction.Weighted>
   9.000000E+99

> <Gold.Protein.RotatedTorsions>
[ 6907 6896 6895 6894 ] final -174.43 input  -60.11 | X-H torsion
[ 7974 7965 7964 7962 ] final  111.48 input  175.53 | X-H torsion
[ 8008 7997 7996 7995 ] final   21.17 input   59.86 | X-H torsion
[ 10167 10162 10161 10158 ] final -139.65 input  -65.29 | X-H torsion
[ 10718 10713 10712 10709 ] final   97.31 input   66.30 | X-H torsion
[ 10763 10752 10751 10750 ] final  168.94 input  -60.55 | X-H torsion
[ 11005 11000 10999 10996 ] final   -4.67 input  -57.11 | X-H torsion

> <Gold.Protein.ActiveResidues>
 VAL166  LYS551  ARG553  GLY616  TRP617  ASP618  TYR619  PRO620  LYS621  CYS622 
 ASP623  PHE694  ASN695  SER759  ASP760  ASP761  ALA762  ILE779  LEU786  VAL792 
 PHE793  MET794  SER795  GLU796  ALA797  LYS798  CYS799  TRP800  GLU811  SER814 

> <Gold.Protein.RotatedAtoms>
  151.5722  133.3388  159.2991 H   0  0  0  0  0  0  0  0  0  0  0  0  # atno 6907 bound_to 6896
  150.8361  134.7637  159.6905 H   0  0  0  0  0  0  0  0  0  0  0  0  # atno 6908 bound_to 6896
  152.4437  134.5546  159.9928 H   0  0  0  0  0  0  0  0  0  0  0  0  # atno 6909 bound_to 6896
  145.2417  139.2776  143.4114 H   0  0  0  0  0  0  0  0  0  0  0  0  # atno 7974 bound_to 7965
  154.9466  140.3060  155.5095 H   0  0  0  0  0  0  0  0  0  0  0  0  # atno 8008 bound_to 7997
  156.2991  140.2326  156.4478 H   0  0  0  0  0  0  0  0  0  0  0  0  # atno 8009 bound_to 7997
  154.8094  140.0429  157.1320 H   0  0  0  0  0  0  0  0  0  0  0  0  # atno 8010 bound_to 7997
  139.8358  143.7386  152.2665 H   0  0  0  0  0  0  0  0  0  0  0  0  # atno 10167 bound_to 10162
  157.6914  131.0605  150.4624 H   0  0  0  0  0  0  0  0  0  0  0  0  # atno 10718 bound_to 10713
  154.3759  135.2753  155.2239 H   0  0  0  0  0  0  0  0  0  0  0  0  # atno 10763 bound_to 10752
  154.4367  135.5964  153.6106 H   0  0  0  0  0  0  0  0  0  0  0  0  # atno 10764 bound_to 10752
  152.9836  135.6009  154.3996 H   0  0  0  0  0  0  0  0  0  0  0  0  # atno 10765 bound_to 10752
  140.6828  133.9139  155.8566 H   0  0  0  0  0  0  0  0  0  0  0  0  # atno 11005 bound_to 11000
  146.3326  140.2782  142.8609 LP  0  0  0  0  0  0  0  0  0  0  0  0  # atno 17320 bound_to 7965
  144.9583  140.8249  143.5529 LP  0  0  0  0  0  0  0  0  0  0  0  0  # atno 17321 bound_to 7965
  139.7608  144.7507  151.0367 LP  0  0  0  0  0  0  0  0  0  0  0  0  # atno 17342 bound_to 10162
  140.7802  143.4753  151.0091 LP  0  0  0  0  0  0  0  0  0  0  0  0  # atno 17343 bound_to 10162
  156.4967  130.4107  149.6376 LP  0  0  0  0  0  0  0  0  0  0  0  0  # atno 17370 bound_to 10713
  156.3366  130.7360  151.2298 LP  0  0  0  0  0  0  0  0  0  0  0  0  # atno 17371 bound_to 10713
  141.0304  134.0764  157.4020 LP  0  0  0  0  0  0  0  0  0  0  0  0  # atno 17394 bound_to 11000
  139.8947  135.0137  156.6962 LP  0  0  0  0  0  0  0  0  0  0  0  0  # atno 17395 bound_to 11000

$$$$
