AV-unprocessed.smi:3245|AV-procd|sdf|12403|dock3
  -GOLD-   2272018283D 1   1.00000     0.00000
 Structure written by MMmdl.
 36 37  0  0  0  0  0  0  0  0  2 V2000
  143.2451  136.9204  152.8754 C   0  0  0  0  0  0  0  0  0  0  0  0
  144.7287  136.9740  153.2644 C   0  0  1  0  0  0  0  0  0  0  0  0
  145.6240  136.7332  152.0292 C   0  0  0  0  0  0  0  0  0  0  0  0
  145.3823  135.4498  151.3943 N   0  0  0  0  0  0  0  0  0  0  0  0
  146.2659  134.4094  151.1987 C   0  0  0  0  0  0  0  0  0  0  0  0
  145.5904  133.4220  150.5405 C   0  0  0  0  0  0  0  0  0  0  0  0
  144.2812  133.9558  150.3798 C   0  0  0  0  0  0  0  0  0  0  0  0
  144.1598  135.1701  150.8919 N   0  0  0  0  0  0  0  0  0  0  0  0
  145.0251  138.2814  153.8935 N   0  3  0  0  0  0  0  0  0  0  0  0
  146.4402  138.4890  154.2633 C   0  0  0  0  0  0  0  0  0  0  0  0
  147.1291  139.4440  153.2782 C   0  0  0  0  0  0  0  0  0  0  0  0
  147.9717  140.4143  153.9812 N   0  0  0  0  0  0  0  0  0  0  0  0
  149.1990  140.1512  154.4476 C   0  0  0  0  0  0  0  0  0  0  0  0
  149.8145  139.0883  154.3756 O   0  0  0  0  0  0  0  0  0  0  0  0
  149.7457  141.4068  155.0914 C   0  0  0  0  0  0  0  0  0  0  0  0
  148.6295  142.2971  154.8547 N   0  0  0  0  0  0  0  0  0  0  0  0
  147.6232  141.6941  154.2090 C   0  0  0  0  0  0  0  0  0  0  0  0
  146.5678  142.2319  153.8777 O   0  0  0  0  0  0  0  0  0  0  0  0
  142.9876  135.9528  152.4432 H   0  0  0  0  0  0  0  0  0  0  0  0
  142.9978  137.6883  152.1415 H   0  0  0  0  0  0  0  0  0  0  0  0
  142.6042  137.0715  153.7447 H   0  0  0  0  0  0  0  0  0  0  0  0
  144.9014  136.1783  153.9911 H   0  0  0  0  0  0  0  0  0  0  0  0
  145.4477  137.5104  151.2844 H   0  0  0  0  0  0  0  0  0  0  0  0
  146.6790  136.8014  152.3009 H   0  0  0  0  0  0  0  0  0  0  0  0
  147.2910  134.4593  151.5356 H   0  0  0  0  0  0  0  0  0  0  0  0
  145.9725  132.4633  150.2223 H   0  0  0  0  0  0  0  0  0  0  0  0
  143.4229  133.5013  149.9074 H   0  0  0  0  0  0  0  0  0  0  0  0
  144.7434  139.0099  153.2527 H   0  0  0  0  0  0  0  0  0  0  0  0
  146.4872  138.8870  155.2779 H   0  0  0  0  0  0  0  0  0  0  0  0
  146.9659  137.5345  154.2732 H   0  0  0  0  0  0  0  0  0  0  0  0
  147.7386  138.8753  152.5735 H   0  0  0  0  0  0  0  0  0  0  0  0
  146.3817  139.9608  152.6737 H   0  0  0  0  0  0  0  0  0  0  0  0
  149.9299  141.2658  156.1570 H   0  0  0  0  0  0  0  0  0  0  0  0
  150.6515  141.7544  154.5937 H   0  0  0  0  0  0  0  0  0  0  0  0
  148.6266  143.2646  155.1448 H   0  0  0  0  0  0  0  0  0  0  0  0
  144.4741  138.3640  154.7361 H   0  0  0  0  0  0  0  0  0  0  0  0
  1  2  1  0  0  0  0
  1 19  1  0  0  0  0
  1 20  1  0  0  0  0
  1 21  1  0  0  0  0
  2  3  1  0  0  0  0
  2  9  1  0  0  0  0
  2 22  1  0  0  0  0
  3  4  1  0  0  0  0
  3 23  1  0  0  0  0
  3 24  1  0  0  0  0
  4  8  1  0  0  0  0
  4  5  1  0  0  0  0
  5  6  2  0  0  0  0
  5 25  1  0  0  0  0
  6  7  1  0  0  0  0
  6 26  1  0  0  0  0
  7  8  2  0  0  0  0
  7 27  1  0  0  0  0
  9 10  1  0  0  0  0
  9 28  1  0  0  0  0
  9 36  1  0  0  0  0
 10 11  1  0  0  0  0
 10 29  1  0  0  0  0
 10 30  1  0  0  0  0
 11 12  1  0  0  0  0
 11 31  1  0  0  0  0
 11 32  1  0  0  0  0
 12 17  1  0  0  0  0
 12 13  1  0  0  0  0
 13 14  2  0  0  0  0
 13 15  1  0  0  0  0
 15 16  1  0  0  0  0
 15 33  1  0  0  0  0
 15 34  1  0  0  0  0
 16 17  1  0  0  0  0
 16 35  1  0  0  0  0
 17 18  2  0  0  0  0
M  CHG  1   9   1
M  END
> <s_m_source_file>
AV-unprocessed.smi

> <i_m_source_file_index>
3245

> <i_lp_mmshare_version>
43012

> <i_f3d_flags>
0

> <s_epik_input>
bjFbY0hdW2NIXVtjSF1uMVtDSDJdW0NAQEhdKFtDSDNdKVtOSF1bQ0gyXVtDSDJdTjJDKD1PKVtDSDJdW05IXUMyPU8=

> <s_epik_cmdline>
J2VwaWtfcHl0aG9uJywgJy1waCcsICc3LjAnLCAnLXRuJywgJzgnLCAnLW1hJywgJzIwMCcsICctbWV0YWxfYmluZGluZycsICctaW1hZScsICc8aW5maWxlLm1hZT4nLCAnLW9tYWUnLCAnPG91dGZpbGUubWFlPic=

> <r_lp_tautomer_probability>
1

> <r_epik_Ionization_Penalty>
0.0160742

> <r_epik_Ionization_Penalty_Charging>
0.0159586

> <r_epik_Ionization_Penalty_Neutral>
0.000115543

> <r_epik_State_Penalty>
0.0125702

> <r_epik_Charging_Adjusted_Penalty>
0.0285288

> <i_epik_Tot_Q>
1

> <i_epik_Tot_abs_Q>
1

> <r_epik_Metal_State_Penalty>
0.0881892

> <b_epik_Metal_Only>
0

> <s_lp_Force_Field>
OPLS_2005

> <r_lp_Energy>
19.8129

> <b_lp_Chiralities_Consistent>
1

> <s_lp_Variant>
AV-unprocessed.smi:3245-2

> <Gold.Version>
5.8.1

> <Gold.Id.Protein>
6NUR|6NUR_protein|mol2

> <Gold.PLP.Fitness>
45.1480

> <Gold.PLP.PLP>
-31.8771

> <Gold.PLP.part.hbond>
-2.0000

> <Gold.PLP.part.metal>
0.0000

> <Gold.PLP.part.buried>
-5.1464

> <Gold.PLP.part.nonpolar>
-25.7439

> <Gold.PLP.part.repulsive>
0.8182

> <Gold.PLP.ligand.clash>
0.0000

> <Gold.PLP.ligand.torsion>
0.8919

> <Gold.PLP.Chemscore.Hbond>
3.0000

> <Gold.PLP.Chemscore.CHOScore>
2.0000

> <Gold.PLP.Chemscore.Metal>
0.0000

> <Gold.Chemscore.Hbonds>
donor molecule, donor type, donor heavy atom, donor atom, acceptor molecule, acceptor atom, score
      L1  H     9    28       P1 10175  2.00
      L1  H    16    35       P1  8028  1.00
      L1  C     5    25       P1  7948  1.00
      L1  C     7    27       P1 10186  0.80

> <Gold.PLP.Chemscore.Internal.Correction>
0.0546

> <Gold.Rescore>
     Score         DG    S(hbond)    S(metal)    S(lipo)     H(rot)  DE(clash)    DE(int)     intcor
      9.55     -10.78       1.97        0.00      48.97       2.74       0.01       1.22       ----

> <Gold.Chemscore.Fitness>
9.5461

> <Gold.Chemscore.DG>
-10.7817

> <Gold.Chemscore.ZeroCoef>
-5.4800

> <Gold.Chemscore.Hbond>
1.9697

> <Gold.Chemscore.Metal>
0.0000

> <Gold.Chemscore.Lipo>
48.9689

> <Gold.Chemscore.Internal_Hbond>
0.0000

> <Gold.Chemscore.DEClash>
0.0107

> <Gold.Chemscore.DEInternal>
1.2248

> <Gold.Chemscore.Rot>
2.7369

> <Gold.Chemscore.Internal.Correction>
   9.000000E+99

> <Gold.Chemscore.Hbonds>
donor molecule, donor type, donor heavy atom, donor atom, acceptor molecule, acceptor atom, score
      L1  H     9    28       P1 10175  0.98
      L1  H    16    35       P1  8028  0.95

> <Gold.Chemscore.Hbond.Weighted>
-6.5788

> <Gold.Chemscore.Metal.Weighted>
-0.0000

> <Gold.Chemscore.Lipo.Weighted>
-5.7294

> <Gold.Chemscore.Internal_Hbond.Weighted>
0.0000

> <Gold.Chemscore.DEClash.Weighted>
0.0107

> <Gold.Chemscore.DEInternal.Weighted>
1.2248

> <Gold.Chemscore.Rot.Weighted>
7.0065

> <Gold.Chemscore.Internal.Correction.Weighted>
   9.000000E+99

> <Gold.Protein.RotatedTorsions>
[ 6907 6896 6895 6894 ] final    4.29 input  -60.11 | X-H torsion
[ 7974 7965 7964 7962 ] final -121.93 input  175.53 | X-H torsion
[ 8008 7997 7996 7995 ] final   40.10 input   59.86 | X-H torsion
[ 10167 10162 10161 10158 ] final  -46.46 input  -65.29 | X-H torsion
[ 10718 10713 10712 10709 ] final    8.84 input   66.30 | X-H torsion
[ 10763 10752 10751 10750 ] final  156.43 input  -60.55 | X-H torsion
[ 11005 11000 10999 10996 ] final   89.56 input  -57.11 | X-H torsion

> <Gold.Protein.ActiveResidues>
 VAL166  LYS551  ARG553  GLY616  TRP617  ASP618  TYR619  PRO620  LYS621  CYS622 
 ASP623  PHE694  ASN695  SER759  ASP760  ASP761  ALA762  ILE779  LEU786  VAL792 
 PHE793  MET794  SER795  GLU796  ALA797  LYS798  CYS799  TRP800  GLU811  SER814 

> <Gold.Protein.RotatedAtoms>
  151.6390  135.1015  160.0137 H   0  0  0  0  0  0  0  0  0  0  0  0  # atno 6907 bound_to 6896
  152.4065  133.6892  159.6369 H   0  0  0  0  0  0  0  0  0  0  0  0  # atno 6908 bound_to 6896
  150.7959  133.8617  159.3275 H   0  0  0  0  0  0  0  0  0  0  0  0  # atno 6909 bound_to 6896
  145.0350  140.8098  143.4301 H   0  0  0  0  0  0  0  0  0  0  0  0  # atno 7974 bound_to 7965
  155.2475  140.3350  155.4285 H   0  0  0  0  0  0  0  0  0  0  0  0  # atno 8008 bound_to 7997
  156.2230  140.1817  156.7476 H   0  0  0  0  0  0  0  0  0  0  0  0  # atno 8009 bound_to 7997
  154.5854  140.0646  156.9149 H   0  0  0  0  0  0  0  0  0  0  0  0  # atno 8010 bound_to 7997
  140.6816  143.2830  151.3786 H   0  0  0  0  0  0  0  0  0  0  0  0  # atno 10167 bound_to 10162
  156.9576  130.5920  149.5660 H   0  0  0  0  0  0  0  0  0  0  0  0  # atno 10718 bound_to 10713
  154.1842  135.2798  155.3042 H   0  0  0  0  0  0  0  0  0  0  0  0  # atno 10763 bound_to 10752
  154.5979  135.5539  153.7348 H   0  0  0  0  0  0  0  0  0  0  0  0  # atno 10764 bound_to 10752
  153.0130  135.6384  154.1980 H   0  0  0  0  0  0  0  0  0  0  0  0  # atno 10765 bound_to 10752
  139.8873  134.8559  156.3159 H   0  0  0  0  0  0  0  0  0  0  0  0  # atno 11005 bound_to 11000
  145.1722  139.2398  143.5336 LP  0  0  0  0  0  0  0  0  0  0  0  0  # atno 17320 bound_to 7965
  146.3503  140.1475  142.8593 LP  0  0  0  0  0  0  0  0  0  0  0  0  # atno 17321 bound_to 7965
  139.6143  144.1034  152.2330 LP  0  0  0  0  0  0  0  0  0  0  0  0  # atno 17342 bound_to 10162
  140.0458  144.5971  150.7374 LP  0  0  0  0  0  0  0  0  0  0  0  0  # atno 17343 bound_to 10162
  156.0336  130.5425  150.8597 LP  0  0  0  0  0  0  0  0  0  0  0  0  # atno 17370 bound_to 10713
  157.5680  131.0946  150.9461 LP  0  0  0  0  0  0  0  0  0  0  0  0  # atno 17371 bound_to 10713
  140.9819  133.7262  156.0685 LP  0  0  0  0  0  0  0  0  0  0  0  0  # atno 17394 bound_to 11000
  140.7738  134.3803  157.5502 LP  0  0  0  0  0  0  0  0  0  0  0  0  # atno 17395 bound_to 11000

$$$$
