AV-unprocessed.smi:1360|AV-procd|sdf|5551|dock5
  -GOLD-   22720 5143D 1   1.00000     0.00000
 Structure written by MMmdl.
 36 37  0  0  0  0  0  0  0  0  1 V2000
  153.0634  137.7247  159.8762 C   0  0  0  0  0  0  0  0  0  0  0  0
  152.1431  138.3728  158.8305 C   0  0  2  0  0  0  0  0  0  0  0  0
  152.7687  138.3291  157.4230 C   0  0  0  0  0  0  0  0  0  0  0  0
  151.7719  138.1469  156.3822 N   0  0  0  0  0  0  0  0  0  0  0  0
  150.8817  139.0725  155.8801 C   0  0  0  0  0  0  0  0  0  0  0  0
  150.1505  138.4483  154.9106 C   0  0  0  0  0  0  0  0  0  0  0  0
  150.6732  137.1250  154.8924 C   0  0  0  0  0  0  0  0  0  0  0  0
  151.6430  136.9470  155.7751 N   0  0  0  0  0  0  0  0  0  0  0  0
  151.8569  139.7545  159.2093 N   0  0  0  0  0  0  0  0  0  0  0  0
  152.7370  140.7672  159.1923 C   0  0  0  0  0  0  0  0  0  0  0  0
  153.9064  140.6405  158.8274 O   0  0  0  0  0  0  0  0  0  0  0  0
  152.2164  142.1314  159.6631 C   0  0  2  0  0  0  0  0  0  0  0  0
  152.2579  143.1708  158.5189 C   0  0  0  0  0  0  0  0  0  0  0  0
  151.9996  144.5822  159.0163 C   0  0  0  0  0  0  0  0  0  0  0  0
  152.0651  144.9332  160.3121 C   0  0  0  0  0  0  0  0  0  0  0  0
  152.4102  143.9596  161.4254 C   0  0  0  0  0  0  0  0  0  0  0  0
  153.0027  142.6435  160.8866 C   0  0  0  0  0  0  0  0  0  0  0  0
  153.2713  136.6846  159.6237 H   0  0  0  0  0  0  0  0  0  0  0  0
  152.6061  137.7354  160.8662 H   0  0  0  0  0  0  0  0  0  0  0  0
  154.0176  138.2481  159.9437 H   0  0  0  0  0  0  0  0  0  0  0  0
  151.2111  137.8049  158.8014 H   0  0  0  0  0  0  0  0  0  0  0  0
  153.3362  139.2396  157.2227 H   0  0  0  0  0  0  0  0  0  0  0  0
  153.4759  137.5016  157.3538 H   0  0  0  0  0  0  0  0  0  0  0  0
  150.8458  140.0869  156.2491 H   0  0  0  0  0  0  0  0  0  0  0  0
  149.3631  138.8725  154.3056 H   0  0  0  0  0  0  0  0  0  0  0  0
  150.3784  136.2943  154.2682 H   0  0  0  0  0  0  0  0  0  0  0  0
  150.9201  139.9509  159.5317 H   0  0  0  0  0  0  0  0  0  0  0  0
  151.1757  142.0096  159.9700 H   0  0  0  0  0  0  0  0  0  0  0  0
  153.2230  143.1659  158.0102 H   0  0  0  0  0  0  0  0  0  0  0  0
  151.5041  142.9235  157.7704 H   0  0  0  0  0  0  0  0  0  0  0  0
  151.7652  145.3267  158.2694 H   0  0  0  0  0  0  0  0  0  0  0  0
  151.8567  145.9522  160.6033 H   0  0  0  0  0  0  0  0  0  0  0  0
  153.1151  144.4308  162.1105 H   0  0  0  0  0  0  0  0  0  0  0  0
  151.5008  143.7592  161.9925 H   0  0  0  0  0  0  0  0  0  0  0  0
  153.0148  141.8954  161.6806 H   0  0  0  0  0  0  0  0  0  0  0  0
  154.0439  142.8110  160.6062 H   0  0  0  0  0  0  0  0  0  0  0  0
  1  2  1  0  0  0  0
  1 18  1  0  0  0  0
  1 19  1  0  0  0  0
  1 20  1  0  0  0  0
  2  3  1  0  0  0  0
  2  9  1  0  0  0  0
  2 21  1  0  0  0  0
  3  4  1  0  0  0  0
  3 22  1  0  0  0  0
  3 23  1  0  0  0  0
  4  8  1  0  0  0  0
  4  5  1  0  0  0  0
  5  6  2  0  0  0  0
  5 24  1  0  0  0  0
  6  7  1  0  0  0  0
  6 25  1  0  0  0  0
  7  8  2  0  0  0  0
  7 26  1  0  0  0  0
  9 10  1  0  0  0  0
  9 27  1  0  0  0  0
 10 11  2  0  0  0  0
 10 12  1  0  0  0  0
 12 17  1  0  0  0  0
 12 13  1  0  0  0  0
 12 28  1  0  0  0  0
 13 14  1  0  0  0  0
 13 29  1  0  0  0  0
 13 30  1  0  0  0  0
 14 15  2  0  0  0  0
 14 31  1  0  0  0  0
 15 16  1  0  0  0  0
 15 32  1  0  0  0  0
 16 17  1  0  0  0  0
 16 33  1  0  0  0  0
 16 34  1  0  0  0  0
 17 35  1  0  0  0  0
 17 36  1  0  0  0  0
M  END
> <s_m_source_file>
AV-unprocessed.smi

> <i_m_source_file_index>
1360

> <i_lp_mmshare_version>
43012

> <i_f3d_flags>
0

> <s_epik_input>
bjFbY0hdW2NIXVtjSF1uMVtDSDJdW0NAQEhdKFtDSDNdKVtOSF1DKD1PKVtDQEBIXTJbQ0gyXVtDSF09W0NIXVtDSDJdW0NIMl0y

> <s_epik_cmdline>
J2VwaWtfcHl0aG9uJywgJy1waCcsICc3LjAnLCAnLXRuJywgJzgnLCAnLW1hJywgJzIwMCcsICctbWV0YWxfYmluZGluZycsICctaW1hZScsICc8aW5maWxlLm1hZT4nLCAnLW9tYWUnLCAnPG91dGZpbGUubWFlPic=

> <r_lp_tautomer_probability>
1

> <r_epik_Ionization_Penalty>
0.000315076

> <r_epik_Ionization_Penalty_Charging>
0

> <r_epik_Ionization_Penalty_Neutral>
0.000315076

> <r_epik_State_Penalty>
-0

> <r_epik_Charging_Adjusted_Penalty>
0

> <i_epik_Tot_Q>
0

> <i_epik_Tot_abs_Q>
0

> <r_epik_Metal_State_Penalty>
-0

> <b_epik_Metal_Only>
0

> <s_lp_Force_Field>
OPLS_2005

> <r_lp_Energy>
8.39031

> <b_lp_Chiralities_Consistent>
1

> <s_lp_Variant>
AV-unprocessed.smi:1360-1

> <Gold.Version>
5.8.1

> <Gold.Id.Protein>
6NUR|6NUR_protein|mol2

> <Gold.PLP.Fitness>
46.9746

> <Gold.PLP.PLP>
-40.4904

> <Gold.PLP.part.hbond>
-2.0000

> <Gold.PLP.part.metal>
0.0000

> <Gold.PLP.part.buried>
-3.0375

> <Gold.PLP.part.nonpolar>
-35.5636

> <Gold.PLP.part.repulsive>
0.2011

> <Gold.PLP.ligand.clash>
0.0000

> <Gold.PLP.ligand.torsion>
0.7184

> <Gold.PLP.Chemscore.Hbond>
1.5634

> <Gold.PLP.Chemscore.CHOScore>
1.0665

> <Gold.PLP.Chemscore.Metal>
0.0000

> <Gold.Chemscore.Hbonds>
donor molecule, donor type, donor heavy atom, donor atom, acceptor molecule, acceptor atom, score
      P1  H  7997  8009       L1    11  0.67
      P1  H 10752 10765       L1     8  0.62
      L1  C     7    26       P1  7948  0.33
      L1  C     7    26       P1  7949  0.03

> <Gold.PLP.Chemscore.Internal.Correction>
0.0313

> <Gold.Rescore>
     Score         DG    S(hbond)    S(metal)    S(lipo)     H(rot)  DE(clash)    DE(int)     intcor
     17.99     -19.99       1.70        0.00     108.34       1.51       0.09       1.91       ----

> <Gold.Chemscore.Fitness>
17.9950

> <Gold.Chemscore.DG>
-19.9889

> <Gold.Chemscore.ZeroCoef>
-5.4800

> <Gold.Chemscore.Hbond>
1.7031

> <Gold.Chemscore.Metal>
0.0000

> <Gold.Chemscore.Lipo>
108.3359

> <Gold.Chemscore.Internal_Hbond>
0.0000

> <Gold.Chemscore.DEClash>
0.0890

> <Gold.Chemscore.DEInternal>
1.9050

> <Gold.Chemscore.Rot>
1.5057

> <Gold.Chemscore.Internal.Correction>
   9.000000E+99

> <Gold.Chemscore.Hbonds>
donor molecule, donor type, donor heavy atom, donor atom, acceptor molecule, acceptor atom, score
      P1  H  7997  8009       L1    11  0.65
      P1  H 10752 10765       L1     8  0.21

> <Gold.Chemscore.Hbond.Weighted>
-5.6883

> <Gold.Chemscore.Metal.Weighted>
-0.0000

> <Gold.Chemscore.Lipo.Weighted>
-12.6753

> <Gold.Chemscore.Internal_Hbond.Weighted>
0.0000

> <Gold.Chemscore.DEClash.Weighted>
0.0890

> <Gold.Chemscore.DEInternal.Weighted>
1.9050

> <Gold.Chemscore.Rot.Weighted>
3.8546

> <Gold.Chemscore.Internal.Correction.Weighted>
   9.000000E+99

> <Gold.Protein.RotatedTorsions>
[ 6907 6896 6895 6894 ] final  -86.37 input  -60.11 | X-H torsion
[ 7974 7965 7964 7962 ] final   78.88 input  175.53 | X-H torsion
[ 8008 7997 7996 7995 ] final  131.01 input   59.86 | X-H torsion
[ 10167 10162 10161 10158 ] final  114.22 input  -65.29 | X-H torsion
[ 10718 10713 10712 10709 ] final -126.12 input   66.30 | X-H torsion
[ 10763 10752 10751 10750 ] final -174.52 input  -60.55 | X-H torsion
[ 11005 11000 10999 10996 ] final  139.05 input  -57.11 | X-H torsion

> <Gold.Protein.ActiveResidues>
 VAL166  LYS551  ARG553  GLY616  TRP617  ASP618  TYR619  PRO620  LYS621  CYS622 
 ASP623  PHE694  ASN695  SER759  ASP760  ASP761  ALA762  ILE779  LEU786  VAL792 
 PHE793  MET794  SER795  GLU796  ALA797  LYS798  CYS799  TRP800  GLU811  SER814 

> <Gold.Protein.RotatedAtoms>
  150.6867  134.3060  159.4726 H   0  0  0  0  0  0  0  0  0  0  0  0  # atno 6907 bound_to 6896
  152.0951  134.9378  160.0580 H   0  0  0  0  0  0  0  0  0  0  0  0  # atno 6908 bound_to 6896
  152.0678  133.4058  159.4483 H   0  0  0  0  0  0  0  0  0  0  0  0  # atno 6909 bound_to 6896
  145.6715  139.2498  143.1866 H   0  0  0  0  0  0  0  0  0  0  0  0  # atno 7974 bound_to 7965
  156.2963  140.2582  156.2855 H   0  0  0  0  0  0  0  0  0  0  0  0  # atno 8008 bound_to 7997
  154.9560  140.0393  157.2186 H   0  0  0  0  0  0  0  0  0  0  0  0  # atno 8009 bound_to 7997
  154.7991  140.2825  155.5939 H   0  0  0  0  0  0  0  0  0  0  0  0  # atno 8010 bound_to 7997
  139.6405  144.7123  151.2247 H   0  0  0  0  0  0  0  0  0  0  0  0  # atno 10167 bound_to 10162
  156.1736  130.6684  151.0213 H   0  0  0  0  0  0  0  0  0  0  0  0  # atno 10718 bound_to 10713
  154.5952  135.2849  155.0593 H   0  0  0  0  0  0  0  0  0  0  0  0  # atno 10763 bound_to 10752
  154.1879  135.6445  153.5055 H   0  0  0  0  0  0  0  0  0  0  0  0  # atno 10764 bound_to 10752
  153.0136  135.5439  154.6652 H   0  0  0  0  0  0  0  0  0  0  0  0  # atno 10765 bound_to 10752
  140.0227  134.9389  157.0507 H   0  0  0  0  0  0  0  0  0  0  0  0  # atno 11005 bound_to 11000
  146.1042  140.7507  142.9534 LP  0  0  0  0  0  0  0  0  0  0  0  0  # atno 17320 bound_to 7965
  144.7055  140.3835  143.7121 LP  0  0  0  0  0  0  0  0  0  0  0  0  # atno 17321 bound_to 7965
  140.7488  143.6321  150.8413 LP  0  0  0  0  0  0  0  0  0  0  0  0  # atno 17342 bound_to 10162
  139.9958  143.5798  152.2894 LP  0  0  0  0  0  0  0  0  0  0  0  0  # atno 17343 bound_to 10162
  157.6820  131.0835  150.7344 LP  0  0  0  0  0  0  0  0  0  0  0  0  # atno 17370 bound_to 10713
  156.7402  130.4737  149.5479 LP  0  0  0  0  0  0  0  0  0  0  0  0  # atno 17371 bound_to 10713
  140.4359  134.1731  155.7171 LP  0  0  0  0  0  0  0  0  0  0  0  0  # atno 17394 bound_to 11000
  141.1784  133.8466  157.1344 LP  0  0  0  0  0  0  0  0  0  0  0  0  # atno 17395 bound_to 11000

$$$$
