AV-unprocessed.smi:1941|AV-procd|sdf|7848|dock3
  -GOLD-   22720 9593D 1   1.00000     0.00000
 Structure written by MMmdl.
 40 41  0  0  0  0  0  0  0  0  1 V2000
  145.1205  134.8615  151.0919 C   0  0  0  0  0  0  0  0  0  0  0  0
  145.8253  133.6879  151.6806 C   0  0  0  0  0  0  0  0  0  0  0  0
  146.9953  133.7718  152.3190 N   0  0  0  0  0  0  0  0  0  0  0  0
  147.4487  132.5305  152.7767 C   0  0  0  0  0  0  0  0  0  0  0  0
  148.7493  132.4353  153.5139 C   0  0  0  0  0  0  0  0  0  0  0  0
  148.8302  133.4223  154.6901 C   0  0  0  0  0  0  0  0  0  0  0  0
  149.1877  134.7608  154.2358 N   0  0  0  0  0  0  0  0  0  0  0  0
  149.7585  135.7023  154.9992 C   0  0  0  0  0  0  0  0  0  0  0  0
  150.0247  135.5530  156.1920 O   0  0  0  0  0  0  0  0  0  0  0  0
  150.0057  136.8204  154.3022 N   0  0  0  0  0  0  0  0  0  0  0  0
  150.6221  138.0373  154.8271 C   0  0  1  0  0  0  0  0  0  0  0  0
  152.0612  138.1360  154.3007 C   0  0  0  0  0  0  0  0  0  0  0  0
  149.7789  139.2668  154.4367 C   0  0  1  0  0  0  0  0  0  0  0  0
  148.3866  139.3203  155.0710 C   0  0  0  0  0  0  0  0  0  0  0  0
  148.0651  140.8067  155.1215 C   0  0  0  0  0  0  0  0  0  0  0  0
  149.4007  141.4897  154.8169 C   0  0  0  0  0  0  0  0  0  0  0  0
  150.3728  140.4601  154.9228 O   0  0  0  0  0  0  0  0  0  0  0  0
  146.5965  131.4977  152.4746 C   0  0  0  0  0  0  0  0  0  0  0  0
  145.1930  132.0479  151.6017 S   0  0  0  0  0  0  0  0  0  0  0  0
  145.7233  135.7645  151.1952 H   0  0  0  0  0  0  0  0  0  0  0  0
  144.1686  135.0161  151.6000 H   0  0  0  0  0  0  0  0  0  0  0  0
  144.9296  134.6888  150.0328 H   0  0  0  0  0  0  0  0  0  0  0  0
  148.8897  131.4173  153.8799 H   0  0  0  0  0  0  0  0  0  0  0  0
  149.5766  132.6206  152.8276 H   0  0  0  0  0  0  0  0  0  0  0  0
  147.8647  133.4848  155.1929 H   0  0  0  0  0  0  0  0  0  0  0  0
  149.5469  133.0734  155.4358 H   0  0  0  0  0  0  0  0  0  0  0  0
  149.0035  134.9781  153.2672 H   0  0  0  0  0  0  0  0  0  0  0  0
  149.7470  136.8333  153.3265 H   0  0  0  0  0  0  0  0  0  0  0  0
  150.6723  137.9922  155.9164 H   0  0  0  0  0  0  0  0  0  0  0  0
  152.5643  139.0197  154.6941 H   0  0  0  0  0  0  0  0  0  0  0  0
  152.0842  138.1976  153.2121 H   0  0  0  0  0  0  0  0  0  0  0  0
  152.6480  137.2665  154.5984 H   0  0  0  0  0  0  0  0  0  0  0  0
  149.6899  139.3364  153.3504 H   0  0  0  0  0  0  0  0  0  0  0  0
  147.6490  138.7468  154.5090 H   0  0  0  0  0  0  0  0  0  0  0  0
  148.4187  138.9199  156.0855 H   0  0  0  0  0  0  0  0  0  0  0  0
  147.3109  141.0834  154.3839 H   0  0  0  0  0  0  0  0  0  0  0  0
  147.6885  141.0847  156.1065 H   0  0  0  0  0  0  0  0  0  0  0  0
  149.4068  141.8845  153.7998 H   0  0  0  0  0  0  0  0  0  0  0  0
  149.6187  142.3093  155.5018 H   0  0  0  0  0  0  0  0  0  0  0  0
  146.7095  130.4501  152.7117 H   0  0  0  0  0  0  0  0  0  0  0  0
  1  2  1  0  0  0  0
  1 20  1  0  0  0  0
  1 21  1  0  0  0  0
  1 22  1  0  0  0  0
  2 19  1  0  0  0  0
  2  3  2  0  0  0  0
  3  4  1  0  0  0  0
  4  5  1  0  0  0  0
  4 18  2  0  0  0  0
  5  6  1  0  0  0  0
  5 23  1  0  0  0  0
  5 24  1  0  0  0  0
  6  7  1  0  0  0  0
  6 25  1  0  0  0  0
  6 26  1  0  0  0  0
  7  8  1  0  0  0  0
  7 27  1  0  0  0  0
  8  9  2  0  0  0  0
  8 10  1  0  0  0  0
 10 11  1  0  0  0  0
 10 28  1  0  0  0  0
 11 12  1  0  0  0  0
 11 13  1  0  0  0  0
 11 29  1  0  0  0  0
 12 30  1  0  0  0  0
 12 31  1  0  0  0  0
 12 32  1  0  0  0  0
 13 17  1  0  0  0  0
 13 14  1  0  0  0  0
 13 33  1  0  0  0  0
 14 15  1  0  0  0  0
 14 34  1  0  0  0  0
 14 35  1  0  0  0  0
 15 16  1  0  0  0  0
 15 36  1  0  0  0  0
 15 37  1  0  0  0  0
 16 17  1  0  0  0  0
 16 38  1  0  0  0  0
 16 39  1  0  0  0  0
 18 19  1  0  0  0  0
 18 40  1  0  0  0  0
M  END
> <s_m_source_file>
AV-unprocessed.smi

> <i_m_source_file_index>
1941

> <i_lp_mmshare_version>
43012

> <i_f3d_flags>
0

> <s_epik_input>
W0NIM11jMW5jKFtjSF1zMSlbQ0gyXVtDSDJdW05IXUMoPU8pW05IXVtDQEhdKFtDSDNdKVtDQEBIXTJbQ0gyXVtDSDJdW0NIMl1PMg==

> <s_epik_cmdline>
J2VwaWtfcHl0aG9uJywgJy1waCcsICc3LjAnLCAnLXRuJywgJzgnLCAnLW1hJywgJzIwMCcsICctbWV0YWxfYmluZGluZycsICctaW1hZScsICc8aW5maWxlLm1hZT4nLCAnLW9tYWUnLCAnPG91dGZpbGUubWFlPic=

> <r_epik_Ionization_Penalty>
0.00195486

> <r_epik_Ionization_Penalty_Charging>
0

> <r_epik_Ionization_Penalty_Neutral>
0.00195486

> <r_epik_State_Penalty>
0.00129472

> <r_epik_Charging_Adjusted_Penalty>
0.00129472

> <i_epik_Tot_Q>
0

> <i_epik_Tot_abs_Q>
0

> <r_epik_Metal_State_Penalty>
-0

> <b_epik_Metal_Only>
0

> <s_lp_Force_Field>
OPLS_2005

> <r_lp_Energy>
10.4384

> <b_lp_Chiralities_Consistent>
1

> <s_lp_Variant>
AV-unprocessed.smi:1941-4

> <Gold.Version>
5.8.1

> <Gold.Id.Protein>
6NUR|6NUR_protein|mol2

> <Gold.PLP.Fitness>
42.7488

> <Gold.PLP.PLP>
-34.7076

> <Gold.PLP.part.hbond>
-3.4875

> <Gold.PLP.part.metal>
0.0000

> <Gold.PLP.part.buried>
-3.8452

> <Gold.PLP.part.nonpolar>
-27.8200

> <Gold.PLP.part.repulsive>
1.0459

> <Gold.PLP.ligand.clash>
0.0000

> <Gold.PLP.ligand.torsion>
0.4852

> <Gold.PLP.Chemscore.Hbond>
2.9920

> <Gold.PLP.Chemscore.CHOScore>
0.0000

> <Gold.PLP.Chemscore.Metal>
0.0000

> <Gold.Chemscore.Hbonds>
donor molecule, donor type, donor heavy atom, donor atom, acceptor molecule, acceptor atom, score
      L1  H     7    27       P1  7948  0.95
      L1  H    10    28       P1  7948  1.00
      P1  H  7989  7998       L1    17  1.00

> <Gold.PLP.Chemscore.Internal.Correction>
0.0356

> <Gold.Rescore>
     Score         DG    S(hbond)    S(metal)    S(lipo)     H(rot)  DE(clash)    DE(int)     intcor
     16.98     -17.81       2.34        0.00      75.75       1.69       0.13       0.70       ----

> <Gold.Chemscore.Fitness>
16.9789

> <Gold.Chemscore.DG>
-17.8104

> <Gold.Chemscore.ZeroCoef>
-5.4800

> <Gold.Chemscore.Hbond>
2.3354

> <Gold.Chemscore.Metal>
0.0000

> <Gold.Chemscore.Lipo>
75.7472

> <Gold.Chemscore.Internal_Hbond>
0.0000

> <Gold.Chemscore.DEClash>
0.1283

> <Gold.Chemscore.DEInternal>
0.7032

> <Gold.Chemscore.Rot>
1.6923

> <Gold.Chemscore.Internal.Correction>
   9.000000E+99

> <Gold.Chemscore.Hbonds>
donor molecule, donor type, donor heavy atom, donor atom, acceptor molecule, acceptor atom, score
      L1  H     7    27       P1  7948  0.21
      L1  H    10    28       P1  7948  0.44
      P1  H  7989  7998       L1    17  0.13

> <Gold.Chemscore.Hbond.Weighted>
-7.8003

> <Gold.Chemscore.Metal.Weighted>
-0.0000

> <Gold.Chemscore.Lipo.Weighted>
-8.8624

> <Gold.Chemscore.Internal_Hbond.Weighted>
0.0000

> <Gold.Chemscore.DEClash.Weighted>
0.1283

> <Gold.Chemscore.DEInternal.Weighted>
0.7032

> <Gold.Chemscore.Rot.Weighted>
4.3323

> <Gold.Chemscore.Internal.Correction.Weighted>
   9.000000E+99

> <Gold.Protein.RotatedTorsions>
[ 6907 6896 6895 6894 ] final  142.17 input  -60.11 | X-H torsion
[ 7974 7965 7964 7962 ] final  -57.17 input  175.53 | X-H torsion
[ 8008 7997 7996 7995 ] final   20.65 input   59.86 | X-H torsion
[ 10167 10162 10161 10158 ] final -170.58 input  -65.29 | X-H torsion
[ 10718 10713 10712 10709 ] final    7.63 input   66.30 | X-H torsion
[ 10763 10752 10751 10750 ] final  129.13 input  -60.55 | X-H torsion
[ 11005 11000 10999 10996 ] final   67.37 input  -57.11 | X-H torsion

> <Gold.Protein.ActiveResidues>
 VAL166  LYS551  ARG553  GLY616  TRP617  ASP618  TYR619  PRO620  LYS621  CYS622 
 ASP623  PHE694  ASN695  SER759  ASP760  ASP761  ALA762  ILE779  LEU786  VAL792 
 PHE793  MET794  SER795  GLU796  ALA797  LYS798  CYS799  TRP800  GLU811  SER814 

> <Gold.Protein.RotatedAtoms>
  152.2220  133.4990  159.5167 H   0  0  0  0  0  0  0  0  0  0  0  0  # atno 6907 bound_to 6896
  150.7015  134.1330  159.4086 H   0  0  0  0  0  0  0  0  0  0  0  0  # atno 6908 bound_to 6896
  151.9251  135.0281  160.0575 H   0  0  0  0  0  0  0  0  0  0  0  0  # atno 6909 bound_to 6896
  145.8542  140.8331  142.9970 H   0  0  0  0  0  0  0  0  0  0  0  0  # atno 7974 bound_to 7965
  154.9388  140.3050  155.5131 H   0  0  0  0  0  0  0  0  0  0  0  0  # atno 8008 bound_to 7997
  156.2997  140.2340  156.4392 H   0  0  0  0  0  0  0  0  0  0  0  0  # atno 8009 bound_to 7997
  154.8166  140.0425  157.1369 H   0  0  0  0  0  0  0  0  0  0  0  0  # atno 8010 bound_to 7997
  139.5853  144.1332  152.1567 H   0  0  0  0  0  0  0  0  0  0  0  0  # atno 10167 bound_to 10162
  156.9397  130.5857  149.5652 H   0  0  0  0  0  0  0  0  0  0  0  0  # atno 10718 bound_to 10713
  153.7367  135.3230  155.3296 H   0  0  0  0  0  0  0  0  0  0  0  0  # atno 10763 bound_to 10752
  154.8308  135.4535  154.1067 H   0  0  0  0  0  0  0  0  0  0  0  0  # atno 10764 bound_to 10752
  153.2230  135.6950  153.8059 H   0  0  0  0  0  0  0  0  0  0  0  0  # atno 10765 bound_to 10752
  139.9774  134.6799  156.0327 H   0  0  0  0  0  0  0  0  0  0  0  0  # atno 11005 bound_to 11000
  144.6728  140.0998  143.7461 LP  0  0  0  0  0  0  0  0  0  0  0  0  # atno 17320 bound_to 7965
  145.9323  139.2614  143.1318 LP  0  0  0  0  0  0  0  0  0  0  0  0  # atno 17321 bound_to 7965
  140.0895  144.5633  150.7065 LP  0  0  0  0  0  0  0  0  0  0  0  0  # atno 17342 bound_to 10162
  140.7125  143.2517  151.4535 LP  0  0  0  0  0  0  0  0  0  0  0  0  # atno 17343 bound_to 10162
  156.0410  130.5492  150.8770 LP  0  0  0  0  0  0  0  0  0  0  0  0  # atno 17370 bound_to 10713
  157.5793  131.0946  150.9297 LP  0  0  0  0  0  0  0  0  0  0  0  0  # atno 17371 bound_to 10713
  141.1450  133.6557  156.3841 LP  0  0  0  0  0  0  0  0  0  0  0  0  # atno 17394 bound_to 11000
  140.5165  134.6345  157.5303 LP  0  0  0  0  0  0  0  0  0  0  0  0  # atno 17395 bound_to 11000

$$$$
