AV-unprocessed.smi:2437|AV-procd|sdf|9594|dock3
  -GOLD-   2272013223D 1   1.00000     0.00000
 Structure written by MMmdl.
 34 35  0  0  0  0  0  0  0  0  3 V2000
  151.9810  139.9655  155.3734 O   0  0  0  0  0  0  0  0  0  0  0  0
  151.0510  139.6741  156.1270 C   0  0  0  0  0  0  0  0  0  0  0  0
  151.3116  139.2371  157.5761 C   0  0  0  0  0  0  0  0  0  0  0  0
  151.9611  140.2745  158.3955 N   0  0  0  0  0  0  0  0  0  0  0  0
  151.7621  141.6140  158.0068 C   0  0  0  0  0  0  0  0  0  0  0  0
  152.3145  142.6438  158.6776 C   0  0  0  0  0  0  0  0  0  0  0  0
  152.0992  144.0133  158.2643 N   0  3  0  0  0  0  0  0  0  0  0  0
  152.3743  144.9149  159.0494 O   0  0  0  0  0  0  0  0  0  0  0  0
  151.6474  144.2335  157.1444 O   0  5  0  0  0  0  0  0  0  0  0  0
  153.1368  142.3337  159.8310 C   0  0  0  0  0  0  0  0  0  0  0  0
  153.3325  141.0546  160.2070 C   0  0  0  0  0  0  0  0  0  0  0  0
  152.7294  139.9353  159.4760 C   0  0  0  0  0  0  0  0  0  0  0  0
  152.9050  138.7646  159.8137 O   0  0  0  0  0  0  0  0  0  0  0  0
  149.7629  139.7273  155.7566 N   0  0  0  0  0  0  0  0  0  0  0  0
  149.2833  140.1067  154.4301 C   0  0  0  0  0  0  0  0  0  0  0  0
  148.6043  141.4916  154.4433 C   0  0  0  0  0  0  0  0  0  0  0  0
  147.1097  141.2306  154.2548 C   0  0  0  0  0  0  0  0  0  0  0  0
  147.0571  139.9631  153.4083 C   0  0  0  0  0  0  0  0  0  0  0  0
  148.2177  139.1130  153.9282 C   0  0  0  0  0  0  0  0  0  0  0  0
  150.3594  138.9425  158.0194 H   0  0  0  0  0  0  0  0  0  0  0  0
  151.9154  138.3276  157.5710 H   0  0  0  0  0  0  0  0  0  0  0  0
  151.1406  141.7392  157.1319 H   0  0  0  0  0  0  0  0  0  0  0  0
  153.6034  143.1243  160.4001 H   0  0  0  0  0  0  0  0  0  0  0  0
  153.9504  140.8461  161.0681 H   0  0  0  0  0  0  0  0  0  0  0  0
  149.0622  139.4802  156.4405 H   0  0  0  0  0  0  0  0  0  0  0  0
  150.1223  140.1202  153.7316 H   0  0  0  0  0  0  0  0  0  0  0  0
  148.8061  142.0697  155.3460 H   0  0  0  0  0  0  0  0  0  0  0  0
  148.9745  142.0777  153.6012 H   0  0  0  0  0  0  0  0  0  0  0  0
  146.6428  141.0461  155.2233 H   0  0  0  0  0  0  0  0  0  0  0  0
  146.5920  142.0693  153.7888 H   0  0  0  0  0  0  0  0  0  0  0  0
  146.0968  139.4513  153.4762 H   0  0  0  0  0  0  0  0  0  0  0  0
  147.2271  140.2157  152.3608 H   0  0  0  0  0  0  0  0  0  0  0  0
  148.6075  138.4435  153.1608 H   0  0  0  0  0  0  0  0  0  0  0  0
  147.8581  138.4873  154.7469 H   0  0  0  0  0  0  0  0  0  0  0  0
  1  2  2  0  0  0  0
  2  3  1  0  0  0  0
  2 14  1  0  0  0  0
  3  4  1  0  0  0  0
  3 20  1  0  0  0  0
  3 21  1  0  0  0  0
  4 12  1  0  0  0  0
  4  5  1  0  0  0  0
  5  6  2  0  0  0  0
  5 22  1  0  0  0  0
  6  7  1  0  0  0  0
  6 10  1  0  0  0  0
  7  8  2  0  0  0  0
  7  9  1  0  0  0  0
 10 11  2  0  0  0  0
 10 23  1  0  0  0  0
 11 12  1  0  0  0  0
 11 24  1  0  0  0  0
 12 13  2  0  0  0  0
 14 15  1  0  0  0  0
 14 25  1  0  0  0  0
 15 19  1  0  0  0  0
 15 16  1  0  0  0  0
 15 26  1  0  0  0  0
 16 17  1  0  0  0  0
 16 27  1  0  0  0  0
 16 28  1  0  0  0  0
 17 18  1  0  0  0  0
 17 29  1  0  0  0  0
 17 30  1  0  0  0  0
 18 19  1  0  0  0  0
 18 31  1  0  0  0  0
 18 32  1  0  0  0  0
 19 33  1  0  0  0  0
 19 34  1  0  0  0  0
M  CHG  1   7   1
M  CHG  1   9  -1
M  END
> <s_m_source_file>
AV-unprocessed.smi

> <i_m_source_file_index>
2437

> <i_lp_mmshare_version>
43012

> <i_f3d_flags>
0

> <s_epik_input>
W0NIMl0xW0NIMl1bQ0gyXVtDSDJdW0NIXTFbTkhdQyg9TylbQ0gyXW4yW2NIXWMoW04rXSg9TylbTy1dKVtjSF1bY0hdYzI9Tw==

> <s_epik_cmdline>
J2VwaWtfcHl0aG9uJywgJy1waCcsICc3LjAnLCAnLXRuJywgJzgnLCAnLW1hJywgJzIwMCcsICctbWV0YWxfYmluZGluZycsICctaW1hZScsICc8aW5maWxlLm1hZT4nLCAnLW9tYWUnLCAnPG91dGZpbGUubWFlPic=

> <r_lp_tautomer_probability>
1

> <r_epik_Ionization_Penalty>
1.93821e-08

> <r_epik_Ionization_Penalty_Charging>
8.03436e-11

> <r_epik_Ionization_Penalty_Neutral>
1.93017e-08

> <r_epik_State_Penalty>
-0

> <r_epik_Charging_Adjusted_Penalty>
8.03436e-11

> <i_epik_Tot_Q>
0

> <i_epik_Tot_abs_Q>
2

> <r_epik_Metal_State_Penalty>
-0

> <b_epik_Metal_Only>
0

> <s_lp_Force_Field>
OPLS_2005

> <r_lp_Energy>
29.2975

> <b_lp_Chiralities_Consistent>
1

> <s_lp_Variant>
AV-unprocessed.smi:2437-1

> <Gold.Version>
5.8.1

> <Gold.Id.Protein>
6NUR|6NUR_protein|mol2

> <Gold.PLP.Fitness>
39.7495

> <Gold.PLP.PLP>
-38.6318

> <Gold.PLP.part.hbond>
-1.0000

> <Gold.PLP.part.metal>
0.0000

> <Gold.PLP.part.buried>
-3.5855

> <Gold.PLP.part.nonpolar>
-34.1410

> <Gold.PLP.part.repulsive>
0.2410

> <Gold.PLP.ligand.clash>
0.0000

> <Gold.PLP.ligand.torsion>
0.6040

> <Gold.PLP.Chemscore.Hbond>
0.7680

> <Gold.PLP.Chemscore.CHOScore>
0.0000

> <Gold.PLP.Chemscore.Metal>
0.0000

> <Gold.Chemscore.Hbonds>
donor molecule, donor type, donor heavy atom, donor atom, acceptor molecule, acceptor atom, score
      P1  H  7989  7998       L1     1  0.70

> <Gold.PLP.Chemscore.Internal.Correction>
0.0217

> <Gold.Rescore>
     Score         DG    S(hbond)    S(metal)    S(lipo)     H(rot)  DE(clash)    DE(int)     intcor
     12.68     -13.21       0.92        0.00      74.35       1.58       0.07       0.45       ----

> <Gold.Chemscore.Fitness>
12.6814

> <Gold.Chemscore.DG>
-13.2061

> <Gold.Chemscore.ZeroCoef>
-5.4800

> <Gold.Chemscore.Hbond>
0.9220

> <Gold.Chemscore.Metal>
0.0000

> <Gold.Chemscore.Lipo>
74.3521

> <Gold.Chemscore.Internal_Hbond>
0.0000

> <Gold.Chemscore.DEClash>
0.0741

> <Gold.Chemscore.DEInternal>
0.4506

> <Gold.Chemscore.Rot>
1.5831

> <Gold.Chemscore.Internal.Correction>
   9.000000E+99

> <Gold.Chemscore.Hbonds>
donor molecule, donor type, donor heavy atom, donor atom, acceptor molecule, acceptor atom, score
      P1  H  7989  7998       L1     1  0.68
      P1  H  7997  8008       L1     1  0.01

> <Gold.Chemscore.Hbond.Weighted>
-3.0796

> <Gold.Chemscore.Metal.Weighted>
-0.0000

> <Gold.Chemscore.Lipo.Weighted>
-8.6992

> <Gold.Chemscore.Internal_Hbond.Weighted>
0.0000

> <Gold.Chemscore.DEClash.Weighted>
0.0741

> <Gold.Chemscore.DEInternal.Weighted>
0.4506

> <Gold.Chemscore.Rot.Weighted>
4.0527

> <Gold.Chemscore.Internal.Correction.Weighted>
   9.000000E+99

> <Gold.Protein.RotatedTorsions>
[ 6907 6896 6895 6894 ] final   97.44 input  -60.11 | X-H torsion
[ 7974 7965 7964 7962 ] final  169.37 input  175.53 | X-H torsion
[ 8008 7997 7996 7995 ] final  -38.26 input   59.86 | X-H torsion
[ 10167 10162 10161 10158 ] final -118.90 input  -65.29 | X-H torsion
[ 10718 10713 10712 10709 ] final   90.05 input   66.30 | X-H torsion
[ 10763 10752 10751 10750 ] final  -80.44 input  -60.55 | X-H torsion
[ 11005 11000 10999 10996 ] final  -87.87 input  -57.11 | X-H torsion

> <Gold.Protein.ActiveResidues>
 VAL166  LYS551  ARG553  GLY616  TRP617  ASP618  TYR619  PRO620  LYS621  CYS622 
 ASP623  PHE694  ASN695  SER759  ASP760  ASP761  ALA762  ILE779  LEU786  VAL792 
 PHE793  MET794  SER795  GLU796  ALA797  LYS798  CYS799  TRP800  GLU811  SER814 

> <Gold.Protein.RotatedAtoms>
  152.5423  134.0733  159.8203 H   0  0  0  0  0  0  0  0  0  0  0  0  # atno 6907 bound_to 6896
  151.0845  133.5357  159.2626 H   0  0  0  0  0  0  0  0  0  0  0  0  # atno 6908 bound_to 6896
  151.2171  135.0513  159.8989 H   0  0  0  0  0  0  0  0  0  0  0  0  # atno 6909 bound_to 6896
  144.7357  139.9045  143.6411 H   0  0  0  0  0  0  0  0  0  0  0  0  # atno 7974 bound_to 7965
  154.4040  140.1582  156.2671 H   0  0  0  0  0  0  0  0  0  0  0  0  # atno 8008 bound_to 7997
  155.8986  140.3434  155.5987 H   0  0  0  0  0  0  0  0  0  0  0  0  # atno 8009 bound_to 7997
  155.7474  140.0800  157.2208 H   0  0  0  0  0  0  0  0  0  0  0  0  # atno 8010 bound_to 7997
  140.0525  143.5046  152.2074 H   0  0  0  0  0  0  0  0  0  0  0  0  # atno 10167 bound_to 10162
  157.6958  131.0356  150.3519 H   0  0  0  0  0  0  0  0  0  0  0  0  # atno 10718 bound_to 10713
  154.5512  135.5661  153.6924 H   0  0  0  0  0  0  0  0  0  0  0  0  # atno 10763 bound_to 10752
  152.9990  135.6251  154.2371 H   0  0  0  0  0  0  0  0  0  0  0  0  # atno 10764 bound_to 10752
  154.2306  135.2866  155.2871 H   0  0  0  0  0  0  0  0  0  0  0  0  # atno 10765 bound_to 10752
  141.1610  133.7537  156.9370 H   0  0  0  0  0  0  0  0  0  0  0  0  # atno 11005 bound_to 11000
  146.1047  139.4046  143.0325 LP  0  0  0  0  0  0  0  0  0  0  0  0  # atno 17320 bound_to 7965
  145.7528  140.9966  143.1241 LP  0  0  0  0  0  0  0  0  0  0  0  0  # atno 17321 bound_to 7965
  139.5944  144.7562  151.3321 LP  0  0  0  0  0  0  0  0  0  0  0  0  # atno 17342 bound_to 10162
  140.7210  143.7135  150.7751 LP  0  0  0  0  0  0  0  0  0  0  0  0  # atno 17343 bound_to 10162
  156.3966  130.3908  149.6990 LP  0  0  0  0  0  0  0  0  0  0  0  0  # atno 17370 bound_to 10713
  156.4322  130.7820  151.2840 LP  0  0  0  0  0  0  0  0  0  0  0  0  # atno 17371 bound_to 10713
  140.1348  134.9332  157.2386 LP  0  0  0  0  0  0  0  0  0  0  0  0  # atno 17394 bound_to 11000
  140.2909  134.3241  155.7315 LP  0  0  0  0  0  0  0  0  0  0  0  0  # atno 17395 bound_to 11000

$$$$
