AV-unprocessed.smi:1583|AV-procd|sdf|6364|dock5
  -GOLD-   22720 6593D 1   1.00000     0.00000
 Structure written by MMmdl.
 37 38  0  0  0  0  0  0  0  0  2 V2000
  154.5352  135.6539  163.1352 C   0  0  0  0  0  0  0  0  0  0  0  0
  154.3928  136.9669  162.5249 N   0  0  0  0  0  0  0  0  0  0  0  0
  153.9860  137.1719  161.2637 C   0  0  0  0  0  0  0  0  0  0  0  0
  153.6914  136.2612  160.4900 O   0  0  0  0  0  0  0  0  0  0  0  0
  153.9076  138.6235  160.7989 C   0  0  0  0  0  0  0  0  0  0  0  0
  152.7432  138.8544  159.4273 S   0  0  0  0  0  0  0  0  0  0  0  0
  152.3568  140.5757  159.4179 C   0  0  0  0  0  0  0  0  0  0  0  0
  152.8487  141.5120  160.2759 N   0  3  0  0  0  0  0  0  0  0  0  0
  152.3073  142.7602  159.9643 C   0  0  0  0  0  0  0  0  0  0  0  0
  152.4992  144.0082  160.5487 C   0  0  0  0  0  0  0  0  0  0  0  0
  151.7853  145.0868  159.9860 C   0  0  0  0  0  0  0  0  0  0  0  0
  150.9221  144.9027  158.8861 C   0  0  0  0  0  0  0  0  0  0  0  0
  150.7360  143.6328  158.3010 C   0  0  0  0  0  0  0  0  0  0  0  0
  151.4459  142.5721  158.8627 C   0  0  0  0  0  0  0  0  0  0  0  0
  151.5107  141.2084  158.5574 N   0  0  0  0  0  0  0  0  0  0  0  0
  150.7092  140.6809  157.4442 C   0  0  0  0  0  0  0  0  0  0  0  0
  151.1148  141.2909  156.0947 C   0  0  0  0  0  0  0  0  0  0  0  0
  151.0423  140.2990  155.0834 O   0  0  0  0  0  0  0  0  0  0  0  0
  151.9509  139.2344  155.3015 C   0  0  0  0  0  0  0  0  0  0  0  0
  154.8627  135.7580  164.1698 H   0  0  0  0  0  0  0  0  0  0  0  0
  155.2756  135.0563  162.6013 H   0  0  0  0  0  0  0  0  0  0  0  0
  153.5853  135.1177  163.1305 H   0  0  0  0  0  0  0  0  0  0  0  0
  154.6133  137.7694  163.0971 H   0  0  0  0  0  0  0  0  0  0  0  0
  153.6067  139.2553  161.6353 H   0  0  0  0  0  0  0  0  0  0  0  0
  154.8967  138.9579  160.4835 H   0  0  0  0  0  0  0  0  0  0  0  0
  153.1590  144.1520  161.3919 H   0  0  0  0  0  0  0  0  0  0  0  0
  151.9017  146.0751  160.4069 H   0  0  0  0  0  0  0  0  0  0  0  0
  150.3912  145.7529  158.4828 H   0  0  0  0  0  0  0  0  0  0  0  0
  150.0714  143.5018  157.4597 H   0  0  0  0  0  0  0  0  0  0  0  0
  150.7988  139.5944  157.4273 H   0  0  0  0  0  0  0  0  0  0  0  0
  149.6621  140.9010  157.6531 H   0  0  0  0  0  0  0  0  0  0  0  0
  150.4544  142.1230  155.8461 H   0  0  0  0  0  0  0  0  0  0  0  0
  152.1286  141.6883  156.1595 H   0  0  0  0  0  0  0  0  0  0  0  0
  151.8574  138.5030  154.4987 H   0  0  0  0  0  0  0  0  0  0  0  0
  151.7449  138.7271  156.2448 H   0  0  0  0  0  0  0  0  0  0  0  0
  152.9815  139.5914  155.3132 H   0  0  0  0  0  0  0  0  0  0  0  0
  153.5040  141.3095  161.0195 H   0  0  0  0  0  0  0  0  0  0  0  0
  1  2  1  0  0  0  0
  1 20  1  0  0  0  0
  1 21  1  0  0  0  0
  1 22  1  0  0  0  0
  2  3  1  0  0  0  0
  2 23  1  0  0  0  0
  3  4  2  0  0  0  0
  3  5  1  0  0  0  0
  5  6  1  0  0  0  0
  5 24  1  0  0  0  0
  5 25  1  0  0  0  0
  6  7  1  0  0  0  0
  7 15  1  0  0  0  0
  7  8  2  0  0  0  0
  8  9  1  0  0  0  0
  8 37  1  0  0  0  0
  9 14  2  0  0  0  0
  9 10  1  0  0  0  0
 10 11  2  0  0  0  0
 10 26  1  0  0  0  0
 11 12  1  0  0  0  0
 11 27  1  0  0  0  0
 12 13  2  0  0  0  0
 12 28  1  0  0  0  0
 13 14  1  0  0  0  0
 13 29  1  0  0  0  0
 14 15  1  0  0  0  0
 15 16  1  0  0  0  0
 16 17  1  0  0  0  0
 16 30  1  0  0  0  0
 16 31  1  0  0  0  0
 17 18  1  0  0  0  0
 17 32  1  0  0  0  0
 17 33  1  0  0  0  0
 18 19  1  0  0  0  0
 19 34  1  0  0  0  0
 19 35  1  0  0  0  0
 19 36  1  0  0  0  0
M  CHG  1   8   1
M  END
> <s_m_source_file>
AV-unprocessed.smi

> <i_m_source_file_index>
1583

> <i_lp_mmshare_version>
43012

> <i_f3d_flags>
0

> <s_epik_input>
W0NIM11bTkhdQyg9TylbQ0gyXVNjKG4xKW4oW0NIMl1bQ0gyXU9bQ0gzXSljKGMxMilbY0hdW2NIXVtjSF1bY0hdMg==

> <s_epik_cmdline>
J2VwaWtfcHl0aG9uJywgJy1waCcsICc3LjAnLCAnLXRuJywgJzgnLCAnLW1hJywgJzIwMCcsICctbWV0YWxfYmluZGluZycsICctaW1hZScsICc8aW5maWxlLm1hZT4nLCAnLW9tYWUnLCAnPG91dGZpbGUubWFlPic=

> <r_epik_Ionization_Penalty>
1.68337

> <r_epik_Ionization_Penalty_Charging>
1.68337

> <r_epik_Ionization_Penalty_Neutral>
1.65978e-07

> <r_epik_State_Penalty>
1.78799

> <r_epik_Charging_Adjusted_Penalty>
3.47136

> <i_epik_Tot_Q>
1

> <i_epik_Tot_abs_Q>
1

> <r_epik_Metal_State_Penalty>
1.82204

> <b_epik_Metal_Only>
0

> <s_lp_Force_Field>
OPLS_2005

> <r_lp_Energy>
8.62321

> <b_lp_Chiralities_Consistent>
1

> <s_lp_Variant>
AV-unprocessed.smi:1583-2

> <Gold.Version>
5.8.1

> <Gold.Id.Protein>
6NUR|6NUR_protein|mol2

> <Gold.PLP.Fitness>
46.3359

> <Gold.PLP.PLP>
-41.7004

> <Gold.PLP.part.hbond>
-2.0000

> <Gold.PLP.part.metal>
0.0000

> <Gold.PLP.part.buried>
-7.8505

> <Gold.PLP.part.nonpolar>
-32.4879

> <Gold.PLP.part.repulsive>
0.1558

> <Gold.PLP.ligand.clash>
0.0000

> <Gold.PLP.ligand.torsion>
0.7028

> <Gold.PLP.Chemscore.Hbond>
2.0000

> <Gold.PLP.Chemscore.CHOScore>
0.0000

> <Gold.PLP.Chemscore.Metal>
0.0000

> <Gold.Chemscore.Hbonds>
donor molecule, donor type, donor heavy atom, donor atom, acceptor molecule, acceptor atom, score
      P1  H  6896  6908       L1     4  1.00
      P1  H  7989  7998       L1    18  1.00

> <Gold.PLP.Chemscore.Internal.Correction>
0.0412

> <Gold.Rescore>
     Score         DG    S(hbond)    S(metal)    S(lipo)     H(rot)  DE(clash)    DE(int)     intcor
     17.15     -17.85       1.82        0.00     103.17       2.25       0.02       0.68       ----

> <Gold.Chemscore.Fitness>
17.1469

> <Gold.Chemscore.DG>
-17.8468

> <Gold.Chemscore.ZeroCoef>
-5.4800

> <Gold.Chemscore.Hbond>
1.8168

> <Gold.Chemscore.Metal>
0.0000

> <Gold.Chemscore.Lipo>
103.1673

> <Gold.Chemscore.Internal_Hbond>
0.0000

> <Gold.Chemscore.DEClash>
0.0173

> <Gold.Chemscore.DEInternal>
0.6826

> <Gold.Chemscore.Rot>
2.2546

> <Gold.Chemscore.Internal.Correction>
   9.000000E+99

> <Gold.Chemscore.Hbonds>
donor molecule, donor type, donor heavy atom, donor atom, acceptor molecule, acceptor atom, score
      P1  H  6896  6908       L1     4  0.94
      P1  H  7989  7998       L1    18  0.22

> <Gold.Chemscore.Hbond.Weighted>
-6.0681

> <Gold.Chemscore.Metal.Weighted>
-0.0000

> <Gold.Chemscore.Lipo.Weighted>
-12.0706

> <Gold.Chemscore.Internal_Hbond.Weighted>
0.0000

> <Gold.Chemscore.DEClash.Weighted>
0.0173

> <Gold.Chemscore.DEInternal.Weighted>
0.6826

> <Gold.Chemscore.Rot.Weighted>
5.7719

> <Gold.Chemscore.Internal.Correction.Weighted>
   9.000000E+99

> <Gold.Protein.RotatedTorsions>
[ 6907 6896 6895 6894 ] final  -75.05 input  -60.11 | X-H torsion
[ 7974 7965 7964 7962 ] final -161.93 input  175.53 | X-H torsion
[ 8008 7997 7996 7995 ] final  -29.70 input   59.86 | X-H torsion
[ 10167 10162 10161 10158 ] final  -57.46 input  -65.29 | X-H torsion
[ 10718 10713 10712 10709 ] final  -38.63 input   66.30 | X-H torsion
[ 10763 10752 10751 10750 ] final   25.59 input  -60.55 | X-H torsion
[ 11005 11000 10999 10996 ] final    1.13 input  -57.11 | X-H torsion

> <Gold.Protein.ActiveResidues>
 VAL166  LYS551  ARG553  GLY616  TRP617  ASP618  TYR619  PRO620  LYS621  CYS622 
 ASP623  PHE694  ASN695  SER759  ASP760  ASP761  ALA762  ILE779  LEU786  VAL792 
 PHE793  MET794  SER795  GLU796  ALA797  LYS798  CYS799  TRP800  GLU811  SER814 

> <Gold.Protein.RotatedAtoms>
  150.7072  134.4778  159.5455 H   0  0  0  0  0  0  0  0  0  0  0  0  # atno 6907 bound_to 6896
  152.2421  134.8215  160.0468 H   0  0  0  0  0  0  0  0  0  0  0  0  # atno 6908 bound_to 6896
  151.8993  133.3499  159.3862 H   0  0  0  0  0  0  0  0  0  0  0  0  # atno 6909 bound_to 6896
  144.7374  140.3326  143.6150 H   0  0  0  0  0  0  0  0  0  0  0  0  # atno 7974 bound_to 7965
  154.4279  140.1811  156.1290 H   0  0  0  0  0  0  0  0  0  0  0  0  # atno 8008 bound_to 7997
  156.0083  140.3353  155.6889 H   0  0  0  0  0  0  0  0  0  0  0  0  # atno 8009 bound_to 7997
  155.6147  140.0653  157.2686 H   0  0  0  0  0  0  0  0  0  0  0  0  # atno 8010 bound_to 7997
  140.6257  143.2437  151.5370 H   0  0  0  0  0  0  0  0  0  0  0  0  # atno 10167 bound_to 10162
  156.3016  130.4241  149.8137 H   0  0  0  0  0  0  0  0  0  0  0  0  # atno 10718 bound_to 10713
  153.0681  135.6579  154.0308 H   0  0  0  0  0  0  0  0  0  0  0  0  # atno 10763 bound_to 10752
  153.9960  135.2941  155.3409 H   0  0  0  0  0  0  0  0  0  0  0  0  # atno 10764 bound_to 10752
  154.7046  135.5230  153.8646 H   0  0  0  0  0  0  0  0  0  0  0  0  # atno 10765 bound_to 10752
  140.6189  133.9679  155.8215 H   0  0  0  0  0  0  0  0  0  0  0  0  # atno 11005 bound_to 11000
  145.7457  139.1778  143.2351 LP  0  0  0  0  0  0  0  0  0  0  0  0  # atno 17320 bound_to 7965
  146.1100  140.7440  142.9508 LP  0  0  0  0  0  0  0  0  0  0  0  0  # atno 17321 bound_to 7965
  139.5477  144.2476  152.1474 LP  0  0  0  0  0  0  0  0  0  0  0  0  # atno 17342 bound_to 10162
  140.1707  144.4938  150.6581 LP  0  0  0  0  0  0  0  0  0  0  0  0  # atno 17343 bound_to 10162
  156.5514  130.8343  151.3300 LP  0  0  0  0  0  0  0  0  0  0  0  0  # atno 17370 bound_to 10713
  157.7369  130.9787  150.2164 LP  0  0  0  0  0  0  0  0  0  0  0  0  # atno 17371 bound_to 10713
  141.0756  134.0140  157.3462 LP  0  0  0  0  0  0  0  0  0  0  0  0  # atno 17394 bound_to 11000
  139.9161  135.0197  156.7887 LP  0  0  0  0  0  0  0  0  0  0  0  0  # atno 17395 bound_to 11000

$$$$
