AV-unprocessed.smi:826|AV-procd|sdf|3853|dock4
  -GOLD-   22720 1303D 1   1.00000     0.00000
 Structure written by MMmdl.
 39 40  0  0  0  0  0  0  0  0  1 V2000
  153.2360  137.7574  157.6155 C   0  0  0  0  0  0  0  0  0  0  0  0
  152.4058  138.3448  156.5262 C   0  0  0  0  0  0  0  0  0  0  0  0
  152.5459  139.6120  156.1189 N   0  0  0  0  0  0  0  0  0  0  0  0
  151.6647  139.9366  155.0971 N   0  0  0  0  0  0  0  0  0  0  0  0
  150.8833  138.9004  154.7627 C   0  0  0  0  0  0  0  0  0  0  0  0
  149.8858  138.9576  153.7537 N   0  0  0  0  0  0  0  0  0  0  0  0
  148.5561  138.8135  153.8892 C   0  0  0  0  0  0  0  0  0  0  0  0
  147.9621  138.6462  154.9550 O   0  0  0  0  0  0  0  0  0  0  0  0
  147.9365  138.8721  152.7002 N   0  0  0  0  0  0  0  0  0  0  0  0
  146.4981  138.7090  152.4933 C   0  0  1  0  0  0  0  0  0  0  0  0
  146.2417  138.5739  150.9832 C   0  0  0  0  0  0  0  0  0  0  0  0
  145.9981  137.4334  153.1898 C   0  0  0  0  0  0  0  0  0  0  0  0
  145.0812  137.4869  154.0111 O   0  0  0  0  0  0  0  0  0  0  0  0
  146.6155  136.2923  152.8490 N   0  0  0  0  0  0  0  0  0  0  0  0
  146.2772  134.9684  153.3631 C   0  0  0  0  0  0  0  0  0  0  0  0
  147.5265  134.2633  153.9253 C   0  0  0  0  0  0  0  0  0  0  0  0
  147.5250  132.8559  153.3261 C   0  0  0  0  0  0  0  0  0  0  0  0
  146.8315  133.0212  151.9781 C   0  0  0  0  0  0  0  0  0  0  0  0
  145.7352  134.0524  152.2466 C   0  0  0  0  0  0  0  0  0  0  0  0
  151.1653  137.4292  155.6778 S   0  0  0  0  0  0  0  0  0  0  0  0
  154.2943  137.8405  157.3666 H   0  0  0  0  0  0  0  0  0  0  0  0
  152.9914  136.7042  157.7545 H   0  0  0  0  0  0  0  0  0  0  0  0
  153.0521  138.2852  158.5516 H   0  0  0  0  0  0  0  0  0  0  0  0
  150.2273  139.1045  152.8153 H   0  0  0  0  0  0  0  0  0  0  0  0
  148.5003  139.0088  151.8742 H   0  0  0  0  0  0  0  0  0  0  0  0
  145.9684  139.5839  152.8759 H   0  0  0  0  0  0  0  0  0  0  0  0
  145.1788  138.4487  150.7726 H   0  0  0  0  0  0  0  0  0  0  0  0
  146.7685  137.7195  150.5552 H   0  0  0  0  0  0  0  0  0  0  0  0
  146.5743  139.4656  150.4507 H   0  0  0  0  0  0  0  0  0  0  0  0
  147.3572  136.3408  152.1656 H   0  0  0  0  0  0  0  0  0  0  0  0
  145.5287  135.0625  154.1521 H   0  0  0  0  0  0  0  0  0  0  0  0
  148.4346  134.7802  153.6112 H   0  0  0  0  0  0  0  0  0  0  0  0
  147.5309  134.2413  155.0154 H   0  0  0  0  0  0  0  0  0  0  0  0
  148.5275  132.4369  153.2353 H   0  0  0  0  0  0  0  0  0  0  0  0
  146.9400  132.1872  153.9586 H   0  0  0  0  0  0  0  0  0  0  0  0
  147.5376  133.4178  151.2474 H   0  0  0  0  0  0  0  0  0  0  0  0
  146.4392  132.0817  151.5882 H   0  0  0  0  0  0  0  0  0  0  0  0
  144.8412  133.5411  152.6058 H   0  0  0  0  0  0  0  0  0  0  0  0
  145.4517  134.5892  151.3399 H   0  0  0  0  0  0  0  0  0  0  0  0
  1  2  1  0  0  0  0
  1 21  1  0  0  0  0
  1 22  1  0  0  0  0
  1 23  1  0  0  0  0
  2 20  1  0  0  0  0
  2  3  2  0  0  0  0
  3  4  1  0  0  0  0
  4  5  2  0  0  0  0
  5  6  1  0  0  0  0
  5 20  1  0  0  0  0
  6  7  1  0  0  0  0
  6 24  1  0  0  0  0
  7  8  2  0  0  0  0
  7  9  1  0  0  0  0
  9 10  1  0  0  0  0
  9 25  1  0  0  0  0
 10 11  1  0  0  0  0
 10 12  1  0  0  0  0
 10 26  1  0  0  0  0
 11 27  1  0  0  0  0
 11 28  1  0  0  0  0
 11 29  1  0  0  0  0
 12 13  2  0  0  0  0
 12 14  1  0  0  0  0
 14 15  1  0  0  0  0
 14 30  1  0  0  0  0
 15 19  1  0  0  0  0
 15 16  1  0  0  0  0
 15 31  1  0  0  0  0
 16 17  1  0  0  0  0
 16 32  1  0  0  0  0
 16 33  1  0  0  0  0
 17 18  1  0  0  0  0
 17 34  1  0  0  0  0
 17 35  1  0  0  0  0
 18 19  1  0  0  0  0
 18 36  1  0  0  0  0
 18 37  1  0  0  0  0
 19 38  1  0  0  0  0
 19 39  1  0  0  0  0
M  END
> <s_m_source_file>
AV-unprocessed.smi

> <i_m_source_file_index>
826

> <i_lp_mmshare_version>
43012

> <i_f3d_flags>
0

> <s_epik_input>
W0NIM11jMW5uYyhzMSlbTkhdQyg9TylbTkhdW0NASF0oW0NIM10pQyg9TylbTkhdW0NIXTJbQ0gyXVtDSDJdW0NIMl1bQ0gyXTI=

> <s_epik_cmdline>
J2VwaWtfcHl0aG9uJywgJy1waCcsICc3LjAnLCAnLXRuJywgJzgnLCAnLW1hJywgJzIwMCcsICctbWV0YWxfYmluZGluZycsICctaW1hZScsICc8aW5maWxlLm1hZT4nLCAnLW9tYWUnLCAnPG91dGZpbGUubWFlPic=

> <r_lp_tautomer_probability>
1

> <r_epik_Ionization_Penalty>
0.00368568

> <r_epik_Ionization_Penalty_Charging>
0

> <r_epik_Ionization_Penalty_Neutral>
0.00368568

> <r_epik_State_Penalty>
-0

> <r_epik_Charging_Adjusted_Penalty>
0

> <i_epik_Tot_Q>
0

> <i_epik_Tot_abs_Q>
0

> <r_epik_Metal_State_Penalty>
0.369753

> <b_epik_Metal_Only>
0

> <s_lp_Force_Field>
OPLS_2005

> <r_lp_Energy>
15.8717

> <b_lp_Chiralities_Consistent>
1

> <s_lp_Variant>
AV-unprocessed.smi:826-2

> <Gold.Version>
5.8.1

> <Gold.Id.Protein>
6NUR|6NUR_protein|mol2

> <Gold.PLP.Fitness>
41.3495

> <Gold.PLP.PLP>
-28.6206

> <Gold.PLP.part.hbond>
-5.7598

> <Gold.PLP.part.metal>
0.0000

> <Gold.PLP.part.buried>
-0.8622

> <Gold.PLP.part.nonpolar>
-23.6733

> <Gold.PLP.part.repulsive>
0.3535

> <Gold.PLP.ligand.clash>
0.0000

> <Gold.PLP.ligand.torsion>
0.7664

> <Gold.PLP.Chemscore.Hbond>
4.7520

> <Gold.PLP.Chemscore.CHOScore>
0.0000

> <Gold.PLP.Chemscore.Metal>
0.0000

> <Gold.Chemscore.Hbonds>
donor molecule, donor type, donor heavy atom, donor atom, acceptor molecule, acceptor atom, score
      L1  H     6    24       P1  7957  0.77
      L1  H     9    25       P1  7957  0.90
      L1  H    14    30       P1  7948  0.98
      P1  H  7989  7998       L1     4  1.00
      P1  H  7997  8009       L1     3  1.00

> <Gold.PLP.Chemscore.Internal.Correction>
0.0058

> <Gold.Rescore>
     Score         DG    S(hbond)    S(metal)    S(lipo)     H(rot)  DE(clash)    DE(int)     intcor
     17.31     -21.00       4.04        0.00      53.25       1.65       1.55       2.14       ----

> <Gold.Chemscore.Fitness>
17.3061

> <Gold.Chemscore.DG>
-21.0033

> <Gold.Chemscore.ZeroCoef>
-5.4800

> <Gold.Chemscore.Hbond>
4.0439

> <Gold.Chemscore.Metal>
0.0000

> <Gold.Chemscore.Lipo>
53.2474

> <Gold.Chemscore.Internal_Hbond>
0.0000

> <Gold.Chemscore.DEClash>
1.5530

> <Gold.Chemscore.DEInternal>
2.1442

> <Gold.Chemscore.Rot>
1.6458

> <Gold.Chemscore.Internal.Correction>
   9.000000E+99

> <Gold.Chemscore.Hbonds>
donor molecule, donor type, donor heavy atom, donor atom, acceptor molecule, acceptor atom, score
      L1  H     6    24       P1  7957  0.52
      L1  H     9    25       P1  7957  0.81
      L1  H    14    30       P1  7948  0.92
      P1  H  7989  7998       L1     4  0.24
      P1  H  7997  8009       L1     3  0.78

> <Gold.Chemscore.Hbond.Weighted>
-13.5067

> <Gold.Chemscore.Metal.Weighted>
-0.0000

> <Gold.Chemscore.Lipo.Weighted>
-6.2299

> <Gold.Chemscore.Internal_Hbond.Weighted>
0.0000

> <Gold.Chemscore.DEClash.Weighted>
1.5530

> <Gold.Chemscore.DEInternal.Weighted>
2.1442

> <Gold.Chemscore.Rot.Weighted>
4.2133

> <Gold.Chemscore.Internal.Correction.Weighted>
   9.000000E+99

> <Gold.Protein.RotatedTorsions>
[ 6907 6896 6895 6894 ] final -166.98 input  -60.11 | X-H torsion
[ 7974 7965 7964 7962 ] final  174.09 input  175.53 | X-H torsion
[ 8008 7997 7996 7995 ] final -155.29 input   59.86 | X-H torsion
[ 10167 10162 10161 10158 ] final   36.90 input  -65.29 | X-H torsion
[ 10718 10713 10712 10709 ] final  -19.93 input   66.30 | X-H torsion
[ 10763 10752 10751 10750 ] final   43.13 input  -60.55 | X-H torsion
[ 11005 11000 10999 10996 ] final -107.41 input  -57.11 | X-H torsion

> <Gold.Protein.ActiveResidues>
 VAL166  LYS551  ARG553  GLY616  TRP617  ASP618  TYR619  PRO620  LYS621  CYS622 
 ASP623  PHE694  ASN695  SER759  ASP760  ASP761  ALA762  ILE779  LEU786  VAL792 
 PHE793  MET794  SER795  GLU796  ALA797  LYS798  CYS799  TRP800  GLU811  SER814 

> <Gold.Protein.RotatedAtoms>
  151.4522  133.3614  159.2796 H   0  0  0  0  0  0  0  0  0  0  0  0  # atno 6907 bound_to 6896
  150.9083  134.8500  159.7418 H   0  0  0  0  0  0  0  0  0  0  0  0  # atno 6908 bound_to 6896
  152.4918  134.4449  159.9607 H   0  0  0  0  0  0  0  0  0  0  0  0  # atno 6909 bound_to 6896
  144.7229  139.9745  143.6437 H   0  0  0  0  0  0  0  0  0  0  0  0  # atno 7974 bound_to 7965
  155.6996  140.0765  157.2416 H   0  0  0  0  0  0  0  0  0  0  0  0  # atno 8008 bound_to 7997
  154.4075  140.1650  156.2229 H   0  0  0  0  0  0  0  0  0  0  0  0  # atno 8009 bound_to 7997
  155.9380  140.3386  155.6306 H   0  0  0  0  0  0  0  0  0  0  0  0  # atno 8010 bound_to 7997
  140.4084  144.1627  150.6137 H   0  0  0  0  0  0  0  0  0  0  0  0  # atno 10167 bound_to 10162
  156.5389  130.4673  149.6509 H   0  0  0  0  0  0  0  0  0  0  0  0  # atno 10718 bound_to 10713
  152.9867  135.6110  154.3062 H   0  0  0  0  0  0  0  0  0  0  0  0  # atno 10763 bound_to 10752
  154.2780  135.2778  155.2711 H   0  0  0  0  0  0  0  0  0  0  0  0  # atno 10764 bound_to 10752
  154.5063  135.5853  153.6626 H   0  0  0  0  0  0  0  0  0  0  0  0  # atno 10765 bound_to 10752
  141.0955  133.8978  157.1973 H   0  0  0  0  0  0  0  0  0  0  0  0  # atno 11005 bound_to 11000
  146.0537  139.3535  143.0624 LP  0  0  0  0  0  0  0  0  0  0  0  0  # atno 17320 bound_to 7965
  145.8182  140.9692  143.0912 LP  0  0  0  0  0  0  0  0  0  0  0  0  # atno 17321 bound_to 7965
  140.4664  143.2429  151.9149 LP  0  0  0  0  0  0  0  0  0  0  0  0  # atno 17342 bound_to 10162
  139.4783  144.5414  151.8522 LP  0  0  0  0  0  0  0  0  0  0  0  0  # atno 17343 bound_to 10162
  156.2990  130.7166  151.2034 LP  0  0  0  0  0  0  0  0  0  0  0  0  # atno 17370 bound_to 10713
  157.7409  131.0511  150.5135 LP  0  0  0  0  0  0  0  0  0  0  0  0  # atno 17371 bound_to 10713
  139.9791  135.0104  156.9705 LP  0  0  0  0  0  0  0  0  0  0  0  0  # atno 17394 bound_to 11000
  140.5150  134.0964  155.7279 LP  0  0  0  0  0  0  0  0  0  0  0  0  # atno 17395 bound_to 11000

$$$$
