AV-unprocessed.smi:2109|AV-procd|sdf|8606|dock4
  -GOLD-   2272011343D 1   1.00000     0.00000
 Structure written by MMmdl.
 45 46  0  0  0  0  0  0  0  0  1 V2000
  145.8804  137.0110  150.2855 C   0  0  0  0  0  0  0  0  0  0  0  0
  145.5044  135.9648  151.3488 C   0  0  0  0  0  0  0  0  0  0  0  0
  144.0738  135.4526  151.1259 C   0  0  0  0  0  0  0  0  0  0  0  0
  145.6732  136.4989  152.7877 C   0  0  0  0  0  0  0  0  0  0  0  0
  146.9432  137.1877  152.9959 N   0  0  0  0  0  0  0  0  0  0  0  0
  147.0751  138.4144  153.5197 C   0  0  0  0  0  0  0  0  0  0  0  0
  146.1326  139.1015  153.9142 O   0  0  0  0  0  0  0  0  0  0  0  0
  148.3563  138.8048  153.5602 N   0  0  0  0  0  0  0  0  0  0  0  0
  148.8145  140.0810  154.0963 C   0  0  0  0  0  0  0  0  0  0  0  0
  150.0957  139.9578  154.9029 C   0  0  0  0  0  0  0  0  0  0  0  0
  151.0121  138.9214  154.6400 C   0  0  0  0  0  0  0  0  0  0  0  0
  152.1860  138.8574  155.4128 C   0  0  0  0  0  0  0  0  0  0  0  0
  152.4714  139.7326  156.3997 N   0  0  0  0  0  0  0  0  0  0  0  0
  151.5900  140.7271  156.6711 C   0  0  0  0  0  0  0  0  0  0  0  0
  151.8941  141.6257  157.7170 N   0  0  0  0  0  0  0  0  0  0  0  0
  152.0907  141.0736  159.0565 C   0  0  0  0  0  0  0  0  0  0  0  0
  152.6755  142.1406  159.9971 C   0  0  0  0  0  0  0  0  0  0  0  0
  151.8377  143.2915  159.9961 O   0  0  0  0  0  0  0  0  0  0  0  0
  151.7492  143.8798  158.7028 C   0  0  0  0  0  0  0  0  0  0  0  0
  151.1352  142.8745  157.7133 C   0  0  0  0  0  0  0  0  0  0  0  0
  150.3908  140.8748  155.9338 C   0  0  0  0  0  0  0  0  0  0  0  0
  145.2600  137.9036  150.3713 H   0  0  0  0  0  0  0  0  0  0  0  0
  145.7484  136.6103  149.2802 H   0  0  0  0  0  0  0  0  0  0  0  0
  146.9224  137.3180  150.3756 H   0  0  0  0  0  0  0  0  0  0  0  0
  146.1721  135.1119  151.2209 H   0  0  0  0  0  0  0  0  0  0  0  0
  143.3432  136.2547  151.2362 H   0  0  0  0  0  0  0  0  0  0  0  0
  143.8203  134.6705  151.8423 H   0  0  0  0  0  0  0  0  0  0  0  0
  143.9578  135.0310  150.1271 H   0  0  0  0  0  0  0  0  0  0  0  0
  144.8699  137.1988  153.0202 H   0  0  0  0  0  0  0  0  0  0  0  0
  145.5843  135.6829  153.5072 H   0  0  0  0  0  0  0  0  0  0  0  0
  147.7782  136.7000  152.7061 H   0  0  0  0  0  0  0  0  0  0  0  0
  149.0629  138.1733  153.2129 H   0  0  0  0  0  0  0  0  0  0  0  0
  148.9988  140.7560  153.2603 H   0  0  0  0  0  0  0  0  0  0  0  0
  148.0288  140.5431  154.6967 H   0  0  0  0  0  0  0  0  0  0  0  0
  150.8286  138.1963  153.8607 H   0  0  0  0  0  0  0  0  0  0  0  0
  152.9151  138.0807  155.2354 H   0  0  0  0  0  0  0  0  0  0  0  0
  151.1354  140.7178  159.4451 H   0  0  0  0  0  0  0  0  0  0  0  0
  152.7667  140.2184  159.0166 H   0  0  0  0  0  0  0  0  0  0  0  0
  152.7407  141.7500  161.0126 H   0  0  0  0  0  0  0  0  0  0  0  0
  153.6881  142.4131  159.6951 H   0  0  0  0  0  0  0  0  0  0  0  0
  151.1282  144.7739  158.7623 H   0  0  0  0  0  0  0  0  0  0  0  0
  152.7371  144.2008  158.3681 H   0  0  0  0  0  0  0  0  0  0  0  0
  151.1060  143.3274  156.7234 H   0  0  0  0  0  0  0  0  0  0  0  0
  150.1033  142.6590  157.9935 H   0  0  0  0  0  0  0  0  0  0  0  0
  149.7047  141.6821  156.1421 H   0  0  0  0  0  0  0  0  0  0  0  0
  1  2  1  0  0  0  0
  1 22  1  0  0  0  0
  1 23  1  0  0  0  0
  1 24  1  0  0  0  0
  2  3  1  0  0  0  0
  2  4  1  0  0  0  0
  2 25  1  0  0  0  0
  3 26  1  0  0  0  0
  3 27  1  0  0  0  0
  3 28  1  0  0  0  0
  4  5  1  0  0  0  0
  4 29  1  0  0  0  0
  4 30  1  0  0  0  0
  5  6  1  0  0  0  0
  5 31  1  0  0  0  0
  6  7  2  0  0  0  0
  6  8  1  0  0  0  0
  8  9  1  0  0  0  0
  8 32  1  0  0  0  0
  9 10  1  0  0  0  0
  9 33  1  0  0  0  0
  9 34  1  0  0  0  0
 10 21  1  0  0  0  0
 10 11  2  0  0  0  0
 11 12  1  0  0  0  0
 11 35  1  0  0  0  0
 12 13  2  0  0  0  0
 12 36  1  0  0  0  0
 13 14  1  0  0  0  0
 14 15  1  0  0  0  0
 14 21  2  0  0  0  0
 15 20  1  0  0  0  0
 15 16  1  0  0  0  0
 16 17  1  0  0  0  0
 16 37  1  0  0  0  0
 16 38  1  0  0  0  0
 17 18  1  0  0  0  0
 17 39  1  0  0  0  0
 17 40  1  0  0  0  0
 18 19  1  0  0  0  0
 19 20  1  0  0  0  0
 19 41  1  0  0  0  0
 19 42  1  0  0  0  0
 20 43  1  0  0  0  0
 20 44  1  0  0  0  0
 21 45  1  0  0  0  0
M  END
> <s_m_source_file>
AV-unprocessed.smi

> <i_m_source_file_index>
2109

> <i_lp_mmshare_version>
43012

> <i_f3d_flags>
0

> <s_epik_input>
W0NIM11bQ0hdKFtDSDNdKVtDSDJdW05IXUMoPU8pW05IXVtDSDJdYzFbY0hdW2NIXW5jKFtjSF0xKU4yW0NIMl1bQ0gyXU9bQ0gyXVtDSDJdMg==

> <s_epik_cmdline>
J2VwaWtfcHl0aG9uJywgJy1waCcsICc3LjAnLCAnLXRuJywgJzgnLCAnLW1hJywgJzIwMCcsICctbWV0YWxfYmluZGluZycsICctaW1hZScsICc8aW5maWxlLm1hZT4nLCAnLW9tYWUnLCAnPG91dGZpbGUubWFlPic=

> <r_lp_tautomer_probability>
1

> <r_epik_Ionization_Penalty>
0.012582

> <r_epik_Ionization_Penalty_Charging>
0

> <r_epik_Ionization_Penalty_Neutral>
0.012582

> <r_epik_State_Penalty>
0.00970236

> <r_epik_Charging_Adjusted_Penalty>
0.00970236

> <i_epik_Tot_Q>
0

> <i_epik_Tot_abs_Q>
0

> <r_epik_Metal_State_Penalty>
0.00950075

> <b_epik_Metal_Only>
0

> <s_lp_Force_Field>
OPLS_2005

> <r_lp_Energy>
12.0327

> <b_lp_Chiralities_Consistent>
1

> <s_lp_Variant>
AV-unprocessed.smi:2109-1

> <Gold.Version>
5.8.1

> <Gold.Id.Protein>
6NUR|6NUR_protein|mol2

> <Gold.PLP.Fitness>
44.6671

> <Gold.PLP.PLP>
-39.5078

> <Gold.PLP.part.hbond>
-3.6138

> <Gold.PLP.part.metal>
0.0000

> <Gold.PLP.part.buried>
0.3669

> <Gold.PLP.part.nonpolar>
-37.3195

> <Gold.PLP.part.repulsive>
0.2549

> <Gold.PLP.ligand.clash>
0.0000

> <Gold.PLP.ligand.torsion>
0.8347

> <Gold.PLP.Chemscore.Hbond>
2.1606

> <Gold.PLP.Chemscore.CHOScore>
0.0000

> <Gold.PLP.Chemscore.Metal>
0.0000

> <Gold.Chemscore.Hbonds>
donor molecule, donor type, donor heavy atom, donor atom, acceptor molecule, acceptor atom, score
      L1  H     5    31       P1  7948  0.98
      L1  H     8    32       P1  7948  0.15
      P1  H  7997  8009       L1    13  1.00

> <Gold.PLP.Chemscore.Internal.Correction>
0.3467

> <Gold.Rescore>
     Score         DG    S(hbond)    S(metal)    S(lipo)     H(rot)  DE(clash)    DE(int)     intcor
     18.16     -19.64       2.35        0.00      92.76       1.77       0.71       0.78       ----

> <Gold.Chemscore.Fitness>
18.1556

> <Gold.Chemscore.DG>
-19.6449

> <Gold.Chemscore.ZeroCoef>
-5.4800

> <Gold.Chemscore.Hbond>
2.3454

> <Gold.Chemscore.Metal>
0.0000

> <Gold.Chemscore.Lipo>
92.7583

> <Gold.Chemscore.Internal_Hbond>
0.0000

> <Gold.Chemscore.DEClash>
0.7053

> <Gold.Chemscore.DEInternal>
0.7839

> <Gold.Chemscore.Rot>
1.7662

> <Gold.Chemscore.Internal.Correction>
   9.000000E+99

> <Gold.Chemscore.Hbonds>
donor molecule, donor type, donor heavy atom, donor atom, acceptor molecule, acceptor atom, score
      L1  H     5    31       P1  7948  0.91
      L1  H     8    32       P1  7948  0.16
      P1  H  7997  8009       L1    13  0.68

> <Gold.Chemscore.Hbond.Weighted>
-7.8336

> <Gold.Chemscore.Metal.Weighted>
-0.0000

> <Gold.Chemscore.Lipo.Weighted>
-10.8527

> <Gold.Chemscore.Internal_Hbond.Weighted>
0.0000

> <Gold.Chemscore.DEClash.Weighted>
0.7053

> <Gold.Chemscore.DEInternal.Weighted>
0.7839

> <Gold.Chemscore.Rot.Weighted>
4.5214

> <Gold.Chemscore.Internal.Correction.Weighted>
   9.000000E+99

> <Gold.Protein.RotatedTorsions>
[ 6907 6896 6895 6894 ] final  -14.94 input  -60.11 | X-H torsion
[ 7974 7965 7964 7962 ] final   60.69 input  175.53 | X-H torsion
[ 8008 7997 7996 7995 ] final -161.85 input   59.86 | X-H torsion
[ 10167 10162 10161 10158 ] final -119.35 input  -65.29 | X-H torsion
[ 10718 10713 10712 10709 ] final -163.68 input   66.30 | X-H torsion
[ 10763 10752 10751 10750 ] final  -62.00 input  -60.55 | X-H torsion
[ 11005 11000 10999 10996 ] final  -52.27 input  -57.11 | X-H torsion

> <Gold.Protein.ActiveResidues>
 VAL166  LYS551  ARG553  GLY616  TRP617  ASP618  TYR619  PRO620  LYS621  CYS622 
 ASP623  PHE694  ASN695  SER759  ASP760  ASP761  ALA762  ILE779  LEU786  VAL792 
 PHE793  MET794  SER795  GLU796  ALA797  LYS798  CYS799  TRP800  GLU811  SER814 

> <Gold.Protein.RotatedAtoms>
  151.3316  135.0843  159.9340 H   0  0  0  0  0  0  0  0  0  0  0  0  # atno 6907 bound_to 6896
  152.5233  133.9537  159.7694 H   0  0  0  0  0  0  0  0  0  0  0  0  # atno 6908 bound_to 6896
  150.9877  133.6128  159.2743 H   0  0  0  0  0  0  0  0  0  0  0  0  # atno 6909 bound_to 6896
  145.8932  139.3526  143.0637 H   0  0  0  0  0  0  0  0  0  0  0  0  # atno 7974 bound_to 7965
  155.7982  140.0888  157.1972 H   0  0  0  0  0  0  0  0  0  0  0  0  # atno 8008 bound_to 7997
  154.3983  140.1477  156.3302 H   0  0  0  0  0  0  0  0  0  0  0  0  # atno 8009 bound_to 7997
  155.8489  140.3435  155.5683 H   0  0  0  0  0  0  0  0  0  0  0  0  # atno 8010 bound_to 7997
  140.0476  143.5092  152.2098 H   0  0  0  0  0  0  0  0  0  0  0  0  # atno 10167 bound_to 10162
  156.6281  130.8918  151.2972 H   0  0  0  0  0  0  0  0  0  0  0  0  # atno 10718 bound_to 10713
  154.2932  135.6249  153.5394 H   0  0  0  0  0  0  0  0  0  0  0  0  # atno 10763 bound_to 10752
  152.9850  135.5660  154.5367 H   0  0  0  0  0  0  0  0  0  0  0  0  # atno 10764 bound_to 10752
  154.4982  135.2870  155.1418 H   0  0  0  0  0  0  0  0  0  0  0  0  # atno 10765 bound_to 10752
  141.0915  133.6632  156.3999 H   0  0  0  0  0  0  0  0  0  0  0  0  # atno 11005 bound_to 11000
  145.8883  140.9320  143.0565 LP  0  0  0  0  0  0  0  0  0  0  0  0  # atno 17320 bound_to 7965
  144.6731  140.0871  143.7467 LP  0  0  0  0  0  0  0  0  0  0  0  0  # atno 17321 bound_to 7965
  139.5974  144.7571  151.3254 LP  0  0  0  0  0  0  0  0  0  0  0  0  # atno 17342 bound_to 10162
  140.7232  143.7078  150.7793 LP  0  0  0  0  0  0  0  0  0  0  0  0  # atno 17343 bound_to 10162
  157.7208  130.9556  150.1431 LP  0  0  0  0  0  0  0  0  0  0  0  0  # atno 17370 bound_to 10713
  156.2257  130.3677  149.8504 LP  0  0  0  0  0  0  0  0  0  0  0  0  # atno 17371 bound_to 10713
  140.5240  134.6276  157.5328 LP  0  0  0  0  0  0  0  0  0  0  0  0  # atno 17394 bound_to 11000
  139.9742  134.7242  155.9982 LP  0  0  0  0  0  0  0  0  0  0  0  0  # atno 17395 bound_to 11000

$$$$
