AV-unprocessed.smi:218|AV-procd|sdf|1668|dock7
  -GOLD-   2262020 73D 1   1.00000     0.00000
 Structure written by MMmdl.
 54 57  0  0  0  0  0  0  0  0  1 V2000
  153.8638  141.5431  160.1785 C   0  0  0  0  0  0  0  0  0  0  0  0
  152.8251  142.6547  159.9861 C   0  0  0  0  0  0  0  0  0  0  0  0
  152.5625  143.4054  161.3028 C   0  0  0  0  0  0  0  0  0  0  0  0
  151.6249  142.0287  159.5284 O   0  0  0  0  0  0  0  0  0  0  0  0
  151.6183  141.3272  158.3381 C   0  0  0  0  0  0  0  0  0  0  0  0
  150.7304  141.7411  157.3244 C   0  0  0  0  0  0  0  0  0  0  0  0
  150.7055  141.0296  156.1079 C   0  0  0  0  0  0  0  0  0  0  0  0
  149.7734  141.4499  154.9920 C   0  0  0  0  0  0  0  0  0  0  0  0
  148.5529  142.0733  155.4844 N   0  0  0  0  0  0  0  0  0  0  0  0
  147.3781  141.4127  155.4067 C   0  0  0  0  0  0  0  0  0  0  0  0
  146.3029  141.8121  156.1340 N   0  0  0  0  0  0  0  0  0  0  0  0
  145.1460  141.1530  156.0291 C   0  0  0  0  0  0  0  0  0  0  0  0
  144.8588  140.0889  155.2769 N   0  0  0  0  0  0  0  0  0  0  0  0
  145.9380  139.6715  154.5511 C   0  0  0  0  0  0  0  0  0  0  0  0
  147.2222  140.2858  154.5583 C   0  0  0  0  0  0  0  0  0  0  0  0
  148.0683  139.6190  153.6849 N   0  0  0  0  0  0  0  0  0  0  0  0
  147.3217  138.6721  153.1858 C   0  0  0  0  0  0  0  0  0  0  0  0
  146.0332  138.6019  153.6763 N   0  0  0  0  0  0  0  0  0  0  0  0
  144.9415  137.6477  153.2595 C   0  0  2  0  0  0  0  0  0  0  0  0
  144.5306  136.8984  154.3581 O   0  0  0  0  0  0  0  0  0  0  0  0
  145.3810  135.7703  154.4937 C   0  0  1  0  0  0  0  0  0  0  0  0
  144.6991  134.7252  155.3893 C   0  0  0  0  0  0  0  0  0  0  0  0
  143.3373  134.5897  155.0436 O   0  0  0  0  0  0  0  0  0  0  0  0
  145.6076  135.3326  153.0402 C   0  0  2  0  0  0  0  0  0  0  0  0
  146.9113  134.8055  152.8910 O   0  0  0  0  0  0  0  0  0  0  0  0
  145.4599  136.6238  152.2290 C   0  0  1  0  0  0  0  0  0  0  0  0
  144.5373  136.4511  151.1732 O   0  0  0  0  0  0  0  0  0  0  0  0
  151.5730  139.9310  155.9491 C   0  0  0  0  0  0  0  0  0  0  0  0
  152.4245  139.5920  157.0185 C   0  0  0  0  0  0  0  0  0  0  0  0
  152.4517  140.2675  158.1870 N   0  0  0  0  0  0  0  0  0  0  0  0
  144.1495  138.3018  152.8926 H   0  0  0  0  0  0  0  0  0  0  0  0
  146.3156  136.1053  154.9485 H   0  0  0  0  0  0  0  0  0  0  0  0
  144.8667  134.5903  152.7387 H   0  0  0  0  0  0  0  0  0  0  0  0
  146.4087  136.9440  151.7994 H   0  0  0  0  0  0  0  0  0  0  0  0
  154.8149  141.9493  160.5238 H   0  0  0  0  0  0  0  0  0  0  0  0
  154.0496  141.0176  159.2414 H   0  0  0  0  0  0  0  0  0  0  0  0
  153.5275  140.8090  160.9110 H   0  0  0  0  0  0  0  0  0  0  0  0
  153.2240  143.3410  159.2377 H   0  0  0  0  0  0  0  0  0  0  0  0
  153.4783  143.8578  161.6836 H   0  0  0  0  0  0  0  0  0  0  0  0
  152.1807  142.7308  162.0695 H   0  0  0  0  0  0  0  0  0  0  0  0
  151.8331  144.2046  161.1740 H   0  0  0  0  0  0  0  0  0  0  0  0
  150.0807  142.5902  157.4798 H   0  0  0  0  0  0  0  0  0  0  0  0
  150.2925  142.1434  154.3290 H   0  0  0  0  0  0  0  0  0  0  0  0
  149.5221  140.5680  154.4010 H   0  0  0  0  0  0  0  0  0  0  0  0
  148.6458  143.0078  155.8558 H   0  0  0  0  0  0  0  0  0  0  0  0
  144.3347  141.5311  156.6333 H   0  0  0  0  0  0  0  0  0  0  0  0
  147.6998  137.9948  152.4338 H   0  0  0  0  0  0  0  0  0  0  0  0
  145.1808  133.7556  155.2619 H   0  0  0  0  0  0  0  0  0  0  0  0
  144.7865  134.9928  156.4426 H   0  0  0  0  0  0  0  0  0  0  0  0
  143.1548  133.6746  154.8938 H   0  0  0  0  0  0  0  0  0  0  0  0
  147.3703  135.3179  152.2432 H   0  0  0  0  0  0  0  0  0  0  0  0
  144.4424  137.2764  150.7223 H   0  0  0  0  0  0  0  0  0  0  0  0
  151.5890  139.3608  155.0318 H   0  0  0  0  0  0  0  0  0  0  0  0
  153.1024  138.7558  156.9331 H   0  0  0  0  0  0  0  0  0  0  0  0
  1  2  1  0  0  0  0
  1 35  1  0  0  0  0
  1 36  1  0  0  0  0
  1 37  1  0  0  0  0
  2  3  1  0  0  0  0
  2  4  1  0  0  0  0
  2 38  1  0  0  0  0
  3 39  1  0  0  0  0
  3 40  1  0  0  0  0
  3 41  1  0  0  0  0
  4  5  1  0  0  0  0
  5 30  1  0  0  0  0
  5  6  2  0  0  0  0
  6  7  1  0  0  0  0
  6 42  1  0  0  0  0
  7  8  1  0  0  0  0
  7 28  2  0  0  0  0
  8  9  1  0  0  0  0
  8 43  1  0  0  0  0
  8 44  1  0  0  0  0
  9 10  1  0  0  0  0
  9 45  1  0  0  0  0
 10 15  1  0  0  0  0
 10 11  2  0  0  0  0
 11 12  1  0  0  0  0
 12 13  2  0  0  0  0
 12 46  1  0  0  0  0
 13 14  1  0  0  0  0
 14 18  1  0  0  0  0
 14 15  2  0  0  0  0
 15 16  1  0  0  0  0
 16 17  2  0  0  0  0
 17 18  1  0  0  0  0
 17 47  1  0  0  0  0
 18 19  1  0  0  0  0
 19 31  1  0  0  0  0
 19 26  1  0  0  0  0
 19 20  1  0  0  0  0
 20 21  1  0  0  0  0
 21 32  1  0  0  0  0
 21 22  1  0  0  0  0
 21 24  1  0  0  0  0
 22 23  1  0  0  0  0
 22 48  1  0  0  0  0
 22 49  1  0  0  0  0
 23 50  1  0  0  0  0
 24 33  1  0  0  0  0
 24 25  1  0  0  0  0
 24 26  1  0  0  0  0
 25 51  1  0  0  0  0
 26 34  1  0  0  0  0
 26 27  1  0  0  0  0
 27 52  1  0  0  0  0
 28 29  1  0  0  0  0
 28 53  1  0  0  0  0
 29 30  2  0  0  0  0
 29 54  1  0  0  0  0
M  END
> <s_m_source_file>
AV-unprocessed.smi

> <i_m_source_file_index>
218

> <i_lp_mmshare_version>
43012

> <i_f3d_flags>
0

> <s_epik_input>
W0NIM11bQ0hdKFtDSDNdKU9jMVtjSF1jKFtjSF1bY0hdbjEpW0NIMl1bTkhdYyhuW2NIXW4yKWMoYzIzKW5bY0hdbjNbQ0BASF00T1tDQEhdKFtDSDJdW09IXSlbQ0BASF0oW09IXSlbQ0BIXTRbT0hd

> <s_epik_cmdline>
J2VwaWtfcHl0aG9uJywgJy1waCcsICc3LjAnLCAnLXRuJywgJzgnLCAnLW1hJywgJzIwMCcsICctbWV0YWxfYmluZGluZycsICctaW1hZScsICc8aW5maWxlLm1hZT4nLCAnLW9tYWUnLCAnPG91dGZpbGUubWFlPic=

> <r_lp_tautomer_probability>
1

> <r_epik_Ionization_Penalty>
0.00457014

> <r_epik_Ionization_Penalty_Charging>
0

> <r_epik_Ionization_Penalty_Neutral>
0.00457014

> <r_epik_State_Penalty>
-0

> <r_epik_Charging_Adjusted_Penalty>
0

> <i_epik_Tot_Q>
0

> <i_epik_Tot_abs_Q>
0

> <r_epik_Metal_State_Penalty>
-0

> <b_epik_Metal_Only>
0

> <s_epik_Chemistry_Notes>
This compound contains an acetal/aminal-like group ( X-CH(R)-Y where X, Y are N, S, or O) that may be acid/base labile, releasing an aldehyde.

> <s_lp_Force_Field>
OPLS_2005

> <r_lp_Energy>
35.6768

> <b_lp_Chiralities_Consistent>
1

> <s_lp_Variant>
AV-unprocessed.smi:218-7

> <Gold.Version>
5.8.1

> <Gold.Id.Protein>
6NUR|6NUR_protein|mol2

> <Gold.PLP.Fitness>
53.4089

> <Gold.PLP.PLP>
-39.5645

> <Gold.PLP.part.hbond>
-4.7484

> <Gold.PLP.part.metal>
0.0000

> <Gold.PLP.part.buried>
-5.5674

> <Gold.PLP.part.nonpolar>
-31.2945

> <Gold.PLP.part.repulsive>
1.2188

> <Gold.PLP.ligand.clash>
0.0000

> <Gold.PLP.ligand.torsion>
0.6250

> <Gold.PLP.Chemscore.Hbond>
3.9920

> <Gold.PLP.Chemscore.CHOScore>
1.0000

> <Gold.PLP.Chemscore.Metal>
0.0000

> <Gold.Chemscore.Hbonds>
donor molecule, donor type, donor heavy atom, donor atom, acceptor molecule, acceptor atom, score
      L1  H     9    45       P1  8028  1.00
      L1  H    23    50       P1 10957  1.00
      L1  H    25    51       P1  7948  0.91
      L1  H    27    52       P1 10171  1.00
      L1  C    17    47       P1  7948  1.00

> <Gold.PLP.Chemscore.Internal.Correction>
0.1185

> <Gold.Rescore>
     Score         DG    S(hbond)    S(metal)    S(lipo)     H(rot)  DE(clash)    DE(int)     intcor
     12.81     -15.28       3.92        0.00      79.29       4.90       0.15       2.33       ----

> <Gold.Chemscore.Fitness>
12.8101

> <Gold.Chemscore.DG>
-15.2844

> <Gold.Chemscore.ZeroCoef>
-5.4800

> <Gold.Chemscore.Hbond>
3.9158

> <Gold.Chemscore.Metal>
0.0000

> <Gold.Chemscore.Lipo>
79.2911

> <Gold.Chemscore.Internal_Hbond>
0.0000

> <Gold.Chemscore.DEClash>
0.1451

> <Gold.Chemscore.DEInternal>
2.3292

> <Gold.Chemscore.Rot>
4.9029

> <Gold.Chemscore.Internal.Correction>
   9.000000E+99

> <Gold.Chemscore.Hbonds>
donor molecule, donor type, donor heavy atom, donor atom, acceptor molecule, acceptor atom, score
      L1  H     9    45       P1  8028  0.96
      L1  H    23    50       P1 10957  0.98
      L1  H    25    51       P1  7948  0.89
      L1  H    27    52       P1 10171  1.00

> <Gold.Chemscore.Hbond.Weighted>
-13.0789

> <Gold.Chemscore.Metal.Weighted>
-0.0000

> <Gold.Chemscore.Lipo.Weighted>
-9.2771

> <Gold.Chemscore.Internal_Hbond.Weighted>
0.0000

> <Gold.Chemscore.DEClash.Weighted>
0.1451

> <Gold.Chemscore.DEInternal.Weighted>
2.3292

> <Gold.Chemscore.Rot.Weighted>
12.5515

> <Gold.Chemscore.Internal.Correction.Weighted>
   9.000000E+99

> <Gold.Protein.RotatedTorsions>
[ 6907 6896 6895 6894 ] final  132.70 input  -60.11 | X-H torsion
[ 7974 7965 7964 7962 ] final  107.40 input  175.53 | X-H torsion
[ 8008 7997 7996 7995 ] final  -64.81 input   59.86 | X-H torsion
[ 10167 10162 10161 10158 ] final -140.86 input  -65.29 | X-H torsion
[ 10718 10713 10712 10709 ] final -177.23 input   66.30 | X-H torsion
[ 10763 10752 10751 10750 ] final  -67.01 input  -60.55 | X-H torsion
[ 11005 11000 10999 10996 ] final -168.64 input  -57.11 | X-H torsion

> <Gold.Protein.ActiveResidues>
 VAL166  LYS551  ARG553  GLY616  TRP617  ASP618  TYR619  PRO620  LYS621  CYS622 
 ASP623  PHE694  ASN695  SER759  ASP760  ASP761  ALA762  ILE779  LEU786  VAL792 
 PHE793  MET794  SER795  GLU796  ALA797  LYS798  CYS799  TRP800  GLU811  SER814 

> <Gold.Protein.RotatedAtoms>
  152.3297  133.5944  159.5800 H   0  0  0  0  0  0  0  0  0  0  0  0  # atno 6907 bound_to 6896
  150.7416  133.9886  159.3608 H   0  0  0  0  0  0  0  0  0  0  0  0  # atno 6908 bound_to 6896
  151.7762  135.0774  160.0418 H   0  0  0  0  0  0  0  0  0  0  0  0  # atno 6909 bound_to 6896
  145.2941  139.2590  143.3849 H   0  0  0  0  0  0  0  0  0  0  0  0  # atno 7974 bound_to 7965
  154.4634  140.0946  156.6954 H   0  0  0  0  0  0  0  0  0  0  0  0  # atno 8008 bound_to 7997
  155.4928  140.3471  155.4339 H   0  0  0  0  0  0  0  0  0  0  0  0  # atno 8009 bound_to 7997
  156.0912  140.1398  156.9578 H   0  0  0  0  0  0  0  0  0  0  0  0  # atno 8010 bound_to 7997
  139.8241  143.7535  152.2666 H   0  0  0  0  0  0  0  0  0  0  0  0  # atno 10167 bound_to 10162
  156.8264  130.9638  151.3109 H   0  0  0  0  0  0  0  0  0  0  0  0  # atno 10718 bound_to 10713
  154.3683  135.6101  153.5726 H   0  0  0  0  0  0  0  0  0  0  0  0  # atno 10763 bound_to 10752
  152.9791  135.5832  154.4552 H   0  0  0  0  0  0  0  0  0  0  0  0  # atno 10764 bound_to 10752
  154.4301  135.2847  155.1895 H   0  0  0  0  0  0  0  0  0  0  0  0  # atno 10765 bound_to 10752
  140.5397  134.5535  157.5096 H   0  0  0  0  0  0  0  0  0  0  0  0  # atno 11005 bound_to 11000
  146.3175  140.3439  142.8650 LP  0  0  0  0  0  0  0  0  0  0  0  0  # atno 17320 bound_to 7965
  144.9148  140.7800  143.5785 LP  0  0  0  0  0  0  0  0  0  0  0  0  # atno 17321 bound_to 7965
  139.7722  144.7473  151.0208 LP  0  0  0  0  0  0  0  0  0  0  0  0  # atno 17342 bound_to 10162
  140.7811  143.4633  151.0248 LP  0  0  0  0  0  0  0  0  0  0  0  0  # atno 17343 bound_to 10162
  157.6430  130.8821  149.9484 LP  0  0  0  0  0  0  0  0  0  0  0  0  # atno 17370 bound_to 10713
  156.0959  130.3659  150.0307 LP  0  0  0  0  0  0  0  0  0  0  0  0  # atno 17371 bound_to 10713
  139.9510  134.7616  156.0448 LP  0  0  0  0  0  0  0  0  0  0  0  0  # atno 17394 bound_to 11000
  141.1234  133.6606  156.3274 LP  0  0  0  0  0  0  0  0  0  0  0  0  # atno 17395 bound_to 11000

$$$$
