AV-unprocessed.smi:96|AV-procd|sdf|860|dock8
  -GOLD-   2262017303D 1   1.00000     0.00000
 Structure written by MMmdl.
 43 46  0  0  0  0  0  0  0  0  1 V2000
  149.8452  132.0967  155.9256 O   0  0  0  0  0  0  0  0  0  0  0  0
  149.9907  133.1399  155.2865 C   0  0  0  0  0  0  0  0  0  0  0  0
  150.9802  134.2154  155.7633 C   0  0  0  0  0  0  0  0  0  0  0  0
  150.3338  135.5015  156.1056 N   0  0  0  0  0  0  0  0  0  0  0  0
  149.5312  135.5752  157.2710 C   0  0  0  0  0  0  0  0  0  0  0  0
  149.3733  134.5956  158.0009 O   0  0  0  0  0  0  0  0  0  0  0  0
  148.9142  136.8714  157.5297 C   0  0  0  0  0  0  0  0  0  0  0  0
  148.1473  137.0372  158.6209 F   0  0  0  0  0  0  0  0  0  0  0  0
  149.1007  137.9107  156.6901 C   0  0  0  0  0  0  0  0  0  0  0  0
  149.8727  137.8192  155.5455 N   0  0  0  0  0  0  0  0  0  0  0  0
  150.0643  138.9918  154.6065 C   0  0  1  0  0  0  0  0  0  0  0  0
  148.7159  139.6775  154.3136 C   0  0  0  0  0  0  0  0  0  0  0  0
  149.0100  141.1348  154.6082 C   0  0  0  0  0  0  0  0  0  0  0  0
  150.0904  141.0283  155.6738 C   0  0  0  0  0  0  0  0  0  0  0  0
  150.8900  139.9509  155.2041 O   0  0  0  0  0  0  0  0  0  0  0  0
  150.5144  136.6012  155.2334 C   0  0  0  0  0  0  0  0  0  0  0  0
  151.2086  136.4995  154.2191 O   0  0  0  0  0  0  0  0  0  0  0  0
  149.3181  133.4409  154.1609 N   0  0  0  0  0  0  0  0  0  0  0  0
  148.3408  132.6614  153.4865 C   0  0  0  0  0  0  0  0  0  0  0  0
  147.3906  133.2197  152.5835 C   0  0  0  0  0  0  0  0  0  0  0  0
  146.4268  132.4024  151.9507 C   0  0  0  0  0  0  0  0  0  0  0  0
  146.4321  131.0307  152.2487 C   0  0  0  0  0  0  0  0  0  0  0  0
  147.3382  130.4872  153.1347 C   0  0  0  0  0  0  0  0  0  0  0  0
  148.3044  131.2769  153.7788 C   0  0  0  0  0  0  0  0  0  0  0  0
  147.1206  129.1520  153.2454 O   0  0  0  0  0  0  0  0  0  0  0  0
  146.0427  128.8665  152.3918 C   0  0  0  0  0  0  0  0  0  0  0  0
  145.6169  130.0541  151.7752 O   0  0  0  0  0  0  0  0  0  0  0  0
  151.5376  133.8132  156.6104 H   0  0  0  0  0  0  0  0  0  0  0  0
  151.7403  134.3626  154.9940 H   0  0  0  0  0  0  0  0  0  0  0  0
  148.6178  138.8425  156.9410 H   0  0  0  0  0  0  0  0  0  0  0  0
  150.5612  138.5857  153.7235 H   0  0  0  0  0  0  0  0  0  0  0  0
  148.4021  139.5011  153.2845 H   0  0  0  0  0  0  0  0  0  0  0  0
  147.9453  139.3015  154.9889 H   0  0  0  0  0  0  0  0  0  0  0  0
  149.4088  141.6251  153.7191 H   0  0  0  0  0  0  0  0  0  0  0  0
  148.1328  141.6893  154.9424 H   0  0  0  0  0  0  0  0  0  0  0  0
  150.6724  141.9441  155.7794 H   0  0  0  0  0  0  0  0  0  0  0  0
  149.6558  140.7816  156.6435 H   0  0  0  0  0  0  0  0  0  0  0  0
  149.4635  134.3698  153.7930 H   0  0  0  0  0  0  0  0  0  0  0  0
  147.3774  134.2784  152.3736 H   0  0  0  0  0  0  0  0  0  0  0  0
  145.7060  132.8203  151.2635 H   0  0  0  0  0  0  0  0  0  0  0  0
  149.0041  130.8314  154.4709 H   0  0  0  0  0  0  0  0  0  0  0  0
  146.3585  128.1525  151.6303 H   0  0  0  0  0  0  0  0  0  0  0  0
  145.2224  128.4398  152.9697 H   0  0  0  0  0  0  0  0  0  0  0  0
  1  2  2  0  0  0  0
  2  3  1  0  0  0  0
  2 18  1  0  0  0  0
  3  4  1  0  0  0  0
  3 28  1  0  0  0  0
  3 29  1  0  0  0  0
  4 16  1  0  0  0  0
  4  5  1  0  0  0  0
  5  6  2  0  0  0  0
  5  7  1  0  0  0  0
  7  8  1  0  0  0  0
  7  9  2  0  0  0  0
  9 10  1  0  0  0  0
  9 30  1  0  0  0  0
 10 11  1  0  0  0  0
 10 16  1  0  0  0  0
 11 15  1  0  0  0  0
 11 12  1  0  0  0  0
 11 31  1  0  0  0  0
 12 13  1  0  0  0  0
 12 32  1  0  0  0  0
 12 33  1  0  0  0  0
 13 14  1  0  0  0  0
 13 34  1  0  0  0  0
 13 35  1  0  0  0  0
 14 15  1  0  0  0  0
 14 36  1  0  0  0  0
 14 37  1  0  0  0  0
 16 17  2  0  0  0  0
 18 19  1  0  0  0  0
 18 38  1  0  0  0  0
 19 24  1  0  0  0  0
 19 20  2  0  0  0  0
 20 21  1  0  0  0  0
 20 39  1  0  0  0  0
 21 22  2  0  0  0  0
 21 40  1  0  0  0  0
 22 27  1  0  0  0  0
 22 23  1  0  0  0  0
 23 24  2  0  0  0  0
 23 25  1  0  0  0  0
 24 41  1  0  0  0  0
 25 26  1  0  0  0  0
 26 27  1  0  0  0  0
 26 42  1  0  0  0  0
 26 43  1  0  0  0  0
M  END
> <s_m_source_file>
AV-unprocessed.smi

> <i_m_source_file_index>
96

> <i_lp_mmshare_version>
43012

> <i_f3d_flags>
0

> <s_epik_input>
TzFbQ0gyXU9jKGMxMilbY0hdYyhbY0hdW2NIXTIpW05IXUMoPU8pW0NIMl1uM2MoPU8pYyhGKVtjSF1uKGMzPU8pW0NAQEhdNFtDSDJdW0NIMl1bQ0gyXU80

> <s_epik_cmdline>
J2VwaWtfcHl0aG9uJywgJy1waCcsICc3LjAnLCAnLXRuJywgJzgnLCAnLW1hJywgJzIwMCcsICctbWV0YWxfYmluZGluZycsICctaW1hZScsICc8aW5maWxlLm1hZT4nLCAnLW9tYWUnLCAnPG91dGZpbGUubWFlPic=

> <r_lp_tautomer_probability>
1

> <r_epik_Ionization_Penalty>
1.04778e-05

> <r_epik_Ionization_Penalty_Charging>
3.88729e-08

> <r_epik_Ionization_Penalty_Neutral>
1.04389e-05

> <r_epik_State_Penalty>
-0

> <r_epik_Charging_Adjusted_Penalty>
3.88729e-08

> <i_epik_Tot_Q>
0

> <i_epik_Tot_abs_Q>
0

> <r_epik_Metal_State_Penalty>
-0

> <b_epik_Metal_Only>
0

> <s_epik_Chemistry_Notes>
This compound contains an acetal/aminal-like group ( X-CH(R)-Y where X, Y are N, S, or O) that may be acid/base labile, releasing an aldehyde.

> <s_lp_Force_Field>
OPLS_2005

> <r_lp_Energy>
46.4939

> <b_lp_Chiralities_Consistent>
1

> <s_lp_Variant>
AV-unprocessed.smi:96-2

> <Gold.Version>
5.8.1

> <Gold.Id.Protein>
6NUR|6NUR_protein|mol2

> <Gold.PLP.Fitness>
46.0023

> <Gold.PLP.PLP>
-38.4293

> <Gold.PLP.part.hbond>
-3.0000

> <Gold.PLP.part.metal>
0.0000

> <Gold.PLP.part.buried>
-6.5972

> <Gold.PLP.part.nonpolar>
-31.5730

> <Gold.PLP.part.repulsive>
2.2930

> <Gold.PLP.ligand.clash>
0.0000

> <Gold.PLP.ligand.torsion>
0.5055

> <Gold.PLP.Chemscore.Hbond>
2.8500

> <Gold.PLP.Chemscore.CHOScore>
0.0000

> <Gold.PLP.Chemscore.Metal>
0.0000

> <Gold.Chemscore.Hbonds>
donor molecule, donor type, donor heavy atom, donor atom, acceptor molecule, acceptor atom, score
      P1  H  6896  6909       L1     6  1.00
      P1  H  7989  7998       L1    15  0.80
      P1  H 10752 10763       L1    17  1.00

> <Gold.PLP.Chemscore.Internal.Correction>
0.0340

> <Gold.Rescore>
     Score         DG    S(hbond)    S(metal)    S(lipo)     H(rot)  DE(clash)    DE(int)     intcor
     12.93     -14.86       2.02        0.00      62.90       1.85       0.06       1.87       ----

> <Gold.Chemscore.Fitness>
12.9268

> <Gold.Chemscore.DG>
-14.8571

> <Gold.Chemscore.ZeroCoef>
-5.4800

> <Gold.Chemscore.Hbond>
2.0218

> <Gold.Chemscore.Metal>
0.0000

> <Gold.Chemscore.Lipo>
62.9021

> <Gold.Chemscore.Internal_Hbond>
0.0000

> <Gold.Chemscore.DEClash>
0.0594

> <Gold.Chemscore.DEInternal>
1.8709

> <Gold.Chemscore.Rot>
1.8497

> <Gold.Chemscore.Internal.Correction>
   9.000000E+99

> <Gold.Chemscore.Hbonds>
donor molecule, donor type, donor heavy atom, donor atom, acceptor molecule, acceptor atom, score
      P1  H  6896  6909       L1     6  0.95
      P1  H  7989  7998       L1    15  0.04
      P1  H 10752 10763       L1    17  0.95

> <Gold.Chemscore.Hbond.Weighted>
-6.7529

> <Gold.Chemscore.Metal.Weighted>
-0.0000

> <Gold.Chemscore.Lipo.Weighted>
-7.3595

> <Gold.Chemscore.Internal_Hbond.Weighted>
0.0000

> <Gold.Chemscore.DEClash.Weighted>
0.0594

> <Gold.Chemscore.DEInternal.Weighted>
1.8709

> <Gold.Chemscore.Rot.Weighted>
4.7354

> <Gold.Chemscore.Internal.Correction.Weighted>
   9.000000E+99

> <Gold.Protein.RotatedTorsions>
[ 6907 6896 6895 6894 ] final   35.16 input  -60.11 | X-H torsion
[ 7974 7965 7964 7962 ] final -153.80 input  175.53 | X-H torsion
[ 8008 7997 7996 7995 ] final  125.01 input   59.86 | X-H torsion
[ 10167 10162 10161 10158 ] final  156.65 input  -65.29 | X-H torsion
[ 10718 10713 10712 10709 ] final  133.57 input   66.30 | X-H torsion
[ 10763 10752 10751 10750 ] final   47.27 input  -60.55 | X-H torsion
[ 11005 11000 10999 10996 ] final  129.08 input  -57.11 | X-H torsion

> <Gold.Protein.ActiveResidues>
 VAL166  LYS551  ARG553  GLY616  TRP617  ASP618  TYR619  PRO620  LYS621  CYS622 
 ASP623  PHE694  ASN695  SER759  ASP760  ASP761  ALA762  ILE779  LEU786  VAL792 
 PHE793  MET794  SER795  GLU796  ALA797  LYS798  CYS799  TRP800  GLU811  SER814 

> <Gold.Protein.RotatedAtoms>
  152.1123  134.9266  160.0565 H   0  0  0  0  0  0  0  0  0  0  0  0  # atno 6907 bound_to 6896
  152.0439  133.3984  159.4356 H   0  0  0  0  0  0  0  0  0  0  0  0  # atno 6908 bound_to 6896
  150.6844  134.3305  159.4869 H   0  0  0  0  0  0  0  0  0  0  0  0  # atno 6909 bound_to 6896
  144.7722  140.4476  143.5899 H   0  0  0  0  0  0  0  0  0  0  0  0  # atno 7974 bound_to 7965
  156.2820  140.2726  156.1880 H   0  0  0  0  0  0  0  0  0  0  0  0  # atno 8008 bound_to 7997
  155.0488  140.0386  157.2554 H   0  0  0  0  0  0  0  0  0  0  0  0  # atno 8009 bound_to 7997
  154.7212  140.2688  155.6545 H   0  0  0  0  0  0  0  0  0  0  0  0  # atno 8010 bound_to 7997
  139.4821  144.4989  151.8198 H   0  0  0  0  0  0  0  0  0  0  0  0  # atno 10167 bound_to 10162
  157.4759  131.1083  150.9744 H   0  0  0  0  0  0  0  0  0  0  0  0  # atno 10718 bound_to 10713
  152.9801  135.5981  154.3736 H   0  0  0  0  0  0  0  0  0  0  0  0  # atno 10763 bound_to 10752
  154.3407  135.2767  155.2426 H   0  0  0  0  0  0  0  0  0  0  0  0  # atno 10764 bound_to 10752
  154.4509  135.5990  153.6246 H   0  0  0  0  0  0  0  0  0  0  0  0  # atno 10765 bound_to 10752
  139.9596  134.9605  156.9096 H   0  0  0  0  0  0  0  0  0  0  0  0  # atno 11005 bound_to 11000
  145.6291  139.1534  143.2979 LP  0  0  0  0  0  0  0  0  0  0  0  0  # atno 17320 bound_to 7965
  146.1876  140.6395  142.9160 LP  0  0  0  0  0  0  0  0  0  0  0  0  # atno 17321 bound_to 7965
  140.4480  144.1894  150.5895 LP  0  0  0  0  0  0  0  0  0  0  0  0  # atno 17342 bound_to 10162
  140.4614  143.2447  151.9214 LP  0  0  0  0  0  0  0  0  0  0  0  0  # atno 17343 bound_to 10162
  157.0493  130.5780  149.5368 LP  0  0  0  0  0  0  0  0  0  0  0  0  # atno 17370 bound_to 10713
  156.0097  130.5187  150.7946 LP  0  0  0  0  0  0  0  0  0  0  0  0  # atno 17371 bound_to 10713
  140.5531  134.0608  155.7375 LP  0  0  0  0  0  0  0  0  0  0  0  0  # atno 17394 bound_to 11000
  141.1271  133.9364  157.2612 LP  0  0  0  0  0  0  0  0  0  0  0  0  # atno 17395 bound_to 11000

$$$$
