AV-unprocessed.smi:3125|AV-procd|sdf|11907|dock5
  -GOLD-   2272017293D 1   1.00000     0.00000
 Structure written by MMmdl.
 29 30  0  0  0  0  0  0  0  0  3 V2000
  152.5436  144.6690  158.2023 C   0  0  0  0  0  0  0  0  0  0  0  0
  152.5976  143.3118  158.7491 N   0  0  0  0  0  0  0  0  0  0  0  0
  153.4516  142.8673  159.7259 C   0  0  0  0  0  0  0  0  0  0  0  0
  153.1632  141.5436  159.9283 C   0  0  0  0  0  0  0  0  0  0  0  0
  152.1448  141.2351  159.0686 N   0  3  0  0  0  0  0  0  0  0  0  0
  151.7951  142.3091  158.3483 C   0  0  0  0  0  0  0  0  0  0  0  0
  150.7103  142.3420  157.3065 C   0  0  1  0  0  0  0  0  0  0  0  0
  150.8735  141.2097  156.2747 C   0  0  0  0  0  0  0  0  0  0  0  0
  149.7440  141.2649  155.2343 C   0  0  0  0  0  0  0  0  0  0  0  0
  148.3657  141.2421  155.9156 C   0  0  0  0  0  0  0  0  0  0  0  0
  148.2508  142.3408  156.8994 N   0  3  0  0  0  0  0  0  0  0  0  0
  149.3033  142.2996  157.9394 C   0  0  0  0  0  0  0  0  0  0  0  0
  153.2979  145.2890  158.6884 H   0  0  0  0  0  0  0  0  0  0  0  0
  151.5563  145.0938  158.3851 H   0  0  0  0  0  0  0  0  0  0  0  0
  152.7432  144.6353  157.1307 H   0  0  0  0  0  0  0  0  0  0  0  0
  154.1850  143.5091  160.1932 H   0  0  0  0  0  0  0  0  0  0  0  0
  153.5957  140.8175  160.6014 H   0  0  0  0  0  0  0  0  0  0  0  0
  150.8108  143.2904  156.7791 H   0  0  0  0  0  0  0  0  0  0  0  0
  151.8406  141.2894  155.7764 H   0  0  0  0  0  0  0  0  0  0  0  0
  150.8589  140.2399  156.7741 H   0  0  0  0  0  0  0  0  0  0  0  0
  149.8415  142.1715  154.6354 H   0  0  0  0  0  0  0  0  0  0  0  0
  149.8326  140.4267  154.5423 H   0  0  0  0  0  0  0  0  0  0  0  0
  147.5741  141.3447  155.1730 H   0  0  0  0  0  0  0  0  0  0  0  0
  148.2071  140.2884  156.4211 H   0  0  0  0  0  0  0  0  0  0  0  0
  148.3175  143.2198  156.4060 H   0  0  0  0  0  0  0  0  0  0  0  0
  149.1756  141.3948  158.5356 H   0  0  0  0  0  0  0  0  0  0  0  0
  149.1641  143.1467  158.6120 H   0  0  0  0  0  0  0  0  0  0  0  0
  147.3455  142.2871  157.3450 H   0  0  0  0  0  0  0  0  0  0  0  0
  151.7176  140.3210  158.9860 H   0  0  0  0  0  0  0  0  0  0  0  0
  1  2  1  0  0  0  0
  1 13  1  0  0  0  0
  1 14  1  0  0  0  0
  1 15  1  0  0  0  0
  2  6  1  0  0  0  0
  2  3  1  0  0  0  0
  3  4  2  0  0  0  0
  3 16  1  0  0  0  0
  4  5  1  0  0  0  0
  4 17  1  0  0  0  0
  5  6  2  0  0  0  0
  5 29  1  0  0  0  0
  6  7  1  0  0  0  0
  7 12  1  0  0  0  0
  7  8  1  0  0  0  0
  7 18  1  0  0  0  0
  8  9  1  0  0  0  0
  8 19  1  0  0  0  0
  8 20  1  0  0  0  0
  9 10  1  0  0  0  0
  9 21  1  0  0  0  0
  9 22  1  0  0  0  0
 10 11  1  0  0  0  0
 10 23  1  0  0  0  0
 10 24  1  0  0  0  0
 11 12  1  0  0  0  0
 11 25  1  0  0  0  0
 11 28  1  0  0  0  0
 12 26  1  0  0  0  0
 12 27  1  0  0  0  0
M  CHG  1   5   1
M  CHG  1  11   1
M  END
> <s_m_source_file>
AV-unprocessed.smi

> <i_m_source_file_index>
3125

> <i_lp_mmshare_version>
43012

> <i_f3d_flags>
0

> <s_epik_input>
W0NIM11uMVtjSF1bY0hdbmMxW0NAQEhdMltDSDJdW0NIMl1bQ0gyXVtOSF1bQ0gyXTI=

> <s_epik_cmdline>
J2VwaWtfcHl0aG9uJywgJy1waCcsICc3LjAnLCAnLXRuJywgJzgnLCAnLW1hJywgJzIwMCcsICctbWV0YWxfYmluZGluZycsICctaW1hZScsICc8aW5maWxlLm1hZT4nLCAnLW9tYWUnLCAnPG91dGZpbGUubWFlPic=

> <r_lp_tautomer_probability>
1

> <r_epik_Ionization_Penalty>
0.803551

> <r_epik_Ionization_Penalty_Charging>
0.000747377

> <r_epik_Ionization_Penalty_Neutral>
0.802804

> <r_epik_State_Penalty>
0.360941

> <r_epik_Charging_Adjusted_Penalty>
0.361688

> <i_epik_Tot_Q>
2

> <i_epik_Tot_abs_Q>
2

> <r_epik_Metal_State_Penalty>
3.98724

> <b_epik_Metal_Only>
0

> <s_lp_Force_Field>
OPLS_2005

> <r_lp_Energy>
24.5109

> <b_lp_Chiralities_Consistent>
1

> <s_lp_Variant>
AV-unprocessed.smi:3125-2

> <Gold.Version>
5.8.1

> <Gold.Id.Protein>
6NUR|6NUR_protein|mol2

> <Gold.PLP.Fitness>
35.9007

> <Gold.PLP.PLP>
-30.3272

> <Gold.PLP.part.hbond>
-1.0000

> <Gold.PLP.part.metal>
0.0000

> <Gold.PLP.part.buried>
-3.3583

> <Gold.PLP.part.nonpolar>
-26.9532

> <Gold.PLP.part.repulsive>
0.1339

> <Gold.PLP.ligand.clash>
0.0000

> <Gold.PLP.ligand.torsion>
0.2242

> <Gold.PLP.Chemscore.Hbond>
2.0000

> <Gold.PLP.Chemscore.CHOScore>
0.0000

> <Gold.PLP.Chemscore.Metal>
0.0000

> <Gold.Chemscore.Hbonds>
donor molecule, donor type, donor heavy atom, donor atom, acceptor molecule, acceptor atom, score
      L1  H    11    25       P1  8028  2.00

> <Gold.PLP.Chemscore.Internal.Correction>
0.0218

> <Gold.Rescore>
     Score         DG    S(hbond)    S(metal)    S(lipo)     H(rot)  DE(clash)    DE(int)     intcor
     13.75     -13.99       0.96        0.00      67.33       1.00       0.06       0.17       ----

> <Gold.Chemscore.Fitness>
13.7539

> <Gold.Chemscore.DG>
-13.9887

> <Gold.Chemscore.ZeroCoef>
-5.4800

> <Gold.Chemscore.Hbond>
0.9554

> <Gold.Chemscore.Metal>
0.0000

> <Gold.Chemscore.Lipo>
67.3299

> <Gold.Chemscore.Internal_Hbond>
0.0000

> <Gold.Chemscore.DEClash>
0.0606

> <Gold.Chemscore.DEInternal>
0.1742

> <Gold.Chemscore.Rot>
1.0000

> <Gold.Chemscore.Internal.Correction>
   9.000000E+99

> <Gold.Chemscore.Hbonds>
donor molecule, donor type, donor heavy atom, donor atom, acceptor molecule, acceptor atom, score
      L1  H    11    25       P1  8028  0.55

> <Gold.Chemscore.Hbond.Weighted>
-3.1911

> <Gold.Chemscore.Metal.Weighted>
-0.0000

> <Gold.Chemscore.Lipo.Weighted>
-7.8776

> <Gold.Chemscore.Internal_Hbond.Weighted>
0.0000

> <Gold.Chemscore.DEClash.Weighted>
0.0606

> <Gold.Chemscore.DEInternal.Weighted>
0.1742

> <Gold.Chemscore.Rot.Weighted>
2.5600

> <Gold.Chemscore.Internal.Correction.Weighted>
   9.000000E+99

> <Gold.Protein.RotatedTorsions>
[ 6907 6896 6895 6894 ] final -146.92 input  -60.11 | X-H torsion
[ 7974 7965 7964 7962 ] final  -53.68 input  175.53 | X-H torsion
[ 8008 7997 7996 7995 ] final -140.02 input   59.86 | X-H torsion
[ 10167 10162 10161 10158 ] final   27.26 input  -65.29 | X-H torsion
[ 10718 10713 10712 10709 ] final   58.51 input   66.30 | X-H torsion
[ 10763 10752 10751 10750 ] final -138.16 input  -60.55 | X-H torsion
[ 11005 11000 10999 10996 ] final  -97.23 input  -57.11 | X-H torsion

> <Gold.Protein.ActiveResidues>
 VAL166  LYS551  ARG553  GLY616  TRP617  ASP618  TYR619  PRO620  LYS621  CYS622 
 ASP623  PHE694  ASN695  SER759  ASP760  ASP761  ALA762  ILE779  LEU786  VAL792 
 PHE793  MET794  SER795  GLU796  ALA797  LYS798  CYS799  TRP800  GLU811  SER814 

> <Gold.Protein.RotatedAtoms>
  151.1484  133.4924  159.2595 H   0  0  0  0  0  0  0  0  0  0  0  0  # atno 6907 bound_to 6896
  151.1580  135.0259  159.8707 H   0  0  0  0  0  0  0  0  0  0  0  0  # atno 6908 bound_to 6896
  152.5463  134.1361  159.8513 H   0  0  0  0  0  0  0  0  0  0  0  0  # atno 6909 bound_to 6896
  145.8941  140.8047  142.9776 H   0  0  0  0  0  0  0  0  0  0  0  0  # atno 7974 bound_to 7965
  155.4544  140.0541  157.2997 H   0  0  0  0  0  0  0  0  0  0  0  0  # atno 8008 bound_to 7997
  154.4763  140.2062  155.9825 H   0  0  0  0  0  0  0  0  0  0  0  0  # atno 8009 bound_to 7997
  156.1137  140.3200  155.8114 H   0  0  0  0  0  0  0  0  0  0  0  0  # atno 8010 bound_to 7997
  140.4953  144.0401  150.6312 H   0  0  0  0  0  0  0  0  0  0  0  0  # atno 10167 bound_to 10162
  157.5602  130.8830  149.9099 H   0  0  0  0  0  0  0  0  0  0  0  0  # atno 10718 bound_to 10713
  154.8644  135.3620  154.5340 H   0  0  0  0  0  0  0  0  0  0  0  0  # atno 10763 bound_to 10752
  153.5964  135.7014  153.5407 H   0  0  0  0  0  0  0  0  0  0  0  0  # atno 10764 bound_to 10752
  153.3328  135.4119  155.1471 H   0  0  0  0  0  0  0  0  0  0  0  0  # atno 10765 bound_to 10752
  141.1386  133.8155  157.0678 H   0  0  0  0  0  0  0  0  0  0  0  0  # atno 11005 bound_to 11000
  144.6732  140.1575  143.7425 LP  0  0  0  0  0  0  0  0  0  0  0  0  # atno 17320 bound_to 7965
  145.8872  139.2355  143.1570 LP  0  0  0  0  0  0  0  0  0  0  0  0  # atno 17321 bound_to 7965
  140.3682  143.2869  152.0308 LP  0  0  0  0  0  0  0  0  0  0  0  0  # atno 17342 bound_to 10162
  139.4860  144.6250  151.7181 LP  0  0  0  0  0  0  0  0  0  0  0  0  # atno 17343 bound_to 10162
  156.0655  130.3693  150.0887 LP  0  0  0  0  0  0  0  0  0  0  0  0  # atno 17370 bound_to 10713
  156.9052  130.9633  151.3571 LP  0  0  0  0  0  0  0  0  0  0  0  0  # atno 17371 bound_to 10713
  140.0530  134.9795  157.1171 LP  0  0  0  0  0  0  0  0  0  0  0  0  # atno 17394 bound_to 11000
  140.3961  134.2133  155.7164 LP  0  0  0  0  0  0  0  0  0  0  0  0  # atno 17395 bound_to 11000

$$$$
