AV-unprocessed.smi:1319|AV-procd|sdf|5459|dock3
  -GOLD-   22720 5 23D 1   1.00000     0.00000
 Structure written by MMmdl.
 28 29  0  0  0  0  0  0  0  0  1 V2000
  149.3653  138.4584  153.5459 N   0  0  0  0  0  0  0  0  0  0  0  0
  150.3746  138.9571  154.3334 C   0  0  0  0  0  0  0  0  0  0  0  0
  151.4813  138.2084  154.4226 N   0  0  0  0  0  0  0  0  0  0  0  0
  152.4151  138.7620  155.2068 C   0  0  0  0  0  0  0  0  0  0  0  0
  153.5842  138.0554  155.3522 N   0  0  0  0  0  0  0  0  0  0  0  0
  152.3420  139.9242  155.8652 N   0  0  0  0  0  0  0  0  0  0  0  0
  151.1720  140.5413  155.6660 C   0  0  0  0  0  0  0  0  0  0  0  0
  150.9703  142.0998  156.4884 S   0  0  0  0  0  0  0  0  0  0  0  0
  151.8895  141.7461  158.0114 C   0  0  0  0  0  0  0  0  0  0  0  0
  151.4985  142.6963  159.1514 C   0  0  1  0  0  0  0  0  0  0  0  0
  152.3559  142.5642  160.4150 C   0  0  0  0  0  0  0  0  0  0  0  0
  152.4289  143.9807  160.9703 C   0  0  0  0  0  0  0  0  0  0  0  0
  151.6713  144.8248  159.9455 C   0  0  0  0  0  0  0  0  0  0  0  0
  151.7071  144.0445  158.7613 O   0  0  0  0  0  0  0  0  0  0  0  0
  150.1375  140.1349  154.9216 N   0  0  0  0  0  0  0  0  0  0  0  0
  148.5032  138.9717  153.4342 H   0  0  0  0  0  0  0  0  0  0  0  0
  149.4916  137.5928  153.0418 H   0  0  0  0  0  0  0  0  0  0  0  0
  153.7074  137.1699  154.8828 H   0  0  0  0  0  0  0  0  0  0  0  0
  154.3426  138.4300  155.9035 H   0  0  0  0  0  0  0  0  0  0  0  0
  151.7169  140.7094  158.3024 H   0  0  0  0  0  0  0  0  0  0  0  0
  152.9546  141.8419  157.7984 H   0  0  0  0  0  0  0  0  0  0  0  0
  150.4428  142.5717  159.4012 H   0  0  0  0  0  0  0  0  0  0  0  0
  151.9242  141.8581  161.1249 H   0  0  0  0  0  0  0  0  0  0  0  0
  153.3600  142.2159  160.1697 H   0  0  0  0  0  0  0  0  0  0  0  0
  151.9870  144.0635  161.9637 H   0  0  0  0  0  0  0  0  0  0  0  0
  153.4692  144.3014  161.0380 H   0  0  0  0  0  0  0  0  0  0  0  0
  150.6341  144.9674  160.2530 H   0  0  0  0  0  0  0  0  0  0  0  0
  152.1199  145.8068  159.7943 H   0  0  0  0  0  0  0  0  0  0  0  0
  1  2  1  0  0  0  0
  1 16  1  0  0  0  0
  1 17  1  0  0  0  0
  2 15  1  0  0  0  0
  2  3  2  0  0  0  0
  3  4  1  0  0  0  0
  4  5  1  0  0  0  0
  4  6  2  0  0  0  0
  5 18  1  0  0  0  0
  5 19  1  0  0  0  0
  6  7  1  0  0  0  0
  7  8  1  0  0  0  0
  7 15  2  0  0  0  0
  8  9  1  0  0  0  0
  9 10  1  0  0  0  0
  9 20  1  0  0  0  0
  9 21  1  0  0  0  0
 10 14  1  0  0  0  0
 10 11  1  0  0  0  0
 10 22  1  0  0  0  0
 11 12  1  0  0  0  0
 11 23  1  0  0  0  0
 11 24  1  0  0  0  0
 12 13  1  0  0  0  0
 12 25  1  0  0  0  0
 12 26  1  0  0  0  0
 13 14  1  0  0  0  0
 13 27  1  0  0  0  0
 13 28  1  0  0  0  0
M  END
> <s_m_source_file>
AV-unprocessed.smi

> <i_m_source_file_index>
1319

> <i_lp_mmshare_version>
43012

> <i_f3d_flags>
0

> <s_epik_input>
W05IMl1jMW5jKFtOSDJdKW5jKG4xKVNbQ0gyXVtDQEBIXTJbQ0gyXVtDSDJdW0NIMl1PMg==

> <s_epik_cmdline>
J2VwaWtfcHl0aG9uJywgJy1waCcsICc3LjAnLCAnLXRuJywgJzgnLCAnLW1hJywgJzIwMCcsICctbWV0YWxfYmluZGluZycsICctaW1hZScsICc8aW5maWxlLm1hZT4nLCAnLW9tYWUnLCAnPG91dGZpbGUubWFlPic=

> <r_lp_tautomer_probability>
1

> <r_epik_Ionization_Penalty>
0.000877611

> <r_epik_Ionization_Penalty_Charging>
0

> <r_epik_Ionization_Penalty_Neutral>
0.000877611

> <r_epik_State_Penalty>
-0

> <r_epik_Charging_Adjusted_Penalty>
0

> <i_epik_Tot_Q>
0

> <i_epik_Tot_abs_Q>
0

> <r_epik_Metal_State_Penalty>
-0

> <b_epik_Metal_Only>
0

> <s_lp_Force_Field>
OPLS_2005

> <r_lp_Energy>
7.48637

> <b_lp_Chiralities_Consistent>
1

> <s_lp_Variant>
AV-unprocessed.smi:1319-2

> <Gold.Version>
5.8.1

> <Gold.Id.Protein>
6NUR|6NUR_protein|mol2

> <Gold.PLP.Fitness>
36.4253

> <Gold.PLP.PLP>
-31.4998

> <Gold.PLP.part.hbond>
-3.9039

> <Gold.PLP.part.metal>
0.0000

> <Gold.PLP.part.buried>
-5.6165

> <Gold.PLP.part.nonpolar>
-23.0970

> <Gold.PLP.part.repulsive>
1.4213

> <Gold.PLP.ligand.clash>
0.0000

> <Gold.PLP.ligand.torsion>
0.4650

> <Gold.PLP.Chemscore.Hbond>
1.9500

> <Gold.PLP.Chemscore.CHOScore>
0.0000

> <Gold.PLP.Chemscore.Metal>
0.0000

> <Gold.Chemscore.Hbonds>
donor molecule, donor type, donor heavy atom, donor atom, acceptor molecule, acceptor atom, score
      L1  H     1    17       P1  7948  1.00
      P1  H  7997  8008       L1     6  0.86

> <Gold.PLP.Chemscore.Internal.Correction>
0.0055

> <Gold.Rescore>
     Score         DG    S(hbond)    S(metal)    S(lipo)     H(rot)  DE(clash)    DE(int)     intcor
     10.73     -11.64       1.23        0.00      60.36       1.96       0.53       0.39       ----

> <Gold.Chemscore.Fitness>
10.7266

> <Gold.Chemscore.DG>
-11.6416

> <Gold.Chemscore.ZeroCoef>
-5.4800

> <Gold.Chemscore.Hbond>
1.2343

> <Gold.Chemscore.Metal>
0.0000

> <Gold.Chemscore.Lipo>
60.3553

> <Gold.Chemscore.Internal_Hbond>
0.0000

> <Gold.Chemscore.DEClash>
0.5300

> <Gold.Chemscore.DEInternal>
0.3850

> <Gold.Chemscore.Rot>
1.9619

> <Gold.Chemscore.Internal.Correction>
   9.000000E+99

> <Gold.Chemscore.Hbonds>
donor molecule, donor type, donor heavy atom, donor atom, acceptor molecule, acceptor atom, score
      L1  H     1    17       P1  7948  0.84
      P1  H  7997  8008       L1     6  0.16

> <Gold.Chemscore.Hbond.Weighted>
-4.1224

> <Gold.Chemscore.Metal.Weighted>
-0.0000

> <Gold.Chemscore.Lipo.Weighted>
-7.0616

> <Gold.Chemscore.Internal_Hbond.Weighted>
0.0000

> <Gold.Chemscore.DEClash.Weighted>
0.5300

> <Gold.Chemscore.DEInternal.Weighted>
0.3850

> <Gold.Chemscore.Rot.Weighted>
5.0224

> <Gold.Chemscore.Internal.Correction.Weighted>
   9.000000E+99

> <Gold.Protein.RotatedTorsions>
[ 6907 6896 6895 6894 ] final   -9.37 input  -60.11 | X-H torsion
[ 7974 7965 7964 7962 ] final  -53.14 input  175.53 | X-H torsion
[ 8008 7997 7996 7995 ] final  -41.23 input   59.86 | X-H torsion
[ 10167 10162 10161 10158 ] final  164.47 input  -65.29 | X-H torsion
[ 10718 10713 10712 10709 ] final   92.13 input   66.30 | X-H torsion
[ 10763 10752 10751 10750 ] final  -14.17 input  -60.55 | X-H torsion
[ 11005 11000 10999 10996 ] final   -2.71 input  -57.11 | X-H torsion

> <Gold.Protein.ActiveResidues>
 VAL166  LYS551  ARG553  GLY616  TRP617  ASP618  TYR619  PRO620  LYS621  CYS622 
 ASP623  PHE694  ASN695  SER759  ASP760  ASP761  ALA762  ILE779  LEU786  VAL792 
 PHE793  MET794  SER795  GLU796  ALA797  LYS798  CYS799  TRP800  GLU811  SER814 

> <Gold.Protein.RotatedAtoms>
  151.4189  135.0995  159.9607 H   0  0  0  0  0  0  0  0  0  0  0  0  # atno 6907 bound_to 6896
  152.4995  133.8726  159.7317 H   0  0  0  0  0  0  0  0  0  0  0  0  # atno 6908 bound_to 6896
  150.9238  133.6791  159.2854 H   0  0  0  0  0  0  0  0  0  0  0  0  # atno 6909 bound_to 6896
  145.9001  140.8001  142.9747 H   0  0  0  0  0  0  0  0  0  0  0  0  # atno 7974 bound_to 7965
  154.4005  140.1505  156.3157 H   0  0  0  0  0  0  0  0  0  0  0  0  # atno 8008 bound_to 7997
  155.8575  140.3455  155.5713 H   0  0  0  0  0  0  0  0  0  0  0  0  # atno 8009 bound_to 7997
  155.7916  140.0857  157.1996 H   0  0  0  0  0  0  0  0  0  0  0  0  # atno 8010 bound_to 7997
  139.4889  144.4232  151.9161 H   0  0  0  0  0  0  0  0  0  0  0  0  # atno 10167 bound_to 10162
  157.6959  131.0432  150.3834 H   0  0  0  0  0  0  0  0  0  0  0  0  # atno 10718 bound_to 10713
  153.5243  135.7015  153.5715 H   0  0  0  0  0  0  0  0  0  0  0  0  # atno 10763 bound_to 10752
  153.3750  135.3935  155.1816 H   0  0  0  0  0  0  0  0  0  0  0  0  # atno 10764 bound_to 10752
  154.8691  135.3821  154.4735 H   0  0  0  0  0  0  0  0  0  0  0  0  # atno 10765 bound_to 10752
  140.6613  133.9317  155.8438 H   0  0  0  0  0  0  0  0  0  0  0  0  # atno 11005 bound_to 11000
  144.6735  140.1664  143.7418 LP  0  0  0  0  0  0  0  0  0  0  0  0  # atno 17320 bound_to 7965
  145.8801  139.2318  143.1610 LP  0  0  0  0  0  0  0  0  0  0  0  0  # atno 17321 bound_to 7965
  140.3677  144.2894  150.5924 LP  0  0  0  0  0  0  0  0  0  0  0  0  # atno 17342 bound_to 10162
  140.5347  143.2236  151.8182 LP  0  0  0  0  0  0  0  0  0  0  0  0  # atno 17343 bound_to 10162
  156.4246  130.3959  149.6802 LP  0  0  0  0  0  0  0  0  0  0  0  0  # atno 17370 bound_to 10713
  156.4041  130.7689  151.2699 LP  0  0  0  0  0  0  0  0  0  0  0  0  # atno 17371 bound_to 10713
  141.0463  134.0550  157.3840 LP  0  0  0  0  0  0  0  0  0  0  0  0  # atno 17394 bound_to 11000
  139.9012  135.0165  156.7276 LP  0  0  0  0  0  0  0  0  0  0  0  0  # atno 17395 bound_to 11000

$$$$
