AV-unprocessed.smi:2060|AV-procd|sdf|8359|dock10
  -GOLD-   2272011 33D 1   1.00000     0.00000
 Structure written by MMmdl.
 45 46  0  0  0  0  0  0  0  0  3 V2000
  152.0405  139.1734  155.3669 C   0  0  0  0  0  0  0  0  0  0  0  0
  151.3341  137.8960  154.8599 C   0  0  0  0  0  0  0  0  0  0  0  0
  149.7785  137.7848  155.0532 C   0  0  2  0  0  0  0  0  0  0  0  0
  149.1098  138.8919  154.1751 C   0  0  0  0  0  0  0  0  0  0  0  0
  149.3569  138.0303  156.5510 C   0  0  0  0  0  0  0  0  0  0  0  0
  150.2616  137.3384  157.4773 N   0  5  0  0  0  0  0  0  0  0  0  0
  149.9392  136.9748  158.7485 C   0  0  0  0  0  0  0  0  0  0  0  0
  150.6969  136.8905  159.7219 O   0  0  0  0  0  0  0  0  0  0  0  0
  148.6311  136.6868  158.8780 N   0  0  0  0  0  0  0  0  0  0  0  0
  147.9238  136.2640  160.0346 C   0  0  0  0  0  0  0  0  0  0  0  0
  147.5738  134.8986  160.2106 C   0  0  0  0  0  0  0  0  0  0  0  0
  146.9223  134.8985  161.4117 C   0  0  0  0  0  0  0  0  0  0  0  0
  146.2833  133.8217  162.2196 C   0  0  0  0  0  0  0  0  0  0  0  0
  146.8784  136.1568  161.9269 O   0  0  0  0  0  0  0  0  0  0  0  0
  147.5229  137.0276  161.0402 N   0  0  0  0  0  0  0  0  0  0  0  0
  149.3086  136.3986  154.6460 N   0  3  0  0  0  0  0  0  0  0  0  0
  150.1293  135.2427  155.1113 C   0  0  0  0  0  0  0  0  0  0  0  0
  149.6602  133.9377  154.4437 C   0  0  0  0  0  0  0  0  0  0  0  0
  148.2804  133.7198  154.6990 O   0  0  0  0  0  0  0  0  0  0  0  0
  147.4820  134.7702  154.1736 C   0  0  0  0  0  0  0  0  0  0  0  0
  147.8621  136.0849  154.8694 C   0  0  0  0  0  0  0  0  0  0  0  0
  153.1147  139.1018  155.1962 H   0  0  0  0  0  0  0  0  0  0  0  0
  151.8974  139.3307  156.4358 H   0  0  0  0  0  0  0  0  0  0  0  0
  151.6965  140.0650  154.8435 H   0  0  0  0  0  0  0  0  0  0  0  0
  151.5543  137.8230  153.7941 H   0  0  0  0  0  0  0  0  0  0  0  0
  151.8466  137.0448  155.3128 H   0  0  0  0  0  0  0  0  0  0  0  0
  149.3244  139.9048  154.5230 H   0  0  0  0  0  0  0  0  0  0  0  0
  148.0218  138.8048  154.1407 H   0  0  0  0  0  0  0  0  0  0  0  0
  149.4689  138.8541  153.1461 H   0  0  0  0  0  0  0  0  0  0  0  0
  149.3444  139.1054  156.7334 H   0  0  0  0  0  0  0  0  0  0  0  0
  148.3258  137.7073  156.6943 H   0  0  0  0  0  0  0  0  0  0  0  0
  148.0759  136.7873  158.0416 H   0  0  0  0  0  0  0  0  0  0  0  0
  147.7672  134.0563  159.5629 H   0  0  0  0  0  0  0  0  0  0  0  0
  146.4777  132.8411  161.7849 H   0  0  0  0  0  0  0  0  0  0  0  0
  145.2035  133.9635  162.2654 H   0  0  0  0  0  0  0  0  0  0  0  0
  146.6695  133.8220  163.2390 H   0  0  0  0  0  0  0  0  0  0  0  0
  151.1803  135.3571  154.8544 H   0  0  0  0  0  0  0  0  0  0  0  0
  150.0661  135.1579  156.1968 H   0  0  0  0  0  0  0  0  0  0  0  0
  149.8405  133.9676  153.3677 H   0  0  0  0  0  0  0  0  0  0  0  0
  150.2275  133.0931  154.8354 H   0  0  0  0  0  0  0  0  0  0  0  0
  147.6094  134.8457  153.0923 H   0  0  0  0  0  0  0  0  0  0  0  0
  146.4327  134.5383  154.3566 H   0  0  0  0  0  0  0  0  0  0  0  0
  147.6569  135.9906  155.9363 H   0  0  0  0  0  0  0  0  0  0  0  0
  147.2136  136.8741  154.4905 H   0  0  0  0  0  0  0  0  0  0  0  0
  149.4290  136.4100  153.6418 H   0  0  0  0  0  0  0  0  0  0  0  0
  1  2  1  0  0  0  0
  1 22  1  0  0  0  0
  1 23  1  0  0  0  0
  1 24  1  0  0  0  0
  2  3  1  0  0  0  0
  2 25  1  0  0  0  0
  2 26  1  0  0  0  0
  3  4  1  0  0  0  0
  3  5  1  0  0  0  0
  3 16  1  0  0  0  0
  4 27  1  0  0  0  0
  4 28  1  0  0  0  0
  4 29  1  0  0  0  0
  5  6  1  0  0  0  0
  5 30  1  0  0  0  0
  5 31  1  0  0  0  0
  6  7  1  0  0  0  0
  7  8  2  0  0  0  0
  7  9  1  0  0  0  0
  9 10  1  0  0  0  0
  9 32  1  0  0  0  0
 10 15  2  0  0  0  0
 10 11  1  0  0  0  0
 11 12  2  0  0  0  0
 11 33  1  0  0  0  0
 12 13  1  0  0  0  0
 12 14  1  0  0  0  0
 13 34  1  0  0  0  0
 13 35  1  0  0  0  0
 13 36  1  0  0  0  0
 14 15  1  0  0  0  0
 16 21  1  0  0  0  0
 16 17  1  0  0  0  0
 16 45  1  0  0  0  0
 17 18  1  0  0  0  0
 17 37  1  0  0  0  0
 17 38  1  0  0  0  0
 18 19  1  0  0  0  0
 18 39  1  0  0  0  0
 18 40  1  0  0  0  0
 19 20  1  0  0  0  0
 20 21  1  0  0  0  0
 20 41  1  0  0  0  0
 20 42  1  0  0  0  0
 21 43  1  0  0  0  0
 21 44  1  0  0  0  0
M  CHG  1   6  -1
M  CHG  1  16   1
M  END
> <s_m_source_file>
AV-unprocessed.smi

> <i_m_source_file_index>
2060

> <i_lp_mmshare_version>
43012

> <i_f3d_flags>
0

> <s_epik_input>
W0NIMl0xW0NIMl1PW0NIMl1bQ0gyXU4xW0NAQF0oW0NIM10pKFtDSDJdW0NIM10pW0NIMl1bTkhdQyg9TylbTkhdYzJbY0hdYyhbQ0gzXSlvbjI=

> <s_epik_cmdline>
J2VwaWtfcHl0aG9uJywgJy1waCcsICc3LjAnLCAnLXRuJywgJzgnLCAnLW1hJywgJzIwMCcsICctbWV0YWxfYmluZGluZycsICctaW1hZScsICc8aW5maWxlLm1hZT4nLCAnLW9tYWUnLCAnPG91dGZpbGUubWFlPic=

> <r_epik_Ionization_Penalty>
6.79469

> <r_epik_Ionization_Penalty_Charging>
6.79469

> <r_epik_Ionization_Penalty_Neutral>
5.68576e-06

> <r_epik_State_Penalty>
7.33145

> <r_epik_Charging_Adjusted_Penalty>
14.1261

> <i_epik_Tot_Q>
0

> <i_epik_Tot_abs_Q>
2

> <r_epik_Metal_State_Penalty>
3.24803

> <b_epik_Metal_Only>
1

> <s_lp_Force_Field>
OPLS_2005

> <r_lp_Energy>
28.6548

> <b_lp_Chiralities_Consistent>
1

> <s_lp_Variant>
AV-unprocessed.smi:2060-6

> <Gold.Version>
5.8.1

> <Gold.Id.Protein>
6NUR|6NUR_protein|mol2

> <Gold.PLP.Fitness>
44.4667

> <Gold.PLP.PLP>
-32.9522

> <Gold.PLP.part.hbond>
-3.9753

> <Gold.PLP.part.metal>
0.0000

> <Gold.PLP.part.buried>
-4.3231

> <Gold.PLP.part.nonpolar>
-24.5836

> <Gold.PLP.part.repulsive>
0.2381

> <Gold.PLP.ligand.clash>
0.0000

> <Gold.PLP.ligand.torsion>
1.5786

> <Gold.PLP.Chemscore.Hbond>
4.7920

> <Gold.PLP.Chemscore.CHOScore>
0.0000

> <Gold.PLP.Chemscore.Metal>
0.0000

> <Gold.Chemscore.Hbonds>
donor molecule, donor type, donor heavy atom, donor atom, acceptor molecule, acceptor atom, score
      L1  H    16    45       P1  7948  2.00
      P1  H  6896  6909       L1     8  1.00
      P1  H  6931  6943       L1    15  0.72
      P1  H  6934  6947       L1    15  0.99

> <Gold.PLP.Chemscore.Internal.Correction>
0.2956

> <Gold.Rescore>
     Score         DG    S(hbond)    S(metal)    S(lipo)     H(rot)  DE(clash)    DE(int)     intcor
     18.78     -20.27       3.63        0.00      60.55       1.73       0.03       1.47       ----

> <Gold.Chemscore.Fitness>
18.7784

> <Gold.Chemscore.DG>
-20.2721

> <Gold.Chemscore.ZeroCoef>
-5.4800

> <Gold.Chemscore.Hbond>
3.6331

> <Gold.Chemscore.Metal>
0.0000

> <Gold.Chemscore.Lipo>
60.5545

> <Gold.Chemscore.Internal_Hbond>
0.0000

> <Gold.Chemscore.DEClash>
0.0271

> <Gold.Chemscore.DEInternal>
1.4665

> <Gold.Chemscore.Rot>
1.7294

> <Gold.Chemscore.Internal.Correction>
   9.000000E+99

> <Gold.Chemscore.Hbonds>
donor molecule, donor type, donor heavy atom, donor atom, acceptor molecule, acceptor atom, score
      L1  H    16    45       P1  7948  0.78
      P1  H  6896  6909       L1     8  0.78
      P1  H  6931  6943       L1    15  0.56
      P1  H  6934  6947       L1    15  0.88

> <Gold.Chemscore.Hbond.Weighted>
-12.1344

> <Gold.Chemscore.Metal.Weighted>
-0.0000

> <Gold.Chemscore.Lipo.Weighted>
-7.0849

> <Gold.Chemscore.Internal_Hbond.Weighted>
0.0000

> <Gold.Chemscore.DEClash.Weighted>
0.0271

> <Gold.Chemscore.DEInternal.Weighted>
1.4665

> <Gold.Chemscore.Rot.Weighted>
4.4272

> <Gold.Chemscore.Internal.Correction.Weighted>
   9.000000E+99

> <Gold.Protein.RotatedTorsions>
[ 6907 6896 6895 6894 ] final  105.01 input  -60.11 | X-H torsion
[ 7974 7965 7964 7962 ] final   73.24 input  175.53 | X-H torsion
[ 8008 7997 7996 7995 ] final  -33.86 input   59.86 | X-H torsion
[ 10167 10162 10161 10158 ] final  143.54 input  -65.29 | X-H torsion
[ 10718 10713 10712 10709 ] final -116.80 input   66.30 | X-H torsion
[ 10763 10752 10751 10750 ] final  150.94 input  -60.55 | X-H torsion
[ 11005 11000 10999 10996 ] final  -14.17 input  -57.11 | X-H torsion

> <Gold.Protein.ActiveResidues>
 VAL166  LYS551  ARG553  GLY616  TRP617  ASP618  TYR619  PRO620  LYS621  CYS622 
 ASP623  PHE694  ASN695  SER759  ASP760  ASP761  ALA762  ILE779  LEU786  VAL792 
 PHE793  MET794  SER795  GLU796  ALA797  LYS798  CYS799  TRP800  GLU811  SER814 

> <Gold.Protein.RotatedAtoms>
  152.5245  133.9592  159.7708 H   0  0  0  0  0  0  0  0  0  0  0  0  # atno 6907 bound_to 6896
  150.9886  133.6164  159.2718 H   0  0  0  0  0  0  0  0  0  0  0  0  # atno 6908 bound_to 6896
  151.3316  135.0849  159.9393 H   0  0  0  0  0  0  0  0  0  0  0  0  # atno 6909 bound_to 6896
  145.7434  139.2730  143.1473 H   0  0  0  0  0  0  0  0  0  0  0  0  # atno 7974 bound_to 7965
  154.4137  140.1699  156.1956 H   0  0  0  0  0  0  0  0  0  0  0  0  # atno 8008 bound_to 7997
  155.9567  140.3396  155.6431 H   0  0  0  0  0  0  0  0  0  0  0  0  # atno 8009 bound_to 7997
  155.6801  140.0721  157.2479 H   0  0  0  0  0  0  0  0  0  0  0  0  # atno 8010 bound_to 7997
  139.4967  144.6033  151.6433 H   0  0  0  0  0  0  0  0  0  0  0  0  # atno 10167 bound_to 10162
  156.0988  130.6155  150.9082 H   0  0  0  0  0  0  0  0  0  0  0  0  # atno 10718 bound_to 10713
  154.0957  135.2849  155.3262 H   0  0  0  0  0  0  0  0  0  0  0  0  # atno 10763 bound_to 10752
  154.6590  135.5341  153.7997 H   0  0  0  0  0  0  0  0  0  0  0  0  # atno 10764 bound_to 10752
  153.0397  135.6529  154.1123 H   0  0  0  0  0  0  0  0  0  0  0  0  # atno 10765 bound_to 10752
  140.7837  133.8343  155.9315 H   0  0  0  0  0  0  0  0  0  0  0  0  # atno 11005 bound_to 11000
  146.0426  140.8149  142.9821 LP  0  0  0  0  0  0  0  0  0  0  0  0  # atno 17320 bound_to 7965
  144.6865  140.2933  143.7274 LP  0  0  0  0  0  0  0  0  0  0  0  0  # atno 17321 bound_to 7965
  140.5688  144.0144  150.6206 LP  0  0  0  0  0  0  0  0  0  0  0  0  # atno 17342 bound_to 10162
  140.3254  143.3110  152.0741 LP  0  0  0  0  0  0  0  0  0  0  0  0  # atno 17343 bound_to 10162
  157.6155  131.0933  150.8718 LP  0  0  0  0  0  0  0  0  0  0  0  0  # atno 17370 bound_to 10713
  156.8850  130.5193  149.5289 LP  0  0  0  0  0  0  0  0  0  0  0  0  # atno 17371 bound_to 10713
  140.9458  134.1842  157.4764 LP  0  0  0  0  0  0  0  0  0  0  0  0  # atno 17394 bound_to 11000
  139.8739  134.9890  156.5436 LP  0  0  0  0  0  0  0  0  0  0  0  0  # atno 17395 bound_to 11000

$$$$
