AV-unprocessed.smi:193|AV-procd|sdf|1501|dock5
  -GOLD-   2262019333D 1   1.00000     0.00000
 Structure written by MMmdl.
 62 66  0  0  0  0  0  0  0  0  2 V2000
  146.3964  131.4151  156.5420 C   0  0  0  0  0  0  0  0  0  0  0  0
  147.0895  132.1982  155.4165 C   0  0  1  0  0  0  0  0  0  0  0  0
  148.3842  132.8376  155.9682 C   0  0  0  0  0  0  0  0  0  0  0  0
  148.9923  133.8189  155.0705 N   0  0  0  0  0  0  0  0  0  0  0  0
  148.6746  135.1317  155.2301 C   0  0  0  0  0  0  0  0  0  0  0  0
  147.4013  135.4772  155.5594 N   0  0  0  0  0  0  0  0  0  0  0  0
  147.0621  136.7620  155.6980 C   0  0  0  0  0  0  0  0  0  0  0  0
  147.8263  137.8455  155.5549 N   0  0  0  0  0  0  0  0  0  0  0  0
  149.1074  137.5085  155.2323 C   0  0  0  0  0  0  0  0  0  0  0  0
  149.6132  136.1891  155.0557 C   0  0  0  0  0  0  0  0  0  0  0  0
  150.9693  136.2423  154.7536 N   0  0  0  0  0  0  0  0  0  0  0  0
  151.2460  137.5174  154.7426 C   0  0  0  0  0  0  0  0  0  0  0  0
  150.1825  138.3503  155.0065 N   0  0  0  0  0  0  0  0  0  0  0  0
  150.2041  139.8044  155.0502 C   0  0  0  0  0  0  0  0  0  0  0  0
  150.1913  140.3913  156.4841 C   0  0  0  0  0  0  0  0  0  0  0  0
  148.9685  140.0183  157.0953 O   0  0  0  0  0  0  0  0  0  0  0  0
  151.3493  139.8019  157.3145 C   0  0  0  0  0  0  0  0  0  0  0  0
  151.4851  140.4828  158.6880 C   0  0  0  0  0  0  0  0  0  0  0  0
  151.6332  141.8874  158.5209 O   0  0  0  0  0  0  0  0  0  0  0  0
  150.4965  142.4911  157.9157 C   0  0  0  0  0  0  0  0  0  0  0  0
  150.2910  141.9330  156.4962 C   0  0  0  0  0  0  0  0  0  0  0  0
  149.3345  133.3918  153.7157 C   0  0  0  0  0  0  0  0  0  0  0  0
  148.0829  133.2568  152.8287 C   0  0  0  0  0  0  0  0  0  0  0  0
  147.4280  131.9233  152.8880 N   0  3  2  0  0  0  0  0  0  0  0  0
  146.0961  131.9407  152.2368 C   0  0  1  0  0  0  0  0  0  0  0  0
  146.1266  131.5994  150.7639 C   0  0  0  0  0  0  0  0  0  0  0  0
  145.5902  130.5916  151.7571 C   0  0  1  0  0  0  0  0  0  0  0  0
  146.3278  129.2865  151.9958 C   0  0  0  0  0  0  0  0  0  0  0  0
  147.3871  131.2609  154.2218 C   0  0  0  0  0  0  0  0  0  0  0  0
  147.0261  130.6036  156.9087 H   0  0  0  0  0  0  0  0  0  0  0  0
  145.4566  130.9799  156.2004 H   0  0  0  0  0  0  0  0  0  0  0  0
  146.1645  132.0639  157.3871 H   0  0  0  0  0  0  0  0  0  0  0  0
  146.3918  132.9771  155.1067 H   0  0  0  0  0  0  0  0  0  0  0  0
  148.1885  133.3061  156.9341 H   0  0  0  0  0  0  0  0  0  0  0  0
  149.1220  132.0613  156.1732 H   0  0  0  0  0  0  0  0  0  0  0  0
  146.0306  136.9485  155.9580 H   0  0  0  0  0  0  0  0  0  0  0  0
  152.2383  137.8891  154.5318 H   0  0  0  0  0  0  0  0  0  0  0  0
  151.0837  140.1511  154.5060 H   0  0  0  0  0  0  0  0  0  0  0  0
  149.3414  140.1683  154.4907 H   0  0  0  0  0  0  0  0  0  0  0  0
  148.7797  140.6305  157.7900 H   0  0  0  0  0  0  0  0  0  0  0  0
  151.2207  138.7261  157.4416 H   0  0  0  0  0  0  0  0  0  0  0  0
  152.2863  139.9339  156.7716 H   0  0  0  0  0  0  0  0  0  0  0  0
  150.6234  140.2682  159.3220 H   0  0  0  0  0  0  0  0  0  0  0  0
  152.3620  140.0983  159.2090 H   0  0  0  0  0  0  0  0  0  0  0  0
  149.6121  142.3286  158.5334 H   0  0  0  0  0  0  0  0  0  0  0  0
  150.6546  143.5688  157.8714 H   0  0  0  0  0  0  0  0  0  0  0  0
  151.1335  142.2427  155.8766 H   0  0  0  0  0  0  0  0  0  0  0  0
  149.4023  142.3850  156.0543 H   0  0  0  0  0  0  0  0  0  0  0  0
  150.0089  134.1147  153.2604 H   0  0  0  0  0  0  0  0  0  0  0  0
  149.8949  132.4570  153.7478 H   0  0  0  0  0  0  0  0  0  0  0  0
  147.3629  134.0444  153.0570 H   0  0  0  0  0  0  0  0  0  0  0  0
  148.3783  133.4203  151.7922 H   0  0  0  0  0  0  0  0  0  0  0  0
  145.3997  132.6932  152.6033 H   0  0  0  0  0  0  0  0  0  0  0  0
  145.4032  132.0938  150.1190 H   0  0  0  0  0  0  0  0  0  0  0  0
  147.0884  131.3865  150.3006 H   0  0  0  0  0  0  0  0  0  0  0  0
  144.5082  130.4745  151.7726 H   0  0  0  0  0  0  0  0  0  0  0  0
  147.4050  129.4101  151.8823 H   0  0  0  0  0  0  0  0  0  0  0  0
  145.9947  128.5367  151.2779 H   0  0  0  0  0  0  0  0  0  0  0  0
  146.1210  128.9158  152.9998 H   0  0  0  0  0  0  0  0  0  0  0  0
  148.3357  130.7479  154.3827 H   0  0  0  0  0  0  0  0  0  0  0  0
  146.6447  130.4623  154.1802 H   0  0  0  0  0  0  0  0  0  0  0  0
  147.9966  131.3153  152.3162 H   0  0  0  0  0  0  0  0  0  0  0  0
  1  2  1  0  0  0  0
  1 30  1  0  0  0  0
  1 31  1  0  0  0  0
  1 32  1  0  0  0  0
  2 29  1  0  0  0  0
  2  3  1  0  0  0  0
  2 33  1  0  0  0  0
  3  4  1  0  0  0  0
  3 34  1  0  0  0  0
  3 35  1  0  0  0  0
  4  5  1  0  0  0  0
  4 22  1  0  0  0  0
  5 10  1  0  0  0  0
  5  6  2  0  0  0  0
  6  7  1  0  0  0  0
  7  8  2  0  0  0  0
  7 36  1  0  0  0  0
  8  9  1  0  0  0  0
  9 13  1  0  0  0  0
  9 10  2  0  0  0  0
 10 11  1  0  0  0  0
 11 12  2  0  0  0  0
 12 13  1  0  0  0  0
 12 37  1  0  0  0  0
 13 14  1  0  0  0  0
 14 15  1  0  0  0  0
 14 38  1  0  0  0  0
 14 39  1  0  0  0  0
 15 21  1  0  0  0  0
 15 16  1  0  0  0  0
 15 17  1  0  0  0  0
 16 40  1  0  0  0  0
 17 18  1  0  0  0  0
 17 41  1  0  0  0  0
 17 42  1  0  0  0  0
 18 19  1  0  0  0  0
 18 43  1  0  0  0  0
 18 44  1  0  0  0  0
 19 20  1  0  0  0  0
 20 21  1  0  0  0  0
 20 45  1  0  0  0  0
 20 46  1  0  0  0  0
 21 47  1  0  0  0  0
 21 48  1  0  0  0  0
 22 23  1  0  0  0  0
 22 49  1  0  0  0  0
 22 50  1  0  0  0  0
 23 24  1  0  0  0  0
 23 51  1  0  0  0  0
 23 52  1  0  0  0  0
 24 25  1  0  0  0  0
 24 29  1  0  0  0  0
 24 62  1  0  0  0  0
 25 27  1  0  0  0  0
 25 26  1  0  0  0  0
 25 53  1  0  0  0  0
 26 27  1  0  0  0  0
 26 54  1  0  0  0  0
 26 55  1  0  0  0  0
 27 28  1  0  0  0  0
 27 56  1  0  0  0  0
 28 57  1  0  0  0  0
 28 58  1  0  0  0  0
 28 59  1  0  0  0  0
 29 60  1  0  0  0  0
 29 61  1  0  0  0  0
M  CHG  1  24   1
M  END
> <s_m_source_file>
AV-unprocessed.smi

> <i_m_source_file_index>
193

> <i_lp_mmshare_version>
43012

> <i_f3d_flags>
0

> <s_epik_input>
W0NIM11bQ0BASF0xW0NIMl1bQ0BIXTFOKFtDSDJdMilbQ0gyXVtDSDJdTihbQ0gyXVtDQEhdMltDSDNdKWMobltjSF1uMyljKGMzNCluW2NIXW40W0NIMl1DNShbT0hdKVtDSDJdW0NIMl1PW0NIMl1bQ0gyXTU=

> <s_epik_cmdline>
J2VwaWtfcHl0aG9uJywgJy1waCcsICc3LjAnLCAnLXRuJywgJzgnLCAnLW1hJywgJzIwMCcsICctbWV0YWxfYmluZGluZycsICctaW1hZScsICc8aW5maWxlLm1hZT4nLCAnLW9tYWUnLCAnPG91dGZpbGUubWFlPic=

> <r_lp_tautomer_probability>
1

> <r_epik_Ionization_Penalty>
0.0540825

> <r_epik_Ionization_Penalty_Charging>
0.0538476

> <r_epik_Ionization_Penalty_Neutral>
0.000234891

> <r_epik_State_Penalty>
0.0200719

> <r_epik_Charging_Adjusted_Penalty>
0.0739194

> <i_epik_Tot_Q>
1

> <i_epik_Tot_abs_Q>
1

> <r_epik_Metal_State_Penalty>
0.0199414

> <b_epik_Metal_Only>
0

> <s_lp_Force_Field>
OPLS_2005

> <r_lp_Energy>
56.4216

> <b_lp_Chiralities_Consistent>
1

> <s_lp_Variant>
AV-unprocessed.smi:193-6

> <Gold.Version>
5.8.1

> <Gold.Id.Protein>
6NUR|6NUR_protein|mol2

> <Gold.PLP.Fitness>
43.1197

> <Gold.PLP.PLP>
-40.0256

> <Gold.PLP.part.hbond>
-1.8699

> <Gold.PLP.part.metal>
0.0000

> <Gold.PLP.part.buried>
-1.4237

> <Gold.PLP.part.nonpolar>
-36.4890

> <Gold.PLP.part.repulsive>
1.3420

> <Gold.PLP.ligand.clash>
0.0000

> <Gold.PLP.ligand.torsion>
1.7803

> <Gold.PLP.Chemscore.Hbond>
1.7300

> <Gold.PLP.Chemscore.CHOScore>
0.0000

> <Gold.PLP.Chemscore.Metal>
0.0000

> <Gold.Chemscore.Hbonds>
donor molecule, donor type, donor heavy atom, donor atom, acceptor molecule, acceptor atom, score
      L1  H    24    62       P1 10747  0.32
      P1  H 10752 10763       L1    11  0.67

> <Gold.PLP.Chemscore.Internal.Correction>
1.4647

> <Gold.Rescore>
     Score         DG    S(hbond)    S(metal)    S(lipo)     H(rot)  DE(clash)    DE(int)     intcor
     13.99     -16.85       1.32        0.00     101.69       1.93       1.01       1.85       ----

> <Gold.Chemscore.Fitness>
13.9869

> <Gold.Chemscore.DG>
-16.8532

> <Gold.Chemscore.ZeroCoef>
-5.4800

> <Gold.Chemscore.Hbond>
1.3216

> <Gold.Chemscore.Metal>
0.0000

> <Gold.Chemscore.Lipo>
101.6871

> <Gold.Chemscore.Internal_Hbond>
0.0000

> <Gold.Chemscore.DEClash>
1.0142

> <Gold.Chemscore.DEInternal>
1.8521

> <Gold.Chemscore.Rot>
1.9290

> <Gold.Chemscore.Internal.Correction>
   9.000000E+99

> <Gold.Chemscore.Hbonds>
donor molecule, donor type, donor heavy atom, donor atom, acceptor molecule, acceptor atom, score
      L1  H    24    62       P1 10747  0.31
      P1  H 10752 10763       L1    11  0.08

> <Gold.Chemscore.Hbond.Weighted>
-4.4141

> <Gold.Chemscore.Metal.Weighted>
-0.0000

> <Gold.Chemscore.Lipo.Weighted>
-11.8974

> <Gold.Chemscore.Internal_Hbond.Weighted>
0.0000

> <Gold.Chemscore.DEClash.Weighted>
1.0142

> <Gold.Chemscore.DEInternal.Weighted>
1.8521

> <Gold.Chemscore.Rot.Weighted>
4.9383

> <Gold.Chemscore.Internal.Correction.Weighted>
   9.000000E+99

> <Gold.Protein.RotatedTorsions>
[ 6907 6896 6895 6894 ] final   54.37 input  -60.11 | X-H torsion
[ 7974 7965 7964 7962 ] final -114.87 input  175.53 | X-H torsion
[ 8008 7997 7996 7995 ] final   94.69 input   59.86 | X-H torsion
[ 10167 10162 10161 10158 ] final   -8.90 input  -65.29 | X-H torsion
[ 10718 10713 10712 10709 ] final   19.70 input   66.30 | X-H torsion
[ 10763 10752 10751 10750 ] final   48.18 input  -60.55 | X-H torsion
[ 11005 11000 10999 10996 ] final   46.96 input  -57.11 | X-H torsion

> <Gold.Protein.ActiveResidues>
 VAL166  LYS551  ARG553  GLY616  TRP617  ASP618  TYR619  PRO620  LYS621  CYS622 
 ASP623  PHE694  ASN695  SER759  ASP760  ASP761  ALA762  ILE779  LEU786  VAL792 
 PHE793  MET794  SER795  GLU796  ALA797  LYS798  CYS799  TRP800  GLU811  SER814 

> <Gold.Protein.RotatedAtoms>
  152.3432  134.7107  160.0257 H   0  0  0  0  0  0  0  0  0  0  0  0  # atno 6907 bound_to 6896
  151.7485  133.3320  159.3393 H   0  0  0  0  0  0  0  0  0  0  0  0  # atno 6908 bound_to 6896
  150.7492  134.6146  159.6148 H   0  0  0  0  0  0  0  0  0  0  0  0  # atno 6909 bound_to 6896
  145.1150  140.8635  143.3847 H   0  0  0  0  0  0  0  0  0  0  0  0  # atno 7974 bound_to 7965
  156.0607  140.3296  155.7458 H   0  0  0  0  0  0  0  0  0  0  0  0  # atno 8008 bound_to 7997
  155.5459  140.0606  157.2877 H   0  0  0  0  0  0  0  0  0  0  0  0  # atno 8009 bound_to 7997
  154.4480  140.1902  156.0626 H   0  0  0  0  0  0  0  0  0  0  0  0  # atno 8010 bound_to 7997
  140.7072  143.5917  150.8887 H   0  0  0  0  0  0  0  0  0  0  0  0  # atno 10167 bound_to 10162
  157.1142  130.6521  149.5906 H   0  0  0  0  0  0  0  0  0  0  0  0  # atno 10718 bound_to 10713
  152.9794  135.5952  154.3884 H   0  0  0  0  0  0  0  0  0  0  0  0  # atno 10763 bound_to 10752
  154.3542  135.2767  155.2357 H   0  0  0  0  0  0  0  0  0  0  0  0  # atno 10764 bound_to 10752
  154.4383  135.6019  153.6168 H   0  0  0  0  0  0  0  0  0  0  0  0  # atno 10765 bound_to 10752
  140.1322  134.4691  155.8513 H   0  0  0  0  0  0  0  0  0  0  0  0  # atno 11005 bound_to 11000
  145.0804  139.2964  143.5786 LP  0  0  0  0  0  0  0  0  0  0  0  0  # atno 17320 bound_to 7965
  146.3524  140.0308  142.8650 LP  0  0  0  0  0  0  0  0  0  0  0  0  # atno 17321 bound_to 7965
  139.9643  143.6129  152.2993 LP  0  0  0  0  0  0  0  0  0  0  0  0  # atno 17342 bound_to 10162
  139.6692  144.7661  151.1814 LP  0  0  0  0  0  0  0  0  0  0  0  0  # atno 17343 bound_to 10162
  155.9843  130.4868  150.6978 LP  0  0  0  0  0  0  0  0  0  0  0  0  # atno 17370 bound_to 10713
  157.4533  131.0875  151.0823 LP  0  0  0  0  0  0  0  0  0  0  0  0  # atno 17371 bound_to 10713
  141.2172  133.6800  156.7090 LP  0  0  0  0  0  0  0  0  0  0  0  0  # atno 17394 bound_to 11000
  140.2828  134.8303  157.3948 LP  0  0  0  0  0  0  0  0  0  0  0  0  # atno 17395 bound_to 11000

$$$$
