AV-unprocessed.smi:3342|AV-procd|sdf|12887|dock10
  -GOLD-   2272019293D 1   1.00000     0.00000
 Structure written by MMmdl.
 42 43  0  0  0  0  0  0  0  0  2 V2000
  146.7434  131.7209  153.6199 C   0  0  0  0  0  0  0  0  0  0  0  0
  146.4194  133.1714  153.2276 C   0  0  2  0  0  0  0  0  0  0  0  0
  146.7672  133.4941  151.7579 C   0  0  0  0  0  0  0  0  0  0  0  0
  145.6793  133.1746  150.8293 N   0  0  0  0  0  0  0  0  0  0  0  0
  145.6671  132.1861  149.8793 C   0  0  0  0  0  0  0  0  0  0  0  0
  144.4456  132.2540  149.2602 C   0  0  0  0  0  0  0  0  0  0  0  0
  143.7632  133.2780  149.8608 N   0  3  0  0  0  0  0  0  0  0  0  0
  144.5138  133.8348  150.8168 C   0  0  0  0  0  0  0  0  0  0  0  0
  147.1325  134.0810  154.1193 N   0  0  0  0  0  0  0  0  0  0  0  0
  148.4667  134.1327  154.2774 C   0  0  0  0  0  0  0  0  0  0  0  0
  149.2290  133.4150  153.6279 O   0  0  0  0  0  0  0  0  0  0  0  0
  148.8956  135.0310  155.1997 N   0  0  0  0  0  0  0  0  0  0  0  0
  150.2879  135.2402  155.6300 C   0  0  0  0  0  0  0  0  0  0  0  0
  150.8206  136.5192  154.9591 C   0  0  0  0  0  0  0  0  0  0  0  0
  149.9302  137.7391  155.2990 C   0  0  0  0  0  0  0  0  0  0  0  0
  150.3741  138.9809  154.5143 C   0  0  0  0  0  0  0  0  0  0  0  0
  149.6284  139.3374  153.4657 N   0  0  0  0  0  0  0  0  0  0  0  0
  151.3751  139.6118  154.8489 O   0  0  0  0  0  0  0  0  0  0  0  0
  148.4371  137.4250  155.0404 C   0  0  0  0  0  0  0  0  0  0  0  0
  148.0240  136.0984  155.7044 C   0  0  0  0  0  0  0  0  0  0  0  0
  146.1620  131.0085  153.0344 H   0  0  0  0  0  0  0  0  0  0  0  0
  146.5126  131.5387  154.6702 H   0  0  0  0  0  0  0  0  0  0  0  0
  147.7994  131.4952  153.4679 H   0  0  0  0  0  0  0  0  0  0  0  0
  145.3472  133.3158  153.3735 H   0  0  0  0  0  0  0  0  0  0  0  0
  146.9888  134.5553  151.6374 H   0  0  0  0  0  0  0  0  0  0  0  0
  147.6599  132.9494  151.4458 H   0  0  0  0  0  0  0  0  0  0  0  0
  146.5076  131.5258  149.7196 H   0  0  0  0  0  0  0  0  0  0  0  0
  144.0214  131.6651  148.4600 H   0  0  0  0  0  0  0  0  0  0  0  0
  144.2336  134.6568  151.4515 H   0  0  0  0  0  0  0  0  0  0  0  0
  146.5700  134.7058  154.6785 H   0  0  0  0  0  0  0  0  0  0  0  0
  150.3157  135.3518  156.7149 H   0  0  0  0  0  0  0  0  0  0  0  0
  150.9491  134.4013  155.4131 H   0  0  0  0  0  0  0  0  0  0  0  0
  151.8459  136.7036  155.2824 H   0  0  0  0  0  0  0  0  0  0  0  0
  150.8605  136.3642  153.8796 H   0  0  0  0  0  0  0  0  0  0  0  0
  150.0448  137.9443  156.3650 H   0  0  0  0  0  0  0  0  0  0  0  0
  149.8795  140.1483  152.9194 H   0  0  0  0  0  0  0  0  0  0  0  0
  148.8129  138.7934  153.2240 H   0  0  0  0  0  0  0  0  0  0  0  0
  147.8130  138.2349  155.4199 H   0  0  0  0  0  0  0  0  0  0  0  0
  148.2420  137.3625  153.9684 H   0  0  0  0  0  0  0  0  0  0  0  0
  146.9666  135.9018  155.5213 H   0  0  0  0  0  0  0  0  0  0  0  0
  148.1257  136.1719  156.7880 H   0  0  0  0  0  0  0  0  0  0  0  0
  142.8248  133.5718  149.6195 H   0  0  0  0  0  0  0  0  0  0  0  0
  1  2  1  0  0  0  0
  1 21  1  0  0  0  0
  1 22  1  0  0  0  0
  1 23  1  0  0  0  0
  2  3  1  0  0  0  0
  2  9  1  0  0  0  0
  2 24  1  0  0  0  0
  3  4  1  0  0  0  0
  3 25  1  0  0  0  0
  3 26  1  0  0  0  0
  4  8  1  0  0  0  0
  4  5  1  0  0  0  0
  5  6  2  0  0  0  0
  5 27  1  0  0  0  0
  6  7  1  0  0  0  0
  6 28  1  0  0  0  0
  7  8  2  0  0  0  0
  7 42  1  0  0  0  0
  8 29  1  0  0  0  0
  9 10  1  0  0  0  0
  9 30  1  0  0  0  0
 10 11  2  0  0  0  0
 10 12  1  0  0  0  0
 12 20  1  0  0  0  0
 12 13  1  0  0  0  0
 13 14  1  0  0  0  0
 13 31  1  0  0  0  0
 13 32  1  0  0  0  0
 14 15  1  0  0  0  0
 14 33  1  0  0  0  0
 14 34  1  0  0  0  0
 15 16  1  0  0  0  0
 15 19  1  0  0  0  0
 15 35  1  0  0  0  0
 16 17  1  0  0  0  0
 16 18  2  0  0  0  0
 17 36  1  0  0  0  0
 17 37  1  0  0  0  0
 19 20  1  0  0  0  0
 19 38  1  0  0  0  0
 19 39  1  0  0  0  0
 20 40  1  0  0  0  0
 20 41  1  0  0  0  0
M  CHG  1   7   1
M  END
> <s_m_source_file>
AV-unprocessed.smi

> <i_m_source_file_index>
3342

> <i_lp_mmshare_version>
43012

> <i_f3d_flags>
0

> <s_epik_input>
W2NIXTFuW2NIXVtjSF1uMVtDSDJdW0NAQEhdKFtDSDNdKVtOSF1DKD1PKU4yW0NIMl1bQ0gyXVtDSF0oQyg9TylbTkgyXSlbQ0gyXVtDSDJdMg==

> <s_epik_cmdline>
J2VwaWtfcHl0aG9uJywgJy1waCcsICc3LjAnLCAnLXRuJywgJzgnLCAnLW1hJywgJzIwMCcsICctbWV0YWxfYmluZGluZycsICctaW1hZScsICc8aW5maWxlLm1hZT4nLCAnLW9tYWUnLCAnPG91dGZpbGUubWFlPic=

> <r_lp_tautomer_probability>
1

> <r_epik_Ionization_Penalty>
0.254015

> <r_epik_Ionization_Penalty_Charging>
0

> <r_epik_Ionization_Penalty_Neutral>
0.254015

> <r_epik_State_Penalty>
0.245417

> <r_epik_Charging_Adjusted_Penalty>
0.245417

> <i_epik_Tot_Q>
1

> <i_epik_Tot_abs_Q>
1

> <r_epik_Metal_State_Penalty>
0.535589

> <b_epik_Metal_Only>
0

> <s_lp_Force_Field>
OPLS_2005

> <r_lp_Energy>
30.9276

> <b_lp_Chiralities_Consistent>
1

> <s_lp_Variant>
AV-unprocessed.smi:3342-1

> <Gold.Version>
5.8.1

> <Gold.Id.Protein>
6NUR|6NUR_protein|mol2

> <Gold.PLP.Fitness>
41.5212

> <Gold.PLP.PLP>
-32.1560

> <Gold.PLP.part.hbond>
-2.7791

> <Gold.PLP.part.metal>
0.0000

> <Gold.PLP.part.buried>
-5.1114

> <Gold.PLP.part.nonpolar>
-25.2879

> <Gold.PLP.part.repulsive>
0.4656

> <Gold.PLP.ligand.clash>
1.2708

> <Gold.PLP.ligand.torsion>
0.9827

> <Gold.PLP.Chemscore.Hbond>
3.3520

> <Gold.PLP.Chemscore.CHOScore>
0.8130

> <Gold.PLP.Chemscore.Metal>
0.0000

> <Gold.Chemscore.Hbonds>
donor molecule, donor type, donor heavy atom, donor atom, acceptor molecule, acceptor atom, score
      L1  H     7    42       P1 10186  2.00
      L1  H    17    36       P1  7957  0.34
      P1  H  7989  7998       L1    18  1.00
      L1  C     5    27       P1 10747  0.83

> <Gold.PLP.Chemscore.Internal.Correction>
0.1065

> <Gold.Rescore>
     Score         DG    S(hbond)    S(metal)    S(lipo)     H(rot)  DE(clash)    DE(int)     intcor
     12.57     -14.64       2.47        0.00      59.05       2.34       0.07       2.01       ----

> <Gold.Chemscore.Fitness>
12.5662

> <Gold.Chemscore.DG>
-14.6434

> <Gold.Chemscore.ZeroCoef>
-5.4800

> <Gold.Chemscore.Hbond>
2.4685

> <Gold.Chemscore.Metal>
0.0000

> <Gold.Chemscore.Lipo>
59.0502

> <Gold.Chemscore.Internal_Hbond>
0.0000

> <Gold.Chemscore.DEClash>
0.0674

> <Gold.Chemscore.DEInternal>
2.0098

> <Gold.Chemscore.Rot>
2.3400

> <Gold.Chemscore.Internal.Correction>
   9.000000E+99

> <Gold.Chemscore.Hbonds>
donor molecule, donor type, donor heavy atom, donor atom, acceptor molecule, acceptor atom, score
      L1  H     7    42       P1 10186  0.95
      L1  H    17    36       P1  7957  0.34
      P1  H  7989  7998       L1    18  0.55

> <Gold.Chemscore.Hbond.Weighted>
-8.2449

> <Gold.Chemscore.Metal.Weighted>
-0.0000

> <Gold.Chemscore.Lipo.Weighted>
-6.9089

> <Gold.Chemscore.Internal_Hbond.Weighted>
0.0000

> <Gold.Chemscore.DEClash.Weighted>
0.0674

> <Gold.Chemscore.DEInternal.Weighted>
2.0098

> <Gold.Chemscore.Rot.Weighted>
5.9904

> <Gold.Chemscore.Internal.Correction.Weighted>
   9.000000E+99

> <Gold.Protein.RotatedTorsions>
[ 6907 6896 6895 6894 ] final  126.02 input  -60.11 | X-H torsion
[ 7974 7965 7964 7962 ] final  -99.53 input  175.53 | X-H torsion
[ 8008 7997 7996 7995 ] final   20.24 input   59.86 | X-H torsion
[ 10167 10162 10161 10158 ] final   -7.82 input  -65.29 | X-H torsion
[ 10718 10713 10712 10709 ] final -142.50 input   66.30 | X-H torsion
[ 10763 10752 10751 10750 ] final  -74.74 input  -60.55 | X-H torsion
[ 11005 11000 10999 10996 ] final  -89.57 input  -57.11 | X-H torsion

> <Gold.Protein.ActiveResidues>
 VAL166  LYS551  ARG553  GLY616  TRP617  ASP618  TYR619  PRO620  LYS621  CYS622 
 ASP623  PHE694  ASN695  SER759  ASP760  ASP761  ALA762  ILE779  LEU786  VAL792 
 PHE793  MET794  SER795  GLU796  ALA797  LYS798  CYS799  TRP800  GLU811  SER814 

> <Gold.Protein.RotatedAtoms>
  152.3941  133.6721  159.6261 H   0  0  0  0  0  0  0  0  0  0  0  0  # atno 6907 bound_to 6896
  150.7843  133.8905  159.3320 H   0  0  0  0  0  0  0  0  0  0  0  0  # atno 6908 bound_to 6896
  151.6685  135.0981  160.0244 H   0  0  0  0  0  0  0  0  0  0  0  0  # atno 6909 bound_to 6896
  145.3064  140.9390  143.2794 H   0  0  0  0  0  0  0  0  0  0  0  0  # atno 7974 bound_to 7965
  154.9327  140.3042  155.5160 H   0  0  0  0  0  0  0  0  0  0  0  0  # atno 8008 bound_to 7997
  156.3002  140.2351  156.4325 H   0  0  0  0  0  0  0  0  0  0  0  0  # atno 8009 bound_to 7997
  154.8222  140.0423  157.1407 H   0  0  0  0  0  0  0  0  0  0  0  0  # atno 8010 bound_to 7997
  140.7040  143.6038  150.8771 H   0  0  0  0  0  0  0  0  0  0  0  0  # atno 10167 bound_to 10162
  156.3466  130.7666  151.1811 H   0  0  0  0  0  0  0  0  0  0  0  0  # atno 10718 bound_to 10713
  154.4771  135.5854  153.6363 H   0  0  0  0  0  0  0  0  0  0  0  0  # atno 10763 bound_to 10752
  152.9842  135.6081  154.3293 H   0  0  0  0  0  0  0  0  0  0  0  0  # atno 10764 bound_to 10752
  154.3180  135.2844  155.2512 H   0  0  0  0  0  0  0  0  0  0  0  0  # atno 10765 bound_to 10752
  141.1582  133.7638  156.9614 H   0  0  0  0  0  0  0  0  0  0  0  0  # atno 11005 bound_to 11000
  144.9051  139.4599  143.6614 LP  0  0  0  0  0  0  0  0  0  0  0  0  # atno 17320 bound_to 7965
  146.3134  139.7828  142.9002 LP  0  0  0  0  0  0  0  0  0  0  0  0  # atno 17321 bound_to 7965
  139.9762  143.6002  152.2958 LP  0  0  0  0  0  0  0  0  0  0  0  0  # atno 17342 bound_to 10162
  139.6606  144.7662  151.1970 LP  0  0  0  0  0  0  0  0  0  0  0  0  # atno 17343 bound_to 10162
  157.7455  131.0439  150.4768 LP  0  0  0  0  0  0  0  0  0  0  0  0  # atno 17370 bound_to 10713
  156.4956  130.4105  149.6381 LP  0  0  0  0  0  0  0  0  0  0  0  0  # atno 17371 bound_to 10713
  140.1191  134.9428  157.2177 LP  0  0  0  0  0  0  0  0  0  0  0  0  # atno 17394 bound_to 11000
  140.3095  134.3039  155.7270 LP  0  0  0  0  0  0  0  0  0  0  0  0  # atno 17395 bound_to 11000

$$$$
