AV-unprocessed.smi:2396|AV-procd|sdf|9492|dock10
  -GOLD-   2272013123D 1   1.00000     0.00000
 Structure written by MMmdl.
 32 32  0  0  0  0  0  0  0  0  1 V2000
  150.7342  136.8807  154.6827 C   0  0  0  0  0  0  0  0  0  0  0  0
  149.5919  136.0523  155.2852 C   0  0  0  0  0  0  0  0  0  0  0  0
  149.1829  134.9741  154.3928 N   0  0  0  0  0  0  0  0  0  0  0  0
  148.7293  133.7751  154.7895 C   0  0  0  0  0  0  0  0  0  0  0  0
  148.6127  133.4571  155.9739 O   0  0  0  0  0  0  0  0  0  0  0  0
  148.3575  132.7905  153.6752 C   0  0  0  0  0  0  0  0  0  0  0  0
  147.3130  133.3126  152.8098 N   0  0  0  0  0  0  0  0  0  0  0  0
  146.6663  132.6842  151.7704 C   0  0  0  0  0  0  0  0  0  0  0  0
  145.7690  133.5686  151.2409 C   0  0  0  0  0  0  0  0  0  0  0  0
  144.8492  133.3287  150.0700 C   0  0  0  0  0  0  0  0  0  0  0  0
  143.8434  132.2002  150.3444 C   0  0  0  0  0  0  0  0  0  0  0  0
  142.8986  132.1039  149.2995 O   0  0  0  0  0  0  0  0  0  0  0  0
  145.9341  134.7405  152.0478 C   0  0  0  0  0  0  0  0  0  0  0  0
  145.2464  136.0838  151.9675 C   0  0  0  0  0  0  0  0  0  0  0  0
  145.5252  136.6544  150.7957 F   0  0  0  0  0  0  0  0  0  0  0  0
  143.9244  135.9790  152.0842 F   0  0  0  0  0  0  0  0  0  0  0  0
  145.6881  136.8755  152.9452 F   0  0  0  0  0  0  0  0  0  0  0  0
  146.8639  134.5716  152.9798 N   0  0  0  0  0  0  0  0  0  0  0  0
  151.0498  137.6635  155.3728 H   0  0  0  0  0  0  0  0  0  0  0  0
  150.4290  137.3635  153.7536 H   0  0  0  0  0  0  0  0  0  0  0  0
  151.6026  136.2573  154.4679 H   0  0  0  0  0  0  0  0  0  0  0  0
  149.9167  135.6093  156.2270 H   0  0  0  0  0  0  0  0  0  0  0  0
  148.7408  136.6929  155.5211 H   0  0  0  0  0  0  0  0  0  0  0  0
  149.2515  135.1519  153.4011 H   0  0  0  0  0  0  0  0  0  0  0  0
  149.2304  132.5656  153.0607 H   0  0  0  0  0  0  0  0  0  0  0  0
  148.0261  131.8513  154.1204 H   0  0  0  0  0  0  0  0  0  0  0  0
  146.9021  131.6684  151.4883 H   0  0  0  0  0  0  0  0  0  0  0  0
  144.2844  134.2374  149.8595 H   0  0  0  0  0  0  0  0  0  0  0  0
  145.3994  133.1263  149.1515 H   0  0  0  0  0  0  0  0  0  0  0  0
  144.3517  131.2444  150.4762 H   0  0  0  0  0  0  0  0  0  0  0  0
  143.3006  132.4053  151.2674 H   0  0  0  0  0  0  0  0  0  0  0  0
  142.2510  132.7823  149.4156 H   0  0  0  0  0  0  0  0  0  0  0  0
  1  2  1  0  0  0  0
  1 19  1  0  0  0  0
  1 20  1  0  0  0  0
  1 21  1  0  0  0  0
  2  3  1  0  0  0  0
  2 22  1  0  0  0  0
  2 23  1  0  0  0  0
  3  4  1  0  0  0  0
  3 24  1  0  0  0  0
  4  5  2  0  0  0  0
  4  6  1  0  0  0  0
  6  7  1  0  0  0  0
  6 25  1  0  0  0  0
  6 26  1  0  0  0  0
  7 18  1  0  0  0  0
  7  8  1  0  0  0  0
  8  9  2  0  0  0  0
  8 27  1  0  0  0  0
  9 10  1  0  0  0  0
  9 13  1  0  0  0  0
 10 11  1  0  0  0  0
 10 28  1  0  0  0  0
 10 29  1  0  0  0  0
 11 12  1  0  0  0  0
 11 30  1  0  0  0  0
 11 31  1  0  0  0  0
 12 32  1  0  0  0  0
 13 14  1  0  0  0  0
 13 18  2  0  0  0  0
 14 15  1  0  0  0  0
 14 16  1  0  0  0  0
 14 17  1  0  0  0  0
M  END
> <s_m_source_file>
AV-unprocessed.smi

> <i_m_source_file_index>
2396

> <i_lp_mmshare_version>
43012

> <i_f3d_flags>
0

> <s_epik_input>
W0NIM11bQ0gyXVtOSF1DKD1PKVtDSDJdbjFbY0hdYyhjKG4xKUMoRikoRilGKVtDSDJdW0NIMl1bT0hd

> <s_epik_cmdline>
J2VwaWtfcHl0aG9uJywgJy1waCcsICc3LjAnLCAnLXRuJywgJzgnLCAnLW1hJywgJzIwMCcsICctbWV0YWxfYmluZGluZycsICctaW1hZScsICc8aW5maWxlLm1hZT4nLCAnLW9tYWUnLCAnPG91dGZpbGUubWFlPic=

> <r_lp_tautomer_probability>
1

> <r_epik_Ionization_Penalty>
2.37964e-07

> <r_epik_Ionization_Penalty_Charging>
0

> <r_epik_Ionization_Penalty_Neutral>
2.37964e-07

> <r_epik_State_Penalty>
-0

> <r_epik_Charging_Adjusted_Penalty>
0

> <i_epik_Tot_Q>
0

> <i_epik_Tot_abs_Q>
0

> <r_epik_Metal_State_Penalty>
-0

> <b_epik_Metal_Only>
0

> <s_lp_Force_Field>
OPLS_2005

> <r_lp_Energy>
5.98536

> <b_lp_Chiralities_Consistent>
1

> <s_lp_Variant>
AV-unprocessed.smi:2396-1

> <Gold.Version>
5.8.1

> <Gold.Id.Protein>
6NUR|6NUR_protein|mol2

> <Gold.PLP.Fitness>
42.4109

> <Gold.PLP.PLP>
-31.6940

> <Gold.PLP.part.hbond>
-3.9450

> <Gold.PLP.part.metal>
0.0000

> <Gold.PLP.part.buried>
-2.3811

> <Gold.PLP.part.nonpolar>
-27.1901

> <Gold.PLP.part.repulsive>
1.6132

> <Gold.PLP.ligand.clash>
0.0000

> <Gold.PLP.ligand.torsion>
0.2484

> <Gold.PLP.Chemscore.Hbond>
2.7688

> <Gold.PLP.Chemscore.CHOScore>
0.9525

> <Gold.PLP.Chemscore.Metal>
0.0000

> <Gold.Chemscore.Hbonds>
donor molecule, donor type, donor heavy atom, donor atom, acceptor molecule, acceptor atom, score
      L1  H     3    24       P1  7948  0.85
      L1  H    12    32       P1 10186  0.94
      P1  H 10785 10796       L1    12  0.93
      L1  C     8    27       P1 10747  0.93

> <Gold.PLP.Chemscore.Internal.Correction>
0.0498

> <Gold.Rescore>
     Score         DG    S(hbond)    S(metal)    S(lipo)     H(rot)  DE(clash)    DE(int)     intcor
      7.97     -10.46       1.88        0.00      51.57       2.86       0.75       1.74       ----

> <Gold.Chemscore.Fitness>
7.9708

> <Gold.Chemscore.DG>
-10.4628

> <Gold.Chemscore.ZeroCoef>
-5.4800

> <Gold.Chemscore.Hbond>
1.8793

> <Gold.Chemscore.Metal>
0.0000

> <Gold.Chemscore.Lipo>
51.5709

> <Gold.Chemscore.Internal_Hbond>
0.0000

> <Gold.Chemscore.DEClash>
0.7474

> <Gold.Chemscore.DEInternal>
1.7447

> <Gold.Chemscore.Rot>
2.8625

> <Gold.Chemscore.Internal.Correction>
   9.000000E+99

> <Gold.Chemscore.Hbonds>
donor molecule, donor type, donor heavy atom, donor atom, acceptor molecule, acceptor atom, score
      L1  H     3    24       P1  7948  0.14
      L1  H    12    32       P1 10186  0.90
      P1  H 10785 10796       L1    12  0.23

> <Gold.Chemscore.Hbond.Weighted>
-6.2769

> <Gold.Chemscore.Metal.Weighted>
-0.0000

> <Gold.Chemscore.Lipo.Weighted>
-6.0338

> <Gold.Chemscore.Internal_Hbond.Weighted>
0.0000

> <Gold.Chemscore.DEClash.Weighted>
0.7474

> <Gold.Chemscore.DEInternal.Weighted>
1.7447

> <Gold.Chemscore.Rot.Weighted>
7.3279

> <Gold.Chemscore.Internal.Correction.Weighted>
   9.000000E+99

> <Gold.Protein.RotatedTorsions>
[ 6907 6896 6895 6894 ] final    7.65 input  -60.11 | X-H torsion
[ 7974 7965 7964 7962 ] final   92.38 input  175.53 | X-H torsion
[ 8008 7997 7996 7995 ] final  -22.02 input   59.86 | X-H torsion
[ 10167 10162 10161 10158 ] final   64.78 input  -65.29 | X-H torsion
[ 10718 10713 10712 10709 ] final  156.31 input   66.30 | X-H torsion
[ 10763 10752 10751 10750 ] final  140.47 input  -60.55 | X-H torsion
[ 11005 11000 10999 10996 ] final -118.26 input  -57.11 | X-H torsion

> <Gold.Protein.ActiveResidues>
 VAL166  LYS551  ARG553  GLY616  TRP617  ASP618  TYR619  PRO620  LYS621  CYS622 
 ASP623  PHE694  ASN695  SER759  ASP760  ASP761  ALA762  ILE779  LEU786  VAL792 
 PHE793  MET794  SER795  GLU796  ALA797  LYS798  CYS799  TRP800  GLU811  SER814 

> <Gold.Protein.RotatedAtoms>
  151.6933  135.0942  160.0237 H   0  0  0  0  0  0  0  0  0  0  0  0  # atno 6907 bound_to 6896
  152.3765  133.6484  159.6136 H   0  0  0  0  0  0  0  0  0  0  0  0  # atno 6908 bound_to 6896
  150.7713  133.9101  159.3408 H   0  0  0  0  0  0  0  0  0  0  0  0  # atno 6909 bound_to 6896
  145.4931  139.2276  143.2819 H   0  0  0  0  0  0  0  0  0  0  0  0  # atno 7974 bound_to 7965
  154.4669  140.2019  156.0095 H   0  0  0  0  0  0  0  0  0  0  0  0  # atno 8008 bound_to 7997
  156.0943  140.3253  155.7828 H   0  0  0  0  0  0  0  0  0  0  0  0  # atno 8009 bound_to 7997
  155.4904  140.0546  157.2945 H   0  0  0  0  0  0  0  0  0  0  0  0  # atno 8010 bound_to 7997
  140.1185  144.4753  150.6935 H   0  0  0  0  0  0  0  0  0  0  0  0  # atno 10167 bound_to 10162
  157.2067  131.0688  151.1994 H   0  0  0  0  0  0  0  0  0  0  0  0  # atno 10718 bound_to 10713
  153.9232  135.2998  155.3447 H   0  0  0  0  0  0  0  0  0  0  0  0  # atno 10763 bound_to 10752
  154.7565  135.4955  153.9387 H   0  0  0  0  0  0  0  0  0  0  0  0  # atno 10764 bound_to 10752
  153.1130  135.6764  153.9570 H   0  0  0  0  0  0  0  0  0  0  0  0  # atno 10765 bound_to 10752
  141.0298  133.9999  157.3160 H   0  0  0  0  0  0  0  0  0  0  0  0  # atno 11005 bound_to 11000
  146.2272  140.5726  142.8991 LP  0  0  0  0  0  0  0  0  0  0  0  0  # atno 17320 bound_to 7965
  144.7823  140.5865  143.6597 LP  0  0  0  0  0  0  0  0  0  0  0  0  # atno 17321 bound_to 7965
  140.6886  143.2363  151.5194 LP  0  0  0  0  0  0  0  0  0  0  0  0  # atno 17342 bound_to 10162
  139.5581  144.2224  152.1647 LP  0  0  0  0  0  0  0  0  0  0  0  0  # atno 17343 bound_to 10162
  157.3713  130.7183  149.6567 LP  0  0  0  0  0  0  0  0  0  0  0  0  # atno 17370 bound_to 10713
  155.9695  130.4198  150.4392 LP  0  0  0  0  0  0  0  0  0  0  0  0  # atno 17371 bound_to 10713
  139.9200  135.0200  156.8028 LP  0  0  0  0  0  0  0  0  0  0  0  0  # atno 17394 bound_to 11000
  140.6427  133.9803  155.7715 LP  0  0  0  0  0  0  0  0  0  0  0  0  # atno 17395 bound_to 11000

$$$$
