AV-unprocessed.smi:1473|AV-procd|sdf|5969|dock8
  -GOLD-   22720 6 53D 1   1.00000     0.00000
 Structure written by MMmdl.
 35 36  0  0  0  0  0  0  0  0  2 V2000
  148.3612  135.5469  154.4348 N   0  0  0  0  0  0  0  0  0  0  0  0
  149.6877  136.2840  155.2407 S   0  0  0  0  0  0  0  0  0  0  0  0
  149.2200  136.8452  156.5170 O   0  0  0  0  0  0  0  0  0  0  0  0
  150.8462  135.3806  155.1791 O   0  0  0  0  0  0  0  0  0  0  0  0
  149.9640  137.5882  154.1489 N   0  0  0  0  0  0  0  0  0  0  0  0
  151.0363  138.5487  154.4011 C   0  0  0  0  0  0  0  0  0  0  0  0
  150.5166  139.8838  154.8967 C   0  0  0  0  0  0  0  0  0  0  0  0
  149.3144  140.4151  154.3871 C   0  0  0  0  0  0  0  0  0  0  0  0
  148.8503  141.6465  154.8849 C   0  0  0  0  0  0  0  0  0  0  0  0
  149.5537  142.2941  155.8386 N   0  3  0  0  0  0  0  0  0  0  0  0
  150.7118  141.8321  156.3729 C   0  0  0  0  0  0  0  0  0  0  0  0
  151.3471  142.6107  157.3680 N   0  0  0  0  0  0  0  0  0  0  0  0
  151.6087  144.0127  157.0408 C   0  0  0  0  0  0  0  0  0  0  0  0
  152.5760  144.6388  158.0594 C   0  0  0  0  0  0  0  0  0  0  0  0
  152.0712  144.4561  159.3767 O   0  0  0  0  0  0  0  0  0  0  0  0
  151.9687  143.0775  159.7116 C   0  0  0  0  0  0  0  0  0  0  0  0
  150.9773  142.3821  158.7631 C   0  0  0  0  0  0  0  0  0  0  0  0
  151.2183  140.5966  155.8935 C   0  0  0  0  0  0  0  0  0  0  0  0
  148.4946  135.5055  153.4245 H   0  0  0  0  0  0  0  0  0  0  0  0
  147.4661  135.9503  154.7109 H   0  0  0  0  0  0  0  0  0  0  0  0
  149.7848  137.3738  153.1679 H   0  0  0  0  0  0  0  0  0  0  0  0
  151.7435  138.1251  155.1152 H   0  0  0  0  0  0  0  0  0  0  0  0
  151.5876  138.7064  153.4738 H   0  0  0  0  0  0  0  0  0  0  0  0
  148.7539  139.8863  153.6299 H   0  0  0  0  0  0  0  0  0  0  0  0
  147.9422  142.1292  154.5540 H   0  0  0  0  0  0  0  0  0  0  0  0
  152.0405  144.1193  156.0458 H   0  0  0  0  0  0  0  0  0  0  0  0
  150.6630  144.5561  157.0401 H   0  0  0  0  0  0  0  0  0  0  0  0
  153.5708  144.1983  157.9735 H   0  0  0  0  0  0  0  0  0  0  0  0
  152.6840  145.7060  157.8658 H   0  0  0  0  0  0  0  0  0  0  0  0
  152.9515  142.6058  159.6609 H   0  0  0  0  0  0  0  0  0  0  0  0
  151.6264  142.9869  160.7426 H   0  0  0  0  0  0  0  0  0  0  0  0
  149.9664  142.7555  158.9334 H   0  0  0  0  0  0  0  0  0  0  0  0
  150.9790  141.3157  158.9892 H   0  0  0  0  0  0  0  0  0  0  0  0
  152.1275  140.1672  156.2863 H   0  0  0  0  0  0  0  0  0  0  0  0
  149.1898  143.1847  156.1781 H   0  0  0  0  0  0  0  0  0  0  0  0
  1  2  1  0  0  0  0
  1 19  1  0  0  0  0
  1 20  1  0  0  0  0
  2  3  2  0  0  0  0
  2  4  2  0  0  0  0
  2  5  1  0  0  0  0
  5  6  1  0  0  0  0
  5 21  1  0  0  0  0
  6  7  1  0  0  0  0
  6 22  1  0  0  0  0
  6 23  1  0  0  0  0
  7 18  1  0  0  0  0
  7  8  2  0  0  0  0
  8  9  1  0  0  0  0
  8 24  1  0  0  0  0
  9 10  2  0  0  0  0
  9 25  1  0  0  0  0
 10 11  1  0  0  0  0
 10 35  1  0  0  0  0
 11 12  1  0  0  0  0
 11 18  2  0  0  0  0
 12 17  1  0  0  0  0
 12 13  1  0  0  0  0
 13 14  1  0  0  0  0
 13 26  1  0  0  0  0
 13 27  1  0  0  0  0
 14 15  1  0  0  0  0
 14 28  1  0  0  0  0
 14 29  1  0  0  0  0
 15 16  1  0  0  0  0
 16 17  1  0  0  0  0
 16 30  1  0  0  0  0
 16 31  1  0  0  0  0
 17 32  1  0  0  0  0
 17 33  1  0  0  0  0
 18 34  1  0  0  0  0
M  CHG  1  10   1
M  END
> <s_m_source_file>
AV-unprocessed.smi

> <i_m_source_file_index>
1473

> <i_lp_mmshare_version>
43012

> <i_f3d_flags>
0

> <s_epik_input>
W05IMl1TKD1PKSg9TylbTkhdW0NIMl1jMVtjSF1bY0hdbmMoW2NIXTEpTjJbQ0gyXVtDSDJdT1tDSDJdW0NIMl0y

> <s_epik_cmdline>
J2VwaWtfcHl0aG9uJywgJy1waCcsICc3LjAnLCAnLXRuJywgJzgnLCAnLW1hJywgJzIwMCcsICctbWV0YWxfYmluZGluZycsICctaW1hZScsICc8aW5maWxlLm1hZT4nLCAnLW9tYWUnLCAnPG91dGZpbGUubWFlPic=

> <r_lp_tautomer_probability>
0.999994

> <r_epik_Ionization_Penalty>
2.36475

> <r_epik_Ionization_Penalty_Charging>
1.69468

> <r_epik_Ionization_Penalty_Neutral>
0.670067

> <r_epik_State_Penalty>
1.95548

> <r_epik_Charging_Adjusted_Penalty>
3.65016

> <i_epik_Tot_Q>
1

> <i_epik_Tot_abs_Q>
1

> <r_epik_Metal_State_Penalty>
4.27053

> <b_epik_Metal_Only>
0

> <s_lp_Force_Field>
OPLS_2005

> <r_lp_Energy>
21.3801

> <b_lp_Chiralities_Consistent>
1

> <s_lp_Variant>
AV-unprocessed.smi:1473-4

> <Gold.Version>
5.8.1

> <Gold.Id.Protein>
6NUR|6NUR_protein|mol2

> <Gold.PLP.Fitness>
49.1947

> <Gold.PLP.PLP>
-36.6082

> <Gold.PLP.part.hbond>
-4.0643

> <Gold.PLP.part.metal>
0.0000

> <Gold.PLP.part.buried>
-1.9323

> <Gold.PLP.part.nonpolar>
-30.8061

> <Gold.PLP.part.repulsive>
0.4141

> <Gold.PLP.ligand.clash>
0.0000

> <Gold.PLP.ligand.torsion>
1.4603

> <Gold.PLP.Chemscore.Hbond>
4.6880

> <Gold.PLP.Chemscore.CHOScore>
0.0000

> <Gold.PLP.Chemscore.Metal>
0.0000

> <Gold.Chemscore.Hbonds>
donor molecule, donor type, donor heavy atom, donor atom, acceptor molecule, acceptor atom, score
      L1  H     1    19       P1  7948  1.00
      L1  H     5    21       P1  7948  0.99
      L1  H    10    35       P1  8028  1.63
      P1  H 10752 10765       L1     4  0.67

> <Gold.PLP.Chemscore.Internal.Correction>
1.4432

> <Gold.Rescore>
     Score         DG    S(hbond)    S(metal)    S(lipo)     H(rot)  DE(clash)    DE(int)     intcor
     19.18     -21.04       3.18        0.00      84.42       1.93       0.49       1.37       ----

> <Gold.Chemscore.Fitness>
19.1772

> <Gold.Chemscore.DG>
-21.0388

> <Gold.Chemscore.ZeroCoef>
-5.4800

> <Gold.Chemscore.Hbond>
3.1797

> <Gold.Chemscore.Metal>
0.0000

> <Gold.Chemscore.Lipo>
84.4198

> <Gold.Chemscore.Internal_Hbond>
0.0000

> <Gold.Chemscore.DEClash>
0.4882

> <Gold.Chemscore.DEInternal>
1.3734

> <Gold.Chemscore.Rot>
1.9292

> <Gold.Chemscore.Internal.Correction>
   9.000000E+99

> <Gold.Chemscore.Hbonds>
donor molecule, donor type, donor heavy atom, donor atom, acceptor molecule, acceptor atom, score
      L1  H     1    19       P1  7948  0.96
      L1  H     5    21       P1  7948  0.47
      L1  H    10    35       P1  8028  0.81
      P1  H 10752 10765       L1     4  0.65

> <Gold.Chemscore.Hbond.Weighted>
-10.6203

> <Gold.Chemscore.Metal.Weighted>
-0.0000

> <Gold.Chemscore.Lipo.Weighted>
-9.8771

> <Gold.Chemscore.Internal_Hbond.Weighted>
0.0000

> <Gold.Chemscore.DEClash.Weighted>
0.4882

> <Gold.Chemscore.DEInternal.Weighted>
1.3734

> <Gold.Chemscore.Rot.Weighted>
4.9386

> <Gold.Chemscore.Internal.Correction.Weighted>
   9.000000E+99

> <Gold.Protein.RotatedTorsions>
[ 6907 6896 6895 6894 ] final -174.70 input  -60.11 | X-H torsion
[ 7974 7965 7964 7962 ] final -179.75 input  175.53 | X-H torsion
[ 8008 7997 7996 7995 ] final   57.00 input   59.86 | X-H torsion
[ 10167 10162 10161 10158 ] final   14.63 input  -65.29 | X-H torsion
[ 10718 10713 10712 10709 ] final  134.74 input   66.30 | X-H torsion
[ 10763 10752 10751 10750 ] final -173.22 input  -60.55 | X-H torsion
[ 11005 11000 10999 10996 ] final   20.38 input  -57.11 | X-H torsion

> <Gold.Protein.ActiveResidues>
 VAL166  LYS551  ARG553  GLY616  TRP617  ASP618  TYR619  PRO620  LYS621  CYS622 
 ASP623  PHE694  ASN695  SER759  ASP760  ASP761  ALA762  ILE779  LEU786  VAL792 
 PHE793  MET794  SER795  GLU796  ALA797  LYS798  CYS799  TRP800  GLU811  SER814 

> <Gold.Protein.RotatedAtoms>
  151.5766  133.3383  159.2999 H   0  0  0  0  0  0  0  0  0  0  0  0  # atno 6907 bound_to 6896
  150.8337  134.7604  159.6886 H   0  0  0  0  0  0  0  0  0  0  0  0  # atno 6908 bound_to 6896
  152.4417  134.5585  159.9939 H   0  0  0  0  0  0  0  0  0  0  0  0  # atno 6909 bound_to 6896
  144.7139  140.0671  143.6430 H   0  0  0  0  0  0  0  0  0  0  0  0  # atno 7974 bound_to 7965
  155.5266  140.3481  155.4417 H   0  0  0  0  0  0  0  0  0  0  0  0  # atno 8008 bound_to 7997
  156.0747  140.1372  156.9812 H   0  0  0  0  0  0  0  0  0  0  0  0  # atno 8009 bound_to 7997
  154.4547  140.0958  156.6697 H   0  0  0  0  0  0  0  0  0  0  0  0  # atno 8010 bound_to 7997
  140.5923  143.8771  150.6885 H   0  0  0  0  0  0  0  0  0  0  0  0  # atno 10167 bound_to 10162
  157.4641  131.1075  150.9883 H   0  0  0  0  0  0  0  0  0  0  0  0  # atno 10718 bound_to 10713
  154.6104  135.2864  155.0438 H   0  0  0  0  0  0  0  0  0  0  0  0  # atno 10763 bound_to 10752
  154.1670  135.6479  153.5004 H   0  0  0  0  0  0  0  0  0  0  0  0  # atno 10764 bound_to 10752
  153.0193  135.5392  154.6856 H   0  0  0  0  0  0  0  0  0  0  0  0  # atno 10765 bound_to 10752
  140.4032  134.1696  155.7664 H   0  0  0  0  0  0  0  0  0  0  0  0  # atno 11005 bound_to 11000
  145.9815  139.2945  143.1039 LP  0  0  0  0  0  0  0  0  0  0  0  0  # atno 17320 bound_to 7965
  145.9005  140.9246  143.0505 LP  0  0  0  0  0  0  0  0  0  0  0  0  # atno 17321 bound_to 7965
  140.2297  143.3745  152.1576 LP  0  0  0  0  0  0  0  0  0  0  0  0  # atno 17342 bound_to 10162
  139.5235  144.7072  151.5317 LP  0  0  0  0  0  0  0  0  0  0  0  0  # atno 17343 bound_to 10162
  157.0670  130.5849  149.5396 LP  0  0  0  0  0  0  0  0  0  0  0  0  # atno 17370 bound_to 10713
  156.0042  130.5126  150.7772 LP  0  0  0  0  0  0  0  0  0  0  0  0  # atno 17371 bound_to 10713
  141.1849  133.8335  157.1124 LP  0  0  0  0  0  0  0  0  0  0  0  0  # atno 17394 bound_to 11000
  140.0321  134.9896  157.0800 LP  0  0  0  0  0  0  0  0  0  0  0  0  # atno 17395 bound_to 11000

$$$$
