AV-unprocessed.smi:1228|AV-procd|sdf|5147|dock4
  -GOLD-   22720 4213D 1   1.00000     0.00000
 Structure written by MMmdl.
 44 46  0  0  0  0  0  0  0  0  2 V2000
  150.9835  140.6125  154.5049 C   0  0  0  0  0  0  0  0  0  0  0  0
  149.5333  140.6026  154.1211 C   0  0  0  0  0  0  0  0  0  0  0  0
  148.7552  139.5014  153.6593 C   0  0  0  0  0  0  0  0  0  0  0  0
  147.5227  140.0631  153.4667 C   0  0  0  0  0  0  0  0  0  0  0  0
  146.3741  139.4779  153.0339 N   0  0  0  0  0  0  0  0  0  0  0  0
  146.1458  138.1828  152.7531 C   0  0  0  0  0  0  0  0  0  0  0  0
  146.9779  137.2783  152.8239 O   0  0  0  0  0  0  0  0  0  0  0  0
  144.8749  137.9848  152.3727 N   0  0  0  0  0  0  0  0  0  0  0  0
  144.3002  136.6915  152.0127 C   0  0  2  0  0  0  0  0  0  0  0  0
  144.2523  135.7495  153.2305 C   0  0  0  0  0  0  0  0  0  0  0  0
  143.7333  134.3580  152.8320 C   0  0  0  0  0  0  0  0  0  0  0  0
  144.5587  133.7705  151.7474 N   0  3  1  0  0  0  0  0  0  0  0  0
  144.1469  132.3877  151.4213 C   0  0  0  0  0  0  0  0  0  0  0  0
  145.2590  131.3737  151.5557 C   0  0  0  0  0  0  0  0  0  0  0  0
  144.8127  131.8307  150.1845 C   0  0  0  0  0  0  0  0  0  0  0  0
  144.5908  134.6422  150.5465 C   0  0  0  0  0  0  0  0  0  0  0  0
  145.1283  136.0414  150.8921 C   0  0  0  0  0  0  0  0  0  0  0  0
  147.5858  141.3985  153.7978 N   0  0  0  0  0  0  0  0  0  0  0  0
  146.5440  142.4064  153.7621 C   0  0  0  0  0  0  0  0  0  0  0  0
  148.8324  141.7284  154.1993 N   0  0  0  0  0  0  0  0  0  0  0  0
  151.3814  139.5992  154.5648 H   0  0  0  0  0  0  0  0  0  0  0  0
  151.1316  141.0835  155.4771 H   0  0  0  0  0  0  0  0  0  0  0  0
  151.5781  141.1600  153.7734 H   0  0  0  0  0  0  0  0  0  0  0  0
  149.0694  138.4800  153.5049 H   0  0  0  0  0  0  0  0  0  0  0  0
  145.5926  140.1050  152.9132 H   0  0  0  0  0  0  0  0  0  0  0  0
  144.2583  138.7837  152.3416 H   0  0  0  0  0  0  0  0  0  0  0  0
  143.2850  136.8452  151.6410 H   0  0  0  0  0  0  0  0  0  0  0  0
  145.2479  135.6546  153.6668 H   0  0  0  0  0  0  0  0  0  0  0  0
  143.6126  136.1681  154.0086 H   0  0  0  0  0  0  0  0  0  0  0  0
  143.7504  133.7001  153.7018 H   0  0  0  0  0  0  0  0  0  0  0  0
  142.6940  134.4241  152.5056 H   0  0  0  0  0  0  0  0  0  0  0  0
  143.1208  132.1179  151.6662 H   0  0  0  0  0  0  0  0  0  0  0  0
  146.2311  131.7161  151.9064 H   0  0  0  0  0  0  0  0  0  0  0  0
  144.9850  130.3650  151.8580 H   0  0  0  0  0  0  0  0  0  0  0  0
  144.2445  131.1231  149.5840 H   0  0  0  0  0  0  0  0  0  0  0  0
  145.4880  132.4767  149.6263 H   0  0  0  0  0  0  0  0  0  0  0  0
  145.2227  134.1887  149.7821 H   0  0  0  0  0  0  0  0  0  0  0  0
  143.5878  134.7182  150.1233 H   0  0  0  0  0  0  0  0  0  0  0  0
  145.1139  136.6714  150.0019 H   0  0  0  0  0  0  0  0  0  0  0  0
  146.1727  135.9621  151.1983 H   0  0  0  0  0  0  0  0  0  0  0  0
  146.2177  142.5584  152.7332 H   0  0  0  0  0  0  0  0  0  0  0  0
  146.9110  143.3532  154.1607 H   0  0  0  0  0  0  0  0  0  0  0  0
  145.6951  142.0773  154.3616 H   0  0  0  0  0  0  0  0  0  0  0  0
  145.5049  133.7169  152.0964 H   0  0  0  0  0  0  0  0  0  0  0  0
  1  2  1  0  0  0  0
  1 21  1  0  0  0  0
  1 22  1  0  0  0  0
  1 23  1  0  0  0  0
  2 20  2  0  0  0  0
  2  3  1  0  0  0  0
  3  4  2  0  0  0  0
  3 24  1  0  0  0  0
  4  5  1  0  0  0  0
  4 18  1  0  0  0  0
  5  6  1  0  0  0  0
  5 25  1  0  0  0  0
  6  7  2  0  0  0  0
  6  8  1  0  0  0  0
  8  9  1  0  0  0  0
  8 26  1  0  0  0  0
  9 17  1  0  0  0  0
  9 10  1  0  0  0  0
  9 27  1  0  0  0  0
 10 11  1  0  0  0  0
 10 28  1  0  0  0  0
 10 29  1  0  0  0  0
 11 12  1  0  0  0  0
 11 30  1  0  0  0  0
 11 31  1  0  0  0  0
 12 13  1  0  0  0  0
 12 16  1  0  0  0  0
 12 44  1  0  0  0  0
 13 15  1  0  0  0  0
 13 14  1  0  0  0  0
 13 32  1  0  0  0  0
 14 15  1  0  0  0  0
 14 33  1  0  0  0  0
 14 34  1  0  0  0  0
 15 35  1  0  0  0  0
 15 36  1  0  0  0  0
 16 17  1  0  0  0  0
 16 37  1  0  0  0  0
 16 38  1  0  0  0  0
 17 39  1  0  0  0  0
 17 40  1  0  0  0  0
 18 19  1  0  0  0  0
 18 20  1  0  0  0  0
 19 41  1  0  0  0  0
 19 42  1  0  0  0  0
 19 43  1  0  0  0  0
M  CHG  1  12   1
M  END
> <s_m_source_file>
AV-unprocessed.smi

> <i_m_source_file_index>
1228

> <i_lp_mmshare_version>
43012

> <i_f3d_flags>
0

> <s_epik_input>
W0NIM11jMVtjSF1jKG4objEpW0NIM10pW05IXUMoPU8pW05IXVtDSF0yW0NIMl1bQ0gyXU4oW0NIMl1bQ0gyXTIpW0NIXTNbQ0gyXVtDSDJdMw==

> <s_epik_cmdline>
J2VwaWtfcHl0aG9uJywgJy1waCcsICc3LjAnLCAnLXRuJywgJzgnLCAnLW1hJywgJzIwMCcsICctbWV0YWxfYmluZGluZycsICctaW1hZScsICc8aW5maWxlLm1hZT4nLCAnLW9tYWUnLCAnPG91dGZpbGUubWFlPic=

> <r_lp_tautomer_probability>
1

> <r_epik_Ionization_Penalty>
0.11882

> <r_epik_Ionization_Penalty_Charging>
0.11874

> <r_epik_Ionization_Penalty_Neutral>
8.03064e-05

> <r_epik_State_Penalty>
0.108313

> <r_epik_Charging_Adjusted_Penalty>
0.227053

> <i_epik_Tot_Q>
1

> <i_epik_Tot_abs_Q>
1

> <r_epik_Metal_State_Penalty>
0.108316

> <b_epik_Metal_Only>
0

> <s_lp_Force_Field>
OPLS_2005

> <r_lp_Energy>
27.674

> <b_lp_Chiralities_Consistent>
1

> <s_lp_Variant>
AV-unprocessed.smi:1228-1

> <Gold.Version>
5.8.1

> <Gold.Id.Protein>
6NUR|6NUR_protein|mol2

> <Gold.PLP.Fitness>
41.2364

> <Gold.PLP.PLP>
-35.6801

> <Gold.PLP.part.hbond>
-3.0000

> <Gold.PLP.part.metal>
0.0000

> <Gold.PLP.part.buried>
-1.5733

> <Gold.PLP.part.nonpolar>
-33.2158

> <Gold.PLP.part.repulsive>
3.3505

> <Gold.PLP.ligand.clash>
0.0000

> <Gold.PLP.ligand.torsion>
0.8401

> <Gold.PLP.Chemscore.Hbond>
1.9920

> <Gold.PLP.Chemscore.CHOScore>
0.0000

> <Gold.PLP.Chemscore.Metal>
0.0000

> <Gold.Chemscore.Hbonds>
donor molecule, donor type, donor heavy atom, donor atom, acceptor molecule, acceptor atom, score
      L1  H     5    25       P1 10175  1.00
      L1  H     8    26       P1 10175  1.00
      P1  H  8011  8017       L1    20  0.15

> <Gold.PLP.Chemscore.Internal.Correction>
1.2604

> <Gold.Rescore>
     Score         DG    S(hbond)    S(metal)    S(lipo)     H(rot)  DE(clash)    DE(int)     intcor
     12.11     -17.81       1.97        0.00      75.71       1.21       2.33       3.37       ----

> <Gold.Chemscore.Fitness>
12.1069

> <Gold.Chemscore.DG>
-17.8093

> <Gold.Chemscore.ZeroCoef>
-5.4800

> <Gold.Chemscore.Hbond>
1.9666

> <Gold.Chemscore.Metal>
0.0000

> <Gold.Chemscore.Lipo>
75.7080

> <Gold.Chemscore.Internal_Hbond>
0.0000

> <Gold.Chemscore.DEClash>
2.3348

> <Gold.Chemscore.DEInternal>
3.3676

> <Gold.Chemscore.Rot>
1.2097

> <Gold.Chemscore.Internal.Correction>
   9.000000E+99

> <Gold.Chemscore.Hbonds>
donor molecule, donor type, donor heavy atom, donor atom, acceptor molecule, acceptor atom, score
      L1  H     5    25       P1 10175  0.92
      L1  H     8    26       P1 10175  1.00

> <Gold.Chemscore.Hbond.Weighted>
-6.5684

> <Gold.Chemscore.Metal.Weighted>
-0.0000

> <Gold.Chemscore.Lipo.Weighted>
-8.8578

> <Gold.Chemscore.Internal_Hbond.Weighted>
0.0000

> <Gold.Chemscore.DEClash.Weighted>
2.3348

> <Gold.Chemscore.DEInternal.Weighted>
3.3676

> <Gold.Chemscore.Rot.Weighted>
3.0969

> <Gold.Chemscore.Internal.Correction.Weighted>
   9.000000E+99

> <Gold.Protein.RotatedTorsions>
[ 6907 6896 6895 6894 ] final   -3.98 input  -60.11 | X-H torsion
[ 7974 7965 7964 7962 ] final  160.72 input  175.53 | X-H torsion
[ 8008 7997 7996 7995 ] final  -89.09 input   59.86 | X-H torsion
[ 10167 10162 10161 10158 ] final  -97.91 input  -65.29 | X-H torsion
[ 10718 10713 10712 10709 ] final  -16.27 input   66.30 | X-H torsion
[ 10763 10752 10751 10750 ] final -170.77 input  -60.55 | X-H torsion
[ 11005 11000 10999 10996 ] final   27.76 input  -57.11 | X-H torsion

> <Gold.Protein.ActiveResidues>
 VAL166  LYS551  ARG553  GLY616  TRP617  ASP618  TYR619  PRO620  LYS621  CYS622 
 ASP623  PHE694  ASN695  SER759  ASP760  ASP761  ALA762  ILE779  LEU786  VAL792 
 PHE793  MET794  SER795  GLU796  ALA797  LYS798  CYS799  TRP800  GLU811  SER814 

> <Gold.Protein.RotatedAtoms>
  151.5050  135.1063  159.9838 H   0  0  0  0  0  0  0  0  0  0  0  0  # atno 6907 bound_to 6896
  152.4685  133.7973  159.6945 H   0  0  0  0  0  0  0  0  0  0  0  0  # atno 6908 bound_to 6896
  150.8682  133.7481  159.2995 H   0  0  0  0  0  0  0  0  0  0  0  0  # atno 6909 bound_to 6896
  144.7722  139.7797  143.6292 H   0  0  0  0  0  0  0  0  0  0  0  0  # atno 7974 bound_to 7965
  154.6825  140.0546  157.0280 H   0  0  0  0  0  0  0  0  0  0  0  0  # atno 8008 bound_to 7997
  155.0932  140.3221  155.4549 H   0  0  0  0  0  0  0  0  0  0  0  0  # atno 8009 bound_to 7997
  156.2699  140.2044  156.6059 H   0  0  0  0  0  0  0  0  0  0  0  0  # atno 8010 bound_to 7997
  140.2785  143.3297  152.0465 H   0  0  0  0  0  0  0  0  0  0  0  0  # atno 10167 bound_to 10162
  156.5900  130.4796  149.6283 H   0  0  0  0  0  0  0  0  0  0  0  0  # atno 10718 bound_to 10713
  154.6379  135.2895  155.0139 H   0  0  0  0  0  0  0  0  0  0  0  0  # atno 10763 bound_to 10752
  154.1276  135.6538  153.4919 H   0  0  0  0  0  0  0  0  0  0  0  0  # atno 10764 bound_to 10752
  153.0312  135.5302  154.7234 H   0  0  0  0  0  0  0  0  0  0  0  0  # atno 10765 bound_to 10752
  140.3228  134.2524  155.7714 H   0  0  0  0  0  0  0  0  0  0  0  0  # atno 11005 bound_to 11000
  146.1877  139.5100  142.9825 LP  0  0  0  0  0  0  0  0  0  0  0  0  # atno 17320 bound_to 7965
  145.6290  141.0308  143.1873 LP  0  0  0  0  0  0  0  0  0  0  0  0  # atno 17321 bound_to 7965
  139.4969  144.6608  151.6469 LP  0  0  0  0  0  0  0  0  0  0  0  0  # atno 17342 bound_to 10162
  140.5831  143.9911  150.6280 LP  0  0  0  0  0  0  0  0  0  0  0  0  # atno 17343 bound_to 10162
  156.2558  130.6933  151.1686 LP  0  0  0  0  0  0  0  0  0  0  0  0  # atno 17370 bound_to 10713
  157.7306  131.0615  150.5719 LP  0  0  0  0  0  0  0  0  0  0  0  0  # atno 17371 bound_to 10713
  141.2082  133.7783  157.0071 LP  0  0  0  0  0  0  0  0  0  0  0  0  # atno 17394 bound_to 11000
  140.0927  134.9583  157.1801 LP  0  0  0  0  0  0  0  0  0  0  0  0  # atno 17395 bound_to 11000

$$$$
