AV-unprocessed.smi:1517|AV-procd|sdf|6122|dock8
  -GOLD-   22720 6253D 1   1.00000     0.00000
 Structure written by MMmdl.
 41 43  0  0  0  0  0  0  0  0  1 V2000
  148.5366  140.9554  153.1831 O   0  0  0  0  0  0  0  0  0  0  0  0
  147.5051  140.1013  153.6258 C   0  0  0  0  0  0  0  0  0  0  0  0
  146.7535  139.5227  152.4188 C   0  0  0  0  0  0  0  0  0  0  0  0
  145.6230  138.7031  152.8157 N   0  0  0  0  0  0  0  0  0  0  0  0
  145.2075  137.4382  152.4164 C   0  0  0  0  0  0  0  0  0  0  0  0
  145.8508  136.6995  151.5142 N   0  0  0  0  0  0  0  0  0  0  0  0
  145.0734  135.5581  151.4603 C   0  0  0  0  0  0  0  0  0  0  0  0
  145.2216  134.3820  150.6910 C   0  0  0  0  0  0  0  0  0  0  0  0
  144.2883  133.3309  150.8062 C   0  0  0  0  0  0  0  0  0  0  0  0
  143.1951  133.4402  151.6899 C   0  0  0  0  0  0  0  0  0  0  0  0
  143.0283  134.6030  152.4664 C   0  0  0  0  0  0  0  0  0  0  0  0
  143.9627  135.6491  152.3485 C   0  0  0  0  0  0  0  0  0  0  0  0
  144.0912  136.8936  152.9579 N   0  0  0  0  0  0  0  0  0  0  0  0
  143.2004  137.4523  153.9671 C   0  0  0  0  0  0  0  0  0  0  0  0
  141.7469  137.5568  153.4646 C   0  0  2  0  0  0  0  0  0  0  0  0
  141.6448  138.7099  152.6537 O   0  0  0  0  0  0  0  0  0  0  0  0
  140.7337  137.5556  154.6045 C   0  0  0  0  0  0  0  0  0  0  0  0
  141.1698  137.5556  155.9485 C   0  0  0  0  0  0  0  0  0  0  0  0
  140.2345  137.5520  157.0011 C   0  0  0  0  0  0  0  0  0  0  0  0
  138.8558  137.5398  156.7181 C   0  0  0  0  0  0  0  0  0  0  0  0
  137.9563  137.5330  157.7300 F   0  0  0  0  0  0  0  0  0  0  0  0
  138.4135  137.5275  155.3821 C   0  0  0  0  0  0  0  0  0  0  0  0
  139.3472  137.5358  154.3277 C   0  0  0  0  0  0  0  0  0  0  0  0
  138.9027  137.5182  153.0479 F   0  0  0  0  0  0  0  0  0  0  0  0
  149.0998  140.4663  152.6030 H   0  0  0  0  0  0  0  0  0  0  0  0
  147.9730  139.2922  154.1871 H   0  0  0  0  0  0  0  0  0  0  0  0
  146.8397  140.6248  154.3138 H   0  0  0  0  0  0  0  0  0  0  0  0
  146.4274  140.3106  151.7390 H   0  0  0  0  0  0  0  0  0  0  0  0
  147.4297  138.8830  151.8507 H   0  0  0  0  0  0  0  0  0  0  0  0
  145.0291  139.1414  153.5046 H   0  0  0  0  0  0  0  0  0  0  0  0
  146.0556  134.2881  150.0113 H   0  0  0  0  0  0  0  0  0  0  0  0
  144.4115  132.4364  150.2135 H   0  0  0  0  0  0  0  0  0  0  0  0
  142.4848  132.6304  151.7721 H   0  0  0  0  0  0  0  0  0  0  0  0
  142.1931  134.6894  153.1456 H   0  0  0  0  0  0  0  0  0  0  0  0
  143.2545  136.8629  154.8830 H   0  0  0  0  0  0  0  0  0  0  0  0
  143.5766  138.4436  154.2241 H   0  0  0  0  0  0  0  0  0  0  0  0
  141.5380  136.7125  152.8069 H   0  0  0  0  0  0  0  0  0  0  0  0
  142.3815  139.2725  152.8387 H   0  0  0  0  0  0  0  0  0  0  0  0
  142.2253  137.5583  156.1789 H   0  0  0  0  0  0  0  0  0  0  0  0
  140.5749  137.5548  158.0260 H   0  0  0  0  0  0  0  0  0  0  0  0
  137.3557  137.5118  155.1646 H   0  0  0  0  0  0  0  0  0  0  0  0
  1  2  1  0  0  0  0
  1 25  1  0  0  0  0
  2  3  1  0  0  0  0
  2 26  1  0  0  0  0
  2 27  1  0  0  0  0
  3  4  1  0  0  0  0
  3 28  1  0  0  0  0
  3 29  1  0  0  0  0
  4  5  1  0  0  0  0
  4 30  1  0  0  0  0
  5 13  1  0  0  0  0
  5  6  2  0  0  0  0
  6  7  1  0  0  0  0
  7 12  2  0  0  0  0
  7  8  1  0  0  0  0
  8  9  2  0  0  0  0
  8 31  1  0  0  0  0
  9 10  1  0  0  0  0
  9 32  1  0  0  0  0
 10 11  2  0  0  0  0
 10 33  1  0  0  0  0
 11 12  1  0  0  0  0
 11 34  1  0  0  0  0
 12 13  1  0  0  0  0
 13 14  1  0  0  0  0
 14 15  1  0  0  0  0
 14 35  1  0  0  0  0
 14 36  1  0  0  0  0
 15 16  1  0  0  0  0
 15 17  1  0  0  0  0
 15 37  1  0  0  0  0
 16 38  1  0  0  0  0
 17 23  1  0  0  0  0
 17 18  2  0  0  0  0
 18 19  1  0  0  0  0
 18 39  1  0  0  0  0
 19 20  2  0  0  0  0
 19 40  1  0  0  0  0
 20 21  1  0  0  0  0
 20 22  1  0  0  0  0
 22 23  2  0  0  0  0
 22 41  1  0  0  0  0
 23 24  1  0  0  0  0
M  END
> <s_m_source_file>
AV-unprocessed.smi

> <i_m_source_file_index>
1517

> <i_lp_mmshare_version>
43012

> <i_f3d_flags>
0

> <s_epik_input>
W09IXVtDSDJdW0NIMl1bTkhdYyhuMSluKGMoYzEyKVtjSF1bY0hdW2NIXVtjSF0yKVtDSDJdW0NASF0oW09IXSljM1tjSF1bY0hdYyhGKVtjSF1jM0Y=

> <s_epik_cmdline>
J2VwaWtfcHl0aG9uJywgJy1waCcsICc3LjAnLCAnLXRuJywgJzgnLCAnLW1hJywgJzIwMCcsICctbWV0YWxfYmluZGluZycsICctaW1hZScsICc8aW5maWxlLm1hZT4nLCAnLW9tYWUnLCAnPG91dGZpbGUubWFlPic=

> <r_epik_Ionization_Penalty>
1.30972

> <r_epik_Ionization_Penalty_Charging>
0

> <r_epik_Ionization_Penalty_Neutral>
1.30972

> <r_epik_State_Penalty>
1.38438

> <r_epik_Charging_Adjusted_Penalty>
1.38438

> <i_epik_Tot_Q>
0

> <i_epik_Tot_abs_Q>
0

> <r_epik_Metal_State_Penalty>
0.00551145

> <b_epik_Metal_Only>
0

> <s_lp_Force_Field>
OPLS_2005

> <r_lp_Energy>
9.55996

> <b_lp_Chiralities_Consistent>
1

> <s_lp_Variant>
AV-unprocessed.smi:1517-3

> <Gold.Version>
5.8.1

> <Gold.Id.Protein>
6NUR|6NUR_protein|mol2

> <Gold.PLP.Fitness>
45.5391

> <Gold.PLP.PLP>
-39.8879

> <Gold.PLP.part.hbond>
-4.7062

> <Gold.PLP.part.metal>
0.0000

> <Gold.PLP.part.buried>
-3.6886

> <Gold.PLP.part.nonpolar>
-31.9895

> <Gold.PLP.part.repulsive>
0.5581

> <Gold.PLP.ligand.clash>
0.0000

> <Gold.PLP.ligand.torsion>
0.3261

> <Gold.PLP.Chemscore.Hbond>
2.0858

> <Gold.PLP.Chemscore.CHOScore>
0.0000

> <Gold.PLP.Chemscore.Metal>
0.0000

> <Gold.Chemscore.Hbonds>
donor molecule, donor type, donor heavy atom, donor atom, acceptor molecule, acceptor atom, score
      L1  H     1    25       P1  7957  1.00
      L1  H     4    30       P1 10175  0.11
      L1  H    16    38       P1 10175  1.00

> <Gold.PLP.Chemscore.Internal.Correction>
0.0460

> <Gold.Rescore>
     Score         DG    S(hbond)    S(metal)    S(lipo)     H(rot)  DE(clash)    DE(int)     intcor
     11.58     -12.76       2.05        0.00      74.23       3.22       0.86       0.31       ----

> <Gold.Chemscore.Fitness>
11.5849

> <Gold.Chemscore.DG>
-12.7619

> <Gold.Chemscore.ZeroCoef>
-5.4800

> <Gold.Chemscore.Hbond>
2.0476

> <Gold.Chemscore.Metal>
0.0000

> <Gold.Chemscore.Lipo>
74.2276

> <Gold.Chemscore.Internal_Hbond>
0.0000

> <Gold.Chemscore.DEClash>
0.8634

> <Gold.Chemscore.DEInternal>
0.3137

> <Gold.Chemscore.Rot>
3.2194

> <Gold.Chemscore.Internal.Correction>
   9.000000E+99

> <Gold.Chemscore.Hbonds>
donor molecule, donor type, donor heavy atom, donor atom, acceptor molecule, acceptor atom, score
      L1  H     1    25       P1  7957  0.94
      L1  H     4    30       P1 10175  0.12
      L1  H    16    38       P1 10175  0.96

> <Gold.Chemscore.Hbond.Weighted>
-6.8389

> <Gold.Chemscore.Metal.Weighted>
-0.0000

> <Gold.Chemscore.Lipo.Weighted>
-8.6846

> <Gold.Chemscore.Internal_Hbond.Weighted>
0.0000

> <Gold.Chemscore.DEClash.Weighted>
0.8634

> <Gold.Chemscore.DEInternal.Weighted>
0.3137

> <Gold.Chemscore.Rot.Weighted>
8.2416

> <Gold.Chemscore.Internal.Correction.Weighted>
   9.000000E+99

> <Gold.Protein.RotatedTorsions>
[ 6907 6896 6895 6894 ] final  -70.88 input  -60.11 | X-H torsion
[ 7974 7965 7964 7962 ] final  -32.55 input  175.53 | X-H torsion
[ 8008 7997 7996 7995 ] final   -0.37 input   59.86 | X-H torsion
[ 10167 10162 10161 10158 ] final -104.98 input  -65.29 | X-H torsion
[ 10718 10713 10712 10709 ] final -128.53 input   66.30 | X-H torsion
[ 10763 10752 10751 10750 ] final   87.74 input  -60.55 | X-H torsion
[ 11005 11000 10999 10996 ] final  122.24 input  -57.11 | X-H torsion

> <Gold.Protein.ActiveResidues>
 VAL166  LYS551  ARG553  GLY616  TRP617  ASP618  TYR619  PRO620  LYS621  CYS622 
 ASP623  PHE694  ASN695  SER759  ASP760  ASP761  ALA762  ILE779  LEU786  VAL792 
 PHE793  MET794  SER795  GLU796  ALA797  LYS798  CYS799  TRP800  GLU811  SER814 

> <Gold.Protein.RotatedAtoms>
  150.7237  134.5389  159.5736 H   0  0  0  0  0  0  0  0  0  0  0  0  # atno 6907 bound_to 6896
  152.2904  134.7725  160.0388 H   0  0  0  0  0  0  0  0  0  0  0  0  # atno 6908 bound_to 6896
  151.8340  133.3377  159.3659 H   0  0  0  0  0  0  0  0  0  0  0  0  # atno 6909 bound_to 6896
  146.0981  140.5806  142.8833 H   0  0  0  0  0  0  0  0  0  0  0  0  # atno 7974 bound_to 7965
  154.6588  140.2586  155.7131 H   0  0  0  0  0  0  0  0  0  0  0  0  # atno 8008 bound_to 7997
  156.2609  140.2853  156.0973 H   0  0  0  0  0  0  0  0  0  0  0  0  # atno 8009 bound_to 7997
  155.1339  140.0379  157.2772 H   0  0  0  0  0  0  0  0  0  0  0  0  # atno 8010 bound_to 7997
  140.2034  143.3801  152.1110 H   0  0  0  0  0  0  0  0  0  0  0  0  # atno 10167 bound_to 10162
  156.1959  130.6826  151.0481 H   0  0  0  0  0  0  0  0  0  0  0  0  # atno 10718 bound_to 10713
  153.1698  135.4532  154.9887 H   0  0  0  0  0  0  0  0  0  0  0  0  # atno 10763 bound_to 10752
  154.7958  135.3237  154.7673 H   0  0  0  0  0  0  0  0  0  0  0  0  # atno 10764 bound_to 10752
  153.8151  135.6951  153.4890 H   0  0  0  0  0  0  0  0  0  0  0  0  # atno 10765 bound_to 10752
  139.9260  134.9641  156.8079 H   0  0  0  0  0  0  0  0  0  0  0  0  # atno 11005 bound_to 11000
  144.7411  140.4945  143.6868 LP  0  0  0  0  0  0  0  0  0  0  0  0  # atno 17320 bound_to 7965
  145.5908  139.1495  143.3183 LP  0  0  0  0  0  0  0  0  0  0  0  0  # atno 17321 bound_to 7965
  139.5208  144.7038  151.5416 LP  0  0  0  0  0  0  0  0  0  0  0  0  # atno 17342 bound_to 10162
  140.6374  143.8956  150.6660 LP  0  0  0  0  0  0  0  0  0  0  0  0  # atno 17343 bound_to 10162
  157.6957  131.0794  150.6975 LP  0  0  0  0  0  0  0  0  0  0  0  0  # atno 17370 bound_to 10713
  156.7032  130.4629  149.5567 LP  0  0  0  0  0  0  0  0  0  0  0  0  # atno 17371 bound_to 10713
  140.6336  133.9883  155.7673 LP  0  0  0  0  0  0  0  0  0  0  0  0  # atno 17394 bound_to 11000
  141.0817  134.0052  157.3376 LP  0  0  0  0  0  0  0  0  0  0  0  0  # atno 17395 bound_to 11000

$$$$
