AV-unprocessed.smi:1762|AV-procd|sdf|7104|dock4
  -GOLD-   22720 8323D 1   1.00000     0.00000
 Structure written by MMmdl.
 52 53  0  0  0  0  0  0  0  0  1 V2000
  148.9710  137.2756  157.6428 C   0  0  0  0  0  0  0  0  0  0  0  0
  148.5209  138.5206  158.4274 C   0  0  1  0  0  0  0  0  0  0  0  0
  148.9418  139.8456  157.7617 C   0  0  0  0  0  0  0  0  0  0  0  0
  148.1505  140.1760  156.5629 N   0  0  0  0  0  0  0  0  0  0  0  0
  148.5551  141.4444  155.8937 C   0  0  1  0  0  0  0  0  0  0  0  0
  150.0744  141.7232  155.9850 C   0  0  0  0  0  0  0  0  0  0  0  0
  150.8834  140.9410  155.4842 O   0  0  0  0  0  0  0  0  0  0  0  0
  150.4436  142.8344  156.6418 N   0  0  0  0  0  0  0  0  0  0  0  0
  151.8196  143.2760  156.8326 C   0  0  0  0  0  0  0  0  0  0  0  0
  151.9098  144.4127  157.8646 C   0  0  0  0  0  0  0  0  0  0  0  0
  152.1711  143.8959  159.2666 C   0  0  0  0  0  0  0  0  0  0  0  0
  152.6829  142.5967  159.4714 C   0  0  0  0  0  0  0  0  0  0  0  0
  152.8998  142.1616  160.7930 C   0  0  0  0  0  0  0  0  0  0  0  0
  152.5971  143.0373  161.8535 C   0  0  0  0  0  0  0  0  0  0  0  0
  152.0885  144.3145  161.5439 C   0  0  0  0  0  0  0  0  0  0  0  0
  151.8761  144.7414  160.2801 N   0  0  0  0  0  0  0  0  0  0  0  0
  148.0561  141.6040  154.4176 C   0  0  0  0  0  0  0  0  0  0  0  0
  146.6392  142.1993  154.2998 C   0  0  0  0  0  0  0  0  0  0  0  0
  148.1633  140.3090  153.5866 C   0  0  0  0  0  0  0  0  0  0  0  0
  146.7291  140.1419  156.9240 C   0  0  0  0  0  0  0  0  0  0  0  0
  146.3062  138.7974  157.5441 C   0  0  2  0  0  0  0  0  0  0  0  0
  144.8431  138.8041  158.0008 C   0  0  0  0  0  0  0  0  0  0  0  0
  147.1178  138.5153  158.6790 O   0  0  0  0  0  0  0  0  0  0  0  0
  150.0582  137.2359  157.5712 H   0  0  0  0  0  0  0  0  0  0  0  0
  148.5802  137.2671  156.6254 H   0  0  0  0  0  0  0  0  0  0  0  0
  148.6396  136.3625  158.1374 H   0  0  0  0  0  0  0  0  0  0  0  0
  149.0035  138.4691  159.4037 H   0  0  0  0  0  0  0  0  0  0  0  0
  148.8440  140.6523  158.4904 H   0  0  0  0  0  0  0  0  0  0  0  0
  150.0049  139.7650  157.5383 H   0  0  0  0  0  0  0  0  0  0  0  0
  148.0775  142.2525  156.4520 H   0  0  0  0  0  0  0  0  0  0  0  0
  149.7176  143.4190  157.0299 H   0  0  0  0  0  0  0  0  0  0  0  0
  152.4040  142.4195  157.1689 H   0  0  0  0  0  0  0  0  0  0  0  0
  152.2481  143.5900  155.8793 H   0  0  0  0  0  0  0  0  0  0  0  0
  152.7028  145.1097  157.5903 H   0  0  0  0  0  0  0  0  0  0  0  0
  150.9839  144.9899  157.8663 H   0  0  0  0  0  0  0  0  0  0  0  0
  152.9026  141.9469  158.6369 H   0  0  0  0  0  0  0  0  0  0  0  0
  153.2906  141.1741  160.9893 H   0  0  0  0  0  0  0  0  0  0  0  0
  152.7509  142.7376  162.8795 H   0  0  0  0  0  0  0  0  0  0  0  0
  151.8457  145.0118  162.3320 H   0  0  0  0  0  0  0  0  0  0  0  0
  148.7318  142.2915  153.9118 H   0  0  0  0  0  0  0  0  0  0  0  0
  145.8803  141.5266  154.6984 H   0  0  0  0  0  0  0  0  0  0  0  0
  146.3860  142.3924  153.2571 H   0  0  0  0  0  0  0  0  0  0  0  0
  146.5565  143.1471  154.8317 H   0  0  0  0  0  0  0  0  0  0  0  0
  147.4467  139.5525  153.9077 H   0  0  0  0  0  0  0  0  0  0  0  0
  149.1620  139.8771  153.6572 H   0  0  0  0  0  0  0  0  0  0  0  0
  147.9689  140.5085  152.5325 H   0  0  0  0  0  0  0  0  0  0  0  0
  146.5015  140.9560  157.6144 H   0  0  0  0  0  0  0  0  0  0  0  0
  146.1024  140.2895  156.0473 H   0  0  0  0  0  0  0  0  0  0  0  0
  146.4272  138.0045  156.8054 H   0  0  0  0  0  0  0  0  0  0  0  0
  144.1715  139.0020  157.1650 H   0  0  0  0  0  0  0  0  0  0  0  0
  144.6693  139.5682  158.7590 H   0  0  0  0  0  0  0  0  0  0  0  0
  144.5656  137.8406  158.4290 H   0  0  0  0  0  0  0  0  0  0  0  0
  1  2  1  0  0  0  0
  1 24  1  0  0  0  0
  1 25  1  0  0  0  0
  1 26  1  0  0  0  0
  2 23  1  0  0  0  0
  2  3  1  0  0  0  0
  2 27  1  0  0  0  0
  3  4  1  0  0  0  0
  3 28  1  0  0  0  0
  3 29  1  0  0  0  0
  4  5  1  0  0  0  0
  4 20  1  0  0  0  0
  5  6  1  0  0  0  0
  5 17  1  0  0  0  0
  5 30  1  0  0  0  0
  6  7  2  0  0  0  0
  6  8  1  0  0  0  0
  8  9  1  0  0  0  0
  8 31  1  0  0  0  0
  9 10  1  0  0  0  0
  9 32  1  0  0  0  0
  9 33  1  0  0  0  0
 10 11  1  0  0  0  0
 10 34  1  0  0  0  0
 10 35  1  0  0  0  0
 11 16  1  0  0  0  0
 11 12  2  0  0  0  0
 12 13  1  0  0  0  0
 12 36  1  0  0  0  0
 13 14  2  0  0  0  0
 13 37  1  0  0  0  0
 14 15  1  0  0  0  0
 14 38  1  0  0  0  0
 15 16  2  0  0  0  0
 15 39  1  0  0  0  0
 17 18  1  0  0  0  0
 17 19  1  0  0  0  0
 17 40  1  0  0  0  0
 18 41  1  0  0  0  0
 18 42  1  0  0  0  0
 18 43  1  0  0  0  0
 19 44  1  0  0  0  0
 19 45  1  0  0  0  0
 19 46  1  0  0  0  0
 20 21  1  0  0  0  0
 20 47  1  0  0  0  0
 20 48  1  0  0  0  0
 21 22  1  0  0  0  0
 21 23  1  0  0  0  0
 21 49  1  0  0  0  0
 22 50  1  0  0  0  0
 22 51  1  0  0  0  0
 22 52  1  0  0  0  0
M  END
> <s_m_source_file>
AV-unprocessed.smi

> <i_m_source_file_index>
1762

> <i_lp_mmshare_version>
43012

> <i_f3d_flags>
0

> <s_epik_input>
W0NIM11bQ0BASF0xW0NIMl1OKFtDSDJdW0NASF0oTzEpW0NIM10pW0NAQEhdKFtDSF0oW0NIM10pW0NIM10pQyg9TylbTkhdW0NIMl1bQ0gyXWMyW2NIXVtjSF1bY0hdW2NIXW4y

> <s_epik_cmdline>
J2VwaWtfcHl0aG9uJywgJy1waCcsICc3LjAnLCAnLXRuJywgJzgnLCAnLW1hJywgJzIwMCcsICctbWV0YWxfYmluZGluZycsICctaW1hZScsICc8aW5maWxlLm1hZT4nLCAnLW9tYWUnLCAnPG91dGZpbGUubWFlPic=

> <r_epik_Ionization_Penalty>
0.0399736

> <r_epik_Ionization_Penalty_Charging>
0

> <r_epik_Ionization_Penalty_Neutral>
0.0399736

> <r_epik_State_Penalty>
0.0317634

> <r_epik_Charging_Adjusted_Penalty>
0.0317634

> <i_epik_Tot_Q>
0

> <i_epik_Tot_abs_Q>
0

> <r_epik_Metal_State_Penalty>
0.0307795

> <b_epik_Metal_Only>
0

> <s_lp_Force_Field>
OPLS_2005

> <r_lp_Energy>
30.2117

> <b_lp_Chiralities_Consistent>
1

> <s_lp_Variant>
AV-unprocessed.smi:1762-6

> <Gold.Version>
5.8.1

> <Gold.Id.Protein>
6NUR|6NUR_protein|mol2

> <Gold.PLP.Fitness>
42.9505

> <Gold.PLP.PLP>
-43.1613

> <Gold.PLP.part.hbond>
-3.0000

> <Gold.PLP.part.metal>
0.0000

> <Gold.PLP.part.buried>
-3.5342

> <Gold.PLP.part.nonpolar>
-36.5685

> <Gold.PLP.part.repulsive>
0.2188

> <Gold.PLP.ligand.clash>
0.0000

> <Gold.PLP.ligand.torsion>
1.6309

> <Gold.PLP.Chemscore.Hbond>
0.9001

> <Gold.PLP.Chemscore.CHOScore>
0.0000

> <Gold.PLP.Chemscore.Metal>
0.0000

> <Gold.Chemscore.Hbonds>
donor molecule, donor type, donor heavy atom, donor atom, acceptor molecule, acceptor atom, score
      L1  H     8    31       P1  8028  0.27
      P1  H  6934  6947       L1    23  0.09
      P1  H  7989  7998       L1     7  0.59

> <Gold.PLP.Chemscore.Internal.Correction>
0.3507

> <Gold.Rescore>
     Score         DG    S(hbond)    S(metal)    S(lipo)     H(rot)  DE(clash)    DE(int)     intcor
     14.84     -18.06       1.01        0.00     113.80       1.60       1.79       1.42       ----

> <Gold.Chemscore.Fitness>
14.8414

> <Gold.Chemscore.DG>
-18.0595

> <Gold.Chemscore.ZeroCoef>
-5.4800

> <Gold.Chemscore.Hbond>
1.0056

> <Gold.Chemscore.Metal>
0.0000

> <Gold.Chemscore.Lipo>
113.8027

> <Gold.Chemscore.Internal_Hbond>
0.0000

> <Gold.Chemscore.DEClash>
1.7937

> <Gold.Chemscore.DEInternal>
1.4244

> <Gold.Chemscore.Rot>
1.5993

> <Gold.Chemscore.Internal.Correction>
   9.000000E+99

> <Gold.Chemscore.Hbonds>
donor molecule, donor type, donor heavy atom, donor atom, acceptor molecule, acceptor atom, score
      L1  H     8    31       P1  8028  0.25
      P1  H  6934  6947       L1    23  0.02
      P1  H  7989  7998       L1     7  0.58

> <Gold.Chemscore.Hbond.Weighted>
-3.3586

> <Gold.Chemscore.Metal.Weighted>
-0.0000

> <Gold.Chemscore.Lipo.Weighted>
-13.3149

> <Gold.Chemscore.Internal_Hbond.Weighted>
0.0000

> <Gold.Chemscore.DEClash.Weighted>
1.7937

> <Gold.Chemscore.DEInternal.Weighted>
1.4244

> <Gold.Chemscore.Rot.Weighted>
4.0941

> <Gold.Chemscore.Internal.Correction.Weighted>
   9.000000E+99

> <Gold.Protein.RotatedTorsions>
[ 6907 6896 6895 6894 ] final   31.98 input  -60.11 | X-H torsion
[ 7974 7965 7964 7962 ] final  -13.28 input  175.53 | X-H torsion
[ 8008 7997 7996 7995 ] final  -98.53 input   59.86 | X-H torsion
[ 10167 10162 10161 10158 ] final -105.49 input  -65.29 | X-H torsion
[ 10718 10713 10712 10709 ] final   71.50 input   66.30 | X-H torsion
[ 10763 10752 10751 10750 ] final  -85.92 input  -60.55 | X-H torsion
[ 11005 11000 10999 10996 ] final  -57.51 input  -57.11 | X-H torsion

> <Gold.Protein.ActiveResidues>
 VAL166  LYS551  ARG553  GLY616  TRP617  ASP618  TYR619  PRO620  LYS621  CYS622 
 ASP623  PHE694  ASN695  SER759  ASP760  ASP761  ALA762  ILE779  LEU786  VAL792 
 PHE793  MET794  SER795  GLU796  ALA797  LYS798  CYS799  TRP800  GLU811  SER814 

> <Gold.Protein.RotatedAtoms>
  152.0679  134.9552  160.0574 H   0  0  0  0  0  0  0  0  0  0  0  0  # atno 6907 bound_to 6896
  152.0890  133.4186  159.4543 H   0  0  0  0  0  0  0  0  0  0  0  0  # atno 6908 bound_to 6896
  150.6836  134.2814  159.4672 H   0  0  0  0  0  0  0  0  0  0  0  0  # atno 6909 bound_to 6896
  146.2120  140.3180  142.8388 H   0  0  0  0  0  0  0  0  0  0  0  0  # atno 7974 bound_to 7965
  154.8025  140.0454  157.1283 H   0  0  0  0  0  0  0  0  0  0  0  0  # atno 8008 bound_to 7997
  154.9462  140.3059  155.5077 H   0  0  0  0  0  0  0  0  0  0  0  0  # atno 8009 bound_to 7997
  156.2963  140.2296  156.4536 H   0  0  0  0  0  0  0  0  0  0  0  0  # atno 8010 bound_to 7997
  140.1980  143.3841  152.1153 H   0  0  0  0  0  0  0  0  0  0  0  0  # atno 10167 bound_to 10162
  157.6455  130.9531  150.0798 H   0  0  0  0  0  0  0  0  0  0  0  0  # atno 10718 bound_to 10713
  154.6165  135.5468  153.7529 H   0  0  0  0  0  0  0  0  0  0  0  0  # atno 10763 bound_to 10752
  153.0219  135.6402  154.1502 H   0  0  0  0  0  0  0  0  0  0  0  0  # atno 10764 bound_to 10752
  154.1438  135.2907  155.3134 H   0  0  0  0  0  0  0  0  0  0  0  0  # atno 10765 bound_to 10752
  141.1167  133.6610  156.4780 H   0  0  0  0  0  0  0  0  0  0  0  0  # atno 11005 bound_to 11000
  144.8940  140.7560  143.5908 LP  0  0  0  0  0  0  0  0  0  0  0  0  # atno 17320 bound_to 7965
  145.3103  139.1821  143.4642 LP  0  0  0  0  0  0  0  0  0  0  0  0  # atno 17321 bound_to 7965
  139.5229  144.7064  151.5340 LP  0  0  0  0  0  0  0  0  0  0  0  0  # atno 17342 bound_to 10162
  140.6410  143.8889  150.6692 LP  0  0  0  0  0  0  0  0  0  0  0  0  # atno 17343 bound_to 10162
  156.1778  130.3649  149.9077 LP  0  0  0  0  0  0  0  0  0  0  0  0  # atno 17370 bound_to 10713
  156.7036  130.8943  151.3602 LP  0  0  0  0  0  0  0  0  0  0  0  0  # atno 17371 bound_to 10713
  140.4624  134.6829  157.5091 LP  0  0  0  0  0  0  0  0  0  0  0  0  # atno 17394 bound_to 11000
  140.0095  134.6712  155.9403 LP  0  0  0  0  0  0  0  0  0  0  0  0  # atno 17395 bound_to 11000

$$$$
