AV-unprocessed.smi:3139|AV-procd|sdf|11957|dock1
  -GOLD-   2272017353D 1   1.00000     0.00000
 Structure written by MMmdl.
 33 33  0  0  0  0  0  0  0  0  2 V2000
  153.5993  140.4314  160.2197 C   0  0  0  0  0  0  0  0  0  0  0  0
  152.9295  141.3712  159.1950 C   0  0  1  0  0  0  0  0  0  0  0  0
  151.7053  140.7371  158.5194 C   0  0  0  0  0  0  0  0  0  0  0  0
  150.6637  140.5467  159.1488 O   0  0  0  0  0  0  0  0  0  0  0  0
  151.8439  140.4528  157.2156 N   0  0  0  0  0  0  0  0  0  0  0  0
  150.7749  140.0424  156.3071 C   0  0  0  0  0  0  0  0  0  0  0  0
  151.0303  138.6550  155.6487 C   0  0  0  0  0  0  0  0  0  0  0  0
  151.2681  137.6051  156.7534 C   0  0  0  0  0  0  0  0  0  0  0  0
  149.7970  138.2299  154.8139 C   0  0  0  0  0  0  0  0  0  0  0  0
  152.2965  138.7100  154.7527 C   0  0  0  0  0  0  0  0  0  0  0  0
  152.9780  139.7598  154.7347 O   0  0  0  0  0  0  0  0  0  0  0  0
  152.5715  137.6812  154.0953 O   0  5  0  0  0  0  0  0  0  0  0  0
  152.5540  142.6626  159.7636 N   0  0  0  0  0  0  0  0  0  0  0  0
  152.0240  143.7535  159.1031 C   0  0  0  0  0  0  0  0  0  0  0  0
  151.7617  144.7143  160.0365 C   0  0  0  0  0  0  0  0  0  0  0  0
  152.1525  144.1085  161.2621 C   0  0  0  0  0  0  0  0  0  0  0  0
  152.6167  142.8807  161.0983 N   0  0  0  0  0  0  0  0  0  0  0  0
  153.9251  139.5049  159.7459 H   0  0  0  0  0  0  0  0  0  0  0  0
  152.9266  140.1640  161.0358 H   0  0  0  0  0  0  0  0  0  0  0  0
  154.4806  140.9009  160.6579 H   0  0  0  0  0  0  0  0  0  0  0  0
  153.6668  141.5711  158.4156 H   0  0  0  0  0  0  0  0  0  0  0  0
  152.7401  140.6390  156.7889 H   0  0  0  0  0  0  0  0  0  0  0  0
  149.8547  140.0130  156.8924 H   0  0  0  0  0  0  0  0  0  0  0  0
  150.6047  140.7986  155.5390 H   0  0  0  0  0  0  0  0  0  0  0  0
  150.3926  137.5067  157.3960 H   0  0  0  0  0  0  0  0  0  0  0  0
  152.1103  137.8724  157.3933 H   0  0  0  0  0  0  0  0  0  0  0  0
  151.4753  136.6206  156.3316 H   0  0  0  0  0  0  0  0  0  0  0  0
  148.8932  138.2273  155.4238 H   0  0  0  0  0  0  0  0  0  0  0  0
  149.9134  137.2244  154.4073 H   0  0  0  0  0  0  0  0  0  0  0  0
  149.6167  138.9035  153.9748 H   0  0  0  0  0  0  0  0  0  0  0  0
  151.8694  143.7518  158.0340 H   0  0  0  0  0  0  0  0  0  0  0  0
  151.3416  145.6948  159.8691 H   0  0  0  0  0  0  0  0  0  0  0  0
  152.1064  144.5187  162.2600 H   0  0  0  0  0  0  0  0  0  0  0  0
  1  2  1  0  0  0  0
  1 18  1  0  0  0  0
  1 19  1  0  0  0  0
  1 20  1  0  0  0  0
  2  3  1  0  0  0  0
  2 13  1  0  0  0  0
  2 21  1  0  0  0  0
  3  4  2  0  0  0  0
  3  5  1  0  0  0  0
  5  6  1  0  0  0  0
  5 22  1  0  0  0  0
  6  7  1  0  0  0  0
  6 23  1  0  0  0  0
  6 24  1  0  0  0  0
  7  8  1  0  0  0  0
  7  9  1  0  0  0  0
  7 10  1  0  0  0  0
  8 25  1  0  0  0  0
  8 26  1  0  0  0  0
  8 27  1  0  0  0  0
  9 28  1  0  0  0  0
  9 29  1  0  0  0  0
  9 30  1  0  0  0  0
 10 11  2  0  0  0  0
 10 12  1  0  0  0  0
 13 17  1  0  0  0  0
 13 14  1  0  0  0  0
 14 15  2  0  0  0  0
 14 31  1  0  0  0  0
 15 16  1  0  0  0  0
 15 32  1  0  0  0  0
 16 17  2  0  0  0  0
 16 33  1  0  0  0  0
M  CHG  1  12  -1
M  END
> <s_m_source_file>
AV-unprocessed.smi

> <i_m_source_file_index>
3139

> <i_lp_mmshare_version>
43012

> <i_f3d_flags>
0

> <s_epik_input>
bjFbY0hdW2NIXVtjSF1uMVtDQEhdKFtDSDNdKUMoPU8pW05IXVtDSDJdQyhbQ0gzXSkoW0NIM10pQyg9TylbT0hd

> <s_epik_cmdline>
J2VwaWtfcHl0aG9uJywgJy1waCcsICc3LjAnLCAnLXRuJywgJzgnLCAnLW1hJywgJzIwMCcsICctbWV0YWxfYmluZGluZycsICctaW1hZScsICc8aW5maWxlLm1hZT4nLCAnLW9tYWUnLCAnPG91dGZpbGUubWFlPic=

> <r_lp_tautomer_probability>
1

> <r_epik_Ionization_Penalty>
0.00184643

> <r_epik_Ionization_Penalty_Charging>
0.00181045

> <r_epik_Ionization_Penalty_Neutral>
3.59763e-05

> <r_epik_State_Penalty>
0.00122842

> <r_epik_Charging_Adjusted_Penalty>
0.00303887

> <i_epik_Tot_Q>
-1

> <i_epik_Tot_abs_Q>
1

> <r_epik_Metal_State_Penalty>
-0

> <b_epik_Metal_Only>
0

> <s_lp_Force_Field>
OPLS_2005

> <r_lp_Energy>
4.69511

> <b_lp_Chiralities_Consistent>
1

> <s_lp_Variant>
AV-unprocessed.smi:3139-2

> <Gold.Version>
5.8.1

> <Gold.Id.Protein>
6NUR|6NUR_protein|mol2

> <Gold.PLP.Fitness>
46.9557

> <Gold.PLP.PLP>
-38.1909

> <Gold.PLP.part.hbond>
-3.0000

> <Gold.PLP.part.metal>
0.0000

> <Gold.PLP.part.buried>
-5.5204

> <Gold.PLP.part.nonpolar>
-30.2196

> <Gold.PLP.part.repulsive>
0.3083

> <Gold.PLP.ligand.clash>
0.0000

> <Gold.PLP.ligand.torsion>
0.2603

> <Gold.PLP.Chemscore.Hbond>
3.0185

> <Gold.PLP.Chemscore.CHOScore>
0.0000

> <Gold.PLP.Chemscore.Metal>
0.0000

> <Gold.Chemscore.Hbonds>
donor molecule, donor type, donor heavy atom, donor atom, acceptor molecule, acceptor atom, score
      P1  H  7989  7998       L1    11  0.26
      P1  H  7997  8008       L1    11  2.00
      P1  H 10752 10764       L1    12  1.03

> <Gold.PLP.Chemscore.Internal.Correction>
0.2298

> <Gold.Rescore>
     Score         DG    S(hbond)    S(metal)    S(lipo)     H(rot)  DE(clash)    DE(int)     intcor
     12.87     -14.44       1.67        0.00      79.69       2.32       0.03       1.54       ----

> <Gold.Chemscore.Fitness>
12.8690

> <Gold.Chemscore.DG>
-14.4356

> <Gold.Chemscore.ZeroCoef>
-5.4800

> <Gold.Chemscore.Hbond>
1.6712

> <Gold.Chemscore.Metal>
0.0000

> <Gold.Chemscore.Lipo>
79.6902

> <Gold.Chemscore.Internal_Hbond>
0.0000

> <Gold.Chemscore.DEClash>
0.0313

> <Gold.Chemscore.DEInternal>
1.5353

> <Gold.Chemscore.Rot>
2.3241

> <Gold.Chemscore.Internal.Correction>
   9.000000E+99

> <Gold.Chemscore.Hbonds>
donor molecule, donor type, donor heavy atom, donor atom, acceptor molecule, acceptor atom, score
      P1  H  7989  7998       L1    11  0.04
      P1  H  7997  8008       L1    11  0.97
      P1  H 10752 10764       L1    12  0.49

> <Gold.Chemscore.Hbond.Weighted>
-5.5816

> <Gold.Chemscore.Metal.Weighted>
-0.0000

> <Gold.Chemscore.Lipo.Weighted>
-9.3238

> <Gold.Chemscore.Internal_Hbond.Weighted>
0.0000

> <Gold.Chemscore.DEClash.Weighted>
0.0313

> <Gold.Chemscore.DEInternal.Weighted>
1.5353

> <Gold.Chemscore.Rot.Weighted>
5.9498

> <Gold.Chemscore.Internal.Correction.Weighted>
   9.000000E+99

> <Gold.Protein.RotatedTorsions>
[ 6907 6896 6895 6894 ] final  158.59 input  -60.11 | X-H torsion
[ 7974 7965 7964 7962 ] final   -2.29 input  175.53 | X-H torsion
[ 8008 7997 7996 7995 ] final  -26.59 input   59.86 | X-H torsion
[ 10167 10162 10161 10158 ] final  108.34 input  -65.29 | X-H torsion
[ 10718 10713 10712 10709 ] final    2.08 input   66.30 | X-H torsion
[ 10763 10752 10751 10750 ] final -112.55 input  -60.55 | X-H torsion
[ 11005 11000 10999 10996 ] final  159.27 input  -57.11 | X-H torsion

> <Gold.Protein.ActiveResidues>
 VAL166  LYS551  ARG553  GLY616  TRP617  ASP618  TYR619  PRO620  LYS621  CYS622 
 ASP623  PHE694  ASN695  SER759  ASP760  ASP761  ALA762  ILE779  LEU786  VAL792 
 PHE793  MET794  SER795  GLU796  ALA797  LYS798  CYS799  TRP800  GLU811  SER814 

> <Gold.Protein.RotatedAtoms>
  151.9982  133.3815  159.4170 H   0  0  0  0  0  0  0  0  0  0  0  0  # atno 6907 bound_to 6896
  150.6913  134.3863  159.5065 H   0  0  0  0  0  0  0  0  0  0  0  0  # atno 6908 bound_to 6896
  152.1606  134.8915  160.0592 H   0  0  0  0  0  0  0  0  0  0  0  0  # atno 6909 bound_to 6896
  146.2406  140.1548  142.8333 H   0  0  0  0  0  0  0  0  0  0  0  0  # atno 7974 bound_to 7965
  154.4418  140.1895  156.0799 H   0  0  0  0  0  0  0  0  0  0  0  0  # atno 8008 bound_to 7997
  156.0446  140.3315  155.7256 H   0  0  0  0  0  0  0  0  0  0  0  0  # atno 8009 bound_to 7997
  155.5648  140.0607  157.2811 H   0  0  0  0  0  0  0  0  0  0  0  0  # atno 8010 bound_to 7997
  139.6854  144.7114  151.1442 H   0  0  0  0  0  0  0  0  0  0  0  0  # atno 10167 bound_to 10162
  156.8577  130.5576  149.5665 H   0  0  0  0  0  0  0  0  0  0  0  0  # atno 10718 bound_to 10713
  154.8355  135.4486  154.1211 H   0  0  0  0  0  0  0  0  0  0  0  0  # atno 10763 bound_to 10752
  153.2447  135.6920  153.7750 H   0  0  0  0  0  0  0  0  0  0  0  0  # atno 10764 bound_to 10752
  153.7085  135.3360  155.3217 H   0  0  0  0  0  0  0  0  0  0  0  0  # atno 10765 bound_to 10752
  140.1946  134.8383  157.2950 H   0  0  0  0  0  0  0  0  0  0  0  0  # atno 11005 bound_to 11000
  145.0137  140.8736  143.5208 LP  0  0  0  0  0  0  0  0  0  0  0  0  # atno 17320 bound_to 7965
  145.1586  139.2472  143.5403 LP  0  0  0  0  0  0  0  0  0  0  0  0  # atno 17321 bound_to 7965
  140.7666  143.5637  150.9070 LP  0  0  0  0  0  0  0  0  0  0  0  0  # atno 17342 bound_to 10162
  139.9312  143.6491  152.3076 LP  0  0  0  0  0  0  0  0  0  0  0  0  # atno 17343 bound_to 10162
  156.0793  130.5808  150.9534 LP  0  0  0  0  0  0  0  0  0  0  0  0  # atno 17370 bound_to 10713
  157.6268  131.0925  150.8519 LP  0  0  0  0  0  0  0  0  0  0  0  0  # atno 17371 bound_to 10713
  140.2122  134.4125  155.7607 LP  0  0  0  0  0  0  0  0  0  0  0  0  # atno 17394 bound_to 11000
  141.2227  133.7124  156.8356 LP  0  0  0  0  0  0  0  0  0  0  0  0  # atno 17395 bound_to 11000

$$$$
