AV-unprocessed.smi:2884|AV-procd|sdf|11083|dock7
  -GOLD-   2272015553D 1   1.00000     0.00000
 Structure written by MMmdl.
 42 43  0  0  0  0  0  0  0  0  1 V2000
  152.5427  143.0648  158.7845 C   0  0  0  0  0  0  0  0  0  0  0  0
  152.1092  141.7212  158.1837 C   0  0  0  0  0  0  0  0  0  0  0  0
  150.8244  141.8291  157.3538 C   0  0  0  0  0  0  0  0  0  0  0  0
  150.6495  140.6106  156.6401 O   0  0  0  0  0  0  0  0  0  0  0  0
  149.4790  140.4263  155.8345 C   0  0  0  0  0  0  0  0  0  0  0  0
  149.6949  139.0084  155.2493 C   0  0  0  0  0  0  0  0  0  0  0  0
  149.5978  137.9717  156.2698 N   0  0  0  0  0  0  0  0  0  0  0  0
  149.5927  136.5882  156.1415 C   0  0  0  0  0  0  0  0  0  0  0  0
  149.6944  135.9023  154.8575 C   0  0  0  0  0  0  0  0  0  0  0  0
  149.6819  134.6178  154.7482 N   0  0  0  0  0  0  0  0  0  0  0  0
  149.5724  133.8648  155.8913 N   0  0  0  0  0  0  0  0  0  0  0  0
  149.4778  134.3317  157.1584 C   0  0  0  0  0  0  0  0  0  0  0  0
  149.3887  133.5689  158.1185 O   0  0  0  0  0  0  0  0  0  0  0  0
  149.4913  135.7983  157.2467 C   0  0  0  0  0  0  0  0  0  0  0  0
  149.3598  136.5057  158.8228 Cl  0  0  0  0  0  0  0  0  0  0  0  0
  148.1504  140.5291  156.6381 C   0  0  0  0  0  0  0  0  0  0  0  0
  146.9072  140.4215  155.7372 C   0  0  0  0  0  0  0  0  0  0  0  0
  146.9381  141.4788  154.6228 C   0  0  0  0  0  0  0  0  0  0  0  0
  148.2324  141.3895  153.7995 C   0  0  0  0  0  0  0  0  0  0  0  0
  149.4794  141.4819  154.6990 C   0  0  0  0  0  0  0  0  0  0  0  0
  149.5680  132.8677  155.7317 H   0  0  0  0  0  0  0  0  0  0  0  0
  153.4660  142.9557  159.3536 H   0  0  0  0  0  0  0  0  0  0  0  0
  151.7829  143.4616  159.4589 H   0  0  0  0  0  0  0  0  0  0  0  0
  152.7181  143.8068  158.0048 H   0  0  0  0  0  0  0  0  0  0  0  0
  152.9120  141.3403  157.5518 H   0  0  0  0  0  0  0  0  0  0  0  0
  151.9715  140.9887  158.9800 H   0  0  0  0  0  0  0  0  0  0  0  0
  149.9837  142.0162  158.0222 H   0  0  0  0  0  0  0  0  0  0  0  0
  150.9034  142.6753  156.6725 H   0  0  0  0  0  0  0  0  0  0  0  0
  149.0113  138.8139  154.4271 H   0  0  0  0  0  0  0  0  0  0  0  0
  150.6952  138.9433  154.8202 H   0  0  0  0  0  0  0  0  0  0  0  0
  149.3442  138.3271  157.1812 H   0  0  0  0  0  0  0  0  0  0  0  0
  149.7854  136.5338  153.9759 H   0  0  0  0  0  0  0  0  0  0  0  0
  148.1109  139.7745  157.4238 H   0  0  0  0  0  0  0  0  0  0  0  0
  148.0881  141.4927  157.1432 H   0  0  0  0  0  0  0  0  0  0  0  0
  146.8397  139.4264  155.2998 H   0  0  0  0  0  0  0  0  0  0  0  0
  146.0065  140.5484  156.3383 H   0  0  0  0  0  0  0  0  0  0  0  0
  146.0727  141.3580  153.9707 H   0  0  0  0  0  0  0  0  0  0  0  0
  146.8557  142.4733  155.0630 H   0  0  0  0  0  0  0  0  0  0  0  0
  148.2445  140.4585  153.2328 H   0  0  0  0  0  0  0  0  0  0  0  0
  148.2530  142.1914  153.0608 H   0  0  0  0  0  0  0  0  0  0  0  0
  149.5113  142.4864  155.1191 H   0  0  0  0  0  0  0  0  0  0  0  0
  150.3803  141.3821  154.0929 H   0  0  0  0  0  0  0  0  0  0  0  0
  1  2  1  0  0  0  0
  1 22  1  0  0  0  0
  1 23  1  0  0  0  0
  1 24  1  0  0  0  0
  2  3  1  0  0  0  0
  2 25  1  0  0  0  0
  2 26  1  0  0  0  0
  3  4  1  0  0  0  0
  3 27  1  0  0  0  0
  3 28  1  0  0  0  0
  4  5  1  0  0  0  0
  5 20  1  0  0  0  0
  5  6  1  0  0  0  0
  5 16  1  0  0  0  0
  6  7  1  0  0  0  0
  6 29  1  0  0  0  0
  6 30  1  0  0  0  0
  7  8  1  0  0  0  0
  7 31  1  0  0  0  0
  8 14  2  0  0  0  0
  8  9  1  0  0  0  0
  9 10  2  0  0  0  0
  9 32  1  0  0  0  0
 10 11  1  0  0  0  0
 11 21  1  0  0  0  0
 11 12  1  0  0  0  0
 12 13  2  0  0  0  0
 12 14  1  0  0  0  0
 14 15  1  0  0  0  0
 16 17  1  0  0  0  0
 16 33  1  0  0  0  0
 16 34  1  0  0  0  0
 17 18  1  0  0  0  0
 17 35  1  0  0  0  0
 17 36  1  0  0  0  0
 18 19  1  0  0  0  0
 18 37  1  0  0  0  0
 18 38  1  0  0  0  0
 19 20  1  0  0  0  0
 19 39  1  0  0  0  0
 19 40  1  0  0  0  0
 20 41  1  0  0  0  0
 20 42  1  0  0  0  0
M  END
> <s_m_source_file>
AV-unprocessed.smi

> <i_m_source_file_index>
2884

> <i_lp_mmshare_version>
43012

> <i_f3d_flags>
0

> <s_epik_input>
W0NIMl0xW0NIMl1bQ0gyXVtDSDJdW0NIMl1DMShPW0NIMl1bQ0gyXVtDSDNdKVtDSDJdW05IXWMyW2NIXW5bbkhdYyg9TyljMkNs

> <s_epik_cmdline>
J2VwaWtfcHl0aG9uJywgJy1waCcsICc3LjAnLCAnLXRuJywgJzgnLCAnLW1hJywgJzIwMCcsICctbWV0YWxfYmluZGluZycsICctaW1hZScsICc8aW5maWxlLm1hZT4nLCAnLW9tYWUnLCAnPG91dGZpbGUubWFlPic=

> <r_lp_tautomer_probability>
0.986175

> <r_epik_Ionization_Penalty>
0.00111508

> <r_epik_Ionization_Penalty_Charging>
0.00108742

> <r_epik_Ionization_Penalty_Neutral>
2.7657e-05

> <r_epik_State_Penalty>
0.00620319

> <r_epik_Charging_Adjusted_Penalty>
0.00729061

> <i_epik_Tot_Q>
0

> <i_epik_Tot_abs_Q>
0

> <r_epik_Metal_State_Penalty>
0.300009

> <b_epik_Metal_Only>
0

> <s_lp_Force_Field>
OPLS_2005

> <r_lp_Energy>
35.8934

> <b_lp_Chiralities_Consistent>
1

> <s_lp_Variant>
AV-unprocessed.smi:2884-1

> <Gold.Version>
5.8.1

> <Gold.Id.Protein>
6NUR|6NUR_protein|mol2

> <Gold.PLP.Fitness>
30.0946

> <Gold.PLP.PLP>
-24.2593

> <Gold.PLP.part.hbond>
-1.0000

> <Gold.PLP.part.metal>
0.0000

> <Gold.PLP.part.buried>
-1.5100

> <Gold.PLP.part.nonpolar>
-20.7705

> <Gold.PLP.part.repulsive>
0.1924

> <Gold.PLP.ligand.clash>
0.0000

> <Gold.PLP.ligand.torsion>
0.0953

> <Gold.PLP.Chemscore.Hbond>
1.0000

> <Gold.PLP.Chemscore.CHOScore>
1.0000

> <Gold.PLP.Chemscore.Metal>
0.0000

> <Gold.Chemscore.Hbonds>
donor molecule, donor type, donor heavy atom, donor atom, acceptor molecule, acceptor atom, score
      P1  H  6896  6909       L1    13  1.00
      L1  C     9    32       P1  7948  1.00

> <Gold.PLP.Chemscore.Internal.Correction>
0.0259

> <Gold.Rescore>
     Score         DG    S(hbond)    S(metal)    S(lipo)     H(rot)  DE(clash)    DE(int)     intcor
     13.38     -13.60       0.99        0.00      79.81       1.77       0.11       0.10       ----

> <Gold.Chemscore.Fitness>
13.3813

> <Gold.Chemscore.DG>
-13.5958

> <Gold.Chemscore.ZeroCoef>
-5.4800

> <Gold.Chemscore.Hbond>
0.9881

> <Gold.Chemscore.Metal>
0.0000

> <Gold.Chemscore.Lipo>
79.8052

> <Gold.Chemscore.Internal_Hbond>
0.0000

> <Gold.Chemscore.DEClash>
0.1149

> <Gold.Chemscore.DEInternal>
0.0996

> <Gold.Chemscore.Rot>
1.7663

> <Gold.Chemscore.Internal.Correction>
   9.000000E+99

> <Gold.Chemscore.Hbonds>
donor molecule, donor type, donor heavy atom, donor atom, acceptor molecule, acceptor atom, score
      P1  H  6896  6909       L1    13  0.82

> <Gold.Chemscore.Hbond.Weighted>
-3.3002

> <Gold.Chemscore.Metal.Weighted>
-0.0000

> <Gold.Chemscore.Lipo.Weighted>
-9.3372

> <Gold.Chemscore.Internal_Hbond.Weighted>
0.0000

> <Gold.Chemscore.DEClash.Weighted>
0.1149

> <Gold.Chemscore.DEInternal.Weighted>
0.0996

> <Gold.Chemscore.Rot.Weighted>
4.5216

> <Gold.Chemscore.Internal.Correction.Weighted>
   9.000000E+99

> <Gold.Protein.RotatedTorsions>
[ 6907 6896 6895 6894 ] final   -4.65 input  -60.11 | X-H torsion
[ 7974 7965 7964 7962 ] final  128.48 input  175.53 | X-H torsion
[ 8008 7997 7996 7995 ] final  144.53 input   59.86 | X-H torsion
[ 10167 10162 10161 10158 ] final   38.90 input  -65.29 | X-H torsion
[ 10718 10713 10712 10709 ] final  -18.09 input   66.30 | X-H torsion
[ 10763 10752 10751 10750 ] final  -95.86 input  -60.55 | X-H torsion
[ 11005 11000 10999 10996 ] final  145.70 input  -57.11 | X-H torsion

> <Gold.Protein.ActiveResidues>
 VAL166  LYS551  ARG553  GLY616  TRP617  ASP618  TYR619  PRO620  LYS621  CYS622 
 ASP623  PHE694  ASN695  SER759  ASP760  ASP761  ALA762  ILE779  LEU786  VAL792 
 PHE793  MET794  SER795  GLU796  ALA797  LYS798  CYS799  TRP800  GLU811  SER814 

> <Gold.Protein.RotatedAtoms>
  151.4943  135.1059  159.9811 H   0  0  0  0  0  0  0  0  0  0  0  0  # atno 6907 bound_to 6896
  152.4728  133.8065  159.6991 H   0  0  0  0  0  0  0  0  0  0  0  0  # atno 6908 bound_to 6896
  150.8747  133.7393  159.2976 H   0  0  0  0  0  0  0  0  0  0  0  0  # atno 6909 bound_to 6896
  145.0391  139.3979  143.5111 H   0  0  0  0  0  0  0  0  0  0  0  0  # atno 7974 bound_to 7965
  156.2906  140.2233  156.5067 H   0  0  0  0  0  0  0  0  0  0  0  0  # atno 8008 bound_to 7997
  154.7643  140.0471  157.1021 H   0  0  0  0  0  0  0  0  0  0  0  0  # atno 8009 bound_to 7997
  154.9952  140.3095  155.4893 H   0  0  0  0  0  0  0  0  0  0  0  0  # atno 8010 bound_to 7997
  140.3892  144.1876  150.6130 H   0  0  0  0  0  0  0  0  0  0  0  0  # atno 10167 bound_to 10162
  156.5644  130.4734  149.6391 H   0  0  0  0  0  0  0  0  0  0  0  0  # atno 10718 bound_to 10713
  154.7187  135.5105  153.8778 H   0  0  0  0  0  0  0  0  0  0  0  0  # atno 10763 bound_to 10752
  153.0843  135.6640  153.9990 H   0  0  0  0  0  0  0  0  0  0  0  0  # atno 10764 bound_to 10752
  153.9817  135.3028  155.3399 H   0  0  0  0  0  0  0  0  0  0  0  0  # atno 10765 bound_to 10752
  140.0733  134.9139  157.1382 H   0  0  0  0  0  0  0  0  0  0  0  0  # atno 11005 bound_to 11000
  146.3507  139.9982  142.8679 LP  0  0  0  0  0  0  0  0  0  0  0  0  # atno 17320 bound_to 7965
  145.1671  140.9702  143.4343 LP  0  0  0  0  0  0  0  0  0  0  0  0  # atno 17321 bound_to 7965
  140.4858  143.2364  151.8890 LP  0  0  0  0  0  0  0  0  0  0  0  0  # atno 17342 bound_to 10162
  139.4790  144.5220  151.8787 LP  0  0  0  0  0  0  0  0  0  0  0  0  # atno 17343 bound_to 10162
  156.2770  130.7049  151.1863 LP  0  0  0  0  0  0  0  0  0  0  0  0  # atno 17370 bound_to 10713
  157.7361  131.0565  150.5430 LP  0  0  0  0  0  0  0  0  0  0  0  0  # atno 17371 bound_to 10713
  140.3594  134.2511  155.7189 LP  0  0  0  0  0  0  0  0  0  0  0  0  # atno 17394 bound_to 11000
  141.2020  133.7948  157.0412 LP  0  0  0  0  0  0  0  0  0  0  0  0  # atno 17395 bound_to 11000

$$$$
