AV-unprocessed.smi:151|AV-procd|sdf|1244|dock5
  -GOLD-   2262018463D 1   1.00000     0.00000
 Structure written by MMmdl.
 56 59  0  0  0  0  0  0  0  0  1 V2000
  152.2918  144.3114  161.4448 C   0  0  0  0  0  0  0  0  0  0  0  0
  152.6910  143.4317  160.2480 C   0  0  0  0  0  0  0  0  0  0  0  0
  152.8205  141.9167  160.5557 C   0  0  2  0  0  0  0  0  0  0  0  0
  154.1426  141.6094  161.2924 C   0  0  0  0  0  0  0  0  0  0  0  0
  154.2775  140.2129  161.5415 O   0  0  0  0  0  0  0  0  0  0  0  0
  154.2258  139.3826  160.3790 C   0  0  0  0  0  0  0  0  0  0  0  0
  155.4408  139.6169  159.4554 C   0  0  0  0  0  0  0  0  0  0  0  0
  154.2592  137.9387  160.9036 C   0  0  0  0  0  0  0  0  0  0  0  0
  152.8920  139.6428  159.6513 C   0  0  0  0  0  0  0  0  0  0  0  0
  152.7010  141.0617  159.3684 N   0  0  0  0  0  0  0  0  0  0  0  0
  151.6236  141.2310  158.5660 C   0  0  0  0  0  0  0  0  0  0  0  0
  150.5492  141.9451  158.9947 N   0  0  0  0  0  0  0  0  0  0  0  0
  149.4830  142.0860  158.2016 C   0  0  0  0  0  0  0  0  0  0  0  0
  149.2844  141.5977  156.9755 N   0  0  0  0  0  0  0  0  0  0  0  0
  150.3549  140.8670  156.5488 C   0  0  0  0  0  0  0  0  0  0  0  0
  151.5537  140.6354  157.2791 C   0  0  0  0  0  0  0  0  0  0  0  0
  152.4230  139.8476  156.5363 N   0  0  0  0  0  0  0  0  0  0  0  0
  151.7750  139.6264  155.4254 C   0  0  0  0  0  0  0  0  0  0  0  0
  150.5245  140.1994  155.3458 N   0  0  0  0  0  0  0  0  0  0  0  0
  149.6179  140.1125  154.2347 C   0  0  0  0  0  0  0  0  0  0  0  0
  148.2634  140.8275  154.2602 C   0  0  0  0  0  0  0  0  0  0  0  0
  147.6163  139.6394  153.5096 C   0  0  0  0  0  0  0  0  0  0  0  0
  146.2632  139.1439  154.0542 C   0  0  0  0  0  0  0  0  0  0  0  0
  145.3549  140.1964  154.3108 O   0  0  0  0  0  0  0  0  0  0  0  0
  147.3916  139.8325  151.9952 C   0  0  0  0  0  0  0  0  0  0  0  0
  147.1367  138.6252  151.3058 O   0  0  0  0  0  0  0  0  0  0  0  0
  148.8633  138.8175  153.9143 C   0  0  0  0  0  0  0  0  0  0  0  0
  152.2544  145.3604  161.1506 H   0  0  0  0  0  0  0  0  0  0  0  0
  153.0085  144.2272  162.2619 H   0  0  0  0  0  0  0  0  0  0  0  0
  151.3078  144.0500  161.8322 H   0  0  0  0  0  0  0  0  0  0  0  0
  151.9573  143.5679  159.4530 H   0  0  0  0  0  0  0  0  0  0  0  0
  153.6254  143.8114  159.8359 H   0  0  0  0  0  0  0  0  0  0  0  0
  152.0089  141.6452  161.2326 H   0  0  0  0  0  0  0  0  0  0  0  0
  155.0086  141.9686  160.7389 H   0  0  0  0  0  0  0  0  0  0  0  0
  154.1614  142.1279  162.2511 H   0  0  0  0  0  0  0  0  0  0  0  0
  155.4487  138.8991  158.6347 H   0  0  0  0  0  0  0  0  0  0  0  0
  156.3777  139.5045  160.0015 H   0  0  0  0  0  0  0  0  0  0  0  0
  155.4373  140.6087  159.0037 H   0  0  0  0  0  0  0  0  0  0  0  0
  154.1925  137.2181  160.0879 H   0  0  0  0  0  0  0  0  0  0  0  0
  153.4289  137.7455  161.5836 H   0  0  0  0  0  0  0  0  0  0  0  0
  155.1824  137.7384  161.4485 H   0  0  0  0  0  0  0  0  0  0  0  0
  152.8579  139.0627  158.7274 H   0  0  0  0  0  0  0  0  0  0  0  0
  152.0606  139.2988  160.2691 H   0  0  0  0  0  0  0  0  0  0  0  0
  148.6726  142.6729  158.6077 H   0  0  0  0  0  0  0  0  0  0  0  0
  152.1979  139.0342  154.6268 H   0  0  0  0  0  0  0  0  0  0  0  0
  150.1832  140.4309  153.3577 H   0  0  0  0  0  0  0  0  0  0  0  0
  147.8821  140.9659  155.2723 H   0  0  0  0  0  0  0  0  0  0  0  0
  148.2502  141.7721  153.7157 H   0  0  0  0  0  0  0  0  0  0  0  0
  145.7885  138.4613  153.3483 H   0  0  0  0  0  0  0  0  0  0  0  0
  146.3988  138.5896  154.9837 H   0  0  0  0  0  0  0  0  0  0  0  0
  144.9865  140.4836  153.4893 H   0  0  0  0  0  0  0  0  0  0  0  0
  146.5481  140.4993  151.8125 H   0  0  0  0  0  0  0  0  0  0  0  0
  148.2625  140.2981  151.5324 H   0  0  0  0  0  0  0  0  0  0  0  0
  147.9343  138.1188  151.2812 H   0  0  0  0  0  0  0  0  0  0  0  0
  149.3062  138.2358  153.1054 H   0  0  0  0  0  0  0  0  0  0  0  0
  148.7078  138.1898  154.7918 H   0  0  0  0  0  0  0  0  0  0  0  0
  1  2  1  0  0  0  0
  1 28  1  0  0  0  0
  1 29  1  0  0  0  0
  1 30  1  0  0  0  0
  2  3  1  0  0  0  0
  2 31  1  0  0  0  0
  2 32  1  0  0  0  0
  3 10  1  0  0  0  0
  3  4  1  0  0  0  0
  3 33  1  0  0  0  0
  4  5  1  0  0  0  0
  4 34  1  0  0  0  0
  4 35  1  0  0  0  0
  5  6  1  0  0  0  0
  6  7  1  0  0  0  0
  6  8  1  0  0  0  0
  6  9  1  0  0  0  0
  7 36  1  0  0  0  0
  7 37  1  0  0  0  0
  7 38  1  0  0  0  0
  8 39  1  0  0  0  0
  8 40  1  0  0  0  0
  8 41  1  0  0  0  0
  9 10  1  0  0  0  0
  9 42  1  0  0  0  0
  9 43  1  0  0  0  0
 10 11  1  0  0  0  0
 11 16  1  0  0  0  0
 11 12  2  0  0  0  0
 12 13  1  0  0  0  0
 13 14  2  0  0  0  0
 13 44  1  0  0  0  0
 14 15  1  0  0  0  0
 15 19  1  0  0  0  0
 15 16  2  0  0  0  0
 16 17  1  0  0  0  0
 17 18  2  0  0  0  0
 18 19  1  0  0  0  0
 18 45  1  0  0  0  0
 19 20  1  0  0  0  0
 20 27  1  0  0  0  0
 20 21  1  0  0  0  0
 20 46  1  0  0  0  0
 21 22  1  0  0  0  0
 21 47  1  0  0  0  0
 21 48  1  0  0  0  0
 22 23  1  0  0  0  0
 22 25  1  0  0  0  0
 22 27  1  0  0  0  0
 23 24  1  0  0  0  0
 23 49  1  0  0  0  0
 23 50  1  0  0  0  0
 24 51  1  0  0  0  0
 25 26  1  0  0  0  0
 25 52  1  0  0  0  0
 25 53  1  0  0  0  0
 26 54  1  0  0  0  0
 27 55  1  0  0  0  0
 27 56  1  0  0  0  0
M  END
> <s_m_source_file>
AV-unprocessed.smi

> <i_m_source_file_index>
151

> <i_lp_mmshare_version>
43012

> <i_f3d_flags>
0

> <s_epik_input>
W0NIM11DMShbQ0gzXSlPW0NIMl1bQ0BASF0oW0NIMl1bQ0gzXSlOKFtDSDJdMSljKG5bY0hdbjIpYyhjMjMpbltjSF1uM1tDSF0oW0NIMl00KVtDSDJdQzQoW0NIMl1bT0hdKVtDSDJdW09IXQ==

> <s_epik_cmdline>
J2VwaWtfcHl0aG9uJywgJy1waCcsICc3LjAnLCAnLXRuJywgJzgnLCAnLW1hJywgJzIwMCcsICctbWV0YWxfYmluZGluZycsICctaW1hZScsICc8aW5maWxlLm1hZT4nLCAnLW9tYWUnLCAnPG91dGZpbGUubWFlPic=

> <r_lp_tautomer_probability>
1

> <r_epik_Ionization_Penalty>
0.000102837

> <r_epik_Ionization_Penalty_Charging>
0

> <r_epik_Ionization_Penalty_Neutral>
0.000102837

> <r_epik_State_Penalty>
-0

> <r_epik_Charging_Adjusted_Penalty>
0

> <i_epik_Tot_Q>
0

> <i_epik_Tot_abs_Q>
0

> <r_epik_Metal_State_Penalty>
-0

> <b_epik_Metal_Only>
0

> <s_lp_Force_Field>
OPLS_2005

> <r_lp_Energy>
52.7657

> <b_lp_Chiralities_Consistent>
1

> <s_lp_Variant>
AV-unprocessed.smi:151-1

> <Gold.Version>
5.8.1

> <Gold.Id.Protein>
6NUR|6NUR_protein|mol2

> <Gold.PLP.Fitness>
54.7807

> <Gold.PLP.PLP>
-47.1085

> <Gold.PLP.part.hbond>
-5.6384

> <Gold.PLP.part.metal>
0.0000

> <Gold.PLP.part.buried>
2.2045

> <Gold.PLP.part.nonpolar>
-43.0055

> <Gold.PLP.part.repulsive>
0.1203

> <Gold.PLP.ligand.clash>
0.0000

> <Gold.PLP.ligand.torsion>
0.9262

> <Gold.PLP.Chemscore.Hbond>
3.0000

> <Gold.PLP.Chemscore.CHOScore>
0.0000

> <Gold.PLP.Chemscore.Metal>
0.0000

> <Gold.Chemscore.Hbonds>
donor molecule, donor type, donor heavy atom, donor atom, acceptor molecule, acceptor atom, score
      L1  H    24    51       P1 10175  0.94
      L1  H    26    54       P1  7948  0.62
      P1  H  7997  8009       L1    17  1.00

> <Gold.PLP.Chemscore.Internal.Correction>
0.5246

> <Gold.Rescore>
     Score         DG    S(hbond)    S(metal)    S(lipo)     H(rot)  DE(clash)    DE(int)     intcor
     14.25     -19.60       2.93        0.00     108.38       3.26       2.19       3.15       ----

> <Gold.Chemscore.Fitness>
14.2497

> <Gold.Chemscore.DG>
-19.5963

> <Gold.Chemscore.ZeroCoef>
-5.4800

> <Gold.Chemscore.Hbond>
2.9283

> <Gold.Chemscore.Metal>
0.0000

> <Gold.Chemscore.Lipo>
108.3806

> <Gold.Chemscore.Internal_Hbond>
0.0000

> <Gold.Chemscore.DEClash>
2.1944

> <Gold.Chemscore.DEInternal>
3.1522

> <Gold.Chemscore.Rot>
3.2596

> <Gold.Chemscore.Internal.Correction>
   9.000000E+99

> <Gold.Chemscore.Hbonds>
donor molecule, donor type, donor heavy atom, donor atom, acceptor molecule, acceptor atom, score
      L1  H    24    51       P1 10175  0.90
      L1  H    26    54       P1  7948  0.59
      P1  H  7997  8009       L1    17  0.92

> <Gold.Chemscore.Hbond.Weighted>
-9.7805

> <Gold.Chemscore.Metal.Weighted>
-0.0000

> <Gold.Chemscore.Lipo.Weighted>
-12.6805

> <Gold.Chemscore.Internal_Hbond.Weighted>
0.0000

> <Gold.Chemscore.DEClash.Weighted>
2.1944

> <Gold.Chemscore.DEInternal.Weighted>
3.1522

> <Gold.Chemscore.Rot.Weighted>
8.3447

> <Gold.Chemscore.Internal.Correction.Weighted>
   9.000000E+99

> <Gold.Protein.RotatedTorsions>
[ 6907 6896 6895 6894 ] final  127.18 input  -60.11 | X-H torsion
[ 7974 7965 7964 7962 ] final -165.53 input  175.53 | X-H torsion
[ 8008 7997 7996 7995 ] final -163.32 input   59.86 | X-H torsion
[ 10167 10162 10161 10158 ] final  172.40 input  -65.29 | X-H torsion
[ 10718 10713 10712 10709 ] final  163.23 input   66.30 | X-H torsion
[ 10763 10752 10751 10750 ] final   21.09 input  -60.55 | X-H torsion
[ 11005 11000 10999 10996 ] final  -88.25 input  -57.11 | X-H torsion

> <Gold.Protein.ActiveResidues>
 VAL166  LYS551  ARG553  GLY616  TRP617  ASP618  TYR619  PRO620  LYS621  CYS622 
 ASP623  PHE694  ASN695  SER759  ASP760  ASP761  ALA762  ILE779  LEU786  VAL792 
 PHE793  MET794  SER795  GLU796  ALA797  LYS798  CYS799  TRP800  GLU811  SER814 

> <Gold.Protein.RotatedAtoms>
  152.3836  133.6580  159.6180 H   0  0  0  0  0  0  0  0  0  0  0  0  # atno 6907 bound_to 6896
  150.7761  133.9072  159.3367 H   0  0  0  0  0  0  0  0  0  0  0  0  # atno 6908 bound_to 6896
  151.6873  135.0953  160.0278 H   0  0  0  0  0  0  0  0  0  0  0  0  # atno 6909 bound_to 6896
  144.7267  140.2800  143.6237 H   0  0  0  0  0  0  0  0  0  0  0  0  # atno 7974 bound_to 7965
  155.8196  140.0917  157.1857 H   0  0  0  0  0  0  0  0  0  0  0  0  # atno 8008 bound_to 7997
  154.3979  140.1439  156.3544 H   0  0  0  0  0  0  0  0  0  0  0  0  # atno 8009 bound_to 7997
  155.8280  140.3444  155.5557 H   0  0  0  0  0  0  0  0  0  0  0  0  # atno 8010 bound_to 7997
  139.5075  144.3378  152.0048 H   0  0  0  0  0  0  0  0  0  0  0  0  # atno 10167 bound_to 10162
  157.1114  131.0468  151.2455 H   0  0  0  0  0  0  0  0  0  0  0  0  # atno 10718 bound_to 10713
  153.1024  135.6676  153.9649 H   0  0  0  0  0  0  0  0  0  0  0  0  # atno 10763 bound_to 10752
  153.9216  135.3014  155.3449 H   0  0  0  0  0  0  0  0  0  0  0  0  # atno 10764 bound_to 10752
  154.7445  135.5064  153.9255 H   0  0  0  0  0  0  0  0  0  0  0  0  # atno 10765 bound_to 10752
  141.1604  133.7559  156.9424 H   0  0  0  0  0  0  0  0  0  0  0  0  # atno 11005 bound_to 11000
  145.7959  139.1945  143.2076 LP  0  0  0  0  0  0  0  0  0  0  0  0  # atno 17320 bound_to 7965
  146.0717  140.7861  142.9685 LP  0  0  0  0  0  0  0  0  0  0  0  0  # atno 17321 bound_to 7965
  140.2817  144.3853  150.6117 LP  0  0  0  0  0  0  0  0  0  0  0  0  # atno 17342 bound_to 10162
  140.6013  143.2167  151.7066 LP  0  0  0  0  0  0  0  0  0  0  0  0  # atno 17343 bound_to 10162
  157.4556  130.7623  149.7190 LP  0  0  0  0  0  0  0  0  0  0  0  0  # atno 17370 bound_to 10713
  155.9849  130.3987  150.3285 LP  0  0  0  0  0  0  0  0  0  0  0  0  # atno 17371 bound_to 10713
  140.1312  134.9354  157.2340 LP  0  0  0  0  0  0  0  0  0  0  0  0  # atno 17394 bound_to 11000
  140.2950  134.3196  155.7305 LP  0  0  0  0  0  0  0  0  0  0  0  0  # atno 17395 bound_to 11000

$$$$
