AV-unprocessed.smi:1715|AV-procd|sdf|6912|dock10
  -GOLD-   22720 8113D 1   1.00000     0.00000
 Structure written by MMmdl.
 41 42  0  0  0  0  0  0  0  0  2 V2000
  149.1524  135.1937  154.5401 C   0  0  0  0  0  0  0  0  0  0  0  0
  149.1915  136.4212  155.4679 C   0  0  2  0  0  0  0  0  0  0  0  0
  148.1305  137.4862  155.1271 C   0  0  0  0  0  0  0  0  0  0  0  0
  148.4916  138.2314  153.8974 N   0  3  1  0  0  0  0  0  0  0  0  0
  147.4561  139.2230  153.5141 C   0  0  0  0  0  0  0  0  0  0  0  0
  146.2020  138.5610  152.9108 C   0  0  0  0  0  0  0  0  0  0  0  0
  146.5154  137.2728  152.3033 N   0  0  0  0  0  0  0  0  0  0  0  0
  145.6068  136.3586  151.9340 C   0  0  0  0  0  0  0  0  0  0  0  0
  144.3938  136.5117  152.0789 O   0  0  0  0  0  0  0  0  0  0  0  0
  146.1917  135.2752  151.3974 N   0  0  0  0  0  0  0  0  0  0  0  0
  145.5553  134.1077  150.9051 C   0  0  0  0  0  0  0  0  0  0  0  0
  146.2184  132.8818  150.6257 C   0  0  0  0  0  0  0  0  0  0  0  0
  145.3720  131.9650  150.1789 N   0  0  0  0  0  0  0  0  0  0  0  0
  144.1751  132.5942  150.1698 N   0  0  0  0  0  0  0  0  0  0  0  0
  144.2382  133.8996  150.6049 C   0  0  0  0  0  0  0  0  0  0  0  0
  149.8488  138.8137  154.0311 C   0  0  0  0  0  0  0  0  0  0  0  0
  150.8784  137.7124  154.3421 C   0  0  1  0  0  0  0  0  0  0  0  0
  152.2809  138.2853  154.5751 C   0  0  0  0  0  0  0  0  0  0  0  0
  150.4876  137.0169  155.5230 O   0  0  0  0  0  0  0  0  0  0  0  0
  143.3334  132.1243  149.8674 H   0  0  0  0  0  0  0  0  0  0  0  0
  148.1938  134.6801  154.6197 H   0  0  0  0  0  0  0  0  0  0  0  0
  149.9305  134.4789  154.8090 H   0  0  0  0  0  0  0  0  0  0  0  0
  149.2904  135.4603  153.4928 H   0  0  0  0  0  0  0  0  0  0  0  0
  148.9842  136.0590  156.4753 H   0  0  0  0  0  0  0  0  0  0  0  0
  147.1546  137.0133  155.0097 H   0  0  0  0  0  0  0  0  0  0  0  0
  148.0413  138.1913  155.9553 H   0  0  0  0  0  0  0  0  0  0  0  0
  147.1491  139.7801  154.4007 H   0  0  0  0  0  0  0  0  0  0  0  0
  147.8874  139.9525  152.8266 H   0  0  0  0  0  0  0  0  0  0  0  0
  145.4231  138.4194  153.6605 H   0  0  0  0  0  0  0  0  0  0  0  0
  145.7770  139.2046  152.1401 H   0  0  0  0  0  0  0  0  0  0  0  0
  147.4911  137.0658  152.1459 H   0  0  0  0  0  0  0  0  0  0  0  0
  147.1991  135.2846  151.3334 H   0  0  0  0  0  0  0  0  0  0  0  0
  147.2640  132.6319  150.7294 H   0  0  0  0  0  0  0  0  0  0  0  0
  143.3659  134.5343  150.6567 H   0  0  0  0  0  0  0  0  0  0  0  0
  150.1372  139.3230  153.1122 H   0  0  0  0  0  0  0  0  0  0  0  0
  149.8467  139.5643  154.8233 H   0  0  0  0  0  0  0  0  0  0  0  0
  150.9338  137.0163  153.5049 H   0  0  0  0  0  0  0  0  0  0  0  0
  152.6380  138.8217  153.6957 H   0  0  0  0  0  0  0  0  0  0  0  0
  152.9952  137.4903  154.7911 H   0  0  0  0  0  0  0  0  0  0  0  0
  152.2900  138.9785  155.4167 H   0  0  0  0  0  0  0  0  0  0  0  0
  148.5306  137.5498  153.1530 H   0  0  0  0  0  0  0  0  0  0  0  0
  1  2  1  0  0  0  0
  1 21  1  0  0  0  0
  1 22  1  0  0  0  0
  1 23  1  0  0  0  0
  2 19  1  0  0  0  0
  2  3  1  0  0  0  0
  2 24  1  0  0  0  0
  3  4  1  0  0  0  0
  3 25  1  0  0  0  0
  3 26  1  0  0  0  0
  4  5  1  0  0  0  0
  4 16  1  0  0  0  0
  4 41  1  0  0  0  0
  5  6  1  0  0  0  0
  5 27  1  0  0  0  0
  5 28  1  0  0  0  0
  6  7  1  0  0  0  0
  6 29  1  0  0  0  0
  6 30  1  0  0  0  0
  7  8  1  0  0  0  0
  7 31  1  0  0  0  0
  8  9  2  0  0  0  0
  8 10  1  0  0  0  0
 10 11  1  0  0  0  0
 10 32  1  0  0  0  0
 11 15  2  0  0  0  0
 11 12  1  0  0  0  0
 12 13  2  0  0  0  0
 12 33  1  0  0  0  0
 13 14  1  0  0  0  0
 14 20  1  0  0  0  0
 14 15  1  0  0  0  0
 15 34  1  0  0  0  0
 16 17  1  0  0  0  0
 16 35  1  0  0  0  0
 16 36  1  0  0  0  0
 17 18  1  0  0  0  0
 17 19  1  0  0  0  0
 17 37  1  0  0  0  0
 18 38  1  0  0  0  0
 18 39  1  0  0  0  0
 18 40  1  0  0  0  0
M  CHG  1   4   1
M  END
> <s_m_source_file>
AV-unprocessed.smi

> <i_m_source_file_index>
1715

> <i_lp_mmshare_version>
43012

> <i_f3d_flags>
0

> <s_epik_input>
W0NIM11bQ0BASF0xW0NIMl1OKFtDSDJdW0NASF0oTzEpW0NIM10pW0NIMl1bQ0gyXVtOSF1DKD1PKVtOSF1jMltjSF1uW25IXVtjSF0y

> <s_epik_cmdline>
J2VwaWtfcHl0aG9uJywgJy1waCcsICc3LjAnLCAnLXRuJywgJzgnLCAnLW1hJywgJzIwMCcsICctbWV0YWxfYmluZGluZycsICctaW1hZScsICc8aW5maWxlLm1hZT4nLCAnLW9tYWUnLCAnPG91dGZpbGUubWFlPic=

> <r_lp_tautomer_probability>
0.5

> <r_epik_Ionization_Penalty>
0.646007

> <r_epik_Ionization_Penalty_Charging>
0.645968

> <r_epik_Ionization_Penalty_Neutral>
3.91671e-05

> <r_epik_State_Penalty>
0.664063

> <r_epik_Charging_Adjusted_Penalty>
1.31003

> <i_epik_Tot_Q>
1

> <i_epik_Tot_abs_Q>
1

> <r_epik_Metal_State_Penalty>
0.664064

> <b_epik_Metal_Only>
0

> <s_lp_Force_Field>
OPLS_2005

> <r_lp_Energy>
20.2841

> <b_lp_Chiralities_Consistent>
1

> <s_lp_Variant>
AV-unprocessed.smi:1715-4

> <Gold.Version>
5.8.1

> <Gold.Id.Protein>
6NUR|6NUR_protein|mol2

> <Gold.PLP.Fitness>
43.4349

> <Gold.PLP.PLP>
-26.6938

> <Gold.PLP.part.hbond>
-3.0000

> <Gold.PLP.part.metal>
0.0000

> <Gold.PLP.part.buried>
-2.6321

> <Gold.PLP.part.nonpolar>
-22.6298

> <Gold.PLP.part.repulsive>
1.3761

> <Gold.PLP.ligand.clash>
0.0000

> <Gold.PLP.ligand.torsion>
0.4972

> <Gold.PLP.Chemscore.Hbond>
3.9760

> <Gold.PLP.Chemscore.CHOScore>
1.9326

> <Gold.PLP.Chemscore.Metal>
0.0000

> <Gold.Chemscore.Hbonds>
donor molecule, donor type, donor heavy atom, donor atom, acceptor molecule, acceptor atom, score
      L1  H     4    41       P1  7948  2.00
      L1  H     7    31       P1  7948  1.00
      L1  H    10    32       P1  7948  0.98
      L1  C    12    33       P1 10747  1.00
      L1  C    15    34       P1 10186  0.83

> <Gold.PLP.Chemscore.Internal.Correction>
0.0097

> <Gold.Rescore>
     Score         DG    S(hbond)    S(metal)    S(lipo)     H(rot)  DE(clash)    DE(int)     intcor
     16.36     -18.14       2.83        0.00      63.83       1.67       0.23       1.56       ----

> <Gold.Chemscore.Fitness>
16.3575

> <Gold.Chemscore.DG>
-18.1435

> <Gold.Chemscore.ZeroCoef>
-5.4800

> <Gold.Chemscore.Hbond>
2.8333

> <Gold.Chemscore.Metal>
0.0000

> <Gold.Chemscore.Lipo>
63.8290

> <Gold.Chemscore.Internal_Hbond>
0.0000

> <Gold.Chemscore.DEClash>
0.2290

> <Gold.Chemscore.DEInternal>
1.5570

> <Gold.Chemscore.Rot>
1.6671

> <Gold.Chemscore.Internal.Correction>
   9.000000E+99

> <Gold.Chemscore.Hbonds>
donor molecule, donor type, donor heavy atom, donor atom, acceptor molecule, acceptor atom, score
      L1  H     4    41       P1  7948  1.00
      L1  H     7    31       P1  7948  1.00
      L1  H    10    32       P1  7948  0.75

> <Gold.Chemscore.Hbond.Weighted>
-9.4633

> <Gold.Chemscore.Metal.Weighted>
-0.0000

> <Gold.Chemscore.Lipo.Weighted>
-7.4680

> <Gold.Chemscore.Internal_Hbond.Weighted>
0.0000

> <Gold.Chemscore.DEClash.Weighted>
0.2290

> <Gold.Chemscore.DEInternal.Weighted>
1.5570

> <Gold.Chemscore.Rot.Weighted>
4.2677

> <Gold.Chemscore.Internal.Correction.Weighted>
   9.000000E+99

> <Gold.Protein.RotatedTorsions>
[ 6907 6896 6895 6894 ] final  -99.15 input  -60.11 | X-H torsion
[ 7974 7965 7964 7962 ] final  -90.29 input  175.53 | X-H torsion
[ 8008 7997 7996 7995 ] final  -58.36 input   59.86 | X-H torsion
[ 10167 10162 10161 10158 ] final -121.91 input  -65.29 | X-H torsion
[ 10718 10713 10712 10709 ] final  -95.52 input   66.30 | X-H torsion
[ 10763 10752 10751 10750 ] final  145.91 input  -60.55 | X-H torsion
[ 11005 11000 10999 10996 ] final -165.09 input  -57.11 | X-H torsion

> <Gold.Protein.ActiveResidues>
 VAL166  LYS551  ARG553  GLY616  TRP617  ASP618  TYR619  PRO620  LYS621  CYS622 
 ASP623  PHE694  ASN695  SER759  ASP760  ASP761  ALA762  ILE779  LEU786  VAL792 
 PHE793  MET794  SER795  GLU796  ALA797  LYS798  CYS799  TRP800  GLU811  SER814 

> <Gold.Protein.RotatedAtoms>
  150.7070  134.1086  159.3991 H   0  0  0  0  0  0  0  0  0  0  0  0  # atno 6907 bound_to 6896
  151.9072  135.0351  160.0520 H   0  0  0  0  0  0  0  0  0  0  0  0  # atno 6908 bound_to 6896
  152.2365  133.5065  159.5282 H   0  0  0  0  0  0  0  0  0  0  0  0  # atno 6909 bound_to 6896
  145.4285  140.9554  143.2141 H   0  0  0  0  0  0  0  0  0  0  0  0  # atno 7974 bound_to 7965
  154.4305  140.1086  156.5944 H   0  0  0  0  0  0  0  0  0  0  0  0  # atno 8008 bound_to 7997
  155.5977  140.3493  155.4566 H   0  0  0  0  0  0  0  0  0  0  0  0  # atno 8009 bound_to 7997
  156.0197  140.1237  157.0359 H   0  0  0  0  0  0  0  0  0  0  0  0  # atno 8010 bound_to 7997
  140.0199  143.5355  152.2225 H   0  0  0  0  0  0  0  0  0  0  0  0  # atno 10167 bound_to 10162
  156.0045  130.5112  150.6089 H   0  0  0  0  0  0  0  0  0  0  0  0  # atno 10718 bound_to 10713
  154.0132  135.2912  155.3390 H   0  0  0  0  0  0  0  0  0  0  0  0  # atno 10763 bound_to 10752
  154.7091  135.5157  153.8642 H   0  0  0  0  0  0  0  0  0  0  0  0  # atno 10764 bound_to 10752
  153.0714  135.6649  154.0361 H   0  0  0  0  0  0  0  0  0  0  0  0  # atno 10765 bound_to 10752
  140.5796  134.5155  157.5176 H   0  0  0  0  0  0  0  0  0  0  0  0  # atno 11005 bound_to 11000
  144.8198  139.5811  143.6992 LP  0  0  0  0  0  0  0  0  0  0  0  0  # atno 17320 bound_to 7965
  146.2620  139.6431  142.9356 LP  0  0  0  0  0  0  0  0  0  0  0  0  # atno 17321 bound_to 7965
  139.6147  144.7617  151.2873 LP  0  0  0  0  0  0  0  0  0  0  0  0  # atno 17342 bound_to 10162
  140.7347  143.6759  150.8042 LP  0  0  0  0  0  0  0  0  0  0  0  0  # atno 17343 bound_to 10162
  157.3925  131.0798  151.1381 LP  0  0  0  0  0  0  0  0  0  0  0  0  # atno 17370 bound_to 10713
  157.2069  130.6420  149.5759 LP  0  0  0  0  0  0  0  0  0  0  0  0  # atno 17371 bound_to 10713
  139.9324  134.7939  156.0896 LP  0  0  0  0  0  0  0  0  0  0  0  0  # atno 17394 bound_to 11000
  141.1005  133.6679  156.2743 LP  0  0  0  0  0  0  0  0  0  0  0  0  # atno 17395 bound_to 11000

$$$$
