AV-unprocessed.smi:698|AV-procd|sdf|3398|dock10
  -GOLD-   22720 0383D 1   1.00000     0.00000
 Structure written by MMmdl.
 33 34  0  0  0  0  0  0  0  0  1 V2000
  152.0957  144.9891  158.6005 C   0  0  0  0  0  0  0  0  0  0  0  0
  151.4371  144.6410  159.9374 C   0  0  0  0  0  0  0  0  0  0  0  0
  152.2712  143.7191  160.6331 O   0  0  0  0  0  0  0  0  0  0  0  0
  152.5268  142.4948  160.0500 C   0  0  0  0  0  0  0  0  0  0  0  0
  153.3486  141.5789  160.7333 C   0  0  0  0  0  0  0  0  0  0  0  0
  153.6058  140.3324  160.1352 C   0  0  0  0  0  0  0  0  0  0  0  0
  153.0353  140.0499  158.8795 C   0  0  0  0  0  0  0  0  0  0  0  0
  152.2225  141.0205  158.2532 C   0  0  0  0  0  0  0  0  0  0  0  0
  151.6955  140.6431  156.9897 N   0  0  0  0  0  0  0  0  0  0  0  0
  152.1862  139.7438  156.1162 C   0  0  0  0  0  0  0  0  0  0  0  0
  153.2024  139.0722  156.3002 O   0  0  0  0  0  0  0  0  0  0  0  0
  151.3734  139.5668  154.8279 C   0  0  1  0  0  0  0  0  0  0  0  0
  150.7953  138.1528  154.6245 C   0  0  0  0  0  0  0  0  0  0  0  0
  149.2999  138.3486  154.7841 C   0  0  0  0  0  0  0  0  0  0  0  0
  149.1218  139.7894  154.3277 C   0  0  0  0  0  0  0  0  0  0  0  0
  150.2489  140.4420  154.8895 O   0  0  0  0  0  0  0  0  0  0  0  0
  151.9791  142.2174  158.8412 N   0  0  0  0  0  0  0  0  0  0  0  0
  151.4901  145.7040  158.0431 H   0  0  0  0  0  0  0  0  0  0  0  0
  152.2184  144.1000  157.9815 H   0  0  0  0  0  0  0  0  0  0  0  0
  153.0805  145.4315  158.7526 H   0  0  0  0  0  0  0  0  0  0  0  0
  151.3022  145.5497  160.5265 H   0  0  0  0  0  0  0  0  0  0  0  0
  150.4525  144.2060  159.7579 H   0  0  0  0  0  0  0  0  0  0  0  0
  153.7718  141.8271  161.6955 H   0  0  0  0  0  0  0  0  0  0  0  0
  154.2309  139.6044  160.6307 H   0  0  0  0  0  0  0  0  0  0  0  0
  153.2241  139.0974  158.4057 H   0  0  0  0  0  0  0  0  0  0  0  0
  150.8418  141.1077  156.7176 H   0  0  0  0  0  0  0  0  0  0  0  0
  151.9828  139.8358  153.9632 H   0  0  0  0  0  0  0  0  0  0  0  0
  151.0197  137.8090  153.6140 H   0  0  0  0  0  0  0  0  0  0  0  0
  151.1849  137.4024  155.3136 H   0  0  0  0  0  0  0  0  0  0  0  0
  148.7091  137.6397  154.2036 H   0  0  0  0  0  0  0  0  0  0  0  0
  149.0190  138.2521  155.8337 H   0  0  0  0  0  0  0  0  0  0  0  0
  149.1599  139.8628  153.2398 H   0  0  0  0  0  0  0  0  0  0  0  0
  148.1870  140.2309  154.6734 H   0  0  0  0  0  0  0  0  0  0  0  0
  1  2  1  0  0  0  0
  1 18  1  0  0  0  0
  1 19  1  0  0  0  0
  1 20  1  0  0  0  0
  2  3  1  0  0  0  0
  2 21  1  0  0  0  0
  2 22  1  0  0  0  0
  3  4  1  0  0  0  0
  4 17  1  0  0  0  0
  4  5  2  0  0  0  0
  5  6  1  0  0  0  0
  5 23  1  0  0  0  0
  6  7  2  0  0  0  0
  6 24  1  0  0  0  0
  7  8  1  0  0  0  0
  7 25  1  0  0  0  0
  8  9  1  0  0  0  0
  8 17  2  0  0  0  0
  9 10  1  0  0  0  0
  9 26  1  0  0  0  0
 10 11  2  0  0  0  0
 10 12  1  0  0  0  0
 12 16  1  0  0  0  0
 12 13  1  0  0  0  0
 12 27  1  0  0  0  0
 13 14  1  0  0  0  0
 13 28  1  0  0  0  0
 13 29  1  0  0  0  0
 14 15  1  0  0  0  0
 14 30  1  0  0  0  0
 14 31  1  0  0  0  0
 15 16  1  0  0  0  0
 15 32  1  0  0  0  0
 15 33  1  0  0  0  0
M  END
> <s_m_source_file>
AV-unprocessed.smi

> <i_m_source_file_index>
698

> <i_lp_mmshare_version>
43012

> <i_f3d_flags>
0

> <s_epik_input>
W0NIM11bQ0gyXU9jMVtjSF1bY0hdW2NIXWMobjEpW05IXUMoPU8pW0NAQEhdMltDSDJdW0NIMl1bQ0gyXU8y

> <s_epik_cmdline>
J2VwaWtfcHl0aG9uJywgJy1waCcsICc3LjAnLCAnLXRuJywgJzgnLCAnLW1hJywgJzIwMCcsICctbWV0YWxfYmluZGluZycsICctaW1hZScsICc8aW5maWxlLm1hZT4nLCAnLW9tYWUnLCAnPG91dGZpbGUubWFlPic=

> <r_lp_tautomer_probability>
1

> <r_epik_Ionization_Penalty>
3.42089e-05

> <r_epik_Ionization_Penalty_Charging>
0

> <r_epik_Ionization_Penalty_Neutral>
3.42089e-05

> <r_epik_State_Penalty>
-0

> <r_epik_Charging_Adjusted_Penalty>
0

> <i_epik_Tot_Q>
0

> <i_epik_Tot_abs_Q>
0

> <r_epik_Metal_State_Penalty>
-0

> <b_epik_Metal_Only>
0

> <s_lp_Force_Field>
OPLS_2005

> <r_lp_Energy>
20.5333

> <b_lp_Chiralities_Consistent>
1

> <s_lp_Variant>
AV-unprocessed.smi:698-2

> <Gold.Version>
5.8.1

> <Gold.Id.Protein>
6NUR|6NUR_protein|mol2

> <Gold.PLP.Fitness>
40.1783

> <Gold.PLP.PLP>
-37.4453

> <Gold.PLP.part.hbond>
-2.0000

> <Gold.PLP.part.metal>
0.0000

> <Gold.PLP.part.buried>
-3.0468

> <Gold.PLP.part.nonpolar>
-32.4393

> <Gold.PLP.part.repulsive>
0.2612

> <Gold.PLP.ligand.clash>
0.0000

> <Gold.PLP.ligand.torsion>
0.1366

> <Gold.PLP.Chemscore.Hbond>
1.0000

> <Gold.PLP.Chemscore.CHOScore>
0.0000

> <Gold.PLP.Chemscore.Metal>
0.0000

> <Gold.Chemscore.Hbonds>
donor molecule, donor type, donor heavy atom, donor atom, acceptor molecule, acceptor atom, score
      P1  H  7997  8009       L1    11  1.00

> <Gold.PLP.Chemscore.Internal.Correction>
0.0062

> <Gold.Rescore>
     Score         DG    S(hbond)    S(metal)    S(lipo)     H(rot)  DE(clash)    DE(int)     intcor
     11.64     -13.45       0.99        0.00      70.96       1.42       0.06       1.74       ----

> <Gold.Chemscore.Fitness>
11.6440

> <Gold.Chemscore.DG>
-13.4451

> <Gold.Chemscore.ZeroCoef>
-5.4800

> <Gold.Chemscore.Hbond>
0.9863

> <Gold.Chemscore.Metal>
0.0000

> <Gold.Chemscore.Lipo>
70.9593

> <Gold.Chemscore.Internal_Hbond>
0.0000

> <Gold.Chemscore.DEClash>
0.0589

> <Gold.Chemscore.DEInternal>
1.7423

> <Gold.Chemscore.Rot>
1.4185

> <Gold.Chemscore.Internal.Correction>
   9.000000E+99

> <Gold.Chemscore.Hbonds>
donor molecule, donor type, donor heavy atom, donor atom, acceptor molecule, acceptor atom, score
      P1  H  7997  8009       L1    11  0.37

> <Gold.Chemscore.Hbond.Weighted>
-3.2942

> <Gold.Chemscore.Metal.Weighted>
-0.0000

> <Gold.Chemscore.Lipo.Weighted>
-8.3022

> <Gold.Chemscore.Internal_Hbond.Weighted>
0.0000

> <Gold.Chemscore.DEClash.Weighted>
0.0589

> <Gold.Chemscore.DEInternal.Weighted>
1.7423

> <Gold.Chemscore.Rot.Weighted>
3.6313

> <Gold.Chemscore.Internal.Correction.Weighted>
   9.000000E+99

> <Gold.Protein.RotatedTorsions>
[ 6907 6896 6895 6894 ] final  113.20 input  -60.11 | X-H torsion
[ 7974 7965 7964 7962 ] final -147.87 input  175.53 | X-H torsion
[ 8008 7997 7996 7995 ] final -151.88 input   59.86 | X-H torsion
[ 10167 10162 10161 10158 ] final -153.46 input  -65.29 | X-H torsion
[ 10718 10713 10712 10709 ] final    8.72 input   66.30 | X-H torsion
[ 10763 10752 10751 10750 ] final  143.98 input  -60.55 | X-H torsion
[ 11005 11000 10999 10996 ] final    3.41 input  -57.11 | X-H torsion

> <Gold.Protein.ActiveResidues>
 VAL166  LYS551  ARG553  GLY616  TRP617  ASP618  TYR619  PRO620  LYS621  CYS622 
 ASP623  PHE694  ASN695  SER759  ASP760  ASP761  ALA762  ILE779  LEU786  VAL792 
 PHE793  MET794  SER795  GLU796  ALA797  LYS798  CYS799  TRP800  GLU811  SER814 

> <Gold.Protein.RotatedAtoms>
  152.4874  133.8409  159.7151 H   0  0  0  0  0  0  0  0  0  0  0  0  # atno 6907 bound_to 6896
  150.8973  133.7155  159.2895 H   0  0  0  0  0  0  0  0  0  0  0  0  # atno 6908 bound_to 6896
  151.4608  135.1042  159.9776 H   0  0  0  0  0  0  0  0  0  0  0  0  # atno 6909 bound_to 6896
  144.8065  140.5271  143.5671 H   0  0  0  0  0  0  0  0  0  0  0  0  # atno 7974 bound_to 7965
  155.6463  140.0707  157.2602 H   0  0  0  0  0  0  0  0  0  0  0  0  # atno 8008 bound_to 7997
  154.4172  140.1741  156.1677 H   0  0  0  0  0  0  0  0  0  0  0  0  # atno 8009 bound_to 7997
  155.9814  140.3353  155.6669 H   0  0  0  0  0  0  0  0  0  0  0  0  # atno 8010 bound_to 7997
  139.7095  143.9132  152.2462 H   0  0  0  0  0  0  0  0  0  0  0  0  # atno 10167 bound_to 10162
  156.9558  130.5914  149.5659 H   0  0  0  0  0  0  0  0  0  0  0  0  # atno 10718 bound_to 10713
  153.9813  135.2941  155.3420 H   0  0  0  0  0  0  0  0  0  0  0  0  # atno 10763 bound_to 10752
  154.7267  135.5085  153.8901 H   0  0  0  0  0  0  0  0  0  0  0  0  # atno 10764 bound_to 10752
  153.0853  135.6691  154.0076 H   0  0  0  0  0  0  0  0  0  0  0  0  # atno 10765 bound_to 10752
  140.5934  133.9903  155.8099 H   0  0  0  0  0  0  0  0  0  0  0  0  # atno 11005 bound_to 11000
  145.5425  139.1475  143.3439 LP  0  0  0  0  0  0  0  0  0  0  0  0  # atno 17320 bound_to 7965
  146.2358  140.5564  142.8955 LP  0  0  0  0  0  0  0  0  0  0  0  0  # atno 17321 bound_to 7965
  139.8997  144.6918  150.8678 LP  0  0  0  0  0  0  0  0  0  0  0  0  # atno 17342 bound_to 10162
  140.7729  143.3523  151.1990 LP  0  0  0  0  0  0  0  0  0  0  0  0  # atno 17343 bound_to 10162
  156.0343  130.5432  150.8614 LP  0  0  0  0  0  0  0  0  0  0  0  0  # atno 17370 bound_to 10713
  157.5691  131.0946  150.9445 LP  0  0  0  0  0  0  0  0  0  0  0  0  # atno 17371 bound_to 10713
  141.0920  133.9902  157.3222 LP  0  0  0  0  0  0  0  0  0  0  0  0  # atno 17394 bound_to 11000
  139.9264  135.0201  156.8248 LP  0  0  0  0  0  0  0  0  0  0  0  0  # atno 17395 bound_to 11000

$$$$
