AV-unprocessed.smi:678|AV-procd|sdf|3317|dock6
  -GOLD-   22720 0283D 1   1.00000     0.00000
 Structure written by MMmdl.
 50 51  0  0  0  0  0  0  0  0  1 V2000
  153.6391  142.2897  161.4154 C   0  0  0  0  0  0  0  0  0  0  0  0
  152.8112  143.0955  160.4297 C   0  0  0  0  0  0  0  0  0  0  0  0
  152.2956  144.2994  160.7609 C   0  0  0  0  0  0  0  0  0  0  0  0
  151.5096  145.0582  159.8190 C   0  0  0  0  0  0  0  0  0  0  0  0
  151.3065  144.5381  158.6006 C   0  0  0  0  0  0  0  0  0  0  0  0
  151.8371  143.2887  158.2276 N   0  0  0  0  0  0  0  0  0  0  0  0
  151.5322  142.8274  156.8603 C   0  0  0  0  0  0  0  0  0  0  0  0
  150.8755  141.4382  156.7874 C   0  0  0  0  0  0  0  0  0  0  0  0
  150.6855  140.8105  157.8284 O   0  0  0  0  0  0  0  0  0  0  0  0
  150.5694  140.9466  155.5754 N   0  0  0  0  0  0  0  0  0  0  0  0
  150.1033  139.5923  155.3036 C   0  0  0  0  0  0  0  0  0  0  0  0
  148.6613  139.6050  154.7665 C   0  0  2  0  0  0  0  0  0  0  0  0
  148.1898  138.2138  154.2903 C   0  0  0  0  0  0  0  0  0  0  0  0
  146.8384  138.2521  153.7408 N   0  0  0  0  0  0  0  0  0  0  0  0
  146.3763  136.9426  153.2769 C   0  0  0  0  0  0  0  0  0  0  0  0
  145.1992  136.9553  152.2762 C   0  0  0  0  0  0  0  0  0  0  0  0
  143.8668  137.1451  153.0145 C   0  0  0  0  0  0  0  0  0  0  0  0
  145.1605  135.6860  151.4094 C   0  0  0  0  0  0  0  0  0  0  0  0
  146.7940  139.2359  152.6648 C   0  0  0  0  0  0  0  0  0  0  0  0
  147.2752  140.6211  153.1298 C   0  0  0  0  0  0  0  0  0  0  0  0
  148.5881  140.5144  153.6724 O   0  0  0  0  0  0  0  0  0  0  0  0
  152.5800  142.5263  159.0887 C   0  0  0  0  0  0  0  0  0  0  0  0
  153.0185  141.4238  158.7565 O   0  0  0  0  0  0  0  0  0  0  0  0
  153.7403  142.8080  162.3696 H   0  0  0  0  0  0  0  0  0  0  0  0
  154.6402  142.1152  161.0194 H   0  0  0  0  0  0  0  0  0  0  0  0
  153.1712  141.3232  161.6058 H   0  0  0  0  0  0  0  0  0  0  0  0
  152.4702  144.7078  161.7458 H   0  0  0  0  0  0  0  0  0  0  0  0
  151.0905  146.0163  160.0900 H   0  0  0  0  0  0  0  0  0  0  0  0
  150.7222  145.0356  157.8397 H   0  0  0  0  0  0  0  0  0  0  0  0
  150.8678  143.5447  156.3757 H   0  0  0  0  0  0  0  0  0  0  0  0
  152.4293  142.8165  156.2391 H   0  0  0  0  0  0  0  0  0  0  0  0
  150.7429  141.5335  154.7725 H   0  0  0  0  0  0  0  0  0  0  0  0
  150.7692  139.0908  154.5994 H   0  0  0  0  0  0  0  0  0  0  0  0
  150.1501  139.0232  156.2323 H   0  0  0  0  0  0  0  0  0  0  0  0
  147.9968  139.9609  155.5564 H   0  0  0  0  0  0  0  0  0  0  0  0
  148.8841  137.8278  153.5423 H   0  0  0  0  0  0  0  0  0  0  0  0
  148.2252  137.5274  155.1346 H   0  0  0  0  0  0  0  0  0  0  0  0
  147.2117  136.4249  152.8030 H   0  0  0  0  0  0  0  0  0  0  0  0
  146.1025  136.3333  154.1396 H   0  0  0  0  0  0  0  0  0  0  0  0
  145.3060  137.8137  151.6143 H   0  0  0  0  0  0  0  0  0  0  0  0
  143.6702  136.3187  153.6980 H   0  0  0  0  0  0  0  0  0  0  0  0
  143.0340  137.2028  152.3131 H   0  0  0  0  0  0  0  0  0  0  0  0
  143.8685  138.0669  153.5971 H   0  0  0  0  0  0  0  0  0  0  0  0
  145.0627  134.7901  152.0230 H   0  0  0  0  0  0  0  0  0  0  0  0
  146.0672  135.5847  150.8122 H   0  0  0  0  0  0  0  0  0  0  0  0
  144.3189  135.7096  150.7167 H   0  0  0  0  0  0  0  0  0  0  0  0
  147.4154  138.9014  151.8325 H   0  0  0  0  0  0  0  0  0  0  0  0
  145.7769  139.3188  152.2800 H   0  0  0  0  0  0  0  0  0  0  0  0
  147.2906  141.3177  152.2919 H   0  0  0  0  0  0  0  0  0  0  0  0
  146.5971  141.0344  153.8779 H   0  0  0  0  0  0  0  0  0  0  0  0
  1  2  1  0  0  0  0
  1 24  1  0  0  0  0
  1 25  1  0  0  0  0
  1 26  1  0  0  0  0
  2 22  1  0  0  0  0
  2  3  2  0  0  0  0
  3  4  1  0  0  0  0
  3 27  1  0  0  0  0
  4  5  2  0  0  0  0
  4 28  1  0  0  0  0
  5  6  1  0  0  0  0
  5 29  1  0  0  0  0
  6  7  1  0  0  0  0
  6 22  1  0  0  0  0
  7  8  1  0  0  0  0
  7 30  1  0  0  0  0
  7 31  1  0  0  0  0
  8  9  2  0  0  0  0
  8 10  1  0  0  0  0
 10 11  1  0  0  0  0
 10 32  1  0  0  0  0
 11 12  1  0  0  0  0
 11 33  1  0  0  0  0
 11 34  1  0  0  0  0
 12 21  1  0  0  0  0
 12 13  1  0  0  0  0
 12 35  1  0  0  0  0
 13 14  1  0  0  0  0
 13 36  1  0  0  0  0
 13 37  1  0  0  0  0
 14 15  1  0  0  0  0
 14 19  1  0  0  0  0
 15 16  1  0  0  0  0
 15 38  1  0  0  0  0
 15 39  1  0  0  0  0
 16 17  1  0  0  0  0
 16 18  1  0  0  0  0
 16 40  1  0  0  0  0
 17 41  1  0  0  0  0
 17 42  1  0  0  0  0
 17 43  1  0  0  0  0
 18 44  1  0  0  0  0
 18 45  1  0  0  0  0
 18 46  1  0  0  0  0
 19 20  1  0  0  0  0
 19 47  1  0  0  0  0
 19 48  1  0  0  0  0
 20 21  1  0  0  0  0
 20 49  1  0  0  0  0
 20 50  1  0  0  0  0
 22 23  2  0  0  0  0
M  END
> <s_m_source_file>
AV-unprocessed.smi

> <i_m_source_file_index>
678

> <i_lp_mmshare_version>
43012

> <i_f3d_flags>
0

> <s_epik_input>
W0NIM11jMVtjSF1bY0hdW2NIXW4oYzE9TylbQ0gyXUMoPU8pW05IXVtDSDJdW0NAQEhdMltDSDJdTihbQ0gyXVtDSDJdTzIpW0NIMl1bQ0hdKFtDSDNdKVtDSDNd

> <s_epik_cmdline>
J2VwaWtfcHl0aG9uJywgJy1waCcsICc3LjAnLCAnLXRuJywgJzgnLCAnLW1hJywgJzIwMCcsICctbWV0YWxfYmluZGluZycsICctaW1hZScsICc8aW5maWxlLm1hZT4nLCAnLW9tYWUnLCAnPG91dGZpbGUubWFlPic=

> <r_lp_tautomer_probability>
1

> <r_epik_Ionization_Penalty>
1.11669

> <r_epik_Ionization_Penalty_Charging>
7.32459e-07

> <r_epik_Ionization_Penalty_Neutral>
1.11669

> <r_epik_State_Penalty>
1.17516

> <r_epik_Charging_Adjusted_Penalty>
1.17516

> <i_epik_Tot_Q>
0

> <i_epik_Tot_abs_Q>
0

> <r_epik_Metal_State_Penalty>
1.17513

> <b_epik_Metal_Only>
0

> <s_lp_Force_Field>
OPLS_2005

> <r_lp_Energy>
32.9221

> <b_lp_Chiralities_Consistent>
1

> <s_lp_Variant>
AV-unprocessed.smi:678-5

> <Gold.Version>
5.8.1

> <Gold.Id.Protein>
6NUR|6NUR_protein|mol2

> <Gold.PLP.Fitness>
44.4837

> <Gold.PLP.PLP>
-43.1256

> <Gold.PLP.part.hbond>
0.0000

> <Gold.PLP.part.metal>
0.0000

> <Gold.PLP.part.buried>
-5.9253

> <Gold.PLP.part.nonpolar>
-40.0385

> <Gold.PLP.part.repulsive>
2.6632

> <Gold.PLP.ligand.clash>
0.0000

> <Gold.PLP.ligand.torsion>
0.5102

> <Gold.PLP.Chemscore.Hbond>
0.0000

> <Gold.PLP.Chemscore.CHOScore>
0.7730

> <Gold.PLP.Chemscore.Metal>
0.0000

> <Gold.Chemscore.Hbonds>
donor molecule, donor type, donor heavy atom, donor atom, acceptor molecule, acceptor atom, score
      L1  C     5    29       P1  8028  0.23

> <Gold.PLP.Chemscore.Internal.Correction>
0.0595

> <Gold.Rescore>
     Score         DG    S(hbond)    S(metal)    S(lipo)     H(rot)  DE(clash)    DE(int)     intcor
      8.90     -14.01       0.00        0.00     112.86       1.82       0.18       4.93       ----

> <Gold.Chemscore.Fitness>
8.9028

> <Gold.Chemscore.DG>
-14.0148

> <Gold.Chemscore.ZeroCoef>
-5.4800

> <Gold.Chemscore.Hbond>
0.0000

> <Gold.Chemscore.Metal>
0.0000

> <Gold.Chemscore.Lipo>
112.8639

> <Gold.Chemscore.Internal_Hbond>
0.0000

> <Gold.Chemscore.DEClash>
0.1784

> <Gold.Chemscore.DEInternal>
4.9335

> <Gold.Chemscore.Rot>
1.8243

> <Gold.Chemscore.Internal.Correction>
   9.000000E+99

> <Gold.Chemscore.Hbond.Weighted>
-0.0000

> <Gold.Chemscore.Metal.Weighted>
-0.0000

> <Gold.Chemscore.Lipo.Weighted>
-13.2051

> <Gold.Chemscore.Internal_Hbond.Weighted>
0.0000

> <Gold.Chemscore.DEClash.Weighted>
0.1784

> <Gold.Chemscore.DEInternal.Weighted>
4.9335

> <Gold.Chemscore.Rot.Weighted>
4.6703

> <Gold.Chemscore.Internal.Correction.Weighted>
   9.000000E+99

> <Gold.Protein.RotatedTorsions>
[ 6907 6896 6895 6894 ] final  139.29 input  -60.11 | X-H torsion
[ 7974 7965 7964 7962 ] final -144.10 input  175.53 | X-H torsion
[ 8008 7997 7996 7995 ] final  155.90 input   59.86 | X-H torsion
[ 10167 10162 10161 10158 ] final  104.14 input  -65.29 | X-H torsion
[ 10718 10713 10712 10709 ] final -155.21 input   66.30 | X-H torsion
[ 10763 10752 10751 10750 ] final  -73.71 input  -60.55 | X-H torsion
[ 11005 11000 10999 10996 ] final   76.45 input  -57.11 | X-H torsion

> <Gold.Protein.ActiveResidues>
 VAL166  LYS551  ARG553  GLY616  TRP617  ASP618  TYR619  PRO620  LYS621  CYS622 
 ASP623  PHE694  ASN695  SER759  ASP760  ASP761  ALA762  ILE779  LEU786  VAL792 
 PHE793  MET794  SER795  GLU796  ALA797  LYS798  CYS799  TRP800  GLU811  SER814 

> <Gold.Protein.RotatedAtoms>
  152.2566  133.5261  159.5356 H   0  0  0  0  0  0  0  0  0  0  0  0  # atno 6907 bound_to 6896
  150.7111  134.0887  159.3933 H   0  0  0  0  0  0  0  0  0  0  0  0  # atno 6908 bound_to 6896
  151.8806  135.0455  160.0539 H   0  0  0  0  0  0  0  0  0  0  0  0  # atno 6909 bound_to 6896
  144.8321  140.5751  143.5508 H   0  0  0  0  0  0  0  0  0  0  0  0  # atno 7974 bound_to 7965
  156.2452  140.1927  156.6873 H   0  0  0  0  0  0  0  0  0  0  0  0  # atno 8008 bound_to 7997
  154.6278  140.0600  156.9721 H   0  0  0  0  0  0  0  0  0  0  0  0  # atno 8009 bound_to 7997
  155.1759  140.3272  155.4386 H   0  0  0  0  0  0  0  0  0  0  0  0  # atno 8010 bound_to 7997
  139.7203  144.7059  151.0884 H   0  0  0  0  0  0  0  0  0  0  0  0  # atno 10167 bound_to 10162
  156.5097  130.8429  151.2642 H   0  0  0  0  0  0  0  0  0  0  0  0  # atno 10718 bound_to 10713
  154.4632  135.5888  153.6270 H   0  0  0  0  0  0  0  0  0  0  0  0  # atno 10763 bound_to 10752
  152.9825  135.6049  154.3459 H   0  0  0  0  0  0  0  0  0  0  0  0  # atno 10764 bound_to 10752
  154.3333  135.2842  155.2439 H   0  0  0  0  0  0  0  0  0  0  0  0  # atno 10765 bound_to 10752
  139.9298  134.7602  156.1397 H   0  0  0  0  0  0  0  0  0  0  0  0  # atno 11005 bound_to 11000
  145.4873  139.1491  143.3729 LP  0  0  0  0  0  0  0  0  0  0  0  0  # atno 17320 bound_to 7965
  146.2623  140.5010  142.8848 LP  0  0  0  0  0  0  0  0  0  0  0  0  # atno 17321 bound_to 7965
  140.7752  143.5175  150.9576 LP  0  0  0  0  0  0  0  0  0  0  0  0  # atno 17342 bound_to 10162
  139.8862  143.7010  152.3151 LP  0  0  0  0  0  0  0  0  0  0  0  0  # atno 17343 bound_to 10162
  157.7452  130.9953  150.2741 LP  0  0  0  0  0  0  0  0  0  0  0  0  # atno 17370 bound_to 10713
  156.3252  130.3792  149.7540 LP  0  0  0  0  0  0  0  0  0  0  0  0  # atno 17371 bound_to 10713
  141.0879  133.6726  156.2476 LP  0  0  0  0  0  0  0  0  0  0  0  0  # atno 17394 bound_to 11000
  140.6235  134.5337  157.5550 LP  0  0  0  0  0  0  0  0  0  0  0  0  # atno 17395 bound_to 11000

$$$$
