AV-unprocessed.smi:676|AV-procd|sdf|3310|dock8
  -GOLD-   22720 0273D 1   1.00000     0.00000
 Structure written by MMmdl.
 42 43  0  0  0  0  0  0  0  0  1 V2000
  150.1448  130.9632  156.4100 C   0  0  0  0  0  0  0  0  0  0  0  0
  149.7330  131.5701  155.1922 O   0  0  0  0  0  0  0  0  0  0  0  0
  148.8119  132.6561  155.3053 C   0  0  2  0  0  0  0  0  0  0  0  0
  147.4689  132.1516  155.8562 C   0  0  0  0  0  0  0  0  0  0  0  0
  148.7891  133.5341  154.0404 C   0  0  0  0  0  0  0  0  0  0  0  0
  148.7929  134.7362  154.9818 C   0  0  2  0  0  0  0  0  0  0  0  0
  149.5803  135.8521  154.4695 N   0  0  0  0  0  0  0  0  0  0  0  0
  150.3299  136.6603  155.2324 C   0  0  0  0  0  0  0  0  0  0  0  0
  150.4185  136.5376  156.4552 O   0  0  0  0  0  0  0  0  0  0  0  0
  151.1083  137.7534  154.4866 C   0  0  0  0  0  0  0  0  0  0  0  0
  150.6988  139.1188  154.8552 N   0  0  0  0  0  0  0  0  0  0  0  0
  149.4245  139.5421  154.4269 C   0  0  0  0  0  0  0  0  0  0  0  0
  148.9552  140.7698  154.7001 C   0  0  0  0  0  0  0  0  0  0  0  0
  149.7943  141.6683  155.4572 C   0  0  0  0  0  0  0  0  0  0  0  0
  151.0163  141.2748  155.8684 C   0  0  0  0  0  0  0  0  0  0  0  0
  151.5351  139.9351  155.5681 C   0  0  0  0  0  0  0  0  0  0  0  0
  152.6523  139.5698  155.9347 O   0  0  0  0  0  0  0  0  0  0  0  0
  149.5224  133.8494  156.0236 C   0  0  0  0  0  0  0  0  0  0  0  0
  149.1481  134.0957  157.4886 C   0  0  0  0  0  0  0  0  0  0  0  0
  151.0640  133.8486  155.9779 C   0  0  0  0  0  0  0  0  0  0  0  0
  150.7550  130.0891  156.1831 H   0  0  0  0  0  0  0  0  0  0  0  0
  149.2970  130.6267  157.0069 H   0  0  0  0  0  0  0  0  0  0  0  0
  150.7552  131.6350  157.0131 H   0  0  0  0  0  0  0  0  0  0  0  0
  146.7863  132.9722  156.0763 H   0  0  0  0  0  0  0  0  0  0  0  0
  147.6060  131.5850  156.7773 H   0  0  0  0  0  0  0  0  0  0  0  0
  146.9529  131.5079  155.1444 H   0  0  0  0  0  0  0  0  0  0  0  0
  149.6911  133.4502  153.4311 H   0  0  0  0  0  0  0  0  0  0  0  0
  147.8878  133.4387  153.4339 H   0  0  0  0  0  0  0  0  0  0  0  0
  147.7816  135.0131  155.2883 H   0  0  0  0  0  0  0  0  0  0  0  0
  149.5609  136.0122  153.4728 H   0  0  0  0  0  0  0  0  0  0  0  0
  152.1711  137.6103  154.6875 H   0  0  0  0  0  0  0  0  0  0  0  0
  150.9985  137.6012  153.4113 H   0  0  0  0  0  0  0  0  0  0  0  0
  148.8640  138.8130  153.8597 H   0  0  0  0  0  0  0  0  0  0  0  0
  147.9781  141.0786  154.3588 H   0  0  0  0  0  0  0  0  0  0  0  0
  149.4413  142.6612  155.6941 H   0  0  0  0  0  0  0  0  0  0  0  0
  151.6306  141.9611  156.4330 H   0  0  0  0  0  0  0  0  0  0  0  0
  149.6309  134.9915  157.8807 H   0  0  0  0  0  0  0  0  0  0  0  0
  149.4438  133.2583  158.1210 H   0  0  0  0  0  0  0  0  0  0  0  0
  148.0755  134.2391  157.6177 H   0  0  0  0  0  0  0  0  0  0  0  0
  151.4782  134.7961  156.3241 H   0  0  0  0  0  0  0  0  0  0  0  0
  151.4488  133.6816  154.9717 H   0  0  0  0  0  0  0  0  0  0  0  0
  151.4806  133.0654  156.6122 H   0  0  0  0  0  0  0  0  0  0  0  0
  1  2  1  0  0  0  0
  1 21  1  0  0  0  0
  1 22  1  0  0  0  0
  1 23  1  0  0  0  0
  2  3  1  0  0  0  0
  3 18  1  0  0  0  0
  3  4  1  0  0  0  0
  3  5  1  0  0  0  0
  4 24  1  0  0  0  0
  4 25  1  0  0  0  0
  4 26  1  0  0  0  0
  5  6  1  0  0  0  0
  5 27  1  0  0  0  0
  5 28  1  0  0  0  0
  6  7  1  0  0  0  0
  6 18  1  0  0  0  0
  6 29  1  0  0  0  0
  7  8  1  0  0  0  0
  7 30  1  0  0  0  0
  8  9  2  0  0  0  0
  8 10  1  0  0  0  0
 10 11  1  0  0  0  0
 10 31  1  0  0  0  0
 10 32  1  0  0  0  0
 11 16  1  0  0  0  0
 11 12  1  0  0  0  0
 12 13  2  0  0  0  0
 12 33  1  0  0  0  0
 13 14  1  0  0  0  0
 13 34  1  0  0  0  0
 14 15  2  0  0  0  0
 14 35  1  0  0  0  0
 15 16  1  0  0  0  0
 15 36  1  0  0  0  0
 16 17  2  0  0  0  0
 18 19  1  0  0  0  0
 18 20  1  0  0  0  0
 19 37  1  0  0  0  0
 19 38  1  0  0  0  0
 19 39  1  0  0  0  0
 20 40  1  0  0  0  0
 20 41  1  0  0  0  0
 20 42  1  0  0  0  0
M  END
> <s_m_source_file>
AV-unprocessed.smi

> <i_m_source_file_index>
676

> <i_lp_mmshare_version>
43012

> <i_f3d_flags>
0

> <s_epik_input>
W0NIM11PW0NAQF0xKFtDSDNdKVtDSDJdW0NASF0oQzEoW0NIM10pW0NIM10pW05IXUMoPU8pW0NIMl1uMltjSF1bY0hdW2NIXVtjSF1jMj1P

> <s_epik_cmdline>
J2VwaWtfcHl0aG9uJywgJy1waCcsICc3LjAnLCAnLXRuJywgJzgnLCAnLW1hJywgJzIwMCcsICctbWV0YWxfYmluZGluZycsICctaW1hZScsICc8aW5maWxlLm1hZT4nLCAnLW9tYWUnLCAnPG91dGZpbGUubWFlPic=

> <r_lp_tautomer_probability>
1

> <r_epik_Ionization_Penalty>
4.09771e-07

> <r_epik_Ionization_Penalty_Charging>
3.90712e-07

> <r_epik_Ionization_Penalty_Neutral>
1.90591e-08

> <r_epik_State_Penalty>
-0

> <r_epik_Charging_Adjusted_Penalty>
3.90712e-07

> <i_epik_Tot_Q>
0

> <i_epik_Tot_abs_Q>
0

> <r_epik_Metal_State_Penalty>
-0

> <b_epik_Metal_Only>
0

> <s_lp_Force_Field>
OPLS_2005

> <r_lp_Energy>
31.4384

> <b_lp_Chiralities_Consistent>
1

> <s_lp_Variant>
AV-unprocessed.smi:676-4

> <Gold.Version>
5.8.1

> <Gold.Id.Protein>
6NUR|6NUR_protein|mol2

> <Gold.PLP.Fitness>
38.2193

> <Gold.PLP.PLP>
-32.7940

> <Gold.PLP.part.hbond>
-2.1238

> <Gold.PLP.part.metal>
0.0000

> <Gold.PLP.part.buried>
-2.5026

> <Gold.PLP.part.nonpolar>
-27.5050

> <Gold.PLP.part.repulsive>
0.0496

> <Gold.PLP.ligand.clash>
0.0000

> <Gold.PLP.ligand.torsion>
0.4738

> <Gold.PLP.Chemscore.Hbond>
2.0000

> <Gold.PLP.Chemscore.CHOScore>
0.0000

> <Gold.PLP.Chemscore.Metal>
0.0000

> <Gold.Chemscore.Hbonds>
donor molecule, donor type, donor heavy atom, donor atom, acceptor molecule, acceptor atom, score
      L1  H     7    30       P1  7948  1.00
      P1  H  7997  8010       L1    17  1.00

> <Gold.PLP.Chemscore.Internal.Correction>
0.3729

> <Gold.Rescore>
     Score         DG    S(hbond)    S(metal)    S(lipo)     H(rot)  DE(clash)    DE(int)     intcor
     14.50     -14.82       1.94        0.00      59.76       1.62       0.03       0.30       ----

> <Gold.Chemscore.Fitness>
14.4959

> <Gold.Chemscore.DG>
-14.8227

> <Gold.Chemscore.ZeroCoef>
-5.4800

> <Gold.Chemscore.Hbond>
1.9434

> <Gold.Chemscore.Metal>
0.0000

> <Gold.Chemscore.Lipo>
59.7646

> <Gold.Chemscore.Internal_Hbond>
0.0000

> <Gold.Chemscore.DEClash>
0.0251

> <Gold.Chemscore.DEInternal>
0.3018

> <Gold.Chemscore.Rot>
1.6175

> <Gold.Chemscore.Internal.Correction>
   9.000000E+99

> <Gold.Chemscore.Hbonds>
donor molecule, donor type, donor heavy atom, donor atom, acceptor molecule, acceptor atom, score
      L1  H     7    30       P1  7948  0.30
      P1  H  7997  8010       L1    17  1.00

> <Gold.Chemscore.Hbond.Weighted>
-6.4910

> <Gold.Chemscore.Metal.Weighted>
-0.0000

> <Gold.Chemscore.Lipo.Weighted>
-6.9925

> <Gold.Chemscore.Internal_Hbond.Weighted>
0.0000

> <Gold.Chemscore.DEClash.Weighted>
0.0251

> <Gold.Chemscore.DEInternal.Weighted>
0.3018

> <Gold.Chemscore.Rot.Weighted>
4.1408

> <Gold.Chemscore.Internal.Correction.Weighted>
   9.000000E+99

> <Gold.Protein.RotatedTorsions>
[ 6907 6896 6895 6894 ] final -104.83 input  -60.11 | X-H torsion
[ 7974 7965 7964 7962 ] final   17.43 input  175.53 | X-H torsion
[ 8008 7997 7996 7995 ] final   88.89 input   59.86 | X-H torsion
[ 10167 10162 10161 10158 ] final  -13.04 input  -65.29 | X-H torsion
[ 10718 10713 10712 10709 ] final   38.19 input   66.30 | X-H torsion
[ 10763 10752 10751 10750 ] final  -54.68 input  -60.55 | X-H torsion
[ 11005 11000 10999 10996 ] final  140.41 input  -57.11 | X-H torsion

> <Gold.Protein.ActiveResidues>
 VAL166  LYS551  ARG553  GLY616  TRP617  ASP618  TYR619  PRO620  LYS621  CYS622 
 ASP623  PHE694  ASN695  SER759  ASP760  ASP761  ALA762  ILE779  LEU786  VAL792 
 PHE793  MET794  SER795  GLU796  ALA797  LYS798  CYS799  TRP800  GLU811  SER814 

> <Gold.Protein.RotatedAtoms>
  150.7306  134.0218  159.3703 H   0  0  0  0  0  0  0  0  0  0  0  0  # atno 6907 bound_to 6896
  151.8184  135.0657  160.0431 H   0  0  0  0  0  0  0  0  0  0  0  0  # atno 6908 bound_to 6896
  152.3022  133.5630  159.5662 H   0  0  0  0  0  0  0  0  0  0  0  0  # atno 6909 bound_to 6896
  146.2218  139.8603  142.8606 H   0  0  0  0  0  0  0  0  0  0  0  0  # atno 7974 bound_to 7965
  155.9933  140.3366  155.6774 H   0  0  0  0  0  0  0  0  0  0  0  0  # atno 8008 bound_to 7997
  155.6391  140.0693  157.2642 H   0  0  0  0  0  0  0  0  0  0  0  0  # atno 8009 bound_to 7997
  154.4226  140.1746  156.1541 H   0  0  0  0  0  0  0  0  0  0  0  0  # atno 8010 bound_to 7997
  140.7174  143.5469  150.9346 H   0  0  0  0  0  0  0  0  0  0  0  0  # atno 10167 bound_to 10162
  157.3559  130.7623  149.7012 H   0  0  0  0  0  0  0  0  0  0  0  0  # atno 10718 bound_to 10713
  154.1787  135.6447  153.5028 H   0  0  0  0  0  0  0  0  0  0  0  0  # atno 10763 bound_to 10752
  153.0065  135.5401  154.6537 H   0  0  0  0  0  0  0  0  0  0  0  0  # atno 10764 bound_to 10752
  154.5895  135.2933  155.0622 H   0  0  0  0  0  0  0  0  0  0  0  0  # atno 10765 bound_to 10752
  140.0325  134.9345  157.0689 H   0  0  0  0  0  0  0  0  0  0  0  0  # atno 11005 bound_to 11000
  145.2712  141.0109  143.3771 LP  0  0  0  0  0  0  0  0  0  0  0  0  # atno 17320 bound_to 7965
  144.9222  139.4398  143.6535 LP  0  0  0  0  0  0  0  0  0  0  0  0  # atno 17321 bound_to 7965
  139.9192  143.6626  152.3100 LP  0  0  0  0  0  0  0  0  0  0  0  0  # atno 17342 bound_to 10162
  139.7037  144.7631  151.1229 LP  0  0  0  0  0  0  0  0  0  0  0  0  # atno 17343 bound_to 10162
  155.9729  130.4127  150.4047 LP  0  0  0  0  0  0  0  0  0  0  0  0  # atno 17370 bound_to 10713
  157.2117  131.0462  151.2596 LP  0  0  0  0  0  0  0  0  0  0  0  0  # atno 17371 bound_to 10713
  140.4202  134.1889  155.7164 LP  0  0  0  0  0  0  0  0  0  0  0  0  # atno 17394 bound_to 11000
  141.1839  133.8355  157.1159 LP  0  0  0  0  0  0  0  0  0  0  0  0  # atno 17395 bound_to 11000

$$$$
