AV-unprocessed.smi:3130|AV-procd|sdf|11926|dock9
  -GOLD-   2272017313D 1   1.00000     0.00000
 Structure written by MMmdl.
 40 40  0  0  0  0  0  0  0  0  2 V2000
  151.3286  141.4348  158.1206 C   0  0  0  0  0  0  0  0  0  0  0  0
  151.0282  140.7708  156.8079 C   0  0  0  0  0  0  0  0  0  0  0  0
  150.3863  141.3336  155.6681 C   0  0  0  0  0  0  0  0  0  0  0  0
  150.2689  140.4749  154.6681 N   0  0  0  0  0  0  0  0  0  0  0  0
  150.8328  139.3393  155.1306 N   0  0  0  0  0  0  0  0  0  0  0  0
  150.8725  138.1599  154.2875 C   0  0  0  0  0  0  0  0  0  0  0  0
  151.0033  136.8704  155.1114 C   0  0  0  0  0  0  0  0  0  0  0  0
  150.5258  135.7020  154.3468 N   0  3  0  0  0  0  0  0  0  0  0  0
  150.1448  134.5501  155.1873 C   0  0  0  0  0  0  0  0  0  0  0  0
  149.8994  133.2978  154.3285 C   0  0  0  0  0  0  0  0  0  0  0  0
  148.4249  133.1118  153.9586 C   0  0  0  0  0  0  0  0  0  0  0  0
  147.8117  132.1104  154.3283 O   0  0  0  0  0  0  0  0  0  0  0  0
  147.8693  134.0867  153.2219 N   0  0  0  0  0  0  0  0  0  0  0  0
  146.4868  134.1117  152.7521 C   0  0  0  0  0  0  0  0  0  0  0  0
  145.5414  134.2075  153.9570 C   0  0  0  0  0  0  0  0  0  0  0  0
  146.1861  132.8726  151.8939 C   0  0  0  0  0  0  0  0  0  0  0  0
  151.2965  139.4886  156.4204 C   0  0  0  0  0  0  0  0  0  0  0  0
  151.1090  142.5024  158.0960 H   0  0  0  0  0  0  0  0  0  0  0  0
  152.3788  141.3296  158.3940 H   0  0  0  0  0  0  0  0  0  0  0  0
  150.7399  141.0045  158.9310 H   0  0  0  0  0  0  0  0  0  0  0  0
  150.0019  142.3349  155.5400 H   0  0  0  0  0  0  0  0  0  0  0  0
  149.9635  138.1347  153.6849 H   0  0  0  0  0  0  0  0  0  0  0  0
  151.7097  138.2596  153.5950 H   0  0  0  0  0  0  0  0  0  0  0  0
  152.0445  136.7089  155.3942 H   0  0  0  0  0  0  0  0  0  0  0  0
  150.4270  136.9558  156.0338 H   0  0  0  0  0  0  0  0  0  0  0  0
  149.7239  135.9820  153.8002 H   0  0  0  0  0  0  0  0  0  0  0  0
  150.9403  134.3656  155.9111 H   0  0  0  0  0  0  0  0  0  0  0  0
  149.2448  134.8015  155.7512 H   0  0  0  0  0  0  0  0  0  0  0  0
  150.4944  133.3576  153.4157 H   0  0  0  0  0  0  0  0  0  0  0  0
  150.2324  132.4068  154.8621 H   0  0  0  0  0  0  0  0  0  0  0  0
  148.4482  134.8719  152.9612 H   0  0  0  0  0  0  0  0  0  0  0  0
  146.3355  135.0029  152.1403 H   0  0  0  0  0  0  0  0  0  0  0  0
  144.5004  134.2548  153.6361 H   0  0  0  0  0  0  0  0  0  0  0  0
  145.7439  135.1026  154.5461 H   0  0  0  0  0  0  0  0  0  0  0  0
  145.6468  133.3441  154.6150 H   0  0  0  0  0  0  0  0  0  0  0  0
  145.1557  132.8850  151.5375 H   0  0  0  0  0  0  0  0  0  0  0  0
  146.3304  131.9520  152.4603 H   0  0  0  0  0  0  0  0  0  0  0  0
  146.8337  132.8299  151.0174 H   0  0  0  0  0  0  0  0  0  0  0  0
  151.7734  138.6787  156.9528 H   0  0  0  0  0  0  0  0  0  0  0  0
  151.2602  135.4098  153.7178 H   0  0  0  0  0  0  0  0  0  0  0  0
  1  2  1  0  0  0  0
  1 18  1  0  0  0  0
  1 19  1  0  0  0  0
  1 20  1  0  0  0  0
  2 17  2  0  0  0  0
  2  3  1  0  0  0  0
  3  4  2  0  0  0  0
  3 21  1  0  0  0  0
  4  5  1  0  0  0  0
  5  6  1  0  0  0  0
  5 17  1  0  0  0  0
  6  7  1  0  0  0  0
  6 22  1  0  0  0  0
  6 23  1  0  0  0  0
  7  8  1  0  0  0  0
  7 24  1  0  0  0  0
  7 25  1  0  0  0  0
  8  9  1  0  0  0  0
  8 26  1  0  0  0  0
  8 40  1  0  0  0  0
  9 10  1  0  0  0  0
  9 27  1  0  0  0  0
  9 28  1  0  0  0  0
 10 11  1  0  0  0  0
 10 29  1  0  0  0  0
 10 30  1  0  0  0  0
 11 12  2  0  0  0  0
 11 13  1  0  0  0  0
 13 14  1  0  0  0  0
 13 31  1  0  0  0  0
 14 15  1  0  0  0  0
 14 16  1  0  0  0  0
 14 32  1  0  0  0  0
 15 33  1  0  0  0  0
 15 34  1  0  0  0  0
 15 35  1  0  0  0  0
 16 36  1  0  0  0  0
 16 37  1  0  0  0  0
 16 38  1  0  0  0  0
 17 39  1  0  0  0  0
M  CHG  1   8   1
M  END
> <s_m_source_file>
AV-unprocessed.smi

> <i_m_source_file_index>
3130

> <i_lp_mmshare_version>
43012

> <i_f3d_flags>
0

> <s_epik_input>
W0NIM11jMVtjSF1ubihbY0hdMSlbQ0gyXVtDSDJdW05IXVtDSDJdW0NIMl1DKD1PKVtOSF1bQ0hdKFtDSDNdKVtDSDNd

> <s_epik_cmdline>
J2VwaWtfcHl0aG9uJywgJy1waCcsICc3LjAnLCAnLXRuJywgJzgnLCAnLW1hJywgJzIwMCcsICctbWV0YWxfYmluZGluZycsICctaW1hZScsICc8aW5maWxlLm1hZT4nLCAnLW9tYWUnLCAnPG91dGZpbGUubWFlPic=

> <r_lp_tautomer_probability>
1

> <r_epik_Ionization_Penalty>
0.00578341

> <r_epik_Ionization_Penalty_Charging>
0.00577767

> <r_epik_Ionization_Penalty_Neutral>
5.73237e-06

> <r_epik_State_Penalty>
-0

> <r_epik_Charging_Adjusted_Penalty>
0.00577767

> <i_epik_Tot_Q>
1

> <i_epik_Tot_abs_Q>
1

> <r_epik_Metal_State_Penalty>
-0

> <b_epik_Metal_Only>
0

> <s_lp_Force_Field>
OPLS_2005

> <r_lp_Energy>
3.33075

> <b_lp_Chiralities_Consistent>
1

> <s_lp_Variant>
AV-unprocessed.smi:3130-1

> <Gold.Version>
5.8.1

> <Gold.Id.Protein>
6NUR|6NUR_protein|mol2

> <Gold.PLP.Fitness>
44.2075

> <Gold.PLP.PLP>
-31.4134

> <Gold.PLP.part.hbond>
-4.0000

> <Gold.PLP.part.metal>
0.0000

> <Gold.PLP.part.buried>
-2.6398

> <Gold.PLP.part.nonpolar>
-23.4886

> <Gold.PLP.part.repulsive>
0.2308

> <Gold.PLP.ligand.clash>
0.0000

> <Gold.PLP.ligand.torsion>
0.8178

> <Gold.PLP.Chemscore.Hbond>
4.0211

> <Gold.PLP.Chemscore.CHOScore>
0.7453

> <Gold.PLP.Chemscore.Metal>
0.0000

> <Gold.Chemscore.Hbonds>
donor molecule, donor type, donor heavy atom, donor atom, acceptor molecule, acceptor atom, score
      L1  H     8    26       P1  7948  1.60
      L1  H     8    40       P1  7949  0.31
      L1  H    13    31       P1  7948  1.00
      P1  H  7989  7998       L1     4  0.78
      L1  C     3    21       P1  8028  0.74

> <Gold.PLP.Chemscore.Internal.Correction>
0.1303

> <Gold.Rescore>
     Score         DG    S(hbond)    S(metal)    S(lipo)     H(rot)  DE(clash)    DE(int)     intcor
     12.18     -14.17       2.33        0.00      57.06       2.26       0.01       1.98       ----

> <Gold.Chemscore.Fitness>
12.1798

> <Gold.Chemscore.DG>
-14.1701

> <Gold.Chemscore.ZeroCoef>
-5.4800

> <Gold.Chemscore.Hbond>
2.3347

> <Gold.Chemscore.Metal>
0.0000

> <Gold.Chemscore.Lipo>
57.0569

> <Gold.Chemscore.Internal_Hbond>
0.0000

> <Gold.Chemscore.DEClash>
0.0126

> <Gold.Chemscore.DEInternal>
1.9776

> <Gold.Chemscore.Rot>
2.2591

> <Gold.Chemscore.Internal.Correction>
   9.000000E+99

> <Gold.Chemscore.Hbonds>
donor molecule, donor type, donor heavy atom, donor atom, acceptor molecule, acceptor atom, score
      L1  H     8    26       P1  7948  0.20
      L1  H     8    40       P1  7949  0.05
      L1  H    13    31       P1  7948  0.58
      P1  H  7989  7998       L1     4  0.06

> <Gold.Chemscore.Hbond.Weighted>
-7.7978

> <Gold.Chemscore.Metal.Weighted>
-0.0000

> <Gold.Chemscore.Lipo.Weighted>
-6.6757

> <Gold.Chemscore.Internal_Hbond.Weighted>
0.0000

> <Gold.Chemscore.DEClash.Weighted>
0.0126

> <Gold.Chemscore.DEInternal.Weighted>
1.9776

> <Gold.Chemscore.Rot.Weighted>
5.7834

> <Gold.Chemscore.Internal.Correction.Weighted>
   9.000000E+99

> <Gold.Protein.RotatedTorsions>
[ 6907 6896 6895 6894 ] final -100.75 input  -60.11 | X-H torsion
[ 7974 7965 7964 7962 ] final  -39.70 input  175.53 | X-H torsion
[ 8008 7997 7996 7995 ] final   26.17 input   59.86 | X-H torsion
[ 10167 10162 10161 10158 ] final   48.94 input  -65.29 | X-H torsion
[ 10718 10713 10712 10709 ] final -106.54 input   66.30 | X-H torsion
[ 10763 10752 10751 10750 ] final   51.89 input  -60.55 | X-H torsion
[ 11005 11000 10999 10996 ] final -120.19 input  -57.11 | X-H torsion

> <Gold.Protein.ActiveResidues>
 VAL166  LYS551  ARG553  GLY616  TRP617  ASP618  TYR619  PRO620  LYS621  CYS622 
 ASP623  PHE694  ASN695  SER759  ASP760  ASP761  ALA762  ILE779  LEU786  VAL792 
 PHE793  MET794  SER795  GLU796  ALA797  LYS798  CYS799  TRP800  GLU811  SER814 

> <Gold.Protein.RotatedAtoms>
  150.7128  134.0839  159.3907 H   0  0  0  0  0  0  0  0  0  0  0  0  # atno 6907 bound_to 6896
  151.8823  135.0446  160.0499 H   0  0  0  0  0  0  0  0  0  0  0  0  # atno 6908 bound_to 6896
  152.2558  133.5218  159.5389 H   0  0  0  0  0  0  0  0  0  0  0  0  # atno 6909 bound_to 6896
  146.0372  140.6655  142.9104 H   0  0  0  0  0  0  0  0  0  0  0  0  # atno 7974 bound_to 7965
  155.0231  140.3150  155.4786 H   0  0  0  0  0  0  0  0  0  0  0  0  # atno 8008 bound_to 7997
  156.2888  140.2194  156.5292 H   0  0  0  0  0  0  0  0  0  0  0  0  # atno 8009 bound_to 7997
  154.7435  140.0472  157.0819 H   0  0  0  0  0  0  0  0  0  0  0  0  # atno 8010 bound_to 7997
  140.2880  144.3079  150.6247 H   0  0  0  0  0  0  0  0  0  0  0  0  # atno 10167 bound_to 10162
  156.0395  130.5618  150.7695 H   0  0  0  0  0  0  0  0  0  0  0  0  # atno 10718 bound_to 10713
  152.9786  135.5831  154.4489 H   0  0  0  0  0  0  0  0  0  0  0  0  # atno 10763 bound_to 10752
  154.4080  135.2769  155.2057 H   0  0  0  0  0  0  0  0  0  0  0  0  # atno 10764 bound_to 10752
  154.3859  135.6136  153.5870 H   0  0  0  0  0  0  0  0  0  0  0  0  # atno 10765 bound_to 10752
  141.0161  134.0193  157.3347 H   0  0  0  0  0  0  0  0  0  0  0  0  # atno 11005 bound_to 11000
  144.7057  140.3843  143.7120 LP  0  0  0  0  0  0  0  0  0  0  0  0  # atno 17320 bound_to 7965
  145.6944  139.1646  143.2628 LP  0  0  0  0  0  0  0  0  0  0  0  0  # atno 17321 bound_to 7965
  140.5756  143.2177  151.7521 LP  0  0  0  0  0  0  0  0  0  0  0  0  # atno 17342 bound_to 10162
  139.4945  144.4155  152.0035 LP  0  0  0  0  0  0  0  0  0  0  0  0  # atno 17343 bound_to 10162
  157.5193  131.0930  151.0099 LP  0  0  0  0  0  0  0  0  0  0  0  0  # atno 17370 bound_to 10713
  157.0434  130.5758  149.5359 LP  0  0  0  0  0  0  0  0  0  0  0  0  # atno 17371 bound_to 10713
  139.9118  135.0191  156.7722 LP  0  0  0  0  0  0  0  0  0  0  0  0  # atno 17394 bound_to 11000
  140.6652  133.9609  155.7826 LP  0  0  0  0  0  0  0  0  0  0  0  0  # atno 17395 bound_to 11000

$$$$
