AV-unprocessed.smi:3350|AV-procd|sdf|12942|dock6
  -GOLD-   2272019373D 1   1.00000     0.00000
 Structure written by MMmdl.
 41 42  0  0  0  0  0  0  0  0  1 V2000
  144.0863  137.1210  152.6782 C   0  0  0  0  0  0  0  0  0  0  0  0
  145.0622  135.9590  152.4501 C   0  0  1  0  0  0  0  0  0  0  0  0
  145.1001  135.5407  150.9654 C   0  0  0  0  0  0  0  0  0  0  0  0
  145.2932  134.1116  150.7907 N   0  0  0  0  0  0  0  0  0  0  0  0
  144.4531  133.2013  150.1845 C   0  0  0  0  0  0  0  0  0  0  0  0
  145.0529  131.9776  150.2672 C   0  0  0  0  0  0  0  0  0  0  0  0
  146.2731  132.2446  150.9487 C   0  0  0  0  0  0  0  0  0  0  0  0
  146.4158  133.5230  151.2581 N   0  0  0  0  0  0  0  0  0  0  0  0
  146.3906  136.3575  152.9136 N   0  0  0  0  0  0  0  0  0  0  0  0
  146.6592  136.9874  154.0666 C   0  0  0  0  0  0  0  0  0  0  0  0
  145.8051  137.3205  154.8886 O   0  0  0  0  0  0  0  0  0  0  0  0
  147.9737  137.2028  154.2160 N   0  0  0  0  0  0  0  0  0  0  0  0
  148.6027  137.8571  155.3606 C   0  0  1  0  0  0  0  0  0  0  0  0
  149.0832  136.7713  156.3358 C   0  0  0  0  0  0  0  0  0  0  0  0
  149.7547  138.7642  154.8802 C   0  0  2  0  0  0  0  0  0  0  0  0
  151.0091  138.0167  154.4224 C   0  0  0  0  0  0  0  0  0  0  0  0
  152.1332  139.0181  154.6444 C   0  0  0  0  0  0  0  0  0  0  0  0
  151.4971  140.1062  155.5125 C   0  0  0  0  0  0  0  0  0  0  0  0
  150.2629  139.5535  155.9454 O   0  0  0  0  0  0  0  0  0  0  0  0
  143.0742  136.8475  152.3787 H   0  0  0  0  0  0  0  0  0  0  0  0
  144.3757  138.0022  152.1047 H   0  0  0  0  0  0  0  0  0  0  0  0
  144.0520  137.4044  153.7308 H   0  0  0  0  0  0  0  0  0  0  0  0
  144.6998  135.1150  153.0400 H   0  0  0  0  0  0  0  0  0  0  0  0
  144.1617  135.8092  150.4789 H   0  0  0  0  0  0  0  0  0  0  0  0
  145.8881  136.0783  150.4351 H   0  0  0  0  0  0  0  0  0  0  0  0
  143.5073  133.4965  149.7547 H   0  0  0  0  0  0  0  0  0  0  0  0
  144.6766  131.0350  149.8986 H   0  0  0  0  0  0  0  0  0  0  0  0
  147.0551  131.5527  151.2243 H   0  0  0  0  0  0  0  0  0  0  0  0
  147.1672  136.1234  152.3129 H   0  0  0  0  0  0  0  0  0  0  0  0
  148.5900  136.8893  153.4807 H   0  0  0  0  0  0  0  0  0  0  0  0
  147.8662  138.4690  155.8848 H   0  0  0  0  0  0  0  0  0  0  0  0
  149.5038  137.2080  157.2417 H   0  0  0  0  0  0  0  0  0  0  0  0
  149.8497  136.1413  155.8832 H   0  0  0  0  0  0  0  0  0  0  0  0
  148.2584  136.1260  156.6402 H   0  0  0  0  0  0  0  0  0  0  0  0
  149.4098  139.4290  154.0855 H   0  0  0  0  0  0  0  0  0  0  0  0
  151.1757  137.1402  155.0503 H   0  0  0  0  0  0  0  0  0  0  0  0
  150.9425  137.6802  153.3874 H   0  0  0  0  0  0  0  0  0  0  0  0
  152.9772  138.5455  155.1476 H   0  0  0  0  0  0  0  0  0  0  0  0
  152.4941  139.4354  153.7038 H   0  0  0  0  0  0  0  0  0  0  0  0
  152.1232  140.3873  156.3596 H   0  0  0  0  0  0  0  0  0  0  0  0
  151.3003  141.0022  154.9219 H   0  0  0  0  0  0  0  0  0  0  0  0
  1  2  1  0  0  0  0
  1 20  1  0  0  0  0
  1 21  1  0  0  0  0
  1 22  1  0  0  0  0
  2  3  1  0  0  0  0
  2  9  1  0  0  0  0
  2 23  1  0  0  0  0
  3  4  1  0  0  0  0
  3 24  1  0  0  0  0
  3 25  1  0  0  0  0
  4  8  1  0  0  0  0
  4  5  1  0  0  0  0
  5  6  2  0  0  0  0
  5 26  1  0  0  0  0
  6  7  1  0  0  0  0
  6 27  1  0  0  0  0
  7  8  2  0  0  0  0
  7 28  1  0  0  0  0
  9 10  1  0  0  0  0
  9 29  1  0  0  0  0
 10 11  2  0  0  0  0
 10 12  1  0  0  0  0
 12 13  1  0  0  0  0
 12 30  1  0  0  0  0
 13 14  1  0  0  0  0
 13 15  1  0  0  0  0
 13 31  1  0  0  0  0
 14 32  1  0  0  0  0
 14 33  1  0  0  0  0
 14 34  1  0  0  0  0
 15 19  1  0  0  0  0
 15 16  1  0  0  0  0
 15 35  1  0  0  0  0
 16 17  1  0  0  0  0
 16 36  1  0  0  0  0
 16 37  1  0  0  0  0
 17 18  1  0  0  0  0
 17 38  1  0  0  0  0
 17 39  1  0  0  0  0
 18 19  1  0  0  0  0
 18 40  1  0  0  0  0
 18 41  1  0  0  0  0
M  END
> <s_m_source_file>
AV-unprocessed.smi

> <i_m_source_file_index>
3350

> <i_lp_mmshare_version>
43012

> <i_f3d_flags>
0

> <s_epik_input>
bjFbY0hdW2NIXVtjSF1uMVtDSDJdW0NAQEhdKFtDSDNdKVtOSF1DKD1PKVtOSF1bQ0BIXShbQ0gzXSlbQ0BASF0yW0NIMl1bQ0gyXVtDSDJdTzI=

> <s_epik_cmdline>
J2VwaWtfcHl0aG9uJywgJy1waCcsICc3LjAnLCAnLXRuJywgJzgnLCAnLW1hJywgJzIwMCcsICctbWV0YWxfYmluZGluZycsICctaW1hZScsICc8aW5maWxlLm1hZT4nLCAnLW9tYWUnLCAnPG91dGZpbGUubWFlPic=

> <r_lp_tautomer_probability>
1

> <r_epik_Ionization_Penalty>
6.42349e-05

> <r_epik_Ionization_Penalty_Charging>
0

> <r_epik_Ionization_Penalty_Neutral>
6.42349e-05

> <r_epik_State_Penalty>
-0

> <r_epik_Charging_Adjusted_Penalty>
0

> <i_epik_Tot_Q>
0

> <i_epik_Tot_abs_Q>
0

> <r_epik_Metal_State_Penalty>
-0

> <b_epik_Metal_Only>
0

> <s_lp_Force_Field>
OPLS_2005

> <r_lp_Energy>
15.8996

> <b_lp_Chiralities_Consistent>
1

> <s_lp_Variant>
AV-unprocessed.smi:3350-4

> <Gold.Version>
5.8.1

> <Gold.Id.Protein>
6NUR|6NUR_protein|mol2

> <Gold.PLP.Fitness>
42.1400

> <Gold.PLP.PLP>
-32.1684

> <Gold.PLP.part.hbond>
-2.0000

> <Gold.PLP.part.metal>
0.0000

> <Gold.PLP.part.buried>
-4.6623

> <Gold.PLP.part.nonpolar>
-26.5418

> <Gold.PLP.part.repulsive>
0.2316

> <Gold.PLP.ligand.clash>
0.0000

> <Gold.PLP.ligand.torsion>
1.0501

> <Gold.PLP.Chemscore.Hbond>
2.0000

> <Gold.PLP.Chemscore.CHOScore>
2.0000

> <Gold.PLP.Chemscore.Metal>
0.0000

> <Gold.Chemscore.Hbonds>
donor molecule, donor type, donor heavy atom, donor atom, acceptor molecule, acceptor atom, score
      L1  H     9    29       P1  7948  1.00
      L1  H    12    30       P1  7948  1.00
      L1  C     5    26       P1 10186  0.64
      L1  C     7    28       P1 10747  1.00

> <Gold.PLP.Chemscore.Internal.Correction>
0.0718

> <Gold.Rescore>
     Score         DG    S(hbond)    S(metal)    S(lipo)     H(rot)  DE(clash)    DE(int)     intcor
     13.85     -16.06       1.94        0.00      74.80       1.82       0.00       2.21       ----

> <Gold.Chemscore.Fitness>
13.8463

> <Gold.Chemscore.DG>
-16.0592

> <Gold.Chemscore.ZeroCoef>
-5.4800

> <Gold.Chemscore.Hbond>
1.9419

> <Gold.Chemscore.Metal>
0.0000

> <Gold.Chemscore.Lipo>
74.7991

> <Gold.Chemscore.Internal_Hbond>
0.0000

> <Gold.Chemscore.DEClash>
0.0025

> <Gold.Chemscore.DEInternal>
2.2103

> <Gold.Chemscore.Rot>
1.8197

> <Gold.Chemscore.Internal.Correction>
   9.000000E+99

> <Gold.Chemscore.Hbonds>
donor molecule, donor type, donor heavy atom, donor atom, acceptor molecule, acceptor atom, score
      L1  H     9    29       P1  7948  0.97
      L1  H    12    30       P1  7948  0.98

> <Gold.Chemscore.Hbond.Weighted>
-6.4860

> <Gold.Chemscore.Metal.Weighted>
-0.0000

> <Gold.Chemscore.Lipo.Weighted>
-8.7515

> <Gold.Chemscore.Internal_Hbond.Weighted>
0.0000

> <Gold.Chemscore.DEClash.Weighted>
0.0025

> <Gold.Chemscore.DEInternal.Weighted>
2.2103

> <Gold.Chemscore.Rot.Weighted>
4.6583

> <Gold.Chemscore.Internal.Correction.Weighted>
   9.000000E+99

> <Gold.Protein.RotatedTorsions>
[ 6907 6896 6895 6894 ] final -178.81 input  -60.11 | X-H torsion
[ 7974 7965 7964 7962 ] final  154.32 input  175.53 | X-H torsion
[ 8008 7997 7996 7995 ] final  -52.27 input   59.86 | X-H torsion
[ 10167 10162 10161 10158 ] final -179.34 input  -65.29 | X-H torsion
[ 10718 10713 10712 10709 ] final -145.94 input   66.30 | X-H torsion
[ 10763 10752 10751 10750 ] final  129.41 input  -60.55 | X-H torsion
[ 11005 11000 10999 10996 ] final -148.04 input  -57.11 | X-H torsion

> <Gold.Protein.ActiveResidues>
 VAL166  LYS551  ARG553  GLY616  TRP617  ASP618  TYR619  PRO620  LYS621  CYS622 
 ASP623  PHE694  ASN695  SER759  ASP760  ASP761  ALA762  ILE779  LEU786  VAL792 
 PHE793  MET794  SER795  GLU796  ALA797  LYS798  CYS799  TRP800  GLU811  SER814 

> <Gold.Protein.RotatedAtoms>
  151.6432  133.3325  159.3134 H   0  0  0  0  0  0  0  0  0  0  0  0  # atno 6907 bound_to 6896
  150.7997  134.7086  159.6600 H   0  0  0  0  0  0  0  0  0  0  0  0  # atno 6908 bound_to 6896
  152.4088  134.6165  160.0091 H   0  0  0  0  0  0  0  0  0  0  0  0  # atno 6909 bound_to 6896
  144.8096  139.6918  143.6147 H   0  0  0  0  0  0  0  0  0  0  0  0  # atno 7974 bound_to 7965
  154.4102  140.1228  156.4964 H   0  0  0  0  0  0  0  0  0  0  0  0  # atno 8008 bound_to 7997
  155.6938  140.3495  155.4885 H   0  0  0  0  0  0  0  0  0  0  0  0  # atno 8009 bound_to 7997
  155.9445  140.1093  157.1018 H   0  0  0  0  0  0  0  0  0  0  0  0  # atno 8010 bound_to 7997
  139.5390  144.2415  152.0856 H   0  0  0  0  0  0  0  0  0  0  0  0  # atno 10167 bound_to 10162
  156.3887  130.7874  151.2074 H   0  0  0  0  0  0  0  0  0  0  0  0  # atno 10718 bound_to 10713
  153.7413  135.3224  155.3304 H   0  0  0  0  0  0  0  0  0  0  0  0  # atno 10763 bound_to 10752
  154.8294  135.4545  154.1024 H   0  0  0  0  0  0  0  0  0  0  0  0  # atno 10764 bound_to 10752
  153.2199  135.6947  153.8094 H   0  0  0  0  0  0  0  0  0  0  0  0  # atno 10765 bound_to 10752
  140.7653  134.3251  157.5090 H   0  0  0  0  0  0  0  0  0  0  0  0  # atno 11005 bound_to 11000
  146.2393  139.5969  142.9502 LP  0  0  0  0  0  0  0  0  0  0  0  0  # atno 17320 bound_to 7965
  145.5354  141.0424  143.2360 LP  0  0  0  0  0  0  0  0  0  0  0  0  # atno 17321 bound_to 7965
  140.1890  144.4770  150.6489 LP  0  0  0  0  0  0  0  0  0  0  0  0  # atno 17342 bound_to 10162
  140.6612  143.2252  151.5852 LP  0  0  0  0  0  0  0  0  0  0  0  0  # atno 17343 bound_to 10162
  157.7497  131.0322  150.4216 LP  0  0  0  0  0  0  0  0  0  0  0  0  # atno 17370 bound_to 10713
  156.4473  130.4004  149.6658 LP  0  0  0  0  0  0  0  0  0  0  0  0  # atno 17371 bound_to 10713
  139.8764  134.9227  156.3308 LP  0  0  0  0  0  0  0  0  0  0  0  0  # atno 17394 bound_to 11000
  140.9625  133.7379  156.0420 LP  0  0  0  0  0  0  0  0  0  0  0  0  # atno 17395 bound_to 11000

$$$$
