AV-unprocessed.smi:1142|AV-procd|sdf|4873|dock10
  -GOLD-   22720 3443D 1   1.00000     0.00000
 Structure written by MMmdl.
 33 34  0  0  0  0  0  0  0  0  1 V2000
  146.3386  142.8538  153.9671 C   0  0  0  0  0  0  0  0  0  0  0  0
  147.3523  142.1912  154.1226 C   0  0  0  0  0  0  0  0  0  0  0  0
  148.5737  141.3873  154.2962 C   0  0  0  0  0  0  0  0  0  0  0  0
  149.4021  141.8585  155.3998 N   0  0  0  0  0  0  0  0  0  0  0  0
  150.5303  141.2705  155.8318 C   0  0  0  0  0  0  0  0  0  0  0  0
  151.0054  140.2536  155.3249 O   0  0  0  0  0  0  0  0  0  0  0  0
  151.2155  141.9695  156.9770 C   0  0  0  0  0  0  0  0  0  0  0  0
  151.3222  143.3797  156.9615 C   0  0  0  0  0  0  0  0  0  0  0  0
  151.9175  144.0444  158.0479 C   0  0  0  0  0  0  0  0  0  0  0  0
  152.3815  143.2716  159.1255 C   0  0  0  0  0  0  0  0  0  0  0  0
  152.2873  141.9276  159.1621 N   0  0  0  0  0  0  0  0  0  0  0  0
  151.7189  141.2747  158.1176 C   0  0  0  0  0  0  0  0  0  0  0  0
  151.6905  139.8671  158.1972 N   0  0  0  0  0  0  0  0  0  0  0  0
  150.3874  139.2134  158.1253 C   0  0  0  0  0  0  0  0  0  0  0  0
  150.5737  137.6937  157.9761 C   0  0  0  0  0  0  0  0  0  0  0  0
  151.3728  137.2024  159.0490 O   0  0  0  0  0  0  0  0  0  0  0  0
  152.6695  137.7930  159.0659 C   0  0  0  0  0  0  0  0  0  0  0  0
  152.5431  139.3155  159.2435 C   0  0  0  0  0  0  0  0  0  0  0  0
  145.4542  143.4347  153.8294 H   0  0  0  0  0  0  0  0  0  0  0  0
  148.2886  140.3423  154.4277 H   0  0  0  0  0  0  0  0  0  0  0  0
  149.1496  141.4480  153.3727 H   0  0  0  0  0  0  0  0  0  0  0  0
  149.0965  142.6977  155.8706 H   0  0  0  0  0  0  0  0  0  0  0  0
  150.9429  143.9568  156.1304 H   0  0  0  0  0  0  0  0  0  0  0  0
  152.0085  145.1205  158.0580 H   0  0  0  0  0  0  0  0  0  0  0  0
  152.8411  143.7441  159.9809 H   0  0  0  0  0  0  0  0  0  0  0  0
  149.8169  139.4268  159.0303 H   0  0  0  0  0  0  0  0  0  0  0  0
  149.8204  139.6064  157.2806 H   0  0  0  0  0  0  0  0  0  0  0  0
  149.6059  137.1925  157.9945 H   0  0  0  0  0  0  0  0  0  0  0  0
  151.0410  137.4512  157.0203 H   0  0  0  0  0  0  0  0  0  0  0  0
  153.2447  137.3654  159.8869 H   0  0  0  0  0  0  0  0  0  0  0  0
  153.2023  137.5533  158.1438 H   0  0  0  0  0  0  0  0  0  0  0  0
  153.5318  139.7741  159.2230 H   0  0  0  0  0  0  0  0  0  0  0  0
  152.1068  139.5439  160.2169 H   0  0  0  0  0  0  0  0  0  0  0  0
  1  2  3  0  0  0  0
  1 19  1  0  0  0  0
  2  3  1  0  0  0  0
  3  4  1  0  0  0  0
  3 20  1  0  0  0  0
  3 21  1  0  0  0  0
  4  5  1  0  0  0  0
  4 22  1  0  0  0  0
  5  6  2  0  0  0  0
  5  7  1  0  0  0  0
  7 12  1  0  0  0  0
  7  8  2  0  0  0  0
  8  9  1  0  0  0  0
  8 23  1  0  0  0  0
  9 10  2  0  0  0  0
  9 24  1  0  0  0  0
 10 11  1  0  0  0  0
 10 25  1  0  0  0  0
 11 12  2  0  0  0  0
 12 13  1  0  0  0  0
 13 18  1  0  0  0  0
 13 14  1  0  0  0  0
 14 15  1  0  0  0  0
 14 26  1  0  0  0  0
 14 27  1  0  0  0  0
 15 16  1  0  0  0  0
 15 28  1  0  0  0  0
 15 29  1  0  0  0  0
 16 17  1  0  0  0  0
 17 18  1  0  0  0  0
 17 30  1  0  0  0  0
 17 31  1  0  0  0  0
 18 32  1  0  0  0  0
 18 33  1  0  0  0  0
M  END
> <s_m_source_file>
AV-unprocessed.smi

> <i_m_source_file_index>
1142

> <i_lp_mmshare_version>
43012

> <i_f3d_flags>
0

> <s_epik_input>
W0NIXSNDW0NIMl1bTkhdQyg9TyljMVtjSF1bY0hdW2NIXW5jMU4yW0NIMl1bQ0gyXU9bQ0gyXVtDSDJdMg==

> <s_epik_cmdline>
J2VwaWtfcHl0aG9uJywgJy1waCcsICc3LjAnLCAnLXRuJywgJzgnLCAnLW1hJywgJzIwMCcsICctbWV0YWxfYmluZGluZycsICctaW1hZScsICc8aW5maWxlLm1hZT4nLCAnLW9tYWUnLCAnPG91dGZpbGUubWFlPic=

> <r_lp_tautomer_probability>
1

> <r_epik_Ionization_Penalty>
1.59202e-05

> <r_epik_Ionization_Penalty_Charging>
0

> <r_epik_Ionization_Penalty_Neutral>
1.59202e-05

> <r_epik_State_Penalty>
-0

> <r_epik_Charging_Adjusted_Penalty>
0

> <i_epik_Tot_Q>
0

> <i_epik_Tot_abs_Q>
0

> <r_epik_Metal_State_Penalty>
0.00596736

> <b_epik_Metal_Only>
0

> <s_lp_Force_Field>
OPLS_2005

> <r_lp_Energy>
22.9222

> <b_lp_Chiralities_Consistent>
1

> <s_lp_Variant>
AV-unprocessed.smi:1142-1

> <Gold.Version>
5.8.1

> <Gold.Id.Protein>
6NUR|6NUR_protein|mol2

> <Gold.PLP.Fitness>
42.8062

> <Gold.PLP.PLP>
-37.1935

> <Gold.PLP.part.hbond>
-2.5115

> <Gold.PLP.part.metal>
0.0000

> <Gold.PLP.part.buried>
-5.3764

> <Gold.PLP.part.nonpolar>
-28.7355

> <Gold.PLP.part.repulsive>
0.1946

> <Gold.PLP.ligand.clash>
0.0000

> <Gold.PLP.ligand.torsion>
0.9212

> <Gold.PLP.Chemscore.Hbond>
2.4073

> <Gold.PLP.Chemscore.CHOScore>
0.0000

> <Gold.PLP.Chemscore.Metal>
0.0000

> <Gold.Chemscore.Hbonds>
donor molecule, donor type, donor heavy atom, donor atom, acceptor molecule, acceptor atom, score
      L1  H     4    22       P1  8028  0.84
      P1  H  6896  6909       L1    16  0.50
      P1  H  7989  7998       L1     6  1.00

> <Gold.PLP.Chemscore.Internal.Correction>
0.2333

> <Gold.Rescore>
     Score         DG    S(hbond)    S(metal)    S(lipo)     H(rot)  DE(clash)    DE(int)     intcor
     15.37     -17.75       1.77        0.00      80.44       1.19       0.33       2.05       ----

> <Gold.Chemscore.Fitness>
15.3671

> <Gold.Chemscore.DG>
-17.7475

> <Gold.Chemscore.ZeroCoef>
-5.4800

> <Gold.Chemscore.Hbond>
1.7661

> <Gold.Chemscore.Metal>
0.0000

> <Gold.Chemscore.Lipo>
80.4435

> <Gold.Chemscore.Internal_Hbond>
0.0000

> <Gold.Chemscore.DEClash>
0.3288

> <Gold.Chemscore.DEInternal>
2.0517

> <Gold.Chemscore.Rot>
1.1887

> <Gold.Chemscore.Internal.Correction>
   9.000000E+99

> <Gold.Chemscore.Hbonds>
donor molecule, donor type, donor heavy atom, donor atom, acceptor molecule, acceptor atom, score
      L1  H     4    22       P1  8028  0.79
      P1  H  6896  6909       L1    16  0.42
      P1  H  7989  7998       L1     6  0.41

> <Gold.Chemscore.Hbond.Weighted>
-5.8988

> <Gold.Chemscore.Metal.Weighted>
-0.0000

> <Gold.Chemscore.Lipo.Weighted>
-9.4119

> <Gold.Chemscore.Internal_Hbond.Weighted>
0.0000

> <Gold.Chemscore.DEClash.Weighted>
0.3288

> <Gold.Chemscore.DEInternal.Weighted>
2.0517

> <Gold.Chemscore.Rot.Weighted>
3.0432

> <Gold.Chemscore.Internal.Correction.Weighted>
   9.000000E+99

> <Gold.Protein.RotatedTorsions>
[ 6907 6896 6895 6894 ] final  104.81 input  -60.11 | X-H torsion
[ 7974 7965 7964 7962 ] final   84.63 input  175.53 | X-H torsion
[ 8008 7997 7996 7995 ] final  -65.07 input   59.86 | X-H torsion
[ 10167 10162 10161 10158 ] final  -90.90 input  -65.29 | X-H torsion
[ 10718 10713 10712 10709 ] final  -10.69 input   66.30 | X-H torsion
[ 10763 10752 10751 10750 ] final   42.42 input  -60.55 | X-H torsion
[ 11005 11000 10999 10996 ] final   -2.60 input  -57.11 | X-H torsion

> <Gold.Protein.ActiveResidues>
 VAL166  LYS551  ARG553  GLY616  TRP617  ASP618  TYR619  PRO620  LYS621  CYS622 
 ASP623  PHE694  ASN695  SER759  ASP760  ASP761  ALA762  ILE779  LEU786  VAL792 
 PHE793  MET794  SER795  GLU796  ALA797  LYS798  CYS799  TRP800  GLU811  SER814 

> <Gold.Protein.RotatedAtoms>
  152.5252  133.9622  159.7722 H   0  0  0  0  0  0  0  0  0  0  0  0  # atno 6907 bound_to 6896
  150.9910  133.6141  159.2715 H   0  0  0  0  0  0  0  0  0  0  0  0  # atno 6908 bound_to 6896
  151.3284  135.0842  159.9383 H   0  0  0  0  0  0  0  0  0  0  0  0  # atno 6909 bound_to 6896
  145.5961  139.2345  143.2272 H   0  0  0  0  0  0  0  0  0  0  0  0  # atno 7974 bound_to 7965
  154.4649  140.0941  156.6994 H   0  0  0  0  0  0  0  0  0  0  0  0  # atno 8008 bound_to 7997
  155.4886  140.3470  155.4333 H   0  0  0  0  0  0  0  0  0  0  0  0  # atno 8009 bound_to 7997
  156.0938  140.1404  156.9546 H   0  0  0  0  0  0  0  0  0  0  0  0  # atno 8010 bound_to 7997
  140.3502  143.2895  151.9734 H   0  0  0  0  0  0  0  0  0  0  0  0  # atno 10167 bound_to 10162
  156.6699  130.5006  149.6003 H   0  0  0  0  0  0  0  0  0  0  0  0  # atno 10718 bound_to 10713
  152.9883  135.6132  154.2946 H   0  0  0  0  0  0  0  0  0  0  0  0  # atno 10763 bound_to 10752
  154.2670  135.2780  155.2756 H   0  0  0  0  0  0  0  0  0  0  0  0  # atno 10764 bound_to 10752
  154.5156  135.5829  153.6696 H   0  0  0  0  0  0  0  0  0  0  0  0  # atno 10765 bound_to 10752
  140.6602  133.9327  155.8431 H   0  0  0  0  0  0  0  0  0  0  0  0  # atno 11005 bound_to 11000
  146.1611  140.6787  142.9277 LP  0  0  0  0  0  0  0  0  0  0  0  0  # atno 17320 bound_to 7965
  144.7330  140.4727  143.6924 LP  0  0  0  0  0  0  0  0  0  0  0  0  # atno 17321 bound_to 7965
  139.4827  144.6082  151.7482 LP  0  0  0  0  0  0  0  0  0  0  0  0  # atno 17342 bound_to 10162
  140.5226  144.0856  150.6027 LP  0  0  0  0  0  0  0  0  0  0  0  0  # atno 17343 bound_to 10162
  156.1947  130.6582  151.1101 LP  0  0  0  0  0  0  0  0  0  0  0  0  # atno 17370 bound_to 10713
  157.7081  131.0747  150.6597 LP  0  0  0  0  0  0  0  0  0  0  0  0  # atno 17371 bound_to 10713
  141.0471  134.0538  157.3830 LP  0  0  0  0  0  0  0  0  0  0  0  0  # atno 17394 bound_to 11000
  139.9015  135.0166  156.7293 LP  0  0  0  0  0  0  0  0  0  0  0  0  # atno 17395 bound_to 11000

$$$$
