AV-unprocessed.smi:2949|AV-procd|sdf|11287|dock4
  -GOLD-   2272016183D 1   1.00000     0.00000
 Structure written by MMmdl.
 34 35  0  0  0  0  0  0  0  0  1 V2000
  152.3269  139.4038  156.6300 N   0  0  0  0  0  0  0  0  0  0  0  0
  151.3588  140.0120  156.0397 C   0  0  0  0  0  0  0  0  0  0  0  0
  150.6426  141.6267  156.5075 S   0  0  0  0  0  0  0  0  0  0  0  0
  149.5291  141.5131  155.1616 C   0  0  0  0  0  0  0  0  0  0  0  0
  149.6938  140.3887  154.4669 C   0  0  0  0  0  0  0  0  0  0  0  0
  150.6793  139.5337  154.9169 N   0  0  0  0  0  0  0  0  0  0  0  0
  151.0250  138.2998  154.2112 C   0  0  0  0  0  0  0  0  0  0  0  0
  150.7974  137.0003  154.9940 C   0  0  0  0  0  0  0  0  0  0  0  0
  151.4491  136.7789  156.0177 O   0  0  0  0  0  0  0  0  0  0  0  0
  149.8632  136.1787  154.4621 N   0  0  0  0  0  0  0  0  0  0  0  0
  149.4057  134.9701  154.8676 C   0  0  0  0  0  0  0  0  0  0  0  0
  149.6278  134.5680  156.0085 O   0  0  0  0  0  0  0  0  0  0  0  0
  148.7096  134.2444  153.9725 N   0  0  0  0  0  0  0  0  0  0  0  0
  148.3803  132.8280  154.1029 C   0  0  0  0  0  0  0  0  0  0  0  0
  147.6836  132.2823  152.8384 C   0  0  0  0  0  0  0  0  0  0  0  0
  146.4164  131.5746  153.3217 C   0  0  0  0  0  0  0  0  0  0  0  0
  146.0438  132.3026  154.6090 C   0  0  0  0  0  0  0  0  0  0  0  0
  147.3903  132.6136  155.2619 C   0  0  0  0  0  0  0  0  0  0  0  0
  152.5284  138.5295  156.1676 H   0  0  0  0  0  0  0  0  0  0  0  0
  148.8132  142.2958  154.9593 H   0  0  0  0  0  0  0  0  0  0  0  0
  149.1347  140.0881  153.5928 H   0  0  0  0  0  0  0  0  0  0  0  0
  150.4758  138.2456  153.2697 H   0  0  0  0  0  0  0  0  0  0  0  0
  152.0784  138.3431  153.9306 H   0  0  0  0  0  0  0  0  0  0  0  0
  149.4331  136.5223  153.6158 H   0  0  0  0  0  0  0  0  0  0  0  0
  148.3815  134.7127  153.1395 H   0  0  0  0  0  0  0  0  0  0  0  0
  149.2922  132.2639  154.3077 H   0  0  0  0  0  0  0  0  0  0  0  0
  147.4011  133.0977  152.1704 H   0  0  0  0  0  0  0  0  0  0  0  0
  148.3305  131.6129  152.2707 H   0  0  0  0  0  0  0  0  0  0  0  0
  145.6165  131.5941  152.5811 H   0  0  0  0  0  0  0  0  0  0  0  0
  146.6396  130.5304  153.5440 H   0  0  0  0  0  0  0  0  0  0  0  0
  145.5268  133.2328  154.3693 H   0  0  0  0  0  0  0  0  0  0  0  0
  145.3909  131.7126  155.2526 H   0  0  0  0  0  0  0  0  0  0  0  0
  147.7085  131.7524  155.8507 H   0  0  0  0  0  0  0  0  0  0  0  0
  147.3300  133.4626  155.9445 H   0  0  0  0  0  0  0  0  0  0  0  0
  1  2  2  0  0  0  0
  1 19  1  0  0  0  0
  2  6  1  0  0  0  0
  2  3  1  0  0  0  0
  3  4  1  0  0  0  0
  4  5  2  0  0  0  0
  4 20  1  0  0  0  0
  5  6  1  0  0  0  0
  5 21  1  0  0  0  0
  6  7  1  0  0  0  0
  7  8  1  0  0  0  0
  7 22  1  0  0  0  0
  7 23  1  0  0  0  0
  8  9  2  0  0  0  0
  8 10  1  0  0  0  0
 10 11  1  0  0  0  0
 10 24  1  0  0  0  0
 11 12  2  0  0  0  0
 11 13  1  0  0  0  0
 13 14  1  0  0  0  0
 13 25  1  0  0  0  0
 14 18  1  0  0  0  0
 14 15  1  0  0  0  0
 14 26  1  0  0  0  0
 15 16  1  0  0  0  0
 15 27  1  0  0  0  0
 15 28  1  0  0  0  0
 16 17  1  0  0  0  0
 16 29  1  0  0  0  0
 16 30  1  0  0  0  0
 17 18  1  0  0  0  0
 17 31  1  0  0  0  0
 17 32  1  0  0  0  0
 18 33  1  0  0  0  0
 18 34  1  0  0  0  0
M  END
> <s_m_source_file>
AV-unprocessed.smi

> <i_m_source_file_index>
2949

> <i_lp_mmshare_version>
43012

> <i_f3d_flags>
0

> <s_epik_input>
W0hdL049YzFcc1tjSF1bY0hdbjFbQ0gyXUMoPU8pW05IXUMoPU8pW05IXVtDSF0yW0NIMl1bQ0gyXVtDSDJdW0NIMl0y

> <s_epik_cmdline>
J2VwaWtfcHl0aG9uJywgJy1waCcsICc3LjAnLCAnLXRuJywgJzgnLCAnLW1hJywgJzIwMCcsICctbWV0YWxfYmluZGluZycsICctaW1hZScsICc8aW5maWxlLm1hZT4nLCAnLW9tYWUnLCAnPG91dGZpbGUubWFlPic=

> <r_epik_Ionization_Penalty>
2.0346

> <r_epik_Ionization_Penalty_Charging>
2.03458

> <r_epik_Ionization_Penalty_Neutral>
2.61125e-05

> <r_epik_State_Penalty>
2.18096

> <r_epik_Charging_Adjusted_Penalty>
4.21554

> <i_epik_Tot_Q>
0

> <i_epik_Tot_abs_Q>
0

> <r_epik_Metal_State_Penalty>
2.18096

> <b_epik_Metal_Only>
0

> <s_lp_Force_Field>
OPLS_2005

> <r_lp_Energy>
19.3427

> <b_lp_Chiralities_Consistent>
1

> <s_lp_Variant>
AV-unprocessed.smi:2949-3

> <Gold.Version>
5.8.1

> <Gold.Id.Protein>
6NUR|6NUR_protein|mol2

> <Gold.PLP.Fitness>
47.6302

> <Gold.PLP.PLP>
-31.0925

> <Gold.PLP.part.hbond>
-4.8793

> <Gold.PLP.part.metal>
0.0000

> <Gold.PLP.part.buried>
1.3038

> <Gold.PLP.part.nonpolar>
-26.3982

> <Gold.PLP.part.repulsive>
0.1350

> <Gold.PLP.ligand.clash>
0.0000

> <Gold.PLP.ligand.torsion>
0.1808

> <Gold.PLP.Chemscore.Hbond>
3.6480

> <Gold.PLP.Chemscore.CHOScore>
1.9767

> <Gold.PLP.Chemscore.Metal>
0.0000

> <Gold.Chemscore.Hbonds>
donor molecule, donor type, donor heavy atom, donor atom, acceptor molecule, acceptor atom, score
      L1  H    10    24       P1  7948  0.96
      L1  H    13    25       P1  7948  0.78
      P1  H  7997  8010       L1     1  0.18
      P1  H 10752 10764       L1     9  0.19
      L1  C     4    20       P1  8028  0.99
      L1  C     5    21       P1  7957  1.00

> <Gold.PLP.Chemscore.Internal.Correction>
0.0254

> <Gold.Rescore>
     Score         DG    S(hbond)    S(metal)    S(lipo)     H(rot)  DE(clash)    DE(int)     intcor
     12.89     -16.02       2.78        0.00      47.56       1.69       0.39       2.74       ----

> <Gold.Chemscore.Fitness>
12.8872

> <Gold.Chemscore.DG>
-16.0186

> <Gold.Chemscore.ZeroCoef>
-5.4800

> <Gold.Chemscore.Hbond>
2.7825

> <Gold.Chemscore.Metal>
0.0000

> <Gold.Chemscore.Lipo>
47.5560

> <Gold.Chemscore.Internal_Hbond>
0.0000

> <Gold.Chemscore.DEClash>
0.3908

> <Gold.Chemscore.DEInternal>
2.7405

> <Gold.Chemscore.Rot>
1.6871

> <Gold.Chemscore.Internal.Correction>
   9.000000E+99

> <Gold.Chemscore.Hbonds>
donor molecule, donor type, donor heavy atom, donor atom, acceptor molecule, acceptor atom, score
      L1  H    10    24       P1  7948  0.76
      L1  H    13    25       P1  7948  0.44
      P1  H  7997  8010       L1     1  0.01
      P1  H 10752 10764       L1     9  0.02

> <Gold.Chemscore.Hbond.Weighted>
-9.2936

> <Gold.Chemscore.Metal.Weighted>
-0.0000

> <Gold.Chemscore.Lipo.Weighted>
-5.5641

> <Gold.Chemscore.Internal_Hbond.Weighted>
0.0000

> <Gold.Chemscore.DEClash.Weighted>
0.3908

> <Gold.Chemscore.DEInternal.Weighted>
2.7405

> <Gold.Chemscore.Rot.Weighted>
4.3191

> <Gold.Chemscore.Internal.Correction.Weighted>
   9.000000E+99

> <Gold.Protein.RotatedTorsions>
[ 6907 6896 6895 6894 ] final  132.08 input  -60.11 | X-H torsion
[ 7974 7965 7964 7962 ] final   90.85 input  175.53 | X-H torsion
[ 8008 7997 7996 7995 ] final   95.15 input   59.86 | X-H torsion
[ 10167 10162 10161 10158 ] final   12.60 input  -65.29 | X-H torsion
[ 10718 10713 10712 10709 ] final   45.48 input   66.30 | X-H torsion
[ 10763 10752 10751 10750 ] final  -42.75 input  -60.55 | X-H torsion
[ 11005 11000 10999 10996 ] final -172.52 input  -57.11 | X-H torsion

> <Gold.Protein.ActiveResidues>
 VAL166  LYS551  ARG553  GLY616  TRP617  ASP618  TYR619  PRO620  LYS621  CYS622 
 ASP623  PHE694  ASN695  SER759  ASP760  ASP761  ALA762  ILE779  LEU786  VAL792 
 PHE793  MET794  SER795  GLU796  ALA797  LYS798  CYS799  TRP800  GLU811  SER814 

> <Gold.Protein.RotatedAtoms>
  152.3361  133.6013  159.5843 H   0  0  0  0  0  0  0  0  0  0  0  0  # atno 6907 bound_to 6896
  150.7451  133.9794  159.3580 H   0  0  0  0  0  0  0  0  0  0  0  0  # atno 6908 bound_to 6896
  151.7664  135.0798  160.0404 H   0  0  0  0  0  0  0  0  0  0  0  0  # atno 6909 bound_to 6896
  145.5135  139.2277  143.2711 H   0  0  0  0  0  0  0  0  0  0  0  0  # atno 7974 bound_to 7965
  156.0657  140.3290  155.7515 H   0  0  0  0  0  0  0  0  0  0  0  0  # atno 8008 bound_to 7997
  155.5384  140.0599  157.2892 H   0  0  0  0  0  0  0  0  0  0  0  0  # atno 8009 bound_to 7997
  154.4504  140.1915  156.0555 H   0  0  0  0  0  0  0  0  0  0  0  0  # atno 8010 bound_to 7997
  140.6057  143.8513  150.7011 H   0  0  0  0  0  0  0  0  0  0  0  0  # atno 10167 bound_to 10162
  157.4380  130.8064  149.7666 H   0  0  0  0  0  0  0  0  0  0  0  0  # atno 10718 bound_to 10713
  153.9842  135.6713  153.4751 H   0  0  0  0  0  0  0  0  0  0  0  0  # atno 10763 bound_to 10752
  153.0734  135.4961  154.8350 H   0  0  0  0  0  0  0  0  0  0  0  0  # atno 10764 bound_to 10752
  154.7147  135.3104  154.9104 H   0  0  0  0  0  0  0  0  0  0  0  0  # atno 10765 bound_to 10752
  140.4960  134.5939  157.4971 H   0  0  0  0  0  0  0  0  0  0  0  0  # atno 11005 bound_to 11000
  146.2151  140.5943  142.9042 LP  0  0  0  0  0  0  0  0  0  0  0  0  # atno 17320 bound_to 7965
  144.7714  140.5646  143.6667 LP  0  0  0  0  0  0  0  0  0  0  0  0  # atno 17321 bound_to 7965
  140.2069  143.3914  152.1748 LP  0  0  0  0  0  0  0  0  0  0  0  0  # atno 17342 bound_to 10162
  139.5323  144.7172  151.5013 LP  0  0  0  0  0  0  0  0  0  0  0  0  # atno 17343 bound_to 10162
  155.9938  130.3922  150.2886 LP  0  0  0  0  0  0  0  0  0  0  0  0  # atno 17370 bound_to 10713
  157.1049  131.0205  151.3071 LP  0  0  0  0  0  0  0  0  0  0  0  0  # atno 17371 bound_to 10713
  139.9741  134.7244  155.9984 LP  0  0  0  0  0  0  0  0  0  0  0  0  # atno 17394 bound_to 11000
  141.1460  133.6556  156.3868 LP  0  0  0  0  0  0  0  0  0  0  0  0  # atno 17395 bound_to 11000

$$$$
