AV-unprocessed.smi:2556|AV-procd|sdf|10026|dock1
  -GOLD-   2272014 73D 1   1.00000     0.00000
 Structure written by MMmdl.
 34 36  0  0  0  0  0  0  0  0  2 V2000
  152.6957  142.5273  160.4886 C   0  0  0  0  0  0  0  0  0  0  0  0
  152.6076  141.4742  159.4724 N   0  0  0  0  0  0  0  0  0  0  0  0
  153.5032  140.4372  159.3881 C   0  0  0  0  0  0  0  0  0  0  0  0
  154.4220  140.3812  160.2058 O   0  0  0  0  0  0  0  0  0  0  0  0
  153.3590  139.4851  158.3998 N   0  5  0  0  0  0  0  0  0  0  0  0
  152.3722  139.4526  157.4487 C   0  0  0  0  0  0  0  0  0  0  0  0
  152.2267  138.6171  156.5579 O   0  0  0  0  0  0  0  0  0  0  0  0
  151.4299  140.5796  157.5929 C   0  0  0  0  0  0  0  0  0  0  0  0
  151.5322  141.5441  158.5476 C   0  0  0  0  0  0  0  0  0  0  0  0
  150.5059  142.4768  158.4435 N   0  0  0  0  0  0  0  0  0  0  0  0
  149.8168  142.0122  157.4006 C   0  0  0  0  0  0  0  0  0  0  0  0
  150.2990  140.8855  156.8374 N   0  0  0  0  0  0  0  0  0  0  0  0
  149.7333  140.1813  155.6974 C   0  0  0  0  0  0  0  0  0  0  0  0
  149.3430  141.1304  154.5473 C   0  0  1  0  0  0  0  0  0  0  0  0
  149.5608  140.4945  153.3017 O   0  0  0  0  0  0  0  0  0  0  0  0
  147.9136  141.6256  154.7037 C   0  0  0  0  0  0  0  0  0  0  0  0
  147.2942  142.3838  153.6851 C   0  0  0  0  0  0  0  0  0  0  0  0
  145.9666  142.8286  153.8387 C   0  0  0  0  0  0  0  0  0  0  0  0
  145.2492  142.5151  155.0092 C   0  0  0  0  0  0  0  0  0  0  0  0
  145.8595  141.7541  156.0247 C   0  0  0  0  0  0  0  0  0  0  0  0
  147.1873  141.3095  155.8717 C   0  0  0  0  0  0  0  0  0  0  0  0
  153.5723  142.4599  161.1335 H   0  0  0  0  0  0  0  0  0  0  0  0
  151.8144  142.4968  161.1296 H   0  0  0  0  0  0  0  0  0  0  0  0
  152.7261  143.5050  160.0069 H   0  0  0  0  0  0  0  0  0  0  0  0
  148.9282  142.5058  157.0354 H   0  0  0  0  0  0  0  0  0  0  0  0
  150.4594  139.4454  155.3491 H   0  0  0  0  0  0  0  0  0  0  0  0
  148.8667  139.6138  156.0376 H   0  0  0  0  0  0  0  0  0  0  0  0
  150.0022  141.9989  154.5645 H   0  0  0  0  0  0  0  0  0  0  0  0
  150.3494  139.9778  153.3659 H   0  0  0  0  0  0  0  0  0  0  0  0
  147.8336  142.6248  152.7806 H   0  0  0  0  0  0  0  0  0  0  0  0
  145.4980  143.4086  153.0575 H   0  0  0  0  0  0  0  0  0  0  0  0
  144.2308  142.8553  155.1264 H   0  0  0  0  0  0  0  0  0  0  0  0
  145.3090  141.5093  156.9209 H   0  0  0  0  0  0  0  0  0  0  0  0
  147.6459  140.7214  156.6536 H   0  0  0  0  0  0  0  0  0  0  0  0
  1  2  1  0  0  0  0
  1 22  1  0  0  0  0
  1 23  1  0  0  0  0
  1 24  1  0  0  0  0
  2  9  1  0  0  0  0
  2  3  1  0  0  0  0
  3  4  2  0  0  0  0
  3  5  1  0  0  0  0
  5  6  1  0  0  0  0
  6  7  2  0  0  0  0
  6  8  1  0  0  0  0
  8 12  1  0  0  0  0
  8  9  2  0  0  0  0
  9 10  1  0  0  0  0
 10 11  2  0  0  0  0
 11 12  1  0  0  0  0
 11 25  1  0  0  0  0
 12 13  1  0  0  0  0
 13 14  1  0  0  0  0
 13 26  1  0  0  0  0
 13 27  1  0  0  0  0
 14 15  1  0  0  0  0
 14 16  1  0  0  0  0
 14 28  1  0  0  0  0
 15 29  1  0  0  0  0
 16 21  1  0  0  0  0
 16 17  2  0  0  0  0
 17 18  1  0  0  0  0
 17 30  1  0  0  0  0
 18 19  2  0  0  0  0
 18 31  1  0  0  0  0
 19 20  1  0  0  0  0
 19 32  1  0  0  0  0
 20 21  2  0  0  0  0
 20 33  1  0  0  0  0
 21 34  1  0  0  0  0
M  CHG  1   5  -1
M  END
> <s_m_source_file>
AV-unprocessed.smi

> <i_m_source_file_index>
2556

> <i_lp_mmshare_version>
43012

> <i_f3d_flags>
0

> <s_epik_input>
Tz1jMVtuSF1jKD1PKW4oW0NIM10pYyhjMTIpbltjSF1uMltDSDJdW0NASF0oW09IXSljM1tjSF1bY0hdW2NIXVtjSF1bY0hdMw==

> <s_epik_cmdline>
J2VwaWtfcHl0aG9uJywgJy1waCcsICc3LjAnLCAnLXRuJywgJzgnLCAnLW1hJywgJzIwMCcsICctbWV0YWxfYmluZGluZycsICctaW1hZScsICc8aW5maWxlLm1hZT4nLCAnLW9tYWUnLCAnPG91dGZpbGUubWFlPic=

> <r_lp_tautomer_probability>
1

> <r_epik_Ionization_Penalty>
4.84872

> <r_epik_Ionization_Penalty_Charging>
0.03865

> <r_epik_Ionization_Penalty_Neutral>
4.81007

> <r_epik_State_Penalty>
4.80988

> <r_epik_Charging_Adjusted_Penalty>
4.84853

> <i_epik_Tot_Q>
-1

> <i_epik_Tot_abs_Q>
1

> <r_epik_Metal_State_Penalty>
0.994041

> <b_epik_Metal_Only>
1

> <s_lp_Force_Field>
OPLS_2005

> <r_lp_Energy>
31.8708

> <b_lp_Chiralities_Consistent>
1

> <s_lp_Variant>
AV-unprocessed.smi:2556-4

> <Gold.Version>
5.8.1

> <Gold.Id.Protein>
6NUR|6NUR_protein|mol2

> <Gold.PLP.Fitness>
46.7010

> <Gold.PLP.PLP>
-37.1475

> <Gold.PLP.part.hbond>
-3.0582

> <Gold.PLP.part.metal>
0.0000

> <Gold.PLP.part.buried>
-4.0954

> <Gold.PLP.part.nonpolar>
-29.2942

> <Gold.PLP.part.repulsive>
0.0915

> <Gold.PLP.ligand.clash>
0.0000

> <Gold.PLP.ligand.torsion>
0.7394

> <Gold.PLP.Chemscore.Hbond>
2.8500

> <Gold.PLP.Chemscore.CHOScore>
0.8165

> <Gold.PLP.Chemscore.Metal>
0.0000

> <Gold.Chemscore.Hbonds>
donor molecule, donor type, donor heavy atom, donor atom, acceptor molecule, acceptor atom, score
      P1  H  7997  8010       L1     5  0.70
      P1  H  8011  8017       L1    15  0.38
      L1  C    11    25       P1  8028  0.76

> <Gold.PLP.Chemscore.Internal.Correction>
0.0329

> <Gold.Rescore>
     Score         DG    S(hbond)    S(metal)    S(lipo)     H(rot)  DE(clash)    DE(int)     intcor
      5.88      -6.65       0.11        0.00      56.84       2.28       0.02       0.75       ----

> <Gold.Chemscore.Fitness>
5.8827

> <Gold.Chemscore.DG>
-6.6533

> <Gold.Chemscore.ZeroCoef>
-5.4800

> <Gold.Chemscore.Hbond>
0.1094

> <Gold.Chemscore.Metal>
0.0000

> <Gold.Chemscore.Lipo>
56.8449

> <Gold.Chemscore.Internal_Hbond>
0.0000

> <Gold.Chemscore.DEClash>
0.0193

> <Gold.Chemscore.DEInternal>
0.7513

> <Gold.Chemscore.Rot>
2.2824

> <Gold.Chemscore.Internal.Correction>
   9.000000E+99

> <Gold.Chemscore.Hbonds>
donor molecule, donor type, donor heavy atom, donor atom, acceptor molecule, acceptor atom, score
      P1  H  8011  8017       L1    15  0.02

> <Gold.Chemscore.Hbond.Weighted>
-0.3655

> <Gold.Chemscore.Metal.Weighted>
-0.0000

> <Gold.Chemscore.Lipo.Weighted>
-6.6509

> <Gold.Chemscore.Internal_Hbond.Weighted>
0.0000

> <Gold.Chemscore.DEClash.Weighted>
0.0193

> <Gold.Chemscore.DEInternal.Weighted>
0.7513

> <Gold.Chemscore.Rot.Weighted>
5.8431

> <Gold.Chemscore.Internal.Correction.Weighted>
   9.000000E+99

> <Gold.Protein.RotatedTorsions>
[ 6907 6896 6895 6894 ] final   10.62 input  -60.11 | X-H torsion
[ 7974 7965 7964 7962 ] final  121.03 input  175.53 | X-H torsion
[ 8008 7997 7996 7995 ] final   39.10 input   59.86 | X-H torsion
[ 10167 10162 10161 10158 ] final  -55.24 input  -65.29 | X-H torsion
[ 10718 10713 10712 10709 ] final   82.41 input   66.30 | X-H torsion
[ 10763 10752 10751 10750 ] final  159.52 input  -60.55 | X-H torsion
[ 11005 11000 10999 10996 ] final -164.59 input  -57.11 | X-H torsion

> <Gold.Protein.ActiveResidues>
 VAL166  LYS551  ARG553  GLY616  TRP617  ASP618  TYR619  PRO620  LYS621  CYS622 
 ASP623  PHE694  ASN695  SER759  ASP760  ASP761  ALA762  ILE779  LEU786  VAL792 
 PHE793  MET794  SER795  GLU796  ALA797  LYS798  CYS799  TRP800  GLU811  SER814 

> <Gold.Protein.RotatedAtoms>
  151.7412  135.0854  160.0315 H   0  0  0  0  0  0  0  0  0  0  0  0  # atno 6907 bound_to 6896
  152.3478  133.6139  159.5931 H   0  0  0  0  0  0  0  0  0  0  0  0  # atno 6908 bound_to 6896
  150.7520  133.9537  159.3535 H   0  0  0  0  0  0  0  0  0  0  0  0  # atno 6909 bound_to 6896
  145.1241  139.3370  143.4699 H   0  0  0  0  0  0  0  0  0  0  0  0  # atno 7974 bound_to 7965
  155.2311  140.3338  155.4303 H   0  0  0  0  0  0  0  0  0  0  0  0  # atno 8008 bound_to 7997
  156.2294  140.1844  156.7326 H   0  0  0  0  0  0  0  0  0  0  0  0  # atno 8009 bound_to 7997
  154.5953  140.0631  156.9280 H   0  0  0  0  0  0  0  0  0  0  0  0  # atno 8010 bound_to 7997
  140.6385  143.2495  151.5052 H   0  0  0  0  0  0  0  0  0  0  0  0  # atno 10167 bound_to 10162
  157.6856  131.0046  150.2370 H   0  0  0  0  0  0  0  0  0  0  0  0  # atno 10718 bound_to 10713
  154.2331  135.2777  155.2882 H   0  0  0  0  0  0  0  0  0  0  0  0  # atno 10763 bound_to 10752
  154.5607  135.5648  153.7008 H   0  0  0  0  0  0  0  0  0  0  0  0  # atno 10764 bound_to 10752
  153.0016  135.6297  154.2473 H   0  0  0  0  0  0  0  0  0  0  0  0  # atno 10765 bound_to 10752
  140.5852  134.5100  157.5184 H   0  0  0  0  0  0  0  0  0  0  0  0  # atno 11005 bound_to 11000
  146.3519  140.1213  142.8600 LP  0  0  0  0  0  0  0  0  0  0  0  0  # atno 17320 bound_to 7965
  145.0707  140.9153  143.4883 LP  0  0  0  0  0  0  0  0  0  0  0  0  # atno 17321 bound_to 7965
  139.5595  144.2192  152.1668 LP  0  0  0  0  0  0  0  0  0  0  0  0  # atno 17342 bound_to 10162
  140.1455  144.5162  150.6718 LP  0  0  0  0  0  0  0  0  0  0  0  0  # atno 17343 bound_to 10162
  156.2992  130.3756  149.7767 LP  0  0  0  0  0  0  0  0  0  0  0  0  # atno 17370 bound_to 10713
  156.5402  130.8296  151.3266 LP  0  0  0  0  0  0  0  0  0  0  0  0  # atno 17371 bound_to 10713
  139.9299  134.7984  156.0961 LP  0  0  0  0  0  0  0  0  0  0  0  0  # atno 17394 bound_to 11000
  141.0970  133.6691  156.2668 LP  0  0  0  0  0  0  0  0  0  0  0  0  # atno 17395 bound_to 11000

$$$$
