AV-unprocessed.smi:3143|AV-procd|sdf|11974|dock2
  -GOLD-   2272017373D 1   1.00000     0.00000
 Structure written by MMmdl.
 38 39  0  0  0  0  0  0  0  0  2 V2000
  148.9917  140.0423  156.9387 C   0  0  0  0  0  0  0  0  0  0  0  0
  149.6456  141.1595  156.1101 C   0  0  2  0  0  0  0  0  0  0  0  0
  149.8326  142.3585  156.9596 N   0  3  0  0  0  0  0  0  0  0  0  0
  151.1049  142.3996  157.7113 C   0  0  0  0  0  0  0  0  0  0  0  0
  150.9507  143.2076  159.0083 C   0  0  0  0  0  0  0  0  0  0  0  0
  151.9466  142.8416  159.9976 N   0  0  0  0  0  0  0  0  0  0  0  0
  153.0789  142.0718  159.8313 C   0  0  0  0  0  0  0  0  0  0  0  0
  153.6981  141.9925  161.0459 C   0  0  0  0  0  0  0  0  0  0  0  0
  152.8542  142.7493  161.9059 C   0  0  0  0  0  0  0  0  0  0  0  0
  151.8048  143.2532  161.2761 N   0  0  0  0  0  0  0  0  0  0  0  0
  148.7804  141.4720  154.8723 C   0  0  0  0  0  0  0  0  0  0  0  0
  149.2512  141.2652  153.7526 O   0  0  0  0  0  0  0  0  0  0  0  0
  147.5388  141.9755  155.0420 N   0  0  0  0  0  0  0  0  0  0  0  0
  146.6466  142.2958  153.9285 C   0  0  0  0  0  0  0  0  0  0  0  0
  145.2807  142.5735  154.5559 C   0  0  0  0  0  0  0  0  0  0  0  0
  145.6095  143.0301  155.9698 C   0  0  0  0  0  0  0  0  0  0  0  0
  146.8886  142.2694  156.3195 C   0  0  0  0  0  0  0  0  0  0  0  0
  148.8523  139.1351  156.3498 H   0  0  0  0  0  0  0  0  0  0  0  0
  148.0140  140.3438  157.3173 H   0  0  0  0  0  0  0  0  0  0  0  0
  149.6110  139.7792  157.7966 H   0  0  0  0  0  0  0  0  0  0  0  0
  150.6374  140.8224  155.8088 H   0  0  0  0  0  0  0  0  0  0  0  0
  149.7687  143.1781  156.3720 H   0  0  0  0  0  0  0  0  0  0  0  0
  151.4170  141.3806  157.9436 H   0  0  0  0  0  0  0  0  0  0  0  0
  151.8833  142.8402  157.0873 H   0  0  0  0  0  0  0  0  0  0  0  0
  151.0412  144.2760  158.8072 H   0  0  0  0  0  0  0  0  0  0  0  0
  149.9609  143.0478  159.4383 H   0  0  0  0  0  0  0  0  0  0  0  0
  153.3485  141.6494  158.8743 H   0  0  0  0  0  0  0  0  0  0  0  0
  154.6131  141.4707  161.2845 H   0  0  0  0  0  0  0  0  0  0  0  0
  152.9714  142.9448  162.9617 H   0  0  0  0  0  0  0  0  0  0  0  0
  147.0205  143.1847  153.4184 H   0  0  0  0  0  0  0  0  0  0  0  0
  146.5891  141.4858  153.1998 H   0  0  0  0  0  0  0  0  0  0  0  0
  144.6995  143.3078  153.9972 H   0  0  0  0  0  0  0  0  0  0  0  0
  144.7022  141.6495  154.5962 H   0  0  0  0  0  0  0  0  0  0  0  0
  145.8095  144.1025  155.9693 H   0  0  0  0  0  0  0  0  0  0  0  0
  144.7992  142.8422  156.6749 H   0  0  0  0  0  0  0  0  0  0  0  0
  146.6445  141.3305  156.8187 H   0  0  0  0  0  0  0  0  0  0  0  0
  147.5209  142.8576  156.9853 H   0  0  0  0  0  0  0  0  0  0  0  0
  149.0803  142.3846  157.6328 H   0  0  0  0  0  0  0  0  0  0  0  0
  1  2  1  0  0  0  0
  1 18  1  0  0  0  0
  1 19  1  0  0  0  0
  1 20  1  0  0  0  0
  2  3  1  0  0  0  0
  2 11  1  0  0  0  0
  2 21  1  0  0  0  0
  3  4  1  0  0  0  0
  3 22  1  0  0  0  0
  3 38  1  0  0  0  0
  4  5  1  0  0  0  0
  4 23  1  0  0  0  0
  4 24  1  0  0  0  0
  5  6  1  0  0  0  0
  5 25  1  0  0  0  0
  5 26  1  0  0  0  0
  6 10  1  0  0  0  0
  6  7  1  0  0  0  0
  7  8  2  0  0  0  0
  7 27  1  0  0  0  0
  8  9  1  0  0  0  0
  8 28  1  0  0  0  0
  9 10  2  0  0  0  0
  9 29  1  0  0  0  0
 11 12  2  0  0  0  0
 11 13  1  0  0  0  0
 13 17  1  0  0  0  0
 13 14  1  0  0  0  0
 14 15  1  0  0  0  0
 14 30  1  0  0  0  0
 14 31  1  0  0  0  0
 15 16  1  0  0  0  0
 15 32  1  0  0  0  0
 15 33  1  0  0  0  0
 16 17  1  0  0  0  0
 16 34  1  0  0  0  0
 16 35  1  0  0  0  0
 17 36  1  0  0  0  0
 17 37  1  0  0  0  0
M  CHG  1   3   1
M  END
> <s_m_source_file>
AV-unprocessed.smi

> <i_m_source_file_index>
3143

> <i_lp_mmshare_version>
43012

> <i_f3d_flags>
0

> <s_epik_input>
W0NIMl0xW0NIMl1bQ0gyXVtDSDJdTjFDKD1PKVtDQEhdKFtDSDNdKVtOSF1bQ0gyXVtDSDJdbjJbY0hdW2NIXVtjSF1uMg==

> <s_epik_cmdline>
J2VwaWtfcHl0aG9uJywgJy1waCcsICc3LjAnLCAnLXRuJywgJzgnLCAnLW1hJywgJzIwMCcsICctbWV0YWxfYmluZGluZycsICctaW1hZScsICc8aW5maWxlLm1hZT4nLCAnLW9tYWUnLCAnPG91dGZpbGUubWFlPic=

> <r_lp_tautomer_probability>
1

> <r_epik_Ionization_Penalty>
0.203171

> <r_epik_Ionization_Penalty_Charging>
0.203168

> <r_epik_Ionization_Penalty_Neutral>
2.46932e-06

> <r_epik_State_Penalty>
0.193072

> <r_epik_Charging_Adjusted_Penalty>
0.39624

> <i_epik_Tot_Q>
1

> <i_epik_Tot_abs_Q>
1

> <r_epik_Metal_State_Penalty>
0.193323

> <b_epik_Metal_Only>
0

> <s_lp_Force_Field>
OPLS_2005

> <r_lp_Energy>
30.2015

> <b_lp_Chiralities_Consistent>
1

> <s_lp_Variant>
AV-unprocessed.smi:3143-1

> <Gold.Version>
5.8.1

> <Gold.Id.Protein>
6NUR|6NUR_protein|mol2

> <Gold.PLP.Fitness>
44.7657

> <Gold.PLP.PLP>
-37.5796

> <Gold.PLP.part.hbond>
-3.4633

> <Gold.PLP.part.metal>
0.0000

> <Gold.PLP.part.buried>
-4.7391

> <Gold.PLP.part.nonpolar>
-31.4491

> <Gold.PLP.part.repulsive>
1.8620

> <Gold.PLP.ligand.clash>
0.0000

> <Gold.PLP.ligand.torsion>
0.8024

> <Gold.PLP.Chemscore.Hbond>
2.9091

> <Gold.PLP.Chemscore.CHOScore>
0.0000

> <Gold.PLP.Chemscore.Metal>
0.0000

> <Gold.Chemscore.Hbonds>
donor molecule, donor type, donor heavy atom, donor atom, acceptor molecule, acceptor atom, score
      L1  H     3    22       P1  8028  2.00
      P1  H  7989  7998       L1    12  0.02
      P1  H  8011  8017       L1    12  0.88

> <Gold.PLP.Chemscore.Internal.Correction>
0.0636

> <Gold.Rescore>
     Score         DG    S(hbond)    S(metal)    S(lipo)     H(rot)  DE(clash)    DE(int)     intcor
     13.30     -16.15       1.87        0.00      78.02       1.84       1.18       1.67       ----

> <Gold.Chemscore.Fitness>
13.2959

> <Gold.Chemscore.DG>
-16.1476

> <Gold.Chemscore.ZeroCoef>
-5.4800

> <Gold.Chemscore.Hbond>
1.8716

> <Gold.Chemscore.Metal>
0.0000

> <Gold.Chemscore.Lipo>
78.0178

> <Gold.Chemscore.Internal_Hbond>
0.0000

> <Gold.Chemscore.DEClash>
1.1821

> <Gold.Chemscore.DEInternal>
1.6695

> <Gold.Chemscore.Rot>
1.8405

> <Gold.Chemscore.Internal.Correction>
   9.000000E+99

> <Gold.Chemscore.Hbonds>
donor molecule, donor type, donor heavy atom, donor atom, acceptor molecule, acceptor atom, score
      L1  H     3    22       P1  8028  0.97
      P1  H  7989  7998       L1    12  0.03
      P1  H  8011  8017       L1    12  0.86

> <Gold.Chemscore.Hbond.Weighted>
-6.2512

> <Gold.Chemscore.Metal.Weighted>
-0.0000

> <Gold.Chemscore.Lipo.Weighted>
-9.1281

> <Gold.Chemscore.Internal_Hbond.Weighted>
0.0000

> <Gold.Chemscore.DEClash.Weighted>
1.1821

> <Gold.Chemscore.DEInternal.Weighted>
1.6695

> <Gold.Chemscore.Rot.Weighted>
4.7117

> <Gold.Chemscore.Internal.Correction.Weighted>
   9.000000E+99

> <Gold.Protein.RotatedTorsions>
[ 6907 6896 6895 6894 ] final  156.67 input  -60.11 | X-H torsion
[ 7974 7965 7964 7962 ] final -128.75 input  175.53 | X-H torsion
[ 8008 7997 7996 7995 ] final   99.15 input   59.86 | X-H torsion
[ 10167 10162 10161 10158 ] final    2.14 input  -65.29 | X-H torsion
[ 10718 10713 10712 10709 ] final -159.15 input   66.30 | X-H torsion
[ 10763 10752 10751 10750 ] final  -10.03 input  -60.55 | X-H torsion
[ 11005 11000 10999 10996 ] final  -30.52 input  -57.11 | X-H torsion

> <Gold.Protein.ActiveResidues>
 VAL166  LYS551  ARG553  GLY616  TRP617  ASP618  TYR619  PRO620  LYS621  CYS622 
 ASP623  PHE694  ASN695  SER759  ASP760  ASP761  ALA762  ILE779  LEU786  VAL792 
 PHE793  MET794  SER795  GLU796  ALA797  LYS798  CYS799  TRP800  GLU811  SER814 

> <Gold.Protein.RotatedAtoms>
  152.0262  133.3919  159.4278 H   0  0  0  0  0  0  0  0  0  0  0  0  # atno 6907 bound_to 6896
  150.6886  134.3571  159.4943 H   0  0  0  0  0  0  0  0  0  0  0  0  # atno 6908 bound_to 6896
  152.1351  134.9105  160.0607 H   0  0  0  0  0  0  0  0  0  0  0  0  # atno 6909 bound_to 6896
  144.9640  140.7476  143.4711 H   0  0  0  0  0  0  0  0  0  0  0  0  # atno 7974 bound_to 7965
  156.1077  140.3233  155.8028 H   0  0  0  0  0  0  0  0  0  0  0  0  # atno 8008 bound_to 7997
  155.4728  140.0548  157.2994 H   0  0  0  0  0  0  0  0  0  0  0  0  # atno 8009 bound_to 7997
  154.4738  140.2023  155.9942 H   0  0  0  0  0  0  0  0  0  0  0  0  # atno 8010 bound_to 7997
  140.6649  143.7205  150.7808 H   0  0  0  0  0  0  0  0  0  0  0  0  # atno 10167 bound_to 10162
  156.5640  130.8659  151.2818 H   0  0  0  0  0  0  0  0  0  0  0  0  # atno 10718 bound_to 10713
  153.4632  135.7016  153.6037 H   0  0  0  0  0  0  0  0  0  0  0  0  # atno 10763 bound_to 10752
  153.4323  135.3800  155.2178 H   0  0  0  0  0  0  0  0  0  0  0  0  # atno 10764 bound_to 10752
  154.8727  135.3953  154.4061 H   0  0  0  0  0  0  0  0  0  0  0  0  # atno 10765 bound_to 10752
  140.9389  133.7291  156.1047 H   0  0  0  0  0  0  0  0  0  0  0  0  # atno 11005 bound_to 11000
  145.2658  139.1974  143.4868 LP  0  0  0  0  0  0  0  0  0  0  0  0  # atno 17320 bound_to 7965
  146.3362  140.2595  142.8601 LP  0  0  0  0  0  0  0  0  0  0  0  0  # atno 17321 bound_to 7965
  140.0881  143.4904  152.2494 LP  0  0  0  0  0  0  0  0  0  0  0  0  # atno 17342 bound_to 10162
  139.5895  144.7544  151.3437 LP  0  0  0  0  0  0  0  0  0  0  0  0  # atno 17343 bound_to 10162
  157.7362  130.9775  150.2125 LP  0  0  0  0  0  0  0  0  0  0  0  0  # atno 17370 bound_to 10713
  156.2773  130.3729  149.7970 LP  0  0  0  0  0  0  0  0  0  0  0  0  # atno 17371 bound_to 10713
  140.7761  134.3778  157.5497 LP  0  0  0  0  0  0  0  0  0  0  0  0  # atno 17394 bound_to 11000
  139.8815  134.9052  156.2895 LP  0  0  0  0  0  0  0  0  0  0  0  0  # atno 17395 bound_to 11000

$$$$
