AV-unprocessed.smi:3047|AV-procd|sdf|11621|dock4
  -GOLD-   2272017 03D 1   1.00000     0.00000
 Structure written by MMmdl.
 38 39  0  0  0  0  0  0  0  0  2 V2000
  151.3122  133.9296  153.8051 C   0  0  0  0  0  0  0  0  0  0  0  0
  150.3377  133.4849  155.2996 S   0  0  0  0  0  0  0  0  0  0  0  0
  151.1697  133.7410  156.4855 O   0  0  0  0  0  0  0  0  0  0  0  0
  148.9985  134.0848  155.2001 O   0  0  0  0  0  0  0  0  0  0  0  0
  150.1616  131.7702  155.1482 N   0  0  0  0  0  0  0  0  0  0  0  0
  150.5929  130.9131  156.2609 C   0  0  0  0  0  0  0  0  0  0  0  0
  150.8908  129.5507  155.6401 C   0  0  0  0  0  0  0  0  0  0  0  0
  151.3492  129.9076  154.2328 C   0  0  0  0  0  0  0  0  0  0  0  0
  150.5023  131.1381  153.8632 C   0  0  1  0  0  0  0  0  0  0  0  0
  149.2605  130.7963  153.0274 C   0  0  0  0  0  0  0  0  0  0  0  0
  149.0108  129.6305  152.7182 O   0  0  0  0  0  0  0  0  0  0  0  0
  148.4777  131.8290  152.6789 N   0  0  0  0  0  0  0  0  0  0  0  0
  147.2369  131.7209  151.9218 C   0  0  0  0  0  0  0  0  0  0  0  0
  146.6312  133.1018  151.6201 C   0  0  0  0  0  0  0  0  0  0  0  0
  145.5223  133.0080  150.6694 N   0  0  0  0  0  0  0  0  0  0  0  0
  145.4719  132.2488  149.5286 C   0  0  0  0  0  0  0  0  0  0  0  0
  144.2432  132.4747  148.9632 C   0  0  0  0  0  0  0  0  0  0  0  0
  143.5965  133.3616  149.7824 N   0  3  0  0  0  0  0  0  0  0  0  0
  144.3760  133.6842  150.8199 C   0  0  0  0  0  0  0  0  0  0  0  0
  151.5239  134.9984  153.8170 H   0  0  0  0  0  0  0  0  0  0  0  0
  150.7428  133.6859  152.9087 H   0  0  0  0  0  0  0  0  0  0  0  0
  152.2501  133.3748  153.8030 H   0  0  0  0  0  0  0  0  0  0  0  0
  151.4979  131.3258  156.7082 H   0  0  0  0  0  0  0  0  0  0  0  0
  149.8235  130.8602  157.0316 H   0  0  0  0  0  0  0  0  0  0  0  0
  151.6377  128.9857  156.1984 H   0  0  0  0  0  0  0  0  0  0  0  0
  149.9792  128.9534  155.5965 H   0  0  0  0  0  0  0  0  0  0  0  0
  152.4050  130.1819  154.2480 H   0  0  0  0  0  0  0  0  0  0  0  0
  151.2429  129.0727  153.5385 H   0  0  0  0  0  0  0  0  0  0  0  0
  151.1277  131.8184  153.2821 H   0  0  0  0  0  0  0  0  0  0  0  0
  148.7479  132.7521  152.9879 H   0  0  0  0  0  0  0  0  0  0  0  0
  147.4155  131.1689  150.9973 H   0  0  0  0  0  0  0  0  0  0  0  0
  146.5350  131.1261  152.5072 H   0  0  0  0  0  0  0  0  0  0  0  0
  146.2661  133.5751  152.5331 H   0  0  0  0  0  0  0  0  0  0  0  0
  147.3772  133.7706  151.1882 H   0  0  0  0  0  0  0  0  0  0  0  0
  146.2924  131.6197  149.2134 H   0  0  0  0  0  0  0  0  0  0  0  0
  143.7928  132.0812  148.0635 H   0  0  0  0  0  0  0  0  0  0  0  0
  144.1268  134.3577  151.6208 H   0  0  0  0  0  0  0  0  0  0  0  0
  142.6630  133.7218  149.6280 H   0  0  0  0  0  0  0  0  0  0  0  0
  1  2  1  0  0  0  0
  1 20  1  0  0  0  0
  1 21  1  0  0  0  0
  1 22  1  0  0  0  0
  2  3  2  0  0  0  0
  2  4  2  0  0  0  0
  2  5  1  0  0  0  0
  5  9  1  0  0  0  0
  5  6  1  0  0  0  0
  6  7  1  0  0  0  0
  6 23  1  0  0  0  0
  6 24  1  0  0  0  0
  7  8  1  0  0  0  0
  7 25  1  0  0  0  0
  7 26  1  0  0  0  0
  8  9  1  0  0  0  0
  8 27  1  0  0  0  0
  8 28  1  0  0  0  0
  9 10  1  0  0  0  0
  9 29  1  0  0  0  0
 10 11  2  0  0  0  0
 10 12  1  0  0  0  0
 12 13  1  0  0  0  0
 12 30  1  0  0  0  0
 13 14  1  0  0  0  0
 13 31  1  0  0  0  0
 13 32  1  0  0  0  0
 14 15  1  0  0  0  0
 14 33  1  0  0  0  0
 14 34  1  0  0  0  0
 15 19  1  0  0  0  0
 15 16  1  0  0  0  0
 16 17  2  0  0  0  0
 16 35  1  0  0  0  0
 17 18  1  0  0  0  0
 17 36  1  0  0  0  0
 18 19  2  0  0  0  0
 18 38  1  0  0  0  0
 19 37  1  0  0  0  0
M  CHG  1  18   1
M  END
> <s_m_source_file>
AV-unprocessed.smi

> <i_m_source_file_index>
3047

> <i_lp_mmshare_version>
43012

> <i_f3d_flags>
0

> <s_epik_input>
W0NIM11TKD1PKSg9TylOMVtDSDJdW0NIMl1bQ0gyXVtDQEhdMUMoPU8pW05IXVtDSDJdW0NIMl1uMltjSF1bY0hdbltjSF0y

> <s_epik_cmdline>
J2VwaWtfcHl0aG9uJywgJy1waCcsICc3LjAnLCAnLXRuJywgJzgnLCAnLW1hJywgJzIwMCcsICctbWV0YWxfYmluZGluZycsICctaW1hZScsICc8aW5maWxlLm1hZT4nLCAnLW9tYWUnLCAnPG91dGZpbGUubWFlPic=

> <r_lp_tautomer_probability>
1

> <r_epik_Ionization_Penalty>
0.281738

> <r_epik_Ionization_Penalty_Charging>
0

> <r_epik_Ionization_Penalty_Neutral>
0.281738

> <r_epik_State_Penalty>
0.274352

> <r_epik_Charging_Adjusted_Penalty>
0.274352

> <i_epik_Tot_Q>
1

> <i_epik_Tot_abs_Q>
1

> <r_epik_Metal_State_Penalty>
0.555562

> <b_epik_Metal_Only>
0

> <s_lp_Force_Field>
OPLS_2005

> <r_lp_Energy>
11.1573

> <b_lp_Chiralities_Consistent>
1

> <s_lp_Variant>
AV-unprocessed.smi:3047-1

> <Gold.Version>
5.8.1

> <Gold.Id.Protein>
6NUR|6NUR_protein|mol2

> <Gold.PLP.Fitness>
39.6588

> <Gold.PLP.PLP>
-28.4259

> <Gold.PLP.part.hbond>
-2.0000

> <Gold.PLP.part.metal>
0.0000

> <Gold.PLP.part.buried>
-5.1559

> <Gold.PLP.part.nonpolar>
-22.1032

> <Gold.PLP.part.repulsive>
0.1893

> <Gold.PLP.ligand.clash>
0.0000

> <Gold.PLP.ligand.torsion>
0.5388

> <Gold.PLP.Chemscore.Hbond>
2.9440

> <Gold.PLP.Chemscore.CHOScore>
0.9709

> <Gold.PLP.Chemscore.Metal>
0.0000

> <Gold.Chemscore.Hbonds>
donor molecule, donor type, donor heavy atom, donor atom, acceptor molecule, acceptor atom, score
      L1  H    18    38       P1 10186  2.00

> <Gold.PLP.Chemscore.Internal.Correction>
0.5656

> <Gold.Rescore>
     Score         DG    S(hbond)    S(metal)    S(lipo)     H(rot)  DE(clash)    DE(int)     intcor
     11.63     -12.36       1.97        0.00      56.66       2.47       0.00       0.74       ----

> <Gold.Chemscore.Fitness>
11.6256

> <Gold.Chemscore.DG>
-12.3643

> <Gold.Chemscore.ZeroCoef>
-5.4800

> <Gold.Chemscore.Hbond>
1.9687

> <Gold.Chemscore.Metal>
0.0000

> <Gold.Chemscore.Lipo>
56.6617

> <Gold.Chemscore.Internal_Hbond>
0.0000

> <Gold.Chemscore.DEClash>
0.0000

> <Gold.Chemscore.DEInternal>
0.7387

> <Gold.Chemscore.Rot>
2.4689

> <Gold.Chemscore.Internal.Correction>
   9.000000E+99

> <Gold.Chemscore.Hbonds>
donor molecule, donor type, donor heavy atom, donor atom, acceptor molecule, acceptor atom, score
      L1  H    18    38       P1 10186  1.00

> <Gold.Chemscore.Hbond.Weighted>
-6.5754

> <Gold.Chemscore.Metal.Weighted>
-0.0000

> <Gold.Chemscore.Lipo.Weighted>
-6.6294

> <Gold.Chemscore.Internal_Hbond.Weighted>
0.0000

> <Gold.Chemscore.DEClash.Weighted>
0.0000

> <Gold.Chemscore.DEInternal.Weighted>
0.7387

> <Gold.Chemscore.Rot.Weighted>
6.3204

> <Gold.Chemscore.Internal.Correction.Weighted>
   9.000000E+99

> <Gold.Protein.RotatedTorsions>
[ 6907 6896 6895 6894 ] final  146.07 input  -60.11 | X-H torsion
[ 7974 7965 7964 7962 ] final -172.29 input  175.53 | X-H torsion
[ 8008 7997 7996 7995 ] final  104.44 input   59.86 | X-H torsion
[ 10167 10162 10161 10158 ] final  165.46 input  -65.29 | X-H torsion
[ 10718 10713 10712 10709 ] final -121.09 input   66.30 | X-H torsion
[ 10763 10752 10751 10750 ] final -113.25 input  -60.55 | X-H torsion
[ 11005 11000 10999 10996 ] final   93.01 input  -57.11 | X-H torsion

> <Gold.Protein.ActiveResidues>
 VAL166  LYS551  ARG553  GLY616  TRP617  ASP618  TYR619  PRO620  LYS621  CYS622 
 ASP623  PHE694  ASN695  SER759  ASP760  ASP761  ALA762  ILE779  LEU786  VAL792 
 PHE793  MET794  SER795  GLU796  ALA797  LYS798  CYS799  TRP800  GLU811  SER814 

> <Gold.Protein.RotatedAtoms>
  152.1726  133.4654  159.4916 H   0  0  0  0  0  0  0  0  0  0  0  0  # atno 6907 bound_to 6896
  150.6922  134.1934  159.4303 H   0  0  0  0  0  0  0  0  0  0  0  0  # atno 6908 bound_to 6896
  151.9841  135.0013  160.0609 H   0  0  0  0  0  0  0  0  0  0  0  0  # atno 6909 bound_to 6896
  144.7148  140.1795  143.6359 H   0  0  0  0  0  0  0  0  0  0  0  0  # atno 7974 bound_to 7965
  156.1573  140.3148  155.8747 H   0  0  0  0  0  0  0  0  0  0  0  0  # atno 8008 bound_to 7997
  155.3853  140.0490  157.3059 H   0  0  0  0  0  0  0  0  0  0  0  0  # atno 8009 bound_to 7997
  154.5113  140.2165  155.9162 H   0  0  0  0  0  0  0  0  0  0  0  0  # atno 8010 bound_to 7997
  139.4906  144.4129  151.9277 H   0  0  0  0  0  0  0  0  0  0  0  0  # atno 10167 bound_to 10162
  156.1309  130.6395  150.9620 H   0  0  0  0  0  0  0  0  0  0  0  0  # atno 10718 bound_to 10713
  154.8387  135.4461  154.1320 H   0  0  0  0  0  0  0  0  0  0  0  0  # atno 10763 bound_to 10752
  153.2528  135.6928  153.7667 H   0  0  0  0  0  0  0  0  0  0  0  0  # atno 10764 bound_to 10752
  153.6973  135.3377  155.3192 H   0  0  0  0  0  0  0  0  0  0  0  0  # atno 10765 bound_to 10752
  139.8815  134.8765  156.3655 H   0  0  0  0  0  0  0  0  0  0  0  0  # atno 11005 bound_to 11000
  145.8869  139.2354  143.1572 LP  0  0  0  0  0  0  0  0  0  0  0  0  # atno 17320 bound_to 7965
  145.9941  140.8578  143.0052 LP  0  0  0  0  0  0  0  0  0  0  0  0  # atno 17321 bound_to 7965
  140.3571  144.3018  150.5939 LP  0  0  0  0  0  0  0  0  0  0  0  0  # atno 17342 bound_to 10162
  140.5435  143.2219  151.8046 LP  0  0  0  0  0  0  0  0  0  0  0  0  # atno 17343 bound_to 10162
  157.6487  131.0900  150.8098 LP  0  0  0  0  0  0  0  0  0  0  0  0  # atno 17370 bound_to 10713
  156.8182  130.4975  149.5346 LP  0  0  0  0  0  0  0  0  0  0  0  0  # atno 17371 bound_to 10713
  140.9500  133.7457  156.0259 LP  0  0  0  0  0  0  0  0  0  0  0  0  # atno 17394 bound_to 11000
  140.8117  134.3391  157.5409 LP  0  0  0  0  0  0  0  0  0  0  0  0  # atno 17395 bound_to 11000

$$$$
