AV-unprocessed.smi:1076|AV-procd|sdf|4699|dock10
  -GOLD-   22720 3223D 1   1.00000     0.00000
 Structure written by MMmdl.
 44 45  0  0  0  0  0  0  0  0  1 V2000
  143.5952  132.7563  148.0097 C   0  0  0  0  0  0  0  0  0  0  0  0
  144.1675  132.6956  149.3962 C   0  0  0  0  0  0  0  0  0  0  0  0
  143.8023  131.8195  150.4577 C   0  0  0  0  0  0  0  0  0  0  0  0
  144.5132  132.0164  151.5562 N   0  0  0  0  0  0  0  0  0  0  0  0
  145.3565  133.0203  151.2352 N   0  0  0  0  0  0  0  0  0  0  0  0
  146.3294  133.4880  152.2078 C   0  0  0  0  0  0  0  0  0  0  0  0
  145.9752  134.8856  152.7539 C   0  0  2  0  0  0  0  0  0  0  0  0
  145.7052  135.8868  151.6192 C   0  0  0  0  0  0  0  0  0  0  0  0
  147.0836  135.3569  153.5760 N   0  0  0  0  0  0  0  0  0  0  0  0
  146.7199  136.4905  154.4162 C   0  0  0  0  0  0  0  0  0  0  0  0
  147.9790  137.2094  154.9439 C   0  0  0  0  0  0  0  0  0  0  0  0
  147.9599  138.7465  154.8060 C   0  0  0  0  0  0  0  0  0  0  0  0
  146.9079  139.3541  155.0134 O   0  0  0  0  0  0  0  0  0  0  0  0
  149.1007  139.3899  154.4587 N   0  0  0  0  0  0  0  0  0  0  0  0
  150.3621  138.6919  154.1907 C   0  0  0  0  0  0  0  0  0  0  0  0
  151.3798  139.0894  155.2746 C   0  0  0  0  0  0  0  0  0  0  0  0
  151.5509  140.5042  155.2724 O   0  0  0  0  0  0  0  0  0  0  0  0
  150.3367  141.2132  155.5065 C   0  0  0  0  0  0  0  0  0  0  0  0
  149.2996  140.8430  154.4302 C   0  0  0  0  0  0  0  0  0  0  0  0
  145.1641  133.4544  149.9407 C   0  0  0  0  0  0  0  0  0  0  0  0
  143.0766  131.8344  147.7453 H   0  0  0  0  0  0  0  0  0  0  0  0
  144.3720  132.9126  147.2607 H   0  0  0  0  0  0  0  0  0  0  0  0
  142.8782  133.5706  147.9068 H   0  0  0  0  0  0  0  0  0  0  0  0
  143.0480  131.0466  150.4609 H   0  0  0  0  0  0  0  0  0  0  0  0
  146.3943  132.7588  153.0170 H   0  0  0  0  0  0  0  0  0  0  0  0
  147.3090  133.5081  151.7276 H   0  0  0  0  0  0  0  0  0  0  0  0
  145.0784  134.7893  153.3680 H   0  0  0  0  0  0  0  0  0  0  0  0
  144.8948  135.5371  150.9792 H   0  0  0  0  0  0  0  0  0  0  0  0
  146.5860  136.0244  150.9911 H   0  0  0  0  0  0  0  0  0  0  0  0
  145.4129  136.8638  152.0047 H   0  0  0  0  0  0  0  0  0  0  0  0
  147.8887  135.5714  153.0053 H   0  0  0  0  0  0  0  0  0  0  0  0
  146.1059  137.1862  153.8441 H   0  0  0  0  0  0  0  0  0  0  0  0
  146.1160  136.1515  155.2593 H   0  0  0  0  0  0  0  0  0  0  0  0
  148.1074  136.9438  155.9939 H   0  0  0  0  0  0  0  0  0  0  0  0
  148.8522  136.8320  154.4104 H   0  0  0  0  0  0  0  0  0  0  0  0
  150.2533  137.6068  154.1655 H   0  0  0  0  0  0  0  0  0  0  0  0
  150.7310  138.9795  153.2051 H   0  0  0  0  0  0  0  0  0  0  0  0
  151.0507  138.7543  156.2597 H   0  0  0  0  0  0  0  0  0  0  0  0
  152.3428  138.6168  155.0809 H   0  0  0  0  0  0  0  0  0  0  0  0
  149.9585  140.9855  156.5046 H   0  0  0  0  0  0  0  0  0  0  0  0
  150.5425  142.2832  155.4793 H   0  0  0  0  0  0  0  0  0  0  0  0
  149.6615  141.1360  153.4438 H   0  0  0  0  0  0  0  0  0  0  0  0
  148.3915  141.4187  154.5987 H   0  0  0  0  0  0  0  0  0  0  0  0
  145.7583  134.2489  149.5136 H   0  0  0  0  0  0  0  0  0  0  0  0
  1  2  1  0  0  0  0
  1 21  1  0  0  0  0
  1 22  1  0  0  0  0
  1 23  1  0  0  0  0
  2 20  2  0  0  0  0
  2  3  1  0  0  0  0
  3  4  2  0  0  0  0
  3 24  1  0  0  0  0
  4  5  1  0  0  0  0
  5  6  1  0  0  0  0
  5 20  1  0  0  0  0
  6  7  1  0  0  0  0
  6 25  1  0  0  0  0
  6 26  1  0  0  0  0
  7  8  1  0  0  0  0
  7  9  1  0  0  0  0
  7 27  1  0  0  0  0
  8 28  1  0  0  0  0
  8 29  1  0  0  0  0
  8 30  1  0  0  0  0
  9 10  1  0  0  0  0
  9 31  1  0  0  0  0
 10 11  1  0  0  0  0
 10 32  1  0  0  0  0
 10 33  1  0  0  0  0
 11 12  1  0  0  0  0
 11 34  1  0  0  0  0
 11 35  1  0  0  0  0
 12 13  2  0  0  0  0
 12 14  1  0  0  0  0
 14 19  1  0  0  0  0
 14 15  1  0  0  0  0
 15 16  1  0  0  0  0
 15 36  1  0  0  0  0
 15 37  1  0  0  0  0
 16 17  1  0  0  0  0
 16 38  1  0  0  0  0
 16 39  1  0  0  0  0
 17 18  1  0  0  0  0
 18 19  1  0  0  0  0
 18 40  1  0  0  0  0
 18 41  1  0  0  0  0
 19 42  1  0  0  0  0
 19 43  1  0  0  0  0
 20 44  1  0  0  0  0
M  END
> <s_m_source_file>
AV-unprocessed.smi

> <i_m_source_file_index>
1076

> <i_lp_mmshare_version>
43012

> <i_f3d_flags>
0

> <s_epik_input>
W0NIM11jMVtjSF1ubihbY0hdMSlbQ0gyXVtDQEhdKFtDSDNdKVtOSF1bQ0gyXVtDSDJdQyg9TylOMltDSDJdW0NIMl1PW0NIMl1bQ0gyXTI=

> <s_epik_cmdline>
J2VwaWtfcHl0aG9uJywgJy1waCcsICc3LjAnLCAnLXRuJywgJzgnLCAnLW1hJywgJzIwMCcsICctbWV0YWxfYmluZGluZycsICctaW1hZScsICc8aW5maWxlLm1hZT4nLCAnLW9tYWUnLCAnPG91dGZpbGUubWFlPic=

> <r_lp_tautomer_probability>
1

> <r_epik_Ionization_Penalty>
2.55707

> <r_epik_Ionization_Penalty_Charging>
0

> <r_epik_Ionization_Penalty_Neutral>
2.55707

> <r_epik_State_Penalty>
2.726

> <r_epik_Charging_Adjusted_Penalty>
2.726

> <i_epik_Tot_Q>
0

> <i_epik_Tot_abs_Q>
0

> <r_epik_Metal_State_Penalty>
2.72594

> <b_epik_Metal_Only>
0

> <s_lp_Force_Field>
OPLS_2005

> <r_lp_Energy>
21.3245

> <b_lp_Chiralities_Consistent>
1

> <s_lp_Variant>
AV-unprocessed.smi:1076-3

> <Gold.Version>
5.8.1

> <Gold.Id.Protein>
6NUR|6NUR_protein|mol2

> <Gold.PLP.Fitness>
46.0262

> <Gold.PLP.PLP>
-36.3285

> <Gold.PLP.part.hbond>
-2.0000

> <Gold.PLP.part.metal>
0.0000

> <Gold.PLP.part.buried>
-1.6126

> <Gold.PLP.part.nonpolar>
-32.8745

> <Gold.PLP.part.repulsive>
0.2126

> <Gold.PLP.ligand.clash>
0.0000

> <Gold.PLP.ligand.torsion>
0.9729

> <Gold.PLP.Chemscore.Hbond>
1.8480

> <Gold.PLP.Chemscore.CHOScore>
2.0000

> <Gold.PLP.Chemscore.Metal>
0.0000

> <Gold.Chemscore.Hbonds>
donor molecule, donor type, donor heavy atom, donor atom, acceptor molecule, acceptor atom, score
      L1  H     9    31       P1  7948  1.00
      P1  H  7989  7998       L1    17  0.67
      L1  C     3    24       P1 10952  1.00
      L1  C    20    44       P1  7921  0.91

> <Gold.PLP.Chemscore.Internal.Correction>
0.0994

> <Gold.Rescore>
     Score         DG    S(hbond)    S(metal)    S(lipo)     H(rot)  DE(clash)    DE(int)     intcor
     14.13     -15.53       1.18        0.00      94.01       1.91       0.26       1.14       ----

> <Gold.Chemscore.Fitness>
14.1277

> <Gold.Chemscore.DG>
-15.5319

> <Gold.Chemscore.ZeroCoef>
-5.4800

> <Gold.Chemscore.Hbond>
1.1802

> <Gold.Chemscore.Metal>
0.0000

> <Gold.Chemscore.Lipo>
94.0105

> <Gold.Chemscore.Internal_Hbond>
0.0000

> <Gold.Chemscore.DEClash>
0.2645

> <Gold.Chemscore.DEInternal>
1.1397

> <Gold.Chemscore.Rot>
1.9098

> <Gold.Chemscore.Internal.Correction>
   9.000000E+99

> <Gold.Chemscore.Hbonds>
donor molecule, donor type, donor heavy atom, donor atom, acceptor molecule, acceptor atom, score
      L1  H     9    31       P1  7948  1.00
      P1  H  7989  7998       L1    17  0.04

> <Gold.Chemscore.Hbond.Weighted>
-3.9418

> <Gold.Chemscore.Metal.Weighted>
-0.0000

> <Gold.Chemscore.Lipo.Weighted>
-10.9992

> <Gold.Chemscore.Internal_Hbond.Weighted>
0.0000

> <Gold.Chemscore.DEClash.Weighted>
0.2645

> <Gold.Chemscore.DEInternal.Weighted>
1.1397

> <Gold.Chemscore.Rot.Weighted>
4.8891

> <Gold.Chemscore.Internal.Correction.Weighted>
   9.000000E+99

> <Gold.Protein.RotatedTorsions>
[ 6907 6896 6895 6894 ] final   -6.68 input  -60.11 | X-H torsion
[ 7974 7965 7964 7962 ] final  105.03 input  175.53 | X-H torsion
[ 8008 7997 7996 7995 ] final  -35.13 input   59.86 | X-H torsion
[ 10167 10162 10161 10158 ] final    5.41 input  -65.29 | X-H torsion
[ 10718 10713 10712 10709 ] final   19.22 input   66.30 | X-H torsion
[ 10763 10752 10751 10750 ] final   -1.20 input  -60.55 | X-H torsion
[ 11005 11000 10999 10996 ] final   -0.27 input  -57.11 | X-H torsion

> <Gold.Protein.ActiveResidues>
 VAL166  LYS551  ARG553  GLY616  TRP617  ASP618  TYR619  PRO620  LYS621  CYS622 
 ASP623  PHE694  ASN695  SER759  ASP760  ASP761  ALA762  ILE779  LEU786  VAL792 
 PHE793  MET794  SER795  GLU796  ALA797  LYS798  CYS799  TRP800  GLU811  SER814 

> <Gold.Protein.RotatedAtoms>
  151.4617  135.1039  159.9726 H   0  0  0  0  0  0  0  0  0  0  0  0  # atno 6907 bound_to 6896
  152.4850  133.8346  159.7131 H   0  0  0  0  0  0  0  0  0  0  0  0  # atno 6908 bound_to 6896
  150.8952  133.7130  159.2920 H   0  0  0  0  0  0  0  0  0  0  0  0  # atno 6909 bound_to 6896
  145.3250  139.2502  143.3691 H   0  0  0  0  0  0  0  0  0  0  0  0  # atno 7974 bound_to 7965
  154.4103  140.1665  156.2161 H   0  0  0  0  0  0  0  0  0  0  0  0  # atno 8008 bound_to 7997
  155.9403  140.3408  155.6298 H   0  0  0  0  0  0  0  0  0  0  0  0  # atno 8009 bound_to 7997
  155.6998  140.0743  157.2406 H   0  0  0  0  0  0  0  0  0  0  0  0  # atno 8010 bound_to 7997
  140.6483  143.7607  150.7534 H   0  0  0  0  0  0  0  0  0  0  0  0  # atno 10167 bound_to 10162
  157.1074  130.6494  149.5888 H   0  0  0  0  0  0  0  0  0  0  0  0  # atno 10718 bound_to 10713
  153.3417  135.6981  153.6861 H   0  0  0  0  0  0  0  0  0  0  0  0  # atno 10763 bound_to 10752
  153.5623  135.3532  155.2805 H   0  0  0  0  0  0  0  0  0  0  0  0  # atno 10764 bound_to 10752
  154.8638  135.4252  154.2632 H   0  0  0  0  0  0  0  0  0  0  0  0  # atno 10765 bound_to 10752
  140.6344  133.9546  155.8291 H   0  0  0  0  0  0  0  0  0  0  0  0  # atno 11005 bound_to 11000
  146.3067  140.3816  142.8684 LP  0  0  0  0  0  0  0  0  0  0  0  0  # atno 17320 bound_to 7965
  144.8909  140.7522  143.5927 LP  0  0  0  0  0  0  0  0  0  0  0  0  # atno 17321 bound_to 7965
  140.1252  143.4575  152.2288 LP  0  0  0  0  0  0  0  0  0  0  0  0  # atno 17342 bound_to 10162
  139.5696  144.7455  151.3927 LP  0  0  0  0  0  0  0  0  0  0  0  0  # atno 17343 bound_to 10162
  155.9858  130.4890  150.7051 LP  0  0  0  0  0  0  0  0  0  0  0  0  # atno 17370 bound_to 10713
  157.4588  131.0881  151.0767 LP  0  0  0  0  0  0  0  0  0  0  0  0  # atno 17371 bound_to 10713
  141.0652  134.0287  157.3603 LP  0  0  0  0  0  0  0  0  0  0  0  0  # atno 17394 bound_to 11000
  139.9104  135.0189  156.7666 LP  0  0  0  0  0  0  0  0  0  0  0  0  # atno 17395 bound_to 11000

$$$$
