AV-unprocessed.smi:525|AV-procd|sdf|2808|dock8
  -GOLD-   2262023283D 1   1.00000     0.00000
 Structure written by MMmdl.
 43 45  0  0  0  0  0  0  0  0  1 V2000
  154.0580  137.1589  161.8069 C   0  0  0  0  0  0  0  0  0  0  0  0
  153.3327  136.6538  160.6965 O   0  0  0  0  0  0  0  0  0  0  0  0
  152.5290  137.6305  160.0506 C   0  0  0  0  0  0  0  0  0  0  0  0
  153.2944  138.9441  159.8124 C   0  0  0  0  0  0  0  0  0  0  0  0
  152.5936  139.8278  158.8906 N   0  0  0  0  0  0  0  0  0  0  0  0
  151.9714  139.5166  157.7254 C   0  0  0  0  0  0  0  0  0  0  0  0
  151.9160  137.8570  157.1150 S   0  0  0  0  0  0  0  0  0  0  0  0
  150.3537  137.8955  156.1695 C   0  0  1  0  0  0  0  0  0  0  0  0
  150.4613  138.6055  154.8105 C   0  0  0  0  0  0  0  0  0  0  0  0
  149.4351  138.4586  153.9686 N   0  0  0  0  0  0  0  0  0  0  0  0
  151.4490  139.2782  154.5219 O   0  0  0  0  0  0  0  0  0  0  0  0
  149.8469  136.4709  155.9706 C   0  0  0  0  0  0  0  0  0  0  0  0
  150.6355  135.5049  155.3034 C   0  0  0  0  0  0  0  0  0  0  0  0
  150.1569  134.1921  155.1286 C   0  0  0  0  0  0  0  0  0  0  0  0
  148.8872  133.8341  155.6195 C   0  0  0  0  0  0  0  0  0  0  0  0
  148.0959  134.7901  156.2842 C   0  0  0  0  0  0  0  0  0  0  0  0
  148.5740  136.1033  156.4595 C   0  0  0  0  0  0  0  0  0  0  0  0
  151.3950  140.5413  157.0929 N   0  0  0  0  0  0  0  0  0  0  0  0
  151.6858  141.6138  157.9109 C   0  0  0  0  0  0  0  0  0  0  0  0
  151.3596  142.9829  157.7822 C   0  0  0  0  0  0  0  0  0  0  0  0
  151.7727  143.9096  158.7620 C   0  0  0  0  0  0  0  0  0  0  0  0
  152.5146  143.4811  159.8818 C   0  0  0  0  0  0  0  0  0  0  0  0
  152.8488  142.1211  160.0288 C   0  0  0  0  0  0  0  0  0  0  0  0
  152.4352  141.2009  159.0471 C   0  0  0  0  0  0  0  0  0  0  0  0
  154.6258  136.3525  162.2705 H   0  0  0  0  0  0  0  0  0  0  0  0
  153.3990  137.5803  162.5657 H   0  0  0  0  0  0  0  0  0  0  0  0
  154.7649  137.9286  161.4954 H   0  0  0  0  0  0  0  0  0  0  0  0
  152.1195  137.2438  159.1160 H   0  0  0  0  0  0  0  0  0  0  0  0
  151.6726  137.8308  160.6949 H   0  0  0  0  0  0  0  0  0  0  0  0
  153.4912  139.4631  160.7496 H   0  0  0  0  0  0  0  0  0  0  0  0
  154.2732  138.7208  159.3870 H   0  0  0  0  0  0  0  0  0  0  0  0
  149.6247  138.4285  156.7815 H   0  0  0  0  0  0  0  0  0  0  0  0
  149.4587  138.9026  153.0622 H   0  0  0  0  0  0  0  0  0  0  0  0
  148.6396  137.9002  154.2422 H   0  0  0  0  0  0  0  0  0  0  0  0
  151.6113  135.7690  154.9223 H   0  0  0  0  0  0  0  0  0  0  0  0
  150.7647  133.4599  154.6177 H   0  0  0  0  0  0  0  0  0  0  0  0
  148.5202  132.8273  155.4856 H   0  0  0  0  0  0  0  0  0  0  0  0
  147.1209  134.5161  156.6597 H   0  0  0  0  0  0  0  0  0  0  0  0
  147.9569  136.8277  156.9705 H   0  0  0  0  0  0  0  0  0  0  0  0
  150.7913  143.3209  156.9284 H   0  0  0  0  0  0  0  0  0  0  0  0
  151.5191  144.9539  158.6538 H   0  0  0  0  0  0  0  0  0  0  0  0
  152.8275  144.1968  160.6280 H   0  0  0  0  0  0  0  0  0  0  0  0
  153.4178  141.7894  160.8845 H   0  0  0  0  0  0  0  0  0  0  0  0
  1  2  1  0  0  0  0
  1 25  1  0  0  0  0
  1 26  1  0  0  0  0
  1 27  1  0  0  0  0
  2  3  1  0  0  0  0
  3  4  1  0  0  0  0
  3 28  1  0  0  0  0
  3 29  1  0  0  0  0
  4  5  1  0  0  0  0
  4 30  1  0  0  0  0
  4 31  1  0  0  0  0
  5 24  1  0  0  0  0
  5  6  1  0  0  0  0
  6  7  1  0  0  0  0
  6 18  2  0  0  0  0
  7  8  1  0  0  0  0
  8  9  1  0  0  0  0
  8 12  1  0  0  0  0
  8 32  1  0  0  0  0
  9 10  1  0  0  0  0
  9 11  2  0  0  0  0
 10 33  1  0  0  0  0
 10 34  1  0  0  0  0
 12 17  1  0  0  0  0
 12 13  2  0  0  0  0
 13 14  1  0  0  0  0
 13 35  1  0  0  0  0
 14 15  2  0  0  0  0
 14 36  1  0  0  0  0
 15 16  1  0  0  0  0
 15 37  1  0  0  0  0
 16 17  2  0  0  0  0
 16 38  1  0  0  0  0
 17 39  1  0  0  0  0
 18 19  1  0  0  0  0
 19 24  2  0  0  0  0
 19 20  1  0  0  0  0
 20 21  2  0  0  0  0
 20 40  1  0  0  0  0
 21 22  1  0  0  0  0
 21 41  1  0  0  0  0
 22 23  2  0  0  0  0
 22 42  1  0  0  0  0
 23 24  1  0  0  0  0
 23 43  1  0  0  0  0
M  END
> <s_m_source_file>
AV-unprocessed.smi

> <i_m_source_file_index>
525

> <i_lp_mmshare_version>
43012

> <i_f3d_flags>
0

> <s_epik_input>
W2NIXTFbY0hdW2NIXVtjSF1jKGMxMiluKFtDSDJdW0NIMl1PW0NIM10pYyhuMilTW0NASF0oQyg9TylbTkgyXSljM1tjSF1bY0hdW2NIXVtjSF1bY0hdMw==

> <s_epik_cmdline>
J2VwaWtfcHl0aG9uJywgJy1waCcsICc3LjAnLCAnLXRuJywgJzgnLCAnLW1hJywgJzIwMCcsICctbWV0YWxfYmluZGluZycsICctaW1hZScsICc8aW5maWxlLm1hZT4nLCAnLW9tYWUnLCAnPG91dGZpbGUubWFlPic=

> <r_epik_Ionization_Penalty>
0.0706634

> <r_epik_Ionization_Penalty_Charging>
0

> <r_epik_Ionization_Penalty_Neutral>
0.0706634

> <r_epik_State_Penalty>
0.0619781

> <r_epik_Charging_Adjusted_Penalty>
0.0619781

> <i_epik_Tot_Q>
0

> <i_epik_Tot_abs_Q>
0

> <r_epik_Metal_State_Penalty>
0.0552401

> <b_epik_Metal_Only>
0

> <s_lp_Force_Field>
OPLS_2005

> <r_lp_Energy>
10.3034

> <b_lp_Chiralities_Consistent>
1

> <s_lp_Variant>
AV-unprocessed.smi:525-2

> <Gold.Version>
5.8.1

> <Gold.Id.Protein>
6NUR|6NUR_protein|mol2

> <Gold.PLP.Fitness>
47.9197

> <Gold.PLP.PLP>
-41.1536

> <Gold.PLP.part.hbond>
-3.2776

> <Gold.PLP.part.metal>
0.0000

> <Gold.PLP.part.buried>
-5.0069

> <Gold.PLP.part.nonpolar>
-32.6572

> <Gold.PLP.part.repulsive>
0.1829

> <Gold.PLP.ligand.clash>
0.0000

> <Gold.PLP.ligand.torsion>
1.2152

> <Gold.PLP.Chemscore.Hbond>
3.0000

> <Gold.PLP.Chemscore.CHOScore>
0.0000

> <Gold.PLP.Chemscore.Metal>
0.0000

> <Gold.Chemscore.Hbonds>
donor molecule, donor type, donor heavy atom, donor atom, acceptor molecule, acceptor atom, score
      L1  H    10    33       P1  7957  0.55
      P1  H  6896  6909       L1     2  0.59
      P1  H  7989  7998       L1    11  1.00

> <Gold.PLP.Chemscore.Internal.Correction>
0.1965

> <Gold.Rescore>
     Score         DG    S(hbond)    S(metal)    S(lipo)     H(rot)  DE(clash)    DE(int)     intcor
     19.25     -21.54       2.91        0.00     107.54       2.44       1.19       1.10       ----

> <Gold.Chemscore.Fitness>
19.2519

> <Gold.Chemscore.DG>
-21.5365

> <Gold.Chemscore.ZeroCoef>
-5.4800

> <Gold.Chemscore.Hbond>
2.9099

> <Gold.Chemscore.Metal>
0.0000

> <Gold.Chemscore.Lipo>
107.5448

> <Gold.Chemscore.Internal_Hbond>
0.0000

> <Gold.Chemscore.DEClash>
1.1859

> <Gold.Chemscore.DEInternal>
1.0987

> <Gold.Chemscore.Rot>
2.4396

> <Gold.Chemscore.Internal.Correction>
   9.000000E+99

> <Gold.Chemscore.Hbonds>
donor molecule, donor type, donor heavy atom, donor atom, acceptor molecule, acceptor atom, score
      L1  H    10    33       P1  7957  0.53
      P1  H  6896  6909       L1     2  0.09
      P1  H  7989  7998       L1    11  0.99

> <Gold.Chemscore.Hbond.Weighted>
-9.7192

> <Gold.Chemscore.Metal.Weighted>
-0.0000

> <Gold.Chemscore.Lipo.Weighted>
-12.5827

> <Gold.Chemscore.Internal_Hbond.Weighted>
0.0000

> <Gold.Chemscore.DEClash.Weighted>
1.1859

> <Gold.Chemscore.DEInternal.Weighted>
1.0987

> <Gold.Chemscore.Rot.Weighted>
6.2454

> <Gold.Chemscore.Internal.Correction.Weighted>
   9.000000E+99

> <Gold.Protein.RotatedTorsions>
[ 6907 6896 6895 6894 ] final  155.26 input  -60.11 | X-H torsion
[ 7974 7965 7964 7962 ] final  -42.83 input  175.53 | X-H torsion
[ 8008 7997 7996 7995 ] final  113.07 input   59.86 | X-H torsion
[ 10167 10162 10161 10158 ] final  102.98 input  -65.29 | X-H torsion
[ 10718 10713 10712 10709 ] final   73.43 input   66.30 | X-H torsion
[ 10763 10752 10751 10750 ] final  -63.32 input  -60.55 | X-H torsion
[ 11005 11000 10999 10996 ] final  145.85 input  -57.11 | X-H torsion

> <Gold.Protein.ActiveResidues>
 VAL166  LYS551  ARG553  GLY616  TRP617  ASP618  TYR619  PRO620  LYS621  CYS622 
 ASP623  PHE694  ASN695  SER759  ASP760  ASP761  ALA762  ILE779  LEU786  VAL792 
 PHE793  MET794  SER795  GLU796  ALA797  LYS798  CYS799  TRP800  GLU811  SER814 

> <Gold.Protein.RotatedAtoms>
  152.0467  133.4001  159.4359 H   0  0  0  0  0  0  0  0  0  0  0  0  # atno 6907 bound_to 6896
  150.6872  134.3354  159.4854 H   0  0  0  0  0  0  0  0  0  0  0  0  # atno 6908 bound_to 6896
  152.1159  134.9240  160.0615 H   0  0  0  0  0  0  0  0  0  0  0  0  # atno 6909 bound_to 6896
  146.0078  140.7000  142.9239 H   0  0  0  0  0  0  0  0  0  0  0  0  # atno 7974 bound_to 7965
  156.2234  140.2987  156.0007 H   0  0  0  0  0  0  0  0  0  0  0  0  # atno 8008 bound_to 7997
  155.2421  140.0423  157.2993 H   0  0  0  0  0  0  0  0  0  0  0  0  # atno 8009 bound_to 7997
  154.5876  140.2392  155.7973 H   0  0  0  0  0  0  0  0  0  0  0  0  # atno 8010 bound_to 7997
  139.7302  144.7038  151.0733 H   0  0  0  0  0  0  0  0  0  0  0  0  # atno 10167 bound_to 10162
  157.6547  130.9628  150.1068 H   0  0  0  0  0  0  0  0  0  0  0  0  # atno 10718 bound_to 10713
  154.3132  135.6211  153.5475 H   0  0  0  0  0  0  0  0  0  0  0  0  # atno 10763 bound_to 10752
  152.9827  135.5706  154.5153 H   0  0  0  0  0  0  0  0  0  0  0  0  # atno 10764 bound_to 10752
  154.4807  135.2863  155.1549 H   0  0  0  0  0  0  0  0  0  0  0  0  # atno 10765 bound_to 10752
  140.0745  134.9132  157.1401 H   0  0  0  0  0  0  0  0  0  0  0  0  # atno 11005 bound_to 11000
  144.6942  140.3345  143.7210 LP  0  0  0  0  0  0  0  0  0  0  0  0  # atno 17320 bound_to 7965
  145.7389  139.1758  143.2387 LP  0  0  0  0  0  0  0  0  0  0  0  0  # atno 17321 bound_to 7965
  140.7770  143.5053  150.9720 LP  0  0  0  0  0  0  0  0  0  0  0  0  # atno 17342 bound_to 10162
  139.8741  143.7155  152.3163 LP  0  0  0  0  0  0  0  0  0  0  0  0  # atno 17343 bound_to 10162
  156.1976  130.3658  149.8829 LP  0  0  0  0  0  0  0  0  0  0  0  0  # atno 17370 bound_to 10713
  156.6742  130.8832  151.3566 LP  0  0  0  0  0  0  0  0  0  0  0  0  # atno 17371 bound_to 10713
  140.3577  134.2528  155.7190 LP  0  0  0  0  0  0  0  0  0  0  0  0  # atno 17394 bound_to 11000
  141.2024  133.7937  157.0390 LP  0  0  0  0  0  0  0  0  0  0  0  0  # atno 17395 bound_to 11000

$$$$
