AV-unprocessed.smi:826|AV-procd|sdf|3855|dock2
  -GOLD-   22720 1303D 1   1.00000     0.00000
 Structure written by MMmdl.
 38 39  0  0  0  0  0  0  0  0  2 V2000
  146.8128  135.3504  155.2246 C   0  0  0  0  0  0  0  0  0  0  0  0
  148.2803  135.6080  155.2495 C   0  0  0  0  0  0  0  0  0  0  0  0
  149.1851  134.6353  155.3840 N   0  0  0  0  0  0  0  0  0  0  0  0
  150.4836  135.1240  155.3731 N   0  0  0  0  0  0  0  0  0  0  0  0
  150.5433  136.4544  155.2188 C   0  0  0  0  0  0  0  0  0  0  0  0
  151.7073  137.1235  155.1793 N   0  5  0  0  0  0  0  0  0  0  0  0
  151.7246  138.4592  155.3919 C   0  0  0  0  0  0  0  0  0  0  0  0
  152.2221  139.3099  154.6499 O   0  0  0  0  0  0  0  0  0  0  0  0
  151.1232  138.8352  156.5309 N   0  0  0  0  0  0  0  0  0  0  0  0
  150.9781  140.2092  157.0100 C   0  0  1  0  0  0  0  0  0  0  0  0
  149.7078  140.2806  157.8746 C   0  0  0  0  0  0  0  0  0  0  0  0
  152.1793  140.6004  157.8849 C   0  0  0  0  0  0  0  0  0  0  0  0
  153.1736  139.8755  157.9482 O   0  0  0  0  0  0  0  0  0  0  0  0
  152.0601  141.7462  158.5721 N   0  0  0  0  0  0  0  0  0  0  0  0
  153.0687  142.2947  159.4737 C   0  0  0  0  0  0  0  0  0  0  0  0
  153.3111  141.3672  160.6832 C   0  0  0  0  0  0  0  0  0  0  0  0
  153.1709  142.2441  161.9296 C   0  0  0  0  0  0  0  0  0  0  0  0
  152.2173  143.3576  161.5074 C   0  0  0  0  0  0  0  0  0  0  0  0
  152.5979  143.6399  160.0542 C   0  0  0  0  0  0  0  0  0  0  0  0
  148.9588  137.2194  155.0977 S   0  0  0  0  0  0  0  0  0  0  0  0
  146.4690  135.2634  154.1938 H   0  0  0  0  0  0  0  0  0  0  0  0
  146.2795  136.1711  155.7043 H   0  0  0  0  0  0  0  0  0  0  0  0
  146.5776  134.4260  155.7532 H   0  0  0  0  0  0  0  0  0  0  0  0
  150.7386  138.1067  157.1141 H   0  0  0  0  0  0  0  0  0  0  0  0
  150.8794  140.8938  156.1650 H   0  0  0  0  0  0  0  0  0  0  0  0
  149.5492  141.2875  158.2626 H   0  0  0  0  0  0  0  0  0  0  0  0
  149.7525  139.5983  158.7248 H   0  0  0  0  0  0  0  0  0  0  0  0
  148.8263  140.0169  157.2896 H   0  0  0  0  0  0  0  0  0  0  0  0
  151.2113  142.2800  158.4558 H   0  0  0  0  0  0  0  0  0  0  0  0
  153.9989  142.4550  158.9252 H   0  0  0  0  0  0  0  0  0  0  0  0
  152.5610  140.5753  160.7183 H   0  0  0  0  0  0  0  0  0  0  0  0
  154.2864  140.8819  160.6374 H   0  0  0  0  0  0  0  0  0  0  0  0
  152.8107  141.6879  162.7954 H   0  0  0  0  0  0  0  0  0  0  0  0
  154.1403  142.6719  162.1886 H   0  0  0  0  0  0  0  0  0  0  0  0
  151.1881  142.9998  161.5556 H   0  0  0  0  0  0  0  0  0  0  0  0
  152.2950  144.2416  162.1410 H   0  0  0  0  0  0  0  0  0  0  0  0
  153.4275  144.3480  160.0342 H   0  0  0  0  0  0  0  0  0  0  0  0
  151.7791  144.0927  159.4932 H   0  0  0  0  0  0  0  0  0  0  0  0
  1  2  1  0  0  0  0
  1 21  1  0  0  0  0
  1 22  1  0  0  0  0
  1 23  1  0  0  0  0
  2 20  1  0  0  0  0
  2  3  2  0  0  0  0
  3  4  1  0  0  0  0
  4  5  2  0  0  0  0
  5  6  1  0  0  0  0
  5 20  1  0  0  0  0
  6  7  1  0  0  0  0
  7  8  2  0  0  0  0
  7  9  1  0  0  0  0
  9 10  1  0  0  0  0
  9 24  1  0  0  0  0
 10 11  1  0  0  0  0
 10 12  1  0  0  0  0
 10 25  1  0  0  0  0
 11 26  1  0  0  0  0
 11 27  1  0  0  0  0
 11 28  1  0  0  0  0
 12 13  2  0  0  0  0
 12 14  1  0  0  0  0
 14 15  1  0  0  0  0
 14 29  1  0  0  0  0
 15 19  1  0  0  0  0
 15 16  1  0  0  0  0
 15 30  1  0  0  0  0
 16 17  1  0  0  0  0
 16 31  1  0  0  0  0
 16 32  1  0  0  0  0
 17 18  1  0  0  0  0
 17 33  1  0  0  0  0
 17 34  1  0  0  0  0
 18 19  1  0  0  0  0
 18 35  1  0  0  0  0
 18 36  1  0  0  0  0
 19 37  1  0  0  0  0
 19 38  1  0  0  0  0
M  CHG  1   6  -1
M  END
> <s_m_source_file>
AV-unprocessed.smi

> <i_m_source_file_index>
826

> <i_lp_mmshare_version>
43012

> <i_f3d_flags>
0

> <s_epik_input>
W0NIM11jMW5uYyhzMSlbTkhdQyg9TylbTkhdW0NASF0oW0NIM10pQyg9TylbTkhdW0NIXTJbQ0gyXVtDSDJdW0NIMl1bQ0gyXTI=

> <s_epik_cmdline>
J2VwaWtfcHl0aG9uJywgJy1waCcsICc3LjAnLCAnLXRuJywgJzgnLCAnLW1hJywgJzIwMCcsICctbWV0YWxfYmluZGluZycsICctaW1hZScsICc8aW5maWxlLm1hZT4nLCAnLW9tYWUnLCAnPG91dGZpbGUubWFlPic=

> <r_lp_tautomer_probability>
1

> <r_epik_Ionization_Penalty>
3.15008

> <r_epik_Ionization_Penalty_Charging>
3.01509

> <r_epik_Ionization_Penalty_Neutral>
0.134987

> <r_epik_State_Penalty>
3.01143

> <r_epik_Charging_Adjusted_Penalty>
6.02652

> <i_epik_Tot_Q>
-1

> <i_epik_Tot_abs_Q>
1

> <r_epik_Metal_State_Penalty>
0.454645

> <b_epik_Metal_Only>
1

> <s_lp_Force_Field>
OPLS_2005

> <r_lp_Energy>
16.5176

> <b_lp_Chiralities_Consistent>
1

> <s_lp_Variant>
AV-unprocessed.smi:826-4

> <Gold.Version>
5.8.1

> <Gold.Id.Protein>
6NUR|6NUR_protein|mol2

> <Gold.PLP.Fitness>
42.4508

> <Gold.PLP.PLP>
-33.3618

> <Gold.PLP.part.hbond>
-3.0000

> <Gold.PLP.part.metal>
0.0000

> <Gold.PLP.part.buried>
-4.9687

> <Gold.PLP.part.nonpolar>
-25.8658

> <Gold.PLP.part.repulsive>
0.4262

> <Gold.PLP.ligand.clash>
0.0000

> <Gold.PLP.ligand.torsion>
1.1089

> <Gold.PLP.Chemscore.Hbond>
3.7410

> <Gold.PLP.Chemscore.CHOScore>
0.0000

> <Gold.PLP.Chemscore.Metal>
0.0000

> <Gold.Chemscore.Hbonds>
donor molecule, donor type, donor heavy atom, donor atom, acceptor molecule, acceptor atom, score
      P1  H  7989  7998       L1     8  0.80
      P1  H  7997  8009       L1    13  1.00
      P1  H 10752 10763       L1     6  1.74

> <Gold.PLP.Chemscore.Internal.Correction>
0.0839

> <Gold.Rescore>
     Score         DG    S(hbond)    S(metal)    S(lipo)     H(rot)  DE(clash)    DE(int)     intcor
     15.60     -17.44       2.39        0.00      69.34       1.62       0.02       1.82       ----

> <Gold.Chemscore.Fitness>
15.5971

> <Gold.Chemscore.DG>
-17.4380

> <Gold.Chemscore.ZeroCoef>
-5.4800

> <Gold.Chemscore.Hbond>
2.3930

> <Gold.Chemscore.Metal>
0.0000

> <Gold.Chemscore.Lipo>
69.3400

> <Gold.Chemscore.Internal_Hbond>
0.0000

> <Gold.Chemscore.DEClash>
0.0238

> <Gold.Chemscore.DEInternal>
1.8170

> <Gold.Chemscore.Rot>
1.6201

> <Gold.Chemscore.Internal.Correction>
   9.000000E+99

> <Gold.Chemscore.Hbonds>
donor molecule, donor type, donor heavy atom, donor atom, acceptor molecule, acceptor atom, score
      P1  H  7989  7998       L1     8  0.76
      P1  H  7997  8009       L1    13  0.99
      P1  H 10752 10763       L1     6  0.21

> <Gold.Chemscore.Hbond.Weighted>
-7.9927

> <Gold.Chemscore.Metal.Weighted>
-0.0000

> <Gold.Chemscore.Lipo.Weighted>
-8.1128

> <Gold.Chemscore.Internal_Hbond.Weighted>
0.0000

> <Gold.Chemscore.DEClash.Weighted>
0.0238

> <Gold.Chemscore.DEInternal.Weighted>
1.8170

> <Gold.Chemscore.Rot.Weighted>
4.1475

> <Gold.Chemscore.Internal.Correction.Weighted>
   9.000000E+99

> <Gold.Protein.RotatedTorsions>
[ 6907 6896 6895 6894 ] final   29.85 input  -60.11 | X-H torsion
[ 7974 7965 7964 7962 ] final  -85.84 input  175.53 | X-H torsion
[ 8008 7997 7996 7995 ] final  156.80 input   59.86 | X-H torsion
[ 10167 10162 10161 10158 ] final  -30.23 input  -65.29 | X-H torsion
[ 10718 10713 10712 10709 ] final -160.35 input   66.30 | X-H torsion
[ 10763 10752 10751 10750 ] final   73.59 input  -60.55 | X-H torsion
[ 11005 11000 10999 10996 ] final  156.30 input  -57.11 | X-H torsion

> <Gold.Protein.ActiveResidues>
 VAL166  LYS551  ARG553  GLY616  TRP617  ASP618  TYR619  PRO620  LYS621  CYS622 
 ASP623  PHE694  ASN695  SER759  ASP760  ASP761  ALA762  ILE779  LEU786  VAL792 
 PHE793  MET794  SER795  GLU796  ALA797  LYS798  CYS799  TRP800  GLU811  SER814 

> <Gold.Protein.RotatedAtoms>
  152.0375  134.9731  160.0573 H   0  0  0  0  0  0  0  0  0  0  0  0  # atno 6907 bound_to 6896
  152.1183  133.4334  159.4672 H   0  0  0  0  0  0  0  0  0  0  0  0  # atno 6908 bound_to 6896
  150.6847  134.2484  159.4544 H   0  0  0  0  0  0  0  0  0  0  0  0  # atno 6909 bound_to 6896
  145.4879  140.9554  143.1828 H   0  0  0  0  0  0  0  0  0  0  0  0  # atno 7974 bound_to 7965
  156.2401  140.1902  156.7011 H   0  0  0  0  0  0  0  0  0  0  0  0  # atno 8008 bound_to 7997
  154.6181  140.0612  156.9607 H   0  0  0  0  0  0  0  0  0  0  0  0  # atno 8009 bound_to 7997
  155.1906  140.3284  155.4362 H   0  0  0  0  0  0  0  0  0  0  0  0  # atno 8010 bound_to 7997
  140.7252  143.3866  151.1505 H   0  0  0  0  0  0  0  0  0  0  0  0  # atno 10167 bound_to 10162
  156.5809  130.8729  151.2864 H   0  0  0  0  0  0  0  0  0  0  0  0  # atno 10718 bound_to 10713
  153.0531  135.5057  154.7917 H   0  0  0  0  0  0  0  0  0  0  0  0  # atno 10763 bound_to 10752
  154.6763  135.2961  154.9676 H   0  0  0  0  0  0  0  0  0  0  0  0  # atno 10764 bound_to 10752
  154.0477  135.6708  153.4849 H   0  0  0  0  0  0  0  0  0  0  0  0  # atno 10765 bound_to 10752
  140.1662  134.8575  157.2634 H   0  0  0  0  0  0  0  0  0  0  0  0  # atno 11005 bound_to 11000
  144.7851  139.6444  143.7137 LP  0  0  0  0  0  0  0  0  0  0  0  0  # atno 17320 bound_to 7965
  146.2302  139.5799  142.9560 LP  0  0  0  0  0  0  0  0  0  0  0  0  # atno 17321 bound_to 7965
  139.7464  143.8846  152.3064 LP  0  0  0  0  0  0  0  0  0  0  0  0  # atno 17342 bound_to 10162
  139.8685  144.7081  150.9016 LP  0  0  0  0  0  0  0  0  0  0  0  0  # atno 17343 bound_to 10162
  157.7327  130.9719  150.1940 LP  0  0  0  0  0  0  0  0  0  0  0  0  # atno 17370 bound_to 10713
  156.2633  130.3713  149.8108 LP  0  0  0  0  0  0  0  0  0  0  0  0  # atno 17371 bound_to 10713
  140.2431  134.3771  155.7472 LP  0  0  0  0  0  0  0  0  0  0  0  0  # atno 17394 bound_to 11000
  141.2214  133.7276  156.8820 LP  0  0  0  0  0  0  0  0  0  0  0  0  # atno 17395 bound_to 11000

$$$$
