AV-unprocessed.smi:66|AV-procd|sdf|626|dock4
  -GOLD-   2262016513D 1   1.00000     0.00000
 Structure written by MMmdl.
 27 29  0  0  0  0  0  0  0  0  3 V2000
  153.1463  138.7328  155.4055 O   0  0  0  0  0  0  0  0  0  0  0  0
  152.0835  138.1222  155.1578 C   0  0  0  0  0  0  0  0  0  0  0  0
  152.0064  136.9525  154.7198 O   0  5  0  0  0  0  0  0  0  0  0  0
  150.7744  138.8885  155.3982 C   0  0  1  0  0  0  0  0  0  0  0  0
  150.6782  140.1536  154.5329 C   0  0  0  0  0  0  0  0  0  0  0  0
  149.1707  140.3487  154.4030 C   0  0  1  0  0  0  0  0  0  0  0  0
  148.8163  141.1395  153.2877 O   0  0  0  0  0  0  0  0  0  0  0  0
  148.6368  138.9176  154.3096 C   0  0  0  0  0  0  0  0  0  0  0  0
  149.5852  138.1018  155.0591 N   0  0  0  0  0  0  0  0  0  0  0  0
  149.1087  137.0704  155.8995 C   0  0  0  0  0  0  0  0  0  0  0  0
  148.3314  136.1009  155.3517 N   0  0  0  0  0  0  0  0  0  0  0  0
  147.8883  135.1252  156.1519 C   0  0  0  0  0  0  0  0  0  0  0  0
  148.1282  134.9849  157.4589 N   0  0  0  0  0  0  0  0  0  0  0  0
  148.8946  135.9420  158.0204 C   0  0  0  0  0  0  0  0  0  0  0  0
  149.3182  136.1259  159.2605 N   0  5  0  0  0  0  0  0  0  0  0  0
  150.0561  137.2654  159.2706 C   0  0  0  0  0  0  0  0  0  0  0  0
  150.1449  137.8601  158.0634 N   0  0  0  0  0  0  0  0  0  0  0  0
  149.4117  137.0085  157.2854 C   0  0  0  0  0  0  0  0  0  0  0  0
  150.7138  139.1814  156.4475 H   0  0  0  0  0  0  0  0  0  0  0  0
  151.1755  141.0119  154.9854 H   0  0  0  0  0  0  0  0  0  0  0  0
  151.1187  139.9897  153.5474 H   0  0  0  0  0  0  0  0  0  0  0  0
  148.7905  140.8189  155.3111 H   0  0  0  0  0  0  0  0  0  0  0  0
  149.2462  140.7867  152.5242 H   0  0  0  0  0  0  0  0  0  0  0  0
  147.6200  138.8600  154.7002 H   0  0  0  0  0  0  0  0  0  0  0  0
  148.6269  138.5648  153.2773 H   0  0  0  0  0  0  0  0  0  0  0  0
  147.2754  134.3653  155.6903 H   0  0  0  0  0  0  0  0  0  0  0  0
  150.5029  137.6089  160.1953 H   0  0  0  0  0  0  0  0  0  0  0  0
  1  2  2  0  0  0  0
  2  3  1  0  0  0  0
  2  4  1  0  0  0  0
  4  5  1  0  0  0  0
  4 19  1  0  0  0  0
  4  9  1  0  0  0  0
  5  6  1  0  0  0  0
  5 20  1  0  0  0  0
  5 21  1  0  0  0  0
  6  7  1  0  0  0  0
  6  8  1  0  0  0  0
  6 22  1  0  0  0  0
  7 23  1  0  0  0  0
  8 24  1  0  0  0  0
  8 25  1  0  0  0  0
  8  9  1  0  0  0  0
  9 10  1  0  0  0  0
 10 11  1  0  0  0  0
 10 18  2  0  0  0  0
 11 12  2  0  0  0  0
 12 26  1  0  0  0  0
 12 13  1  0  0  0  0
 13 14  2  0  0  0  0
 14 15  1  0  0  0  0
 14 18  1  0  0  0  0
 15 16  1  0  0  0  0
 16 17  2  0  0  0  0
 16 27  1  0  0  0  0
 17 18  1  0  0  0  0
M  CHG  1   3  -1
M  CHG  1  15  -1
M  END
> <s_m_source_file>
AV-unprocessed.smi

> <i_m_source_file_index>
66

> <i_lp_mmshare_version>
43012

> <i_f3d_flags>
0

> <s_epik_input>
Tz1DKFtPSF0pW0NAQEhdMVtDSDJdW0NAQEhdKFtPSF0pW0NIMl1OMWMobltjSF1uMiljKGMyMylbbkhdW2NIXW4z

> <s_epik_cmdline>
J2VwaWtfcHl0aG9uJywgJy1waCcsICc3LjAnLCAnLXRuJywgJzgnLCAnLW1hJywgJzIwMCcsICctbWV0YWxfYmluZGluZycsICctaW1hZScsICc8aW5maWxlLm1hZT4nLCAnLW9tYWUnLCAnPG91dGZpbGUubWFlPic=

> <r_lp_tautomer_probability>
0.955585

> <r_epik_Ionization_Penalty>
7.65809

> <r_epik_Ionization_Penalty_Charging>
3.4974

> <r_epik_Ionization_Penalty_Neutral>
4.16069

> <r_epik_State_Penalty>
3.51624

> <r_epik_Charging_Adjusted_Penalty>
7.01364

> <i_epik_Tot_Q>
-2

> <i_epik_Tot_abs_Q>
2

> <r_epik_Metal_State_Penalty>
0.522662

> <b_epik_Metal_Only>
1

> <s_lp_Force_Field>
OPLS_2005

> <r_lp_Energy>
45.116

> <b_lp_Chiralities_Consistent>
1

> <s_lp_Variant>
AV-unprocessed.smi:66-10

> <Gold.Version>
5.8.1

> <Gold.Id.Protein>
6NUR|6NUR_protein|mol2

> <Gold.PLP.Fitness>
40.0514

> <Gold.PLP.PLP>
-20.1082

> <Gold.PLP.part.hbond>
-5.3089

> <Gold.PLP.part.metal>
0.0000

> <Gold.PLP.part.buried>
-0.4266

> <Gold.PLP.part.nonpolar>
-15.0689

> <Gold.PLP.part.repulsive>
0.2211

> <Gold.PLP.ligand.clash>
0.0000

> <Gold.PLP.ligand.torsion>
0.6389

> <Gold.PLP.Chemscore.Hbond>
6.9840

> <Gold.PLP.Chemscore.CHOScore>
0.0000

> <Gold.PLP.Chemscore.Metal>
0.0000

> <Gold.Chemscore.Hbonds>
donor molecule, donor type, donor heavy atom, donor atom, acceptor molecule, acceptor atom, score
      L1  H     7    23       P1  7957  1.00
      P1  H  6896  6908       L1    15  1.72
      P1  H  7997  8008       L1     1  2.00
      P1  H 10752 10765       L1     3  2.00

> <Gold.PLP.Chemscore.Internal.Correction>
0.2689

> <Gold.Rescore>
     Score         DG    S(hbond)    S(metal)    S(lipo)     H(rot)  DE(clash)    DE(int)     intcor
     13.41     -16.45       3.70        0.00      27.00       1.78       1.21       1.82       ----

> <Gold.Chemscore.Fitness>
13.4140

> <Gold.Chemscore.DG>
-16.4497

> <Gold.Chemscore.ZeroCoef>
-5.4800

> <Gold.Chemscore.Hbond>
3.6992

> <Gold.Chemscore.Metal>
0.0000

> <Gold.Chemscore.Lipo>
27.0046

> <Gold.Chemscore.Internal_Hbond>
0.0000

> <Gold.Chemscore.DEClash>
1.2136

> <Gold.Chemscore.DEInternal>
1.8221

> <Gold.Chemscore.Rot>
1.7754

> <Gold.Chemscore.Internal.Correction>
   9.000000E+99

> <Gold.Chemscore.Hbonds>
donor molecule, donor type, donor heavy atom, donor atom, acceptor molecule, acceptor atom, score
      L1  H     7    23       P1  7957  0.98
      P1  H  6896  6908       L1    15  0.20
      P1  H  7997  8008       L1     1  0.93
      P1  H 10752 10765       L1     3  0.95

> <Gold.Chemscore.Hbond.Weighted>
-12.3553

> <Gold.Chemscore.Metal.Weighted>
-0.0000

> <Gold.Chemscore.Lipo.Weighted>
-3.1595

> <Gold.Chemscore.Internal_Hbond.Weighted>
0.0000

> <Gold.Chemscore.DEClash.Weighted>
1.2136

> <Gold.Chemscore.DEInternal.Weighted>
1.8221

> <Gold.Chemscore.Rot.Weighted>
4.5451

> <Gold.Chemscore.Internal.Correction.Weighted>
   9.000000E+99

> <Gold.Protein.RotatedTorsions>
[ 6907 6896 6895 6894 ] final  167.15 input  -60.11 | X-H torsion
[ 7974 7965 7964 7962 ] final   26.04 input  175.53 | X-H torsion
[ 8008 7997 7996 7995 ] final  -32.77 input   59.86 | X-H torsion
[ 10167 10162 10161 10158 ] final -112.29 input  -65.29 | X-H torsion
[ 10718 10713 10712 10709 ] final  126.61 input   66.30 | X-H torsion
[ 10763 10752 10751 10750 ] final  173.55 input  -60.55 | X-H torsion
[ 11005 11000 10999 10996 ] final -115.95 input  -57.11 | X-H torsion

> <Gold.Protein.ActiveResidues>
 VAL166  LYS551  ARG553  GLY616  TRP617  ASP618  TYR619  PRO620  LYS621  CYS622 
 ASP623  PHE694  ASN695  SER759  ASP760  ASP761  ALA762  ILE779  LEU786  VAL792 
 PHE793  MET794  SER795  GLU796  ALA797  LYS798  CYS799  TRP800  GLU811  SER814 

> <Gold.Protein.RotatedAtoms>
  151.8677  133.3469  159.3724 H   0  0  0  0  0  0  0  0  0  0  0  0  # atno 6907 bound_to 6896
  150.7161  134.5143  159.5632 H   0  0  0  0  0  0  0  0  0  0  0  0  # atno 6908 bound_to 6896
  152.2670  134.7974  160.0472 H   0  0  0  0  0  0  0  0  0  0  0  0  # atno 6909 bound_to 6896
  146.1858  139.7382  142.8868 H   0  0  0  0  0  0  0  0  0  0  0  0  # atno 7974 bound_to 7965
  154.4169  140.1728  156.1781 H   0  0  0  0  0  0  0  0  0  0  0  0  # atno 8008 bound_to 7997
  155.9705  140.3386  155.6547 H   0  0  0  0  0  0  0  0  0  0  0  0  # atno 8009 bound_to 7997
  155.6631  140.0703  157.2537 H   0  0  0  0  0  0  0  0  0  0  0  0  # atno 8010 bound_to 7997
  140.1243  143.4415  152.1670 H   0  0  0  0  0  0  0  0  0  0  0  0  # atno 10167 bound_to 10162
  157.5405  131.1097  150.8867 H   0  0  0  0  0  0  0  0  0  0  0  0  # atno 10718 bound_to 10713
  154.4417  135.2762  155.1843 H   0  0  0  0  0  0  0  0  0  0  0  0  # atno 10763 bound_to 10752
  154.3707  135.6109  153.5742 H   0  0  0  0  0  0  0  0  0  0  0  0  # atno 10764 bound_to 10752
  152.9841  135.5856  154.4745 H   0  0  0  0  0  0  0  0  0  0  0  0  # atno 10765 bound_to 10752
  141.0454  133.9771  157.2926 H   0  0  0  0  0  0  0  0  0  0  0  0  # atno 11005 bound_to 11000
  145.3943  141.0377  143.3106 LP  0  0  0  0  0  0  0  0  0  0  0  0  # atno 17320 bound_to 7965
  144.8394  139.5496  143.6907 LP  0  0  0  0  0  0  0  0  0  0  0  0  # atno 17321 bound_to 7965
  139.5552  144.7367  151.4315 LP  0  0  0  0  0  0  0  0  0  0  0  0  # atno 17342 bound_to 10162
  140.6854  143.7987  150.7178 LP  0  0  0  0  0  0  0  0  0  0  0  0  # atno 17343 bound_to 10162
  156.9421  130.5388  149.5280 LP  0  0  0  0  0  0  0  0  0  0  0  0  # atno 17370 bound_to 10713
  156.0492  130.5564  150.8952 LP  0  0  0  0  0  0  0  0  0  0  0  0  # atno 17371 bound_to 10713
  139.9308  135.0200  156.8392 LP  0  0  0  0  0  0  0  0  0  0  0  0  # atno 17394 bound_to 11000
  140.6156  134.0041  155.7596 LP  0  0  0  0  0  0  0  0  0  0  0  0  # atno 17395 bound_to 11000

$$$$
