AV-unprocessed.smi:481|AV-procd|sdf|2682|dock9
  -GOLD-   2262023103D 1   1.00000     0.00000
 Structure written by MMmdl.
 42 44  0  0  0  0  0  0  0  0  2 V2000
  155.5787  142.2752  165.7467 C   0  0  0  0  0  0  0  0  0  0  0  0
  156.0569  141.6247  164.5824 O   0  0  0  0  0  0  0  0  0  0  0  0
  156.1608  140.2208  164.7499 C   0  0  0  0  0  0  0  0  0  0  0  0
  156.7691  139.6117  163.4807 C   0  0  0  0  0  0  0  0  0  0  0  0
  155.7474  139.3260  162.4781 N   0  0  0  0  0  0  0  0  0  0  0  0
  154.8310  140.1863  161.9661 C   0  0  0  0  0  0  0  0  0  0  0  0
  154.7964  141.5086  162.4084 N   0  0  0  0  0  0  0  0  0  0  0  0
  153.9120  142.3619  161.9226 N   0  0  0  0  0  0  0  0  0  0  0  0
  153.7818  142.3737  160.6447 C   0  0  0  0  0  0  0  0  0  0  0  0
  152.8389  143.2694  159.9582 C   0  0  0  0  0  0  0  0  0  0  0  0
  152.6894  143.2622  158.5508 C   0  0  0  0  0  0  0  0  0  0  0  0
  151.7770  144.1355  157.9269 C   0  0  0  0  0  0  0  0  0  0  0  0
  151.0067  145.0226  158.7023 C   0  0  0  0  0  0  0  0  0  0  0  0
  151.1493  145.0356  160.1026 C   0  0  0  0  0  0  0  0  0  0  0  0
  152.0613  144.1626  160.7272 C   0  0  0  0  0  0  0  0  0  0  0  0
  154.0127  139.6531  161.0531 N   0  0  0  0  0  0  0  0  0  0  0  0
  154.4440  138.3360  160.9893 C   0  0  0  0  0  0  0  0  0  0  0  0
  155.4792  138.1118  161.8415 C   0  0  0  0  0  0  0  0  0  0  0  0
  156.1365  136.7991  162.0114 C   0  0  0  0  0  0  0  0  0  0  0  0
  157.0523  136.6483  162.8178 O   0  0  0  0  0  0  0  0  0  0  0  0
  155.5966  135.8433  161.1902 N   0  5  0  0  0  0  0  0  0  0  0  0
  154.5536  136.0266  160.3064 C   0  0  0  0  0  0  0  0  0  0  0  0
  154.1344  135.1049  159.6059 O   0  0  0  0  0  0  0  0  0  0  0  0
  153.9621  137.2600  160.1977 N   0  0  0  0  0  0  0  0  0  0  0  0
  152.8407  137.5330  159.2934 C   0  0  0  0  0  0  0  0  0  0  0  0
  155.5207  143.3489  165.5690 H   0  0  0  0  0  0  0  0  0  0  0  0
  156.2454  142.1100  166.5941 H   0  0  0  0  0  0  0  0  0  0  0  0
  154.5807  141.9237  166.0117 H   0  0  0  0  0  0  0  0  0  0  0  0
  156.7837  139.9913  165.6158 H   0  0  0  0  0  0  0  0  0  0  0  0
  155.1727  139.7951  164.9322 H   0  0  0  0  0  0  0  0  0  0  0  0
  157.5106  140.2905  163.0590 H   0  0  0  0  0  0  0  0  0  0  0  0
  157.3133  138.6970  163.7127 H   0  0  0  0  0  0  0  0  0  0  0  0
  155.4551  141.7948  163.1182 H   0  0  0  0  0  0  0  0  0  0  0  0
  154.3830  141.7031  160.0268 H   0  0  0  0  0  0  0  0  0  0  0  0
  153.2703  142.5902  157.9356 H   0  0  0  0  0  0  0  0  0  0  0  0
  151.6693  144.1240  156.8522 H   0  0  0  0  0  0  0  0  0  0  0  0
  150.3075  145.6922  158.2235 H   0  0  0  0  0  0  0  0  0  0  0  0
  150.5594  145.7158  160.6991 H   0  0  0  0  0  0  0  0  0  0  0  0
  152.1589  144.1857  161.8031 H   0  0  0  0  0  0  0  0  0  0  0  0
  152.5200  136.6757  158.7010 H   0  0  0  0  0  0  0  0  0  0  0  0
  153.1117  138.3260  158.5958 H   0  0  0  0  0  0  0  0  0  0  0  0
  151.9775  137.8724  159.8668 H   0  0  0  0  0  0  0  0  0  0  0  0
  1  2  1  0  0  0  0
  1 26  1  0  0  0  0
  1 27  1  0  0  0  0
  1 28  1  0  0  0  0
  2  3  1  0  0  0  0
  3  4  1  0  0  0  0
  3 29  1  0  0  0  0
  3 30  1  0  0  0  0
  4  5  1  0  0  0  0
  4 31  1  0  0  0  0
  4 32  1  0  0  0  0
  5 18  1  0  0  0  0
  5  6  1  0  0  0  0
  6  7  1  0  0  0  0
  6 16  2  0  0  0  0
  7  8  1  0  0  0  0
  7 33  1  0  0  0  0
  8  9  2  0  0  0  0
  9 10  1  0  0  0  0
  9 34  1  0  0  0  0
 10 15  1  0  0  0  0
 10 11  2  0  0  0  0
 11 12  1  0  0  0  0
 11 35  1  0  0  0  0
 12 13  2  0  0  0  0
 12 36  1  0  0  0  0
 13 14  1  0  0  0  0
 13 37  1  0  0  0  0
 14 15  2  0  0  0  0
 14 38  1  0  0  0  0
 15 39  1  0  0  0  0
 16 17  1  0  0  0  0
 17 24  1  0  0  0  0
 17 18  2  0  0  0  0
 18 19  1  0  0  0  0
 19 20  2  0  0  0  0
 19 21  1  0  0  0  0
 21 22  1  0  0  0  0
 22 23  2  0  0  0  0
 22 24  1  0  0  0  0
 24 25  1  0  0  0  0
 25 40  1  0  0  0  0
 25 41  1  0  0  0  0
 25 42  1  0  0  0  0
M  CHG  1  21  -1
M  END
> <s_m_source_file>
AV-unprocessed.smi

> <i_m_source_file_index>
481

> <i_lp_mmshare_version>
43012

> <i_f3d_flags>
0

> <s_epik_input>
W0NIM11uMWMoPU8pW25IXWMoPU8pYyhjMTIpbihbQ0gyXVtDSDJdT1tDSDNdKWMobjIpW05IXS9OPVtDSF0vYzNbY0hdW2NIXVtjSF1bY0hdW2NIXTM=

> <s_epik_cmdline>
J2VwaWtfcHl0aG9uJywgJy1waCcsICc3LjAnLCAnLXRuJywgJzgnLCAnLW1hJywgJzIwMCcsICctbWV0YWxfYmluZGluZycsICctaW1hZScsICc8aW5maWxlLm1hZT4nLCAnLW9tYWUnLCAnPG91dGZpbGUubWFlPic=

> <r_epik_Ionization_Penalty>
4.48471

> <r_epik_Ionization_Penalty_Charging>
4.58449e-09

> <r_epik_Ionization_Penalty_Neutral>
4.48471

> <r_epik_State_Penalty>
4.48428

> <r_epik_Charging_Adjusted_Penalty>
4.48428

> <i_epik_Tot_Q>
-1

> <i_epik_Tot_abs_Q>
1

> <r_epik_Metal_State_Penalty>
0.811551

> <b_epik_Metal_Only>
1

> <s_epik_Chemistry_Notes>
This compound has an imine and may undergo hydrolysis.

> <s_lp_Force_Field>
OPLS_2005

> <r_lp_Energy>
36.4971

> <b_lp_Chiralities_Consistent>
1

> <s_lp_Variant>
AV-unprocessed.smi:481-3

> <Gold.Version>
5.8.1

> <Gold.Id.Protein>
6NUR|6NUR_protein|mol2

> <Gold.PLP.Fitness>
46.9003

> <Gold.PLP.PLP>
-44.6361

> <Gold.PLP.part.hbond>
-3.0296

> <Gold.PLP.part.metal>
0.0000

> <Gold.PLP.part.buried>
-5.4696

> <Gold.PLP.part.nonpolar>
-35.0373

> <Gold.PLP.part.repulsive>
0.0243

> <Gold.PLP.ligand.clash>
0.0000

> <Gold.PLP.ligand.torsion>
0.3812

> <Gold.PLP.Chemscore.Hbond>
1.0000

> <Gold.PLP.Chemscore.CHOScore>
0.0000

> <Gold.PLP.Chemscore.Metal>
0.0000

> <Gold.Chemscore.Hbonds>
donor molecule, donor type, donor heavy atom, donor atom, acceptor molecule, acceptor atom, score
      P1  H  6896  6908       L1    23  1.00

> <Gold.PLP.Chemscore.Internal.Correction>
0.0265

> <Gold.Rescore>
     Score         DG    S(hbond)    S(metal)    S(lipo)     H(rot)  DE(clash)    DE(int)     intcor
     14.12     -16.24       0.94        0.00      98.40       1.52       0.30       1.82       ----

> <Gold.Chemscore.Fitness>
14.1174

> <Gold.Chemscore.DG>
-16.2386

> <Gold.Chemscore.ZeroCoef>
-5.4800

> <Gold.Chemscore.Hbond>
0.9415

> <Gold.Chemscore.Metal>
0.0000

> <Gold.Chemscore.Lipo>
98.4013

> <Gold.Chemscore.Internal_Hbond>
0.0000

> <Gold.Chemscore.DEClash>
0.3047

> <Gold.Chemscore.DEInternal>
1.8166

> <Gold.Chemscore.Rot>
1.5230

> <Gold.Chemscore.Internal.Correction>
   9.000000E+99

> <Gold.Chemscore.Hbonds>
donor molecule, donor type, donor heavy atom, donor atom, acceptor molecule, acceptor atom, score
      P1  H  6896  6908       L1    23  0.93

> <Gold.Chemscore.Hbond.Weighted>
-3.1445

> <Gold.Chemscore.Metal.Weighted>
-0.0000

> <Gold.Chemscore.Lipo.Weighted>
-11.5130

> <Gold.Chemscore.Internal_Hbond.Weighted>
0.0000

> <Gold.Chemscore.DEClash.Weighted>
0.3047

> <Gold.Chemscore.DEInternal.Weighted>
1.8166

> <Gold.Chemscore.Rot.Weighted>
3.8989

> <Gold.Chemscore.Internal.Correction.Weighted>
   9.000000E+99

> <Gold.Protein.RotatedTorsions>
[ 6907 6896 6895 6894 ] final  -52.97 input  -60.11 | X-H torsion
[ 7974 7965 7964 7962 ] final   49.75 input  175.53 | X-H torsion
[ 8008 7997 7996 7995 ] final   60.96 input   59.86 | X-H torsion
[ 10167 10162 10161 10158 ] final  158.80 input  -65.29 | X-H torsion
[ 10718 10713 10712 10709 ] final  171.87 input   66.30 | X-H torsion
[ 10763 10752 10751 10750 ] final   -8.42 input  -60.55 | X-H torsion
[ 11005 11000 10999 10996 ] final -138.24 input  -57.11 | X-H torsion

> <Gold.Protein.ActiveResidues>
 VAL166  LYS551  ARG553  GLY616  TRP617  ASP618  TYR619  PRO620  LYS621  CYS622 
 ASP623  PHE694  ASN695  SER759  ASP760  ASP761  ALA762  ILE779  LEU786  VAL792 
 PHE793  MET794  SER795  GLU796  ALA797  LYS798  CYS799  TRP800  GLU811  SER814 

> <Gold.Protein.RotatedAtoms>
  150.8469  134.7781  159.6977 H   0  0  0  0  0  0  0  0  0  0  0  0  # atno 6907 bound_to 6896
  152.4544  134.5321  159.9824 H   0  0  0  0  0  0  0  0  0  0  0  0  # atno 6908 bound_to 6896
  151.5450  133.3388  159.2978 H   0  0  0  0  0  0  0  0  0  0  0  0  # atno 6909 bound_to 6896
  146.0079  139.4510  142.9974 H   0  0  0  0  0  0  0  0  0  0  0  0  # atno 7974 bound_to 7965
  155.5908  140.3493  155.4566 H   0  0  0  0  0  0  0  0  0  0  0  0  # atno 8008 bound_to 7997
  156.0303  140.1273  157.0290 H   0  0  0  0  0  0  0  0  0  0  0  0  # atno 8009 bound_to 7997
  154.4349  140.1044  156.6076 H   0  0  0  0  0  0  0  0  0  0  0  0  # atno 8010 bound_to 7997
  139.4828  144.4790  151.8470 H   0  0  0  0  0  0  0  0  0  0  0  0  # atno 10167 bound_to 10162
  156.9872  131.0137  151.2866 H   0  0  0  0  0  0  0  0  0  0  0  0  # atno 10718 bound_to 10713
  153.4402  135.7013  153.6174 H   0  0  0  0  0  0  0  0  0  0  0  0  # atno 10763 bound_to 10752
  153.4552  135.3749  155.2307 H   0  0  0  0  0  0  0  0  0  0  0  0  # atno 10764 bound_to 10752
  154.8727  135.4006  154.3799 H   0  0  0  0  0  0  0  0  0  0  0  0  # atno 10765 bound_to 10752
  140.8635  134.2139  157.4693 H   0  0  0  0  0  0  0  0  0  0  0  0  # atno 11005 bound_to 11000
  145.7388  141.0016  143.1312 LP  0  0  0  0  0  0  0  0  0  0  0  0  # atno 17320 bound_to 7965
  144.6942  139.9073  143.7461 LP  0  0  0  0  0  0  0  0  0  0  0  0  # atno 17321 bound_to 7965
  140.4265  144.2173  150.5887 LP  0  0  0  0  0  0  0  0  0  0  0  0  # atno 17342 bound_to 10162
  140.4822  143.2375  151.8939 LP  0  0  0  0  0  0  0  0  0  0  0  0  # atno 17343 bound_to 10162
  157.5484  130.8166  149.8115 LP  0  0  0  0  0  0  0  0  0  0  0  0  # atno 17370 bound_to 10713
  156.0221  130.3792  150.1931 LP  0  0  0  0  0  0  0  0  0  0  0  0  # atno 17371 bound_to 10713
  139.8708  134.9741  156.4833 LP  0  0  0  0  0  0  0  0  0  0  0  0  # atno 17394 bound_to 11000
  140.8655  133.8027  155.9310 LP  0  0  0  0  0  0  0  0  0  0  0  0  # atno 17395 bound_to 11000

$$$$
