AV-unprocessed.smi:305|AV-procd|sdf|2281|dock9
  -GOLD-   2262022183D 1   1.00000     0.00000
 Structure written by MMmdl.
 46 48  0  0  0  0  0  0  0  0  2 V2000
  154.7872  133.8092  158.0755 C   0  0  0  0  0  0  0  0  0  0  0  0
  154.5227  135.2418  158.5437 C   0  0  0  0  0  0  0  0  0  0  0  0
  154.4059  136.0825  157.4087 O   0  0  0  0  0  0  0  0  0  0  0  0
  154.3316  137.4557  157.7524 C   0  0  0  0  0  0  0  0  0  0  0  0
  152.9702  137.7304  158.4038 C   0  0  0  0  0  0  0  0  0  0  0  0
  152.8742  139.0984  158.9016 N   0  0  0  0  0  0  0  0  0  0  0  0
  152.2319  140.1463  158.3256 C   0  0  0  0  0  0  0  0  0  0  0  0
  151.5496  140.0063  157.0984 N   0  0  0  0  0  0  0  0  0  0  0  0
  151.9125  139.0408  156.2290 N   0  0  0  0  0  0  0  0  0  0  0  0
  151.0931  139.1829  155.2014 C   0  0  0  0  0  0  0  0  0  0  0  0
  151.2126  138.2451  154.0348 C   0  0  0  0  0  0  0  0  0  0  0  0
  150.1834  140.2661  155.3773 C   0  0  0  0  0  0  0  0  0  0  0  0
  149.1180  140.7324  154.4237 C   0  0  0  0  0  0  0  0  0  0  0  0
  150.5058  140.7693  156.6089 C   0  0  0  0  0  0  0  0  0  0  0  0
  149.9167  141.9073  157.3795 C   0  0  0  0  0  0  0  0  0  0  0  0
  152.2865  141.2887  159.0130 N   0  0  0  0  0  0  0  0  0  0  0  0
  153.0454  140.9389  160.1212 C   0  0  0  0  0  0  0  0  0  0  0  0
  153.4118  139.6292  160.0765 C   0  0  0  0  0  0  0  0  0  0  0  0
  154.2265  138.9639  161.1154 C   0  0  0  0  0  0  0  0  0  0  0  0
  154.5313  137.7769  161.0181 O   0  0  0  0  0  0  0  0  0  0  0  0
  154.5662  139.8198  162.1309 N   0  5  0  0  0  0  0  0  0  0  0  0
  154.2183  141.1510  162.2192 C   0  0  0  0  0  0  0  0  0  0  0  0
  154.5682  141.8526  163.1692 O   0  0  0  0  0  0  0  0  0  0  0  0
  153.4626  141.7249  161.2302 N   0  0  0  0  0  0  0  0  0  0  0  0
  153.0810  143.1382  161.2965 C   0  0  0  0  0  0  0  0  0  0  0  0
  154.8861  133.1337  158.9254 H   0  0  0  0  0  0  0  0  0  0  0  0
  155.7066  133.7514  157.4927 H   0  0  0  0  0  0  0  0  0  0  0  0
  153.9706  133.4450  157.4516 H   0  0  0  0  0  0  0  0  0  0  0  0
  153.6059  135.2767  159.1342 H   0  0  0  0  0  0  0  0  0  0  0  0
  155.3405  135.5812  159.1811 H   0  0  0  0  0  0  0  0  0  0  0  0
  155.1400  137.7143  158.4376 H   0  0  0  0  0  0  0  0  0  0  0  0
  154.4529  138.0687  156.8585 H   0  0  0  0  0  0  0  0  0  0  0  0
  152.1699  137.5506  157.6857 H   0  0  0  0  0  0  0  0  0  0  0  0
  152.7868  137.0370  159.2239 H   0  0  0  0  0  0  0  0  0  0  0  0
  150.2369  138.0378  153.5951 H   0  0  0  0  0  0  0  0  0  0  0  0
  151.6480  137.2900  154.3312 H   0  0  0  0  0  0  0  0  0  0  0  0
  151.8445  138.6721  153.2561 H   0  0  0  0  0  0  0  0  0  0  0  0
  148.9773  141.8123  154.4676 H   0  0  0  0  0  0  0  0  0  0  0  0
  148.1547  140.2718  154.6432 H   0  0  0  0  0  0  0  0  0  0  0  0
  149.3629  140.4879  153.3900 H   0  0  0  0  0  0  0  0  0  0  0  0
  148.9714  142.2311  156.9442 H   0  0  0  0  0  0  0  0  0  0  0  0
  150.5947  142.7607  157.3860 H   0  0  0  0  0  0  0  0  0  0  0  0
  149.7238  141.6199  158.4135 H   0  0  0  0  0  0  0  0  0  0  0  0
  153.9689  143.7722  161.3022 H   0  0  0  0  0  0  0  0  0  0  0  0
  152.5118  143.3393  162.2053 H   0  0  0  0  0  0  0  0  0  0  0  0
  152.4647  143.4479  160.4529 H   0  0  0  0  0  0  0  0  0  0  0  0
  1  2  1  0  0  0  0
  1 26  1  0  0  0  0
  1 27  1  0  0  0  0
  1 28  1  0  0  0  0
  2  3  1  0  0  0  0
  2 29  1  0  0  0  0
  2 30  1  0  0  0  0
  3  4  1  0  0  0  0
  4  5  1  0  0  0  0
  4 31  1  0  0  0  0
  4 32  1  0  0  0  0
  5  6  1  0  0  0  0
  5 33  1  0  0  0  0
  5 34  1  0  0  0  0
  6 18  1  0  0  0  0
  6  7  1  0  0  0  0
  7  8  1  0  0  0  0
  7 16  2  0  0  0  0
  8 14  1  0  0  0  0
  8  9  1  0  0  0  0
  9 10  2  0  0  0  0
 10 11  1  0  0  0  0
 10 12  1  0  0  0  0
 11 35  1  0  0  0  0
 11 36  1  0  0  0  0
 11 37  1  0  0  0  0
 12 13  1  0  0  0  0
 12 14  2  0  0  0  0
 13 38  1  0  0  0  0
 13 39  1  0  0  0  0
 13 40  1  0  0  0  0
 14 15  1  0  0  0  0
 15 41  1  0  0  0  0
 15 42  1  0  0  0  0
 15 43  1  0  0  0  0
 16 17  1  0  0  0  0
 17 24  1  0  0  0  0
 17 18  2  0  0  0  0
 18 19  1  0  0  0  0
 19 20  2  0  0  0  0
 19 21  1  0  0  0  0
 21 22  1  0  0  0  0
 22 23  2  0  0  0  0
 22 24  1  0  0  0  0
 24 25  1  0  0  0  0
 25 44  1  0  0  0  0
 25 45  1  0  0  0  0
 25 46  1  0  0  0  0
M  CHG  1  21  -1
M  END
> <s_m_source_file>
AV-unprocessed.smi

> <i_m_source_file_index>
305

> <i_lp_mmshare_version>
43012

> <i_f3d_flags>
0

> <s_epik_input>
W0NIM11uMWMoPU8pW25IXWMoPU8pYyhjMTIpbihbQ0gyXVtDSDJdT1tDSDJdW0NIM10pYyhuMiktbjNuYyhbQ0gzXSljKFtDSDNdKWMzW0NIM10=

> <s_epik_cmdline>
J2VwaWtfcHl0aG9uJywgJy1waCcsICc3LjAnLCAnLXRuJywgJzgnLCAnLW1hJywgJzIwMCcsICctbWV0YWxfYmluZGluZycsICctaW1hZScsICc8aW5maWxlLm1hZT4nLCAnLW9tYWUnLCAnPG91dGZpbGUubWFlPic=

> <r_lp_tautomer_probability>
1

> <r_epik_Ionization_Penalty>
4

> <r_epik_Ionization_Penalty_Charging>
0.0169474

> <r_epik_Ionization_Penalty_Neutral>
3.98305

> <r_epik_State_Penalty>
3.98062

> <r_epik_Charging_Adjusted_Penalty>
3.99756

> <i_epik_Tot_Q>
-1

> <i_epik_Tot_abs_Q>
1

> <r_epik_Metal_State_Penalty>
0.616488

> <b_epik_Metal_Only>
1

> <s_lp_Force_Field>
OPLS_2005

> <r_lp_Energy>
29.8012

> <b_lp_Chiralities_Consistent>
1

> <s_lp_Variant>
AV-unprocessed.smi:305-2

> <Gold.Version>
5.8.1

> <Gold.Id.Protein>
6NUR|6NUR_protein|mol2

> <Gold.PLP.Fitness>
42.6875

> <Gold.PLP.PLP>
-40.2309

> <Gold.PLP.part.hbond>
-2.0000

> <Gold.PLP.part.metal>
0.0000

> <Gold.PLP.part.buried>
-6.2610

> <Gold.PLP.part.nonpolar>
-30.9650

> <Gold.PLP.part.repulsive>
0.0000

> <Gold.PLP.ligand.clash>
0.0000

> <Gold.PLP.ligand.torsion>
0.5585

> <Gold.PLP.Chemscore.Hbond>
1.0000

> <Gold.PLP.Chemscore.CHOScore>
0.0000

> <Gold.PLP.Chemscore.Metal>
0.0000

> <Gold.Chemscore.Hbonds>
donor molecule, donor type, donor heavy atom, donor atom, acceptor molecule, acceptor atom, score
      P1  H 10752 10763       L1     3  0.52

> <Gold.PLP.Chemscore.Internal.Correction>
0.5737

> <Gold.Rescore>
     Score         DG    S(hbond)    S(metal)    S(lipo)     H(rot)  DE(clash)    DE(int)     intcor
     10.15     -13.49       0.96        0.00      76.59       1.62       0.28       3.06       ----

> <Gold.Chemscore.Fitness>
10.1516

> <Gold.Chemscore.DG>
-13.4891

> <Gold.Chemscore.ZeroCoef>
-5.4800

> <Gold.Chemscore.Hbond>
0.9569

> <Gold.Chemscore.Metal>
0.0000

> <Gold.Chemscore.Lipo>
76.5907

> <Gold.Chemscore.Internal_Hbond>
0.0000

> <Gold.Chemscore.DEClash>
0.2763

> <Gold.Chemscore.DEInternal>
3.0611

> <Gold.Chemscore.Rot>
1.6204

> <Gold.Chemscore.Internal.Correction>
   9.000000E+99

> <Gold.Chemscore.Hbonds>
donor molecule, donor type, donor heavy atom, donor atom, acceptor molecule, acceptor atom, score
      P1  H 10752 10763       L1     3  0.50

> <Gold.Chemscore.Hbond.Weighted>
-3.1961

> <Gold.Chemscore.Metal.Weighted>
-0.0000

> <Gold.Chemscore.Lipo.Weighted>
-8.9611

> <Gold.Chemscore.Internal_Hbond.Weighted>
0.0000

> <Gold.Chemscore.DEClash.Weighted>
0.2763

> <Gold.Chemscore.DEInternal.Weighted>
3.0611

> <Gold.Chemscore.Rot.Weighted>
4.1481

> <Gold.Chemscore.Internal.Correction.Weighted>
   9.000000E+99

> <Gold.Protein.RotatedTorsions>
[ 6907 6896 6895 6894 ] final   37.74 input  -60.11 | X-H torsion
[ 7974 7965 7964 7962 ] final  106.21 input  175.53 | X-H torsion
[ 8008 7997 7996 7995 ] final   19.60 input   59.86 | X-H torsion
[ 10167 10162 10161 10158 ] final  169.91 input  -65.29 | X-H torsion
[ 10718 10713 10712 10709 ] final   27.16 input   66.30 | X-H torsion
[ 10763 10752 10751 10750 ] final  163.62 input  -60.55 | X-H torsion
[ 11005 11000 10999 10996 ] final  -37.64 input  -57.11 | X-H torsion

> <Gold.Protein.ActiveResidues>
 VAL166  LYS551  ARG553  GLY616  TRP617  ASP618  TYR619  PRO620  LYS621  CYS622 
 ASP623  PHE694  ASN695  SER759  ASP760  ASP761  ALA762  ILE779  LEU786  VAL792 
 PHE793  MET794  SER795  GLU796  ALA797  LYS798  CYS799  TRP800  GLU811  SER814 

> <Gold.Protein.RotatedAtoms>
  152.1472  134.9017  160.0550 H   0  0  0  0  0  0  0  0  0  0  0  0  # atno 6907 bound_to 6896
  152.0062  133.3839  159.4210 H   0  0  0  0  0  0  0  0  0  0  0  0  # atno 6908 bound_to 6896
  150.6871  134.3702  159.5032 H   0  0  0  0  0  0  0  0  0  0  0  0  # atno 6909 bound_to 6896
  145.3096  139.2544  143.3770 H   0  0  0  0  0  0  0  0  0  0  0  0  # atno 7974 bound_to 7965
  154.9231  140.3030  155.5206 H   0  0  0  0  0  0  0  0  0  0  0  0  # atno 8008 bound_to 7997
  156.3008  140.2368  156.4219 H   0  0  0  0  0  0  0  0  0  0  0  0  # atno 8009 bound_to 7997
  154.8311  140.0418  157.1466 H   0  0  0  0  0  0  0  0  0  0  0  0  # atno 8010 bound_to 7997
  139.5004  144.3655  151.9780 H   0  0  0  0  0  0  0  0  0  0  0  0  # atno 10167 bound_to 10162
  157.2165  130.6959  149.6251 H   0  0  0  0  0  0  0  0  0  0  0  0  # atno 10718 bound_to 10713
  154.2965  135.2760  155.2631 H   0  0  0  0  0  0  0  0  0  0  0  0  # atno 10763 bound_to 10752
  154.5087  135.5788  153.6591 H   0  0  0  0  0  0  0  0  0  0  0  0  # atno 10764 bound_to 10752
  152.9906  135.6175  154.3133 H   0  0  0  0  0  0  0  0  0  0  0  0  # atno 10765 bound_to 10752
  140.9967  133.6976  156.1947 H   0  0  0  0  0  0  0  0  0  0  0  0  # atno 11005 bound_to 11000
  146.3122  140.3630  142.8666 LP  0  0  0  0  0  0  0  0  0  0  0  0  # atno 17320 bound_to 7965
  144.9026  140.7661  143.5857 LP  0  0  0  0  0  0  0  0  0  0  0  0  # atno 17321 bound_to 7965
  140.3091  144.3559  150.6039 LP  0  0  0  0  0  0  0  0  0  0  0  0  # atno 17342 bound_to 10162
  140.5813  143.2172  151.7423 LP  0  0  0  0  0  0  0  0  0  0  0  0  # atno 17343 bound_to 10162
  155.9686  130.4534  150.5810 LP  0  0  0  0  0  0  0  0  0  0  0  0  # atno 17370 bound_to 10713
  157.3619  131.0751  151.1629 LP  0  0  0  0  0  0  0  0  0  0  0  0  # atno 17371 bound_to 10713
  140.6954  134.4621  157.5588 LP  0  0  0  0  0  0  0  0  0  0  0  0  # atno 17394 bound_to 11000
  139.9018  134.8538  156.1864 LP  0  0  0  0  0  0  0  0  0  0  0  0  # atno 17395 bound_to 11000

$$$$
