AV-unprocessed.smi:679|AV-procd|sdf|3320|dock3
  -GOLD-   22720 0283D 1   1.00000     0.00000
 Structure written by MMmdl.
 41 43  0  0  0  0  0  0  0  0  1 V2000
  147.9865  142.0012  154.0991 C   0  0  0  0  0  0  0  0  0  0  0  0
  148.0241  141.2449  155.4287 C   0  0  0  0  0  0  0  0  0  0  0  0
  149.0189  140.2389  155.3494 O   0  0  0  0  0  0  0  0  0  0  0  0
  150.3177  140.7145  155.6658 C   0  0  1  0  0  0  0  0  0  0  0  0
  150.4625  141.2915  157.0771 C   0  0  0  0  0  0  0  0  0  0  0  0
  151.8433  140.6320  157.0901 C   0  0  1  0  0  0  0  0  0  0  0  0
  152.1922  140.1004  158.4031 N   0  0  0  0  0  0  0  0  0  0  0  0
  153.1994  139.2459  158.6349 C   0  0  0  0  0  0  0  0  0  0  0  0
  153.9349  138.8130  157.7472 O   0  0  0  0  0  0  0  0  0  0  0  0
  153.3983  138.8071  160.0883 C   0  0  0  0  0  0  0  0  0  0  0  0
  154.4026  139.6131  160.7579 N   0  0  0  0  0  0  0  0  0  0  0  0
  154.3397  140.3482  161.8701 C   0  0  0  0  0  0  0  0  0  0  0  0
  155.5004  140.9258  162.1408 N   0  0  0  0  0  0  0  0  0  0  0  0
  156.3142  140.4969  161.1053 N   0  0  0  0  0  0  0  0  0  0  0  0
  155.6685  139.7172  160.2819 N   0  0  0  0  0  0  0  0  0  0  0  0
  151.2997  139.5894  156.0776 C   0  0  0  0  0  0  0  0  0  0  0  0
  150.6881  138.2800  156.5943 C   0  0  0  0  0  0  0  0  0  0  0  0
  150.5319  137.3618  155.3800 C   0  0  0  0  0  0  0  0  0  0  0  0
  151.5733  137.8436  154.3644 C   0  0  0  0  0  0  0  0  0  0  0  0
  152.2396  139.0720  154.9938 C   0  0  0  0  0  0  0  0  0  0  0  0
  147.2305  142.7864  154.1177 H   0  0  0  0  0  0  0  0  0  0  0  0
  147.7515  141.3289  153.2737 H   0  0  0  0  0  0  0  0  0  0  0  0
  148.9491  142.4675  153.8877 H   0  0  0  0  0  0  0  0  0  0  0  0
  148.2500  141.9342  156.2436 H   0  0  0  0  0  0  0  0  0  0  0  0
  147.0488  140.8006  155.6317 H   0  0  0  0  0  0  0  0  0  0  0  0
  150.7356  141.3689  154.8969 H   0  0  0  0  0  0  0  0  0  0  0  0
  150.4748  142.3805  157.1257 H   0  0  0  0  0  0  0  0  0  0  0  0
  149.7594  140.8593  157.7915 H   0  0  0  0  0  0  0  0  0  0  0  0
  152.6058  141.2823  156.6545 H   0  0  0  0  0  0  0  0  0  0  0  0
  151.6327  140.4063  159.1861 H   0  0  0  0  0  0  0  0  0  0  0  0
  152.4619  138.8705  160.6452 H   0  0  0  0  0  0  0  0  0  0  0  0
  153.7157  137.7639  160.1085 H   0  0  0  0  0  0  0  0  0  0  0  0
  153.4530  140.4557  162.4771 H   0  0  0  0  0  0  0  0  0  0  0  0
  151.3595  137.7984  157.3056 H   0  0  0  0  0  0  0  0  0  0  0  0
  149.7381  138.4265  157.1094 H   0  0  0  0  0  0  0  0  0  0  0  0
  150.6679  136.3131  155.6461 H   0  0  0  0  0  0  0  0  0  0  0  0
  149.5314  137.4664  154.9584 H   0  0  0  0  0  0  0  0  0  0  0  0
  152.3076  137.0702  154.1370 H   0  0  0  0  0  0  0  0  0  0  0  0
  151.0820  138.1147  153.4292 H   0  0  0  0  0  0  0  0  0  0  0  0
  152.4665  139.8286  154.2422 H   0  0  0  0  0  0  0  0  0  0  0  0
  153.1917  138.7782  155.4370 H   0  0  0  0  0  0  0  0  0  0  0  0
  1  2  1  0  0  0  0
  1 21  1  0  0  0  0
  1 22  1  0  0  0  0
  1 23  1  0  0  0  0
  2  3  1  0  0  0  0
  2 24  1  0  0  0  0
  2 25  1  0  0  0  0
  3  4  1  0  0  0  0
  4 16  1  0  0  0  0
  4  5  1  0  0  0  0
  4 26  1  0  0  0  0
  5  6  1  0  0  0  0
  5 27  1  0  0  0  0
  5 28  1  0  0  0  0
  6  7  1  0  0  0  0
  6 16  1  0  0  0  0
  6 29  1  0  0  0  0
  7  8  1  0  0  0  0
  7 30  1  0  0  0  0
  8  9  2  0  0  0  0
  8 10  1  0  0  0  0
 10 11  1  0  0  0  0
 10 31  1  0  0  0  0
 10 32  1  0  0  0  0
 11 15  1  0  0  0  0
 11 12  1  0  0  0  0
 12 13  2  0  0  0  0
 12 33  1  0  0  0  0
 13 14  1  0  0  0  0
 14 15  2  0  0  0  0
 16 20  1  0  0  0  0
 16 17  1  0  0  0  0
 17 18  1  0  0  0  0
 17 34  1  0  0  0  0
 17 35  1  0  0  0  0
 18 19  1  0  0  0  0
 18 36  1  0  0  0  0
 18 37  1  0  0  0  0
 19 20  1  0  0  0  0
 19 38  1  0  0  0  0
 19 39  1  0  0  0  0
 20 40  1  0  0  0  0
 20 41  1  0  0  0  0
M  END
> <s_m_source_file>
AV-unprocessed.smi

> <i_m_source_file_index>
679

> <i_lp_mmshare_version>
43012

> <i_f3d_flags>
0

> <s_epik_input>
W0NIMl0xW0NIMl1bQ0gyXVtDSDJdQzEyW0NASF0oT1tDSDJdW0NIM10pW0NIMl1bQ0BIXTJbTkhdQyg9TylbQ0gyXW4zW2NIXW5ubjM=

> <s_epik_cmdline>
J2VwaWtfcHl0aG9uJywgJy1waCcsICc3LjAnLCAnLXRuJywgJzgnLCAnLW1hJywgJzIwMCcsICctbWV0YWxfYmluZGluZycsICctaW1hZScsICc8aW5maWxlLm1hZT4nLCAnLW9tYWUnLCAnPG91dGZpbGUubWFlPic=

> <r_lp_tautomer_probability>
1

> <r_epik_Ionization_Penalty>
7.96741e-07

> <r_epik_Ionization_Penalty_Charging>
0

> <r_epik_Ionization_Penalty_Neutral>
7.96741e-07

> <r_epik_State_Penalty>
-0

> <r_epik_Charging_Adjusted_Penalty>
0

> <i_epik_Tot_Q>
0

> <i_epik_Tot_abs_Q>
0

> <r_epik_Metal_State_Penalty>
-0

> <b_epik_Metal_Only>
0

> <s_lp_Force_Field>
OPLS_2005

> <r_lp_Energy>
38.413

> <b_lp_Chiralities_Consistent>
1

> <s_lp_Variant>
AV-unprocessed.smi:679-2

> <Gold.Version>
5.8.1

> <Gold.Id.Protein>
6NUR|6NUR_protein|mol2

> <Gold.PLP.Fitness>
33.8894

> <Gold.PLP.PLP>
-31.9137

> <Gold.PLP.part.hbond>
-2.6855

> <Gold.PLP.part.metal>
0.0000

> <Gold.PLP.part.buried>
-3.3459

> <Gold.PLP.part.nonpolar>
-25.6085

> <Gold.PLP.part.repulsive>
0.1649

> <Gold.PLP.ligand.clash>
0.0000

> <Gold.PLP.ligand.torsion>
0.7034

> <Gold.PLP.Chemscore.Hbond>
1.0000

> <Gold.PLP.Chemscore.CHOScore>
0.0000

> <Gold.PLP.Chemscore.Metal>
0.0000

> <Gold.Chemscore.Hbonds>
donor molecule, donor type, donor heavy atom, donor atom, acceptor molecule, acceptor atom, score
      P1  H  7997  8008       L1     9  1.00

> <Gold.PLP.Chemscore.Internal.Correction>
0.3824

> <Gold.Rescore>
     Score         DG    S(hbond)    S(metal)    S(lipo)     H(rot)  DE(clash)    DE(int)     intcor
      9.28     -10.46       0.92        0.00      69.04       2.41       0.41       0.77       ----

> <Gold.Chemscore.Fitness>
9.2801

> <Gold.Chemscore.DG>
-10.4584

> <Gold.Chemscore.ZeroCoef>
-5.4800

> <Gold.Chemscore.Hbond>
0.9184

> <Gold.Chemscore.Metal>
0.0000

> <Gold.Chemscore.Lipo>
69.0393

> <Gold.Chemscore.Internal_Hbond>
0.0000

> <Gold.Chemscore.DEClash>
0.4059

> <Gold.Chemscore.DEInternal>
0.7724

> <Gold.Chemscore.Rot>
2.4089

> <Gold.Chemscore.Internal.Correction>
   9.000000E+99

> <Gold.Chemscore.Hbonds>
donor molecule, donor type, donor heavy atom, donor atom, acceptor molecule, acceptor atom, score
      P1  H  7997  8008       L1     9  0.66

> <Gold.Chemscore.Hbond.Weighted>
-3.0676

> <Gold.Chemscore.Metal.Weighted>
-0.0000

> <Gold.Chemscore.Lipo.Weighted>
-8.0776

> <Gold.Chemscore.Internal_Hbond.Weighted>
0.0000

> <Gold.Chemscore.DEClash.Weighted>
0.4059

> <Gold.Chemscore.DEInternal.Weighted>
0.7724

> <Gold.Chemscore.Rot.Weighted>
6.1668

> <Gold.Chemscore.Internal.Correction.Weighted>
   9.000000E+99

> <Gold.Protein.RotatedTorsions>
[ 6907 6896 6895 6894 ] final  -46.33 input  -60.11 | X-H torsion
[ 7974 7965 7964 7962 ] final   16.95 input  175.53 | X-H torsion
[ 8008 7997 7996 7995 ] final  -90.78 input   59.86 | X-H torsion
[ 10167 10162 10161 10158 ] final   68.60 input  -65.29 | X-H torsion
[ 10718 10713 10712 10709 ] final  -98.72 input   66.30 | X-H torsion
[ 10763 10752 10751 10750 ] final  -15.47 input  -60.55 | X-H torsion
[ 11005 11000 10999 10996 ] final   83.50 input  -57.11 | X-H torsion

> <Gold.Protein.ActiveResidues>
 VAL166  LYS551  ARG553  GLY616  TRP617  ASP618  TYR619  PRO620  LYS621  CYS622 
 ASP623  PHE694  ASN695  SER759  ASP760  ASP761  ALA762  ILE779  LEU786  VAL792 
 PHE793  MET794  SER795  GLU796  ALA797  LYS798  CYS799  TRP800  GLU811  SER814 

> <Gold.Protein.RotatedAtoms>
  150.9124  134.8541  159.7434 H   0  0  0  0  0  0  0  0  0  0  0  0  # atno 6907 bound_to 6896
  152.4951  134.4339  159.9531 H   0  0  0  0  0  0  0  0  0  0  0  0  # atno 6908 bound_to 6896
  151.4380  133.3612  159.2813 H   0  0  0  0  0  0  0  0  0  0  0  0  # atno 6909 bound_to 6896
  146.2234  139.8674  142.8593 H   0  0  0  0  0  0  0  0  0  0  0  0  # atno 7974 bound_to 7965
  154.7027  140.0526  157.0473 H   0  0  0  0  0  0  0  0  0  0  0  0  # atno 8008 bound_to 7997
  155.0663  140.3195  155.4625 H   0  0  0  0  0  0  0  0  0  0  0  0  # atno 8009 bound_to 7997
  156.2765  140.2090  156.5790 H   0  0  0  0  0  0  0  0  0  0  0  0  # atno 8010 bound_to 7997
  140.0768  144.5105  150.7189 H   0  0  0  0  0  0  0  0  0  0  0  0  # atno 10167 bound_to 10162
  156.0115  130.5251  150.6565 H   0  0  0  0  0  0  0  0  0  0  0  0  # atno 10718 bound_to 10713
  153.5439  135.7013  153.5623 H   0  0  0  0  0  0  0  0  0  0  0  0  # atno 10763 bound_to 10752
  153.3577  135.3978  155.1694 H   0  0  0  0  0  0  0  0  0  0  0  0  # atno 10764 bound_to 10752
  154.8670  135.3781  154.4945 H   0  0  0  0  0  0  0  0  0  0  0  0  # atno 10765 bound_to 10752
  139.9029  134.8149  156.2317 H   0  0  0  0  0  0  0  0  0  0  0  0  # atno 11005 bound_to 11000
  145.2643  141.0087  143.3808 LP  0  0  0  0  0  0  0  0  0  0  0  0  # atno 17320 bound_to 7965
  144.9274  139.4339  143.6512 LP  0  0  0  0  0  0  0  0  0  0  0  0  # atno 17321 bound_to 7965
  140.7098  143.2496  151.4617 LP  0  0  0  0  0  0  0  0  0  0  0  0  # atno 17342 bound_to 10162
  139.5803  144.1725  152.1959 LP  0  0  0  0  0  0  0  0  0  0  0  0  # atno 17343 bound_to 10162
  157.4316  131.0850  151.1033 LP  0  0  0  0  0  0  0  0  0  0  0  0  # atno 17370 bound_to 10713
  157.1604  130.6223  149.5609 LP  0  0  0  0  0  0  0  0  0  0  0  0  # atno 17371 bound_to 10713
  141.0341  133.6973  156.1481 LP  0  0  0  0  0  0  0  0  0  0  0  0  # atno 17394 bound_to 11000
  140.7053  134.4520  157.5584 LP  0  0  0  0  0  0  0  0  0  0  0  0  # atno 17395 bound_to 11000

$$$$
