AV-unprocessed.smi:2061|AV-procd|sdf|8369|dock4
  -GOLD-   2272011 43D 1   1.00000     0.00000
 Structure written by MMmdl.
 46 47  0  0  0  0  0  0  0  0  2 V2000
  153.6242  137.6484  156.5459 C   0  0  0  0  0  0  0  0  0  0  0  0
  152.5575  138.2851  155.7229 C   0  0  0  0  0  0  0  0  0  0  0  0
  151.5343  137.7784  154.9721 C   0  0  0  0  0  0  0  0  0  0  0  0
  150.9092  138.9443  154.4557 C   0  0  0  0  0  0  0  0  0  0  0  0
  149.7812  138.8487  153.6011 N   0  0  0  0  0  0  0  0  0  0  0  0
  148.5108  138.5842  153.9512 C   0  0  0  0  0  0  0  0  0  0  0  0
  148.1213  138.3574  155.0971 O   0  0  0  0  0  0  0  0  0  0  0  0
  147.6953  138.6007  152.8870 N   0  0  0  0  0  0  0  0  0  0  0  0
  146.2557  138.3633  152.9405 C   0  0  0  0  0  0  0  0  0  0  0  0
  145.7878  137.2393  151.9783 C   0  0  1  0  0  0  0  0  0  0  0  0
  146.1814  137.5854  150.5217 C   0  0  0  0  0  0  0  0  0  0  0  0
  146.3095  135.9142  152.4474 N   0  3  1  0  0  0  0  0  0  0  0  0
  146.0865  135.7050  153.9036 C   0  0  0  0  0  0  0  0  0  0  0  0
  146.7361  134.3993  154.3989 C   0  0  2  0  0  0  0  0  0  0  0  0
  148.2715  134.4667  154.4818 C   0  0  0  0  0  0  0  0  0  0  0  0
  146.2794  133.2999  153.6149 O   0  0  0  0  0  0  0  0  0  0  0  0
  146.5049  133.4366  152.2163 C   0  0  1  0  0  0  0  0  0  0  0  0
  145.9551  132.1822  151.5277 C   0  0  0  0  0  0  0  0  0  0  0  0
  145.8290  134.7206  151.7000 C   0  0  0  0  0  0  0  0  0  0  0  0
  151.4959  140.0616  154.8567 N   0  0  0  0  0  0  0  0  0  0  0  0
  152.5552  139.6447  155.6712 O   0  0  0  0  0  0  0  0  0  0  0  0
  153.5258  136.5626  156.5394 H   0  0  0  0  0  0  0  0  0  0  0  0
  153.5685  137.9870  157.5805 H   0  0  0  0  0  0  0  0  0  0  0  0
  154.6119  137.9002  156.1594 H   0  0  0  0  0  0  0  0  0  0  0  0
  151.2795  136.7405  154.8179 H   0  0  0  0  0  0  0  0  0  0  0  0
  149.9601  139.0109  152.6212 H   0  0  0  0  0  0  0  0  0  0  0  0
  148.0952  138.7934  151.9801 H   0  0  0  0  0  0  0  0  0  0  0  0
  145.9998  138.0973  153.9666 H   0  0  0  0  0  0  0  0  0  0  0  0
  145.7489  139.3072  152.7421 H   0  0  0  0  0  0  0  0  0  0  0  0
  144.6979  137.1864  151.9997 H   0  0  0  0  0  0  0  0  0  0  0  0
  145.8034  138.5631  150.2237 H   0  0  0  0  0  0  0  0  0  0  0  0
  145.7619  136.8779  149.8062 H   0  0  0  0  0  0  0  0  0  0  0  0
  147.2641  137.6024  150.3937 H   0  0  0  0  0  0  0  0  0  0  0  0
  146.4700  136.5381  154.4902 H   0  0  0  0  0  0  0  0  0  0  0  0
  145.0125  135.6660  154.0928 H   0  0  0  0  0  0  0  0  0  0  0  0
  146.3756  134.2143  155.4113 H   0  0  0  0  0  0  0  0  0  0  0  0
  148.5862  135.2270  155.1969 H   0  0  0  0  0  0  0  0  0  0  0  0
  148.7291  134.7158  153.5248 H   0  0  0  0  0  0  0  0  0  0  0  0
  148.6847  133.5136  154.8129 H   0  0  0  0  0  0  0  0  0  0  0  0
  147.5762  133.4841  152.0197 H   0  0  0  0  0  0  0  0  0  0  0  0
  146.1091  132.2256  150.4493 H   0  0  0  0  0  0  0  0  0  0  0  0
  144.8859  132.0679  151.7087 H   0  0  0  0  0  0  0  0  0  0  0  0
  146.4523  131.2850  151.8971 H   0  0  0  0  0  0  0  0  0  0  0  0
  144.7441  134.6452  151.7911 H   0  0  0  0  0  0  0  0  0  0  0  0
  146.0648  134.8056  150.6397 H   0  0  0  0  0  0  0  0  0  0  0  0
  147.3087  135.9415  152.3033 H   0  0  0  0  0  0  0  0  0  0  0  0
  1  2  1  0  0  0  0
  1 22  1  0  0  0  0
  1 23  1  0  0  0  0
  1 24  1  0  0  0  0
  2 21  1  0  0  0  0
  2  3  2  0  0  0  0
  3  4  1  0  0  0  0
  3 25  1  0  0  0  0
  4  5  1  0  0  0  0
  4 20  2  0  0  0  0
  5  6  1  0  0  0  0
  5 26  1  0  0  0  0
  6  7  2  0  0  0  0
  6  8  1  0  0  0  0
  8  9  1  0  0  0  0
  8 27  1  0  0  0  0
  9 10  1  0  0  0  0
  9 28  1  0  0  0  0
  9 29  1  0  0  0  0
 10 11  1  0  0  0  0
 10 12  1  0  0  0  0
 10 30  1  0  0  0  0
 11 31  1  0  0  0  0
 11 32  1  0  0  0  0
 11 33  1  0  0  0  0
 12 19  1  0  0  0  0
 12 13  1  0  0  0  0
 12 46  1  0  0  0  0
 13 14  1  0  0  0  0
 13 34  1  0  0  0  0
 13 35  1  0  0  0  0
 14 15  1  0  0  0  0
 14 16  1  0  0  0  0
 14 36  1  0  0  0  0
 15 37  1  0  0  0  0
 15 38  1  0  0  0  0
 15 39  1  0  0  0  0
 16 17  1  0  0  0  0
 17 18  1  0  0  0  0
 17 19  1  0  0  0  0
 17 40  1  0  0  0  0
 18 41  1  0  0  0  0
 18 42  1  0  0  0  0
 18 43  1  0  0  0  0
 19 44  1  0  0  0  0
 19 45  1  0  0  0  0
 20 21  1  0  0  0  0
M  CHG  1  12   1
M  END
> <s_m_source_file>
AV-unprocessed.smi

> <i_m_source_file_index>
2061

> <i_lp_mmshare_version>
43012

> <i_f3d_flags>
0

> <s_epik_input>
W0NIM11jMVtjSF1jKG5vMSlbTkhdQyg9TylbTkhdW0NIMl1bQ0BIXShbQ0gzXSlOMltDSDJdW0NAQEhdKFtDSDNdKU9bQ0BASF0oW0NIM10pW0NIMl0y

> <s_epik_cmdline>
J2VwaWtfcHl0aG9uJywgJy1waCcsICc3LjAnLCAnLXRuJywgJzgnLCAnLW1hJywgJzIwMCcsICctbWV0YWxfYmluZGluZycsICctaW1hZScsICc8aW5maWxlLm1hZT4nLCAnLW9tYWUnLCAnPG91dGZpbGUubWFlPic=

> <r_epik_Ionization_Penalty>
0.707076

> <r_epik_Ionization_Penalty_Charging>
0.707039

> <r_epik_Ionization_Penalty_Neutral>
3.6548e-05

> <r_epik_State_Penalty>
0.730276

> <r_epik_Charging_Adjusted_Penalty>
1.43732

> <i_epik_Tot_Q>
1

> <i_epik_Tot_abs_Q>
1

> <r_epik_Metal_State_Penalty>
0.743132

> <b_epik_Metal_Only>
0

> <s_lp_Force_Field>
OPLS_2005

> <r_lp_Energy>
19.7872

> <b_lp_Chiralities_Consistent>
1

> <s_lp_Variant>
AV-unprocessed.smi:2061-10

> <Gold.Version>
5.8.1

> <Gold.Id.Protein>
6NUR|6NUR_protein|mol2

> <Gold.PLP.Fitness>
44.5359

> <Gold.PLP.PLP>
-28.8871

> <Gold.PLP.part.hbond>
-6.1193

> <Gold.PLP.part.metal>
0.0000

> <Gold.PLP.part.buried>
4.5942

> <Gold.PLP.part.nonpolar>
-26.8222

> <Gold.PLP.part.repulsive>
0.3952

> <Gold.PLP.ligand.clash>
0.0000

> <Gold.PLP.ligand.torsion>
0.8141

> <Gold.PLP.Chemscore.Hbond>
5.7426

> <Gold.PLP.Chemscore.CHOScore>
0.0000

> <Gold.PLP.Chemscore.Metal>
0.0000

> <Gold.Chemscore.Hbonds>
donor molecule, donor type, donor heavy atom, donor atom, acceptor molecule, acceptor atom, score
      L1  H     5    26       P1  7957  0.96
      L1  H     8    27       P1  7957  0.66
      L1  H    12    46       P1  7948  2.00
      P1  H  7989  7998       L1    20  1.00
      P1  H  7997  8009       L1    21  1.00

> <Gold.PLP.Chemscore.Internal.Correction>
0.0494

> <Gold.Rescore>
     Score         DG    S(hbond)    S(metal)    S(lipo)     H(rot)  DE(clash)    DE(int)     intcor
     20.10     -22.79       4.07        0.00      66.27       1.58       1.94       0.74       ----

> <Gold.Chemscore.Fitness>
20.1016

> <Gold.Chemscore.DG>
-22.7853

> <Gold.Chemscore.ZeroCoef>
-5.4800

> <Gold.Chemscore.Hbond>
4.0736

> <Gold.Chemscore.Metal>
0.0000

> <Gold.Chemscore.Lipo>
66.2651

> <Gold.Chemscore.Internal_Hbond>
0.0000

> <Gold.Chemscore.DEClash>
1.9405

> <Gold.Chemscore.DEInternal>
0.7432

> <Gold.Chemscore.Rot>
1.5834

> <Gold.Chemscore.Internal.Correction>
   9.000000E+99

> <Gold.Chemscore.Hbonds>
donor molecule, donor type, donor heavy atom, donor atom, acceptor molecule, acceptor atom, score
      L1  H     5    26       P1  7957  0.65
      L1  H     8    27       P1  7957  0.59
      L1  H    12    46       P1  7948  1.00
      P1  H  7989  7998       L1    20  0.38
      P1  H  7997  8009       L1    21  0.51

> <Gold.Chemscore.Hbond.Weighted>
-13.6058

> <Gold.Chemscore.Metal.Weighted>
-0.0000

> <Gold.Chemscore.Lipo.Weighted>
-7.7530

> <Gold.Chemscore.Internal_Hbond.Weighted>
0.0000

> <Gold.Chemscore.DEClash.Weighted>
1.9405

> <Gold.Chemscore.DEInternal.Weighted>
0.7432

> <Gold.Chemscore.Rot.Weighted>
4.0535

> <Gold.Chemscore.Internal.Correction.Weighted>
   9.000000E+99

> <Gold.Protein.RotatedTorsions>
[ 6907 6896 6895 6894 ] final -148.74 input  -60.11 | X-H torsion
[ 7974 7965 7964 7962 ] final   41.28 input  175.53 | X-H torsion
[ 8008 7997 7996 7995 ] final -132.54 input   59.86 | X-H torsion
[ 10167 10162 10161 10158 ] final   46.70 input  -65.29 | X-H torsion
[ 10718 10713 10712 10709 ] final   32.98 input   66.30 | X-H torsion
[ 10763 10752 10751 10750 ] final  -27.58 input  -60.55 | X-H torsion
[ 11005 11000 10999 10996 ] final  -80.80 input  -57.11 | X-H torsion

> <Gold.Protein.ActiveResidues>
 VAL166  LYS551  ARG553  GLY616  TRP617  ASP618  TYR619  PRO620  LYS621  CYS622 
 ASP623  PHE694  ASN695  SER759  ASP760  ASP761  ALA762  ILE779  LEU786  VAL792 
 PHE793  MET794  SER795  GLU796  ALA797  LYS798  CYS799  TRP800  GLU811  SER814 

> <Gold.Protein.RotatedAtoms>
  151.1741  133.4765  159.2593 H   0  0  0  0  0  0  0  0  0  0  0  0  # atno 6907 bound_to 6896
  151.1325  135.0138  159.8599 H   0  0  0  0  0  0  0  0  0  0  0  0  # atno 6908 bound_to 6896
  152.5460  134.1643  159.8623 H   0  0  0  0  0  0  0  0  0  0  0  0  # atno 6909 bound_to 6896
  146.0836  139.5434  142.9521 H   0  0  0  0  0  0  0  0  0  0  0  0  # atno 7974 bound_to 7965
  155.3306  140.0467  157.3042 H   0  0  0  0  0  0  0  0  0  0  0  0  # atno 8008 bound_to 7997
  154.5330  140.2263  155.8737 H   0  0  0  0  0  0  0  0  0  0  0  0  # atno 8009 bound_to 7997
  156.1807  140.3074  155.9150 H   0  0  0  0  0  0  0  0  0  0  0  0  # atno 8010 bound_to 7997
  140.3112  144.2818  150.6199 H   0  0  0  0  0  0  0  0  0  0  0  0  # atno 10167 bound_to 10162
  157.2921  130.7308  149.6616 H   0  0  0  0  0  0  0  0  0  0  0  0  # atno 10718 bound_to 10713
  153.7345  135.6936  153.4981 H   0  0  0  0  0  0  0  0  0  0  0  0  # atno 10763 bound_to 10752
  153.2112  135.4402  155.0381 H   0  0  0  0  0  0  0  0  0  0  0  0  # atno 10764 bound_to 10752
  154.8242  135.3437  154.6873 H   0  0  0  0  0  0  0  0  0  0  0  0  # atno 10765 bound_to 10752
  141.1667  133.7167  156.8327 H   0  0  0  0  0  0  0  0  0  0  0  0  # atno 11005 bound_to 11000
  145.6172  141.0329  143.1934 LP  0  0  0  0  0  0  0  0  0  0  0  0  # atno 17320 bound_to 7965
  144.7310  139.7726  143.7347 LP  0  0  0  0  0  0  0  0  0  0  0  0  # atno 17321 bound_to 7965
  140.5566  143.2198  151.7837 LP  0  0  0  0  0  0  0  0  0  0  0  0  # atno 17342 bound_to 10162
  139.4893  144.4405  151.9770 LP  0  0  0  0  0  0  0  0  0  0  0  0  # atno 17343 bound_to 10162
  155.9667  130.4306  150.4882 LP  0  0  0  0  0  0  0  0  0  0  0  0  # atno 17370 bound_to 10713
  157.2847  131.0614  151.2174 LP  0  0  0  0  0  0  0  0  0  0  0  0  # atno 17371 bound_to 10713
  140.2039  134.8877  157.3200 LP  0  0  0  0  0  0  0  0  0  0  0  0  # atno 17394 bound_to 11000
  140.2158  134.4083  155.7590 LP  0  0  0  0  0  0  0  0  0  0  0  0  # atno 17395 bound_to 11000

$$$$
