AV-unprocessed.smi:160|AV-procd|sdf|1367|dock8
  -GOLD-   2262019 83D 1   1.00000     0.00000
 Structure written by MMmdl.
 28 29  0  0  0  0  0  0  0  0  2 V2000
  148.8922  135.6197  159.5150 N   0  5  0  0  0  0  0  0  0  0  0  0
  149.0600  136.8921  159.0922 C   0  0  0  0  0  0  0  0  0  0  0  0
  148.4071  137.8712  159.4524 O   0  0  0  0  0  0  0  0  0  0  0  0
  150.1671  137.0747  158.0815 C   0  0  0  0  0  0  0  0  0  0  0  0
  151.2246  136.2084  158.0385 N   0  0  0  0  0  0  0  0  0  0  0  0
  151.9052  136.7548  157.0399 C   0  0  0  0  0  0  0  0  0  0  0  0
  151.3297  137.8381  156.5098 N   0  0  0  0  0  0  0  0  0  0  0  0
  151.8053  138.7285  155.3985 C   0  0  2  0  0  0  0  0  0  0  0  0
  152.0156  139.9967  155.9380 O   0  0  0  0  0  0  0  0  0  0  0  0
  150.9924  140.9109  155.5377 C   0  0  2  0  0  0  0  0  0  0  0  0
  150.4043  141.6144  156.7726 C   0  0  0  0  0  0  0  0  0  0  0  0
  149.2107  142.2860  156.4295 O   0  0  0  0  0  0  0  0  0  0  0  0
  149.9590  140.0801  154.7581 C   0  0  1  0  0  0  0  0  0  0  0  0
  149.4580  140.8122  153.6572 O   0  0  0  0  0  0  0  0  0  0  0  0
  150.7689  138.8870  154.2745 C   0  0  2  0  0  0  0  0  0  0  0  0
  149.9525  137.7470  154.0750 O   0  0  0  0  0  0  0  0  0  0  0  0
  150.1818  138.0720  157.1925 N   0  0  0  0  0  0  0  0  0  0  0  0
  152.7401  138.2730  155.0704 H   0  0  0  0  0  0  0  0  0  0  0  0
  151.4522  141.6380  154.8653 H   0  0  0  0  0  0  0  0  0  0  0  0
  149.1400  139.7649  155.4063 H   0  0  0  0  0  0  0  0  0  0  0  0
  151.3091  139.1308  153.3582 H   0  0  0  0  0  0  0  0  0  0  0  0
  147.9946  135.1574  159.3275 H   0  0  0  0  0  0  0  0  0  0  0  0
  152.8447  136.3557  156.6870 H   0  0  0  0  0  0  0  0  0  0  0  0
  150.1546  140.8798  157.5387 H   0  0  0  0  0  0  0  0  0  0  0  0
  151.1164  142.3114  157.2142 H   0  0  0  0  0  0  0  0  0  0  0  0
  149.4137  143.1964  156.2786 H   0  0  0  0  0  0  0  0  0  0  0  0
  149.3352  140.2137  152.9362 H   0  0  0  0  0  0  0  0  0  0  0  0
  149.8088  137.6368  153.1479 H   0  0  0  0  0  0  0  0  0  0  0  0
  1  2  1  0  0  0  0
  1 22  1  0  0  0  0
  2  3  2  0  0  0  0
  2  4  1  0  0  0  0
  4 17  2  0  0  0  0
  4  5  1  0  0  0  0
  5  6  2  0  0  0  0
  6  7  1  0  0  0  0
  6 23  1  0  0  0  0
  7  8  1  0  0  0  0
  7 17  1  0  0  0  0
  8 18  1  0  0  0  0
  8 15  1  0  0  0  0
  8  9  1  0  0  0  0
  9 10  1  0  0  0  0
 10 19  1  0  0  0  0
 10 11  1  0  0  0  0
 10 13  1  0  0  0  0
 11 12  1  0  0  0  0
 11 24  1  0  0  0  0
 11 25  1  0  0  0  0
 12 26  1  0  0  0  0
 13 20  1  0  0  0  0
 13 14  1  0  0  0  0
 13 15  1  0  0  0  0
 14 27  1  0  0  0  0
 15 21  1  0  0  0  0
 15 16  1  0  0  0  0
 16 28  1  0  0  0  0
M  CHG  1   1  -1
M  END
> <s_m_source_file>
AV-unprocessed.smi

> <i_m_source_file_index>
160

> <i_lp_mmshare_version>
43012

> <i_f3d_flags>
0

> <s_epik_input>
W05IMl1DKD1PKWMxbltjSF1uKG4xKVtDQEBIXTJPW0NASF0oW0NIMl1bT0hdKVtDQEBIXShbT0hdKVtDQEhdMltPSF0=

> <s_epik_cmdline>
J2VwaWtfcHl0aG9uJywgJy1waCcsICc3LjAnLCAnLXRuJywgJzgnLCAnLW1hJywgJzIwMCcsICctbWV0YWxfYmluZGluZycsICctaW1hZScsICc8aW5maWxlLm1hZT4nLCAnLW9tYWUnLCAnPG91dGZpbGUubWFlPic=

> <r_lp_tautomer_probability>
1

> <r_epik_Ionization_Penalty>
6.6993

> <r_epik_Ionization_Penalty_Charging>
6.6993

> <r_epik_Ionization_Penalty_Neutral>
6.01698e-06

> <r_epik_State_Penalty>
6.69929

> <r_epik_Charging_Adjusted_Penalty>
13.3986

> <i_epik_Tot_Q>
-1

> <i_epik_Tot_abs_Q>
1

> <r_epik_Metal_State_Penalty>
2.62798

> <b_epik_Metal_Only>
1

> <s_epik_Chemistry_Notes>
This compound contains an acetal/aminal-like group ( X-CH(R)-Y where X, Y are N, S, or O) that may be acid/base labile, releasing an aldehyde.

> <s_lp_Force_Field>
OPLS_2005

> <r_lp_Energy>
43.4077

> <b_lp_Chiralities_Consistent>
1

> <s_lp_Variant>
AV-unprocessed.smi:160-25

> <Gold.Version>
5.8.1

> <Gold.Id.Protein>
6NUR|6NUR_protein|mol2

> <Gold.PLP.Fitness>
41.0828

> <Gold.PLP.PLP>
-26.3226

> <Gold.PLP.part.hbond>
-8.7275

> <Gold.PLP.part.metal>
0.0000

> <Gold.PLP.part.buried>
-2.5395

> <Gold.PLP.part.nonpolar>
-14.3966

> <Gold.PLP.part.repulsive>
0.0000

> <Gold.PLP.ligand.clash>
0.0000

> <Gold.PLP.ligand.torsion>
0.3929

> <Gold.PLP.Chemscore.Hbond>
5.1779

> <Gold.PLP.Chemscore.CHOScore>
0.0000

> <Gold.PLP.Chemscore.Metal>
0.0000

> <Gold.Chemscore.Hbonds>
donor molecule, donor type, donor heavy atom, donor atom, acceptor molecule, acceptor atom, score
      L1  H    12    26       P1  8028  0.94
      L1  H    14    27       P1  7957  0.85
      L1  H    16    28       P1  7948  0.75
      P1  H  6896  6909       L1     1  1.61
      P1  H  6934  6947       L1     3  0.16
      P1  H  8011  8017       L1    14  0.45

> <Gold.PLP.Chemscore.Internal.Correction>
0.0124

> <Gold.Rescore>
     Score         DG    S(hbond)    S(metal)    S(lipo)     H(rot)  DE(clash)    DE(int)     intcor
      9.68     -10.17       3.53        0.00      27.83       4.04       0.06       0.43       ----

> <Gold.Chemscore.Fitness>
9.6782

> <Gold.Chemscore.DG>
-10.1725

> <Gold.Chemscore.ZeroCoef>
-5.4800

> <Gold.Chemscore.Hbond>
3.5267

> <Gold.Chemscore.Metal>
0.0000

> <Gold.Chemscore.Lipo>
27.8313

> <Gold.Chemscore.Internal_Hbond>
0.0000

> <Gold.Chemscore.DEClash>
0.0641

> <Gold.Chemscore.DEInternal>
0.4301

> <Gold.Chemscore.Rot>
4.0403

> <Gold.Chemscore.Internal.Correction>
   9.000000E+99

> <Gold.Chemscore.Hbonds>
donor molecule, donor type, donor heavy atom, donor atom, acceptor molecule, acceptor atom, score
      L1  H    12    26       P1  8028  0.91
      L1  H    14    27       P1  7957  0.83
      L1  H    16    28       P1  7948  0.39
      P1  H  6896  6909       L1     1  0.64
      P1  H  6934  6947       L1     3  0.17
      P1  H  8011  8017       L1    14  0.02

> <Gold.Chemscore.Hbond.Weighted>
-11.7793

> <Gold.Chemscore.Metal.Weighted>
-0.0000

> <Gold.Chemscore.Lipo.Weighted>
-3.2563

> <Gold.Chemscore.Internal_Hbond.Weighted>
0.0000

> <Gold.Chemscore.DEClash.Weighted>
0.0641

> <Gold.Chemscore.DEInternal.Weighted>
0.4301

> <Gold.Chemscore.Rot.Weighted>
10.3431

> <Gold.Chemscore.Internal.Correction.Weighted>
   9.000000E+99

> <Gold.Protein.RotatedTorsions>
[ 6907 6896 6895 6894 ] final   39.05 input  -60.11 | X-H torsion
[ 7974 7965 7964 7962 ] final  -48.26 input  175.53 | X-H torsion
[ 8008 7997 7996 7995 ] final -126.42 input   59.86 | X-H torsion
[ 10167 10162 10161 10158 ] final  110.36 input  -65.29 | X-H torsion
[ 10718 10713 10712 10709 ] final -109.50 input   66.30 | X-H torsion
[ 10763 10752 10751 10750 ] final  169.71 input  -60.55 | X-H torsion
[ 11005 11000 10999 10996 ] final    4.31 input  -57.11 | X-H torsion

> <Gold.Protein.ActiveResidues>
 VAL166  LYS551  ARG553  GLY616  TRP617  ASP618  TYR619  PRO620  LYS621  CYS622 
 ASP623  PHE694  ASN695  SER759  ASP760  ASP761  ALA762  ILE779  LEU786  VAL792 
 PHE793  MET794  SER795  GLU796  ALA797  LYS798  CYS799  TRP800  GLU811  SER814 

> <Gold.Protein.RotatedAtoms>
  152.1645  134.8885  160.0538 H   0  0  0  0  0  0  0  0  0  0  0  0  # atno 6907 bound_to 6896
  151.9868  133.3772  159.4137 H   0  0  0  0  0  0  0  0  0  0  0  0  # atno 6908 bound_to 6896
  150.6892  134.3902  159.5117 H   0  0  0  0  0  0  0  0  0  0  0  0  # atno 6909 bound_to 6896
  145.9530  140.7554  142.9495 H   0  0  0  0  0  0  0  0  0  0  0  0  # atno 7974 bound_to 7965
  155.2293  140.0424  157.2960 H   0  0  0  0  0  0  0  0  0  0  0  0  # atno 8008 bound_to 7997
  154.5898  140.2424  155.7906 H   0  0  0  0  0  0  0  0  0  0  0  0  # atno 8009 bound_to 7997
  156.2251  140.2957  156.0057 H   0  0  0  0  0  0  0  0  0  0  0  0  # atno 8010 bound_to 7997
  139.6694  144.7126  151.1716 H   0  0  0  0  0  0  0  0  0  0  0  0  # atno 10167 bound_to 10162
  156.0540  130.5767  150.8109 H   0  0  0  0  0  0  0  0  0  0  0  0  # atno 10718 bound_to 10713
  154.3871  135.2754  155.2177 H   0  0  0  0  0  0  0  0  0  0  0  0  # atno 10763 bound_to 10752
  154.4259  135.5989  153.6042 H   0  0  0  0  0  0  0  0  0  0  0  0  # atno 10764 bound_to 10752
  152.9833  135.5983  154.4121 H   0  0  0  0  0  0  0  0  0  0  0  0  # atno 10765 bound_to 10752
  140.5834  133.9992  155.8057 H   0  0  0  0  0  0  0  0  0  0  0  0  # atno 11005 bound_to 11000
  144.6799  140.2465  143.7337 LP  0  0  0  0  0  0  0  0  0  0  0  0  # atno 17320 bound_to 7965
  145.8145  139.2017  143.1973 LP  0  0  0  0  0  0  0  0  0  0  0  0  # atno 17321 bound_to 7965
  140.7612  143.5868  150.8838 LP  0  0  0  0  0  0  0  0  0  0  0  0  # atno 17342 bound_to 10162
  139.9532  143.6248  152.3023 LP  0  0  0  0  0  0  0  0  0  0  0  0  # atno 17343 bound_to 10162
  157.5494  131.0943  150.9717 LP  0  0  0  0  0  0  0  0  0  0  0  0  # atno 17370 bound_to 10713
  156.9980  130.5589  149.5309 LP  0  0  0  0  0  0  0  0  0  0  0  0  # atno 17371 bound_to 10713
  141.0982  133.9810  157.3125 LP  0  0  0  0  0  0  0  0  0  0  0  0  # atno 17394 bound_to 11000
  139.9307  135.0200  156.8390 LP  0  0  0  0  0  0  0  0  0  0  0  0  # atno 17395 bound_to 11000

$$$$
