AV-unprocessed.smi:496|AV-procd|sdf|2723|dock3
  -GOLD-   2262023173D 1   1.00000     0.00000
 Structure written by MMmdl.
 42 44  0  0  0  0  0  0  0  0  3 V2000
  157.2928  140.0015  159.2184 C   0  0  0  0  0  0  0  0  0  0  0  0
  155.9441  139.5992  159.0561 O   0  0  0  0  0  0  0  0  0  0  0  0
  155.0706  140.2675  159.9493 C   0  0  0  0  0  0  0  0  0  0  0  0
  153.6327  139.8115  159.6727 C   0  0  0  0  0  0  0  0  0  0  0  0
  152.7372  140.9567  159.4184 N   0  0  0  0  0  0  0  0  0  0  0  0
  151.8890  141.2382  158.3763 C   0  0  0  0  0  0  0  0  0  0  0  0
  151.6069  140.4143  157.1468 C   0  0  1  0  0  0  0  0  0  0  0  0
  151.0952  139.0234  157.5494 C   0  0  0  0  0  0  0  0  0  0  0  0
  150.6190  141.0676  156.2856 N   0  5  0  0  0  0  0  0  0  0  0  0
  150.1973  140.5772  155.0858 C   0  0  0  0  0  0  0  0  0  0  0  0
  150.7734  139.8199  154.2976 O   0  0  0  0  0  0  0  0  0  0  0  0
  148.8417  141.0579  154.7279 C   0  0  0  0  0  0  0  0  0  0  0  0
  148.0841  142.0528  155.2873 C   0  0  0  0  0  0  0  0  0  0  0  0
  146.8600  142.0947  154.5642 C   0  0  0  0  0  0  0  0  0  0  0  0
  146.9545  141.1234  153.6099 C   0  0  0  0  0  0  0  0  0  0  0  0
  148.1516  140.4831  153.6946 O   0  0  0  0  0  0  0  0  0  0  0  0
  151.3046  142.4390  158.6565 N   0  3  0  0  0  0  0  0  0  0  0  0
  151.7882  142.9414  159.8624 C   0  0  0  0  0  0  0  0  0  0  0  0
  151.4972  144.1220  160.5384 C   0  0  0  0  0  0  0  0  0  0  0  0
  152.1776  144.3380  161.7544 C   0  0  0  0  0  0  0  0  0  0  0  0
  153.1055  143.4006  162.2524 C   0  0  0  0  0  0  0  0  0  0  0  0
  153.3911  142.2070  161.5571 C   0  0  0  0  0  0  0  0  0  0  0  0
  152.7119  141.9985  160.3561 C   0  0  0  0  0  0  0  0  0  0  0  0
  157.9258  139.4541  158.5202 H   0  0  0  0  0  0  0  0  0  0  0  0
  157.6483  139.7945  160.2286 H   0  0  0  0  0  0  0  0  0  0  0  0
  157.4125  141.0668  159.0163 H   0  0  0  0  0  0  0  0  0  0  0  0
  155.3491  140.0413  160.9798 H   0  0  0  0  0  0  0  0  0  0  0  0
  155.1508  141.3476  159.8157 H   0  0  0  0  0  0  0  0  0  0  0  0
  153.6047  139.1501  158.8064 H   0  0  0  0  0  0  0  0  0  0  0  0
  153.2398  139.2268  160.5043 H   0  0  0  0  0  0  0  0  0  0  0  0
  152.5589  140.2807  156.6311 H   0  0  0  0  0  0  0  0  0  0  0  0
  151.8215  138.5088  158.1793 H   0  0  0  0  0  0  0  0  0  0  0  0
  150.9210  138.3977  156.6732 H   0  0  0  0  0  0  0  0  0  0  0  0
  150.1592  139.0860  158.1060 H   0  0  0  0  0  0  0  0  0  0  0  0
  148.3768  142.6754  156.1198 H   0  0  0  0  0  0  0  0  0  0  0  0
  146.0182  142.7521  154.7225 H   0  0  0  0  0  0  0  0  0  0  0  0
  146.2970  140.7710  152.8291 H   0  0  0  0  0  0  0  0  0  0  0  0
  150.7889  144.8416  160.1547 H   0  0  0  0  0  0  0  0  0  0  0  0
  151.9856  145.2416  162.3145 H   0  0  0  0  0  0  0  0  0  0  0  0
  153.6096  143.6009  163.1868 H   0  0  0  0  0  0  0  0  0  0  0  0
  154.1063  141.4984  161.9471 H   0  0  0  0  0  0  0  0  0  0  0  0
  150.6359  142.8808  158.0385 H   0  0  0  0  0  0  0  0  0  0  0  0
  1  2  1  0  0  0  0
  1 24  1  0  0  0  0
  1 25  1  0  0  0  0
  1 26  1  0  0  0  0
  2  3  1  0  0  0  0
  3  4  1  0  0  0  0
  3 27  1  0  0  0  0
  3 28  1  0  0  0  0
  4  5  1  0  0  0  0
  4 29  1  0  0  0  0
  4 30  1  0  0  0  0
  5 23  1  0  0  0  0
  5  6  1  0  0  0  0
  6  7  1  0  0  0  0
  6 17  2  0  0  0  0
  7  8  1  0  0  0  0
  7  9  1  0  0  0  0
  7 31  1  0  0  0  0
  8 32  1  0  0  0  0
  8 33  1  0  0  0  0
  8 34  1  0  0  0  0
  9 10  1  0  0  0  0
 10 11  2  0  0  0  0
 10 12  1  0  0  0  0
 12 16  1  0  0  0  0
 12 13  2  0  0  0  0
 13 14  1  0  0  0  0
 13 35  1  0  0  0  0
 14 15  2  0  0  0  0
 14 36  1  0  0  0  0
 15 16  1  0  0  0  0
 15 37  1  0  0  0  0
 17 18  1  0  0  0  0
 17 42  1  0  0  0  0
 18 23  2  0  0  0  0
 18 19  1  0  0  0  0
 19 20  2  0  0  0  0
 19 38  1  0  0  0  0
 20 21  1  0  0  0  0
 20 39  1  0  0  0  0
 21 22  2  0  0  0  0
 21 40  1  0  0  0  0
 22 23  1  0  0  0  0
 22 41  1  0  0  0  0
M  CHG  1   9  -1
M  CHG  1  17   1
M  END
> <s_m_source_file>
AV-unprocessed.smi

> <i_m_source_file_index>
496

> <i_lp_mmshare_version>
43012

> <i_f3d_flags>
0

> <s_epik_input>
W2NIXTFbY0hdW2NIXVtjSF1jKGMxMiluKFtDSDJdW0NIMl1PW0NIM10pYyhuMilbQ0BIXShbQ0gzXSlbTkhdQyg9TyljM1tjSF1bY0hdW2NIXW8z

> <s_epik_cmdline>
J2VwaWtfcHl0aG9uJywgJy1waCcsICc3LjAnLCAnLXRuJywgJzgnLCAnLW1hJywgJzIwMCcsICctbWV0YWxfYmluZGluZycsICctaW1hZScsICc8aW5maWxlLm1hZT4nLCAnLW9tYWUnLCAnPG91dGZpbGUubWFlPic=

> <r_epik_Ionization_Penalty>
6.2189

> <r_epik_Ionization_Penalty_Charging>
6.2189

> <r_epik_Ionization_Penalty_Neutral>
2.56052e-12

> <r_epik_State_Penalty>
7.14475

> <r_epik_Charging_Adjusted_Penalty>
13.3636

> <i_epik_Tot_Q>
0

> <i_epik_Tot_abs_Q>
2

> <r_epik_Metal_State_Penalty>
3.17915

> <b_epik_Metal_Only>
1

> <s_lp_Force_Field>
OPLS_2005

> <r_lp_Energy>
11.4028

> <b_lp_Chiralities_Consistent>
1

> <s_lp_Variant>
AV-unprocessed.smi:496-8

> <Gold.Version>
5.8.1

> <Gold.Id.Protein>
6NUR|6NUR_protein|mol2

> <Gold.PLP.Fitness>
52.1900

> <Gold.PLP.PLP>
-44.2924

> <Gold.PLP.part.hbond>
-2.0000

> <Gold.PLP.part.metal>
0.0000

> <Gold.PLP.part.buried>
-3.9186

> <Gold.PLP.part.nonpolar>
-39.5784

> <Gold.PLP.part.repulsive>
0.7075

> <Gold.PLP.ligand.clash>
0.0000

> <Gold.PLP.ligand.torsion>
0.6272

> <Gold.PLP.Chemscore.Hbond>
2.0000

> <Gold.PLP.Chemscore.CHOScore>
0.9944

> <Gold.PLP.Chemscore.Metal>
0.0000

> <Gold.Chemscore.Hbonds>
donor molecule, donor type, donor heavy atom, donor atom, acceptor molecule, acceptor atom, score
      P1  H  7989  7998       L1    11  1.00
      P1  H  7997  8010       L1     2  1.00
      L1  C    15    37       P1 10175  0.72

> <Gold.PLP.Chemscore.Internal.Correction>
0.1686

> <Gold.Rescore>
     Score         DG    S(hbond)    S(metal)    S(lipo)     H(rot)  DE(clash)    DE(int)     intcor
     16.55     -18.41       1.13        0.00     118.45       1.83       1.18       0.67       ----

> <Gold.Chemscore.Fitness>
16.5524

> <Gold.Chemscore.DG>
-18.4090

> <Gold.Chemscore.ZeroCoef>
-5.4800

> <Gold.Chemscore.Hbond>
1.1275

> <Gold.Chemscore.Metal>
0.0000

> <Gold.Chemscore.Lipo>
118.4537

> <Gold.Chemscore.Internal_Hbond>
0.0000

> <Gold.Chemscore.DEClash>
1.1821

> <Gold.Chemscore.DEInternal>
0.6746

> <Gold.Chemscore.Rot>
1.8343

> <Gold.Chemscore.Internal.Correction>
   9.000000E+99

> <Gold.Chemscore.Hbonds>
donor molecule, donor type, donor heavy atom, donor atom, acceptor molecule, acceptor atom, score
      P1  H  7989  7998       L1    11  0.25
      P1  H  7997  8010       L1     2  0.41

> <Gold.Chemscore.Hbond.Weighted>
-3.7657

> <Gold.Chemscore.Metal.Weighted>
-0.0000

> <Gold.Chemscore.Lipo.Weighted>
-13.8591

> <Gold.Chemscore.Internal_Hbond.Weighted>
0.0000

> <Gold.Chemscore.DEClash.Weighted>
1.1821

> <Gold.Chemscore.DEInternal.Weighted>
0.6746

> <Gold.Chemscore.Rot.Weighted>
4.6958

> <Gold.Chemscore.Internal.Correction.Weighted>
   9.000000E+99

> <Gold.Protein.RotatedTorsions>
[ 6907 6896 6895 6894 ] final   -7.79 input  -60.11 | X-H torsion
[ 7974 7965 7964 7962 ] final -118.87 input  175.53 | X-H torsion
[ 8008 7997 7996 7995 ] final  -13.14 input   59.86 | X-H torsion
[ 10167 10162 10161 10158 ] final   85.97 input  -65.29 | X-H torsion
[ 10718 10713 10712 10709 ] final   21.09 input   66.30 | X-H torsion
[ 10763 10752 10751 10750 ] final   56.71 input  -60.55 | X-H torsion
[ 11005 11000 10999 10996 ] final   62.47 input  -57.11 | X-H torsion

> <Gold.Protein.ActiveResidues>
 VAL166  LYS551  ARG553  GLY616  TRP617  ASP618  TYR619  PRO620  LYS621  CYS622 
 ASP623  PHE694  ASN695  SER759  ASP760  ASP761  ALA762  ILE779  LEU786  VAL792 
 PHE793  MET794  SER795  GLU796  ALA797  LYS798  CYS799  TRP800  GLU811  SER814 

> <Gold.Protein.RotatedAtoms>
  151.4439  135.1023  159.9677 H   0  0  0  0  0  0  0  0  0  0  0  0  # atno 6907 bound_to 6896
  152.4913  133.8503  159.7208 H   0  0  0  0  0  0  0  0  0  0  0  0  # atno 6908 bound_to 6896
  150.9069  133.6988  159.2892 H   0  0  0  0  0  0  0  0  0  0  0  0  # atno 6909 bound_to 6896
  145.0689  140.8345  143.4107 H   0  0  0  0  0  0  0  0  0  0  0  0  # atno 7974 bound_to 7965
  154.5318  140.2257  155.8792 H   0  0  0  0  0  0  0  0  0  0  0  0  # atno 8008 bound_to 7997
  156.1771  140.3109  155.9043 H   0  0  0  0  0  0  0  0  0  0  0  0  # atno 8009 bound_to 7997
  155.3437  140.0452  157.3036 H   0  0  0  0  0  0  0  0  0  0  0  0  # atno 8010 bound_to 7997
  139.8923  144.6378  150.8726 H   0  0  0  0  0  0  0  0  0  0  0  0  # atno 10167 bound_to 10162
  157.1336  130.6602  149.5959 H   0  0  0  0  0  0  0  0  0  0  0  0  # atno 10718 bound_to 10713
  152.9836  135.5667  154.5273 H   0  0  0  0  0  0  0  0  0  0  0  0  # atno 10763 bound_to 10752
  154.4751  135.2786  155.1616 H   0  0  0  0  0  0  0  0  0  0  0  0  # atno 10764 bound_to 10752
  154.3148  135.6281  153.5534 H   0  0  0  0  0  0  0  0  0  0  0  0  # atno 10765 bound_to 10752
  140.0090  134.6326  155.9810 H   0  0  0  0  0  0  0  0  0  0  0  0  # atno 11005 bound_to 11000
  145.1316  139.2628  143.5536 LP  0  0  0  0  0  0  0  0  0  0  0  0  # atno 17320 bound_to 7965
  146.3528  140.0969  142.8610 LP  0  0  0  0  0  0  0  0  0  0  0  0  # atno 17321 bound_to 7965
  140.7724  143.3500  151.2032 LP  0  0  0  0  0  0  0  0  0  0  0  0  # atno 17342 bound_to 10162
  139.7099  143.9394  152.2943 LP  0  0  0  0  0  0  0  0  0  0  0  0  # atno 17343 bound_to 10162
  155.9803  130.4802  150.6763 LP  0  0  0  0  0  0  0  0  0  0  0  0  # atno 17370 bound_to 10713
  157.4370  131.0856  151.0982 LP  0  0  0  0  0  0  0  0  0  0  0  0  # atno 17371 bound_to 10713
  141.1697  133.6537  156.4607 LP  0  0  0  0  0  0  0  0  0  0  0  0  # atno 17394 bound_to 11000
  140.4589  134.6859  157.5076 LP  0  0  0  0  0  0  0  0  0  0  0  0  # atno 17395 bound_to 11000

$$$$
