AV-unprocessed.smi:3068|AV-procd|sdf|11707|dock6
  -GOLD-   2272017113D 1   1.00000     0.00000
 Structure written by MMmdl.
 39 41  0  0  0  0  0  0  0  0  1 V2000
  146.4402  141.0997  158.5525 N   0  0  0  0  0  0  0  0  0  0  0  0
  146.9463  141.0897  157.5118 C   0  0  0  0  0  0  0  0  0  0  0  0
  147.5838  141.0766  156.2011 C   0  0  0  0  0  0  0  0  0  0  0  0
  146.7637  140.9878  155.1283 N   0  0  0  0  0  0  0  0  0  0  0  0
  147.3410  140.9739  153.9081 C   0  0  0  0  0  0  0  0  0  0  0  0
  148.7385  141.0488  153.7528 C   0  0  0  0  0  0  0  0  0  0  0  0
  149.5638  141.1391  154.8170 N   0  0  0  0  0  0  0  0  0  0  0  0
  148.9974  141.1519  156.0498 C   0  0  0  0  0  0  0  0  0  0  0  0
  149.8443  141.2487  157.1697 N   0  0  0  0  0  0  0  0  0  0  0  0
  150.9937  140.3678  157.3416 C   0  0  0  0  0  0  0  0  0  0  0  0
  152.3362  141.1251  157.2520 C   0  0  1  0  0  0  0  0  0  0  0  0
  152.2694  142.5329  157.8737 C   0  0  0  0  0  0  0  0  0  0  0  0
  152.1994  142.5054  159.3297 N   0  0  0  0  0  0  0  0  0  0  0  0
  152.1573  143.8600  159.8794 C   0  0  0  0  0  0  0  0  0  0  0  0
  152.0511  143.8690  161.4121 C   0  0  0  0  0  0  0  0  0  0  0  0
  153.2166  143.0836  162.0295 C   0  0  0  0  0  0  0  0  0  0  0  0
  153.2880  141.6782  161.4130 C   0  0  0  0  0  0  0  0  0  0  0  0
  153.3319  141.7496  159.8720 C   0  0  1  0  0  0  0  0  0  0  0  0
  153.3866  140.3313  159.2707 C   0  0  0  0  0  0  0  0  0  0  0  0
  153.4091  140.3922  157.8467 O   0  0  0  0  0  0  0  0  0  0  0  0
  146.6858  140.9032  153.0526 H   0  0  0  0  0  0  0  0  0  0  0  0
  149.1950  141.0368  152.7741 H   0  0  0  0  0  0  0  0  0  0  0  0
  149.5426  141.7931  157.9652 H   0  0  0  0  0  0  0  0  0  0  0  0
  150.9176  139.8529  158.2998 H   0  0  0  0  0  0  0  0  0  0  0  0
  150.9410  139.5840  156.5869 H   0  0  0  0  0  0  0  0  0  0  0  0
  152.5872  141.2481  156.1982 H   0  0  0  0  0  0  0  0  0  0  0  0
  153.1538  143.0928  157.5656 H   0  0  0  0  0  0  0  0  0  0  0  0
  151.4110  143.0709  157.4697 H   0  0  0  0  0  0  0  0  0  0  0  0
  153.0487  144.4108  159.5753 H   0  0  0  0  0  0  0  0  0  0  0  0
  151.3056  144.3981  159.4618 H   0  0  0  0  0  0  0  0  0  0  0  0
  152.0489  144.8939  161.7837 H   0  0  0  0  0  0  0  0  0  0  0  0
  151.1030  143.4234  161.7163 H   0  0  0  0  0  0  0  0  0  0  0  0
  154.1530  143.6120  161.8455 H   0  0  0  0  0  0  0  0  0  0  0  0
  153.1002  143.0186  163.1116 H   0  0  0  0  0  0  0  0  0  0  0  0
  154.1660  141.1543  161.7918 H   0  0  0  0  0  0  0  0  0  0  0  0
  152.4198  141.0991  161.7310 H   0  0  0  0  0  0  0  0  0  0  0  0
  154.2542  142.2606  159.5897 H   0  0  0  0  0  0  0  0  0  0  0  0
  154.2862  139.8144  159.6059 H   0  0  0  0  0  0  0  0  0  0  0  0
  152.5415  139.7311  159.6083 H   0  0  0  0  0  0  0  0  0  0  0  0
  1  2  3  0  0  0  0
  2  3  1  0  0  0  0
  3  8  1  0  0  0  0
  3  4  2  0  0  0  0
  4  5  1  0  0  0  0
  5  6  2  0  0  0  0
  5 21  1  0  0  0  0
  6  7  1  0  0  0  0
  6 22  1  0  0  0  0
  7  8  2  0  0  0  0
  8  9  1  0  0  0  0
  9 10  1  0  0  0  0
  9 23  1  0  0  0  0
 10 11  1  0  0  0  0
 10 24  1  0  0  0  0
 10 25  1  0  0  0  0
 11 20  1  0  0  0  0
 11 12  1  0  0  0  0
 11 26  1  0  0  0  0
 12 13  1  0  0  0  0
 12 27  1  0  0  0  0
 12 28  1  0  0  0  0
 13 18  1  0  0  0  0
 13 14  1  0  0  0  0
 14 15  1  0  0  0  0
 14 29  1  0  0  0  0
 14 30  1  0  0  0  0
 15 16  1  0  0  0  0
 15 31  1  0  0  0  0
 15 32  1  0  0  0  0
 16 17  1  0  0  0  0
 16 33  1  0  0  0  0
 16 34  1  0  0  0  0
 17 18  1  0  0  0  0
 17 35  1  0  0  0  0
 17 36  1  0  0  0  0
 18 19  1  0  0  0  0
 18 37  1  0  0  0  0
 19 20  1  0  0  0  0
 19 38  1  0  0  0  0
 19 39  1  0  0  0  0
M  END
> <s_m_source_file>
AV-unprocessed.smi

> <i_m_source_file_index>
3068

> <i_lp_mmshare_version>
43012

> <i_f3d_flags>
0

> <s_epik_input>
TiNDYzFuW2NIXVtjSF1uYzFbTkhdW0NIMl1bQ0BIXShbQ0gyXTIpT1tDSDJdW0NAQEhdKE4yMylbQ0gyXVtDSDJdW0NIMl1bQ0gyXTM=

> <s_epik_cmdline>
J2VwaWtfcHl0aG9uJywgJy1waCcsICc3LjAnLCAnLXRuJywgJzgnLCAnLW1hJywgJzIwMCcsICctbWV0YWxfYmluZGluZycsICctaW1hZScsICc8aW5maWxlLm1hZT4nLCAnLW9tYWUnLCAnPG91dGZpbGUubWFlPic=

> <r_epik_Ionization_Penalty>
1.22359

> <r_epik_Ionization_Penalty_Charging>
0

> <r_epik_Ionization_Penalty_Neutral>
1.22359

> <r_epik_State_Penalty>
1.29103

> <r_epik_Charging_Adjusted_Penalty>
1.29103

> <i_epik_Tot_Q>
0

> <i_epik_Tot_abs_Q>
0

> <r_epik_Metal_State_Penalty>
1.29103

> <b_epik_Metal_Only>
0

> <s_lp_Force_Field>
OPLS_2005

> <r_lp_Energy>
49.2936

> <b_lp_Chiralities_Consistent>
1

> <s_lp_Variant>
AV-unprocessed.smi:3068-10

> <Gold.Version>
5.8.1

> <Gold.Id.Protein>
6NUR|6NUR_protein|mol2

> <Gold.PLP.Fitness>
43.5527

> <Gold.PLP.PLP>
-33.3937

> <Gold.PLP.part.hbond>
-2.0000

> <Gold.PLP.part.metal>
0.0000

> <Gold.PLP.part.buried>
-6.4549

> <Gold.PLP.part.nonpolar>
-25.6884

> <Gold.PLP.part.repulsive>
0.2777

> <Gold.PLP.ligand.clash>
0.0000

> <Gold.PLP.ligand.torsion>
0.6829

> <Gold.PLP.Chemscore.Hbond>
1.8483

> <Gold.PLP.Chemscore.CHOScore>
1.9917

> <Gold.PLP.Chemscore.Metal>
0.0000

> <Gold.Chemscore.Hbonds>
donor molecule, donor type, donor heavy atom, donor atom, acceptor molecule, acceptor atom, score
      P1  H  6934  6946       L1     1  0.26
      P1  H  7997  8008       L1    20  0.68
      L1  C     6    22       P1  7957  0.75

> <Gold.PLP.Chemscore.Internal.Correction>
0.0047

> <Gold.Rescore>
     Score         DG    S(hbond)    S(metal)    S(lipo)     H(rot)  DE(clash)    DE(int)     intcor
     18.82     -19.49       1.79        0.00      97.14       1.30       0.05       0.61       ----

> <Gold.Chemscore.Fitness>
18.8247

> <Gold.Chemscore.DG>
-19.4852

> <Gold.Chemscore.ZeroCoef>
-5.4800

> <Gold.Chemscore.Hbond>
1.7884

> <Gold.Chemscore.Metal>
0.0000

> <Gold.Chemscore.Lipo>
97.1355

> <Gold.Chemscore.Internal_Hbond>
0.0000

> <Gold.Chemscore.DEClash>
0.0519

> <Gold.Chemscore.DEInternal>
0.6087

> <Gold.Chemscore.Rot>
1.3019

> <Gold.Chemscore.Internal.Correction>
   9.000000E+99

> <Gold.Chemscore.Hbonds>
donor molecule, donor type, donor heavy atom, donor atom, acceptor molecule, acceptor atom, score
      P1  H  6934  6946       L1     1  0.26
      P1  H  7997  8008       L1    20  0.54

> <Gold.Chemscore.Hbond.Weighted>
-5.9731

> <Gold.Chemscore.Metal.Weighted>
-0.0000

> <Gold.Chemscore.Lipo.Weighted>
-11.3649

> <Gold.Chemscore.Internal_Hbond.Weighted>
0.0000

> <Gold.Chemscore.DEClash.Weighted>
0.0519

> <Gold.Chemscore.DEInternal.Weighted>
0.6087

> <Gold.Chemscore.Rot.Weighted>
3.3327

> <Gold.Chemscore.Internal.Correction.Weighted>
   9.000000E+99

> <Gold.Protein.RotatedTorsions>
[ 6907 6896 6895 6894 ] final   89.97 input  -60.11 | X-H torsion
[ 7974 7965 7964 7962 ] final -106.29 input  175.53 | X-H torsion
[ 8008 7997 7996 7995 ] final  -73.19 input   59.86 | X-H torsion
[ 10167 10162 10161 10158 ] final   -1.65 input  -65.29 | X-H torsion
[ 10718 10713 10712 10709 ] final  -77.87 input   66.30 | X-H torsion
[ 10763 10752 10751 10750 ] final  -46.91 input  -60.55 | X-H torsion
[ 11005 11000 10999 10996 ] final -157.31 input  -57.11 | X-H torsion

> <Gold.Protein.ActiveResidues>
 VAL166  LYS551  ARG553  GLY616  TRP617  ASP618  TYR619  PRO620  LYS621  CYS622 
 ASP623  PHE694  ASN695  SER759  ASP760  ASP761  ALA762  ILE779  LEU786  VAL792 
 PHE793  MET794  SER795  GLU796  ALA797  LYS798  CYS799  TRP800  GLU811  SER814 

> <Gold.Protein.RotatedAtoms>
  152.5441  134.1884  159.8663 H   0  0  0  0  0  0  0  0  0  0  0  0  # atno 6907 bound_to 6896
  151.1881  133.4677  159.2602 H   0  0  0  0  0  0  0  0  0  0  0  0  # atno 6908 bound_to 6896
  151.1110  135.0038  159.8549 H   0  0  0  0  0  0  0  0  0  0  0  0  # atno 6909 bound_to 6896
  145.2197  140.9129  143.3267 H   0  0  0  0  0  0  0  0  0  0  0  0  # atno 7974 bound_to 7965
  154.5227  140.0783  156.8201 H   0  0  0  0  0  0  0  0  0  0  0  0  # atno 8008 bound_to 7997
  155.3542  140.3414  155.4221 H   0  0  0  0  0  0  0  0  0  0  0  0  # atno 8009 bound_to 7997
  156.1698  140.1616  156.8454 H   0  0  0  0  0  0  0  0  0  0  0  0  # atno 8010 bound_to 7997
  140.6819  143.6750  150.8153 H   0  0  0  0  0  0  0  0  0  0  0  0  # atno 10167 bound_to 10162
  156.0133  130.4503  150.3410 H   0  0  0  0  0  0  0  0  0  0  0  0  # atno 10718 bound_to 10713
  154.0528  135.6629  153.4802 H   0  0  0  0  0  0  0  0  0  0  0  0  # atno 10763 bound_to 10752
  153.0457  135.5116  154.7734 H   0  0  0  0  0  0  0  0  0  0  0  0  # atno 10764 bound_to 10752
  154.6746  135.3035  154.9662 H   0  0  0  0  0  0  0  0  0  0  0  0  # atno 10765 bound_to 10752
  140.6660  134.4298  157.5233 H   0  0  0  0  0  0  0  0  0  0  0  0  # atno 11005 bound_to 11000
  144.9777  139.3814  143.6277 LP  0  0  0  0  0  0  0  0  0  0  0  0  # atno 17320 bound_to 7965
  146.3379  139.8904  142.8810 LP  0  0  0  0  0  0  0  0  0  0  0  0  # atno 17321 bound_to 7965
  140.0452  143.5305  152.2699 LP  0  0  0  0  0  0  0  0  0  0  0  0  # atno 17342 bound_to 10162
  139.6147  144.7617  151.2872 LP  0  0  0  0  0  0  0  0  0  0  0  0  # atno 17343 bound_to 10162
  157.1506  131.0320  151.2887 LP  0  0  0  0  0  0  0  0  0  0  0  0  # atno 17370 bound_to 10713
  157.4395  130.7536  149.7057 LP  0  0  0  0  0  0  0  0  0  0  0  0  # atno 17371 bound_to 10713
  139.8997  134.8585  156.1949 LP  0  0  0  0  0  0  0  0  0  0  0  0  # atno 17394 bound_to 11000
  141.0429  133.6928  156.1630 LP  0  0  0  0  0  0  0  0  0  0  0  0  # atno 17395 bound_to 11000

$$$$
