AV-unprocessed.smi:630|AV-procd|sdf|3123|dock1
  -GOLD-   22720 0 43D 1   1.00000     0.00000
 Structure written by MMmdl.
 36 37  0  0  0  0  0  0  0  0  2 V2000
  150.6982  135.8438  156.0340 N   0  0  0  0  0  0  0  0  0  0  0  0
  150.7628  136.9296  155.2583 C   0  0  0  0  0  0  0  0  0  0  0  0
  151.5926  137.0347  154.3563 O   0  0  0  0  0  0  0  0  0  0  0  0
  149.7452  138.0561  155.5411 C   0  0  2  0  0  0  0  0  0  0  0  0
  149.8857  139.1629  154.4632 C   0  0  0  0  0  0  0  0  0  0  0  0
  149.3635  140.5607  154.8339 C   0  0  0  0  0  0  0  0  0  0  0  0
  150.3925  141.3913  155.6190 C   0  0  0  0  0  0  0  0  0  0  0  0
  150.5261  141.0099  157.0992 C   0  0  0  0  0  0  0  0  0  0  0  0
  150.9047  139.5431  157.3656 C   0  0  0  0  0  0  0  0  0  0  0  0
  149.7689  138.5524  157.0246 C   0  0  2  0  0  0  0  0  0  0  0  0
  149.8074  137.4319  157.9718 N   0  0  0  0  0  0  0  0  0  0  0  0
  148.9262  137.1843  158.9532 C   0  0  0  0  0  0  0  0  0  0  0  0
  147.9793  137.9520  159.1395 O   0  0  0  0  0  0  0  0  0  0  0  0
  149.1886  136.0533  159.6467 N   0  5  0  0  0  0  0  0  0  0  0  0
  148.4919  135.7708  160.7593 C   0  0  0  0  0  0  0  0  0  0  0  0
  148.3011  136.6533  161.7466 N   0  0  0  0  0  0  0  0  0  0  0  0
  147.5550  136.1431  162.8107 C   0  0  0  0  0  0  0  0  0  0  0  0
  147.1751  134.8394  162.6327 C   0  0  0  0  0  0  0  0  0  0  0  0
  147.7474  134.2092  161.1146 S   0  0  0  0  0  0  0  0  0  0  0  0
  151.3646  135.0963  155.9078 H   0  0  0  0  0  0  0  0  0  0  0  0
  150.0040  135.7898  156.7654 H   0  0  0  0  0  0  0  0  0  0  0  0
  148.7522  137.6266  155.3960 H   0  0  0  0  0  0  0  0  0  0  0  0
  150.9197  139.2624  154.1297 H   0  0  0  0  0  0  0  0  0  0  0  0
  149.3422  138.8256  153.5796 H   0  0  0  0  0  0  0  0  0  0  0  0
  149.1563  141.0925  153.9046 H   0  0  0  0  0  0  0  0  0  0  0  0
  148.4096  140.5042  155.3593 H   0  0  0  0  0  0  0  0  0  0  0  0
  151.3670  141.3328  155.1327 H   0  0  0  0  0  0  0  0  0  0  0  0
  150.1018  142.4412  155.5673 H   0  0  0  0  0  0  0  0  0  0  0  0
  151.2860  141.6504  157.5482 H   0  0  0  0  0  0  0  0  0  0  0  0
  149.5985  141.2472  157.6215 H   0  0  0  0  0  0  0  0  0  0  0  0
  151.8275  139.2836  156.8470 H   0  0  0  0  0  0  0  0  0  0  0  0
  151.1363  139.4674  158.4291 H   0  0  0  0  0  0  0  0  0  0  0  0
  148.8260  139.0658  157.2206 H   0  0  0  0  0  0  0  0  0  0  0  0
  150.5644  136.7734  157.8601 H   0  0  0  0  0  0  0  0  0  0  0  0
  147.3422  136.7789  163.6568 H   0  0  0  0  0  0  0  0  0  0  0  0
  146.5992  134.2140  163.2976 H   0  0  0  0  0  0  0  0  0  0  0  0
  1  2  1  0  0  0  0
  1 20  1  0  0  0  0
  1 21  1  0  0  0  0
  2  3  2  0  0  0  0
  2  4  1  0  0  0  0
  4 10  1  0  0  0  0
  4  5  1  0  0  0  0
  4 22  1  0  0  0  0
  5  6  1  0  0  0  0
  5 23  1  0  0  0  0
  5 24  1  0  0  0  0
  6  7  1  0  0  0  0
  6 25  1  0  0  0  0
  6 26  1  0  0  0  0
  7  8  1  0  0  0  0
  7 27  1  0  0  0  0
  7 28  1  0  0  0  0
  8  9  1  0  0  0  0
  8 29  1  0  0  0  0
  8 30  1  0  0  0  0
  9 10  1  0  0  0  0
  9 31  1  0  0  0  0
  9 32  1  0  0  0  0
 10 11  1  0  0  0  0
 10 33  1  0  0  0  0
 11 12  1  0  0  0  0
 11 34  1  0  0  0  0
 12 13  2  0  0  0  0
 12 14  1  0  0  0  0
 14 15  1  0  0  0  0
 15 19  1  0  0  0  0
 15 16  2  0  0  0  0
 16 17  1  0  0  0  0
 17 18  2  0  0  0  0
 17 35  1  0  0  0  0
 18 19  1  0  0  0  0
 18 36  1  0  0  0  0
M  CHG  1  14  -1
M  END
> <s_m_source_file>
AV-unprocessed.smi

> <i_m_source_file_index>
630

> <i_lp_mmshare_version>
43012

> <i_f3d_flags>
0

> <s_epik_input>
W05IMl1DKD1PKVtDQEBIXTFbQ0gyXVtDSDJdW0NIMl1bQ0gyXVtDSDJdW0NASF0xW05IXUMoPU8pW05IXWMybltjSF1bY0hdczI=

> <s_epik_cmdline>
J2VwaWtfcHl0aG9uJywgJy1waCcsICc3LjAnLCAnLXRuJywgJzgnLCAnLW1hJywgJzIwMCcsICctbWV0YWxfYmluZGluZycsICctaW1hZScsICc8aW5maWxlLm1hZT4nLCAnLW9tYWUnLCAnPG91dGZpbGUubWFlPic=

> <r_lp_tautomer_probability>
0.999

> <r_epik_Ionization_Penalty>
8.29606

> <r_epik_Ionization_Penalty_Charging>
6.67551

> <r_epik_Ionization_Penalty_Neutral>
1.62055

> <r_epik_State_Penalty>
6.67568

> <r_epik_Charging_Adjusted_Penalty>
13.3512

> <i_epik_Tot_Q>
-1

> <i_epik_Tot_abs_Q>
1

> <r_epik_Metal_State_Penalty>
2.59802

> <b_epik_Metal_Only>
1

> <s_lp_Force_Field>
OPLS_2005

> <r_lp_Energy>
8.77772

> <b_lp_Chiralities_Consistent>
1

> <s_lp_Variant>
AV-unprocessed.smi:630-7

> <Gold.Version>
5.8.1

> <Gold.Id.Protein>
6NUR|6NUR_protein|mol2

> <Gold.PLP.Fitness>
44.2874

> <Gold.PLP.PLP>
-32.6283

> <Gold.PLP.part.hbond>
-4.0000

> <Gold.PLP.part.metal>
0.0000

> <Gold.PLP.part.buried>
-5.9439

> <Gold.PLP.part.nonpolar>
-23.7585

> <Gold.PLP.part.repulsive>
0.3841

> <Gold.PLP.ligand.clash>
0.0000

> <Gold.PLP.ligand.torsion>
0.5588

> <Gold.PLP.Chemscore.Hbond>
4.1858

> <Gold.PLP.Chemscore.CHOScore>
0.0000

> <Gold.PLP.Chemscore.Metal>
0.0000

> <Gold.Chemscore.Hbonds>
donor molecule, donor type, donor heavy atom, donor atom, acceptor molecule, acceptor atom, score
      P1  H  6896  6909       L1    14  2.00
      P1  H  6931  6943       L1    16  1.00
      P1  H  6934  6947       L1    13  0.20
      P1  H 10752 10765       L1     3  1.00

> <Gold.PLP.Chemscore.Internal.Correction>
0.2192

> <Gold.Rescore>
     Score         DG    S(hbond)    S(metal)    S(lipo)     H(rot)  DE(clash)    DE(int)     intcor
     16.03     -19.64       3.21        0.00      62.40       1.50       0.26       3.35       ----

> <Gold.Chemscore.Fitness>
16.0296

> <Gold.Chemscore.DG>
-19.6382

> <Gold.Chemscore.ZeroCoef>
-5.4800

> <Gold.Chemscore.Hbond>
3.2061

> <Gold.Chemscore.Metal>
0.0000

> <Gold.Chemscore.Lipo>
62.4031

> <Gold.Chemscore.Internal_Hbond>
0.0000

> <Gold.Chemscore.DEClash>
0.2620

> <Gold.Chemscore.DEInternal>
3.3466

> <Gold.Chemscore.Rot>
1.5044

> <Gold.Chemscore.Internal.Correction>
   9.000000E+99

> <Gold.Chemscore.Hbonds>
donor molecule, donor type, donor heavy atom, donor atom, acceptor molecule, acceptor atom, score
      P1  H  6896  6909       L1    14  0.47
      P1  H  6931  6943       L1    16  0.97
      P1  H  6934  6947       L1    13  0.21
      P1  H 10752 10765       L1     3  0.66

> <Gold.Chemscore.Hbond.Weighted>
-10.7082

> <Gold.Chemscore.Metal.Weighted>
-0.0000

> <Gold.Chemscore.Lipo.Weighted>
-7.3012

> <Gold.Chemscore.Internal_Hbond.Weighted>
0.0000

> <Gold.Chemscore.DEClash.Weighted>
0.2620

> <Gold.Chemscore.DEInternal.Weighted>
3.3466

> <Gold.Chemscore.Rot.Weighted>
3.8512

> <Gold.Chemscore.Internal.Correction.Weighted>
   9.000000E+99

> <Gold.Protein.RotatedTorsions>
[ 6907 6896 6895 6894 ] final   62.97 input  -60.11 | X-H torsion
[ 7974 7965 7964 7962 ] final   43.57 input  175.53 | X-H torsion
[ 8008 7997 7996 7995 ] final  -84.04 input   59.86 | X-H torsion
[ 10167 10162 10161 10158 ] final -110.05 input  -65.29 | X-H torsion
[ 10718 10713 10712 10709 ] final  176.57 input   66.30 | X-H torsion
[ 10763 10752 10751 10750 ] final  178.79 input  -60.55 | X-H torsion
[ 11005 11000 10999 10996 ] final   57.98 input  -57.11 | X-H torsion

> <Gold.Protein.ActiveResidues>
 VAL166  LYS551  ARG553  GLY616  TRP617  ASP618  TYR619  PRO620  LYS621  CYS622 
 ASP623  PHE694  ASN695  SER759  ASP760  ASP761  ALA762  ILE779  LEU786  VAL792 
 PHE793  MET794  SER795  GLU796  ALA797  LYS798  CYS799  TRP800  GLU811  SER814 

> <Gold.Protein.RotatedAtoms>
  152.4215  134.5946  159.9983 H   0  0  0  0  0  0  0  0  0  0  0  0  # atno 6907 bound_to 6896
  151.6094  133.3343  159.3072 H   0  0  0  0  0  0  0  0  0  0  0  0  # atno 6908 bound_to 6896
  150.8103  134.7292  159.6748 H   0  0  0  0  0  0  0  0  0  0  0  0  # atno 6909 bound_to 6896
  146.0644  139.5172  142.9637 H   0  0  0  0  0  0  0  0  0  0  0  0  # atno 7974 bound_to 7965
  154.6255  140.0610  156.9668 H   0  0  0  0  0  0  0  0  0  0  0  0  # atno 8008 bound_to 7997
  155.1748  140.3294  155.4367 H   0  0  0  0  0  0  0  0  0  0  0  0  # atno 8009 bound_to 7997
  156.2455  140.1908  156.6848 H   0  0  0  0  0  0  0  0  0  0  0  0  # atno 8010 bound_to 7997
  140.1486  143.4218  152.1511 H   0  0  0  0  0  0  0  0  0  0  0  0  # atno 10167 bound_to 10162
  156.9182  130.9932  151.3009 H   0  0  0  0  0  0  0  0  0  0  0  0  # atno 10718 bound_to 10713
  154.5122  135.2789  155.1333 H   0  0  0  0  0  0  0  0  0  0  0  0  # atno 10763 bound_to 10752
  154.2924  135.6264  153.5394 H   0  0  0  0  0  0  0  0  0  0  0  0  # atno 10764 bound_to 10752
  152.9921  135.5677  154.5590 H   0  0  0  0  0  0  0  0  0  0  0  0  # atno 10765 bound_to 10752
  140.0411  134.5872  155.9380 H   0  0  0  0  0  0  0  0  0  0  0  0  # atno 11005 bound_to 11000
  145.6503  141.0264  143.1764 LP  0  0  0  0  0  0  0  0  0  0  0  0  # atno 17320 bound_to 7965
  144.7194  139.8083  143.7387 LP  0  0  0  0  0  0  0  0  0  0  0  0  # atno 17321 bound_to 7965
  139.5437  144.7279  151.4653 LP  0  0  0  0  0  0  0  0  0  0  0  0  # atno 17342 bound_to 10162
  140.6716  143.8281  150.7007 LP  0  0  0  0  0  0  0  0  0  0  0  0  # atno 17343 bound_to 10162
  157.5925  130.8454  149.8680 LP  0  0  0  0  0  0  0  0  0  0  0  0  # atno 17370 bound_to 10713
  156.0504  130.3719  150.1216 LP  0  0  0  0  0  0  0  0  0  0  0  0  # atno 17371 bound_to 10713
  141.1883  133.6562  156.5320 LP  0  0  0  0  0  0  0  0  0  0  0  0  # atno 17394 bound_to 11000
  140.4067  134.7308  157.4812 LP  0  0  0  0  0  0  0  0  0  0  0  0  # atno 17395 bound_to 11000

$$$$
