AV-unprocessed.smi:1072|AV-procd|sdf|4685|dock4
  -GOLD-   22720 3203D 1   1.00000     0.00000
 Structure written by MMmdl.
 46 47  0  0  0  0  0  0  0  0  1 V2000
  153.2407  143.4010  163.6244 C   0  0  0  0  0  0  0  0  0  0  0  0
  152.7980  143.2748  162.1826 C   0  0  0  0  0  0  0  0  0  0  0  0
  153.1980  142.0939  161.5789 N   0  0  0  0  0  0  0  0  0  0  0  0
  152.8428  141.8900  160.2571 C   0  0  0  0  0  0  0  0  0  0  0  0
  153.3233  140.5741  159.6698 C   0  0  0  0  0  0  0  0  0  0  0  0
  152.1197  142.8130  159.5733 C   0  0  0  0  0  0  0  0  0  0  0  0
  151.7045  142.6216  158.1150 C   0  0  0  0  0  0  0  0  0  0  0  0
  150.8702  141.3732  157.8181 C   0  0  0  0  0  0  0  0  0  0  0  0
  150.6193  140.5702  158.7164 O   0  0  0  0  0  0  0  0  0  0  0  0
  150.4562  141.2319  156.5465 N   0  0  0  0  0  0  0  0  0  0  0  0
  149.6609  140.1449  155.9564 C   0  0  1  0  0  0  0  0  0  0  0  0
  150.3668  138.7919  156.1928 C   0  0  0  0  0  0  0  0  0  0  0  0
  148.2204  140.1105  156.5326 C   0  0  0  0  0  0  0  0  0  0  0  0
  147.4117  141.3762  156.1961 C   0  0  0  0  0  0  0  0  0  0  0  0
  147.3445  141.6134  154.6768 C   0  0  1  0  0  0  0  0  0  0  0  0
  146.5449  142.8797  154.3403 C   0  0  0  0  0  0  0  0  0  0  0  0
  148.7624  141.6633  154.0792 C   0  0  0  0  0  0  0  0  0  0  0  0
  149.5729  140.4016  154.4323 C   0  0  0  0  0  0  0  0  0  0  0  0
  151.7111  144.0522  160.2763 C   0  0  0  0  0  0  0  0  0  0  0  0
  151.0409  144.9189  159.7169 O   0  0  0  0  0  0  0  0  0  0  0  0
  152.1056  144.2149  161.6145 N   0  0  0  0  0  0  0  0  0  0  0  0
  153.7332  141.3797  162.0515 H   0  0  0  0  0  0  0  0  0  0  0  0
  153.0556  144.4075  164.0018 H   0  0  0  0  0  0  0  0  0  0  0  0
  154.3075  143.1948  163.7177 H   0  0  0  0  0  0  0  0  0  0  0  0
  152.6940  142.6954  164.2504 H   0  0  0  0  0  0  0  0  0  0  0  0
  153.9901  140.7539  158.8265 H   0  0  0  0  0  0  0  0  0  0  0  0
  152.4779  139.9799  159.3220 H   0  0  0  0  0  0  0  0  0  0  0  0
  153.8678  139.9810  160.4055 H   0  0  0  0  0  0  0  0  0  0  0  0
  152.6089  142.5879  157.5064 H   0  0  0  0  0  0  0  0  0  0  0  0
  151.1582  143.4918  157.7501 H   0  0  0  0  0  0  0  0  0  0  0  0
  150.7240  141.9645  155.9054 H   0  0  0  0  0  0  0  0  0  0  0  0
  149.8432  137.9804  155.6864 H   0  0  0  0  0  0  0  0  0  0  0  0
  150.4091  138.5300  157.2501 H   0  0  0  0  0  0  0  0  0  0  0  0
  151.3898  138.8065  155.8151 H   0  0  0  0  0  0  0  0  0  0  0  0
  147.6936  139.2456  156.1269 H   0  0  0  0  0  0  0  0  0  0  0  0
  148.2316  139.9606  157.6121 H   0  0  0  0  0  0  0  0  0  0  0  0
  146.4035  141.2793  156.6000 H   0  0  0  0  0  0  0  0  0  0  0  0
  147.8554  142.2416  156.6900 H   0  0  0  0  0  0  0  0  0  0  0  0
  146.8219  140.7674  154.2280 H   0  0  0  0  0  0  0  0  0  0  0  0
  147.0104  143.7685  154.7674 H   0  0  0  0  0  0  0  0  0  0  0  0
  145.5283  142.8167  154.7297 H   0  0  0  0  0  0  0  0  0  0  0  0
  146.4755  143.0249  153.2620 H   0  0  0  0  0  0  0  0  0  0  0  0
  148.7032  141.7628  152.9949 H   0  0  0  0  0  0  0  0  0  0  0  0
  149.2845  142.5516  154.4372 H   0  0  0  0  0  0  0  0  0  0  0  0
  150.5738  140.4807  154.0052 H   0  0  0  0  0  0  0  0  0  0  0  0
  149.1079  139.5435  153.9446 H   0  0  0  0  0  0  0  0  0  0  0  0
  1 23  1  0  0  0  0
  1 24  1  0  0  0  0
  1 25  1  0  0  0  0
  1  2  1  0  0  0  0
  2  3  1  0  0  0  0
  2 21  2  0  0  0  0
  3  4  1  0  0  0  0
  3 22  1  0  0  0  0
  4  6  2  0  0  0  0
  4  5  1  0  0  0  0
  5 26  1  0  0  0  0
  5 27  1  0  0  0  0
  5 28  1  0  0  0  0
  6 19  1  0  0  0  0
  6  7  1  0  0  0  0
  7  8  1  0  0  0  0
  7 29  1  0  0  0  0
  7 30  1  0  0  0  0
  8  9  2  0  0  0  0
  8 10  1  0  0  0  0
 10 11  1  0  0  0  0
 10 31  1  0  0  0  0
 11 18  1  0  0  0  0
 11 12  1  0  0  0  0
 11 13  1  0  0  0  0
 12 32  1  0  0  0  0
 12 33  1  0  0  0  0
 12 34  1  0  0  0  0
 13 14  1  0  0  0  0
 13 35  1  0  0  0  0
 13 36  1  0  0  0  0
 14 15  1  0  0  0  0
 14 37  1  0  0  0  0
 14 38  1  0  0  0  0
 15 16  1  0  0  0  0
 15 17  1  0  0  0  0
 15 39  1  0  0  0  0
 16 40  1  0  0  0  0
 16 41  1  0  0  0  0
 16 42  1  0  0  0  0
 17 18  1  0  0  0  0
 17 43  1  0  0  0  0
 17 44  1  0  0  0  0
 18 45  1  0  0  0  0
 18 46  1  0  0  0  0
 19 20  2  0  0  0  0
 19 21  1  0  0  0  0
M  END
> <s_m_source_file>
AV-unprocessed.smi

> <i_m_source_file_index>
1072

> <i_lp_mmshare_version>
43012

> <i_f3d_flags>
0

> <s_epik_input>
W0NIM11jMW5jKFtDSDNdKWMoYyg9TylbbkhdMSlbQ0gyXUMoPU8pW05IXVtDQEBdMihbQ0gzXSlbQ0gyXVtDSDJdW0NAQEhdKFtDSDNdKVtDSDJdW0NIMl0y

> <s_epik_cmdline>
J2VwaWtfcHl0aG9uJywgJy1waCcsICc3LjAnLCAnLXRuJywgJzgnLCAnLW1hJywgJzIwMCcsICctbWV0YWxfYmluZGluZycsICctaW1hZScsICc8aW5maWxlLm1hZT4nLCAnLW9tYWUnLCAnPG91dGZpbGUubWFlPic=

> <r_lp_tautomer_probability>
0.156392

> <r_epik_Ionization_Penalty>
0.0131066

> <r_epik_Ionization_Penalty_Charging>
0.0129643

> <r_epik_Ionization_Penalty_Neutral>
0.000142248

> <r_epik_State_Penalty>
1.15342

> <r_epik_Charging_Adjusted_Penalty>
1.16638

> <i_epik_Tot_Q>
0

> <i_epik_Tot_abs_Q>
0

> <r_epik_Metal_State_Penalty>
1.30766

> <b_epik_Metal_Only>
0

> <s_lp_Force_Field>
OPLS_2005

> <r_lp_Energy>
14.6826

> <b_lp_Chiralities_Consistent>
1

> <s_lp_Variant>
AV-unprocessed.smi:1072-3

> <Gold.Version>
5.8.1

> <Gold.Id.Protein>
6NUR|6NUR_protein|mol2

> <Gold.PLP.Fitness>
40.0202

> <Gold.PLP.PLP>
-40.1106

> <Gold.PLP.part.hbond>
0.0000

> <Gold.PLP.part.metal>
0.0000

> <Gold.PLP.part.buried>
-4.1906

> <Gold.PLP.part.nonpolar>
-35.5197

> <Gold.PLP.part.repulsive>
0.3992

> <Gold.PLP.ligand.clash>
0.0000

> <Gold.PLP.ligand.torsion>
0.0479

> <Gold.PLP.Chemscore.Hbond>
0.0000

> <Gold.PLP.Chemscore.CHOScore>
0.0000

> <Gold.PLP.Chemscore.Metal>
0.0000

> <Gold.PLP.Chemscore.Internal.Correction>
0.0054

> <Gold.Rescore>
     Score         DG    S(hbond)    S(metal)    S(lipo)     H(rot)  DE(clash)    DE(int)     intcor
     12.25     -12.56       0.00        0.00      92.69       1.47       0.18       0.13       ----

> <Gold.Chemscore.Fitness>
12.2543

> <Gold.Chemscore.DG>
-12.5638

> <Gold.Chemscore.ZeroCoef>
-5.4800

> <Gold.Chemscore.Hbond>
0.0000

> <Gold.Chemscore.Metal>
0.0000

> <Gold.Chemscore.Lipo>
92.6882

> <Gold.Chemscore.Internal_Hbond>
0.0000

> <Gold.Chemscore.DEClash>
0.1772

> <Gold.Chemscore.DEInternal>
0.1323

> <Gold.Chemscore.Rot>
1.4690

> <Gold.Chemscore.Internal.Correction>
   9.000000E+99

> <Gold.Chemscore.Hbond.Weighted>
-0.0000

> <Gold.Chemscore.Metal.Weighted>
-0.0000

> <Gold.Chemscore.Lipo.Weighted>
-10.8445

> <Gold.Chemscore.Internal_Hbond.Weighted>
0.0000

> <Gold.Chemscore.DEClash.Weighted>
0.1772

> <Gold.Chemscore.DEInternal.Weighted>
0.1323

> <Gold.Chemscore.Rot.Weighted>
3.7607

> <Gold.Chemscore.Internal.Correction.Weighted>
   9.000000E+99

> <Gold.Protein.RotatedTorsions>
[ 6907 6896 6895 6894 ] final   88.35 input  -60.11 | X-H torsion
[ 7974 7965 7964 7962 ] final  131.87 input  175.53 | X-H torsion
[ 8008 7997 7996 7995 ] final    7.92 input   59.86 | X-H torsion
[ 10167 10162 10161 10158 ] final  -44.35 input  -65.29 | X-H torsion
[ 10718 10713 10712 10709 ] final  -42.92 input   66.30 | X-H torsion
[ 10763 10752 10751 10750 ] final  -19.22 input  -60.55 | X-H torsion
[ 11005 11000 10999 10996 ] final  124.00 input  -57.11 | X-H torsion

> <Gold.Protein.ActiveResidues>
 VAL166  LYS551  ARG553  GLY616  TRP617  ASP618  TYR619  PRO620  LYS621  CYS622 
 ASP623  PHE694  ASN695  SER759  ASP760  ASP761  ALA762  ILE779  LEU786  VAL792 
 PHE793  MET794  SER795  GLU796  ALA797  LYS798  CYS799  TRP800  GLU811  SER814 

> <Gold.Protein.RotatedAtoms>
  152.5424  134.2135  159.8759 H   0  0  0  0  0  0  0  0  0  0  0  0  # atno 6907 bound_to 6896
  151.2116  133.4546  159.2606 H   0  0  0  0  0  0  0  0  0  0  0  0  # atno 6908 bound_to 6896
  151.0891  134.9918  159.8449 H   0  0  0  0  0  0  0  0  0  0  0  0  # atno 6909 bound_to 6896
  145.0027  139.4296  143.5284 H   0  0  0  0  0  0  0  0  0  0  0  0  # atno 7974 bound_to 7965
  154.7601  140.2783  155.6221 H   0  0  0  0  0  0  0  0  0  0  0  0  # atno 8008 bound_to 7997
  156.2914  140.2661  156.2304 H   0  0  0  0  0  0  0  0  0  0  0  0  # atno 8009 bound_to 7997
  155.0028  140.0372  157.2357 H   0  0  0  0  0  0  0  0  0  0  0  0  # atno 8010 bound_to 7997
  140.6900  143.2935  151.3483 H   0  0  0  0  0  0  0  0  0  0  0  0  # atno 10167 bound_to 10162
  156.2544  130.4191  149.8613 H   0  0  0  0  0  0  0  0  0  0  0  0  # atno 10718 bound_to 10713
  153.6015  135.6999  153.5382 H   0  0  0  0  0  0  0  0  0  0  0  0  # atno 10763 bound_to 10752
  153.3093  135.4106  155.1321 H   0  0  0  0  0  0  0  0  0  0  0  0  # atno 10764 bound_to 10752
  154.8581  135.3668  154.5550 H   0  0  0  0  0  0  0  0  0  0  0  0  # atno 10765 bound_to 10752
  139.9338  134.9640  156.8343 H   0  0  0  0  0  0  0  0  0  0  0  0  # atno 11005 bound_to 11000
  146.3455  139.9425  142.8739 LP  0  0  0  0  0  0  0  0  0  0  0  0  # atno 17320 bound_to 7965
  145.2131  140.9904  143.4089 LP  0  0  0  0  0  0  0  0  0  0  0  0  # atno 17321 bound_to 7965
  139.6293  144.0751  152.2462 LP  0  0  0  0  0  0  0  0  0  0  0  0  # atno 17342 bound_to 10162
  140.0221  144.6145  150.7558 LP  0  0  0  0  0  0  0  0  0  0  0  0  # atno 17343 bound_to 10162
  156.6150  130.8602  151.3463 LP  0  0  0  0  0  0  0  0  0  0  0  0  # atno 17370 bound_to 10713
  157.7227  130.9580  150.1504 LP  0  0  0  0  0  0  0  0  0  0  0  0  # atno 17371 bound_to 10713
  140.6130  134.0065  155.7585 LP  0  0  0  0  0  0  0  0  0  0  0  0  # atno 17394 bound_to 11000
  141.0941  133.9870  157.3188 LP  0  0  0  0  0  0  0  0  0  0  0  0  # atno 17395 bound_to 11000

$$$$
