AV-unprocessed.smi:2795|AV-procd|sdf|10779|dock6
  -GOLD-   2272015213D 1   1.00000     0.00000
 Structure written by MMmdl.
 37 38  0  0  0  0  0  0  0  0  2 V2000
  147.6670  141.4023  154.5661 C   0  0  0  0  0  0  0  0  0  0  0  0
  148.5764  140.3074  154.2164 N   0  0  0  0  0  0  0  0  0  0  0  0
  148.1951  139.3120  153.4063 C   0  0  0  0  0  0  0  0  0  0  0  0
  149.2360  138.4850  153.2901 N   0  3  0  0  0  0  0  0  0  0  0  0
  150.2883  138.9493  154.0297 C   0  0  0  0  0  0  0  0  0  0  0  0
  149.8796  140.1178  154.6245 C   0  0  0  0  0  0  0  0  0  0  0  0
  150.6287  141.0619  155.5168 C   0  0  0  0  0  0  0  0  0  0  0  0
  151.3375  140.3488  156.6867 C   0  0  0  0  0  0  0  0  0  0  0  0
  151.6951  141.2658  157.7666 N   0  0  0  0  0  0  0  0  0  0  0  0
  152.8477  141.2530  158.4569 C   0  0  0  0  0  0  0  0  0  0  0  0
  153.7191  140.3990  158.2878 O   0  0  0  0  0  0  0  0  0  0  0  0
  153.0504  142.3844  159.4754 C   0  0  1  0  0  0  0  0  0  0  0  0
  151.8505  143.3588  159.5220 C   0  0  0  0  0  0  0  0  0  0  0  0
  152.0498  144.4153  160.6141 C   0  0  0  0  0  0  0  0  0  0  0  0
  152.3577  143.7304  161.9490 C   0  0  0  0  0  0  0  0  0  0  0  0
  153.5316  142.7536  161.7857 C   0  0  0  0  0  0  0  0  0  0  0  0
  153.2316  141.8039  160.7685 O   0  0  0  0  0  0  0  0  0  0  0  0
  146.8524  141.4571  153.8424 H   0  0  0  0  0  0  0  0  0  0  0  0
  148.2091  142.3474  154.5591 H   0  0  0  0  0  0  0  0  0  0  0  0
  147.2603  141.2222  155.5613 H   0  0  0  0  0  0  0  0  0  0  0  0
  147.2347  139.1979  152.9361 H   0  0  0  0  0  0  0  0  0  0  0  0
  151.2356  138.4317  154.0707 H   0  0  0  0  0  0  0  0  0  0  0  0
  151.3517  141.6289  154.9302 H   0  0  0  0  0  0  0  0  0  0  0  0
  149.9240  141.7937  155.9124 H   0  0  0  0  0  0  0  0  0  0  0  0
  150.6790  139.5835  157.0977 H   0  0  0  0  0  0  0  0  0  0  0  0
  152.2214  139.8219  156.3237 H   0  0  0  0  0  0  0  0  0  0  0  0
  151.0326  141.9978  157.9795 H   0  0  0  0  0  0  0  0  0  0  0  0
  153.9568  142.9234  159.1939 H   0  0  0  0  0  0  0  0  0  0  0  0
  151.7199  143.8538  158.5587 H   0  0  0  0  0  0  0  0  0  0  0  0
  150.9298  142.8061  159.7175 H   0  0  0  0  0  0  0  0  0  0  0  0
  152.8750  145.0742  160.3408 H   0  0  0  0  0  0  0  0  0  0  0  0
  151.1628  145.0433  160.7032 H   0  0  0  0  0  0  0  0  0  0  0  0
  152.5884  144.4756  162.7108 H   0  0  0  0  0  0  0  0  0  0  0  0
  151.4775  143.1878  162.2962 H   0  0  0  0  0  0  0  0  0  0  0  0
  154.4517  143.2864  161.5406 H   0  0  0  0  0  0  0  0  0  0  0  0
  153.7105  142.2223  162.7206 H   0  0  0  0  0  0  0  0  0  0  0  0
  149.2437  137.6403  152.7323 H   0  0  0  0  0  0  0  0  0  0  0  0
  1  2  1  0  0  0  0
  1 18  1  0  0  0  0
  1 19  1  0  0  0  0
  1 20  1  0  0  0  0
  2  6  1  0  0  0  0
  2  3  1  0  0  0  0
  3  4  2  0  0  0  0
  3 21  1  0  0  0  0
  4  5  1  0  0  0  0
  4 37  1  0  0  0  0
  5  6  2  0  0  0  0
  5 22  1  0  0  0  0
  6  7  1  0  0  0  0
  7  8  1  0  0  0  0
  7 23  1  0  0  0  0
  7 24  1  0  0  0  0
  8  9  1  0  0  0  0
  8 25  1  0  0  0  0
  8 26  1  0  0  0  0
  9 10  1  0  0  0  0
  9 27  1  0  0  0  0
 10 11  2  0  0  0  0
 10 12  1  0  0  0  0
 12 17  1  0  0  0  0
 12 13  1  0  0  0  0
 12 28  1  0  0  0  0
 13 14  1  0  0  0  0
 13 29  1  0  0  0  0
 13 30  1  0  0  0  0
 14 15  1  0  0  0  0
 14 31  1  0  0  0  0
 14 32  1  0  0  0  0
 15 16  1  0  0  0  0
 15 33  1  0  0  0  0
 15 34  1  0  0  0  0
 16 17  1  0  0  0  0
 16 35  1  0  0  0  0
 16 36  1  0  0  0  0
M  CHG  1   4   1
M  END
> <s_m_source_file>
AV-unprocessed.smi

> <i_m_source_file_index>
2795

> <i_lp_mmshare_version>
43012

> <i_f3d_flags>
0

> <s_epik_input>
W0NIM11uMVtjSF1uW2NIXWMxW0NIMl1bQ0gyXVtOSF1DKD1PKVtDQEBIXTJbQ0gyXVtDSDJdW0NIMl1bQ0gyXU8y

> <s_epik_cmdline>
J2VwaWtfcHl0aG9uJywgJy1waCcsICc3LjAnLCAnLXRuJywgJzgnLCAnLW1hJywgJzIwMCcsICctbWV0YWxfYmluZGluZycsICctaW1hZScsICc8aW5maWxlLm1hZT4nLCAnLW9tYWUnLCAnPG91dGZpbGUubWFlPic=

> <r_lp_tautomer_probability>
1

> <r_epik_Ionization_Penalty>
0.154825

> <r_epik_Ionization_Penalty_Charging>
0

> <r_epik_Ionization_Penalty_Neutral>
0.154825

> <r_epik_State_Penalty>
0.144119

> <r_epik_Charging_Adjusted_Penalty>
0.144119

> <i_epik_Tot_Q>
1

> <i_epik_Tot_abs_Q>
1

> <r_epik_Metal_State_Penalty>
0.465431

> <b_epik_Metal_Only>
0

> <s_lp_Force_Field>
OPLS_2005

> <r_lp_Energy>
10.0187

> <b_lp_Chiralities_Consistent>
1

> <s_lp_Variant>
AV-unprocessed.smi:2795-2

> <Gold.Version>
5.8.1

> <Gold.Id.Protein>
6NUR|6NUR_protein|mol2

> <Gold.PLP.Fitness>
47.5161

> <Gold.PLP.PLP>
-39.6424

> <Gold.PLP.part.hbond>
-3.0000

> <Gold.PLP.part.metal>
0.0000

> <Gold.PLP.part.buried>
-0.6505

> <Gold.PLP.part.nonpolar>
-34.5447

> <Gold.PLP.part.repulsive>
0.1456

> <Gold.PLP.ligand.clash>
0.5063

> <Gold.PLP.ligand.torsion>
0.3170

> <Gold.PLP.Chemscore.Hbond>
3.0000

> <Gold.PLP.Chemscore.CHOScore>
0.0000

> <Gold.PLP.Chemscore.Metal>
0.0000

> <Gold.Chemscore.Hbonds>
donor molecule, donor type, donor heavy atom, donor atom, acceptor molecule, acceptor atom, score
      L1  H     4    37       P1  7948  2.00
      P1  H  7997  8009       L1    11  0.78

> <Gold.PLP.Chemscore.Internal.Correction>
0.0140

> <Gold.Rescore>
     Score         DG    S(hbond)    S(metal)    S(lipo)     H(rot)  DE(clash)    DE(int)     intcor
     17.51     -17.83       1.94        0.00      90.07       1.82       0.02       0.29       ----

> <Gold.Chemscore.Fitness>
17.5119

> <Gold.Chemscore.DG>
-17.8271

> <Gold.Chemscore.ZeroCoef>
-5.4800

> <Gold.Chemscore.Hbond>
1.9388

> <Gold.Chemscore.Metal>
0.0000

> <Gold.Chemscore.Lipo>
90.0656

> <Gold.Chemscore.Internal_Hbond>
0.0000

> <Gold.Chemscore.DEClash>
0.0237

> <Gold.Chemscore.DEInternal>
0.2916

> <Gold.Chemscore.Rot>
1.8227

> <Gold.Chemscore.Internal.Correction>
   9.000000E+99

> <Gold.Chemscore.Hbonds>
donor molecule, donor type, donor heavy atom, donor atom, acceptor molecule, acceptor atom, score
      L1  H     4    37       P1  7948  0.95
      P1  H  7997  8009       L1    11  0.74

> <Gold.Chemscore.Hbond.Weighted>
-6.4757

> <Gold.Chemscore.Metal.Weighted>
-0.0000

> <Gold.Chemscore.Lipo.Weighted>
-10.5377

> <Gold.Chemscore.Internal_Hbond.Weighted>
0.0000

> <Gold.Chemscore.DEClash.Weighted>
0.0237

> <Gold.Chemscore.DEInternal.Weighted>
0.2916

> <Gold.Chemscore.Rot.Weighted>
4.6662

> <Gold.Chemscore.Internal.Correction.Weighted>
   9.000000E+99

> <Gold.Protein.RotatedTorsions>
[ 6907 6896 6895 6894 ] final  159.10 input  -60.11 | X-H torsion
[ 7974 7965 7964 7962 ] final   12.61 input  175.53 | X-H torsion
[ 8008 7997 7996 7995 ] final  149.87 input   59.86 | X-H torsion
[ 10167 10162 10161 10158 ] final -167.54 input  -65.29 | X-H torsion
[ 10718 10713 10712 10709 ] final  -75.65 input   66.30 | X-H torsion
[ 10763 10752 10751 10750 ] final  -73.29 input  -60.55 | X-H torsion
[ 11005 11000 10999 10996 ] final  -55.03 input  -57.11 | X-H torsion

> <Gold.Protein.ActiveResidues>
 VAL166  LYS551  ARG553  GLY616  TRP617  ASP618  TYR619  PRO620  LYS621  CYS622 
 ASP623  PHE694  ASN695  SER759  ASP760  ASP761  ALA762  ILE779  LEU786  VAL792 
 PHE793  MET794  SER795  GLU796  ALA797  LYS798  CYS799  TRP800  GLU811  SER814 

> <Gold.Protein.RotatedAtoms>
  151.9906  133.3789  159.4142 H   0  0  0  0  0  0  0  0  0  0  0  0  # atno 6907 bound_to 6896
  150.6922  134.3941  159.5098 H   0  0  0  0  0  0  0  0  0  0  0  0  # atno 6908 bound_to 6896
  152.1673  134.8862  160.0588 H   0  0  0  0  0  0  0  0  0  0  0  0  # atno 6909 bound_to 6896
  146.2347  139.9311  142.8496 H   0  0  0  0  0  0  0  0  0  0  0  0  # atno 7974 bound_to 7965
  156.2738  140.2090  156.5927 H   0  0  0  0  0  0  0  0  0  0  0  0  # atno 8008 bound_to 7997
  154.6969  140.0524  157.0443 H   0  0  0  0  0  0  0  0  0  0  0  0  # atno 8009 bound_to 7997
  155.0788  140.3184  155.4611 H   0  0  0  0  0  0  0  0  0  0  0  0  # atno 8010 bound_to 7997
  139.6042  144.0946  152.1776 H   0  0  0  0  0  0  0  0  0  0  0  0  # atno 10167 bound_to 10162
  156.0200  130.4446  150.3075 H   0  0  0  0  0  0  0  0  0  0  0  0  # atno 10718 bound_to 10713
  154.4575  135.5902  153.6233 H   0  0  0  0  0  0  0  0  0  0  0  0  # atno 10763 bound_to 10752
  152.9820  135.6036  154.3528 H   0  0  0  0  0  0  0  0  0  0  0  0  # atno 10764 bound_to 10752
  154.3396  135.2842  155.2408 H   0  0  0  0  0  0  0  0  0  0  0  0  # atno 10765 bound_to 10752
  141.1054  133.6614  156.4409 H   0  0  0  0  0  0  0  0  0  0  0  0  # atno 11005 bound_to 11000
  145.2044  140.9868  143.4137 LP  0  0  0  0  0  0  0  0  0  0  0  0  # atno 17320 bound_to 7965
  144.9746  139.3845  143.6292 LP  0  0  0  0  0  0  0  0  0  0  0  0  # atno 17321 bound_to 7965
  140.0550  144.5902  150.7307 LP  0  0  0  0  0  0  0  0  0  0  0  0  # atno 17342 bound_to 10162
  140.7273  143.2650  151.4077 LP  0  0  0  0  0  0  0  0  0  0  0  0  # atno 17343 bound_to 10162
  157.1177  131.0238  151.3022 LP  0  0  0  0  0  0  0  0  0  0  0  0  # atno 17370 bound_to 10713
  157.4653  130.7677  149.7274 LP  0  0  0  0  0  0  0  0  0  0  0  0  # atno 17371 bound_to 10713
  140.4914  134.6571  157.5212 LP  0  0  0  0  0  0  0  0  0  0  0  0  # atno 17394 bound_to 11000
  139.9923  134.6966  155.9669 LP  0  0  0  0  0  0  0  0  0  0  0  0  # atno 17395 bound_to 11000

$$$$
