AV-unprocessed.smi:1|AV-procd|sdf|24|dock6
  -GOLD-   2262015133D 1   1.00000     0.00000
 Structure written by MMmdl.
 56 61  0  0  0  0  0  0  0  0  2 V2000
  152.6419  140.1117  158.1425 O   0  0  0  0  0  0  0  0  0  0  0  0
  151.9391  140.9912  157.6398 C   0  0  0  0  0  0  0  0  0  0  0  0
  151.3479  140.9896  156.4182 N   0  5  0  0  0  0  0  0  0  0  0  0
  150.9486  139.8326  155.8690 C   0  0  0  0  0  0  0  0  0  0  0  0
  150.9621  139.6710  154.5212 N   0  0  0  0  0  0  0  0  0  0  0  0
  150.5535  138.5200  153.9747 C   0  0  0  0  0  0  0  0  0  0  0  0
  150.0921  137.4207  154.5780 N   0  0  0  0  0  0  0  0  0  0  0  0
  150.0686  137.5715  155.9349 C   0  0  0  0  0  0  0  0  0  0  0  0
  150.4746  138.7393  156.6446 C   0  0  0  0  0  0  0  0  0  0  0  0
  150.3197  138.5643  158.0118 N   0  0  0  0  0  0  0  0  0  0  0  0
  149.8427  137.3233  158.0712 C   0  0  0  0  0  0  0  0  0  0  0  0
  149.6673  136.6678  156.9071 N   0  0  0  0  0  0  0  0  0  0  0  0
  149.1630  135.2721  156.7265 C   0  0  1  0  0  0  0  0  0  0  0  0
  149.9330  134.4113  157.5055 O   0  0  0  0  0  0  0  0  0  0  0  0
  149.1388  133.3161  157.9446 C   0  0  2  0  0  0  0  0  0  0  0  0
  149.1404  132.2216  156.8656 C   0  0  0  0  0  0  0  0  0  0  0  0
  150.4559  131.7118  156.7241 O   0  0  0  0  0  0  0  0  0  0  0  0
  150.7492  130.8689  155.7150 C   0  0  0  0  0  0  0  0  0  0  0  0
  149.9031  130.3959  154.9533 O   0  0  0  0  0  0  0  0  0  0  0  0
  152.2066  130.5680  155.6163 C   0  0  0  0  0  0  0  0  0  0  0  0
  153.1233  131.3195  156.3880 C   0  0  0  0  0  0  0  0  0  0  0  0
  154.5056  131.0592  156.3145 C   0  0  0  0  0  0  0  0  0  0  0  0
  154.9882  130.0443  155.4679 C   0  0  0  0  0  0  0  0  0  0  0  0
  154.0866  129.2887  154.6960 C   0  0  0  0  0  0  0  0  0  0  0  0
  152.7038  129.5472  154.7686 C   0  0  0  0  0  0  0  0  0  0  0  0
  147.7565  133.9360  158.1551 C   0  0  1  0  0  0  0  0  0  0  0  0
  147.6462  134.4351  159.4760 O   0  0  0  0  0  0  0  0  0  0  0  0
  146.8868  135.9193  159.4128 S   0  0  0  0  0  0  0  0  0  0  0  0
  145.4415  135.6973  159.5737 O   0  0  0  0  0  0  0  0  0  0  0  0
  147.6362  136.8686  160.2490 O   0  0  0  0  0  0  0  0  0  0  0  0
  147.1781  136.2713  157.8067 O   0  0  0  0  0  0  0  0  0  0  0  0
  147.6965  135.1130  157.1665 C   0  0  1  0  0  0  0  0  0  0  0  0
  151.7274  142.2733  158.3996 C   0  0  0  0  0  0  0  0  0  0  0  0
  151.2425  143.4165  157.7237 C   0  0  0  0  0  0  0  0  0  0  0  0
  151.0616  144.6324  158.4113 C   0  0  0  0  0  0  0  0  0  0  0  0
  151.3724  144.7210  159.7812 C   0  0  0  0  0  0  0  0  0  0  0  0
  151.8692  143.5937  160.4618 C   0  0  0  0  0  0  0  0  0  0  0  0
  152.0503  142.3773  159.7749 C   0  0  0  0  0  0  0  0  0  0  0  0
  150.6023  138.4738  152.8971 H   0  0  0  0  0  0  0  0  0  0  0  0
  149.6119  136.8598  159.0191 H   0  0  0  0  0  0  0  0  0  0  0  0
  149.3131  135.0544  155.6679 H   0  0  0  0  0  0  0  0  0  0  0  0
  149.5304  132.9098  158.8781 H   0  0  0  0  0  0  0  0  0  0  0  0
  148.4814  131.4043  157.1613 H   0  0  0  0  0  0  0  0  0  0  0  0
  148.7702  132.6125  155.9166 H   0  0  0  0  0  0  0  0  0  0  0  0
  152.7763  132.1043  157.0449 H   0  0  0  0  0  0  0  0  0  0  0  0
  155.1960  131.6393  156.9089 H   0  0  0  0  0  0  0  0  0  0  0  0
  156.0483  129.8457  155.4109 H   0  0  0  0  0  0  0  0  0  0  0  0
  154.4556  128.5090  154.0460 H   0  0  0  0  0  0  0  0  0  0  0  0
  152.0393  128.9481  154.1631 H   0  0  0  0  0  0  0  0  0  0  0  0
  146.9495  133.2206  157.9925 H   0  0  0  0  0  0  0  0  0  0  0  0
  147.0949  134.8675  156.2909 H   0  0  0  0  0  0  0  0  0  0  0  0
  151.0005  143.3655  156.6718 H   0  0  0  0  0  0  0  0  0  0  0  0
  150.6847  145.4975  157.8861 H   0  0  0  0  0  0  0  0  0  0  0  0
  151.2339  145.6532  160.3084 H   0  0  0  0  0  0  0  0  0  0  0  0
  152.1147  143.6615  161.5113 H   0  0  0  0  0  0  0  0  0  0  0  0
  152.4424  141.5267  160.3138 H   0  0  0  0  0  0  0  0  0  0  0  0
  1  2  2  0  0  0  0
  2  3  1  0  0  0  0
  2 33  1  0  0  0  0
  3  4  1  0  0  0  0
  4  9  1  0  0  0  0
  4  5  2  0  0  0  0
  5  6  1  0  0  0  0
  6  7  2  0  0  0  0
  6 39  1  0  0  0  0
  7  8  1  0  0  0  0
  8 12  1  0  0  0  0
  8  9  2  0  0  0  0
  9 10  1  0  0  0  0
 10 11  2  0  0  0  0
 11 12  1  0  0  0  0
 11 40  1  0  0  0  0
 12 13  1  0  0  0  0
 13 32  1  0  0  0  0
 13 14  1  0  0  0  0
 13 41  1  0  0  0  0
 14 15  1  0  0  0  0
 15 16  1  0  0  0  0
 15 26  1  0  0  0  0
 15 42  1  0  0  0  0
 16 17  1  0  0  0  0
 16 43  1  0  0  0  0
 16 44  1  0  0  0  0
 17 18  1  0  0  0  0
 18 19  2  0  0  0  0
 18 20  1  0  0  0  0
 20 25  1  0  0  0  0
 20 21  2  0  0  0  0
 21 22  1  0  0  0  0
 21 45  1  0  0  0  0
 22 23  2  0  0  0  0
 22 46  1  0  0  0  0
 23 24  1  0  0  0  0
 23 47  1  0  0  0  0
 24 25  2  0  0  0  0
 24 48  1  0  0  0  0
 25 49  1  0  0  0  0
 26 32  1  0  0  0  0
 26 27  1  0  0  0  0
 26 50  1  0  0  0  0
 27 28  1  0  0  0  0
 28 29  2  0  0  0  0
 28 30  2  0  0  0  0
 28 31  1  0  0  0  0
 31 32  1  0  0  0  0
 32 51  1  0  0  0  0
 33 38  1  0  0  0  0
 33 34  2  0  0  0  0
 34 35  1  0  0  0  0
 34 52  1  0  0  0  0
 35 36  2  0  0  0  0
 35 53  1  0  0  0  0
 36 37  1  0  0  0  0
 36 54  1  0  0  0  0
 37 38  2  0  0  0  0
 37 55  1  0  0  0  0
 38 56  1  0  0  0  0
M  CHG  1   3  -1
M  END
> <s_m_source_file>
AV-unprocessed.smi

> <i_m_source_file_index>
1

> <i_lp_mmshare_version>
43012

> <i_f3d_flags>
0

> <s_epik_input>
W2NIXTFbY0hdW2NIXVtjSF1bY0hdYzFDKD1PKVtOSF1jKG5bY0hdbjIpYyhjMjMpbltjSF1uM1tDQEBIXShbQ0BIXShbQ0BIXTQ1KU9TKE81KSg9Tyk9TylPW0NASF00W0NIMl1PQyg9TyljNltjSF1bY0hdW2NIXVtjSF1bY0hdNg==

> <s_epik_cmdline>
J2VwaWtfcHl0aG9uJywgJy1waCcsICc3LjAnLCAnLXRuJywgJzgnLCAnLW1hJywgJzIwMCcsICctbWV0YWxfYmluZGluZycsICctaW1hZScsICc8aW5maWxlLm1hZT4nLCAnLW9tYWUnLCAnPG91dGZpbGUubWFlPic=

> <r_lp_tautomer_probability>
1

> <r_epik_Ionization_Penalty>
4.39121

> <r_epik_Ionization_Penalty_Charging>
3.39398

> <r_epik_Ionization_Penalty_Neutral>
0.997232

> <r_epik_State_Penalty>
3.39839

> <r_epik_Charging_Adjusted_Penalty>
6.79237

> <i_epik_Tot_Q>
-1

> <i_epik_Tot_abs_Q>
1

> <r_epik_Metal_State_Penalty>
0.497663

> <b_epik_Metal_Only>
1

> <s_epik_Chemistry_Notes>
This compound has an ester and may undergo hydrolysis at high or low pH. This compound contains an acetal/aminal-like group ( X-CH(R)-Y where X, Y are N, S, or O) that may be acid/base labile, releasing an aldehyde.

> <s_lp_Force_Field>
OPLS_2005

> <r_lp_Energy>
44.7553

> <b_lp_Chiralities_Consistent>
1

> <s_lp_Variant>
AV-unprocessed.smi:1-24

> <Gold.Version>
5.8.1

> <Gold.Id.Protein>
6NUR|6NUR_protein|mol2

> <Gold.PLP.Fitness>
65.9605

> <Gold.PLP.PLP>
-51.2698

> <Gold.PLP.part.hbond>
-5.0000

> <Gold.PLP.part.metal>
0.0000

> <Gold.PLP.part.buried>
-6.4561

> <Gold.PLP.part.nonpolar>
-40.5110

> <Gold.PLP.part.repulsive>
0.2926

> <Gold.PLP.ligand.clash>
0.0000

> <Gold.PLP.ligand.torsion>
0.6815

> <Gold.PLP.Chemscore.Hbond>
3.9122

> <Gold.PLP.Chemscore.CHOScore>
1.2696

> <Gold.PLP.Chemscore.Metal>
0.0000

> <Gold.Chemscore.Hbonds>
donor molecule, donor type, donor heavy atom, donor atom, acceptor molecule, acceptor atom, score
      P1  H  6896  6908       L1    14  0.14
      P1  H  6934  6947       L1    30  0.32
      P1  H  7989  7998       L1     5  1.00
      P1  H  7997  8008       L1     1  0.49
      L1  C     6    39       P1  7948  0.02
      L1  C     6    39       P1  7949  0.04
      L1  C     6    39       P1  7957  0.83

> <Gold.PLP.Chemscore.Internal.Correction>
0.5082

> <Gold.Rescore>
     Score         DG    S(hbond)    S(metal)    S(lipo)     H(rot)  DE(clash)    DE(int)     intcor
     18.80     -24.03       3.37        0.00     108.63       2.11       0.04       5.19       ----

> <Gold.Chemscore.Fitness>
18.7964

> <Gold.Chemscore.DG>
-24.0324

> <Gold.Chemscore.ZeroCoef>
-5.4800

> <Gold.Chemscore.Hbond>
3.3693

> <Gold.Chemscore.Metal>
0.0000

> <Gold.Chemscore.Lipo>
108.6294

> <Gold.Chemscore.Internal_Hbond>
0.0000

> <Gold.Chemscore.DEClash>
0.0444

> <Gold.Chemscore.DEInternal>
5.1917

> <Gold.Chemscore.Rot>
2.1136

> <Gold.Chemscore.Internal.Correction>
   9.000000E+99

> <Gold.Chemscore.Hbonds>
donor molecule, donor type, donor heavy atom, donor atom, acceptor molecule, acceptor atom, score
      P1  H  6934  6947       L1    30  0.31
      P1  H  7989  7998       L1     5  0.94
      P1  H  7997  8008       L1     1  0.19

> <Gold.Chemscore.Hbond.Weighted>
-11.2535

> <Gold.Chemscore.Metal.Weighted>
-0.0000

> <Gold.Chemscore.Lipo.Weighted>
-12.7096

> <Gold.Chemscore.Internal_Hbond.Weighted>
0.0000

> <Gold.Chemscore.DEClash.Weighted>
0.0444

> <Gold.Chemscore.DEInternal.Weighted>
5.1917

> <Gold.Chemscore.Rot.Weighted>
5.4107

> <Gold.Chemscore.Internal.Correction.Weighted>
   9.000000E+99

> <Gold.Protein.RotatedTorsions>
[ 6907 6896 6895 6894 ] final  170.74 input  -60.11 | X-H torsion
[ 7974 7965 7964 7962 ] final -120.20 input  175.53 | X-H torsion
[ 8008 7997 7996 7995 ] final  -71.45 input   59.86 | X-H torsion
[ 10167 10162 10161 10158 ] final -100.93 input  -65.29 | X-H torsion
[ 10718 10713 10712 10709 ] final  -10.52 input   66.30 | X-H torsion
[ 10763 10752 10751 10750 ] final  -40.40 input  -60.55 | X-H torsion
[ 11005 11000 10999 10996 ] final -150.21 input  -57.11 | X-H torsion

> <Gold.Protein.ActiveResidues>
 VAL166  LYS551  ARG553  GLY616  TRP617  ASP618  TYR619  PRO620  LYS621  CYS622 
 ASP623  PHE694  ASN695  SER759  ASP760  ASP761  ALA762  ILE779  LEU786  VAL792 
 PHE793  MET794  SER795  GLU796  ALA797  LYS798  CYS799  TRP800  GLU811  SER814 

> <Gold.Protein.RotatedAtoms>
  151.8114  133.3382  159.3556 H   0  0  0  0  0  0  0  0  0  0  0  0  # atno 6907 bound_to 6896
  150.7325  134.5661  159.5876 H   0  0  0  0  0  0  0  0  0  0  0  0  # atno 6908 bound_to 6896
  152.3072  134.7542  160.0396 H   0  0  0  0  0  0  0  0  0  0  0  0  # atno 6909 bound_to 6896
  145.0540  140.8240  143.4192 H   0  0  0  0  0  0  0  0  0  0  0  0  # atno 7974 bound_to 7965
  154.5089  140.0815  156.7950 H   0  0  0  0  0  0  0  0  0  0  0  0  # atno 8008 bound_to 7997
  155.3831  140.3429  155.4229 H   0  0  0  0  0  0  0  0  0  0  0  0  # atno 8009 bound_to 7997
  156.1549  140.1570  156.8697 H   0  0  0  0  0  0  0  0  0  0  0  0  # atno 8010 bound_to 7997
  140.2467  143.3501  152.0753 H   0  0  0  0  0  0  0  0  0  0  0  0  # atno 10167 bound_to 10162
  156.6724  130.5013  149.5996 H   0  0  0  0  0  0  0  0  0  0  0  0  # atno 10718 bound_to 10713
  153.9454  135.6756  153.4744 H   0  0  0  0  0  0  0  0  0  0  0  0  # atno 10763 bound_to 10752
  153.0911  135.4874  154.8688 H   0  0  0  0  0  0  0  0  0  0  0  0  # atno 10764 bound_to 10752
  154.7354  135.3148  154.8778 H   0  0  0  0  0  0  0  0  0  0  0  0  # atno 10765 bound_to 10752
  140.7426  134.3497  157.5144 H   0  0  0  0  0  0  0  0  0  0  0  0  # atno 11005 bound_to 11000
  145.1491  139.2525  143.5450 LP  0  0  0  0  0  0  0  0  0  0  0  0  # atno 17320 bound_to 7965
  146.3520  140.1189  142.8601 LP  0  0  0  0  0  0  0  0  0  0  0  0  # atno 17321 bound_to 7965
  139.5059  144.6804  151.6022 LP  0  0  0  0  0  0  0  0  0  0  0  0  # atno 17342 bound_to 10162
  140.6072  143.9502  150.6427 LP  0  0  0  0  0  0  0  0  0  0  0  0  # atno 17343 bound_to 10162
  156.1929  130.6571  151.1081 LP  0  0  0  0  0  0  0  0  0  0  0  0  # atno 17370 bound_to 10713
  157.7073  131.0751  150.6624 LP  0  0  0  0  0  0  0  0  0  0  0  0  # atno 17371 bound_to 10713
  139.8803  134.9091  156.2982 LP  0  0  0  0  0  0  0  0  0  0  0  0  # atno 17394 bound_to 11000
  140.9823  133.7260  156.0690 LP  0  0  0  0  0  0  0  0  0  0  0  0  # atno 17395 bound_to 11000

$$$$
