AV-unprocessed.smi:1539|AV-procd|sdf|6196|dock10
  -GOLD-   22720 6363D 1   1.00000     0.00000
 Structure written by MMmdl.
 42 43  0  0  0  0  0  0  0  0  2 V2000
  148.6712  137.0167  157.3889 C   0  0  0  0  0  0  0  0  0  0  0  0
  148.5461  138.5133  157.0935 C   0  0  0  0  0  0  0  0  0  0  0  0
  148.2286  139.2627  158.0173 O   0  0  0  0  0  0  0  0  0  0  0  0
  148.7734  138.9623  155.8347 N   0  0  0  0  0  0  0  0  0  0  0  0
  149.1966  138.0536  154.7584 C   0  0  0  0  0  0  0  0  0  0  0  0
  150.7295  137.8718  154.7434 C   0  0  0  0  0  0  0  0  0  0  0  0
  151.5070  139.1958  154.5710 C   0  0  0  0  0  0  0  0  0  0  0  0
  151.2416  140.1298  155.6820 N   0  0  0  0  0  0  0  0  0  0  0  0
  151.8810  140.1160  156.8808 C   0  0  0  0  0  0  0  0  0  0  0  0
  152.7760  139.3177  157.1623 O   0  0  0  0  0  0  0  0  0  0  0  0
  151.4754  141.0626  157.7454 N   0  0  0  0  0  0  0  0  0  0  0  0
  152.0313  141.2747  159.0761 C   0  0  0  0  0  0  0  0  0  0  0  0
  152.7090  142.6498  159.1911 C   0  0  0  0  0  0  0  0  0  0  0  0
  151.7267  143.7260  159.3266 N   0  0  0  0  0  0  0  0  0  0  0  0
  151.5671  144.5722  160.3934 C   0  0  0  0  0  0  0  0  0  0  0  0
  150.5332  145.4137  160.0730 C   0  0  0  0  0  0  0  0  0  0  0  0
  150.1061  145.0456  158.8251 N   0  3  0  0  0  0  0  0  0  0  0  0
  150.8347  144.0197  158.3719 C   0  0  0  0  0  0  0  0  0  0  0  0
  150.1294  141.0597  155.4122 C   0  0  0  0  0  0  0  0  0  0  0  0
  148.7327  140.3811  155.4374 C   0  0  0  0  0  0  0  0  0  0  0  0
  148.0523  136.4297  156.7101 H   0  0  0  0  0  0  0  0  0  0  0  0
  148.3455  136.7979  158.4063 H   0  0  0  0  0  0  0  0  0  0  0  0
  149.7072  136.6915  157.2932 H   0  0  0  0  0  0  0  0  0  0  0  0
  148.7100  137.0823  154.8600 H   0  0  0  0  0  0  0  0  0  0  0  0
  148.8687  138.4320  153.7896 H   0  0  0  0  0  0  0  0  0  0  0  0
  151.0476  137.3701  155.6580 H   0  0  0  0  0  0  0  0  0  0  0  0
  150.9948  137.1980  153.9284 H   0  0  0  0  0  0  0  0  0  0  0  0
  152.5749  138.9961  154.4727 H   0  0  0  0  0  0  0  0  0  0  0  0
  151.2241  139.6523  153.6216 H   0  0  0  0  0  0  0  0  0  0  0  0
  150.7438  141.6918  157.4475 H   0  0  0  0  0  0  0  0  0  0  0  0
  151.2463  141.1690  159.8270 H   0  0  0  0  0  0  0  0  0  0  0  0
  152.7554  140.4834  159.2720 H   0  0  0  0  0  0  0  0  0  0  0  0
  153.3796  142.6832  160.0511 H   0  0  0  0  0  0  0  0  0  0  0  0
  153.3103  142.8646  158.3065 H   0  0  0  0  0  0  0  0  0  0  0  0
  152.1860  144.5138  161.2777 H   0  0  0  0  0  0  0  0  0  0  0  0
  150.0815  146.2254  160.6250 H   0  0  0  0  0  0  0  0  0  0  0  0
  150.7235  143.5268  157.4224 H   0  0  0  0  0  0  0  0  0  0  0  0
  150.1269  141.8950  156.1136 H   0  0  0  0  0  0  0  0  0  0  0  0
  150.2858  141.5310  154.4410 H   0  0  0  0  0  0  0  0  0  0  0  0
  148.2905  140.4551  154.4432 H   0  0  0  0  0  0  0  0  0  0  0  0
  148.0529  140.9609  156.0612 H   0  0  0  0  0  0  0  0  0  0  0  0
  149.3487  145.4847  158.3167 H   0  0  0  0  0  0  0  0  0  0  0  0
  1  2  1  0  0  0  0
  1 21  1  0  0  0  0
  1 22  1  0  0  0  0
  1 23  1  0  0  0  0
  2  3  2  0  0  0  0
  2  4  1  0  0  0  0
  4 20  1  0  0  0  0
  4  5  1  0  0  0  0
  5  6  1  0  0  0  0
  5 24  1  0  0  0  0
  5 25  1  0  0  0  0
  6  7  1  0  0  0  0
  6 26  1  0  0  0  0
  6 27  1  0  0  0  0
  7  8  1  0  0  0  0
  7 28  1  0  0  0  0
  7 29  1  0  0  0  0
  8  9  1  0  0  0  0
  8 19  1  0  0  0  0
  9 10  2  0  0  0  0
  9 11  1  0  0  0  0
 11 12  1  0  0  0  0
 11 30  1  0  0  0  0
 12 13  1  0  0  0  0
 12 31  1  0  0  0  0
 12 32  1  0  0  0  0
 13 14  1  0  0  0  0
 13 33  1  0  0  0  0
 13 34  1  0  0  0  0
 14 18  1  0  0  0  0
 14 15  1  0  0  0  0
 15 16  2  0  0  0  0
 15 35  1  0  0  0  0
 16 17  1  0  0  0  0
 16 36  1  0  0  0  0
 17 18  2  0  0  0  0
 17 42  1  0  0  0  0
 18 37  1  0  0  0  0
 19 20  1  0  0  0  0
 19 38  1  0  0  0  0
 19 39  1  0  0  0  0
 20 40  1  0  0  0  0
 20 41  1  0  0  0  0
M  CHG  1  17   1
M  END
> <s_m_source_file>
AV-unprocessed.smi

> <i_m_source_file_index>
1539

> <i_lp_mmshare_version>
43012

> <i_f3d_flags>
0

> <s_epik_input>
W0NIM11DKD1PKU4xW0NIMl1bQ0gyXVtDSDJdTihbQ0gyXVtDSDJdMSlDKD1PKVtOSF1bQ0gyXVtDSDJdbjJbY0hdW2NIXW5bY0hdMg==

> <s_epik_cmdline>
J2VwaWtfcHl0aG9uJywgJy1waCcsICc3LjAnLCAnLXRuJywgJzgnLCAnLW1hJywgJzIwMCcsICctbWV0YWxfYmluZGluZycsICctaW1hZScsICc8aW5maWxlLm1hZT4nLCAnLW9tYWUnLCAnPG91dGZpbGUubWFlPic=

> <r_lp_tautomer_probability>
1

> <r_epik_Ionization_Penalty>
0.254079

> <r_epik_Ionization_Penalty_Charging>
0

> <r_epik_Ionization_Penalty_Neutral>
0.254079

> <r_epik_State_Penalty>
0.245493

> <r_epik_Charging_Adjusted_Penalty>
0.245493

> <i_epik_Tot_Q>
1

> <i_epik_Tot_abs_Q>
1

> <r_epik_Metal_State_Penalty>
0.535648

> <b_epik_Metal_Only>
0

> <s_lp_Force_Field>
OPLS_2005

> <r_lp_Energy>
43.2206

> <b_lp_Chiralities_Consistent>
1

> <s_lp_Variant>
AV-unprocessed.smi:1539-1

> <Gold.Version>
5.8.1

> <Gold.Id.Protein>
6NUR|6NUR_protein|mol2

> <Gold.PLP.Fitness>
44.4865

> <Gold.PLP.PLP>
-37.4554

> <Gold.PLP.part.hbond>
-3.0000

> <Gold.PLP.part.metal>
0.0000

> <Gold.PLP.part.buried>
-2.6408

> <Gold.PLP.part.nonpolar>
-32.5334

> <Gold.PLP.part.repulsive>
0.2860

> <Gold.PLP.ligand.clash>
2.0273

> <Gold.PLP.ligand.torsion>
0.0912

> <Gold.PLP.Chemscore.Hbond>
3.0000

> <Gold.PLP.Chemscore.CHOScore>
0.0741

> <Gold.PLP.Chemscore.Metal>
0.0000

> <Gold.Chemscore.Hbonds>
donor molecule, donor type, donor heavy atom, donor atom, acceptor molecule, acceptor atom, score
      L1  H    17    42       P1  8029  2.00
      P1  H  7997  8008       L1    10  1.00
      L1  C    18    37       P1  8028  0.23

> <Gold.PLP.Chemscore.Internal.Correction>
0.0184

> <Gold.Rescore>
     Score         DG    S(hbond)    S(metal)    S(lipo)     H(rot)  DE(clash)    DE(int)     intcor
     15.66     -15.84       1.95        0.00      70.07       1.70       0.02       0.16       ----

> <Gold.Chemscore.Fitness>
15.6631

> <Gold.Chemscore.DG>
-15.8437

> <Gold.Chemscore.ZeroCoef>
-5.4800

> <Gold.Chemscore.Hbond>
1.9541

> <Gold.Chemscore.Metal>
0.0000

> <Gold.Chemscore.Lipo>
70.0705

> <Gold.Chemscore.Internal_Hbond>
0.0000

> <Gold.Chemscore.DEClash>
0.0208

> <Gold.Chemscore.DEInternal>
0.1598

> <Gold.Chemscore.Rot>
1.7036

> <Gold.Chemscore.Internal.Correction>
   9.000000E+99

> <Gold.Chemscore.Hbonds>
donor molecule, donor type, donor heavy atom, donor atom, acceptor molecule, acceptor atom, score
      L1  H    17    42       P1  8029  0.78
      P1  H  7997  8008       L1    10  0.82

> <Gold.Chemscore.Hbond.Weighted>
-6.5268

> <Gold.Chemscore.Metal.Weighted>
-0.0000

> <Gold.Chemscore.Lipo.Weighted>
-8.1982

> <Gold.Chemscore.Internal_Hbond.Weighted>
0.0000

> <Gold.Chemscore.DEClash.Weighted>
0.0208

> <Gold.Chemscore.DEInternal.Weighted>
0.1598

> <Gold.Chemscore.Rot.Weighted>
4.3613

> <Gold.Chemscore.Internal.Correction.Weighted>
   9.000000E+99

> <Gold.Protein.RotatedTorsions>
[ 6907 6896 6895 6894 ] final  121.36 input  -60.11 | X-H torsion
[ 7974 7965 7964 7962 ] final   40.76 input  175.53 | X-H torsion
[ 8008 7997 7996 7995 ] final  -76.93 input   59.86 | X-H torsion
[ 10167 10162 10161 10158 ] final  136.38 input  -65.29 | X-H torsion
[ 10718 10713 10712 10709 ] final  -36.00 input   66.30 | X-H torsion
[ 10763 10752 10751 10750 ] final   -6.66 input  -60.55 | X-H torsion
[ 11005 11000 10999 10996 ] final -144.55 input  -57.11 | X-H torsion

> <Gold.Protein.ActiveResidues>
 VAL166  LYS551  ARG553  GLY616  TRP617  ASP618  TYR619  PRO620  LYS621  CYS622 
 ASP623  PHE694  ASN695  SER759  ASP760  ASP761  ALA762  ILE779  LEU786  VAL792 
 PHE793  MET794  SER795  GLU796  ALA797  LYS798  CYS799  TRP800  GLU811  SER814 

> <Gold.Protein.RotatedAtoms>
  152.4327  133.7307  159.6585 H   0  0  0  0  0  0  0  0  0  0  0  0  # atno 6907 bound_to 6896
  150.8208  133.8245  159.3146 H   0  0  0  0  0  0  0  0  0  0  0  0  # atno 6908 bound_to 6896
  151.5928  135.1054  160.0094 H   0  0  0  0  0  0  0  0  0  0  0  0  # atno 6909 bound_to 6896
  146.0879  139.5495  142.9495 H   0  0  0  0  0  0  0  0  0  0  0  0  # atno 7974 bound_to 7965
  154.5550  140.0719  156.8728 H   0  0  0  0  0  0  0  0  0  0  0  0  # atno 8008 bound_to 7997
  155.2920  140.3378  155.4234 H   0  0  0  0  0  0  0  0  0  0  0  0  # atno 8009 bound_to 7997
  156.1994  140.1716  156.7917 H   0  0  0  0  0  0  0  0  0  0  0  0  # atno 8010 bound_to 7997
  139.5182  144.6467  151.5418 H   0  0  0  0  0  0  0  0  0  0  0  0  # atno 10167 bound_to 10162
  156.3320  130.4280  149.7864 H   0  0  0  0  0  0  0  0  0  0  0  0  # atno 10718 bound_to 10713
  153.4154  135.7008  153.6330 H   0  0  0  0  0  0  0  0  0  0  0  0  # atno 10763 bound_to 10752
  153.4807  135.3694  155.2441 H   0  0  0  0  0  0  0  0  0  0  0  0  # atno 10764 bound_to 10752
  154.8719  135.4065  154.3513 H   0  0  0  0  0  0  0  0  0  0  0  0  # atno 10765 bound_to 10752
  140.8013  134.2853  157.4977 H   0  0  0  0  0  0  0  0  0  0  0  0  # atno 11005 bound_to 11000
  145.6096  141.0342  143.1974 LP  0  0  0  0  0  0  0  0  0  0  0  0  # atno 17320 bound_to 7965
  144.7338  139.7645  143.7337 LP  0  0  0  0  0  0  0  0  0  0  0  0  # atno 17321 bound_to 7965
  140.6255  143.9176  150.6561 LP  0  0  0  0  0  0  0  0  0  0  0  0  # atno 17342 bound_to 10162
  140.2463  143.3626  152.1443 LP  0  0  0  0  0  0  0  0  0  0  0  0  # atno 17343 bound_to 10162
  156.5133  130.8182  151.3177 LP  0  0  0  0  0  0  0  0  0  0  0  0  # atno 17370 bound_to 10713
  157.7432  130.9907  150.2574 LP  0  0  0  0  0  0  0  0  0  0  0  0  # atno 17371 bound_to 10713
  139.8721  134.9431  156.3843 LP  0  0  0  0  0  0  0  0  0  0  0  0  # atno 17394 bound_to 11000
  140.9292  133.7591  156.0003 LP  0  0  0  0  0  0  0  0  0  0  0  0  # atno 17395 bound_to 11000

$$$$
