AV-unprocessed.smi:2278|AV-procd|sdf|9180|dock4
  -GOLD-   2272012393D 1   1.00000     0.00000
 Structure written by MMmdl.
 46 47  0  0  0  0  0  0  0  0  2 V2000
  151.8839  144.2790  160.2187 C   0  0  0  0  0  0  0  0  0  0  0  0
  151.8521  143.1614  159.1914 C   0  0  0  0  0  0  0  0  0  0  0  0
  151.1447  143.4393  158.0181 N   0  0  0  0  0  0  0  0  0  0  0  0
  151.0616  142.5458  157.0877 C   0  0  0  0  0  0  0  0  0  0  0  0
  151.6676  141.2859  157.2195 N   0  0  0  0  0  0  0  0  0  0  0  0
  151.4926  140.3543  156.0924 C   0  0  0  0  0  0  0  0  0  0  0  0
  150.2786  140.7260  155.2107 C   0  0  1  0  0  0  0  0  0  0  0  0
  150.2417  139.8427  154.1068 O   0  0  0  0  0  0  0  0  0  0  0  0
  148.9507  140.5583  155.9773 C   0  0  0  0  0  0  0  0  0  0  0  0
  147.9396  141.5772  155.5946 N   0  3  2  0  0  0  0  0  0  0  0  0
  146.7169  141.5369  156.4405 C   0  0  0  0  0  0  0  0  0  0  0  0
  145.7626  142.6910  156.0914 C   0  0  0  0  0  0  0  0  0  0  0  0
  145.3811  142.6684  154.6020 C   0  0  1  0  0  0  0  0  0  0  0  0
  144.4499  143.8327  154.2359 C   0  0  0  0  0  0  0  0  0  0  0  0
  146.6625  142.6731  153.7518 C   0  0  0  0  0  0  0  0  0  0  0  0
  147.6021  141.5218  154.1490 C   0  0  0  0  0  0  0  0  0  0  0  0
  152.3742  140.9315  158.3321 C   0  0  0  0  0  0  0  0  0  0  0  0
  152.8917  139.8177  158.4395 O   0  0  0  0  0  0  0  0  0  0  0  0
  152.4614  141.9591  159.3817 C   0  0  0  0  0  0  0  0  0  0  0  0
  153.2421  141.5985  160.6394 C   0  0  0  0  0  0  0  0  0  0  0  0
  152.9116  144.5730  160.4338 H   0  0  0  0  0  0  0  0  0  0  0  0
  151.4116  143.9564  161.1471 H   0  0  0  0  0  0  0  0  0  0  0  0
  151.3522  145.1622  159.8618 H   0  0  0  0  0  0  0  0  0  0  0  0
  150.5186  142.7122  156.1557 H   0  0  0  0  0  0  0  0  0  0  0  0
  152.3957  140.2599  155.4850 H   0  0  0  0  0  0  0  0  0  0  0  0
  151.3485  139.3550  156.5072 H   0  0  0  0  0  0  0  0  0  0  0  0
  150.3773  141.7473  154.8451 H   0  0  0  0  0  0  0  0  0  0  0  0
  150.3383  140.3463  153.3123 H   0  0  0  0  0  0  0  0  0  0  0  0
  148.5638  139.5557  155.7859 H   0  0  0  0  0  0  0  0  0  0  0  0
  149.1179  140.6156  157.0542 H   0  0  0  0  0  0  0  0  0  0  0  0
  146.2105  140.5800  156.3040 H   0  0  0  0  0  0  0  0  0  0  0  0
  146.9787  141.6041  157.4958 H   0  0  0  0  0  0  0  0  0  0  0  0
  144.8654  142.6226  156.7078 H   0  0  0  0  0  0  0  0  0  0  0  0
  146.2358  143.6423  156.3396 H   0  0  0  0  0  0  0  0  0  0  0  0
  144.8440  141.7396  154.4028 H   0  0  0  0  0  0  0  0  0  0  0  0
  144.9299  144.7961  154.4112 H   0  0  0  0  0  0  0  0  0  0  0  0
  143.5349  143.8039  154.8285 H   0  0  0  0  0  0  0  0  0  0  0  0
  144.1622  143.7900  153.1852 H   0  0  0  0  0  0  0  0  0  0  0  0
  146.4097  142.5906  152.6942 H   0  0  0  0  0  0  0  0  0  0  0  0
  147.1830  143.6246  153.8711 H   0  0  0  0  0  0  0  0  0  0  0  0
  148.5145  141.5870  153.5547 H   0  0  0  0  0  0  0  0  0  0  0  0
  147.1405  140.5602  153.9182 H   0  0  0  0  0  0  0  0  0  0  0  0
  152.8015  140.7233  161.1177 H   0  0  0  0  0  0  0  0  0  0  0  0
  153.2616  142.3988  161.3777 H   0  0  0  0  0  0  0  0  0  0  0  0
  154.2758  141.3617  160.3849 H   0  0  0  0  0  0  0  0  0  0  0  0
  148.3771  142.4753  155.7453 H   0  0  0  0  0  0  0  0  0  0  0  0
  1  2  1  0  0  0  0
  1 21  1  0  0  0  0
  1 22  1  0  0  0  0
  1 23  1  0  0  0  0
  2 19  2  0  0  0  0
  2  3  1  0  0  0  0
  3  4  2  0  0  0  0
  4  5  1  0  0  0  0
  4 24  1  0  0  0  0
  5  6  1  0  0  0  0
  5 17  1  0  0  0  0
  6  7  1  0  0  0  0
  6 25  1  0  0  0  0
  6 26  1  0  0  0  0
  7  8  1  0  0  0  0
  7  9  1  0  0  0  0
  7 27  1  0  0  0  0
  8 28  1  0  0  0  0
  9 10  1  0  0  0  0
  9 29  1  0  0  0  0
  9 30  1  0  0  0  0
 10 16  1  0  0  0  0
 10 11  1  0  0  0  0
 10 46  1  0  0  0  0
 11 12  1  0  0  0  0
 11 31  1  0  0  0  0
 11 32  1  0  0  0  0
 12 13  1  0  0  0  0
 12 33  1  0  0  0  0
 12 34  1  0  0  0  0
 13 14  1  0  0  0  0
 13 15  1  0  0  0  0
 13 35  1  0  0  0  0
 14 36  1  0  0  0  0
 14 37  1  0  0  0  0
 14 38  1  0  0  0  0
 15 16  1  0  0  0  0
 15 39  1  0  0  0  0
 15 40  1  0  0  0  0
 16 41  1  0  0  0  0
 16 42  1  0  0  0  0
 17 18  2  0  0  0  0
 17 19  1  0  0  0  0
 19 20  1  0  0  0  0
 20 43  1  0  0  0  0
 20 44  1  0  0  0  0
 20 45  1  0  0  0  0
M  CHG  1  10   1
M  END
> <s_m_source_file>
AV-unprocessed.smi

> <i_m_source_file_index>
2278

> <i_lp_mmshare_version>
43012

> <i_f3d_flags>
0

> <s_epik_input>
W0NIM11jMW5bY0hdbihjKD1PKWMxW0NIM10pW0NIMl1bQ0BIXShbT0hdKVtDSDJdTjJbQ0gyXVtDSDJdW0NIXShbQ0gzXSlbQ0gyXVtDSDJdMg==

> <s_epik_cmdline>
J2VwaWtfcHl0aG9uJywgJy1waCcsICc3LjAnLCAnLXRuJywgJzgnLCAnLW1hJywgJzIwMCcsICctbWV0YWxfYmluZGluZycsICctaW1hZScsICc8aW5maWxlLm1hZT4nLCAnLW9tYWUnLCAnPG91dGZpbGUubWFlPic=

> <r_lp_tautomer_probability>
1

> <r_epik_Ionization_Penalty>
0.00139489

> <r_epik_Ionization_Penalty_Charging>
0.00136819

> <r_epik_Ionization_Penalty_Neutral>
2.66975e-05

> <r_epik_State_Penalty>
0.000910892

> <r_epik_Charging_Adjusted_Penalty>
0.00227908

> <i_epik_Tot_Q>
1

> <i_epik_Tot_abs_Q>
1

> <r_epik_Metal_State_Penalty>
-0

> <b_epik_Metal_Only>
0

> <s_lp_Force_Field>
OPLS_2005

> <r_lp_Energy>
29.3235

> <b_lp_Chiralities_Consistent>
1

> <s_lp_Variant>
AV-unprocessed.smi:2278-2

> <Gold.Version>
5.8.1

> <Gold.Id.Protein>
6NUR|6NUR_protein|mol2

> <Gold.PLP.Fitness>
54.1478

> <Gold.PLP.PLP>
-43.0432

> <Gold.PLP.part.hbond>
-4.0000

> <Gold.PLP.part.metal>
0.0000

> <Gold.PLP.part.buried>
-4.3060

> <Gold.PLP.part.nonpolar>
-33.4859

> <Gold.PLP.part.repulsive>
0.1943

> <Gold.PLP.ligand.clash>
0.7593

> <Gold.PLP.ligand.torsion>
0.8036

> <Gold.PLP.Chemscore.Hbond>
3.5262

> <Gold.PLP.Chemscore.CHOScore>
0.9390

> <Gold.PLP.Chemscore.Metal>
0.0000

> <Gold.Chemscore.Hbonds>
donor molecule, donor type, donor heavy atom, donor atom, acceptor molecule, acceptor atom, score
      L1  H     8    28       P1  7957  0.25
      L1  H    10    46       P1  8028  0.68
      P1  H  7997  8009       L1    18  0.49
      L1  C     4    24       P1  8028  0.68

> <Gold.PLP.Chemscore.Internal.Correction>
0.0755

> <Gold.Rescore>
     Score         DG    S(hbond)    S(metal)    S(lipo)     H(rot)  DE(clash)    DE(int)     intcor
     15.63     -17.78       2.36        0.00      85.96       2.20       0.14       2.00       ----

> <Gold.Chemscore.Fitness>
15.6329

> <Gold.Chemscore.DG>
-17.7819

> <Gold.Chemscore.ZeroCoef>
-5.4800

> <Gold.Chemscore.Hbond>
2.3571

> <Gold.Chemscore.Metal>
0.0000

> <Gold.Chemscore.Lipo>
85.9631

> <Gold.Chemscore.Internal_Hbond>
0.0000

> <Gold.Chemscore.DEClash>
0.1447

> <Gold.Chemscore.DEInternal>
2.0043

> <Gold.Chemscore.Rot>
2.1986

> <Gold.Chemscore.Internal.Correction>
   9.000000E+99

> <Gold.Chemscore.Hbonds>
donor molecule, donor type, donor heavy atom, donor atom, acceptor molecule, acceptor atom, score
      L1  H     8    28       P1  7957  0.25
      L1  H    10    46       P1  8028  0.35
      P1  H  7997  8009       L1    18  0.11

> <Gold.Chemscore.Hbond.Weighted>
-7.8727

> <Gold.Chemscore.Metal.Weighted>
-0.0000

> <Gold.Chemscore.Lipo.Weighted>
-10.0577

> <Gold.Chemscore.Internal_Hbond.Weighted>
0.0000

> <Gold.Chemscore.DEClash.Weighted>
0.1447

> <Gold.Chemscore.DEInternal.Weighted>
2.0043

> <Gold.Chemscore.Rot.Weighted>
5.6285

> <Gold.Chemscore.Internal.Correction.Weighted>
   9.000000E+99

> <Gold.Protein.RotatedTorsions>
[ 6907 6896 6895 6894 ] final   25.53 input  -60.11 | X-H torsion
[ 7974 7965 7964 7962 ] final -177.46 input  175.53 | X-H torsion
[ 8008 7997 7996 7995 ] final  162.27 input   59.86 | X-H torsion
[ 10167 10162 10161 10158 ] final  -98.87 input  -65.29 | X-H torsion
[ 10718 10713 10712 10709 ] final -137.87 input   66.30 | X-H torsion
[ 10763 10752 10751 10750 ] final  178.85 input  -60.55 | X-H torsion
[ 11005 11000 10999 10996 ] final  -18.49 input  -57.11 | X-H torsion

> <Gold.Protein.ActiveResidues>
 VAL166  LYS551  ARG553  GLY616  TRP617  ASP618  TYR619  PRO620  LYS621  CYS622 
 ASP623  PHE694  ASN695  SER759  ASP760  ASP761  ALA762  ILE779  LEU786  VAL792 
 PHE793  MET794  SER795  GLU796  ALA797  LYS798  CYS799  TRP800  GLU811  SER814 

> <Gold.Protein.RotatedAtoms>
  151.9739  135.0063  160.0553 H   0  0  0  0  0  0  0  0  0  0  0  0  # atno 6907 bound_to 6896
  152.1758  133.4669  159.4940 H   0  0  0  0  0  0  0  0  0  0  0  0  # atno 6908 bound_to 6896
  150.6909  134.1814  159.4293 H   0  0  0  0  0  0  0  0  0  0  0  0  # atno 6909 bound_to 6896
  144.7128  140.1016  143.6416 H   0  0  0  0  0  0  0  0  0  0  0  0  # atno 7974 bound_to 7965
  156.2043  140.1755  156.7833 H   0  0  0  0  0  0  0  0  0  0  0  0  # atno 8008 bound_to 7997
  154.5634  140.0695  156.8884 H   0  0  0  0  0  0  0  0  0  0  0  0  # atno 8009 bound_to 7997
  155.2806  140.3349  155.4261 H   0  0  0  0  0  0  0  0  0  0  0  0  # atno 8010 bound_to 7997
  140.2685  143.3360  152.0558 H   0  0  0  0  0  0  0  0  0  0  0  0  # atno 10167 bound_to 10162
  156.2929  130.7385  151.1416 H   0  0  0  0  0  0  0  0  0  0  0  0  # atno 10718 bound_to 10713
  154.5130  135.2789  155.1326 H   0  0  0  0  0  0  0  0  0  0  0  0  # atno 10763 bound_to 10752
  154.2914  135.6266  153.5390 H   0  0  0  0  0  0  0  0  0  0  0  0  # atno 10764 bound_to 10752
  152.9922  135.5675  154.5600 H   0  0  0  0  0  0  0  0  0  0  0  0  # atno 10765 bound_to 10752
  140.8273  133.8023  155.9721 H   0  0  0  0  0  0  0  0  0  0  0  0  # atno 11005 bound_to 11000
  145.9532  139.2748  143.1199 LP  0  0  0  0  0  0  0  0  0  0  0  0  # atno 17320 bound_to 7965
  145.9300  140.9055  143.0361 LP  0  0  0  0  0  0  0  0  0  0  0  0  # atno 17321 bound_to 7965
  139.4996  144.6672  151.6328 LP  0  0  0  0  0  0  0  0  0  0  0  0  # atno 17342 bound_to 10162
  140.5909  143.9781  150.6324 LP  0  0  0  0  0  0  0  0  0  0  0  0  # atno 17343 bound_to 10162
  157.7347  131.0579  150.5508 LP  0  0  0  0  0  0  0  0  0  0  0  0  # atno 17370 bound_to 10713
  156.5626  130.4259  149.6056 LP  0  0  0  0  0  0  0  0  0  0  0  0  # atno 17371 bound_to 10713
  140.9036  134.2348  157.5027 LP  0  0  0  0  0  0  0  0  0  0  0  0  # atno 17394 bound_to 11000
  139.8706  134.9718  156.4749 LP  0  0  0  0  0  0  0  0  0  0  0  0  # atno 17395 bound_to 11000

$$$$
