AV-unprocessed.smi:1376|AV-procd|sdf|5592|dock5
  -GOLD-   22720 5193D 1   1.00000     0.00000
 Structure written by MMmdl.
 42 43  0  0  0  0  0  0  0  0  1 V2000
  150.5941  140.6371  157.9804 O   0  0  0  0  0  0  0  0  0  0  0  0
  150.6751  141.7771  157.5206 C   0  0  0  0  0  0  0  0  0  0  0  0
  151.7636  142.7472  158.0021 C   0  0  0  0  0  0  0  0  0  0  0  0
  152.4714  142.2796  159.2056 N   0  0  0  0  0  0  0  0  0  0  0  0
  152.4377  143.1211  160.3354 C   0  0  0  0  0  0  0  0  0  0  0  0
  153.0545  142.7950  161.4820 C   0  0  0  0  0  0  0  0  0  0  0  0
  153.7676  141.5411  161.5408 C   0  0  0  0  0  0  0  0  0  0  0  0
  153.8100  140.7309  160.4644 C   0  0  0  0  0  0  0  0  0  0  0  0
  153.1404  141.0855  159.2074 C   0  0  0  0  0  0  0  0  0  0  0  0
  153.1792  140.3542  158.2175 O   0  0  0  0  0  0  0  0  0  0  0  0
  149.8514  142.2451  156.5705 N   0  0  0  0  0  0  0  0  0  0  0  0
  148.7559  141.4961  155.9623 C   0  0  2  0  0  0  0  0  0  0  0  0
  149.0513  141.2136  154.4756 C   0  0  0  0  0  0  0  0  0  0  0  0
  147.8770  140.4878  153.8014 C   0  0  0  0  0  0  0  0  0  0  0  0
  146.5670  141.2728  153.9693 C   0  0  0  0  0  0  0  0  0  0  0  0
  146.2604  141.5426  155.4523 C   0  0  2  0  0  0  0  0  0  0  0  0
  145.0716  142.3207  155.5033 O   0  0  0  0  0  0  0  0  0  0  0  0
  145.0864  143.4814  154.6830 C   0  0  0  0  0  0  0  0  0  0  0  0
  144.0501  144.4838  155.2052 C   0  0  0  0  0  0  0  0  0  0  0  0
  144.4213  144.9118  156.4114 F   0  0  0  0  0  0  0  0  0  0  0  0
  143.9682  145.5319  154.3860 F   0  0  0  0  0  0  0  0  0  0  0  0
  142.8561  143.9006  155.3071 F   0  0  0  0  0  0  0  0  0  0  0  0
  147.4396  142.2799  156.1211 C   0  0  0  0  0  0  0  0  0  0  0  0
  152.4679  142.9010  157.1833 H   0  0  0  0  0  0  0  0  0  0  0  0
  151.3191  143.7278  158.1828 H   0  0  0  0  0  0  0  0  0  0  0  0
  151.8903  144.0435  160.2060 H   0  0  0  0  0  0  0  0  0  0  0  0
  153.0226  143.4557  162.3360 H   0  0  0  0  0  0  0  0  0  0  0  0
  154.2709  141.2522  162.4516 H   0  0  0  0  0  0  0  0  0  0  0  0
  154.3495  139.7970  160.5264 H   0  0  0  0  0  0  0  0  0  0  0  0
  149.9932  143.1902  156.2445 H   0  0  0  0  0  0  0  0  0  0  0  0
  148.6428  140.5444  156.4853 H   0  0  0  0  0  0  0  0  0  0  0  0
  149.2457  142.1510  153.9525 H   0  0  0  0  0  0  0  0  0  0  0  0
  149.9561  140.6123  154.3778 H   0  0  0  0  0  0  0  0  0  0  0  0
  148.0895  140.3419  152.7422 H   0  0  0  0  0  0  0  0  0  0  0  0
  147.7650  139.4929  154.2344 H   0  0  0  0  0  0  0  0  0  0  0  0
  146.6380  142.2185  153.4303 H   0  0  0  0  0  0  0  0  0  0  0  0
  145.7447  140.7195  153.5144 H   0  0  0  0  0  0  0  0  0  0  0  0
  146.0967  140.5831  155.9466 H   0  0  0  0  0  0  0  0  0  0  0  0
  146.0773  143.9381  154.6961 H   0  0  0  0  0  0  0  0  0  0  0  0
  144.8585  143.2258  153.6481 H   0  0  0  0  0  0  0  0  0  0  0  0
  147.2409  142.4333  157.1816 H   0  0  0  0  0  0  0  0  0  0  0  0
  147.5439  143.2719  155.6788 H   0  0  0  0  0  0  0  0  0  0  0  0
  1  2  2  0  0  0  0
  2  3  1  0  0  0  0
  2 11  1  0  0  0  0
  3  4  1  0  0  0  0
  3 24  1  0  0  0  0
  3 25  1  0  0  0  0
  4  9  1  0  0  0  0
  4  5  1  0  0  0  0
  5  6  2  0  0  0  0
  5 26  1  0  0  0  0
  6  7  1  0  0  0  0
  6 27  1  0  0  0  0
  7  8  2  0  0  0  0
  7 28  1  0  0  0  0
  8  9  1  0  0  0  0
  8 29  1  0  0  0  0
  9 10  2  0  0  0  0
 11 12  1  0  0  0  0
 11 30  1  0  0  0  0
 12 23  1  0  0  0  0
 12 13  1  0  0  0  0
 12 31  1  0  0  0  0
 13 14  1  0  0  0  0
 13 32  1  0  0  0  0
 13 33  1  0  0  0  0
 14 15  1  0  0  0  0
 14 34  1  0  0  0  0
 14 35  1  0  0  0  0
 15 16  1  0  0  0  0
 15 36  1  0  0  0  0
 15 37  1  0  0  0  0
 16 17  1  0  0  0  0
 16 23  1  0  0  0  0
 16 38  1  0  0  0  0
 17 18  1  0  0  0  0
 18 19  1  0  0  0  0
 18 39  1  0  0  0  0
 18 40  1  0  0  0  0
 19 20  1  0  0  0  0
 19 21  1  0  0  0  0
 19 22  1  0  0  0  0
 23 41  1  0  0  0  0
 23 42  1  0  0  0  0
M  END
> <s_m_source_file>
AV-unprocessed.smi

> <i_m_source_file_index>
1376

> <i_lp_mmshare_version>
43012

> <i_f3d_flags>
0

> <s_epik_input>
Tz1jMVtjSF1bY0hdW2NIXVtjSF1uMVtDSDJdQyg9TylbTkhdW0NAQEhdMltDSDJdW0NIMl1bQ0gyXVtDQEhdKFtDSDJdMilPW0NIMl1DKEYpKEYpRg==

> <s_epik_cmdline>
J2VwaWtfcHl0aG9uJywgJy1waCcsICc3LjAnLCAnLXRuJywgJzgnLCAnLW1hJywgJzIwMCcsICctbWV0YWxfYmluZGluZycsICctaW1hZScsICc8aW5maWxlLm1hZT4nLCAnLW9tYWUnLCAnPG91dGZpbGUubWFlPic=

> <r_lp_tautomer_probability>
1

> <r_epik_Ionization_Penalty>
4.08567e-07

> <r_epik_Ionization_Penalty_Charging>
3.90028e-07

> <r_epik_Ionization_Penalty_Neutral>
1.85393e-08

> <r_epik_State_Penalty>
-0

> <r_epik_Charging_Adjusted_Penalty>
3.90028e-07

> <i_epik_Tot_Q>
0

> <i_epik_Tot_abs_Q>
0

> <r_epik_Metal_State_Penalty>
-0

> <b_epik_Metal_Only>
0

> <s_lp_Force_Field>
OPLS_2005

> <r_lp_Energy>
18.479

> <b_lp_Chiralities_Consistent>
1

> <s_lp_Variant>
AV-unprocessed.smi:1376-3

> <Gold.Version>
5.8.1

> <Gold.Id.Protein>
6NUR|6NUR_protein|mol2

> <Gold.PLP.Fitness>
47.8190

> <Gold.PLP.PLP>
-43.5244

> <Gold.PLP.part.hbond>
-2.0000

> <Gold.PLP.part.metal>
0.0000

> <Gold.PLP.part.buried>
-2.5126

> <Gold.PLP.part.nonpolar>
-39.4911

> <Gold.PLP.part.repulsive>
0.1937

> <Gold.PLP.ligand.clash>
0.0000

> <Gold.PLP.ligand.torsion>
0.3245

> <Gold.PLP.Chemscore.Hbond>
1.6320

> <Gold.PLP.Chemscore.CHOScore>
0.0000

> <Gold.PLP.Chemscore.Metal>
0.0000

> <Gold.Chemscore.Hbonds>
donor molecule, donor type, donor heavy atom, donor atom, acceptor molecule, acceptor atom, score
      L1  H    11    30       P1  8028  0.77
      P1  H  7997  8010       L1    10  0.86

> <Gold.PLP.Chemscore.Internal.Correction>
0.0476

> <Gold.Rescore>
     Score         DG    S(hbond)    S(metal)    S(lipo)     H(rot)  DE(clash)    DE(int)     intcor
     12.09     -16.09       1.60        0.00      92.73       2.18       0.37       3.63       ----

> <Gold.Chemscore.Fitness>
12.0886

> <Gold.Chemscore.DG>
-16.0938

> <Gold.Chemscore.ZeroCoef>
-5.4800

> <Gold.Chemscore.Hbond>
1.6002

> <Gold.Chemscore.Metal>
0.0000

> <Gold.Chemscore.Lipo>
92.7306

> <Gold.Chemscore.Internal_Hbond>
0.0000

> <Gold.Chemscore.DEClash>
0.3743

> <Gold.Chemscore.DEInternal>
3.6310

> <Gold.Chemscore.Rot>
2.1797

> <Gold.Chemscore.Internal.Correction>
   9.000000E+99

> <Gold.Chemscore.Hbonds>
donor molecule, donor type, donor heavy atom, donor atom, acceptor molecule, acceptor atom, score
      L1  H    11    30       P1  8028  0.74
      P1  H  7997  8010       L1    10  0.86

> <Gold.Chemscore.Hbond.Weighted>
-5.3445

> <Gold.Chemscore.Metal.Weighted>
-0.0000

> <Gold.Chemscore.Lipo.Weighted>
-10.8495

> <Gold.Chemscore.Internal_Hbond.Weighted>
0.0000

> <Gold.Chemscore.DEClash.Weighted>
0.3743

> <Gold.Chemscore.DEInternal.Weighted>
3.6310

> <Gold.Chemscore.Rot.Weighted>
5.5802

> <Gold.Chemscore.Internal.Correction.Weighted>
   9.000000E+99

> <Gold.Protein.RotatedTorsions>
[ 6907 6896 6895 6894 ] final  -96.68 input  -60.11 | X-H torsion
[ 7974 7965 7964 7962 ] final -158.27 input  175.53 | X-H torsion
[ 8008 7997 7996 7995 ] final   35.50 input   59.86 | X-H torsion
[ 10167 10162 10161 10158 ] final -114.54 input  -65.29 | X-H torsion
[ 10718 10713 10712 10709 ] final   49.47 input   66.30 | X-H torsion
[ 10763 10752 10751 10750 ] final   66.46 input  -60.55 | X-H torsion
[ 11005 11000 10999 10996 ] final -119.91 input  -57.11 | X-H torsion

> <Gold.Protein.ActiveResidues>
 VAL166  LYS551  ARG553  GLY616  TRP617  ASP618  TYR619  PRO620  LYS621  CYS622 
 ASP623  PHE694  ASN695  SER759  ASP760  ASP761  ALA762  ILE779  LEU786  VAL792 
 PHE793  MET794  SER795  GLU796  ALA797  LYS798  CYS799  TRP800  GLU811  SER814 

> <Gold.Protein.RotatedAtoms>
  150.6995  134.1466  159.4124 H   0  0  0  0  0  0  0  0  0  0  0  0  # atno 6907 bound_to 6896
  151.9450  135.0193  160.0547 H   0  0  0  0  0  0  0  0  0  0  0  0  # atno 6908 bound_to 6896
  152.2061  133.4841  159.5121 H   0  0  0  0  0  0  0  0  0  0  0  0  # atno 6909 bound_to 6896
  144.7513  140.3852  143.6046 H   0  0  0  0  0  0  0  0  0  0  0  0  # atno 7974 bound_to 7965
  155.1720  140.3292  155.4391 H   0  0  0  0  0  0  0  0  0  0  0  0  # atno 8008 bound_to 7997
  156.2506  140.1942  156.6773 H   0  0  0  0  0  0  0  0  0  0  0  0  # atno 8009 bound_to 7997
  154.6331  140.0580  156.9742 H   0  0  0  0  0  0  0  0  0  0  0  0  # atno 8010 bound_to 7997
  140.0999  143.4622  152.1818 H   0  0  0  0  0  0  0  0  0  0  0  0  # atno 10167 bound_to 10162
  157.4790  130.8303  149.8071 H   0  0  0  0  0  0  0  0  0  0  0  0  # atno 10718 bound_to 10713
  153.0141  135.5320  154.6827 H   0  0  0  0  0  0  0  0  0  0  0  0  # atno 10763 bound_to 10752
  154.5982  135.2865  155.0565 H   0  0  0  0  0  0  0  0  0  0  0  0  # atno 10764 bound_to 10752
  154.1632  135.6544  153.5043 H   0  0  0  0  0  0  0  0  0  0  0  0  # atno 10765 bound_to 10752
  141.0181  134.0164  157.3321 H   0  0  0  0  0  0  0  0  0  0  0  0  # atno 11005 bound_to 11000
  145.6935  139.1644  143.2633 LP  0  0  0  0  0  0  0  0  0  0  0  0  # atno 17320 bound_to 7965
  146.1466  140.6984  142.9342 LP  0  0  0  0  0  0  0  0  0  0  0  0  # atno 17321 bound_to 7965
  139.5677  144.7445  151.3976 LP  0  0  0  0  0  0  0  0  0  0  0  0  # atno 17342 bound_to 10162
  140.6983  143.7694  150.7362 LP  0  0  0  0  0  0  0  0  0  0  0  0  # atno 17343 bound_to 10162
  156.0111  130.3833  150.2261 LP  0  0  0  0  0  0  0  0  0  0  0  0  # atno 17370 bound_to 10713
  157.0446  131.0045  151.3273 LP  0  0  0  0  0  0  0  0  0  0  0  0  # atno 17371 bound_to 10713
  139.9129  135.0193  156.7766 LP  0  0  0  0  0  0  0  0  0  0  0  0  # atno 17394 bound_to 11000
  140.6619  133.9637  155.7809 LP  0  0  0  0  0  0  0  0  0  0  0  0  # atno 17395 bound_to 11000

$$$$
