AV-unprocessed.smi:1027|AV-procd|sdf|4472|dock9
  -GOLD-   22720 2443D 1   1.00000     0.00000
 Structure written by MMmdl.
 34 35  0  0  0  0  0  0  0  0  2 V2000
  151.8155  144.3101  160.8107 C   0  0  0  0  0  0  0  0  0  0  0  0
  152.6964  144.0020  159.5839 C   0  0  0  0  0  0  0  0  0  0  0  0
  151.9732  144.4647  158.3060 C   0  0  0  0  0  0  0  0  0  0  0  0
  153.1134  142.5084  159.5212 C   0  0  1  0  0  0  0  0  0  0  0  0
  153.6949  141.9822  160.8473 C   0  0  0  0  0  0  0  0  0  0  0  0
  151.9651  141.6812  159.1480 N   0  0  0  0  0  0  0  0  0  0  0  0
  152.0068  140.4816  158.5495 C   0  0  0  0  0  0  0  0  0  0  0  0
  153.0926  139.9669  158.2726 O   0  0  0  0  0  0  0  0  0  0  0  0
  150.7856  139.9526  158.3081 N   0  5  0  0  0  0  0  0  0  0  0  0
  150.1188  140.2861  157.1908 C   0  0  0  0  0  0  0  0  0  0  0  0
  150.5947  140.0261  155.9650 N   0  0  0  0  0  0  0  0  0  0  0  0
  149.7489  140.4518  154.9511 N   0  0  0  0  0  0  0  0  0  0  0  0
  148.6393  141.0220  155.4269 C   0  0  0  0  0  0  0  0  0  0  0  0
  147.5739  141.5653  154.5344 C   0  0  0  0  0  0  0  0  0  0  0  0
  146.3739  142.2809  155.1112 C   0  0  0  0  0  0  0  0  0  0  0  0
  146.2020  140.9313  154.4627 C   0  0  0  0  0  0  0  0  0  0  0  0
  148.5413  141.0739  157.1799 S   0  0  0  0  0  0  0  0  0  0  0  0
  150.9078  143.7059  160.8054 H   0  0  0  0  0  0  0  0  0  0  0  0
  151.5158  145.3584  160.8259 H   0  0  0  0  0  0  0  0  0  0  0  0
  152.3380  144.1165  161.7477 H   0  0  0  0  0  0  0  0  0  0  0  0
  153.6031  144.6013  159.6798 H   0  0  0  0  0  0  0  0  0  0  0  0
  151.0874  143.8594  158.1114 H   0  0  0  0  0  0  0  0  0  0  0  0
  152.6189  144.4075  157.4305 H   0  0  0  0  0  0  0  0  0  0  0  0
  151.6518  145.5030  158.3917 H   0  0  0  0  0  0  0  0  0  0  0  0
  153.8806  142.4109  158.7507 H   0  0  0  0  0  0  0  0  0  0  0  0
  154.6256  142.4844  161.1093 H   0  0  0  0  0  0  0  0  0  0  0  0
  153.9211  140.9173  160.7827 H   0  0  0  0  0  0  0  0  0  0  0  0
  152.9933  142.1209  161.6706 H   0  0  0  0  0  0  0  0  0  0  0  0
  151.0517  142.0575  159.3548 H   0  0  0  0  0  0  0  0  0  0  0  0
  148.0044  141.9510  153.6125 H   0  0  0  0  0  0  0  0  0  0  0  0
  146.2881  142.3311  156.1949 H   0  0  0  0  0  0  0  0  0  0  0  0
  146.0021  143.1499  154.5725 H   0  0  0  0  0  0  0  0  0  0  0  0
  145.7151  140.8996  153.4902 H   0  0  0  0  0  0  0  0  0  0  0  0
  145.9889  140.0892  155.1180 H   0  0  0  0  0  0  0  0  0  0  0  0
  1  2  1  0  0  0  0
  1 18  1  0  0  0  0
  1 19  1  0  0  0  0
  1 20  1  0  0  0  0
  2  3  1  0  0  0  0
  2  4  1  0  0  0  0
  2 21  1  0  0  0  0
  3 22  1  0  0  0  0
  3 23  1  0  0  0  0
  3 24  1  0  0  0  0
  4  5  1  0  0  0  0
  4  6  1  0  0  0  0
  4 25  1  0  0  0  0
  5 26  1  0  0  0  0
  5 27  1  0  0  0  0
  5 28  1  0  0  0  0
  6  7  1  0  0  0  0
  6 29  1  0  0  0  0
  7  8  2  0  0  0  0
  7  9  1  0  0  0  0
  9 10  1  0  0  0  0
 10 17  1  0  0  0  0
 10 11  2  0  0  0  0
 11 12  1  0  0  0  0
 12 13  2  0  0  0  0
 13 14  1  0  0  0  0
 13 17  1  0  0  0  0
 14 16  1  0  0  0  0
 14 15  1  0  0  0  0
 14 30  1  0  0  0  0
 15 16  1  0  0  0  0
 15 31  1  0  0  0  0
 15 32  1  0  0  0  0
 16 33  1  0  0  0  0
 16 34  1  0  0  0  0
M  CHG  1   9  -1
M  END
> <s_m_source_file>
AV-unprocessed.smi

> <i_m_source_file_index>
1027

> <i_lp_mmshare_version>
43012

> <i_f3d_flags>
0

> <s_epik_input>
W0NIM11bQ0hdKFtDSDNdKVtDQEhdKFtDSDNdKVtOSF1DKD1PKVtOSF1jMW5uYyhzMSlbQ0hdMltDSDJdW0NIMl0y

> <s_epik_cmdline>
J2VwaWtfcHl0aG9uJywgJy1waCcsICc3LjAnLCAnLXRuJywgJzgnLCAnLW1hJywgJzIwMCcsICctbWV0YWxfYmluZGluZycsICctaW1hZScsICc8aW5maWxlLm1hZT4nLCAnLW9tYWUnLCAnPG91dGZpbGUubWFlPic=

> <r_lp_tautomer_probability>
1

> <r_epik_Ionization_Penalty>
3.99975

> <r_epik_Ionization_Penalty_Charging>
3.83446

> <r_epik_Ionization_Penalty_Neutral>
0.165297

> <r_epik_State_Penalty>
3.83354

> <r_epik_Charging_Adjusted_Penalty>
7.668

> <i_epik_Tot_Q>
-1

> <i_epik_Tot_abs_Q>
1

> <r_epik_Metal_State_Penalty>
0.575872

> <b_epik_Metal_Only>
1

> <s_lp_Force_Field>
OPLS_2005

> <r_lp_Energy>
2.2869

> <b_lp_Chiralities_Consistent>
1

> <s_lp_Variant>
AV-unprocessed.smi:1027-4

> <Gold.Version>
5.8.1

> <Gold.Id.Protein>
6NUR|6NUR_protein|mol2

> <Gold.PLP.Fitness>
42.3746

> <Gold.PLP.PLP>
-39.7931

> <Gold.PLP.part.hbond>
-2.0000

> <Gold.PLP.part.metal>
0.0000

> <Gold.PLP.part.buried>
-4.7519

> <Gold.PLP.part.nonpolar>
-33.2970

> <Gold.PLP.part.repulsive>
0.2157

> <Gold.PLP.ligand.clash>
0.0000

> <Gold.PLP.ligand.torsion>
1.7998

> <Gold.PLP.Chemscore.Hbond>
2.0000

> <Gold.PLP.Chemscore.CHOScore>
0.0000

> <Gold.PLP.Chemscore.Metal>
0.0000

> <Gold.Chemscore.Hbonds>
donor molecule, donor type, donor heavy atom, donor atom, acceptor molecule, acceptor atom, score
      P1  H  7989  7998       L1    12  0.03
      P1  H  7997  8009       L1     8  1.00

> <Gold.PLP.Chemscore.Internal.Correction>
0.1811

> <Gold.Rescore>
     Score         DG    S(hbond)    S(metal)    S(lipo)     H(rot)  DE(clash)    DE(int)     intcor
     17.01     -18.76       1.60        0.00      97.57       1.36       0.11       1.64       ----

> <Gold.Chemscore.Fitness>
17.0069

> <Gold.Chemscore.DG>
-18.7577

> <Gold.Chemscore.ZeroCoef>
-5.4800

> <Gold.Chemscore.Hbond>
1.6014

> <Gold.Chemscore.Metal>
0.0000

> <Gold.Chemscore.Lipo>
97.5665

> <Gold.Chemscore.Internal_Hbond>
0.0000

> <Gold.Chemscore.DEClash>
0.1100

> <Gold.Chemscore.DEInternal>
1.6408

> <Gold.Chemscore.Rot>
1.3618

> <Gold.Chemscore.Internal.Correction>
   9.000000E+99

> <Gold.Chemscore.Hbonds>
donor molecule, donor type, donor heavy atom, donor atom, acceptor molecule, acceptor atom, score
      P1  H  7997  8009       L1     8  0.97

> <Gold.Chemscore.Hbond.Weighted>
-5.3487

> <Gold.Chemscore.Metal.Weighted>
-0.0000

> <Gold.Chemscore.Lipo.Weighted>
-11.4153

> <Gold.Chemscore.Internal_Hbond.Weighted>
0.0000

> <Gold.Chemscore.DEClash.Weighted>
0.1100

> <Gold.Chemscore.DEInternal.Weighted>
1.6408

> <Gold.Chemscore.Rot.Weighted>
3.4863

> <Gold.Chemscore.Internal.Correction.Weighted>
   9.000000E+99

> <Gold.Protein.RotatedTorsions>
[ 6907 6896 6895 6894 ] final -107.83 input  -60.11 | X-H torsion
[ 7974 7965 7964 7962 ] final -125.07 input  175.53 | X-H torsion
[ 8008 7997 7996 7995 ] final  157.12 input   59.86 | X-H torsion
[ 10167 10162 10161 10158 ] final  -52.03 input  -65.29 | X-H torsion
[ 10718 10713 10712 10709 ] final -160.69 input   66.30 | X-H torsion
[ 10763 10752 10751 10750 ] final -129.67 input  -60.55 | X-H torsion
[ 11005 11000 10999 10996 ] final -101.45 input  -57.11 | X-H torsion

> <Gold.Protein.ActiveResidues>
 VAL166  LYS551  ARG553  GLY616  TRP617  ASP618  TYR619  PRO620  LYS621  CYS622 
 ASP623  PHE694  ASN695  SER759  ASP760  ASP761  ALA762  ILE779  LEU786  VAL792 
 PHE793  MET794  SER795  GLU796  ALA797  LYS798  CYS799  TRP800  GLU811  SER814 

> <Gold.Protein.RotatedAtoms>
  150.7466  133.9768  159.3563 H   0  0  0  0  0  0  0  0  0  0  0  0  # atno 6907 bound_to 6896
  151.7706  135.0785  160.0368 H   0  0  0  0  0  0  0  0  0  0  0  0  # atno 6908 bound_to 6896
  152.3341  133.5955  159.5866 H   0  0  0  0  0  0  0  0  0  0  0  0  # atno 6909 bound_to 6896
  145.0015  140.7824  143.4493 H   0  0  0  0  0  0  0  0  0  0  0  0  # atno 7974 bound_to 7965
  156.2383  140.1894  156.7059 H   0  0  0  0  0  0  0  0  0  0  0  0  # atno 8008 bound_to 7997
  154.6148  140.0617  156.9567 H   0  0  0  0  0  0  0  0  0  0  0  0  # atno 8009 bound_to 7997
  155.1957  140.3288  155.4354 H   0  0  0  0  0  0  0  0  0  0  0  0  # atno 8010 bound_to 7997
  140.6558  143.2598  151.4590 H   0  0  0  0  0  0  0  0  0  0  0  0  # atno 10167 bound_to 10162
  156.5856  130.8748  151.2876 H   0  0  0  0  0  0  0  0  0  0  0  0  # atno 10718 bound_to 10713
  154.8757  135.3887  154.3958 H   0  0  0  0  0  0  0  0  0  0  0  0  # atno 10763 bound_to 10752
  153.4688  135.7030  153.6011 H   0  0  0  0  0  0  0  0  0  0  0  0  # atno 10764 bound_to 10752
  153.4477  135.3841  155.2233 H   0  0  0  0  0  0  0  0  0  0  0  0  # atno 10765 bound_to 10752
  141.1230  133.8479  157.1233 H   0  0  0  0  0  0  0  0  0  0  0  0  # atno 11005 bound_to 11000
  145.2147  139.2187  143.5124 LP  0  0  0  0  0  0  0  0  0  0  0  0  # atno 17320 bound_to 7965
  146.3453  140.1992  142.8589 LP  0  0  0  0  0  0  0  0  0  0  0  0  # atno 17321 bound_to 7965
  139.5780  144.1774  152.1930 LP  0  0  0  0  0  0  0  0  0  0  0  0  # atno 17342 bound_to 10162
  140.1090  144.5473  150.6937 LP  0  0  0  0  0  0  0  0  0  0  0  0  # atno 17343 bound_to 10162
  157.7316  130.9702  150.1888 LP  0  0  0  0  0  0  0  0  0  0  0  0  # atno 17370 bound_to 10713
  156.2593  130.3709  149.8147 LP  0  0  0  0  0  0  0  0  0  0  0  0  # atno 17371 bound_to 10713
  140.0203  134.9948  157.0579 LP  0  0  0  0  0  0  0  0  0  0  0  0  # atno 17394 bound_to 11000
  140.4450  134.1641  155.7177 LP  0  0  0  0  0  0  0  0  0  0  0  0  # atno 17395 bound_to 11000

$$$$
