AV-unprocessed.smi:2135|AV-procd|sdf|8700|dock7
  -GOLD-   2272011463D 1   1.00000     0.00000
 Structure written by MMmdl.
 43 44  0  0  0  0  0  0  0  0  2 V2000
  148.4732  141.1900  155.7195 C   0  0  0  0  0  0  0  0  0  0  0  0
  150.1557  140.4784  155.5126 S   0  0  0  0  0  0  0  0  0  0  0  0
  150.3808  140.2277  154.0808 O   0  0  0  0  0  0  0  0  0  0  0  0
  151.0958  141.3241  156.2640 O   0  0  0  0  0  0  0  0  0  0  0  0
  150.0753  138.9440  156.3294 N   0  0  0  0  0  0  0  0  0  0  0  0
  150.4130  137.6970  155.6189 C   0  0  0  0  0  0  0  0  0  0  0  0
  151.7141  137.0807  156.1582 C   0  0  0  0  0  0  0  0  0  0  0  0
  151.6709  136.9111  157.6881 C   0  0  0  0  0  0  0  0  0  0  0  0
  151.3277  138.2364  158.4070 C   0  0  1  0  0  0  0  0  0  0  0  0
  152.4972  139.2387  158.4494 C   0  0  0  0  0  0  0  0  0  0  0  0
  153.0045  139.6796  157.4174 O   0  0  0  0  0  0  0  0  0  0  0  0
  152.9468  139.5655  159.6716 N   0  0  0  0  0  0  0  0  0  0  0  0
  154.0415  140.4892  159.9427 C   0  0  0  0  0  0  0  0  0  0  0  0
  153.6506  141.5382  160.9966 C   0  0  0  0  0  0  0  0  0  0  0  0
  152.9899  142.7532  160.3758 C   0  0  0  0  0  0  0  0  0  0  0  0
  152.4706  143.7858  161.1874 C   0  0  0  0  0  0  0  0  0  0  0  0
  151.8591  144.9019  160.5789 C   0  0  0  0  0  0  0  0  0  0  0  0
  151.7801  144.9596  159.1723 C   0  0  0  0  0  0  0  0  0  0  0  0
  152.2874  143.9519  158.4284 N   0  3  0  0  0  0  0  0  0  0  0  0
  152.8811  142.8670  158.9726 C   0  0  0  0  0  0  0  0  0  0  0  0
  150.0330  138.8361  157.8033 C   0  0  0  0  0  0  0  0  0  0  0  0
  148.4805  142.2252  155.3796 H   0  0  0  0  0  0  0  0  0  0  0  0
  148.1840  141.1599  156.7694 H   0  0  0  0  0  0  0  0  0  0  0  0
  147.7578  140.6329  155.1196 H   0  0  0  0  0  0  0  0  0  0  0  0
  149.5903  136.9926  155.7472 H   0  0  0  0  0  0  0  0  0  0  0  0
  150.4998  137.8826  154.5485 H   0  0  0  0  0  0  0  0  0  0  0  0
  151.8798  136.1111  155.6881 H   0  0  0  0  0  0  0  0  0  0  0  0
  152.5601  137.6999  155.8632 H   0  0  0  0  0  0  0  0  0  0  0  0
  150.9173  136.1645  157.9421 H   0  0  0  0  0  0  0  0  0  0  0  0
  152.6196  136.5096  158.0470 H   0  0  0  0  0  0  0  0  0  0  0  0
  151.1215  137.9921  159.4502 H   0  0  0  0  0  0  0  0  0  0  0  0
  152.4869  139.1543  160.4713 H   0  0  0  0  0  0  0  0  0  0  0  0
  154.9251  139.9335  160.2620 H   0  0  0  0  0  0  0  0  0  0  0  0
  154.3067  140.9825  159.0070 H   0  0  0  0  0  0  0  0  0  0  0  0
  152.9749  141.0971  161.7308 H   0  0  0  0  0  0  0  0  0  0  0  0
  154.5314  141.8672  161.5498 H   0  0  0  0  0  0  0  0  0  0  0  0
  152.5378  143.7254  162.2640 H   0  0  0  0  0  0  0  0  0  0  0  0
  151.4565  145.7019  161.1830 H   0  0  0  0  0  0  0  0  0  0  0  0
  151.3300  145.7745  158.6240 H   0  0  0  0  0  0  0  0  0  0  0  0
  153.2462  142.1275  158.2745 H   0  0  0  0  0  0  0  0  0  0  0  0
  149.8096  139.8069  158.2450 H   0  0  0  0  0  0  0  0  0  0  0  0
  149.1900  138.1971  158.0681 H   0  0  0  0  0  0  0  0  0  0  0  0
  152.2195  144.0130  157.4121 H   0  0  0  0  0  0  0  0  0  0  0  0
  1  2  1  0  0  0  0
  1 22  1  0  0  0  0
  1 23  1  0  0  0  0
  1 24  1  0  0  0  0
  2  3  2  0  0  0  0
  2  4  2  0  0  0  0
  2  5  1  0  0  0  0
  5 21  1  0  0  0  0
  5  6  1  0  0  0  0
  6  7  1  0  0  0  0
  6 25  1  0  0  0  0
  6 26  1  0  0  0  0
  7  8  1  0  0  0  0
  7 27  1  0  0  0  0
  7 28  1  0  0  0  0
  8  9  1  0  0  0  0
  8 29  1  0  0  0  0
  8 30  1  0  0  0  0
  9 10  1  0  0  0  0
  9 21  1  0  0  0  0
  9 31  1  0  0  0  0
 10 11  2  0  0  0  0
 10 12  1  0  0  0  0
 12 13  1  0  0  0  0
 12 32  1  0  0  0  0
 13 14  1  0  0  0  0
 13 33  1  0  0  0  0
 13 34  1  0  0  0  0
 14 15  1  0  0  0  0
 14 35  1  0  0  0  0
 14 36  1  0  0  0  0
 15 20  1  0  0  0  0
 15 16  2  0  0  0  0
 16 17  1  0  0  0  0
 16 37  1  0  0  0  0
 17 18  2  0  0  0  0
 17 38  1  0  0  0  0
 18 19  1  0  0  0  0
 18 39  1  0  0  0  0
 19 20  2  0  0  0  0
 19 43  1  0  0  0  0
 20 40  1  0  0  0  0
 21 41  1  0  0  0  0
 21 42  1  0  0  0  0
M  CHG  1  19   1
M  END
> <s_m_source_file>
AV-unprocessed.smi

> <i_m_source_file_index>
2135

> <i_lp_mmshare_version>
43012

> <i_f3d_flags>
0

> <s_epik_input>
W0NIM11TKD1PKSg9TylOMVtDSDJdW0NIMl1bQ0gyXVtDQEhdKFtDSDJdMSlDKD1PKVtOSF1bQ0gyXVtDSDJdYzJbY0hdW2NIXVtjSF1uW2NIXTI=

> <s_epik_cmdline>
J2VwaWtfcHl0aG9uJywgJy1waCcsICc3LjAnLCAnLXRuJywgJzgnLCAnLW1hJywgJzIwMCcsICctbWV0YWxfYmluZGluZycsICctaW1hZScsICc8aW5maWxlLm1hZT4nLCAnLW9tYWUnLCAnPG91dGZpbGUubWFlPic=

> <r_epik_Ionization_Penalty>
2.24912

> <r_epik_Ionization_Penalty_Charging>
2.24912

> <r_epik_Ionization_Penalty_Neutral>
2.62834e-08

> <r_epik_State_Penalty>
2.39611

> <r_epik_Charging_Adjusted_Penalty>
4.64523

> <i_epik_Tot_Q>
1

> <i_epik_Tot_abs_Q>
1

> <r_epik_Metal_State_Penalty>
2.40934

> <b_epik_Metal_Only>
0

> <s_lp_Force_Field>
OPLS_2005

> <r_lp_Energy>
5.07519

> <b_lp_Chiralities_Consistent>
1

> <s_lp_Variant>
AV-unprocessed.smi:2135-3

> <Gold.Version>
5.8.1

> <Gold.Id.Protein>
6NUR|6NUR_protein|mol2

> <Gold.PLP.Fitness>
45.1052

> <Gold.PLP.PLP>
-39.6300

> <Gold.PLP.part.hbond>
-1.7656

> <Gold.PLP.part.metal>
0.0000

> <Gold.PLP.part.buried>
-7.5837

> <Gold.PLP.part.nonpolar>
-30.5583

> <Gold.PLP.part.repulsive>
0.8805

> <Gold.PLP.ligand.clash>
0.0000

> <Gold.PLP.ligand.torsion>
1.3097

> <Gold.PLP.Chemscore.Hbond>
2.0000

> <Gold.PLP.Chemscore.CHOScore>
0.0000

> <Gold.PLP.Chemscore.Metal>
0.0000

> <Gold.Chemscore.Hbonds>
donor molecule, donor type, donor heavy atom, donor atom, acceptor molecule, acceptor atom, score
      P1  H  7989  7998       L1     3  0.95
      P1  H  7997  8008       L1    11  1.00

> <Gold.PLP.Chemscore.Internal.Correction>
2.0945

> <Gold.Rescore>
     Score         DG    S(hbond)    S(metal)    S(lipo)     H(rot)  DE(clash)    DE(int)     intcor
     18.74     -20.14       1.96        0.00     105.53       1.65       0.02       1.38       ----

> <Gold.Chemscore.Fitness>
18.7387

> <Gold.Chemscore.DG>
-20.1444

> <Gold.Chemscore.ZeroCoef>
-5.4800

> <Gold.Chemscore.Hbond>
1.9613

> <Gold.Chemscore.Metal>
0.0000

> <Gold.Chemscore.Lipo>
105.5326

> <Gold.Chemscore.Internal_Hbond>
0.0000

> <Gold.Chemscore.DEClash>
0.0245

> <Gold.Chemscore.DEInternal>
1.3812

> <Gold.Chemscore.Rot>
1.6538

> <Gold.Chemscore.Internal.Correction>
   9.000000E+99

> <Gold.Chemscore.Hbonds>
donor molecule, donor type, donor heavy atom, donor atom, acceptor molecule, acceptor atom, score
      P1  H  7989  7998       L1     3  0.80
      P1  H  7997  8008       L1    11  0.99

> <Gold.Chemscore.Hbond.Weighted>
-6.5508

> <Gold.Chemscore.Metal.Weighted>
-0.0000

> <Gold.Chemscore.Lipo.Weighted>
-12.3473

> <Gold.Chemscore.Internal_Hbond.Weighted>
0.0000

> <Gold.Chemscore.DEClash.Weighted>
0.0245

> <Gold.Chemscore.DEInternal.Weighted>
1.3812

> <Gold.Chemscore.Rot.Weighted>
4.2337

> <Gold.Chemscore.Internal.Correction.Weighted>
   9.000000E+99

> <Gold.Protein.RotatedTorsions>
[ 6907 6896 6895 6894 ] final  -21.55 input  -60.11 | X-H torsion
[ 7974 7965 7964 7962 ] final   30.84 input  175.53 | X-H torsion
[ 8008 7997 7996 7995 ] final  -61.27 input   59.86 | X-H torsion
[ 10167 10162 10161 10158 ] final -174.26 input  -65.29 | X-H torsion
[ 10718 10713 10712 10709 ] final  -36.34 input   66.30 | X-H torsion
[ 10763 10752 10751 10750 ] final -141.73 input  -60.55 | X-H torsion
[ 11005 11000 10999 10996 ] final   51.67 input  -57.11 | X-H torsion

> <Gold.Protein.ActiveResidues>
 VAL166  LYS551  ARG553  GLY616  TRP617  ASP618  TYR619  PRO620  LYS621  CYS622 
 ASP623  PHE694  ASN695  SER759  ASP760  ASP761  ALA762  ILE779  LEU786  VAL792 
 PHE793  MET794  SER795  GLU796  ALA797  LYS798  CYS799  TRP800  GLU811  SER814 

> <Gold.Protein.RotatedAtoms>
  151.2317  135.0556  159.8989 H   0  0  0  0  0  0  0  0  0  0  0  0  # atno 6907 bound_to 6896
  152.5404  134.0530  159.8128 H   0  0  0  0  0  0  0  0  0  0  0  0  # atno 6908 bound_to 6896
  151.0711  133.5417  159.2658 H   0  0  0  0  0  0  0  0  0  0  0  0  # atno 6909 bound_to 6896
  146.1587  139.6735  142.9048 H   0  0  0  0  0  0  0  0  0  0  0  0  # atno 7974 bound_to 7965
  154.4439  140.1021  156.6405 H   0  0  0  0  0  0  0  0  0  0  0  0  # atno 8008 bound_to 7997
  155.5507  140.3485  155.4449 H   0  0  0  0  0  0  0  0  0  0  0  0  # atno 8009 bound_to 7997
  156.0531  140.1308  157.0017 H   0  0  0  0  0  0  0  0  0  0  0  0  # atno 8010 bound_to 7997
  139.5643  144.1793  152.1288 H   0  0  0  0  0  0  0  0  0  0  0  0  # atno 10167 bound_to 10162
  156.3280  130.4275  149.7899 H   0  0  0  0  0  0  0  0  0  0  0  0  # atno 10718 bound_to 10713
  154.8535  135.3516  154.5915 H   0  0  0  0  0  0  0  0  0  0  0  0  # atno 10763 bound_to 10752
  153.6524  135.6993  153.5209 H   0  0  0  0  0  0  0  0  0  0  0  0  # atno 10764 bound_to 10752
  153.2883  135.4242  155.1101 H   0  0  0  0  0  0  0  0  0  0  0  0  # atno 10765 bound_to 10752
  140.0913  134.5205  155.8849 H   0  0  0  0  0  0  0  0  0  0  0  0  # atno 11005 bound_to 11000
  145.4643  141.0434  143.2734 LP  0  0  0  0  0  0  0  0  0  0  0  0  # atno 17320 bound_to 7965
  144.7998  139.6163  143.7077 LP  0  0  0  0  0  0  0  0  0  0  0  0  # atno 17321 bound_to 7965
  140.1313  144.5286  150.6801 LP  0  0  0  0  0  0  0  0  0  0  0  0  # atno 17342 bound_to 10162
  140.6926  143.2384  151.5090 LP  0  0  0  0  0  0  0  0  0  0  0  0  # atno 17343 bound_to 10162
  156.5182  130.8203  151.3194 LP  0  0  0  0  0  0  0  0  0  0  0  0  # atno 17370 bound_to 10713
  157.7425  130.9891  150.2520 LP  0  0  0  0  0  0  0  0  0  0  0  0  # atno 17371 bound_to 10713
  141.2079  133.6668  156.6334 LP  0  0  0  0  0  0  0  0  0  0  0  0  # atno 17394 bound_to 11000
  140.3348  134.7899  157.4353 LP  0  0  0  0  0  0  0  0  0  0  0  0  # atno 17395 bound_to 11000

$$$$
