AV-unprocessed.smi:1433|AV-procd|sdf|5843|dock1
  -GOLD-   22720 5503D 1   1.00000     0.00000
 Structure written by MMmdl.
 45 46  0  0  0  0  0  0  0  0  2 V2000
  146.4613  132.0315  152.1991 C   0  0  0  0  0  0  0  0  0  0  0  0
  146.5432  133.5495  152.3961 C   0  0  2  0  0  0  0  0  0  0  0  0
  147.0403  133.9227  153.8028 C   0  0  0  0  0  0  0  0  0  0  0  0
  147.0483  135.3973  153.9932 N   0  3  2  0  0  0  0  0  0  0  0  0
  147.6755  135.8015  155.2942 C   0  0  1  0  0  0  0  0  0  0  0  0
  147.8887  137.3327  155.3248 C   0  0  0  0  0  0  0  0  0  0  0  0
  146.8806  135.3417  156.5494 C   0  0  0  0  0  0  0  0  0  0  0  0
  147.3591  135.9622  157.7802 N   0  0  0  0  0  0  0  0  0  0  0  0
  148.5335  135.6965  158.3732 C   0  0  0  0  0  0  0  0  0  0  0  0
  149.3222  134.8446  157.9643 O   0  0  0  0  0  0  0  0  0  0  0  0
  148.8782  136.5344  159.6044 C   0  0  0  0  0  0  0  0  0  0  0  0
  148.0165  136.1892  160.7214 N   0  0  0  0  0  0  0  0  0  0  0  0
  147.6325  134.9360  161.1511 C   0  0  0  0  0  0  0  0  0  0  0  0
  146.8322  135.1088  162.2438 C   0  0  0  0  0  0  0  0  0  0  0  0
  146.7836  136.5214  162.4077 C   0  0  0  0  0  0  0  0  0  0  0  0
  147.4960  137.1654  161.4976 N   0  0  0  0  0  0  0  0  0  0  0  0
  145.6848  135.9353  153.7322 C   0  0  0  0  0  0  0  0  0  0  0  0
  145.1513  135.4992  152.3521 C   0  0  1  0  0  0  0  0  0  0  0  0
  145.8037  136.2478  151.1755 C   0  0  0  0  0  0  0  0  0  0  0  0
  145.2385  134.0842  152.2042 O   0  0  0  0  0  0  0  0  0  0  0  0
  147.4386  131.5654  152.3261 H   0  0  0  0  0  0  0  0  0  0  0  0
  146.1053  131.7873  151.1980 H   0  0  0  0  0  0  0  0  0  0  0  0
  145.7771  131.5759  152.9158 H   0  0  0  0  0  0  0  0  0  0  0  0
  147.2252  133.9503  151.6461 H   0  0  0  0  0  0  0  0  0  0  0  0
  146.4016  133.4633  154.5594 H   0  0  0  0  0  0  0  0  0  0  0  0
  148.0366  133.5066  153.9408 H   0  0  0  0  0  0  0  0  0  0  0  0
  148.6542  135.3211  155.3430 H   0  0  0  0  0  0  0  0  0  0  0  0
  148.4017  137.6532  156.2318 H   0  0  0  0  0  0  0  0  0  0  0  0
  146.9359  137.8613  155.2826 H   0  0  0  0  0  0  0  0  0  0  0  0
  148.4982  137.6888  154.4963 H   0  0  0  0  0  0  0  0  0  0  0  0
  145.8250  135.5916  156.4381 H   0  0  0  0  0  0  0  0  0  0  0  0
  146.9379  134.2610  156.6861 H   0  0  0  0  0  0  0  0  0  0  0  0
  146.7755  136.6780  158.1897 H   0  0  0  0  0  0  0  0  0  0  0  0
  149.9215  136.3806  159.8849 H   0  0  0  0  0  0  0  0  0  0  0  0
  148.7572  137.5955  159.3822 H   0  0  0  0  0  0  0  0  0  0  0  0
  147.9589  134.0365  160.6499 H   0  0  0  0  0  0  0  0  0  0  0  0
  146.3532  134.3427  162.8352 H   0  0  0  0  0  0  0  0  0  0  0  0
  146.2562  137.0937  163.1566 H   0  0  0  0  0  0  0  0  0  0  0  0
  145.0098  135.5862  154.5154 H   0  0  0  0  0  0  0  0  0  0  0  0
  145.6769  137.0245  153.7602 H   0  0  0  0  0  0  0  0  0  0  0  0
  144.0877  135.7375  152.3207 H   0  0  0  0  0  0  0  0  0  0  0  0
  145.5995  137.3170  151.2365 H   0  0  0  0  0  0  0  0  0  0  0  0
  145.4095  135.8926  150.2231 H   0  0  0  0  0  0  0  0  0  0  0  0
  146.8864  136.1274  151.1554 H   0  0  0  0  0  0  0  0  0  0  0  0
  147.6364  135.7844  153.2691 H   0  0  0  0  0  0  0  0  0  0  0  0
  1  2  1  0  0  0  0
  1 21  1  0  0  0  0
  1 22  1  0  0  0  0
  1 23  1  0  0  0  0
  2 20  1  0  0  0  0
  2  3  1  0  0  0  0
  2 24  1  0  0  0  0
  3  4  1  0  0  0  0
  3 25  1  0  0  0  0
  3 26  1  0  0  0  0
  4  5  1  0  0  0  0
  4 17  1  0  0  0  0
  4 45  1  0  0  0  0
  5  6  1  0  0  0  0
  5  7  1  0  0  0  0
  5 27  1  0  0  0  0
  6 28  1  0  0  0  0
  6 29  1  0  0  0  0
  6 30  1  0  0  0  0
  7  8  1  0  0  0  0
  7 31  1  0  0  0  0
  7 32  1  0  0  0  0
  8  9  1  0  0  0  0
  8 33  1  0  0  0  0
  9 10  2  0  0  0  0
  9 11  1  0  0  0  0
 11 12  1  0  0  0  0
 11 34  1  0  0  0  0
 11 35  1  0  0  0  0
 12 16  1  0  0  0  0
 12 13  1  0  0  0  0
 13 14  2  0  0  0  0
 13 36  1  0  0  0  0
 14 15  1  0  0  0  0
 14 37  1  0  0  0  0
 15 16  2  0  0  0  0
 15 38  1  0  0  0  0
 17 18  1  0  0  0  0
 17 39  1  0  0  0  0
 17 40  1  0  0  0  0
 18 19  1  0  0  0  0
 18 20  1  0  0  0  0
 18 41  1  0  0  0  0
 19 42  1  0  0  0  0
 19 43  1  0  0  0  0
 19 44  1  0  0  0  0
M  CHG  1   4   1
M  END
> <s_m_source_file>
AV-unprocessed.smi

> <i_m_source_file_index>
1433

> <i_lp_mmshare_version>
43012

> <i_f3d_flags>
0

> <s_epik_input>
W0NIM11bQ0BASF0xW0NIMl1OKFtDSDJdW0NASF0oTzEpW0NIM10pW0NASF0oW0NIM10pW0NIMl1bTkhdQyg9TylbQ0gyXW4yW2NIXVtjSF1bY0hdbjI=

> <s_epik_cmdline>
J2VwaWtfcHl0aG9uJywgJy1waCcsICc3LjAnLCAnLXRuJywgJzgnLCAnLW1hJywgJzIwMCcsICctbWV0YWxfYmluZGluZycsICctaW1hZScsICc8aW5maWxlLm1hZT4nLCAnLW9tYWUnLCAnPG91dGZpbGUubWFlPic=

> <r_lp_tautomer_probability>
1

> <r_epik_Ionization_Penalty>
0.748405

> <r_epik_Ionization_Penalty_Charging>
0.748396

> <r_epik_Ionization_Penalty_Neutral>
8.54426e-06

> <r_epik_State_Penalty>
0.775162

> <r_epik_Charging_Adjusted_Penalty>
1.52356

> <i_epik_Tot_Q>
1

> <i_epik_Tot_abs_Q>
1

> <r_epik_Metal_State_Penalty>
0.775167

> <b_epik_Metal_Only>
0

> <s_lp_Force_Field>
OPLS_2005

> <r_lp_Energy>
20.9037

> <b_lp_Chiralities_Consistent>
1

> <s_lp_Variant>
AV-unprocessed.smi:1433-9

> <Gold.Version>
5.8.1

> <Gold.Id.Protein>
6NUR|6NUR_protein|mol2

> <Gold.PLP.Fitness>
41.4519

> <Gold.PLP.PLP>
-27.8020

> <Gold.PLP.part.hbond>
-4.0000

> <Gold.PLP.part.metal>
0.0000

> <Gold.PLP.part.buried>
-4.0059

> <Gold.PLP.part.nonpolar>
-21.0687

> <Gold.PLP.part.repulsive>
0.0832

> <Gold.PLP.ligand.clash>
0.0000

> <Gold.PLP.ligand.torsion>
0.4816

> <Gold.PLP.Chemscore.Hbond>
4.8400

> <Gold.PLP.Chemscore.CHOScore>
0.0000

> <Gold.PLP.Chemscore.Metal>
0.0000

> <Gold.Chemscore.Hbonds>
donor molecule, donor type, donor heavy atom, donor atom, acceptor molecule, acceptor atom, score
      L1  H     4    45       P1  7948  2.00
      P1  H  6896  6909       L1    10  0.96
      P1  H  6931  6943       L1    16  0.94
      P1  H  6934  6947       L1    16  0.86

> <Gold.PLP.Chemscore.Internal.Correction>
0.0932

> <Gold.Rescore>
     Score         DG    S(hbond)    S(metal)    S(lipo)     H(rot)  DE(clash)    DE(int)     intcor
     18.02     -18.58       3.29        0.00      58.80       1.87       0.02       0.54       ----

> <Gold.Chemscore.Fitness>
18.0210

> <Gold.Chemscore.DG>
-18.5815

> <Gold.Chemscore.ZeroCoef>
-5.4800

> <Gold.Chemscore.Hbond>
3.2927

> <Gold.Chemscore.Metal>
0.0000

> <Gold.Chemscore.Lipo>
58.8021

> <Gold.Chemscore.Internal_Hbond>
0.0000

> <Gold.Chemscore.DEClash>
0.0199

> <Gold.Chemscore.DEInternal>
0.5405

> <Gold.Chemscore.Rot>
1.8657

> <Gold.Chemscore.Internal.Correction>
   9.000000E+99

> <Gold.Chemscore.Hbonds>
donor molecule, donor type, donor heavy atom, donor atom, acceptor molecule, acceptor atom, score
      L1  H     4    45       P1  7948  0.98
      P1  H  6896  6909       L1    10  0.82
      P1  H  6931  6943       L1    16  0.36
      P1  H  6934  6947       L1    16  0.83

> <Gold.Chemscore.Hbond.Weighted>
-10.9978

> <Gold.Chemscore.Metal.Weighted>
-0.0000

> <Gold.Chemscore.Lipo.Weighted>
-6.8798

> <Gold.Chemscore.Internal_Hbond.Weighted>
0.0000

> <Gold.Chemscore.DEClash.Weighted>
0.0199

> <Gold.Chemscore.DEInternal.Weighted>
0.5405

> <Gold.Chemscore.Rot.Weighted>
4.7761

> <Gold.Chemscore.Internal.Correction.Weighted>
   9.000000E+99

> <Gold.Protein.RotatedTorsions>
[ 6907 6896 6895 6894 ] final   23.39 input  -60.11 | X-H torsion
[ 7974 7965 7964 7962 ] final  -20.17 input  175.53 | X-H torsion
[ 8008 7997 7996 7995 ] final   71.98 input   59.86 | X-H torsion
[ 10167 10162 10161 10158 ] final -142.02 input  -65.29 | X-H torsion
[ 10718 10713 10712 10709 ] final   17.98 input   66.30 | X-H torsion
[ 10763 10752 10751 10750 ] final  -89.10 input  -60.55 | X-H torsion
[ 11005 11000 10999 10996 ] final  -90.61 input  -57.11 | X-H torsion

> <Gold.Protein.ActiveResidues>
 VAL166  LYS551  ARG553  GLY616  TRP617  ASP618  TYR619  PRO620  LYS621  CYS622 
 ASP623  PHE694  ASN695  SER759  ASP760  ASP761  ALA762  ILE779  LEU786  VAL792 
 PHE793  MET794  SER795  GLU796  ALA797  LYS798  CYS799  TRP800  GLU811  SER814 

> <Gold.Protein.RotatedAtoms>
  151.9417  135.0210  160.0536 H   0  0  0  0  0  0  0  0  0  0  0  0  # atno 6907 bound_to 6896
  152.2030  133.4850  159.5077 H   0  0  0  0  0  0  0  0  0  0  0  0  # atno 6908 bound_to 6896
  150.6959  134.1482  159.4173 H   0  0  0  0  0  0  0  0  0  0  0  0  # atno 6909 bound_to 6896
  146.1802  140.4165  142.8497 H   0  0  0  0  0  0  0  0  0  0  0  0  # atno 7974 bound_to 7965
  155.7620  140.3486  155.5203 H   0  0  0  0  0  0  0  0  0  0  0  0  # atno 8008 bound_to 7997
  155.8904  140.1017  157.1443 H   0  0  0  0  0  0  0  0  0  0  0  0  # atno 8009 bound_to 7997
  154.4033  140.1305  156.4296 H   0  0  0  0  0  0  0  0  0  0  0  0  # atno 8010 bound_to 7997
  139.8129  143.7678  152.2664 H   0  0  0  0  0  0  0  0  0  0  0  0  # atno 10167 bound_to 10162
  157.0898  130.6423  149.5846 H   0  0  0  0  0  0  0  0  0  0  0  0  # atno 10718 bound_to 10713
  154.6517  135.5353  153.7910 H   0  0  0  0  0  0  0  0  0  0  0  0  # atno 10763 bound_to 10752
  153.0390  135.6484  154.1007 H   0  0  0  0  0  0  0  0  0  0  0  0  # atno 10764 bound_to 10752
  154.0923  135.2939  155.3249 H   0  0  0  0  0  0  0  0  0  0  0  0  # atno 10765 bound_to 10752
  141.1562  133.7703  156.9762 H   0  0  0  0  0  0  0  0  0  0  0  0  # atno 11005 bound_to 11000
  144.8303  140.6695  143.6295 LP  0  0  0  0  0  0  0  0  0  0  0  0  # atno 17320 bound_to 7965
  145.4097  139.1582  143.4132 LP  0  0  0  0  0  0  0  0  0  0  0  0  # atno 17321 bound_to 7965
  139.7833  144.7437  151.0058 LP  0  0  0  0  0  0  0  0  0  0  0  0  # atno 17342 bound_to 10162
  140.7817  143.4519  151.0400 LP  0  0  0  0  0  0  0  0  0  0  0  0  # atno 17343 bound_to 10162
  155.9901  130.4951  150.7242 LP  0  0  0  0  0  0  0  0  0  0  0  0  # atno 17370 bound_to 10713
  157.4730  131.0895  151.0621 LP  0  0  0  0  0  0  0  0  0  0  0  0  # atno 17371 bound_to 10713
  140.1096  134.9485  157.2046 LP  0  0  0  0  0  0  0  0  0  0  0  0  # atno 17394 bound_to 11000
  140.3211  134.2916  155.7246 LP  0  0  0  0  0  0  0  0  0  0  0  0  # atno 17395 bound_to 11000

$$$$
