AV-unprocessed.smi:1|AV-procd|sdf|18|dock8
  -GOLD-   2262015123D 1   1.00000     0.00000
 Structure written by MMmdl.
 56 61  0  0  0  0  0  0  0  0  2 V2000
  147.9480  146.1916  161.0058 O   0  0  0  0  0  0  0  0  0  0  0  0
  148.3204  145.0292  160.8331 C   0  0  0  0  0  0  0  0  0  0  0  0
  147.5926  143.8919  160.9699 N   0  5  0  0  0  0  0  0  0  0  0  0
  146.2563  143.9594  161.0717 C   0  0  0  0  0  0  0  0  0  0  0  0
  145.6064  143.2686  162.0426 N   0  0  0  0  0  0  0  0  0  0  0  0
  144.2748  143.3425  162.1497 C   0  0  0  0  0  0  0  0  0  0  0  0
  143.4081  144.0419  161.4101 N   0  0  0  0  0  0  0  0  0  0  0  0
  144.0514  144.7484  160.4354 C   0  0  0  0  0  0  0  0  0  0  0  0
  145.4587  144.7589  160.2079 C   0  0  0  0  0  0  0  0  0  0  0  0
  145.7783  145.5833  159.1390 N   0  0  0  0  0  0  0  0  0  0  0  0
  144.5772  146.0242  158.7711 C   0  0  0  0  0  0  0  0  0  0  0  0
  143.5140  145.5936  159.4789 N   0  0  0  0  0  0  0  0  0  0  0  0
  142.0782  145.9320  159.2613 C   0  0  1  0  0  0  0  0  0  0  0  0
  141.7473  145.6003  157.9500 O   0  0  0  0  0  0  0  0  0  0  0  0
  140.3979  145.1650  157.9302 C   0  0  1  0  0  0  0  0  0  0  0  0
  140.0655  144.4211  156.6290 C   0  0  0  0  0  0  0  0  0  0  0  0
  138.9635  145.0197  155.9646 O   0  0  0  0  0  0  0  0  0  0  0  0
  139.1290  146.1734  155.2884 C   0  0  0  0  0  0  0  0  0  0  0  0
  140.2284  146.6096  154.9409 O   0  0  0  0  0  0  0  0  0  0  0  0
  137.8422  146.8705  155.0045 C   0  0  0  0  0  0  0  0  0  0  0  0
  137.8581  148.0959  154.2983 C   0  0  0  0  0  0  0  0  0  0  0  0
  136.6581  148.7782  154.0186 C   0  0  0  0  0  0  0  0  0  0  0  0
  135.4276  148.2444  154.4443 C   0  0  0  0  0  0  0  0  0  0  0  0
  135.3992  147.0287  155.1522 C   0  0  0  0  0  0  0  0  0  0  0  0
  136.5984  146.3451  155.4322 C   0  0  0  0  0  0  0  0  0  0  0  0
  140.2451  144.3648  159.2268 C   0  0  2  0  0  0  0  0  0  0  0  0
  138.9150  144.3893  159.7132 O   0  0  0  0  0  0  0  0  0  0  0  0
  138.7756  145.5963  160.8589 S   0  0  0  0  0  0  0  0  0  0  0  0
  138.0467  146.7221  160.2554 O   0  0  0  0  0  0  0  0  0  0  0  0
  138.3678  144.9790  162.1299 O   0  0  0  0  0  0  0  0  0  0  0  0
  140.3856  146.0236  160.9766 O   0  0  0  0  0  0  0  0  0  0  0  0
  141.1608  145.1288  160.1984 C   0  0  2  0  0  0  0  0  0  0  0  0
  149.7248  144.7820  160.3506 C   0  0  0  0  0  0  0  0  0  0  0  0
  150.7999  144.8342  161.2671 C   0  0  0  0  0  0  0  0  0  0  0  0
  152.1181  144.5802  160.8407 C   0  0  0  0  0  0  0  0  0  0  0  0
  152.3745  144.2617  159.4939 C   0  0  0  0  0  0  0  0  0  0  0  0
  151.3108  144.1936  158.5748 C   0  0  0  0  0  0  0  0  0  0  0  0
  149.9923  144.4475  159.0005 C   0  0  0  0  0  0  0  0  0  0  0  0
  143.8437  142.7597  162.9492 H   0  0  0  0  0  0  0  0  0  0  0  0
  144.4646  146.7035  157.9389 H   0  0  0  0  0  0  0  0  0  0  0  0
  142.0112  147.0105  159.4127 H   0  0  0  0  0  0  0  0  0  0  0  0
  139.7799  146.0630  157.9843 H   0  0  0  0  0  0  0  0  0  0  0  0
  140.9284  144.4440  155.9623 H   0  0  0  0  0  0  0  0  0  0  0  0
  139.8553  143.3739  156.8513 H   0  0  0  0  0  0  0  0  0  0  0  0
  138.7909  148.5245  153.9606 H   0  0  0  0  0  0  0  0  0  0  0  0
  136.6823  149.7121  153.4766 H   0  0  0  0  0  0  0  0  0  0  0  0
  134.5072  148.7669  154.2292 H   0  0  0  0  0  0  0  0  0  0  0  0
  134.4559  146.6183  155.4810 H   0  0  0  0  0  0  0  0  0  0  0  0
  136.5423  145.4164  155.9811 H   0  0  0  0  0  0  0  0  0  0  0  0
  140.5977  143.3393  159.1154 H   0  0  0  0  0  0  0  0  0  0  0  0
  141.7225  144.4581  160.8500 H   0  0  0  0  0  0  0  0  0  0  0  0
  150.6196  145.0751  162.3048 H   0  0  0  0  0  0  0  0  0  0  0  0
  152.9322  144.6286  161.5484 H   0  0  0  0  0  0  0  0  0  0  0  0
  153.3850  144.0665  159.1671 H   0  0  0  0  0  0  0  0  0  0  0  0
  151.5045  143.9437  157.5423 H   0  0  0  0  0  0  0  0  0  0  0  0
  149.1889  144.3789  158.2812 H   0  0  0  0  0  0  0  0  0  0  0  0
  1  2  2  0  0  0  0
  2  3  1  0  0  0  0
  2 33  1  0  0  0  0
  3  4  1  0  0  0  0
  4  9  1  0  0  0  0
  4  5  2  0  0  0  0
  5  6  1  0  0  0  0
  6  7  2  0  0  0  0
  6 39  1  0  0  0  0
  7  8  1  0  0  0  0
  8 12  1  0  0  0  0
  8  9  2  0  0  0  0
  9 10  1  0  0  0  0
 10 11  2  0  0  0  0
 11 12  1  0  0  0  0
 11 40  1  0  0  0  0
 12 13  1  0  0  0  0
 13 32  1  0  0  0  0
 13 14  1  0  0  0  0
 13 41  1  0  0  0  0
 14 15  1  0  0  0  0
 15 16  1  0  0  0  0
 15 26  1  0  0  0  0
 15 42  1  0  0  0  0
 16 17  1  0  0  0  0
 16 43  1  0  0  0  0
 16 44  1  0  0  0  0
 17 18  1  0  0  0  0
 18 19  2  0  0  0  0
 18 20  1  0  0  0  0
 20 25  1  0  0  0  0
 20 21  2  0  0  0  0
 21 22  1  0  0  0  0
 21 45  1  0  0  0  0
 22 23  2  0  0  0  0
 22 46  1  0  0  0  0
 23 24  1  0  0  0  0
 23 47  1  0  0  0  0
 24 25  2  0  0  0  0
 24 48  1  0  0  0  0
 25 49  1  0  0  0  0
 26 32  1  0  0  0  0
 26 27  1  0  0  0  0
 26 50  1  0  0  0  0
 27 28  1  0  0  0  0
 28 29  2  0  0  0  0
 28 30  2  0  0  0  0
 28 31  1  0  0  0  0
 31 32  1  0  0  0  0
 32 51  1  0  0  0  0
 33 38  1  0  0  0  0
 33 34  2  0  0  0  0
 34 35  1  0  0  0  0
 34 52  1  0  0  0  0
 35 36  2  0  0  0  0
 35 53  1  0  0  0  0
 36 37  1  0  0  0  0
 36 54  1  0  0  0  0
 37 38  2  0  0  0  0
 37 55  1  0  0  0  0
 38 56  1  0  0  0  0
M  CHG  1   3  -1
M  END
> <s_m_source_file>
AV-unprocessed.smi

> <i_m_source_file_index>
1

> <i_lp_mmshare_version>
43012

> <i_f3d_flags>
0

> <s_epik_input>
W2NIXTFbY0hdW2NIXVtjSF1bY0hdYzFDKD1PKVtOSF1jKG5bY0hdbjIpYyhjMjMpbltjSF1uM1tDQEBIXShbQ0BIXShbQ0BIXTQ1KU9TKE81KSg9Tyk9TylPW0NASF00W0NIMl1PQyg9TyljNltjSF1bY0hdW2NIXVtjSF1bY0hdNg==

> <s_epik_cmdline>
J2VwaWtfcHl0aG9uJywgJy1waCcsICc3LjAnLCAnLXRuJywgJzgnLCAnLW1hJywgJzIwMCcsICctbWV0YWxfYmluZGluZycsICctaW1hZScsICc8aW5maWxlLm1hZT4nLCAnLW9tYWUnLCAnPG91dGZpbGUubWFlPic=

> <r_lp_tautomer_probability>
1

> <r_epik_Ionization_Penalty>
4.39121

> <r_epik_Ionization_Penalty_Charging>
3.39398

> <r_epik_Ionization_Penalty_Neutral>
0.997232

> <r_epik_State_Penalty>
3.39839

> <r_epik_Charging_Adjusted_Penalty>
6.79237

> <i_epik_Tot_Q>
-1

> <i_epik_Tot_abs_Q>
1

> <r_epik_Metal_State_Penalty>
0.497663

> <b_epik_Metal_Only>
1

> <s_epik_Chemistry_Notes>
This compound has an ester and may undergo hydrolysis at high or low pH. This compound contains an acetal/aminal-like group ( X-CH(R)-Y where X, Y are N, S, or O) that may be acid/base labile, releasing an aldehyde.

> <s_lp_Force_Field>
OPLS_2005

> <r_lp_Energy>
46.6749

> <b_lp_Chiralities_Consistent>
1

> <s_lp_Variant>
AV-unprocessed.smi:1-18

> <Gold.Version>
5.8.1

> <Gold.Id.Protein>
6NUR|6NUR_protein|mol2

> <Gold.PLP.Fitness>
49.9167

> <Gold.PLP.PLP>
-49.4423

> <Gold.PLP.part.hbond>
-4.0000

> <Gold.PLP.part.metal>
0.0000

> <Gold.PLP.part.buried>
-4.6307

> <Gold.PLP.part.nonpolar>
-42.7300

> <Gold.PLP.part.repulsive>
2.6678

> <Gold.PLP.ligand.clash>
0.0000

> <Gold.PLP.ligand.torsion>
2.9462

> <Gold.PLP.Chemscore.Hbond>
2.0000

> <Gold.PLP.Chemscore.CHOScore>
0.0000

> <Gold.PLP.Chemscore.Metal>
0.0000

> <Gold.Chemscore.Hbonds>
donor molecule, donor type, donor heavy atom, donor atom, acceptor molecule, acceptor atom, score
      P1  H  6933  6944       L1     3  2.00

> <Gold.PLP.Chemscore.Internal.Correction>
0.3668

> <Gold.Rescore>
     Score         DG    S(hbond)    S(metal)    S(lipo)     H(rot)  DE(clash)    DE(int)     intcor
      5.69     -16.02       0.78        0.00     114.14       2.11       3.67       6.65       ----

> <Gold.Chemscore.Fitness>
5.6886

> <Gold.Chemscore.DG>
-16.0167

> <Gold.Chemscore.ZeroCoef>
-5.4800

> <Gold.Chemscore.Hbond>
0.7765

> <Gold.Chemscore.Metal>
0.0000

> <Gold.Chemscore.Lipo>
114.1365

> <Gold.Chemscore.Internal_Hbond>
0.0000

> <Gold.Chemscore.DEClash>
3.6749

> <Gold.Chemscore.DEInternal>
6.6532

> <Gold.Chemscore.Rot>
2.1136

> <Gold.Chemscore.Internal.Correction>
   9.000000E+99

> <Gold.Chemscore.Hbonds>
donor molecule, donor type, donor heavy atom, donor atom, acceptor molecule, acceptor atom, score
      P1  H  6933  6944       L1     3  0.93

> <Gold.Chemscore.Hbond.Weighted>
-2.5935

> <Gold.Chemscore.Metal.Weighted>
-0.0000

> <Gold.Chemscore.Lipo.Weighted>
-13.3540

> <Gold.Chemscore.Internal_Hbond.Weighted>
0.0000

> <Gold.Chemscore.DEClash.Weighted>
3.6749

> <Gold.Chemscore.DEInternal.Weighted>
6.6532

> <Gold.Chemscore.Rot.Weighted>
5.4107

> <Gold.Chemscore.Internal.Correction.Weighted>
   9.000000E+99

> <Gold.Protein.RotatedTorsions>
[ 6907 6896 6895 6894 ] final  127.20 input  -60.11 | X-H torsion
[ 7974 7965 7964 7962 ] final   75.95 input  175.53 | X-H torsion
[ 8008 7997 7996 7995 ] final  -88.71 input   59.86 | X-H torsion
[ 10167 10162 10161 10158 ] final -125.13 input  -65.29 | X-H torsion
[ 10718 10713 10712 10709 ] final -128.05 input   66.30 | X-H torsion
[ 10763 10752 10751 10750 ] final  129.75 input  -60.55 | X-H torsion
[ 11005 11000 10999 10996 ] final   -0.53 input  -57.11 | X-H torsion

> <Gold.Protein.ActiveResidues>
 VAL166  LYS551  ARG553  GLY616  TRP617  ASP618  TYR619  PRO620  LYS621  CYS622 
 ASP623  PHE694  ASN695  SER759  ASP760  ASP761  ALA762  ILE779  LEU786  VAL792 
 PHE793  MET794  SER795  GLU796  ALA797  LYS798  CYS799  TRP800  GLU811  SER814 

> <Gold.Protein.RotatedAtoms>
  152.3835  133.6578  159.6179 H   0  0  0  0  0  0  0  0  0  0  0  0  # atno 6907 bound_to 6896
  150.7759  133.9075  159.3368 H   0  0  0  0  0  0  0  0  0  0  0  0  # atno 6908 bound_to 6896
  151.6876  135.0953  160.0279 H   0  0  0  0  0  0  0  0  0  0  0  0  # atno 6909 bound_to 6896
  145.7090  139.2608  143.1661 H   0  0  0  0  0  0  0  0  0  0  0  0  # atno 7974 bound_to 7965
  154.6780  140.0550  157.0236 H   0  0  0  0  0  0  0  0  0  0  0  0  # atno 8008 bound_to 7997
  155.0992  140.3227  155.4533 H   0  0  0  0  0  0  0  0  0  0  0  0  # atno 8009 bound_to 7997
  156.2683  140.2034  156.6118 H   0  0  0  0  0  0  0  0  0  0  0  0  # atno 8010 bound_to 7997
  139.9854  143.5698  152.2362 H   0  0  0  0  0  0  0  0  0  0  0  0  # atno 10167 bound_to 10162
  156.1914  130.6798  151.0429 H   0  0  0  0  0  0  0  0  0  0  0  0  # atno 10718 bound_to 10713
  153.7468  135.3216  155.3314 H   0  0  0  0  0  0  0  0  0  0  0  0  # atno 10763 bound_to 10752
  154.8276  135.4558  154.0971 H   0  0  0  0  0  0  0  0  0  0  0  0  # atno 10764 bound_to 10752
  153.2162  135.6942  153.8136 H   0  0  0  0  0  0  0  0  0  0  0  0  # atno 10765 bound_to 10752
  140.6372  133.9521  155.8306 H   0  0  0  0  0  0  0  0  0  0  0  0  # atno 11005 bound_to 11000
  146.0729  140.7849  142.9679 LP  0  0  0  0  0  0  0  0  0  0  0  0  # atno 17320 bound_to 7965
  144.6947  140.3370  143.7206 LP  0  0  0  0  0  0  0  0  0  0  0  0  # atno 17321 bound_to 7965
  139.6379  144.7652  151.2399 LP  0  0  0  0  0  0  0  0  0  0  0  0  # atno 17342 bound_to 10162
  140.7474  143.6367  150.8373 LP  0  0  0  0  0  0  0  0  0  0  0  0  # atno 17343 bound_to 10162
  157.6931  131.0803  150.7049 LP  0  0  0  0  0  0  0  0  0  0  0  0  # atno 17370 bound_to 10713
  156.7105  130.4650  149.5548 LP  0  0  0  0  0  0  0  0  0  0  0  0  # atno 17371 bound_to 10713
  141.0633  134.0315  157.3629 LP  0  0  0  0  0  0  0  0  0  0  0  0  # atno 17394 bound_to 11000
  139.9093  135.0187  156.7625 LP  0  0  0  0  0  0  0  0  0  0  0  0  # atno 17395 bound_to 11000

$$$$
