AV-unprocessed.smi:112|AV-procd|sdf|1090|dock2
  -GOLD-   2262018193D 1   1.00000     0.00000
 Structure written by MMmdl.
 54 57  0  0  0  0  0  0  0  0  3 V2000
  151.9895  145.1001  158.3635 C   0  0  0  0  0  0  0  0  0  0  0  0
  151.7837  143.5990  158.4899 C   0  0  0  0  0  0  0  0  0  0  0  0
  150.7451  142.9624  157.9015 C   0  0  0  0  0  0  0  0  0  0  0  0
  150.5280  141.6007  157.9921 N   0  0  0  0  0  0  0  0  0  0  0  0
  149.3002  141.0014  157.3370 C   0  0  1  0  0  0  0  0  0  0  0  0
  148.0022  141.7643  157.6395 C   0  0  0  0  0  0  0  0  0  0  0  0
  147.2398  141.6024  156.3391 C   0  0  2  0  0  0  0  0  0  0  0  0
  146.4966  140.3971  156.3513 O   0  0  0  0  0  0  0  0  0  0  0  0
  148.3687  141.5846  155.2956 C   0  0  2  0  0  0  0  0  0  0  0  0
  148.0760  140.8829  153.9578 C   0  0  0  0  0  0  0  0  0  0  0  0
  149.2171  140.9103  153.1265 O   0  0  0  0  0  0  0  0  0  0  0  0
  149.4845  140.9855  155.9517 O   0  0  0  0  0  0  0  0  0  0  0  0
  151.4012  140.8093  158.7713 C   0  0  0  0  0  0  0  0  0  0  0  0
  151.2042  139.6027  158.9238 O   0  0  0  0  0  0  0  0  0  0  0  0
  152.5065  141.4410  159.3856 N   0  0  0  0  0  0  0  0  0  0  0  0
  153.4287  140.6203  160.2037 C   0  0  0  0  0  0  0  0  0  0  0  0
  153.8753  139.3116  159.5144 C   0  0  0  0  0  0  0  0  0  0  0  0
  153.9524  139.2829  158.2857 O   0  0  0  0  0  0  0  0  0  0  0  0
  154.1640  138.2462  160.3027 N   0  0  0  0  0  0  0  0  0  0  0  0
  154.0616  138.2710  161.7722 C   0  0  0  0  0  0  0  0  0  0  0  0
  154.4629  136.8615  162.2589 C   0  0  0  0  0  0  0  0  0  0  0  0
  154.7868  136.1416  160.9832 C   0  0  0  0  0  0  0  0  0  0  0  0
  155.2236  134.8120  160.8581 C   0  0  0  0  0  0  0  0  0  0  0  0
  155.4848  134.2962  159.5643 C   0  0  0  0  0  0  0  0  0  0  0  0
  155.9445  132.9036  159.3939 N   0  3  0  0  0  0  0  0  0  0  0  0
  156.4828  132.5941  158.3359 O   0  0  0  0  0  0  0  0  0  0  0  0
  155.7674  132.1164  160.3181 O   0  5  0  0  0  0  0  0  0  0  0  0
  155.2979  135.1373  158.4352 C   0  0  0  0  0  0  0  0  0  0  0  0
  154.8579  136.4713  158.5794 C   0  0  0  0  0  0  0  0  0  0  0  0
  154.6033  136.9641  159.8778 C   0  0  0  0  0  0  0  0  0  0  0  0
  152.7467  142.8332  159.2836 C   0  0  0  0  0  0  0  0  0  0  0  0
  153.7130  143.3472  159.8506 O   0  0  0  0  0  0  0  0  0  0  0  0
  151.2143  145.5668  157.7552 H   0  0  0  0  0  0  0  0  0  0  0  0
  152.9524  145.3149  157.8989 H   0  0  0  0  0  0  0  0  0  0  0  0
  151.9703  145.5714  159.3467 H   0  0  0  0  0  0  0  0  0  0  0  0
  150.0494  143.5566  157.3262 H   0  0  0  0  0  0  0  0  0  0  0  0
  149.2441  139.9664  157.6755 H   0  0  0  0  0  0  0  0  0  0  0  0
  147.4951  141.3495  158.5115 H   0  0  0  0  0  0  0  0  0  0  0  0
  148.1993  142.8182  157.8297 H   0  0  0  0  0  0  0  0  0  0  0  0
  146.5487  142.4287  156.1708 H   0  0  0  0  0  0  0  0  0  0  0  0
  145.7981  140.4790  156.9825 H   0  0  0  0  0  0  0  0  0  0  0  0
  148.6550  142.6167  155.0888 H   0  0  0  0  0  0  0  0  0  0  0  0
  147.8164  139.8398  154.1392 H   0  0  0  0  0  0  0  0  0  0  0  0
  147.2280  141.3328  153.4415 H   0  0  0  0  0  0  0  0  0  0  0  0
  149.1141  140.2603  152.4486 H   0  0  0  0  0  0  0  0  0  0  0  0
  154.3148  141.1976  160.4708 H   0  0  0  0  0  0  0  0  0  0  0  0
  152.9700  140.3791  161.1634 H   0  0  0  0  0  0  0  0  0  0  0  0
  154.7332  139.0217  162.1910 H   0  0  0  0  0  0  0  0  0  0  0  0
  153.0444  138.5054  162.0891 H   0  0  0  0  0  0  0  0  0  0  0  0
  155.3330  136.8893  162.9155 H   0  0  0  0  0  0  0  0  0  0  0  0
  153.6440  136.3629  162.7783 H   0  0  0  0  0  0  0  0  0  0  0  0
  155.3542  134.2058  161.7425 H   0  0  0  0  0  0  0  0  0  0  0  0
  155.4918  134.7648  157.4402 H   0  0  0  0  0  0  0  0  0  0  0  0
  154.7300  137.0758  157.6956 H   0  0  0  0  0  0  0  0  0  0  0  0
  1  2  1  0  0  0  0
  1 33  1  0  0  0  0
  1 34  1  0  0  0  0
  1 35  1  0  0  0  0
  2 31  1  0  0  0  0
  2  3  2  0  0  0  0
  3  4  1  0  0  0  0
  3 36  1  0  0  0  0
  4  5  1  0  0  0  0
  4 13  1  0  0  0  0
  5 12  1  0  0  0  0
  5  6  1  0  0  0  0
  5 37  1  0  0  0  0
  6  7  1  0  0  0  0
  6 38  1  0  0  0  0
  6 39  1  0  0  0  0
  7  8  1  0  0  0  0
  7  9  1  0  0  0  0
  7 40  1  0  0  0  0
  8 41  1  0  0  0  0
  9 10  1  0  0  0  0
  9 12  1  0  0  0  0
  9 42  1  0  0  0  0
 10 11  1  0  0  0  0
 10 43  1  0  0  0  0
 10 44  1  0  0  0  0
 11 45  1  0  0  0  0
 13 14  2  0  0  0  0
 13 15  1  0  0  0  0
 15 16  1  0  0  0  0
 15 31  1  0  0  0  0
 16 17  1  0  0  0  0
 16 46  1  0  0  0  0
 16 47  1  0  0  0  0
 17 18  2  0  0  0  0
 17 19  1  0  0  0  0
 19 30  1  0  0  0  0
 19 20  1  0  0  0  0
 20 21  1  0  0  0  0
 20 48  1  0  0  0  0
 20 49  1  0  0  0  0
 21 22  1  0  0  0  0
 21 50  1  0  0  0  0
 21 51  1  0  0  0  0
 22 30  2  0  0  0  0
 22 23  1  0  0  0  0
 23 24  2  0  0  0  0
 23 52  1  0  0  0  0
 24 25  1  0  0  0  0
 24 28  1  0  0  0  0
 25 26  2  0  0  0  0
 25 27  1  0  0  0  0
 28 29  2  0  0  0  0
 28 53  1  0  0  0  0
 29 30  1  0  0  0  0
 29 54  1  0  0  0  0
 31 32  2  0  0  0  0
M  CHG  1  25   1
M  CHG  1  27  -1
M  END
> <s_m_source_file>
AV-unprocessed.smi

> <i_m_source_file_index>
112

> <i_lp_mmshare_version>
43012

> <i_f3d_flags>
0

> <s_epik_input>
W09IXVtDSDJdW0NAQEhdKE8xKVtDQEhdKFtPSF0pW0NIMl1bQ0BIXTFuKFtjSF1jMltDSDNdKWMoPU8pbihjMj1PKVtDSDJdQyg9TylOKFtDSDJdW0NIMl0zKWMoYzM0KVtjSF1bY0hdYyhbY0hdNClbTitdKD1PKVtPLV0=

> <s_epik_cmdline>
J2VwaWtfcHl0aG9uJywgJy1waCcsICc3LjAnLCAnLXRuJywgJzgnLCAnLW1hJywgJzIwMCcsICctbWV0YWxfYmluZGluZycsICctaW1hZScsICc8aW5maWxlLm1hZT4nLCAnLW9tYWUnLCAnPG91dGZpbGUubWFlPic=

> <r_lp_tautomer_probability>
1

> <r_epik_Ionization_Penalty>
2.5696e-07

> <r_epik_Ionization_Penalty_Charging>
1.04886e-08

> <r_epik_Ionization_Penalty_Neutral>
2.46472e-07

> <r_epik_State_Penalty>
-0

> <r_epik_Charging_Adjusted_Penalty>
1.04886e-08

> <i_epik_Tot_Q>
0

> <i_epik_Tot_abs_Q>
2

> <r_epik_Metal_State_Penalty>
-0

> <b_epik_Metal_Only>
0

> <s_epik_Chemistry_Notes>
This compound contains an acetal/aminal-like group ( X-CH(R)-Y where X, Y are N, S, or O) that may be acid/base labile, releasing an aldehyde.

> <s_lp_Force_Field>
OPLS_2005

> <r_lp_Energy>
55.491

> <b_lp_Chiralities_Consistent>
1

> <s_lp_Variant>
AV-unprocessed.smi:112-8

> <Gold.Version>
5.8.1

> <Gold.Id.Protein>
6NUR|6NUR_protein|mol2

> <Gold.PLP.Fitness>
54.3013

> <Gold.PLP.PLP>
-44.6076

> <Gold.PLP.part.hbond>
-3.3096

> <Gold.PLP.part.metal>
0.0000

> <Gold.PLP.part.buried>
-3.3220

> <Gold.PLP.part.nonpolar>
-36.6225

> <Gold.PLP.part.repulsive>
0.0661

> <Gold.PLP.ligand.clash>
0.0000

> <Gold.PLP.ligand.torsion>
0.9002

> <Gold.PLP.Chemscore.Hbond>
2.8003

> <Gold.PLP.Chemscore.CHOScore>
1.0000

> <Gold.PLP.Chemscore.Metal>
0.0000

> <Gold.Chemscore.Hbonds>
donor molecule, donor type, donor heavy atom, donor atom, acceptor molecule, acceptor atom, score
      L1  H    11    45       P1  7957  0.49
      P1  H  7989  7998       L1    11  0.01
      P1  H  7997  8010       L1    18  1.00
      P1  H  8011  8017       L1    11  1.00
      L1  C     3    36       P1  8028  1.00

> <Gold.PLP.Chemscore.Internal.Correction>
0.0932

> <Gold.Rescore>
     Score         DG    S(hbond)    S(metal)    S(lipo)     H(rot)  DE(clash)    DE(int)     intcor
     11.61     -15.04       2.17        0.00      91.80       3.29       0.10       3.33       ----

> <Gold.Chemscore.Fitness>
11.6095

> <Gold.Chemscore.DG>
-15.0403

> <Gold.Chemscore.ZeroCoef>
-5.4800

> <Gold.Chemscore.Hbond>
2.1697

> <Gold.Chemscore.Metal>
0.0000

> <Gold.Chemscore.Lipo>
91.7955

> <Gold.Chemscore.Internal_Hbond>
0.0000

> <Gold.Chemscore.DEClash>
0.1001

> <Gold.Chemscore.DEInternal>
3.3308

> <Gold.Chemscore.Rot>
3.2916

> <Gold.Chemscore.Internal.Correction>
   9.000000E+99

> <Gold.Chemscore.Hbonds>
donor molecule, donor type, donor heavy atom, donor atom, acceptor molecule, acceptor atom, score
      L1  H    11    45       P1  7957  0.49
      P1  H  7989  7998       L1    11  0.01
      P1  H  7997  8010       L1    18  0.96
      P1  H  8011  8017       L1    11  0.55

> <Gold.Chemscore.Hbond.Weighted>
-7.2468

> <Gold.Chemscore.Metal.Weighted>
-0.0000

> <Gold.Chemscore.Lipo.Weighted>
-10.7401

> <Gold.Chemscore.Internal_Hbond.Weighted>
0.0000

> <Gold.Chemscore.DEClash.Weighted>
0.1001

> <Gold.Chemscore.DEInternal.Weighted>
3.3308

> <Gold.Chemscore.Rot.Weighted>
8.4265

> <Gold.Chemscore.Internal.Correction.Weighted>
   9.000000E+99

> <Gold.Protein.RotatedTorsions>
[ 6907 6896 6895 6894 ] final  -77.05 input  -60.11 | X-H torsion
[ 7974 7965 7964 7962 ] final -140.90 input  175.53 | X-H torsion
[ 8008 7997 7996 7995 ] final    2.89 input   59.86 | X-H torsion
[ 10167 10162 10161 10158 ] final -116.83 input  -65.29 | X-H torsion
[ 10718 10713 10712 10709 ] final  159.86 input   66.30 | X-H torsion
[ 10763 10752 10751 10750 ] final  -78.99 input  -60.55 | X-H torsion
[ 11005 11000 10999 10996 ] final  121.75 input  -57.11 | X-H torsion

> <Gold.Protein.ActiveResidues>
 VAL166  LYS551  ARG553  GLY616  TRP617  ASP618  TYR619  PRO620  LYS621  CYS622 
 ASP623  PHE694  ASN695  SER759  ASP760  ASP761  ALA762  ILE779  LEU786  VAL792 
 PHE793  MET794  SER795  GLU796  ALA797  LYS798  CYS799  TRP800  GLU811  SER814 

> <Gold.Protein.RotatedAtoms>
  150.7009  134.4480  159.5322 H   0  0  0  0  0  0  0  0  0  0  0  0  # atno 6907 bound_to 6896
  152.2178  134.8439  160.0499 H   0  0  0  0  0  0  0  0  0  0  0  0  # atno 6908 bound_to 6896
  151.9301  133.3574  159.3964 H   0  0  0  0  0  0  0  0  0  0  0  0  # atno 6909 bound_to 6896
  144.8561  140.6145  143.5358 H   0  0  0  0  0  0  0  0  0  0  0  0  # atno 7974 bound_to 7965
  154.6970  140.2665  155.6756 H   0  0  0  0  0  0  0  0  0  0  0  0  # atno 8008 bound_to 7997
  156.2752  140.2780  156.1491 H   0  0  0  0  0  0  0  0  0  0  0  0  # atno 8009 bound_to 7997
  155.0817  140.0372  157.2631 H   0  0  0  0  0  0  0  0  0  0  0  0  # atno 8010 bound_to 7997
  140.0750  143.4842  152.1958 H   0  0  0  0  0  0  0  0  0  0  0  0  # atno 10167 bound_to 10162
  157.1584  131.0581  151.2245 H   0  0  0  0  0  0  0  0  0  0  0  0  # atno 10718 bound_to 10713
  154.5329  135.5711  153.6774 H   0  0  0  0  0  0  0  0  0  0  0  0  # atno 10763 bound_to 10752
  152.9944  135.6209  154.2605 H   0  0  0  0  0  0  0  0  0  0  0  0  # atno 10764 bound_to 10752
  154.2532  135.2858  155.2788 H   0  0  0  0  0  0  0  0  0  0  0  0  # atno 10765 bound_to 10752
  139.9239  134.9639  156.8005 H   0  0  0  0  0  0  0  0  0  0  0  0  # atno 11005 bound_to 11000
  145.4403  139.1536  143.3974 LP  0  0  0  0  0  0  0  0  0  0  0  0  # atno 17320 bound_to 7965
  146.2824  140.4524  142.8771 LP  0  0  0  0  0  0  0  0  0  0  0  0  # atno 17321 bound_to 7965
  139.5813  144.7512  151.3632 LP  0  0  0  0  0  0  0  0  0  0  0  0  # atno 17342 bound_to 10162
  140.7107  143.7398  150.7561 LP  0  0  0  0  0  0  0  0  0  0  0  0  # atno 17343 bound_to 10162
  157.4156  130.7409  149.6872 LP  0  0  0  0  0  0  0  0  0  0  0  0  # atno 17370 bound_to 10713
  155.9758  130.4084  150.3823 LP  0  0  0  0  0  0  0  0  0  0  0  0  # atno 17371 bound_to 10713
  140.6393  133.9833  155.7700 LP  0  0  0  0  0  0  0  0  0  0  0  0  # atno 17394 bound_to 11000
  141.0781  134.0103  157.3427 LP  0  0  0  0  0  0  0  0  0  0  0  0  # atno 17395 bound_to 11000

$$$$
