AV-unprocessed.smi:2079|AV-procd|sdf|8477|dock8
  -GOLD-   2272011183D 1   1.00000     0.00000
 Structure written by MMmdl.
 42 43  0  0  0  0  0  0  0  0  2 V2000
  151.0630  141.6989  156.2685 C   0  0  0  0  0  0  0  0  0  0  0  0
  151.1129  140.3243  155.6950 C   0  0  0  0  0  0  0  0  0  0  0  0
  150.1442  139.4486  155.2918 C   0  0  0  0  0  0  0  0  0  0  0  0
  150.8923  138.3224  154.8571 C   0  0  0  0  0  0  0  0  0  0  0  0
  150.2423  137.1655  154.3563 N   0  0  0  0  0  0  0  0  0  0  0  0
  150.0168  136.0095  155.0036 C   0  0  0  0  0  0  0  0  0  0  0  0
  150.3500  135.7677  156.1641 O   0  0  0  0  0  0  0  0  0  0  0  0
  149.3754  135.1273  154.2233 N   0  0  0  0  0  0  0  0  0  0  0  0
  148.9781  133.7870  154.6383 C   0  0  0  0  0  0  0  0  0  0  0  0
  148.3462  132.9992  153.4733 C   0  0  0  0  0  0  0  0  0  0  0  0
  147.3237  133.7748  152.7206 N   0  3  2  0  0  0  0  0  0  0  0  0
  146.4603  134.5812  153.6257 C   0  0  0  0  0  0  0  0  0  0  0  0
  145.5617  135.5445  152.8344 C   0  0  0  0  0  0  0  0  0  0  0  0
  144.7166  134.7891  151.8030 C   0  0  0  0  0  0  0  0  0  0  0  0
  145.6281  133.9525  150.8952 C   0  0  0  0  0  0  0  0  0  0  0  0
  146.5437  133.0050  151.7000 C   0  0  2  0  0  0  0  0  0  0  0  0
  145.7689  131.8056  152.2875 C   0  0  0  0  0  0  0  0  0  0  0  0
  152.1995  138.4965  154.9786 N   0  0  0  0  0  0  0  0  0  0  0  0
  152.3475  139.7800  155.5175 O   0  0  0  0  0  0  0  0  0  0  0  0
  150.0685  142.1313  156.1570 H   0  0  0  0  0  0  0  0  0  0  0  0
  151.7750  142.3546  155.7667 H   0  0  0  0  0  0  0  0  0  0  0  0
  151.3076  141.6825  157.3305 H   0  0  0  0  0  0  0  0  0  0  0  0
  149.0740  139.5930  155.3094 H   0  0  0  0  0  0  0  0  0  0  0  0
  149.9102  137.2278  153.4051 H   0  0  0  0  0  0  0  0  0  0  0  0
  149.1376  135.4049  153.2819 H   0  0  0  0  0  0  0  0  0  0  0  0
  149.8377  133.2512  155.0449 H   0  0  0  0  0  0  0  0  0  0  0  0
  148.2677  133.9086  155.4552 H   0  0  0  0  0  0  0  0  0  0  0  0
  149.1163  132.6275  152.7971 H   0  0  0  0  0  0  0  0  0  0  0  0
  147.8578  132.1141  153.8832 H   0  0  0  0  0  0  0  0  0  0  0  0
  145.8561  133.9237  154.2516 H   0  0  0  0  0  0  0  0  0  0  0  0
  147.0847  135.1642  154.3039 H   0  0  0  0  0  0  0  0  0  0  0  0
  144.9134  136.0950  153.5170 H   0  0  0  0  0  0  0  0  0  0  0  0
  146.1794  136.2875  152.3282 H   0  0  0  0  0  0  0  0  0  0  0  0
  143.9964  134.1460  152.3097 H   0  0  0  0  0  0  0  0  0  0  0  0
  144.1364  135.4927  151.2053 H   0  0  0  0  0  0  0  0  0  0  0  0
  145.0274  133.3863  150.1826 H   0  0  0  0  0  0  0  0  0  0  0  0
  146.2465  134.6252  150.2989 H   0  0  0  0  0  0  0  0  0  0  0  0
  147.2514  132.6010  150.9772 H   0  0  0  0  0  0  0  0  0  0  0  0
  145.2041  131.2948  151.5073 H   0  0  0  0  0  0  0  0  0  0  0  0
  145.0574  132.1062  153.0560 H   0  0  0  0  0  0  0  0  0  0  0  0
  146.4383  131.0647  152.7236 H   0  0  0  0  0  0  0  0  0  0  0  0
  147.8503  134.4555  152.1916 H   0  0  0  0  0  0  0  0  0  0  0  0
  1  2  1  0  0  0  0
  1 20  1  0  0  0  0
  1 21  1  0  0  0  0
  1 22  1  0  0  0  0
  2 19  1  0  0  0  0
  2  3  2  0  0  0  0
  3  4  1  0  0  0  0
  3 23  1  0  0  0  0
  4  5  1  0  0  0  0
  4 18  2  0  0  0  0
  5  6  1  0  0  0  0
  5 24  1  0  0  0  0
  6  7  2  0  0  0  0
  6  8  1  0  0  0  0
  8  9  1  0  0  0  0
  8 25  1  0  0  0  0
  9 10  1  0  0  0  0
  9 26  1  0  0  0  0
  9 27  1  0  0  0  0
 10 11  1  0  0  0  0
 10 28  1  0  0  0  0
 10 29  1  0  0  0  0
 11 16  1  0  0  0  0
 11 12  1  0  0  0  0
 11 42  1  0  0  0  0
 12 13  1  0  0  0  0
 12 30  1  0  0  0  0
 12 31  1  0  0  0  0
 13 14  1  0  0  0  0
 13 32  1  0  0  0  0
 13 33  1  0  0  0  0
 14 15  1  0  0  0  0
 14 34  1  0  0  0  0
 14 35  1  0  0  0  0
 15 16  1  0  0  0  0
 15 36  1  0  0  0  0
 15 37  1  0  0  0  0
 16 17  1  0  0  0  0
 16 38  1  0  0  0  0
 17 39  1  0  0  0  0
 17 40  1  0  0  0  0
 17 41  1  0  0  0  0
 18 19  1  0  0  0  0
M  CHG  1  11   1
M  END
> <s_m_source_file>
AV-unprocessed.smi

> <i_m_source_file_index>
2079

> <i_lp_mmshare_version>
43012

> <i_f3d_flags>
0

> <s_epik_input>
W0NIM11jMVtjSF1jKG5vMSlbTkhdQyg9TylbTkhdW0NIMl1bQ0gyXU4yW0NIMl1bQ0gyXVtDSDJdW0NIMl1bQ0BIXTJbQ0gzXQ==

> <s_epik_cmdline>
J2VwaWtfcHl0aG9uJywgJy1waCcsICc3LjAnLCAnLXRuJywgJzgnLCAnLW1hJywgJzIwMCcsICctbWV0YWxfYmluZGluZycsICctaW1hZScsICc8aW5maWxlLm1hZT4nLCAnLW9tYWUnLCAnPG91dGZpbGUubWFlPic=

> <r_epik_Ionization_Penalty>
0.00265971

> <r_epik_Ionization_Penalty_Charging>
0.00262393

> <r_epik_Ionization_Penalty_Neutral>
3.57846e-05

> <r_epik_State_Penalty>
0.00182566

> <r_epik_Charging_Adjusted_Penalty>
0.00444959

> <i_epik_Tot_Q>
1

> <i_epik_Tot_abs_Q>
1

> <r_epik_Metal_State_Penalty>
0.0216344

> <b_epik_Metal_Only>
0

> <s_lp_Force_Field>
OPLS_2005

> <r_lp_Energy>
16.7127

> <b_lp_Chiralities_Consistent>
1

> <s_lp_Variant>
AV-unprocessed.smi:2079-3

> <Gold.Version>
5.8.1

> <Gold.Id.Protein>
6NUR|6NUR_protein|mol2

> <Gold.PLP.Fitness>
44.2477

> <Gold.PLP.PLP>
-31.3082

> <Gold.PLP.part.hbond>
-5.2627

> <Gold.PLP.part.metal>
0.0000

> <Gold.PLP.part.buried>
-3.8233

> <Gold.PLP.part.nonpolar>
-22.9113

> <Gold.PLP.part.repulsive>
0.1594

> <Gold.PLP.ligand.clash>
0.0000

> <Gold.PLP.ligand.torsion>
0.8742

> <Gold.PLP.Chemscore.Hbond>
4.8794

> <Gold.PLP.Chemscore.CHOScore>
0.0000

> <Gold.PLP.Chemscore.Metal>
0.0000

> <Gold.Chemscore.Hbonds>
donor molecule, donor type, donor heavy atom, donor atom, acceptor molecule, acceptor atom, score
      L1  H     5    24       P1  7948  0.93
      L1  H     8    25       P1  7948  1.00
      L1  H    11    42       P1  7948  1.82
      P1  H  7997  8008       L1    19  0.73

> <Gold.PLP.Chemscore.Internal.Correction>
0.0496

> <Gold.Rescore>
     Score         DG    S(hbond)    S(metal)    S(lipo)     H(rot)  DE(clash)    DE(int)     intcor
     16.18     -17.14       2.81        0.00      53.68       1.57       0.13       0.82       ----

> <Gold.Chemscore.Fitness>
16.1786

> <Gold.Chemscore.DG>
-17.1363

> <Gold.Chemscore.ZeroCoef>
-5.4800

> <Gold.Chemscore.Hbond>
2.8127

> <Gold.Chemscore.Metal>
0.0000

> <Gold.Chemscore.Lipo>
53.6767

> <Gold.Chemscore.Internal_Hbond>
0.0000

> <Gold.Chemscore.DEClash>
0.1341

> <Gold.Chemscore.DEInternal>
0.8235

> <Gold.Chemscore.Rot>
1.5697

> <Gold.Chemscore.Internal.Correction>
   9.000000E+99

> <Gold.Chemscore.Hbonds>
donor molecule, donor type, donor heavy atom, donor atom, acceptor molecule, acceptor atom, score
      L1  H     5    24       P1  7948  0.33
      L1  H     8    25       P1  7948  0.34
      L1  H    11    42       P1  7948  0.30
      P1  H  7997  8008       L1    19  0.60

> <Gold.Chemscore.Hbond.Weighted>
-9.3946

> <Gold.Chemscore.Metal.Weighted>
-0.0000

> <Gold.Chemscore.Lipo.Weighted>
-6.2802

> <Gold.Chemscore.Internal_Hbond.Weighted>
0.0000

> <Gold.Chemscore.DEClash.Weighted>
0.1341

> <Gold.Chemscore.DEInternal.Weighted>
0.8235

> <Gold.Chemscore.Rot.Weighted>
4.0185

> <Gold.Chemscore.Internal.Correction.Weighted>
   9.000000E+99

> <Gold.Protein.RotatedTorsions>
[ 6907 6896 6895 6894 ] final   50.16 input  -60.11 | X-H torsion
[ 7974 7965 7964 7962 ] final -110.30 input  175.53 | X-H torsion
[ 8008 7997 7996 7995 ] final  -28.69 input   59.86 | X-H torsion
[ 10167 10162 10161 10158 ] final  -39.92 input  -65.29 | X-H torsion
[ 10718 10713 10712 10709 ] final   -7.59 input   66.30 | X-H torsion
[ 10763 10752 10751 10750 ] final  172.27 input  -60.55 | X-H torsion
[ 11005 11000 10999 10996 ] final   38.24 input  -57.11 | X-H torsion

> <Gold.Protein.ActiveResidues>
 VAL166  LYS551  ARG553  GLY616  TRP617  ASP618  TYR619  PRO620  LYS621  CYS622 
 ASP623  PHE694  ASN695  SER759  ASP760  ASP761  ALA762  ILE779  LEU786  VAL792 
 PHE793  MET794  SER795  GLU796  ALA797  LYS798  CYS799  TRP800  GLU811  SER814 

> <Gold.Protein.RotatedAtoms>
  152.2987  134.7636  160.0362 H   0  0  0  0  0  0  0  0  0  0  0  0  # atno 6907 bound_to 6896
  151.8157  133.3382  159.3577 H   0  0  0  0  0  0  0  0  0  0  0  0  # atno 6908 bound_to 6896
  150.7264  134.5551  159.5858 H   0  0  0  0  0  0  0  0  0  0  0  0  # atno 6909 bound_to 6896
  145.1699  140.8921  143.3541 H   0  0  0  0  0  0  0  0  0  0  0  0  # atno 7974 bound_to 7965
  154.4321  140.1838  156.1129 H   0  0  0  0  0  0  0  0  0  0  0  0  # atno 8008 bound_to 7997
  156.0203  140.3341  155.7007 H   0  0  0  0  0  0  0  0  0  0  0  0  # atno 8009 bound_to 7997
  155.5985  140.0638  157.2730 H   0  0  0  0  0  0  0  0  0  0  0  0  # atno 8010 bound_to 7997
  140.7050  143.3185  151.2851 H   0  0  0  0  0  0  0  0  0  0  0  0  # atno 10167 bound_to 10162
  156.7150  130.5133  149.5882 H   0  0  0  0  0  0  0  0  0  0  0  0  # atno 10718 bound_to 10713
  154.4237  135.2758  155.1959 H   0  0  0  0  0  0  0  0  0  0  0  0  # atno 10763 bound_to 10752
  154.3894  135.6069  153.5838 H   0  0  0  0  0  0  0  0  0  0  0  0  # atno 10764 bound_to 10752
  152.9834  135.5899  154.4537 H   0  0  0  0  0  0  0  0  0  0  0  0  # atno 10765 bound_to 10752
  140.2146  134.3714  155.8033 H   0  0  0  0  0  0  0  0  0  0  0  0  # atno 11005 bound_to 11000
  145.0243  139.3396  143.6056 LP  0  0  0  0  0  0  0  0  0  0  0  0  # atno 17320 bound_to 7965
  146.3470  139.9556  142.8723 LP  0  0  0  0  0  0  0  0  0  0  0  0  # atno 17321 bound_to 7965
  139.6631  144.0154  152.2705 LP  0  0  0  0  0  0  0  0  0  0  0  0  # atno 17342 bound_to 10162
  139.9727  144.6482  150.7973 LP  0  0  0  0  0  0  0  0  0  0  0  0  # atno 17343 bound_to 10162
  156.1634  130.6389  151.0748 LP  0  0  0  0  0  0  0  0  0  0  0  0  # atno 17370 bound_to 10713
  157.6921  131.0806  150.7077 LP  0  0  0  0  0  0  0  0  0  0  0  0  # atno 17371 bound_to 10713
  141.2225  133.7161  156.8475 LP  0  0  0  0  0  0  0  0  0  0  0  0  # atno 17394 bound_to 11000
  140.1914  134.8963  157.3064 LP  0  0  0  0  0  0  0  0  0  0  0  0  # atno 17395 bound_to 11000

$$$$
