AV-unprocessed.smi:3330|AV-procd|sdf|12804|dock4
  -GOLD-   2272019163D 1   1.00000     0.00000
 Structure written by MMmdl.
 39 40  0  0  0  0  0  0  0  0  2 V2000
  146.0678  139.4557  155.2346 C   0  0  0  0  0  0  0  0  0  0  0  0
  147.0562  139.2619  154.0725 C   0  0  1  0  0  0  0  0  0  0  0  0
  146.2780  139.0249  152.8334 N   0  3  0  0  0  0  0  0  0  0  0  0
  145.9712  137.6086  152.5480 C   0  0  0  0  0  0  0  0  0  0  0  0
  144.4717  137.3266  152.7177 C   0  0  0  0  0  0  0  0  0  0  0  0
  144.1756  135.9065  152.5152 N   0  0  0  0  0  0  0  0  0  0  0  0
  144.5774  135.1941  151.4550 C   0  0  0  0  0  0  0  0  0  0  0  0
  145.2469  135.5868  150.5003 O   0  0  0  0  0  0  0  0  0  0  0  0
  144.0532  133.7821  151.6002 C   0  0  0  0  0  0  0  0  0  0  0  0
  143.3417  133.9239  152.8528 N   0  0  0  0  0  0  0  0  0  0  0  0
  143.4284  135.1634  153.3521 C   0  0  0  0  0  0  0  0  0  0  0  0
  142.9005  135.5481  154.3944 O   0  0  0  0  0  0  0  0  0  0  0  0
  148.0165  140.4719  153.8986 C   0  0  1  0  0  0  0  0  0  0  0  0
  147.2860  141.8268  153.8347 C   0  0  0  0  0  0  0  0  0  0  0  0
  149.0304  140.5037  154.9478 N   0  0  0  0  0  0  0  0  0  0  0  0
  148.8641  140.6088  156.3154 C   0  0  0  0  0  0  0  0  0  0  0  0
  150.1033  140.5406  156.8845 C   0  0  0  0  0  0  0  0  0  0  0  0
  150.9776  140.3827  155.7738 C   0  0  0  0  0  0  0  0  0  0  0  0
  150.3329  140.3524  154.6190 N   0  0  0  0  0  0  0  0  0  0  0  0
  146.5792  139.5181  156.1950 H   0  0  0  0  0  0  0  0  0  0  0  0
  145.3745  138.6164  155.3010 H   0  0  0  0  0  0  0  0  0  0  0  0
  145.4779  140.3642  155.1087 H   0  0  0  0  0  0  0  0  0  0  0  0
  147.6458  138.3706  154.2952 H   0  0  0  0  0  0  0  0  0  0  0  0
  145.4025  139.5232  152.9037 H   0  0  0  0  0  0  0  0  0  0  0  0
  146.2736  137.3621  151.5307 H   0  0  0  0  0  0  0  0  0  0  0  0
  146.5570  136.9761  153.2160 H   0  0  0  0  0  0  0  0  0  0  0  0
  144.1407  137.6429  153.7085 H   0  0  0  0  0  0  0  0  0  0  0  0
  143.8982  137.9255  152.0076 H   0  0  0  0  0  0  0  0  0  0  0  0
  143.3820  133.5144  150.7838 H   0  0  0  0  0  0  0  0  0  0  0  0
  144.8635  133.0566  151.6770 H   0  0  0  0  0  0  0  0  0  0  0  0
  142.8331  133.1661  153.2852 H   0  0  0  0  0  0  0  0  0  0  0  0
  148.5405  140.3521  152.9481 H   0  0  0  0  0  0  0  0  0  0  0  0
  146.6701  141.9098  152.9397 H   0  0  0  0  0  0  0  0  0  0  0  0
  147.9965  142.6537  153.8059 H   0  0  0  0  0  0  0  0  0  0  0  0
  146.6384  141.9756  154.6993 H   0  0  0  0  0  0  0  0  0  0  0  0
  147.8892  140.7164  156.7675 H   0  0  0  0  0  0  0  0  0  0  0  0
  150.3485  140.5906  157.9350 H   0  0  0  0  0  0  0  0  0  0  0  0
  152.0530  140.2826  155.7727 H   0  0  0  0  0  0  0  0  0  0  0  0
  146.8024  139.4061  152.0583 H   0  0  0  0  0  0  0  0  0  0  0  0
  1  2  1  0  0  0  0
  1 20  1  0  0  0  0
  1 21  1  0  0  0  0
  1 22  1  0  0  0  0
  2  3  1  0  0  0  0
  2 13  1  0  0  0  0
  2 23  1  0  0  0  0
  3  4  1  0  0  0  0
  3 24  1  0  0  0  0
  3 39  1  0  0  0  0
  4  5  1  0  0  0  0
  4 25  1  0  0  0  0
  4 26  1  0  0  0  0
  5  6  1  0  0  0  0
  5 27  1  0  0  0  0
  5 28  1  0  0  0  0
  6 11  1  0  0  0  0
  6  7  1  0  0  0  0
  7  8  2  0  0  0  0
  7  9  1  0  0  0  0
  9 10  1  0  0  0  0
  9 29  1  0  0  0  0
  9 30  1  0  0  0  0
 10 11  1  0  0  0  0
 10 31  1  0  0  0  0
 11 12  2  0  0  0  0
 13 14  1  0  0  0  0
 13 15  1  0  0  0  0
 13 32  1  0  0  0  0
 14 33  1  0  0  0  0
 14 34  1  0  0  0  0
 14 35  1  0  0  0  0
 15 19  1  0  0  0  0
 15 16  1  0  0  0  0
 16 17  2  0  0  0  0
 16 36  1  0  0  0  0
 17 18  1  0  0  0  0
 17 37  1  0  0  0  0
 18 19  2  0  0  0  0
 18 38  1  0  0  0  0
M  CHG  1   3   1
M  END
> <s_m_source_file>
AV-unprocessed.smi

> <i_m_source_file_index>
3330

> <i_lp_mmshare_version>
43012

> <i_f3d_flags>
0

> <s_epik_input>
bjFbY0hdW2NIXVtjSF1uMVtDQEBIXShbQ0gzXSlbQ0BIXShbQ0gzXSlbTkhdW0NIMl1bQ0gyXU4yQyg9TylbQ0gyXVtOSF1DMj1P

> <s_epik_cmdline>
J2VwaWtfcHl0aG9uJywgJy1waCcsICc3LjAnLCAnLXRuJywgJzgnLCAnLW1hJywgJzIwMCcsICctbWV0YWxfYmluZGluZycsICctaW1hZScsICc8aW5maWxlLm1hZT4nLCAnLW9tYWUnLCAnPG91dGZpbGUubWFlPic=

> <r_lp_tautomer_probability>
1

> <r_epik_Ionization_Penalty>
0.0124905

> <r_epik_Ionization_Penalty_Charging>
0.0123685

> <r_epik_Ionization_Penalty_Neutral>
0.000122059

> <r_epik_State_Penalty>
0.00957041

> <r_epik_Charging_Adjusted_Penalty>
0.0219389

> <i_epik_Tot_Q>
1

> <i_epik_Tot_abs_Q>
1

> <r_epik_Metal_State_Penalty>
0.0858301

> <b_epik_Metal_Only>
0

> <s_lp_Force_Field>
OPLS_2005

> <r_lp_Energy>
25.1369

> <b_lp_Chiralities_Consistent>
1

> <s_lp_Variant>
AV-unprocessed.smi:3330-4

> <Gold.Version>
5.8.1

> <Gold.Id.Protein>
6NUR|6NUR_protein|mol2

> <Gold.PLP.Fitness>
38.5642

> <Gold.PLP.PLP>
-28.4533

> <Gold.PLP.part.hbond>
-3.0000

> <Gold.PLP.part.metal>
0.0000

> <Gold.PLP.part.buried>
-5.2944

> <Gold.PLP.part.nonpolar>
-21.4669

> <Gold.PLP.part.repulsive>
0.6879

> <Gold.PLP.ligand.clash>
0.0000

> <Gold.PLP.ligand.torsion>
1.0473

> <Gold.PLP.Chemscore.Hbond>
4.0000

> <Gold.PLP.Chemscore.CHOScore>
0.0000

> <Gold.PLP.Chemscore.Metal>
0.0000

> <Gold.Chemscore.Hbonds>
donor molecule, donor type, donor heavy atom, donor atom, acceptor molecule, acceptor atom, score
      L1  H     3    24       P1 10175  2.00
      L1  H    10    31       P1 10957  0.96
      P1  H  7989  7998       L1    19  1.00

> <Gold.PLP.Chemscore.Internal.Correction>
0.2054

> <Gold.Rescore>
     Score         DG    S(hbond)    S(metal)    S(lipo)     H(rot)  DE(clash)    DE(int)     intcor
     12.09     -13.17       2.67        0.00      47.82       2.67       0.01       1.07       ----

> <Gold.Chemscore.Fitness>
12.0884

> <Gold.Chemscore.DG>
-13.1675

> <Gold.Chemscore.ZeroCoef>
-5.4800

> <Gold.Chemscore.Hbond>
2.6705

> <Gold.Chemscore.Metal>
0.0000

> <Gold.Chemscore.Lipo>
47.8174

> <Gold.Chemscore.Internal_Hbond>
0.0000

> <Gold.Chemscore.DEClash>
0.0069

> <Gold.Chemscore.DEInternal>
1.0721

> <Gold.Chemscore.Rot>
2.6666

> <Gold.Chemscore.Internal.Correction>
   9.000000E+99

> <Gold.Chemscore.Hbonds>
donor molecule, donor type, donor heavy atom, donor atom, acceptor molecule, acceptor atom, score
      L1  H     3    24       P1 10175  0.95
      L1  H    10    31       P1 10957  0.77
      P1  H  7989  7998       L1    19  0.29

> <Gold.Chemscore.Hbond.Weighted>
-8.9193

> <Gold.Chemscore.Metal.Weighted>
-0.0000

> <Gold.Chemscore.Lipo.Weighted>
-5.5946

> <Gold.Chemscore.Internal_Hbond.Weighted>
0.0000

> <Gold.Chemscore.DEClash.Weighted>
0.0069

> <Gold.Chemscore.DEInternal.Weighted>
1.0721

> <Gold.Chemscore.Rot.Weighted>
6.8265

> <Gold.Chemscore.Internal.Correction.Weighted>
   9.000000E+99

> <Gold.Protein.RotatedTorsions>
[ 6907 6896 6895 6894 ] final  -68.12 input  -60.11 | X-H torsion
[ 7974 7965 7964 7962 ] final   27.97 input  175.53 | X-H torsion
[ 8008 7997 7996 7995 ] final -115.82 input   59.86 | X-H torsion
[ 10167 10162 10161 10158 ] final  177.89 input  -65.29 | X-H torsion
[ 10718 10713 10712 10709 ] final  129.28 input   66.30 | X-H torsion
[ 10763 10752 10751 10750 ] final -106.49 input  -60.55 | X-H torsion
[ 11005 11000 10999 10996 ] final   83.95 input  -57.11 | X-H torsion

> <Gold.Protein.ActiveResidues>
 VAL166  LYS551  ARG553  GLY616  TRP617  ASP618  TYR619  PRO620  LYS621  CYS622 
 ASP623  PHE694  ASN695  SER759  ASP760  ASP761  ALA762  ILE779  LEU786  VAL792 
 PHE793  MET794  SER795  GLU796  ALA797  LYS798  CYS799  TRP800  GLU811  SER814 

> <Gold.Protein.RotatedAtoms>
  150.7373  134.5784  159.5925 H   0  0  0  0  0  0  0  0  0  0  0  0  # atno 6907 bound_to 6896
  152.3204  134.7384  160.0324 H   0  0  0  0  0  0  0  0  0  0  0  0  # atno 6908 bound_to 6896
  151.7901  133.3323  159.3533 H   0  0  0  0  0  0  0  0  0  0  0  0  # atno 6909 bound_to 6896
  146.1755  139.7119  142.8937 H   0  0  0  0  0  0  0  0  0  0  0  0  # atno 7974 bound_to 7965
  155.0580  140.0393  157.2567 H   0  0  0  0  0  0  0  0  0  0  0  0  # atno 8008 bound_to 7997
  154.7083  140.2687  155.6629 H   0  0  0  0  0  0  0  0  0  0  0  0  # atno 8009 bound_to 7997
  156.2781  140.2727  156.1716 H   0  0  0  0  0  0  0  0  0  0  0  0  # atno 8010 bound_to 7997
  139.5271  144.2745  152.0599 H   0  0  0  0  0  0  0  0  0  0  0  0  # atno 10167 bound_to 10162
  157.5168  131.1097  150.9212 H   0  0  0  0  0  0  0  0  0  0  0  0  # atno 10718 bound_to 10713
  154.8015  135.4710  154.0288 H   0  0  0  0  0  0  0  0  0  0  0  0  # atno 10763 bound_to 10752
  153.1790  135.6837  153.8511 H   0  0  0  0  0  0  0  0  0  0  0  0  # atno 10764 bound_to 10752
  153.8068  135.3222  155.3374 H   0  0  0  0  0  0  0  0  0  0  0  0  # atno 10765 bound_to 10752
  139.9015  134.8182  156.2379 H   0  0  0  0  0  0  0  0  0  0  0  0  # atno 11005 bound_to 11000
  145.4223  141.0407  143.2957 LP  0  0  0  0  0  0  0  0  0  0  0  0  # atno 17320 bound_to 7965
  144.8229  139.5760  143.6978 LP  0  0  0  0  0  0  0  0  0  0  0  0  # atno 17321 bound_to 7965
  140.2203  144.4473  150.6345 LP  0  0  0  0  0  0  0  0  0  0  0  0  # atno 17342 bound_to 10162
  140.6423  143.2206  151.6264 LP  0  0  0  0  0  0  0  0  0  0  0  0  # atno 17343 bound_to 10162
  156.9835  130.5536  149.5298 LP  0  0  0  0  0  0  0  0  0  0  0  0  # atno 17370 bound_to 10713
  156.0326  130.5416  150.8573 LP  0  0  0  0  0  0  0  0  0  0  0  0  # atno 17371 bound_to 10713
  141.0303  133.6992  156.1419 LP  0  0  0  0  0  0  0  0  0  0  0  0  # atno 17394 bound_to 11000
  140.7105  134.4466  157.5582 LP  0  0  0  0  0  0  0  0  0  0  0  0  # atno 17395 bound_to 11000

$$$$
