AV-unprocessed.smi:3245|AV-procd|sdf|12409|dock4
  -GOLD-   2272018293D 1   1.00000     0.00000
 Structure written by MMmdl.
 34 35  0  0  0  0  0  0  0  0  2 V2000
  147.6732  140.8080  153.7571 C   0  0  0  0  0  0  0  0  0  0  0  0
  147.3916  139.3557  153.3209 C   0  0  1  0  0  0  0  0  0  0  0  0
  146.6943  139.2716  151.9472 C   0  0  0  0  0  0  0  0  0  0  0  0
  146.0157  138.0063  151.7310 N   0  0  0  0  0  0  0  0  0  0  0  0
  145.0294  137.4215  152.4976 C   0  0  0  0  0  0  0  0  0  0  0  0
  144.6954  136.2409  151.8982 C   0  0  0  0  0  0  0  0  0  0  0  0
  145.5384  136.1931  150.7527 C   0  0  0  0  0  0  0  0  0  0  0  0
  146.3250  137.2526  150.6535 N   0  0  0  0  0  0  0  0  0  0  0  0
  148.6367  138.6040  153.2219 N   0  0  0  0  0  0  0  0  0  0  0  0
  149.3635  138.5603  154.4833 C   0  0  0  0  0  0  0  0  0  0  0  0
  150.7436  137.9094  154.2806 C   0  0  0  0  0  0  0  0  0  0  0  0
  151.5981  138.0393  155.4679 N   0  0  0  0  0  0  0  0  0  0  0  0
  152.0416  137.0041  156.1879 C   0  0  0  0  0  0  0  0  0  0  0  0
  151.8326  135.8056  155.9979 O   0  0  0  0  0  0  0  0  0  0  0  0
  152.8726  137.5586  157.3212 C   0  0  0  0  0  0  0  0  0  0  0  0
  152.7956  138.9835  157.0921 N   0  5  0  0  0  0  0  0  0  0  0  0
  152.0324  139.2009  155.9952 C   0  0  0  0  0  0  0  0  0  0  0  0
  151.7452  140.2936  155.5067 O   0  0  0  0  0  0  0  0  0  0  0  0
  146.7522  141.3866  153.8276 H   0  0  0  0  0  0  0  0  0  0  0  0
  148.3273  141.3134  153.0459 H   0  0  0  0  0  0  0  0  0  0  0  0
  148.1468  140.8577  154.7368 H   0  0  0  0  0  0  0  0  0  0  0  0
  146.7463  138.8758  154.0582 H   0  0  0  0  0  0  0  0  0  0  0  0
  145.9609  140.0734  151.8455 H   0  0  0  0  0  0  0  0  0  0  0  0
  147.4194  139.4094  151.1435 H   0  0  0  0  0  0  0  0  0  0  0  0
  144.6544  137.8877  153.3969 H   0  0  0  0  0  0  0  0  0  0  0  0
  143.9602  135.5217  152.2271 H   0  0  0  0  0  0  0  0  0  0  0  0
  145.6006  135.4260  149.9950 H   0  0  0  0  0  0  0  0  0  0  0  0
  148.4378  137.6580  152.9290 H   0  0  0  0  0  0  0  0  0  0  0  0
  149.4767  139.5572  154.9080 H   0  0  0  0  0  0  0  0  0  0  0  0
  148.7902  137.9696  155.1985 H   0  0  0  0  0  0  0  0  0  0  0  0
  150.6069  136.8485  154.0658 H   0  0  0  0  0  0  0  0  0  0  0  0
  151.2328  138.3198  153.3956 H   0  0  0  0  0  0  0  0  0  0  0  0
  152.4472  137.2526  158.2775 H   0  0  0  0  0  0  0  0  0  0  0  0
  153.8887  137.1670  157.2627 H   0  0  0  0  0  0  0  0  0  0  0  0
  1  2  1  0  0  0  0
  1 19  1  0  0  0  0
  1 20  1  0  0  0  0
  1 21  1  0  0  0  0
  2  3  1  0  0  0  0
  2  9  1  0  0  0  0
  2 22  1  0  0  0  0
  3  4  1  0  0  0  0
  3 23  1  0  0  0  0
  3 24  1  0  0  0  0
  4  8  1  0  0  0  0
  4  5  1  0  0  0  0
  5  6  2  0  0  0  0
  5 25  1  0  0  0  0
  6  7  1  0  0  0  0
  6 26  1  0  0  0  0
  7  8  2  0  0  0  0
  7 27  1  0  0  0  0
  9 10  1  0  0  0  0
  9 28  1  0  0  0  0
 10 11  1  0  0  0  0
 10 29  1  0  0  0  0
 10 30  1  0  0  0  0
 11 12  1  0  0  0  0
 11 31  1  0  0  0  0
 11 32  1  0  0  0  0
 12 17  1  0  0  0  0
 12 13  1  0  0  0  0
 13 14  2  0  0  0  0
 13 15  1  0  0  0  0
 15 16  1  0  0  0  0
 15 33  1  0  0  0  0
 15 34  1  0  0  0  0
 16 17  1  0  0  0  0
 17 18  2  0  0  0  0
M  CHG  1  16  -1
M  END
> <s_m_source_file>
AV-unprocessed.smi

> <i_m_source_file_index>
3245

> <i_lp_mmshare_version>
43012

> <i_f3d_flags>
0

> <s_epik_input>
bjFbY0hdW2NIXVtjSF1uMVtDSDJdW0NAQEhdKFtDSDNdKVtOSF1bQ0gyXVtDSDJdTjJDKD1PKVtDSDJdW05IXUMyPU8=

> <s_epik_cmdline>
J2VwaWtfcHl0aG9uJywgJy1waCcsICc3LjAnLCAnLXRuJywgJzgnLCAnLW1hJywgJzIwMCcsICctbWV0YWxfYmluZGluZycsICctaW1hZScsICc8aW5maWxlLm1hZT4nLCAnLW9tYWUnLCAnPG91dGZpbGUubWFlPic=

> <r_lp_tautomer_probability>
1

> <r_epik_Ionization_Penalty>
8.62027

> <r_epik_Ionization_Penalty_Charging>
6.28132

> <r_epik_Ionization_Penalty_Neutral>
2.33895

> <r_epik_State_Penalty>
8.57043

> <r_epik_Charging_Adjusted_Penalty>
14.8517

> <i_epik_Tot_Q>
-1

> <i_epik_Tot_abs_Q>
1

> <r_epik_Metal_State_Penalty>
4.56785

> <b_epik_Metal_Only>
1

> <s_lp_Force_Field>
OPLS_2005

> <r_lp_Energy>
21.4513

> <b_lp_Chiralities_Consistent>
1

> <s_lp_Variant>
AV-unprocessed.smi:3245-8

> <Gold.Version>
5.8.1

> <Gold.Id.Protein>
6NUR|6NUR_protein|mol2

> <Gold.PLP.Fitness>
50.5951

> <Gold.PLP.PLP>
-31.3715

> <Gold.PLP.part.hbond>
-6.0000

> <Gold.PLP.part.metal>
0.0000

> <Gold.PLP.part.buried>
1.1704

> <Gold.PLP.part.nonpolar>
-29.8345

> <Gold.PLP.part.repulsive>
2.2899

> <Gold.PLP.ligand.clash>
0.0000

> <Gold.PLP.ligand.torsion>
0.2335

> <Gold.PLP.Chemscore.Hbond>
5.5257

> <Gold.PLP.Chemscore.CHOScore>
1.0000

> <Gold.PLP.Chemscore.Metal>
0.0000

> <Gold.Chemscore.Hbonds>
donor molecule, donor type, donor heavy atom, donor atom, acceptor molecule, acceptor atom, score
      L1  H     9    28       P1  7948  0.90
      P1  H  7954  7966       L1     8  0.86
      P1  H  7989  7998       L1    18  0.72
      P1  H  7997  8009       L1    16  2.00
      P1  H 10752 10764       L1    14  0.95
      L1  C     5    25       P1 10175  0.04
      L1  C     7    27       P1  7921  1.00

> <Gold.PLP.Chemscore.Internal.Correction>
0.1134

> <Gold.Rescore>
     Score         DG    S(hbond)    S(metal)    S(lipo)     H(rot)  DE(clash)    DE(int)     intcor
     16.29     -18.61       3.89        0.00      57.70       2.58       1.90       0.42       ----

> <Gold.Chemscore.Fitness>
16.2936

> <Gold.Chemscore.DG>
-18.6150

> <Gold.Chemscore.ZeroCoef>
-5.4800

> <Gold.Chemscore.Hbond>
3.8898

> <Gold.Chemscore.Metal>
0.0000

> <Gold.Chemscore.Lipo>
57.6988

> <Gold.Chemscore.Internal_Hbond>
0.0000

> <Gold.Chemscore.DEClash>
1.9004

> <Gold.Chemscore.DEInternal>
0.4210

> <Gold.Chemscore.Rot>
2.5811

> <Gold.Chemscore.Internal.Correction>
   9.000000E+99

> <Gold.Chemscore.Hbonds>
donor molecule, donor type, donor heavy atom, donor atom, acceptor molecule, acceptor atom, score
      L1  H     9    28       P1  7948  0.88
      P1  H  7954  7966       L1     8  0.59
      P1  H  7989  7998       L1    18  0.70
      P1  H  7997  8009       L1    16  0.62
      P1  H 10752 10764       L1    14  0.21

> <Gold.Chemscore.Hbond.Weighted>
-12.9918

> <Gold.Chemscore.Metal.Weighted>
-0.0000

> <Gold.Chemscore.Lipo.Weighted>
-6.7508

> <Gold.Chemscore.Internal_Hbond.Weighted>
0.0000

> <Gold.Chemscore.DEClash.Weighted>
1.9004

> <Gold.Chemscore.DEInternal.Weighted>
0.4210

> <Gold.Chemscore.Rot.Weighted>
6.6076

> <Gold.Chemscore.Internal.Correction.Weighted>
   9.000000E+99

> <Gold.Protein.RotatedTorsions>
[ 6907 6896 6895 6894 ] final  120.42 input  -60.11 | X-H torsion
[ 7974 7965 7964 7962 ] final  -31.93 input  175.53 | X-H torsion
[ 8008 7997 7996 7995 ] final  160.96 input   59.86 | X-H torsion
[ 10167 10162 10161 10158 ] final -178.28 input  -65.29 | X-H torsion
[ 10718 10713 10712 10709 ] final   -8.38 input   66.30 | X-H torsion
[ 10763 10752 10751 10750 ] final  -30.26 input  -60.55 | X-H torsion
[ 11005 11000 10999 10996 ] final   61.88 input  -57.11 | X-H torsion

> <Gold.Protein.ActiveResidues>
 VAL166  LYS551  ARG553  GLY616  TRP617  ASP618  TYR619  PRO620  LYS621  CYS622 
 ASP623  PHE694  ASN695  SER759  ASP760  ASP761  ALA762  ILE779  LEU786  VAL792 
 PHE793  MET794  SER795  GLU796  ALA797  LYS798  CYS799  TRP800  GLU811  SER814 

> <Gold.Protein.RotatedAtoms>
  152.4399  133.7428  159.6650 H   0  0  0  0  0  0  0  0  0  0  0  0  # atno 6907 bound_to 6896
  150.8288  133.8116  159.3113 H   0  0  0  0  0  0  0  0  0  0  0  0  # atno 6908 bound_to 6896
  151.5776  135.1062  160.0061 H   0  0  0  0  0  0  0  0  0  0  0  0  # atno 6909 bound_to 6896
  146.1029  140.5729  142.8813 H   0  0  0  0  0  0  0  0  0  0  0  0  # atno 7974 bound_to 7965
  156.2136  140.1790  156.7639 H   0  0  0  0  0  0  0  0  0  0  0  0  # atno 8008 bound_to 7997
  154.5759  140.0674  156.9062 H   0  0  0  0  0  0  0  0  0  0  0  0  # atno 8009 bound_to 7997
  155.2590  140.3334  155.4277 H   0  0  0  0  0  0  0  0  0  0  0  0  # atno 8010 bound_to 7997
  139.5440  144.2286  152.0951 H   0  0  0  0  0  0  0  0  0  0  0  0  # atno 10167 bound_to 10162
  156.7035  130.5100  149.5911 H   0  0  0  0  0  0  0  0  0  0  0  0  # atno 10718 bound_to 10713
  153.7781  135.6907  153.4893 H   0  0  0  0  0  0  0  0  0  0  0  0  # atno 10763 bound_to 10752
  153.1829  135.4499  155.0050 H   0  0  0  0  0  0  0  0  0  0  0  0  # atno 10764 bound_to 10752
  154.8092  135.3370  154.7286 H   0  0  0  0  0  0  0  0  0  0  0  0  # atno 10765 bound_to 10752
  140.0131  134.6267  155.9751 H   0  0  0  0  0  0  0  0  0  0  0  0  # atno 11005 bound_to 11000
  144.7447  140.5037  143.6844 LP  0  0  0  0  0  0  0  0  0  0  0  0  # atno 17320 bound_to 7965
  145.5818  139.1489  143.3231 LP  0  0  0  0  0  0  0  0  0  0  0  0  # atno 17321 bound_to 7965
  140.1769  144.4881  150.6549 LP  0  0  0  0  0  0  0  0  0  0  0  0  # atno 17342 bound_to 10162
  140.6681  143.2275  151.5693 LP  0  0  0  0  0  0  0  0  0  0  0  0  # atno 17343 bound_to 10162
  156.1712  130.6438  151.0839 LP  0  0  0  0  0  0  0  0  0  0  0  0  # atno 17370 bound_to 10713
  157.6964  131.0792  150.6956 LP  0  0  0  0  0  0  0  0  0  0  0  0  # atno 17371 bound_to 10713
  141.1724  133.6538  156.4701 LP  0  0  0  0  0  0  0  0  0  0  0  0  # atno 17394 bound_to 11000
  140.4520  134.6920  157.5044 LP  0  0  0  0  0  0  0  0  0  0  0  0  # atno 17395 bound_to 11000

$$$$
