AV-unprocessed.smi:644|AV-procd|sdf|3155|dock2
  -GOLD-   22720 0 73D 1   1.00000     0.00000
 Structure written by MMmdl.
 37 39  0  0  0  0  0  0  0  0  1 V2000
  153.0791  142.8683  161.8059 C   0  0  0  0  0  0  0  0  0  0  0  0
  152.5128  142.5756  160.4277 C   0  0  0  0  0  0  0  0  0  0  0  0
  152.6509  141.2760  159.8902 C   0  0  0  0  0  0  0  0  0  0  0  0
  152.1362  140.9619  158.6134 C   0  0  0  0  0  0  0  0  0  0  0  0
  152.1550  139.7733  157.9038 N   0  0  0  0  0  0  0  0  0  0  0  0
  151.5183  140.1169  156.7880 C   0  0  0  0  0  0  0  0  0  0  0  0
  151.0851  141.3886  156.6920 N   0  0  0  0  0  0  0  0  0  0  0  0
  150.3696  141.9900  155.5804 C   0  0  0  0  0  0  0  0  0  0  0  0
  149.3638  141.0185  154.9338 C   0  0  2  0  0  0  0  0  0  0  0  0
  150.0304  140.2157  153.9778 O   0  0  0  0  0  0  0  0  0  0  0  0
  148.2047  141.7590  154.2482 C   0  0  0  0  0  0  0  0  0  0  0  0
  146.7915  141.9965  155.3641 S   0  0  0  0  0  0  0  0  0  0  0  0
  145.9803  143.2515  154.4437 C   0  0  0  0  0  0  0  0  0  0  0  0
  146.3499  143.6285  153.2136 N   0  0  0  0  0  0  0  0  0  0  0  0
  145.5409  144.6400  152.7115 N   0  0  0  0  0  0  0  0  0  0  0  0
  144.5929  144.9884  153.5860 C   0  0  0  0  0  0  0  0  0  0  0  0
  144.5956  144.1120  155.1055 S   0  0  0  0  0  0  0  0  0  0  0  0
  151.4754  141.9921  157.8824 C   0  0  0  0  0  0  0  0  0  0  0  0
  151.3332  143.2894  158.4056 C   0  0  0  0  0  0  0  0  0  0  0  0
  151.8514  143.5858  159.6837 C   0  0  0  0  0  0  0  0  0  0  0  0
  151.6896  144.9888  160.2419 C   0  0  0  0  0  0  0  0  0  0  0  0
  153.5727  141.9922  162.2274 H   0  0  0  0  0  0  0  0  0  0  0  0
  152.2841  143.1658  162.4900 H   0  0  0  0  0  0  0  0  0  0  0  0
  153.8130  143.6729  161.7554 H   0  0  0  0  0  0  0  0  0  0  0  0
  153.1539  140.5061  160.4567 H   0  0  0  0  0  0  0  0  0  0  0  0
  151.3527  139.4017  155.9955 H   0  0  0  0  0  0  0  0  0  0  0  0
  149.8542  142.8777  155.9493 H   0  0  0  0  0  0  0  0  0  0  0  0
  151.0953  142.3350  154.8423 H   0  0  0  0  0  0  0  0  0  0  0  0
  148.9590  140.3607  155.7038 H   0  0  0  0  0  0  0  0  0  0  0  0
  149.5461  140.2511  153.1670 H   0  0  0  0  0  0  0  0  0  0  0  0
  148.5366  142.7432  153.9150 H   0  0  0  0  0  0  0  0  0  0  0  0
  147.8793  141.2165  153.3597 H   0  0  0  0  0  0  0  0  0  0  0  0
  143.8879  145.7667  153.3343 H   0  0  0  0  0  0  0  0  0  0  0  0
  150.8273  144.0488  157.8277 H   0  0  0  0  0  0  0  0  0  0  0  0
  151.1362  145.6297  159.5548 H   0  0  0  0  0  0  0  0  0  0  0  0
  152.6644  145.4455  160.4141 H   0  0  0  0  0  0  0  0  0  0  0  0
  151.1460  144.9648  161.1866 H   0  0  0  0  0  0  0  0  0  0  0  0
  1  2  1  0  0  0  0
  1 22  1  0  0  0  0
  1 23  1  0  0  0  0
  1 24  1  0  0  0  0
  2 20  1  0  0  0  0
  2  3  2  0  0  0  0
  3  4  1  0  0  0  0
  3 25  1  0  0  0  0
  4 18  2  0  0  0  0
  4  5  1  0  0  0  0
  5  6  2  0  0  0  0
  6  7  1  0  0  0  0
  6 26  1  0  0  0  0
  7  8  1  0  0  0  0
  7 18  1  0  0  0  0
  8  9  1  0  0  0  0
  8 27  1  0  0  0  0
  8 28  1  0  0  0  0
  9 10  1  0  0  0  0
  9 11  1  0  0  0  0
  9 29  1  0  0  0  0
 10 30  1  0  0  0  0
 11 12  1  0  0  0  0
 11 31  1  0  0  0  0
 11 32  1  0  0  0  0
 12 13  1  0  0  0  0
 13 17  1  0  0  0  0
 13 14  2  0  0  0  0
 14 15  1  0  0  0  0
 15 16  2  0  0  0  0
 16 17  1  0  0  0  0
 16 33  1  0  0  0  0
 18 19  1  0  0  0  0
 19 20  2  0  0  0  0
 19 34  1  0  0  0  0
 20 21  1  0  0  0  0
 21 35  1  0  0  0  0
 21 36  1  0  0  0  0
 21 37  1  0  0  0  0
M  END
> <s_m_source_file>
AV-unprocessed.smi

> <i_m_source_file_index>
644

> <i_lp_mmshare_version>
43012

> <i_f3d_flags>
0

> <s_epik_input>
W0NIM11jKFtjSF0xKWMoW0NIM10pW2NIXWMoYzEyKW4oW2NIXW4yKVtDSDJdW0NASF0oW09IXSlbQ0gyXVNjM25uW2NIXXMz

> <s_epik_cmdline>
J2VwaWtfcHl0aG9uJywgJy1waCcsICc3LjAnLCAnLXRuJywgJzgnLCAnLW1hJywgJzIwMCcsICctbWV0YWxfYmluZGluZycsICctaW1hZScsICc8aW5maWxlLm1hZT4nLCAnLW9tYWUnLCAnPG91dGZpbGUubWFlPic=

> <r_lp_tautomer_probability>
1

> <r_epik_Ionization_Penalty>
0.105397

> <r_epik_Ionization_Penalty_Charging>
0

> <r_epik_Ionization_Penalty_Neutral>
0.105397

> <r_epik_State_Penalty>
0.0952713

> <r_epik_Charging_Adjusted_Penalty>
0.0952713

> <i_epik_Tot_Q>
0

> <i_epik_Tot_abs_Q>
0

> <r_epik_Metal_State_Penalty>
0.0807681

> <b_epik_Metal_Only>
0

> <s_lp_Force_Field>
OPLS_2005

> <r_lp_Energy>
9.27729

> <b_lp_Chiralities_Consistent>
1

> <s_lp_Variant>
AV-unprocessed.smi:644-1

> <Gold.Version>
5.8.1

> <Gold.Id.Protein>
6NUR|6NUR_protein|mol2

> <Gold.PLP.Fitness>
50.8449

> <Gold.PLP.PLP>
-47.4861

> <Gold.PLP.part.hbond>
-4.0000

> <Gold.PLP.part.metal>
0.0000

> <Gold.PLP.part.buried>
-1.7931

> <Gold.PLP.part.nonpolar>
-40.7462

> <Gold.PLP.part.repulsive>
0.4152

> <Gold.PLP.ligand.clash>
0.0000

> <Gold.PLP.ligand.torsion>
1.1775

> <Gold.PLP.Chemscore.Hbond>
1.8635

> <Gold.PLP.Chemscore.CHOScore>
0.0000

> <Gold.PLP.Chemscore.Metal>
0.0000

> <Gold.Chemscore.Hbonds>
donor molecule, donor type, donor heavy atom, donor atom, acceptor molecule, acceptor atom, score
      L1  H    10    30       P1  7957  0.93
      P1  H  7989  7998       L1    10  0.83

> <Gold.PLP.Chemscore.Internal.Correction>
0.1234

> <Gold.Rescore>
     Score         DG    S(hbond)    S(metal)    S(lipo)     H(rot)  DE(clash)    DE(int)     intcor
     16.16     -18.52       1.39        0.00     125.52       2.46       1.07       1.28       ----

> <Gold.Chemscore.Fitness>
16.1628

> <Gold.Chemscore.DG>
-18.5154

> <Gold.Chemscore.ZeroCoef>
-5.4800

> <Gold.Chemscore.Hbond>
1.3906

> <Gold.Chemscore.Metal>
0.0000

> <Gold.Chemscore.Lipo>
125.5173

> <Gold.Chemscore.Internal_Hbond>
0.0000

> <Gold.Chemscore.DEClash>
1.0687

> <Gold.Chemscore.DEInternal>
1.2839

> <Gold.Chemscore.Rot>
2.4588

> <Gold.Chemscore.Internal.Correction>
   9.000000E+99

> <Gold.Chemscore.Hbonds>
donor molecule, donor type, donor heavy atom, donor atom, acceptor molecule, acceptor atom, score
      L1  H    10    30       P1  7957  0.85
      P1  H  7989  7998       L1    10  0.21

> <Gold.Chemscore.Hbond.Weighted>
-4.6445

> <Gold.Chemscore.Metal.Weighted>
-0.0000

> <Gold.Chemscore.Lipo.Weighted>
-14.6855

> <Gold.Chemscore.Internal_Hbond.Weighted>
0.0000

> <Gold.Chemscore.DEClash.Weighted>
1.0687

> <Gold.Chemscore.DEInternal.Weighted>
1.2839

> <Gold.Chemscore.Rot.Weighted>
6.2946

> <Gold.Chemscore.Internal.Correction.Weighted>
   9.000000E+99

> <Gold.Protein.RotatedTorsions>
[ 6907 6896 6895 6894 ] final   59.12 input  -60.11 | X-H torsion
[ 7974 7965 7964 7962 ] final  129.20 input  175.53 | X-H torsion
[ 8008 7997 7996 7995 ] final   30.98 input   59.86 | X-H torsion
[ 10167 10162 10161 10158 ] final  108.32 input  -65.29 | X-H torsion
[ 10718 10713 10712 10709 ] final -176.85 input   66.30 | X-H torsion
[ 10763 10752 10751 10750 ] final   16.45 input  -60.55 | X-H torsion
[ 11005 11000 10999 10996 ] final  176.71 input  -57.11 | X-H torsion

> <Gold.Protein.ActiveResidues>
 VAL166  LYS551  ARG553  GLY616  TRP617  ASP618  TYR619  PRO620  LYS621  CYS622 
 ASP623  PHE694  ASN695  SER759  ASP760  ASP761  ALA762  ILE779  LEU786  VAL792 
 PHE793  MET794  SER795  GLU796  ALA797  LYS798  CYS799  TRP800  GLU811  SER814 

> <Gold.Protein.RotatedAtoms>
  152.3886  134.6477  160.0115 H   0  0  0  0  0  0  0  0  0  0  0  0  # atno 6907 bound_to 6896
  151.6718  133.3308  159.3206 H   0  0  0  0  0  0  0  0  0  0  0  0  # atno 6908 bound_to 6896
  150.7807  134.6792  159.6479 H   0  0  0  0  0  0  0  0  0  0  0  0  # atno 6909 bound_to 6896
  145.0312  139.4044  143.5149 H   0  0  0  0  0  0  0  0  0  0  0  0  # atno 7974 bound_to 7965
  155.0991  140.3228  155.4552 H   0  0  0  0  0  0  0  0  0  0  0  0  # atno 8008 bound_to 7997
  156.2722  140.2064  156.6064 H   0  0  0  0  0  0  0  0  0  0  0  0  # atno 8009 bound_to 7997
  154.6843  140.0523  157.0285 H   0  0  0  0  0  0  0  0  0  0  0  0  # atno 8010 bound_to 7997
  139.6855  144.7114  151.1439 H   0  0  0  0  0  0  0  0  0  0  0  0  # atno 10167 bound_to 10162
  156.8208  130.9619  151.3112 H   0  0  0  0  0  0  0  0  0  0  0  0  # atno 10718 bound_to 10713
  153.1430  135.6763  153.8998 H   0  0  0  0  0  0  0  0  0  0  0  0  # atno 10763 bound_to 10752
  153.8448  135.3100  155.3430 H   0  0  0  0  0  0  0  0  0  0  0  0  # atno 10764 bound_to 10752
  154.7803  135.4892  153.9914 H   0  0  0  0  0  0  0  0  0  0  0  0  # atno 10765 bound_to 10752
  140.3761  134.6987  157.4422 H   0  0  0  0  0  0  0  0  0  0  0  0  # atno 11005 bound_to 11000
  146.3499  139.9863  142.8690 LP  0  0  0  0  0  0  0  0  0  0  0  0  # atno 17320 bound_to 7965
  145.1768  140.9748  143.4289 LP  0  0  0  0  0  0  0  0  0  0  0  0  # atno 17321 bound_to 7965
  140.7666  143.5635  150.9072 LP  0  0  0  0  0  0  0  0  0  0  0  0  # atno 17342 bound_to 10162
  139.9310  143.6493  152.3076 LP  0  0  0  0  0  0  0  0  0  0  0  0  # atno 17343 bound_to 10162
  157.6458  130.8843  149.9535 LP  0  0  0  0  0  0  0  0  0  0  0  0  # atno 17370 bound_to 10713
  156.0990  130.3657  150.0253 LP  0  0  0  0  0  0  0  0  0  0  0  0  # atno 17371 bound_to 10713
  140.0514  134.6125  155.8857 LP  0  0  0  0  0  0  0  0  0  0  0  0  # atno 17394 bound_to 11000
  141.1939  133.6580  156.5568 LP  0  0  0  0  0  0  0  0  0  0  0  0  # atno 17395 bound_to 11000

$$$$
