AV-unprocessed.smi:2143|AV-procd|sdf|8723|dock3
  -GOLD-   2272011493D 1   1.00000     0.00000
 Structure written by MMmdl.
 44 45  0  0  0  0  0  0  0  0  1 V2000
  153.1168  142.7685  162.3645 C   0  0  0  0  0  0  0  0  0  0  0  0
  152.2264  143.4884  161.3379 C   0  0  1  0  0  0  0  0  0  0  0  0
  152.5589  144.9916  161.2483 C   0  0  0  0  0  0  0  0  0  0  0  0
  151.5983  145.7242  160.2985 C   0  0  0  0  0  0  0  0  0  0  0  0
  151.5726  145.0710  158.9086 C   0  0  0  0  0  0  0  0  0  0  0  0
  151.2368  143.5703  159.0029 C   0  0  1  0  0  0  0  0  0  0  0  0
  151.1902  142.9896  157.6630 N   0  0  0  0  0  0  0  0  0  0  0  0
  150.7156  141.7724  157.3591 C   0  0  0  0  0  0  0  0  0  0  0  0
  150.2237  141.0101  158.1922 O   0  0  0  0  0  0  0  0  0  0  0  0
  150.8006  141.3664  155.8821 C   0  0  0  0  0  0  0  0  0  0  0  0
  150.8992  139.9129  155.6966 N   0  0  0  0  0  0  0  0  0  0  0  0
  150.0858  139.2827  154.7723 C   0  0  0  0  0  0  0  0  0  0  0  0
  150.1123  137.9520  154.5415 C   0  0  0  0  0  0  0  0  0  0  0  0
  151.0218  137.0838  155.2789 C   0  0  0  0  0  0  0  0  0  0  0  0
  151.0978  135.8690  155.0889 O   0  0  0  0  0  0  0  0  0  0  0  0
  151.8293  137.7494  156.2306 N   0  0  0  0  0  0  0  0  0  0  0  0
  152.7654  136.9427  156.9863 C   0  0  0  0  0  0  0  0  0  0  0  0
  151.8113  139.1456  156.4542 C   0  0  0  0  0  0  0  0  0  0  0  0
  152.5587  139.6912  157.2700 O   0  0  0  0  0  0  0  0  0  0  0  0
  152.2253  142.8184  159.9379 C   0  0  1  0  0  0  0  0  0  0  0  0
  153.6380  142.6568  159.3288 C   0  0  0  0  0  0  0  0  0  0  0  0
  154.1758  142.8790  162.1313 H   0  0  0  0  0  0  0  0  0  0  0  0
  152.8893  141.7030  162.4051 H   0  0  0  0  0  0  0  0  0  0  0  0
  152.9618  143.1751  163.3641 H   0  0  0  0  0  0  0  0  0  0  0  0
  151.2072  143.4124  161.7204 H   0  0  0  0  0  0  0  0  0  0  0  0
  152.4997  145.4441  162.2389 H   0  0  0  0  0  0  0  0  0  0  0  0
  153.5869  145.1310  160.9127 H   0  0  0  0  0  0  0  0  0  0  0  0
  150.5930  145.7154  160.7214 H   0  0  0  0  0  0  0  0  0  0  0  0
  151.8871  146.7720  160.2123 H   0  0  0  0  0  0  0  0  0  0  0  0
  150.8359  145.5786  158.2847 H   0  0  0  0  0  0  0  0  0  0  0  0
  152.5367  145.2134  158.4189 H   0  0  0  0  0  0  0  0  0  0  0  0
  150.2363  143.4930  159.4333 H   0  0  0  0  0  0  0  0  0  0  0  0
  151.5693  143.5493  156.9128 H   0  0  0  0  0  0  0  0  0  0  0  0
  149.9159  141.7506  155.3727 H   0  0  0  0  0  0  0  0  0  0  0  0
  151.6512  141.8599  155.4082 H   0  0  0  0  0  0  0  0  0  0  0  0
  149.3915  139.8831  154.2025 H   0  0  0  0  0  0  0  0  0  0  0  0
  149.4525  137.5237  153.8013 H   0  0  0  0  0  0  0  0  0  0  0  0
  153.0264  137.4410  157.9202 H   0  0  0  0  0  0  0  0  0  0  0  0
  153.6428  136.8004  156.3540 H   0  0  0  0  0  0  0  0  0  0  0  0
  152.2911  135.9914  157.2331 H   0  0  0  0  0  0  0  0  0  0  0  0
  151.8363  141.8078  160.0717 H   0  0  0  0  0  0  0  0  0  0  0  0
  154.1318  143.6159  159.1770 H   0  0  0  0  0  0  0  0  0  0  0  0
  153.6040  142.1492  158.3647 H   0  0  0  0  0  0  0  0  0  0  0  0
  154.2814  142.0525  159.9673 H   0  0  0  0  0  0  0  0  0  0  0  0
  1  2  1  0  0  0  0
  1 22  1  0  0  0  0
  1 23  1  0  0  0  0
  1 24  1  0  0  0  0
  2 20  1  0  0  0  0
  2  3  1  0  0  0  0
  2 25  1  0  0  0  0
  3  4  1  0  0  0  0
  3 26  1  0  0  0  0
  3 27  1  0  0  0  0
  4  5  1  0  0  0  0
  4 28  1  0  0  0  0
  4 29  1  0  0  0  0
  5  6  1  0  0  0  0
  5 30  1  0  0  0  0
  5 31  1  0  0  0  0
  6  7  1  0  0  0  0
  6 20  1  0  0  0  0
  6 32  1  0  0  0  0
  7  8  1  0  0  0  0
  7 33  1  0  0  0  0
  8  9  2  0  0  0  0
  8 10  1  0  0  0  0
 10 11  1  0  0  0  0
 10 34  1  0  0  0  0
 10 35  1  0  0  0  0
 11 18  1  0  0  0  0
 11 12  1  0  0  0  0
 12 13  2  0  0  0  0
 12 36  1  0  0  0  0
 13 14  1  0  0  0  0
 13 37  1  0  0  0  0
 14 15  2  0  0  0  0
 14 16  1  0  0  0  0
 16 17  1  0  0  0  0
 16 18  1  0  0  0  0
 17 38  1  0  0  0  0
 17 39  1  0  0  0  0
 17 40  1  0  0  0  0
 18 19  2  0  0  0  0
 20 21  1  0  0  0  0
 20 41  1  0  0  0  0
 21 42  1  0  0  0  0
 21 43  1  0  0  0  0
 21 44  1  0  0  0  0
M  END
> <s_m_source_file>
AV-unprocessed.smi

> <i_m_source_file_index>
2143

> <i_lp_mmshare_version>
43012

> <i_f3d_flags>
0

> <s_epik_input>
W0NIM11bQ0BASF0xW0NIMl1bQ0gyXVtDSDJdW0NASF0oW0NASF0xW0NIM10pW05IXUMoPU8pW0NIMl1uMltjSF1bY0hdYyg9TyluKFtDSDNdKWMyPU8=

> <s_epik_cmdline>
J2VwaWtfcHl0aG9uJywgJy1waCcsICc3LjAnLCAnLXRuJywgJzgnLCAnLW1hJywgJzIwMCcsICctbWV0YWxfYmluZGluZycsICctaW1hZScsICc8aW5maWxlLm1hZT4nLCAnLW9tYWUnLCAnPG91dGZpbGUubWFlPic=

> <r_lp_tautomer_probability>
1

> <r_epik_Ionization_Penalty>
3.18445e-08

> <r_epik_Ionization_Penalty_Charging>
1.27977e-08

> <r_epik_Ionization_Penalty_Neutral>
1.90469e-08

> <r_epik_State_Penalty>
-0

> <r_epik_Charging_Adjusted_Penalty>
1.27977e-08

> <i_epik_Tot_Q>
0

> <i_epik_Tot_abs_Q>
0

> <r_epik_Metal_State_Penalty>
-0

> <b_epik_Metal_Only>
0

> <s_lp_Force_Field>
OPLS_2005

> <r_lp_Energy>
21.6223

> <b_lp_Chiralities_Consistent>
1

> <s_lp_Variant>
AV-unprocessed.smi:2143-2

> <Gold.Version>
5.8.1

> <Gold.Id.Protein>
6NUR|6NUR_protein|mol2

> <Gold.PLP.Fitness>
49.3386

> <Gold.PLP.PLP>
-43.9476

> <Gold.PLP.part.hbond>
-2.0000

> <Gold.PLP.part.metal>
0.0000

> <Gold.PLP.part.buried>
-4.4585

> <Gold.PLP.part.nonpolar>
-38.6896

> <Gold.PLP.part.repulsive>
0.1739

> <Gold.PLP.ligand.clash>
0.0000

> <Gold.PLP.ligand.torsion>
0.5927

> <Gold.PLP.Chemscore.Hbond>
2.0000

> <Gold.PLP.Chemscore.CHOScore>
0.1861

> <Gold.PLP.Chemscore.Metal>
0.0000

> <Gold.Chemscore.Hbonds>
donor molecule, donor type, donor heavy atom, donor atom, acceptor molecule, acceptor atom, score
      P1  H  7997  8008       L1    19  1.00
      P1  H 10752 10763       L1    15  1.00

> <Gold.PLP.Chemscore.Internal.Correction>
0.0181

> <Gold.Rescore>
     Score         DG    S(hbond)    S(metal)    S(lipo)     H(rot)  DE(clash)    DE(int)     intcor
     16.75     -20.06       1.41        0.00     117.51       1.51       1.78       1.54       ----

> <Gold.Chemscore.Fitness>
16.7476

> <Gold.Chemscore.DG>
-20.0643

> <Gold.Chemscore.ZeroCoef>
-5.4800

> <Gold.Chemscore.Hbond>
1.4099

> <Gold.Chemscore.Metal>
0.0000

> <Gold.Chemscore.Lipo>
117.5091

> <Gold.Chemscore.Internal_Hbond>
0.0000

> <Gold.Chemscore.DEClash>
1.7776

> <Gold.Chemscore.DEInternal>
1.5390

> <Gold.Chemscore.Rot>
1.5131

> <Gold.Chemscore.Internal.Correction>
   9.000000E+99

> <Gold.Chemscore.Hbonds>
donor molecule, donor type, donor heavy atom, donor atom, acceptor molecule, acceptor atom, score
      P1  H  7997  8008       L1    19  0.73
      P1  H 10752 10763       L1    15  0.43

> <Gold.Chemscore.Hbond.Weighted>
-4.7091

> <Gold.Chemscore.Metal.Weighted>
-0.0000

> <Gold.Chemscore.Lipo.Weighted>
-13.7486

> <Gold.Chemscore.Internal_Hbond.Weighted>
0.0000

> <Gold.Chemscore.DEClash.Weighted>
1.7776

> <Gold.Chemscore.DEInternal.Weighted>
1.5390

> <Gold.Chemscore.Rot.Weighted>
3.8734

> <Gold.Chemscore.Internal.Correction.Weighted>
   9.000000E+99

> <Gold.Protein.RotatedTorsions>
[ 6907 6896 6895 6894 ] final  131.18 input  -60.11 | X-H torsion
[ 7974 7965 7964 7962 ] final -142.59 input  175.53 | X-H torsion
[ 8008 7997 7996 7995 ] final  -47.30 input   59.86 | X-H torsion
[ 10167 10162 10161 10158 ] final  112.27 input  -65.29 | X-H torsion
[ 10718 10713 10712 10709 ] final  136.65 input   66.30 | X-H torsion
[ 10763 10752 10751 10750 ] final   46.36 input  -60.55 | X-H torsion
[ 11005 11000 10999 10996 ] final   20.83 input  -57.11 | X-H torsion

> <Gold.Protein.ActiveResidues>
 VAL166  LYS551  ARG553  GLY616  TRP617  ASP618  TYR619  PRO620  LYS621  CYS622 
 ASP623  PHE694  ASN695  SER759  ASP760  ASP761  ALA762  ILE779  LEU786  VAL792 
 PHE793  MET794  SER795  GLU796  ALA797  LYS798  CYS799  TRP800  GLU811  SER814 

> <Gold.Protein.RotatedAtoms>
  152.3452  133.6113  159.5904 H   0  0  0  0  0  0  0  0  0  0  0  0  # atno 6907 bound_to 6896
  150.7503  133.9661  159.3540 H   0  0  0  0  0  0  0  0  0  0  0  0  # atno 6908 bound_to 6896
  151.7520  135.0831  160.0383 H   0  0  0  0  0  0  0  0  0  0  0  0  # atno 6909 bound_to 6896
  144.8432  140.5939  143.5438 H   0  0  0  0  0  0  0  0  0  0  0  0  # atno 7974 bound_to 7965
  154.4015  140.1350  156.4152 H   0  0  0  0  0  0  0  0  0  0  0  0  # atno 8008 bound_to 7997
  155.7695  140.3484  155.5219 H   0  0  0  0  0  0  0  0  0  0  0  0  # atno 8009 bound_to 7997
  155.8781  140.0983  157.1495 H   0  0  0  0  0  0  0  0  0  0  0  0  # atno 8010 bound_to 7997
  139.6548  144.7129  151.1977 H   0  0  0  0  0  0  0  0  0  0  0  0  # atno 10167 bound_to 10162
  157.4444  131.1060  151.0106 H   0  0  0  0  0  0  0  0  0  0  0  0  # atno 10718 bound_to 10713
  152.9812  135.6010  154.3587 H   0  0  0  0  0  0  0  0  0  0  0  0  # atno 10763 bound_to 10752
  154.3270  135.2769  155.2493 H   0  0  0  0  0  0  0  0  0  0  0  0  # atno 10764 bound_to 10752
  154.4634  135.5960  153.6327 H   0  0  0  0  0  0  0  0  0  0  0  0  # atno 10765 bound_to 10752
  140.3983  134.1746  155.7663 H   0  0  0  0  0  0  0  0  0  0  0  0  # atno 11005 bound_to 11000
  145.4650  139.1509  143.3845 LP  0  0  0  0  0  0  0  0  0  0  0  0  # atno 17320 bound_to 7965
  146.2721  140.4782  142.8810 LP  0  0  0  0  0  0  0  0  0  0  0  0  # atno 17321 bound_to 7965
  140.7554  143.6090  150.8625 LP  0  0  0  0  0  0  0  0  0  0  0  0  # atno 17342 bound_to 10162
  139.9741  143.6024  152.2964 LP  0  0  0  0  0  0  0  0  0  0  0  0  # atno 17343 bound_to 10162
  157.0957  130.5961  149.5449 LP  0  0  0  0  0  0  0  0  0  0  0  0  # atno 17370 bound_to 10713
  155.9961  130.5030  150.7486 LP  0  0  0  0  0  0  0  0  0  0  0  0  # atno 17371 bound_to 10713
  141.1866  133.8299  157.1062 LP  0  0  0  0  0  0  0  0  0  0  0  0  # atno 17394 bound_to 11000
  140.0355  134.9880  157.0863 LP  0  0  0  0  0  0  0  0  0  0  0  0  # atno 17395 bound_to 11000

$$$$
