AV-unprocessed.smi:2462|AV-procd|sdf|9717|dock7
  -GOLD-   2272013353D 1   1.00000     0.00000
 Structure written by MMmdl.
 40 41  0  0  0  0  0  0  0  0  1 V2000
  154.6666  140.7837  161.7819 C   0  0  0  0  0  0  0  0  0  0  0  0
  153.7623  140.5261  160.5899 C   0  0  0  0  0  0  0  0  0  0  0  0
  153.9661  139.3129  159.9284 N   0  0  0  0  0  0  0  0  0  0  0  0
  153.2589  139.0206  158.8866 C   0  0  0  0  0  0  0  0  0  0  0  0
  152.2859  139.8985  158.3772 N   0  0  0  0  0  0  0  0  0  0  0  0
  151.5683  139.4357  157.1691 C   0  0  0  0  0  0  0  0  0  0  0  0
  151.8355  140.2630  155.8708 C   0  0  1  0  0  0  0  0  0  0  0  0
  153.2385  140.4183  155.7636 O   0  0  0  0  0  0  0  0  0  0  0  0
  151.4372  139.4645  154.6055 C   0  0  0  0  0  0  0  0  0  0  0  0
  149.9173  139.4359  154.3644 C   0  0  0  0  0  0  0  0  0  0  0  0
  149.3297  140.8566  154.2942 C   0  0  1  0  0  0  0  0  0  0  0  0
  147.8137  140.8265  154.0542 C   0  0  0  0  0  0  0  0  0  0  0  0
  149.6820  141.6426  155.5694 C   0  0  0  0  0  0  0  0  0  0  0  0
  151.2000  141.6757  155.8188 C   0  0  0  0  0  0  0  0  0  0  0  0
  151.9757  141.0699  159.0090 C   0  0  0  0  0  0  0  0  0  0  0  0
  151.0611  141.7991  158.6222 O   0  0  0  0  0  0  0  0  0  0  0  0
  152.8060  141.4019  160.1785 C   0  0  0  0  0  0  0  0  0  0  0  0
  152.5358  142.7367  160.8621 C   0  0  0  0  0  0  0  0  0  0  0  0
  154.0761  140.9023  162.6908 H   0  0  0  0  0  0  0  0  0  0  0  0
  155.2549  141.6883  161.6264 H   0  0  0  0  0  0  0  0  0  0  0  0
  155.3610  139.9574  161.9399 H   0  0  0  0  0  0  0  0  0  0  0  0
  153.3715  138.0805  158.3446 H   0  0  0  0  0  0  0  0  0  0  0  0
  151.7979  138.3829  156.9907 H   0  0  0  0  0  0  0  0  0  0  0  0
  150.4970  139.4252  157.3657 H   0  0  0  0  0  0  0  0  0  0  0  0
  153.6214  139.5725  155.5875 H   0  0  0  0  0  0  0  0  0  0  0  0
  151.9062  139.9107  153.7268 H   0  0  0  0  0  0  0  0  0  0  0  0
  151.8216  138.4449  154.6641 H   0  0  0  0  0  0  0  0  0  0  0  0
  149.7108  138.9052  153.4343 H   0  0  0  0  0  0  0  0  0  0  0  0
  149.4211  138.8673  155.1509 H   0  0  0  0  0  0  0  0  0  0  0  0
  149.7864  141.3689  153.4461 H   0  0  0  0  0  0  0  0  0  0  0  0
  147.2929  140.3241  154.8701 H   0  0  0  0  0  0  0  0  0  0  0  0
  147.5730  140.2993  153.1306 H   0  0  0  0  0  0  0  0  0  0  0  0
  147.4089  141.8357  153.9727 H   0  0  0  0  0  0  0  0  0  0  0  0
  149.3076  142.6637  155.4906 H   0  0  0  0  0  0  0  0  0  0  0  0
  149.1708  141.1991  156.4208 H   0  0  0  0  0  0  0  0  0  0  0  0
  151.4204  142.2436  156.7228 H   0  0  0  0  0  0  0  0  0  0  0  0
  151.6564  142.2415  155.0049 H   0  0  0  0  0  0  0  0  0  0  0  0
  152.6758  143.5556  160.1558 H   0  0  0  0  0  0  0  0  0  0  0  0
  153.1881  142.9236  161.7135 H   0  0  0  0  0  0  0  0  0  0  0  0
  151.5075  142.7733  161.2232 H   0  0  0  0  0  0  0  0  0  0  0  0
  1  2  1  0  0  0  0
  1 19  1  0  0  0  0
  1 20  1  0  0  0  0
  1 21  1  0  0  0  0
  2 17  2  0  0  0  0
  2  3  1  0  0  0  0
  3  4  2  0  0  0  0
  4  5  1  0  0  0  0
  4 22  1  0  0  0  0
  5  6  1  0  0  0  0
  5 15  1  0  0  0  0
  6  7  1  0  0  0  0
  6 23  1  0  0  0  0
  6 24  1  0  0  0  0
  7 14  1  0  0  0  0
  7  8  1  0  0  0  0
  7  9  1  0  0  0  0
  8 25  1  0  0  0  0
  9 10  1  0  0  0  0
  9 26  1  0  0  0  0
  9 27  1  0  0  0  0
 10 11  1  0  0  0  0
 10 28  1  0  0  0  0
 10 29  1  0  0  0  0
 11 12  1  0  0  0  0
 11 13  1  0  0  0  0
 11 30  1  0  0  0  0
 12 31  1  0  0  0  0
 12 32  1  0  0  0  0
 12 33  1  0  0  0  0
 13 14  1  0  0  0  0
 13 34  1  0  0  0  0
 13 35  1  0  0  0  0
 14 36  1  0  0  0  0
 14 37  1  0  0  0  0
 15 16  2  0  0  0  0
 15 17  1  0  0  0  0
 17 18  1  0  0  0  0
 18 38  1  0  0  0  0
 18 39  1  0  0  0  0
 18 40  1  0  0  0  0
M  END
> <s_m_source_file>
AV-unprocessed.smi

> <i_m_source_file_index>
2462

> <i_lp_mmshare_version>
43012

> <i_f3d_flags>
0

> <s_epik_input>
W0NIM11jMW5bY0hdbihjKD1PKWMxW0NIM10pW0NIMl1bQ0BAXTIoW09IXSlbQ0gyXVtDSDJdW0NAQEhdKFtDSDNdKVtDSDJdW0NIMl0y

> <s_epik_cmdline>
J2VwaWtfcHl0aG9uJywgJy1waCcsICc3LjAnLCAnLXRuJywgJzgnLCAnLW1hJywgJzIwMCcsICctbWV0YWxfYmluZGluZycsICctaW1hZScsICc8aW5maWxlLm1hZT4nLCAnLW9tYWUnLCAnPG91dGZpbGUubWFlPic=

> <r_lp_tautomer_probability>
1

> <r_epik_Ionization_Penalty>
0.000179745

> <r_epik_Ionization_Penalty_Charging>
2.35483e-07

> <r_epik_Ionization_Penalty_Neutral>
0.00017951

> <r_epik_State_Penalty>
-0

> <r_epik_Charging_Adjusted_Penalty>
2.35483e-07

> <i_epik_Tot_Q>
0

> <i_epik_Tot_abs_Q>
0

> <r_epik_Metal_State_Penalty>
-0

> <b_epik_Metal_Only>
0

> <s_lp_Force_Field>
OPLS_2005

> <r_lp_Energy>
24.5365

> <b_lp_Chiralities_Consistent>
1

> <s_lp_Variant>
AV-unprocessed.smi:2462-1

> <Gold.Version>
5.8.1

> <Gold.Id.Protein>
6NUR|6NUR_protein|mol2

> <Gold.PLP.Fitness>
37.8962

> <Gold.PLP.PLP>
-35.2618

> <Gold.PLP.part.hbond>
-1.0000

> <Gold.PLP.part.metal>
0.0000

> <Gold.PLP.part.buried>
-4.1598

> <Gold.PLP.part.nonpolar>
-30.2688

> <Gold.PLP.part.repulsive>
0.0123

> <Gold.PLP.ligand.clash>
0.0000

> <Gold.PLP.ligand.torsion>
0.2217

> <Gold.PLP.Chemscore.Hbond>
1.0000

> <Gold.PLP.Chemscore.CHOScore>
0.0000

> <Gold.PLP.Chemscore.Metal>
0.0000

> <Gold.PLP.Chemscore.Internal.Correction>
0.0780

> <Gold.Rescore>
     Score         DG    S(hbond)    S(metal)    S(lipo)     H(rot)  DE(clash)    DE(int)     intcor
     14.25     -15.06       0.98        0.00      90.66       1.68       0.41       0.40       ----

> <Gold.Chemscore.Fitness>
14.2521

> <Gold.Chemscore.DG>
-15.0588

> <Gold.Chemscore.ZeroCoef>
-5.4800

> <Gold.Chemscore.Hbond>
0.9766

> <Gold.Chemscore.Metal>
0.0000

> <Gold.Chemscore.Lipo>
90.6562

> <Gold.Chemscore.Internal_Hbond>
0.0000

> <Gold.Chemscore.DEClash>
0.4102

> <Gold.Chemscore.DEInternal>
0.3964

> <Gold.Chemscore.Rot>
1.6758

> <Gold.Chemscore.Internal.Correction>
   9.000000E+99

> <Gold.Chemscore.Hbond.Weighted>
-3.2619

> <Gold.Chemscore.Metal.Weighted>
-0.0000

> <Gold.Chemscore.Lipo.Weighted>
-10.6068

> <Gold.Chemscore.Internal_Hbond.Weighted>
0.0000

> <Gold.Chemscore.DEClash.Weighted>
0.4102

> <Gold.Chemscore.DEInternal.Weighted>
0.3964

> <Gold.Chemscore.Rot.Weighted>
4.2899

> <Gold.Chemscore.Internal.Correction.Weighted>
   9.000000E+99

> <Gold.Protein.RotatedTorsions>
[ 6907 6896 6895 6894 ] final  -91.94 input  -60.11 | X-H torsion
[ 7974 7965 7964 7962 ] final  148.36 input  175.53 | X-H torsion
[ 8008 7997 7996 7995 ] final   80.45 input   59.86 | X-H torsion
[ 10167 10162 10161 10158 ] final  148.39 input  -65.29 | X-H torsion
[ 10718 10713 10712 10709 ] final -173.14 input   66.30 | X-H torsion
[ 10763 10752 10751 10750 ] final   -1.15 input  -60.55 | X-H torsion
[ 11005 11000 10999 10996 ] final   26.46 input  -57.11 | X-H torsion

> <Gold.Protein.ActiveResidues>
 VAL166  LYS551  ARG553  GLY616  TRP617  ASP618  TYR619  PRO620  LYS621  CYS622 
 ASP623  PHE694  ASN695  SER759  ASP760  ASP761  ALA762  ILE779  LEU786  VAL792 
 PHE793  MET794  SER795  GLU796  ALA797  LYS798  CYS799  TRP800  GLU811  SER814 

> <Gold.Protein.RotatedAtoms>
  150.6899  134.2199  159.4392 H   0  0  0  0  0  0  0  0  0  0  0  0  # atno 6907 bound_to 6896
  152.0156  134.9849  160.0578 H   0  0  0  0  0  0  0  0  0  0  0  0  # atno 6908 bound_to 6896
  152.1447  133.4450  159.4821 H   0  0  0  0  0  0  0  0  0  0  0  0  # atno 6909 bound_to 6896
  144.8520  139.6144  143.5969 H   0  0  0  0  0  0  0  0  0  0  0  0  # atno 7974 bound_to 7965
  155.8837  140.3442  155.5906 H   0  0  0  0  0  0  0  0  0  0  0  0  # atno 8008 bound_to 7997
  155.7690  140.0843  157.2136 H   0  0  0  0  0  0  0  0  0  0  0  0  # atno 8009 bound_to 7997
  154.4027  140.1522  156.2908 H   0  0  0  0  0  0  0  0  0  0  0  0  # atno 8010 bound_to 7997
  139.4876  144.5683  151.7102 H   0  0  0  0  0  0  0  0  0  0  0  0  # atno 10167 bound_to 10162
  156.7660  130.9431  151.3119 H   0  0  0  0  0  0  0  0  0  0  0  0  # atno 10718 bound_to 10713
  153.3411  135.6980  153.6866 H   0  0  0  0  0  0  0  0  0  0  0  0  # atno 10763 bound_to 10752
  153.5631  135.3531  155.2808 H   0  0  0  0  0  0  0  0  0  0  0  0  # atno 10764 bound_to 10752
  154.8637  135.4254  154.2624 H   0  0  0  0  0  0  0  0  0  0  0  0  # atno 10765 bound_to 10752
  140.3368  134.2377  155.7695 H   0  0  0  0  0  0  0  0  0  0  0  0  # atno 11005 bound_to 11000
  146.2792  139.6832  142.9241 LP  0  0  0  0  0  0  0  0  0  0  0  0  # atno 17320 bound_to 7965
  145.4482  141.0427  143.2819 LP  0  0  0  0  0  0  0  0  0  0  0  0  # atno 17321 bound_to 7965
  140.5266  144.0796  150.6039 LP  0  0  0  0  0  0  0  0  0  0  0  0  # atno 17342 bound_to 10162
  140.3772  143.2822  152.0211 LP  0  0  0  0  0  0  0  0  0  0  0  0  # atno 17343 bound_to 10162
  157.6713  130.9053  150.0047 LP  0  0  0  0  0  0  0  0  0  0  0  0  # atno 17370 bound_to 10713
  156.1308  130.3643  149.9734 LP  0  0  0  0  0  0  0  0  0  0  0  0  # atno 17371 bound_to 10713
  141.2049  133.7874  157.0262 LP  0  0  0  0  0  0  0  0  0  0  0  0  # atno 17394 bound_to 11000
  140.0814  134.9646  157.1630 LP  0  0  0  0  0  0  0  0  0  0  0  0  # atno 17395 bound_to 11000

$$$$
