AV-unprocessed.smi:2809|AV-procd|sdf|10825|dock1
  -GOLD-   2272015263D 1   1.00000     0.00000
 Structure written by MMmdl.
 44 45  0  0  0  0  0  0  0  0  1 V2000
  151.1016  145.3197  160.0402 C   0  0  0  0  0  0  0  0  0  0  0  0
  152.2415  144.8583  159.1253 C   0  0  0  0  0  0  0  0  0  0  0  0
  152.2901  143.3487  158.9848 C   0  0  0  0  0  0  0  0  0  0  0  0
  151.7537  142.7225  157.8421 C   0  0  0  0  0  0  0  0  0  0  0  0
  151.8048  141.3212  157.7148 C   0  0  0  0  0  0  0  0  0  0  0  0
  152.3914  140.5252  158.7197 C   0  0  0  0  0  0  0  0  0  0  0  0
  152.4012  139.1629  158.5113 O   0  0  0  0  0  0  0  0  0  0  0  0
  151.3967  138.6006  157.6773 C   0  0  0  0  0  0  0  0  0  0  0  0
  150.9886  137.2342  158.2488 C   0  0  2  0  0  0  0  0  0  0  0  0
  152.1107  136.3822  158.1336 O   0  0  0  0  0  0  0  0  0  0  0  0
  149.8064  136.6096  157.4733 C   0  0  0  0  0  0  0  0  0  0  0  0
  149.2341  135.4472  158.1722 N   0  0  0  0  0  0  0  0  0  0  0  0
  149.4379  134.1957  157.5689 C   0  0  0  0  0  0  0  0  0  0  0  0
  148.9760  133.1070  158.0912 N   0  0  0  0  0  0  0  0  0  0  0  0
  148.2551  133.1586  159.2877 C   0  0  0  0  0  0  0  0  0  0  0  0
  147.7559  131.8236  159.8110 C   0  0  0  0  0  0  0  0  0  0  0  0
  148.0283  134.3392  159.9260 C   0  0  0  0  0  0  0  0  0  0  0  0
  147.2548  134.4559  161.2337 C   0  0  0  0  0  0  0  0  0  0  0  0
  148.5501  135.5867  159.3448 C   0  0  0  0  0  0  0  0  0  0  0  0
  148.3897  136.6890  159.8727 O   0  0  0  0  0  0  0  0  0  0  0  0
  152.9284  141.1607  159.8675 C   0  0  0  0  0  0  0  0  0  0  0  0
  152.8766  142.5622  159.9963 C   0  0  0  0  0  0  0  0  0  0  0  0
  151.0871  146.4065  160.1241 H   0  0  0  0  0  0  0  0  0  0  0  0
  151.2117  144.9093  161.0444 H   0  0  0  0  0  0  0  0  0  0  0  0
  150.1326  145.0035  159.6530 H   0  0  0  0  0  0  0  0  0  0  0  0
  152.1263  145.3043  158.1367 H   0  0  0  0  0  0  0  0  0  0  0  0
  153.1953  145.2169  159.5142 H   0  0  0  0  0  0  0  0  0  0  0  0
  151.3028  143.3142  157.0588 H   0  0  0  0  0  0  0  0  0  0  0  0
  151.3907  140.8515  156.8344 H   0  0  0  0  0  0  0  0  0  0  0  0
  150.5270  139.2576  157.6197 H   0  0  0  0  0  0  0  0  0  0  0  0
  151.7956  138.4750  156.6690 H   0  0  0  0  0  0  0  0  0  0  0  0
  150.7505  137.3531  159.3066 H   0  0  0  0  0  0  0  0  0  0  0  0
  152.8856  136.8730  158.3606 H   0  0  0  0  0  0  0  0  0  0  0  0
  149.0151  137.3518  157.3531 H   0  0  0  0  0  0  0  0  0  0  0  0
  150.1025  136.3742  156.4487 H   0  0  0  0  0  0  0  0  0  0  0  0
  150.0104  134.2089  156.6398 H   0  0  0  0  0  0  0  0  0  0  0  0
  146.6668  131.8176  159.8625 H   0  0  0  0  0  0  0  0  0  0  0  0
  148.1534  131.6302  160.8075 H   0  0  0  0  0  0  0  0  0  0  0  0
  148.0647  131.0021  159.1633 H   0  0  0  0  0  0  0  0  0  0  0  0
  147.8970  134.8662  162.0137 H   0  0  0  0  0  0  0  0  0  0  0  0
  146.8704  133.5026  161.5922 H   0  0  0  0  0  0  0  0  0  0  0  0
  146.4031  135.1253  161.1095 H   0  0  0  0  0  0  0  0  0  0  0  0
  153.3856  140.5953  160.6650 H   0  0  0  0  0  0  0  0  0  0  0  0
  153.2917  143.0331  160.8754 H   0  0  0  0  0  0  0  0  0  0  0  0
  1  2  1  0  0  0  0
  1 23  1  0  0  0  0
  1 24  1  0  0  0  0
  1 25  1  0  0  0  0
  2  3  1  0  0  0  0
  2 26  1  0  0  0  0
  2 27  1  0  0  0  0
  3 22  1  0  0  0  0
  3  4  2  0  0  0  0
  4  5  1  0  0  0  0
  4 28  1  0  0  0  0
  5  6  2  0  0  0  0
  5 29  1  0  0  0  0
  6  7  1  0  0  0  0
  6 21  1  0  0  0  0
  7  8  1  0  0  0  0
  8  9  1  0  0  0  0
  8 30  1  0  0  0  0
  8 31  1  0  0  0  0
  9 10  1  0  0  0  0
  9 11  1  0  0  0  0
  9 32  1  0  0  0  0
 10 33  1  0  0  0  0
 11 12  1  0  0  0  0
 11 34  1  0  0  0  0
 11 35  1  0  0  0  0
 12 19  1  0  0  0  0
 12 13  1  0  0  0  0
 13 14  2  0  0  0  0
 13 36  1  0  0  0  0
 14 15  1  0  0  0  0
 15 16  1  0  0  0  0
 15 17  2  0  0  0  0
 16 37  1  0  0  0  0
 16 38  1  0  0  0  0
 16 39  1  0  0  0  0
 17 18  1  0  0  0  0
 17 19  1  0  0  0  0
 18 40  1  0  0  0  0
 18 41  1  0  0  0  0
 18 42  1  0  0  0  0
 19 20  2  0  0  0  0
 21 22  2  0  0  0  0
 21 43  1  0  0  0  0
 22 44  1  0  0  0  0
M  END
> <s_m_source_file>
AV-unprocessed.smi

> <i_m_source_file_index>
2809

> <i_lp_mmshare_version>
43012

> <i_f3d_flags>
0

> <s_epik_input>
W0NIM11bQ0gyXWMxW2NIXVtjSF1jKFtjSF1bY0hdMSlPW0NIMl1bQ0BIXShbT0hdKVtDSDJdbjJbY0hdbmMoW0NIM10pYyhbQ0gzXSljMj1P

> <s_epik_cmdline>
J2VwaWtfcHl0aG9uJywgJy1waCcsICc3LjAnLCAnLXRuJywgJzgnLCAnLW1hJywgJzIwMCcsICctbWV0YWxfYmluZGluZycsICctaW1hZScsICc8aW5maWxlLm1hZT4nLCAnLW9tYWUnLCAnPG91dGZpbGUubWFlPic=

> <r_lp_tautomer_probability>
1

> <r_epik_Ionization_Penalty>
3.74127e-05

> <r_epik_Ionization_Penalty_Charging>
8.43242e-08

> <r_epik_Ionization_Penalty_Neutral>
3.73284e-05

> <r_epik_State_Penalty>
-0

> <r_epik_Charging_Adjusted_Penalty>
8.43242e-08

> <i_epik_Tot_Q>
0

> <i_epik_Tot_abs_Q>
0

> <r_epik_Metal_State_Penalty>
-0

> <b_epik_Metal_Only>
0

> <s_lp_Force_Field>
OPLS_2005

> <r_lp_Energy>
22.1893

> <b_lp_Chiralities_Consistent>
1

> <s_lp_Variant>
AV-unprocessed.smi:2809-1

> <Gold.Version>
5.8.1

> <Gold.Id.Protein>
6NUR|6NUR_protein|mol2

> <Gold.PLP.Fitness>
54.2573

> <Gold.PLP.PLP>
-48.9497

> <Gold.PLP.part.hbond>
-3.0000

> <Gold.PLP.part.metal>
0.0000

> <Gold.PLP.part.buried>
-5.7291

> <Gold.PLP.part.nonpolar>
-40.8890

> <Gold.PLP.part.repulsive>
0.0000

> <Gold.PLP.ligand.clash>
0.0000

> <Gold.PLP.ligand.torsion>
1.0570

> <Gold.PLP.Chemscore.Hbond>
2.4240

> <Gold.PLP.Chemscore.CHOScore>
0.0000

> <Gold.PLP.Chemscore.Metal>
0.0000

> <Gold.Chemscore.Hbonds>
donor molecule, donor type, donor heavy atom, donor atom, acceptor molecule, acceptor atom, score
      P1  H  6896  6908       L1    10  0.04

> <Gold.PLP.Chemscore.Internal.Correction>
0.1495

> <Gold.Rescore>
     Score         DG    S(hbond)    S(metal)    S(lipo)     H(rot)  DE(clash)    DE(int)     intcor
     20.46     -21.39       2.36        0.00     122.61       2.47       0.01       0.92       ----

> <Gold.Chemscore.Fitness>
20.4580

> <Gold.Chemscore.DG>
-21.3892

> <Gold.Chemscore.ZeroCoef>
-5.4800

> <Gold.Chemscore.Hbond>
2.3582

> <Gold.Chemscore.Metal>
0.0000

> <Gold.Chemscore.Lipo>
122.6073

> <Gold.Chemscore.Internal_Hbond>
0.0000

> <Gold.Chemscore.DEClash>
0.0111

> <Gold.Chemscore.DEInternal>
0.9201

> <Gold.Chemscore.Rot>
2.4657

> <Gold.Chemscore.Internal.Correction>
   9.000000E+99

> <Gold.Chemscore.Hbond.Weighted>
-7.8762

> <Gold.Chemscore.Metal.Weighted>
-0.0000

> <Gold.Chemscore.Lipo.Weighted>
-14.3451

> <Gold.Chemscore.Internal_Hbond.Weighted>
0.0000

> <Gold.Chemscore.DEClash.Weighted>
0.0111

> <Gold.Chemscore.DEInternal.Weighted>
0.9201

> <Gold.Chemscore.Rot.Weighted>
6.3121

> <Gold.Chemscore.Internal.Correction.Weighted>
   9.000000E+99

> <Gold.Protein.RotatedTorsions>
[ 6907 6896 6895 6894 ] final -144.51 input  -60.11 | X-H torsion
[ 7974 7965 7964 7962 ] final   36.17 input  175.53 | X-H torsion
[ 8008 7997 7996 7995 ] final   50.06 input   59.86 | X-H torsion
[ 10167 10162 10161 10158 ] final -118.98 input  -65.29 | X-H torsion
[ 10718 10713 10712 10709 ] final -148.67 input   66.30 | X-H torsion
[ 10763 10752 10751 10750 ] final -130.45 input  -60.55 | X-H torsion
[ 11005 11000 10999 10996 ] final  -30.50 input  -57.11 | X-H torsion

> <Gold.Protein.ActiveResidues>
 VAL166  LYS551  ARG553  GLY616  TRP617  ASP618  TYR619  PRO620  LYS621  CYS622 
 ASP623  PHE694  ASN695  SER759  ASP760  ASP761  ALA762  ILE779  LEU786  VAL792 
 PHE793  MET794  SER795  GLU796  ALA797  LYS798  CYS799  TRP800  GLU811  SER814 

> <Gold.Protein.RotatedAtoms>
  151.1150  133.5145  159.2603 H   0  0  0  0  0  0  0  0  0  0  0  0  # atno 6907 bound_to 6896
  151.1924  135.0408  159.8848 H   0  0  0  0  0  0  0  0  0  0  0  0  # atno 6908 bound_to 6896
  152.5452  134.0989  159.8362 H   0  0  0  0  0  0  0  0  0  0  0  0  # atno 6909 bound_to 6896
  146.1230  139.6050  142.9277 H   0  0  0  0  0  0  0  0  0  0  0  0  # atno 7974 bound_to 7965
  155.4125  140.3443  155.4265 H   0  0  0  0  0  0  0  0  0  0  0  0  # atno 8008 bound_to 7997
  156.1440  140.1550  156.8907 H   0  0  0  0  0  0  0  0  0  0  0  0  # atno 8009 bound_to 7997
  154.4995  140.0818  156.7748 H   0  0  0  0  0  0  0  0  0  0  0  0  # atno 8010 bound_to 7997
  140.0516  143.5054  152.2079 H   0  0  0  0  0  0  0  0  0  0  0  0  # atno 10167 bound_to 10162
  156.4232  130.8039  151.2263 H   0  0  0  0  0  0  0  0  0  0  0  0  # atno 10718 bound_to 10713
  154.8755  135.3862  154.4086 H   0  0  0  0  0  0  0  0  0  0  0  0  # atno 10763 bound_to 10752
  153.4802  135.7030  153.5947 H   0  0  0  0  0  0  0  0  0  0  0  0  # atno 10764 bound_to 10752
  153.4366  135.3866  155.2170 H   0  0  0  0  0  0  0  0  0  0  0  0  # atno 10765 bound_to 10752
  140.9388  133.7291  156.1045 H   0  0  0  0  0  0  0  0  0  0  0  0  # atno 11005 bound_to 11000
  145.5425  141.0420  143.2323 LP  0  0  0  0  0  0  0  0  0  0  0  0  # atno 17320 bound_to 7965
  144.7615  139.6945  143.7232 LP  0  0  0  0  0  0  0  0  0  0  0  0  # atno 17321 bound_to 7965
  139.5949  144.7563  151.3309 LP  0  0  0  0  0  0  0  0  0  0  0  0  # atno 17342 bound_to 10162
  140.7214  143.7125  150.7758 LP  0  0  0  0  0  0  0  0  0  0  0  0  # atno 17343 bound_to 10162
  157.7508  131.0221  150.3779 LP  0  0  0  0  0  0  0  0  0  0  0  0  # atno 17370 bound_to 10713
  156.4101  130.3932  149.6897 LP  0  0  0  0  0  0  0  0  0  0  0  0  # atno 17371 bound_to 10713
  140.7762  134.3777  157.5497 LP  0  0  0  0  0  0  0  0  0  0  0  0  # atno 17394 bound_to 11000
  139.8815  134.9053  156.2897 LP  0  0  0  0  0  0  0  0  0  0  0  0  # atno 17395 bound_to 11000

$$$$
