AV-unprocessed.smi:160|AV-procd|sdf|1368|dock4
  -GOLD-   2262019 83D 1   1.00000     0.00000
 Structure written by MMmdl.
 28 29  0  0  0  0  0  0  0  0  2 V2000
  149.3432  135.9371  158.6789 N   0  5  0  0  0  0  0  0  0  0  0  0
  148.5753  136.9408  159.1571 C   0  0  0  0  0  0  0  0  0  0  0  0
  148.1118  137.0238  160.2940 O   0  0  0  0  0  0  0  0  0  0  0  0
  148.2892  138.0394  158.1608 C   0  0  0  0  0  0  0  0  0  0  0  0
  147.3290  138.9792  158.4159 N   0  0  0  0  0  0  0  0  0  0  0  0
  147.4320  139.6956  157.3044 C   0  0  0  0  0  0  0  0  0  0  0  0
  148.3703  139.2603  156.4560 N   0  0  0  0  0  0  0  0  0  0  0  0
  148.7754  139.7382  155.0945 C   0  0  1  0  0  0  0  0  0  0  0  0
  148.2418  138.8739  154.1407 O   0  0  0  0  0  0  0  0  0  0  0  0
  146.9412  139.3209  153.7820 C   0  0  2  0  0  0  0  0  0  0  0  0
  146.5356  138.7161  152.4290 C   0  0  0  0  0  0  0  0  0  0  0  0
  147.6827  138.4425  151.6529 O   0  0  0  0  0  0  0  0  0  0  0  0
  147.1184  140.8437  153.7414 C   0  0  1  0  0  0  0  0  0  0  0  0
  145.9007  141.4829  154.0675 O   0  0  0  0  0  0  0  0  0  0  0  0
  148.1778  141.1286  154.8078 C   0  0  2  0  0  0  0  0  0  0  0  0
  149.1569  142.0178  154.3101 O   0  0  0  0  0  0  0  0  0  0  0  0
  148.9344  138.1524  156.9955 N   0  0  0  0  0  0  0  0  0  0  0  0
  149.8655  139.7006  155.1119 H   0  0  0  0  0  0  0  0  0  0  0  0
  146.2287  139.0475  154.5631 H   0  0  0  0  0  0  0  0  0  0  0  0
  147.4605  141.1612  152.7547 H   0  0  0  0  0  0  0  0  0  0  0  0
  147.7429  141.5513  155.7151 H   0  0  0  0  0  0  0  0  0  0  0  0
  149.3711  135.7850  157.6638 H   0  0  0  0  0  0  0  0  0  0  0  0
  146.8072  140.5540  157.1061 H   0  0  0  0  0  0  0  0  0  0  0  0
  146.0137  137.7711  152.5834 H   0  0  0  0  0  0  0  0  0  0  0  0
  145.8577  139.3761  151.8868 H   0  0  0  0  0  0  0  0  0  0  0  0
  148.3862  138.9989  151.9506 H   0  0  0  0  0  0  0  0  0  0  0  0
  145.1897  140.9565  153.7351 H   0  0  0  0  0  0  0  0  0  0  0  0
  149.1214  142.8137  154.8191 H   0  0  0  0  0  0  0  0  0  0  0  0
  1  2  1  0  0  0  0
  1 22  1  0  0  0  0
  2  3  2  0  0  0  0
  2  4  1  0  0  0  0
  4 17  2  0  0  0  0
  4  5  1  0  0  0  0
  5  6  2  0  0  0  0
  6  7  1  0  0  0  0
  6 23  1  0  0  0  0
  7  8  1  0  0  0  0
  7 17  1  0  0  0  0
  8 18  1  0  0  0  0
  8 15  1  0  0  0  0
  8  9  1  0  0  0  0
  9 10  1  0  0  0  0
 10 19  1  0  0  0  0
 10 11  1  0  0  0  0
 10 13  1  0  0  0  0
 11 12  1  0  0  0  0
 11 24  1  0  0  0  0
 11 25  1  0  0  0  0
 12 26  1  0  0  0  0
 13 20  1  0  0  0  0
 13 14  1  0  0  0  0
 13 15  1  0  0  0  0
 14 27  1  0  0  0  0
 15 21  1  0  0  0  0
 15 16  1  0  0  0  0
 16 28  1  0  0  0  0
M  CHG  1   1  -1
M  END
> <s_m_source_file>
AV-unprocessed.smi

> <i_m_source_file_index>
160

> <i_lp_mmshare_version>
43012

> <i_f3d_flags>
0

> <s_epik_input>
W05IMl1DKD1PKWMxbltjSF1uKG4xKVtDQEBIXTJPW0NASF0oW0NIMl1bT0hdKVtDQEBIXShbT0hdKVtDQEhdMltPSF0=

> <s_epik_cmdline>
J2VwaWtfcHl0aG9uJywgJy1waCcsICc3LjAnLCAnLXRuJywgJzgnLCAnLW1hJywgJzIwMCcsICctbWV0YWxfYmluZGluZycsICctaW1hZScsICc8aW5maWxlLm1hZT4nLCAnLW9tYWUnLCAnPG91dGZpbGUubWFlPic=

> <r_lp_tautomer_probability>
1

> <r_epik_Ionization_Penalty>
6.6993

> <r_epik_Ionization_Penalty_Charging>
6.6993

> <r_epik_Ionization_Penalty_Neutral>
6.01698e-06

> <r_epik_State_Penalty>
6.69929

> <r_epik_Charging_Adjusted_Penalty>
13.3986

> <i_epik_Tot_Q>
-1

> <i_epik_Tot_abs_Q>
1

> <r_epik_Metal_State_Penalty>
2.62798

> <b_epik_Metal_Only>
1

> <s_epik_Chemistry_Notes>
This compound contains an acetal/aminal-like group ( X-CH(R)-Y where X, Y are N, S, or O) that may be acid/base labile, releasing an aldehyde.

> <s_lp_Force_Field>
OPLS_2005

> <r_lp_Energy>
37.5232

> <b_lp_Chiralities_Consistent>
1

> <s_lp_Variant>
AV-unprocessed.smi:160-26

> <Gold.Version>
5.8.1

> <Gold.Id.Protein>
6NUR|6NUR_protein|mol2

> <Gold.PLP.Fitness>
43.8488

> <Gold.PLP.PLP>
-24.0893

> <Gold.PLP.part.hbond>
-10.1017

> <Gold.PLP.part.metal>
0.0000

> <Gold.PLP.part.buried>
-3.3748

> <Gold.PLP.part.nonpolar>
-11.2368

> <Gold.PLP.part.repulsive>
0.1573

> <Gold.PLP.ligand.clash>
0.0000

> <Gold.PLP.ligand.torsion>
0.7516

> <Gold.PLP.Chemscore.Hbond>
7.0737

> <Gold.PLP.Chemscore.CHOScore>
0.0000

> <Gold.PLP.Chemscore.Metal>
0.0000

> <Gold.Chemscore.Hbonds>
donor molecule, donor type, donor heavy atom, donor atom, acceptor molecule, acceptor atom, score
      L1  H    12    26       P1  7957  0.67
      L1  H    14    27       P1 10175  1.00
      L1  H    16    28       P1  8028  0.88
      P1  H  6896  6907       L1     1  1.79
      P1  H  6931  6943       L1     3  0.40
      P1  H  6934  6947       L1     3  0.26
      P1  H  7954  7966       L1    12  1.00
      P1  H  8011  8017       L1    16  0.30

> <Gold.PLP.Chemscore.Internal.Correction>
0.0415

> <Gold.Rescore>
     Score         DG    S(hbond)    S(metal)    S(lipo)     H(rot)  DE(clash)    DE(int)     intcor
     14.16     -14.78       4.99        0.00      25.37       4.04       0.02       0.60       ----

> <Gold.Chemscore.Fitness>
14.1614

> <Gold.Chemscore.DG>
-14.7809

> <Gold.Chemscore.ZeroCoef>
-5.4800

> <Gold.Chemscore.Hbond>
4.9926

> <Gold.Chemscore.Metal>
0.0000

> <Gold.Chemscore.Lipo>
25.3736

> <Gold.Chemscore.Internal_Hbond>
0.0000

> <Gold.Chemscore.DEClash>
0.0182

> <Gold.Chemscore.DEInternal>
0.6013

> <Gold.Chemscore.Rot>
4.0403

> <Gold.Chemscore.Internal.Correction>
   9.000000E+99

> <Gold.Chemscore.Hbonds>
donor molecule, donor type, donor heavy atom, donor atom, acceptor molecule, acceptor atom, score
      L1  H    12    26       P1  7957  0.65
      L1  H    14    27       P1 10175  0.77
      L1  H    16    28       P1  8028  0.86
      P1  H  6896  6907       L1     1  0.67
      P1  H  6931  6943       L1     3  0.41
      P1  H  6934  6947       L1     3  0.26
      P1  H  7954  7966       L1    12  0.47
      P1  H  8011  8017       L1    16  0.22

> <Gold.Chemscore.Hbond.Weighted>
-16.6753

> <Gold.Chemscore.Metal.Weighted>
-0.0000

> <Gold.Chemscore.Lipo.Weighted>
-2.9687

> <Gold.Chemscore.Internal_Hbond.Weighted>
0.0000

> <Gold.Chemscore.DEClash.Weighted>
0.0182

> <Gold.Chemscore.DEInternal.Weighted>
0.6013

> <Gold.Chemscore.Rot.Weighted>
10.3431

> <Gold.Chemscore.Internal.Correction.Weighted>
   9.000000E+99

> <Gold.Protein.RotatedTorsions>
[ 6907 6896 6895 6894 ] final  -58.03 input  -60.11 | X-H torsion
[ 7974 7965 7964 7962 ] final  -52.01 input  175.53 | X-H torsion
[ 8008 7997 7996 7995 ] final  109.45 input   59.86 | X-H torsion
[ 10167 10162 10161 10158 ] final  120.43 input  -65.29 | X-H torsion
[ 10718 10713 10712 10709 ] final   21.43 input   66.30 | X-H torsion
[ 10763 10752 10751 10750 ] final -169.11 input  -60.55 | X-H torsion
[ 11005 11000 10999 10996 ] final  -55.17 input  -57.11 | X-H torsion

> <Gold.Protein.ActiveResidues>
 VAL166  LYS551  ARG553  GLY616  TRP617  ASP618  TYR619  PRO620  LYS621  CYS622 
 ASP623  PHE694  ASN695  SER759  ASP760  ASP761  ALA762  ILE779  LEU786  VAL792 
 PHE793  MET794  SER795  GLU796  ALA797  LYS798  CYS799  TRP800  GLU811  SER814 

> <Gold.Protein.RotatedAtoms>
  150.8039  134.7151  159.6625 H   0  0  0  0  0  0  0  0  0  0  0  0  # atno 6907 bound_to 6896
  152.4158  134.6041  160.0018 H   0  0  0  0  0  0  0  0  0  0  0  0  # atno 6908 bound_to 6896
  151.6271  133.3297  159.3137 H   0  0  0  0  0  0  0  0  0  0  0  0  # atno 6909 bound_to 6896
  145.9127  140.7901  142.9687 H   0  0  0  0  0  0  0  0  0  0  0  0  # atno 7974 bound_to 7965
  156.1980  140.3057  155.9467 H   0  0  0  0  0  0  0  0  0  0  0  0  # atno 8008 bound_to 7997
  155.3021  140.0447  157.3047 H   0  0  0  0  0  0  0  0  0  0  0  0  # atno 8009 bound_to 7997
  154.5534  140.2298  155.8458 H   0  0  0  0  0  0  0  0  0  0  0  0  # atno 8010 bound_to 7997
  139.5982  144.7048  151.3125 H   0  0  0  0  0  0  0  0  0  0  0  0  # atno 10167 bound_to 10162
  157.1383  130.6621  149.5973 H   0  0  0  0  0  0  0  0  0  0  0  0  # atno 10718 bound_to 10713
  154.6558  135.2918  154.9930 H   0  0  0  0  0  0  0  0  0  0  0  0  # atno 10763 bound_to 10752
  154.1007  135.6577  153.4872 H   0  0  0  0  0  0  0  0  0  0  0  0  # atno 10764 bound_to 10752
  153.0401  135.5242  154.7486 H   0  0  0  0  0  0  0  0  0  0  0  0  # atno 10765 bound_to 10752
  141.1061  133.6613  156.4430 H   0  0  0  0  0  0  0  0  0  0  0  0  # atno 11005 bound_to 11000
  144.6745  140.1851  143.7402 LP  0  0  0  0  0  0  0  0  0  0  0  0  # atno 17320 bound_to 7965
  145.8651  139.2243  143.1694 LP  0  0  0  0  0  0  0  0  0  0  0  0  # atno 17321 bound_to 7965
  140.7229  143.7085  150.7788 LP  0  0  0  0  0  0  0  0  0  0  0  0  # atno 17342 bound_to 10162
  140.0656  143.5111  152.2606 LP  0  0  0  0  0  0  0  0  0  0  0  0  # atno 17343 bound_to 10162
  155.9794  130.4787  150.6711 LP  0  0  0  0  0  0  0  0  0  0  0  0  # atno 17370 bound_to 10713
  157.4330  131.0852  151.1019 LP  0  0  0  0  0  0  0  0  0  0  0  0  # atno 17371 bound_to 10713
  140.4898  134.6586  157.5206 LP  0  0  0  0  0  0  0  0  0  0  0  0  # atno 17394 bound_to 11000
  139.9932  134.6952  155.9654 LP  0  0  0  0  0  0  0  0  0  0  0  0  # atno 17395 bound_to 11000

$$$$
