AV-unprocessed.smi:50|AV-procd|sdf|491|dock7
  -GOLD-   2262016353D 1   1.00000     0.00000
 Structure written by MMmdl.
 44 45  0  0  0  0  0  0  0  0  2 V2000
  152.5018  143.3204  160.0638 C   0  0  0  0  0  0  0  0  0  0  0  0
  152.4583  143.7989  158.6003 C   0  0  0  0  0  0  0  0  0  0  0  0
  152.3771  145.3378  158.5683 C   0  0  0  0  0  0  0  0  0  0  0  0
  151.3163  143.1096  157.8037 C   0  0  2  0  0  0  0  0  0  0  0  0
  150.0022  143.7040  158.1181 N   0  3  0  0  0  0  0  0  0  0  0  0
  151.1978  141.6023  158.0894 C   0  0  0  0  0  0  0  0  0  0  0  0
  152.0178  140.9476  158.7361 O   0  0  0  0  0  0  0  0  0  0  0  0
  150.0904  141.1049  157.5152 O   0  0  0  0  0  0  0  0  0  0  0  0
  149.8285  139.7121  157.5768 C   0  0  0  0  0  0  0  0  0  0  0  0
  148.3174  139.4811  157.6623 C   0  0  0  0  0  0  0  0  0  0  0  0
  148.0787  138.1322  158.0310 O   0  0  0  0  0  0  0  0  0  0  0  0
  148.7583  137.7505  159.1816 C   0  0  0  0  0  0  0  0  0  0  0  0
  147.9729  136.7224  159.8407 N   0  0  0  0  0  0  0  0  0  0  0  0
  147.5820  135.5018  159.3480 C   0  0  0  0  0  0  0  0  0  0  0  0
  146.8729  134.7944  160.1827 N   0  0  0  0  0  0  0  0  0  0  0  0
  146.7719  135.6012  161.3123 C   0  0  0  0  0  0  0  0  0  0  0  0
  146.1038  135.3640  162.5607 C   0  0  0  0  0  0  0  0  0  0  0  0
  145.4674  134.3713  162.9079 O   0  0  0  0  0  0  0  0  0  0  0  0
  146.2359  136.4434  163.4436 N   0  0  0  0  0  0  0  0  0  0  0  0
  146.9339  137.6125  163.1505 C   0  0  0  0  0  0  0  0  0  0  0  0
  146.9634  138.5530  164.1037 N   0  0  0  0  0  0  0  0  0  0  0  0
  147.5516  137.8277  162.0025 N   0  0  0  0  0  0  0  0  0  0  0  0
  147.4435  136.7921  161.1127 C   0  0  0  0  0  0  0  0  0  0  0  0
  151.4914  143.2554  156.7371 H   0  0  0  0  0  0  0  0  0  0  0  0
  145.7898  136.3527  164.3446 H   0  0  0  0  0  0  0  0  0  0  0  0
  151.5689  143.5463  160.5812 H   0  0  0  0  0  0  0  0  0  0  0  0
  153.3088  143.8075  160.6121 H   0  0  0  0  0  0  0  0  0  0  0  0
  152.6734  142.2466  160.1376 H   0  0  0  0  0  0  0  0  0  0  0  0
  153.4084  143.5180  158.1428 H   0  0  0  0  0  0  0  0  0  0  0  0
  151.4178  145.6915  158.9478 H   0  0  0  0  0  0  0  0  0  0  0  0
  152.5054  145.7330  157.5606 H   0  0  0  0  0  0  0  0  0  0  0  0
  153.1596  145.7846  159.1825 H   0  0  0  0  0  0  0  0  0  0  0  0
  149.5305  143.9470  157.2588 H   0  0  0  0  0  0  0  0  0  0  0  0
  150.1309  144.5324  158.6811 H   0  0  0  0  0  0  0  0  0  0  0  0
  150.2185  139.2355  156.6763 H   0  0  0  0  0  0  0  0  0  0  0  0
  150.3357  139.2638  158.4323 H   0  0  0  0  0  0  0  0  0  0  0  0
  147.8629  140.1702  158.3760 H   0  0  0  0  0  0  0  0  0  0  0  0
  147.8687  139.6755  156.6871 H   0  0  0  0  0  0  0  0  0  0  0  0
  149.7437  137.3566  158.9271 H   0  0  0  0  0  0  0  0  0  0  0  0
  148.8662  138.5922  159.8675 H   0  0  0  0  0  0  0  0  0  0  0  0
  147.8401  135.1535  158.3585 H   0  0  0  0  0  0  0  0  0  0  0  0
  146.4917  138.3906  164.9817 H   0  0  0  0  0  0  0  0  0  0  0  0
  147.4548  139.4213  163.9485 H   0  0  0  0  0  0  0  0  0  0  0  0
  149.4458  143.0315  158.6266 H   0  0  0  0  0  0  0  0  0  0  0  0
  1  2  1  0  0  0  0
  1 26  1  0  0  0  0
  1 27  1  0  0  0  0
  1 28  1  0  0  0  0
  2  3  1  0  0  0  0
  2  4  1  0  0  0  0
  2 29  1  0  0  0  0
  3 30  1  0  0  0  0
  3 31  1  0  0  0  0
  3 32  1  0  0  0  0
  4 24  1  0  0  0  0
  4  5  1  0  0  0  0
  4  6  1  0  0  0  0
  5 33  1  0  0  0  0
  5 34  1  0  0  0  0
  5 44  1  0  0  0  0
  6  7  2  0  0  0  0
  6  8  1  0  0  0  0
  8  9  1  0  0  0  0
  9 10  1  0  0  0  0
  9 35  1  0  0  0  0
  9 36  1  0  0  0  0
 10 11  1  0  0  0  0
 10 37  1  0  0  0  0
 10 38  1  0  0  0  0
 11 12  1  0  0  0  0
 12 13  1  0  0  0  0
 12 39  1  0  0  0  0
 12 40  1  0  0  0  0
 13 23  1  0  0  0  0
 13 14  1  0  0  0  0
 14 15  2  0  0  0  0
 14 41  1  0  0  0  0
 15 16  1  0  0  0  0
 16 23  2  0  0  0  0
 16 17  1  0  0  0  0
 17 18  2  0  0  0  0
 17 19  1  0  0  0  0
 19 25  1  0  0  0  0
 19 20  1  0  0  0  0
 20 21  1  0  0  0  0
 20 22  2  0  0  0  0
 21 42  1  0  0  0  0
 21 43  1  0  0  0  0
 22 23  1  0  0  0  0
M  CHG  1   5   1
M  END
> <s_m_source_file>
AV-unprocessed.smi

> <i_m_source_file_index>
50

> <i_lp_mmshare_version>
43012

> <i_f3d_flags>
0

> <s_epik_input>
W0NIM11bQ0hdKFtDSDNdKVtDQEhdKFtOSDJdKUMoPU8pT1tDSDJdW0NIMl1PW0NIMl1uKFtjSF1uMSljKGMxMiluYyhbTkgyXSlbbkhdYzI9Tw==

> <s_epik_cmdline>
J2VwaWtfcHl0aG9uJywgJy1waCcsICc3LjAnLCAnLXRuJywgJzgnLCAnLW1hJywgJzIwMCcsICctbWV0YWxfYmluZGluZycsICctaW1hZScsICc8aW5maWxlLm1hZT4nLCAnLW9tYWUnLCAnPG91dGZpbGUubWFlPic=

> <r_lp_tautomer_probability>
0.99994

> <r_epik_Ionization_Penalty>
0.217551

> <r_epik_Ionization_Penalty_Charging>
0.217477

> <r_epik_Ionization_Penalty_Neutral>
7.42487e-05

> <r_epik_State_Penalty>
0.206211

> <r_epik_Charging_Adjusted_Penalty>
0.423688

> <i_epik_Tot_Q>
1

> <i_epik_Tot_abs_Q>
1

> <r_epik_Metal_State_Penalty>
0.526339

> <b_epik_Metal_Only>
0

> <s_epik_Chemistry_Notes>
This compound has an ester and may undergo hydrolysis at high or low pH. This compound contains an acetal/aminal-like group ( X-CH(R)-Y where X, Y are N, S, or O) that may be acid/base labile, releasing an aldehyde.

> <s_lp_Force_Field>
OPLS_2005

> <r_lp_Energy>
8.83135

> <b_lp_Chiralities_Consistent>
1

> <s_lp_Variant>
AV-unprocessed.smi:50-1

> <Gold.Version>
5.8.1

> <Gold.Id.Protein>
6NUR|6NUR_protein|mol2

> <Gold.PLP.Fitness>
46.2182

> <Gold.PLP.PLP>
-37.4193

> <Gold.PLP.part.hbond>
-3.0805

> <Gold.PLP.part.metal>
0.0000

> <Gold.PLP.part.buried>
-4.9784

> <Gold.PLP.part.nonpolar>
-29.3640

> <Gold.PLP.part.repulsive>
1.2208

> <Gold.PLP.ligand.clash>
0.0000

> <Gold.PLP.ligand.torsion>
0.9055

> <Gold.PLP.Chemscore.Hbond>
3.5117

> <Gold.PLP.Chemscore.CHOScore>
0.0000

> <Gold.PLP.Chemscore.Metal>
0.0000

> <Gold.Chemscore.Hbonds>
donor molecule, donor type, donor heavy atom, donor atom, acceptor molecule, acceptor atom, score
      L1  H     5    33       P1  8028  2.00
      P1  H  6931  6943       L1    22  0.57
      P1  H  6934  6947       L1    22  0.42

> <Gold.PLP.Chemscore.Internal.Correction>
0.0748

> <Gold.Rescore>
     Score         DG    S(hbond)    S(metal)    S(lipo)     H(rot)  DE(clash)    DE(int)     intcor
      6.30      -7.49       2.26        0.00      58.86       4.86       0.42       0.78       ----

> <Gold.Chemscore.Fitness>
6.2953

> <Gold.Chemscore.DG>
-7.4901

> <Gold.Chemscore.ZeroCoef>
-5.4800

> <Gold.Chemscore.Hbond>
2.2627

> <Gold.Chemscore.Metal>
0.0000

> <Gold.Chemscore.Lipo>
58.8643

> <Gold.Chemscore.Internal_Hbond>
0.0000

> <Gold.Chemscore.DEClash>
0.4174

> <Gold.Chemscore.DEInternal>
0.7775

> <Gold.Chemscore.Rot>
4.8571

> <Gold.Chemscore.Internal.Correction>
   9.000000E+99

> <Gold.Chemscore.Hbonds>
donor molecule, donor type, donor heavy atom, donor atom, acceptor molecule, acceptor atom, score
      L1  H     5    33       P1  8028  0.50
      P1  H  6931  6943       L1    22  0.29
      P1  H  6934  6947       L1    22  0.08

> <Gold.Chemscore.Hbond.Weighted>
-7.5573

> <Gold.Chemscore.Metal.Weighted>
-0.0000

> <Gold.Chemscore.Lipo.Weighted>
-6.8871

> <Gold.Chemscore.Internal_Hbond.Weighted>
0.0000

> <Gold.Chemscore.DEClash.Weighted>
0.4174

> <Gold.Chemscore.DEInternal.Weighted>
0.7775

> <Gold.Chemscore.Rot.Weighted>
12.4343

> <Gold.Chemscore.Internal.Correction.Weighted>
   9.000000E+99

> <Gold.Protein.RotatedTorsions>
[ 6907 6896 6895 6894 ] final   45.83 input  -60.11 | X-H torsion
[ 7974 7965 7964 7962 ] final   26.88 input  175.53 | X-H torsion
[ 8008 7997 7996 7995 ] final  -59.51 input   59.86 | X-H torsion
[ 10167 10162 10161 10158 ] final  -56.46 input  -65.29 | X-H torsion
[ 10718 10713 10712 10709 ] final  141.81 input   66.30 | X-H torsion
[ 10763 10752 10751 10750 ] final  159.51 input  -60.55 | X-H torsion
[ 11005 11000 10999 10996 ] final -118.80 input  -57.11 | X-H torsion

> <Gold.Protein.ActiveResidues>
 VAL166  LYS551  ARG553  GLY616  TRP617  ASP618  TYR619  PRO620  LYS621  CYS622 
 ASP623  PHE694  ASN695  SER759  ASP760  ASP761  ALA762  ILE779  LEU786  VAL792 
 PHE793  MET794  SER795  GLU796  ALA797  LYS798  CYS799  TRP800  GLU811  SER814 

> <Gold.Protein.RotatedAtoms>
  152.2492  134.8150  160.0448 H   0  0  0  0  0  0  0  0  0  0  0  0  # atno 6907 bound_to 6896
  151.8836  133.3495  159.3783 H   0  0  0  0  0  0  0  0  0  0  0  0  # atno 6908 bound_to 6896
  150.7078  134.4920  159.5564 H   0  0  0  0  0  0  0  0  0  0  0  0  # atno 6909 bound_to 6896
  146.1814  139.7267  142.8898 H   0  0  0  0  0  0  0  0  0  0  0  0  # atno 7974 bound_to 7965
  154.4356  140.1060  156.6128 H   0  0  0  0  0  0  0  0  0  0  0  0  # atno 8008 bound_to 7997
  155.5791  140.3490  155.4517 H   0  0  0  0  0  0  0  0  0  0  0  0  # atno 8009 bound_to 7997
  156.0332  140.1265  157.0225 H   0  0  0  0  0  0  0  0  0  0  0  0  # atno 8010 bound_to 7997
  140.6316  143.2462  151.5227 H   0  0  0  0  0  0  0  0  0  0  0  0  # atno 10167 bound_to 10162
  157.3878  131.1001  151.0676 H   0  0  0  0  0  0  0  0  0  0  0  0  # atno 10718 bound_to 10713
  154.2329  135.2777  155.2883 H   0  0  0  0  0  0  0  0  0  0  0  0  # atno 10763 bound_to 10752
  154.5609  135.5647  153.7010 H   0  0  0  0  0  0  0  0  0  0  0  0  # atno 10764 bound_to 10752
  153.0016  135.6297  154.2471 H   0  0  0  0  0  0  0  0  0  0  0  0  # atno 10765 bound_to 10752
  141.0260  134.0052  157.3213 H   0  0  0  0  0  0  0  0  0  0  0  0  # atno 11005 bound_to 11000
  145.4066  141.0391  143.3041 LP  0  0  0  0  0  0  0  0  0  0  0  0  # atno 17320 bound_to 7965
  144.8321  139.5611  143.6939 LP  0  0  0  0  0  0  0  0  0  0  0  0  # atno 17321 bound_to 7965
  139.5529  144.2348  152.1563 LP  0  0  0  0  0  0  0  0  0  0  0  0  # atno 17342 bound_to 10162
  140.1593  144.5040  150.6641 LP  0  0  0  0  0  0  0  0  0  0  0  0  # atno 17343 bound_to 10162
  157.1721  130.6272  149.5644 LP  0  0  0  0  0  0  0  0  0  0  0  0  # atno 17370 bound_to 10713
  155.9791  130.4781  150.6694 LP  0  0  0  0  0  0  0  0  0  0  0  0  # atno 17371 bound_to 10713
  139.9176  135.0198  156.7943 LP  0  0  0  0  0  0  0  0  0  0  0  0  # atno 17394 bound_to 11000
  140.6490  133.9749  155.7745 LP  0  0  0  0  0  0  0  0  0  0  0  0  # atno 17395 bound_to 11000

$$$$
