AV-unprocessed.smi:2184|AV-procd|sdf|8874|dock7
  -GOLD-   2272012 73D 1   1.00000     0.00000
 Structure written by MMmdl.
 47 48  0  0  0  0  0  0  0  0  1 V2000
  150.0309  132.9067  154.8285 C   0  0  0  0  0  0  0  0  0  0  0  0
  148.8628  133.9895  153.9618 S   0  0  0  0  0  0  0  0  0  0  0  0
  148.8765  135.4527  155.0416 C   0  0  1  0  0  0  0  0  0  0  0  0
  148.6123  135.0375  156.4972 C   0  0  0  0  0  0  0  0  0  0  0  0
  150.1871  136.2411  154.9280 C   0  0  0  0  0  0  0  0  0  0  0  0
  151.2571  135.7150  155.2360 O   0  0  0  0  0  0  0  0  0  0  0  0
  150.0922  137.5007  154.4734 N   0  0  0  0  0  0  0  0  0  0  0  0
  151.2212  138.4049  154.2816 C   0  0  0  0  0  0  0  0  0  0  0  0
  151.3202  139.4855  155.3464 C   0  0  0  0  0  0  0  0  0  0  0  0
  150.6476  140.7128  155.1910 C   0  0  0  0  0  0  0  0  0  0  0  0
  150.7598  141.6872  156.2013 C   0  0  0  0  0  0  0  0  0  0  0  0
  151.5450  141.4067  157.3483 C   0  0  0  0  0  0  0  0  0  0  0  0
  151.7009  142.3360  158.3999 N   0  0  0  0  0  0  0  0  0  0  0  0
  152.3769  141.9067  159.6189 C   0  0  0  0  0  0  0  0  0  0  0  0
  152.1135  142.9054  160.7595 C   0  0  1  0  0  0  0  0  0  0  0  0
  152.9178  142.5615  162.0176 C   0  0  0  0  0  0  0  0  0  0  0  0
  152.4849  144.2182  160.3427 O   0  0  0  0  0  0  0  0  0  0  0  0
  151.8084  144.6876  159.1746 C   0  0  2  0  0  0  0  0  0  0  0  0
  150.3276  145.0068  159.4474 C   0  0  0  0  0  0  0  0  0  0  0  0
  152.0176  143.7067  158.0041 C   0  0  0  0  0  0  0  0  0  0  0  0
  152.1965  140.2267  157.4867 N   0  0  0  0  0  0  0  0  0  0  0  0
  152.0883  139.2989  156.5135 C   0  0  0  0  0  0  0  0  0  0  0  0
  150.1902  131.9938  154.2549 H   0  0  0  0  0  0  0  0  0  0  0  0
  149.6428  132.6297  155.8079 H   0  0  0  0  0  0  0  0  0  0  0  0
  150.9916  133.4050  154.9591 H   0  0  0  0  0  0  0  0  0  0  0  0
  148.0518  136.0931  154.7252 H   0  0  0  0  0  0  0  0  0  0  0  0
  148.6183  135.9006  157.1642 H   0  0  0  0  0  0  0  0  0  0  0  0
  149.3631  134.3325  156.8567 H   0  0  0  0  0  0  0  0  0  0  0  0
  147.6380  134.5578  156.5930 H   0  0  0  0  0  0  0  0  0  0  0  0
  149.1758  137.8560  154.2424 H   0  0  0  0  0  0  0  0  0  0  0  0
  152.1382  137.8160  154.3055 H   0  0  0  0  0  0  0  0  0  0  0  0
  151.1704  138.8560  153.2890 H   0  0  0  0  0  0  0  0  0  0  0  0
  150.0472  140.9068  154.3143 H   0  0  0  0  0  0  0  0  0  0  0  0
  150.2310  142.6205  156.0809 H   0  0  0  0  0  0  0  0  0  0  0  0
  152.0198  140.9217  159.9215 H   0  0  0  0  0  0  0  0  0  0  0  0
  153.4474  141.8256  159.4256 H   0  0  0  0  0  0  0  0  0  0  0  0
  151.0558  142.8880  161.0228 H   0  0  0  0  0  0  0  0  0  0  0  0
  152.6674  141.5655  162.3833 H   0  0  0  0  0  0  0  0  0  0  0  0
  152.7100  143.2714  162.8184 H   0  0  0  0  0  0  0  0  0  0  0  0
  153.9899  142.5864  161.8201 H   0  0  0  0  0  0  0  0  0  0  0  0
  152.2878  145.6291  158.9055 H   0  0  0  0  0  0  0  0  0  0  0  0
  149.8731  145.4916  158.5832 H   0  0  0  0  0  0  0  0  0  0  0  0
  150.2249  145.6833  160.2960 H   0  0  0  0  0  0  0  0  0  0  0  0
  149.7429  144.1118  159.6582 H   0  0  0  0  0  0  0  0  0  0  0  0
  153.0607  143.7335  157.6863 H   0  0  0  0  0  0  0  0  0  0  0  0
  151.4230  144.0341  157.1511 H   0  0  0  0  0  0  0  0  0  0  0  0
  152.6321  138.3799  156.6747 H   0  0  0  0  0  0  0  0  0  0  0  0
  1  2  1  0  0  0  0
  1 23  1  0  0  0  0
  1 24  1  0  0  0  0
  1 25  1  0  0  0  0
  2  3  1  0  0  0  0
  3  4  1  0  0  0  0
  3  5  1  0  0  0  0
  3 26  1  0  0  0  0
  4 27  1  0  0  0  0
  4 28  1  0  0  0  0
  4 29  1  0  0  0  0
  5  6  2  0  0  0  0
  5  7  1  0  0  0  0
  7  8  1  0  0  0  0
  7 30  1  0  0  0  0
  8  9  1  0  0  0  0
  8 31  1  0  0  0  0
  8 32  1  0  0  0  0
  9 22  1  0  0  0  0
  9 10  2  0  0  0  0
 10 11  1  0  0  0  0
 10 33  1  0  0  0  0
 11 12  2  0  0  0  0
 11 34  1  0  0  0  0
 12 13  1  0  0  0  0
 12 21  1  0  0  0  0
 13 20  1  0  0  0  0
 13 14  1  0  0  0  0
 14 15  1  0  0  0  0
 14 35  1  0  0  0  0
 14 36  1  0  0  0  0
 15 16  1  0  0  0  0
 15 17  1  0  0  0  0
 15 37  1  0  0  0  0
 16 38  1  0  0  0  0
 16 39  1  0  0  0  0
 16 40  1  0  0  0  0
 17 18  1  0  0  0  0
 18 19  1  0  0  0  0
 18 20  1  0  0  0  0
 18 41  1  0  0  0  0
 19 42  1  0  0  0  0
 19 43  1  0  0  0  0
 19 44  1  0  0  0  0
 20 45  1  0  0  0  0
 20 46  1  0  0  0  0
 21 22  2  0  0  0  0
 22 47  1  0  0  0  0
M  END
> <s_m_source_file>
AV-unprocessed.smi

> <i_m_source_file_index>
2184

> <i_lp_mmshare_version>
43012

> <i_f3d_flags>
0

> <s_epik_input>
W0NIM11TW0NASF0oW0NIM10pQyg9TylbTkhdW0NIMl1jMVtjSF1bY0hdYyhuW2NIXTEpTjJbQ0gyXVtDQEBIXShbQ0gzXSlPW0NAQEhdKFtDSDNdKVtDSDJdMg==

> <s_epik_cmdline>
J2VwaWtfcHl0aG9uJywgJy1waCcsICc3LjAnLCAnLXRuJywgJzgnLCAnLW1hJywgJzIwMCcsICctbWV0YWxfYmluZGluZycsICctaW1hZScsICc8aW5maWxlLm1hZT4nLCAnLW9tYWUnLCAnPG91dGZpbGUubWFlPic=

> <r_lp_tautomer_probability>
1

> <r_epik_Ionization_Penalty>
0.00551702

> <r_epik_Ionization_Penalty_Charging>
0

> <r_epik_Ionization_Penalty_Neutral>
0.00551702

> <r_epik_State_Penalty>
0.00403758

> <r_epik_Charging_Adjusted_Penalty>
0.00403758

> <i_epik_Tot_Q>
0

> <i_epik_Tot_abs_Q>
0

> <r_epik_Metal_State_Penalty>
-0

> <b_epik_Metal_Only>
0

> <s_lp_Force_Field>
OPLS_2005

> <r_lp_Energy>
17.8704

> <b_lp_Chiralities_Consistent>
1

> <s_lp_Variant>
AV-unprocessed.smi:2184-6

> <Gold.Version>
5.8.1

> <Gold.Id.Protein>
6NUR|6NUR_protein|mol2

> <Gold.PLP.Fitness>
48.3867

> <Gold.PLP.PLP>
-46.3668

> <Gold.PLP.part.hbond>
-1.8690

> <Gold.PLP.part.metal>
0.0000

> <Gold.PLP.part.buried>
-4.4708

> <Gold.PLP.part.nonpolar>
-39.8676

> <Gold.PLP.part.repulsive>
0.2046

> <Gold.PLP.ligand.clash>
0.0000

> <Gold.PLP.ligand.torsion>
0.7352

> <Gold.PLP.Chemscore.Hbond>
1.0133

> <Gold.PLP.Chemscore.CHOScore>
0.0000

> <Gold.PLP.Chemscore.Metal>
0.0000

> <Gold.Chemscore.Hbonds>
donor molecule, donor type, donor heavy atom, donor atom, acceptor molecule, acceptor atom, score
      P1  H  7997  8009       L1    21  0.01
      P1  H 10752 10765       L1     6  1.00

> <Gold.PLP.Chemscore.Internal.Correction>
0.4503

> <Gold.Rescore>
     Score         DG    S(hbond)    S(metal)    S(lipo)     H(rot)  DE(clash)    DE(int)     intcor
     17.94     -18.70       0.99        0.00     119.49       1.59       0.04       0.72       ----

> <Gold.Chemscore.Fitness>
17.9410

> <Gold.Chemscore.DG>
-18.6953

> <Gold.Chemscore.ZeroCoef>
-5.4800

> <Gold.Chemscore.Hbond>
0.9932

> <Gold.Chemscore.Metal>
0.0000

> <Gold.Chemscore.Lipo>
119.4908

> <Gold.Chemscore.Internal_Hbond>
0.0000

> <Gold.Chemscore.DEClash>
0.0375

> <Gold.Chemscore.DEInternal>
0.7168

> <Gold.Chemscore.Rot>
1.5947

> <Gold.Chemscore.Internal.Correction>
   9.000000E+99

> <Gold.Chemscore.Hbonds>
donor molecule, donor type, donor heavy atom, donor atom, acceptor molecule, acceptor atom, score
      P1  H 10752 10765       L1     6  1.00

> <Gold.Chemscore.Hbond.Weighted>
-3.3173

> <Gold.Chemscore.Metal.Weighted>
-0.0000

> <Gold.Chemscore.Lipo.Weighted>
-13.9804

> <Gold.Chemscore.Internal_Hbond.Weighted>
0.0000

> <Gold.Chemscore.DEClash.Weighted>
0.0375

> <Gold.Chemscore.DEInternal.Weighted>
0.7168

> <Gold.Chemscore.Rot.Weighted>
4.0824

> <Gold.Chemscore.Internal.Correction.Weighted>
   9.000000E+99

> <Gold.Protein.RotatedTorsions>
[ 6907 6896 6895 6894 ] final   31.08 input  -60.11 | X-H torsion
[ 7974 7965 7964 7962 ] final  160.12 input  175.53 | X-H torsion
[ 8008 7997 7996 7995 ] final  163.22 input   59.86 | X-H torsion
[ 10167 10162 10161 10158 ] final  159.87 input  -65.29 | X-H torsion
[ 10718 10713 10712 10709 ] final   38.65 input   66.30 | X-H torsion
[ 10763 10752 10751 10750 ] final -172.38 input  -60.55 | X-H torsion
[ 11005 11000 10999 10996 ] final   38.44 input  -57.11 | X-H torsion

> <Gold.Protein.ActiveResidues>
 VAL166  LYS551  ARG553  GLY616  TRP617  ASP618  TYR619  PRO620  LYS621  CYS622 
 ASP623  PHE694  ASN695  SER759  ASP760  ASP761  ALA762  ILE779  LEU786  VAL792 
 PHE793  MET794  SER795  GLU796  ALA797  LYS798  CYS799  TRP800  GLU811  SER814 

> <Gold.Protein.RotatedAtoms>
  152.0552  134.9629  160.0574 H   0  0  0  0  0  0  0  0  0  0  0  0  # atno 6907 bound_to 6896
  152.1014  133.4247  159.4597 H   0  0  0  0  0  0  0  0  0  0  0  0  # atno 6908 bound_to 6896
  150.6839  134.2675  159.4618 H   0  0  0  0  0  0  0  0  0  0  0  0  # atno 6909 bound_to 6896
  144.7753  139.7713  143.6281 H   0  0  0  0  0  0  0  0  0  0  0  0  # atno 7974 bound_to 7965
  156.1973  140.1729  156.7972 H   0  0  0  0  0  0  0  0  0  0  0  0  # atno 8008 bound_to 7997
  154.5546  140.0711  156.8754 H   0  0  0  0  0  0  0  0  0  0  0  0  # atno 8009 bound_to 7997
  155.2963  140.3358  155.4252 H   0  0  0  0  0  0  0  0  0  0  0  0  # atno 8010 bound_to 7997
  139.4835  144.4689  151.8604 H   0  0  0  0  0  0  0  0  0  0  0  0  # atno 10167 bound_to 10162
  157.3613  130.7651  149.7050 H   0  0  0  0  0  0  0  0  0  0  0  0  # atno 10718 bound_to 10713
  154.6200  135.2874  155.0337 H   0  0  0  0  0  0  0  0  0  0  0  0  # atno 10763 bound_to 10752
  154.1535  135.6499  153.4973 H   0  0  0  0  0  0  0  0  0  0  0  0  # atno 10764 bound_to 10752
  153.0232  135.5361  154.6986 H   0  0  0  0  0  0  0  0  0  0  0  0  # atno 10765 bound_to 10752
  140.2126  134.3737  155.8042 H   0  0  0  0  0  0  0  0  0  0  0  0  # atno 11005 bound_to 11000
  146.1929  139.5179  142.9793 LP  0  0  0  0  0  0  0  0  0  0  0  0  # atno 17320 bound_to 7965
  145.6203  141.0324  143.1918 LP  0  0  0  0  0  0  0  0  0  0  0  0  # atno 17321 bound_to 7965
  140.4156  144.2311  150.5888 LP  0  0  0  0  0  0  0  0  0  0  0  0  # atno 17342 bound_to 10162
  140.4924  143.2343  151.8799 LP  0  0  0  0  0  0  0  0  0  0  0  0  # atno 17343 bound_to 10162
  155.9738  130.4113  150.3973 LP  0  0  0  0  0  0  0  0  0  0  0  0  # atno 17370 bound_to 10713
  157.2051  131.0447  151.2629 LP  0  0  0  0  0  0  0  0  0  0  0  0  # atno 17371 bound_to 10713
  141.2226  133.7151  156.8443 LP  0  0  0  0  0  0  0  0  0  0  0  0  # atno 17394 bound_to 11000
  140.1935  134.8949  157.3087 LP  0  0  0  0  0  0  0  0  0  0  0  0  # atno 17395 bound_to 11000

$$$$
