AV-unprocessed.smi:224|AV-procd|sdf|1709|dock1
  -GOLD-   2262020173D 1   1.00000     0.00000
 Structure written by MMmdl.
 56 59  0  0  0  0  0  0  0  0  2 V2000
  144.9636  132.2247  150.4508 C   0  0  0  0  0  0  0  0  0  0  0  0
  143.5798  132.6042  150.9936 C   0  0  2  0  0  0  0  0  0  0  0  0
  142.6808  132.6680  149.9049 O   0  0  0  0  0  0  0  0  0  0  0  0
  143.5945  133.9649  151.7161 C   0  0  0  0  0  0  0  0  0  0  0  0
  144.0788  133.8582  153.1172 N   0  3  1  0  0  0  0  0  0  0  0  0
  145.5195  133.5046  153.2332 C   0  0  0  0  0  0  0  0  0  0  0  0
  145.9083  133.2603  154.7028 C   0  0  0  0  0  0  0  0  0  0  0  0
  145.5229  134.3891  155.5478 N   0  0  0  0  0  0  0  0  0  0  0  0
  146.4147  135.3916  155.7740 C   0  0  0  0  0  0  0  0  0  0  0  0
  145.9657  136.6164  156.1592 N   0  0  0  0  0  0  0  0  0  0  0  0
  146.8255  137.6073  156.4097 C   0  0  0  0  0  0  0  0  0  0  0  0
  148.1567  137.5931  156.3368 N   0  0  0  0  0  0  0  0  0  0  0  0
  148.6177  136.3735  155.9379 C   0  0  0  0  0  0  0  0  0  0  0  0
  147.8237  135.2309  155.6328 C   0  0  0  0  0  0  0  0  0  0  0  0
  148.6454  134.1810  155.2394 N   0  0  0  0  0  0  0  0  0  0  0  0
  149.8528  134.6685  155.3226 C   0  0  0  0  0  0  0  0  0  0  0  0
  149.9297  135.9756  155.7466 N   0  0  0  0  0  0  0  0  0  0  0  0
  151.1418  136.7604  155.9297 C   0  0  0  0  0  0  0  0  0  0  0  0
  151.3601  137.8300  154.8320 C   0  0  1  0  0  0  0  0  0  0  0  0
  151.9171  137.2065  153.6888 O   0  0  0  0  0  0  0  0  0  0  0  0
  150.0597  138.5309  154.4324 C   0  0  0  0  0  0  0  0  0  0  0  0
  150.2165  139.9334  155.0074 C   0  0  0  0  0  0  0  0  0  0  0  0
  151.6043  140.1737  154.8616 O   0  0  0  0  0  0  0  0  0  0  0  0
  152.2751  138.9910  155.2713 C   0  0  0  0  0  0  0  0  0  0  0  0
  144.1118  134.7599  155.4468 C   0  0  0  0  0  0  0  0  0  0  0  0
  143.6857  135.0096  153.9826 C   0  0  1  0  0  0  0  0  0  0  0  0
  144.1838  136.3717  153.4519 C   0  0  0  0  0  0  0  0  0  0  0  0
  145.6908  132.1408  151.2589 H   0  0  0  0  0  0  0  0  0  0  0  0
  145.3356  132.9697  149.7463 H   0  0  0  0  0  0  0  0  0  0  0  0
  144.9343  131.2640  149.9353 H   0  0  0  0  0  0  0  0  0  0  0  0
  143.2465  131.8141  151.6655 H   0  0  0  0  0  0  0  0  0  0  0  0
  142.0735  131.9464  149.9693 H   0  0  0  0  0  0  0  0  0  0  0  0
  144.2167  134.6789  151.1744 H   0  0  0  0  0  0  0  0  0  0  0  0
  142.5817  134.3714  151.7046 H   0  0  0  0  0  0  0  0  0  0  0  0
  145.7381  132.6049  152.6597 H   0  0  0  0  0  0  0  0  0  0  0  0
  146.1307  134.2988  152.8036 H   0  0  0  0  0  0  0  0  0  0  0  0
  145.3912  132.3740  155.0721 H   0  0  0  0  0  0  0  0  0  0  0  0
  146.9732  133.0424  154.7919 H   0  0  0  0  0  0  0  0  0  0  0  0
  146.3834  138.5443  156.7150 H   0  0  0  0  0  0  0  0  0  0  0  0
  150.7278  134.0831  155.0795 H   0  0  0  0  0  0  0  0  0  0  0  0
  151.0970  137.2310  156.9130 H   0  0  0  0  0  0  0  0  0  0  0  0
  151.9918  136.0775  155.9590 H   0  0  0  0  0  0  0  0  0  0  0  0
  151.2119  136.9657  153.1074 H   0  0  0  0  0  0  0  0  0  0  0  0
  149.9697  138.6019  153.3469 H   0  0  0  0  0  0  0  0  0  0  0  0
  149.1638  138.0300  154.8010 H   0  0  0  0  0  0  0  0  0  0  0  0
  149.6193  140.6761  154.4783 H   0  0  0  0  0  0  0  0  0  0  0  0
  149.9459  139.9581  156.0644 H   0  0  0  0  0  0  0  0  0  0  0  0
  152.3684  139.0300  156.3567 H   0  0  0  0  0  0  0  0  0  0  0  0
  153.2825  138.9377  154.8567 H   0  0  0  0  0  0  0  0  0  0  0  0
  143.5266  133.9362  155.8573 H   0  0  0  0  0  0  0  0  0  0  0  0
  143.8647  135.6294  156.0533 H   0  0  0  0  0  0  0  0  0  0  0  0
  142.5956  135.0517  153.9796 H   0  0  0  0  0  0  0  0  0  0  0  0
  143.8929  137.1771  154.1268 H   0  0  0  0  0  0  0  0  0  0  0  0
  143.7590  136.6062  152.4760 H   0  0  0  0  0  0  0  0  0  0  0  0
  145.2680  136.4073  153.3543 H   0  0  0  0  0  0  0  0  0  0  0  0
  143.5790  133.0696  153.5038 H   0  0  0  0  0  0  0  0  0  0  0  0
  1  2  1  0  0  0  0
  1 28  1  0  0  0  0
  1 29  1  0  0  0  0
  1 30  1  0  0  0  0
  2  3  1  0  0  0  0
  2  4  1  0  0  0  0
  2 31  1  0  0  0  0
  3 32  1  0  0  0  0
  4  5  1  0  0  0  0
  4 33  1  0  0  0  0
  4 34  1  0  0  0  0
  5 26  1  0  0  0  0
  5  6  1  0  0  0  0
  5 56  1  0  0  0  0
  6  7  1  0  0  0  0
  6 35  1  0  0  0  0
  6 36  1  0  0  0  0
  7  8  1  0  0  0  0
  7 37  1  0  0  0  0
  7 38  1  0  0  0  0
  8  9  1  0  0  0  0
  8 25  1  0  0  0  0
  9 14  1  0  0  0  0
  9 10  2  0  0  0  0
 10 11  1  0  0  0  0
 11 12  2  0  0  0  0
 11 39  1  0  0  0  0
 12 13  1  0  0  0  0
 13 17  1  0  0  0  0
 13 14  2  0  0  0  0
 14 15  1  0  0  0  0
 15 16  2  0  0  0  0
 16 17  1  0  0  0  0
 16 40  1  0  0  0  0
 17 18  1  0  0  0  0
 18 19  1  0  0  0  0
 18 41  1  0  0  0  0
 18 42  1  0  0  0  0
 19 24  1  0  0  0  0
 19 20  1  0  0  0  0
 19 21  1  0  0  0  0
 20 43  1  0  0  0  0
 21 22  1  0  0  0  0
 21 44  1  0  0  0  0
 21 45  1  0  0  0  0
 22 23  1  0  0  0  0
 22 46  1  0  0  0  0
 22 47  1  0  0  0  0
 23 24  1  0  0  0  0
 24 48  1  0  0  0  0
 24 49  1  0  0  0  0
 25 26  1  0  0  0  0
 25 50  1  0  0  0  0
 25 51  1  0  0  0  0
 26 27  1  0  0  0  0
 26 52  1  0  0  0  0
 27 53  1  0  0  0  0
 27 54  1  0  0  0  0
 27 55  1  0  0  0  0
M  CHG  1   5   1
M  END
> <s_m_source_file>
AV-unprocessed.smi

> <i_m_source_file_index>
224

> <i_lp_mmshare_version>
43012

> <i_f3d_flags>
0

> <s_epik_input>
W0NIM11bQ0BIXShbT0hdKVtDSDJdTjFbQ0gyXVtDSDJdTihbQ0gyXVtDQEhdMVtDSDNdKWMobltjSF1uMiljKGMyMyluW2NIXW4zW0NIMl1bQ0BAXTQoW09IXSlbQ0gyXVtDSDJdT1tDSDJdNA==

> <s_epik_cmdline>
J2VwaWtfcHl0aG9uJywgJy1waCcsICc3LjAnLCAnLXRuJywgJzgnLCAnLW1hJywgJzIwMCcsICctbWV0YWxfYmluZGluZycsICctaW1hZScsICc8aW5maWxlLm1hZT4nLCAnLW9tYWUnLCAnPG91dGZpbGUubWFlPic=

> <r_lp_tautomer_probability>
1

> <r_epik_Ionization_Penalty>
0.00516958

> <r_epik_Ionization_Penalty_Charging>
0.00509693

> <r_epik_Ionization_Penalty_Neutral>
7.26542e-05

> <r_epik_State_Penalty>
-0

> <r_epik_Charging_Adjusted_Penalty>
0.00509693

> <i_epik_Tot_Q>
1

> <i_epik_Tot_abs_Q>
1

> <r_epik_Metal_State_Penalty>
-0

> <b_epik_Metal_Only>
0

> <s_lp_Force_Field>
OPLS_2005

> <r_lp_Energy>
49.4164

> <b_lp_Chiralities_Consistent>
1

> <s_lp_Variant>
AV-unprocessed.smi:224-3

> <Gold.Version>
5.8.1

> <Gold.Id.Protein>
6NUR|6NUR_protein|mol2

> <Gold.PLP.Fitness>
52.4746

> <Gold.PLP.PLP>
-36.5462

> <Gold.PLP.part.hbond>
-5.7559

> <Gold.PLP.part.metal>
0.0000

> <Gold.PLP.part.buried>
-7.7083

> <Gold.PLP.part.nonpolar>
-24.1289

> <Gold.PLP.part.repulsive>
0.1247

> <Gold.PLP.ligand.clash>
0.0000

> <Gold.PLP.ligand.torsion>
0.9264

> <Gold.PLP.Chemscore.Hbond>
5.7025

> <Gold.PLP.Chemscore.CHOScore>
0.0000

> <Gold.PLP.Chemscore.Metal>
0.0000

> <Gold.Chemscore.Hbonds>
donor molecule, donor type, donor heavy atom, donor atom, acceptor molecule, acceptor atom, score
      L1  H     3    32       P1 10952  0.93
      L1  H     5    56       P1 10957  1.95
      L1  H    20    43       P1  7949  0.66
      P1  H  7989  7998       L1    23  0.98
      P1  H 10752 10765       L1    20  1.00

> <Gold.PLP.Chemscore.Internal.Correction>
0.6738

> <Gold.Rescore>
     Score         DG    S(hbond)    S(metal)    S(lipo)     H(rot)  DE(clash)    DE(int)     intcor
     14.75     -19.59       4.03        0.00      71.69       3.02       0.01       4.83       ----

> <Gold.Chemscore.Fitness>
14.7466

> <Gold.Chemscore.DG>
-19.5902

> <Gold.Chemscore.ZeroCoef>
-5.4800

> <Gold.Chemscore.Hbond>
4.0303

> <Gold.Chemscore.Metal>
0.0000

> <Gold.Chemscore.Lipo>
71.6943

> <Gold.Chemscore.Internal_Hbond>
0.0000

> <Gold.Chemscore.DEClash>
0.0121

> <Gold.Chemscore.DEInternal>
4.8315

> <Gold.Chemscore.Rot>
3.0231

> <Gold.Chemscore.Internal.Correction>
   9.000000E+99

> <Gold.Chemscore.Hbonds>
donor molecule, donor type, donor heavy atom, donor atom, acceptor molecule, acceptor atom, score
      L1  H     3    32       P1 10952  0.82
      L1  H     5    56       P1 10957  0.84
      L1  H    20    43       P1  7949  0.39
      P1  H  7989  7998       L1    23  0.31
      P1  H 10752 10765       L1    20  0.69

> <Gold.Chemscore.Hbond.Weighted>
-13.4611

> <Gold.Chemscore.Metal.Weighted>
-0.0000

> <Gold.Chemscore.Lipo.Weighted>
-8.3882

> <Gold.Chemscore.Internal_Hbond.Weighted>
0.0000

> <Gold.Chemscore.DEClash.Weighted>
0.0121

> <Gold.Chemscore.DEInternal.Weighted>
4.8315

> <Gold.Chemscore.Rot.Weighted>
7.7391

> <Gold.Chemscore.Internal.Correction.Weighted>
   9.000000E+99

> <Gold.Protein.RotatedTorsions>
[ 6907 6896 6895 6894 ] final  150.57 input  -60.11 | X-H torsion
[ 7974 7965 7964 7962 ] final -126.90 input  175.53 | X-H torsion
[ 8008 7997 7996 7995 ] final   -9.23 input   59.86 | X-H torsion
[ 10167 10162 10161 10158 ] final  -41.99 input  -65.29 | X-H torsion
[ 10718 10713 10712 10709 ] final  -43.01 input   66.30 | X-H torsion
[ 10763 10752 10751 10750 ] final  143.04 input  -60.55 | X-H torsion
[ 11005 11000 10999 10996 ] final    7.56 input  -57.11 | X-H torsion

> <Gold.Protein.ActiveResidues>
 VAL166  LYS551  ARG553  GLY616  TRP617  ASP618  TYR619  PRO620  LYS621  CYS622 
 ASP623  PHE694  ASN695  SER759  ASP760  ASP761  ALA762  ILE779  LEU786  VAL792 
 PHE793  MET794  SER795  GLU796  ALA797  LYS798  CYS799  TRP800  GLU811  SER814 

> <Gold.Protein.RotatedAtoms>
  152.1126  133.4309  159.4637 H   0  0  0  0  0  0  0  0  0  0  0  0  # atno 6907 bound_to 6896
  150.6868  134.2630  159.4566 H   0  0  0  0  0  0  0  0  0  0  0  0  # atno 6908 bound_to 6896
  152.0500  134.9659  160.0625 H   0  0  0  0  0  0  0  0  0  0  0  0  # atno 6909 bound_to 6896
  144.9826  140.7655  143.4603 H   0  0  0  0  0  0  0  0  0  0  0  0  # atno 7974 bound_to 7965
  154.5666  140.2360  155.8254 H   0  0  0  0  0  0  0  0  0  0  0  0  # atno 8008 bound_to 7997
  156.2073  140.3036  155.9614 H   0  0  0  0  0  0  0  0  0  0  0  0  # atno 8009 bound_to 7997
  155.2789  140.0421  157.3004 H   0  0  0  0  0  0  0  0  0  0  0  0  # atno 8010 bound_to 7997
  140.6984  143.3063  151.3145 H   0  0  0  0  0  0  0  0  0  0  0  0  # atno 10167 bound_to 10162
  156.2535  130.4190  149.8623 H   0  0  0  0  0  0  0  0  0  0  0  0  # atno 10718 bound_to 10713
  153.9657  135.2955  155.3430 H   0  0  0  0  0  0  0  0  0  0  0  0  # atno 10763 bound_to 10752
  154.7350  135.5050  153.9029 H   0  0  0  0  0  0  0  0  0  0  0  0  # atno 10764 bound_to 10752
  153.0924  135.6711  153.9939 H   0  0  0  0  0  0  0  0  0  0  0  0  # atno 10765 bound_to 10752
  140.5469  134.0321  155.7923 H   0  0  0  0  0  0  0  0  0  0  0  0  # atno 11005 bound_to 11000
  145.2400  139.2077  143.4998 LP  0  0  0  0  0  0  0  0  0  0  0  0  # atno 17320 bound_to 7965
  146.3412  140.2293  142.8593 LP  0  0  0  0  0  0  0  0  0  0  0  0  # atno 17321 bound_to 7965
  139.6470  144.0433  152.2598 LP  0  0  0  0  0  0  0  0  0  0  0  0  # atno 17342 bound_to 10162
  139.9957  144.6330  150.7774 LP  0  0  0  0  0  0  0  0  0  0  0  0  # atno 17343 bound_to 10162
  156.6163  130.8607  151.3465 LP  0  0  0  0  0  0  0  0  0  0  0  0  # atno 17370 bound_to 10713
  157.7223  130.9576  150.1491 LP  0  0  0  0  0  0  0  0  0  0  0  0  # atno 17371 bound_to 10713
  141.1195  133.9485  157.2758 LP  0  0  0  0  0  0  0  0  0  0  0  0  # atno 17394 bound_to 11000
  139.9475  135.0181  156.8896 LP  0  0  0  0  0  0  0  0  0  0  0  0  # atno 17395 bound_to 11000

$$$$
