AV-unprocessed.smi:3354|AV-procd|sdf|12961|dock2
  -GOLD-   2272019393D 1   1.00000     0.00000
 Structure written by MMmdl.
 38 40  0  0  0  0  0  0  0  0  1 V2000
  149.8643  143.7851  159.1167 C   0  0  0  0  0  0  0  0  0  0  0  0
  150.8627  144.8183  159.6012 C   0  0  2  0  0  0  0  0  0  0  0  0
  152.1334  145.0844  158.8279 C   0  0  0  0  0  0  0  0  0  0  0  0
  152.2038  144.4334  160.1953 C   0  0  2  0  0  0  0  0  0  0  0  0
  152.5537  143.0491  160.3279 N   0  0  0  0  0  0  0  0  0  0  0  0
  152.3744  142.0971  159.2401 C   0  0  0  0  0  0  0  0  0  0  0  0
  153.2314  140.8755  159.6158 C   0  0  2  0  0  0  0  0  0  0  0  0
  152.5023  139.6303  159.3901 N   0  0  0  0  0  0  0  0  0  0  0  0
  152.2362  139.1088  158.1847 C   0  0  0  0  0  0  0  0  0  0  0  0
  152.5844  139.6345  157.1277 O   0  0  0  0  0  0  0  0  0  0  0  0
  151.5718  137.9456  158.2929 N   0  0  0  0  0  0  0  0  0  0  0  0
  151.1063  137.0958  157.2536 C   0  0  0  0  0  0  0  0  0  0  0  0
  150.2160  136.0124  157.4505 C   0  0  0  0  0  0  0  0  0  0  0  0
  149.8425  135.2297  156.3410 C   0  0  0  0  0  0  0  0  0  0  0  0
  150.3769  135.5533  155.0788 C   0  0  0  0  0  0  0  0  0  0  0  0
  151.2365  136.5745  154.8788 N   0  0  0  0  0  0  0  0  0  0  0  0
  151.5911  137.3198  155.9475 C   0  0  0  0  0  0  0  0  0  0  0  0
  153.6062  141.0797  161.0919 C   0  0  0  0  0  0  0  0  0  0  0  0
  153.2460  142.5322  161.3491 C   0  0  0  0  0  0  0  0  0  0  0  0
  153.5806  143.1287  162.3716 O   0  0  0  0  0  0  0  0  0  0  0  0
  150.3620  142.9697  158.5923 H   0  0  0  0  0  0  0  0  0  0  0  0
  149.1519  144.2476  158.4336 H   0  0  0  0  0  0  0  0  0  0  0  0
  149.3158  143.3714  159.9630 H   0  0  0  0  0  0  0  0  0  0  0  0
  150.3899  145.6878  160.0534 H   0  0  0  0  0  0  0  0  0  0  0  0
  152.3119  144.4790  157.9420 H   0  0  0  0  0  0  0  0  0  0  0  0
  152.4616  146.1189  158.7501 H   0  0  0  0  0  0  0  0  0  0  0  0
  152.5675  145.0783  160.9938 H   0  0  0  0  0  0  0  0  0  0  0  0
  151.3168  141.8402  159.1636 H   0  0  0  0  0  0  0  0  0  0  0  0
  152.6887  142.5221  158.2859 H   0  0  0  0  0  0  0  0  0  0  0  0
  154.1399  140.8847  159.0101 H   0  0  0  0  0  0  0  0  0  0  0  0
  152.1848  139.1314  160.2082 H   0  0  0  0  0  0  0  0  0  0  0  0
  151.4341  137.5975  159.2306 H   0  0  0  0  0  0  0  0  0  0  0  0
  149.8264  135.7581  158.4239 H   0  0  0  0  0  0  0  0  0  0  0  0
  149.1650  134.3965  156.4562 H   0  0  0  0  0  0  0  0  0  0  0  0
  150.1113  134.9725  154.2078 H   0  0  0  0  0  0  0  0  0  0  0  0
  152.2822  138.1266  155.7504 H   0  0  0  0  0  0  0  0  0  0  0  0
  153.0210  140.4465  161.7602 H   0  0  0  0  0  0  0  0  0  0  0  0
  154.6648  140.8927  161.2749 H   0  0  0  0  0  0  0  0  0  0  0  0
  1  2  1  0  0  0  0
  1 21  1  0  0  0  0
  1 22  1  0  0  0  0
  1 23  1  0  0  0  0
  2  4  1  0  0  0  0
  2  3  1  0  0  0  0
  2 24  1  0  0  0  0
  3  4  1  0  0  0  0
  3 25  1  0  0  0  0
  3 26  1  0  0  0  0
  4  5  1  0  0  0  0
  4 27  1  0  0  0  0
  5 19  1  0  0  0  0
  5  6  1  0  0  0  0
  6  7  1  0  0  0  0
  6 28  1  0  0  0  0
  6 29  1  0  0  0  0
  7  8  1  0  0  0  0
  7 18  1  0  0  0  0
  7 30  1  0  0  0  0
  8  9  1  0  0  0  0
  8 31  1  0  0  0  0
  9 10  2  0  0  0  0
  9 11  1  0  0  0  0
 11 12  1  0  0  0  0
 11 32  1  0  0  0  0
 12 17  1  0  0  0  0
 12 13  2  0  0  0  0
 13 14  1  0  0  0  0
 13 33  1  0  0  0  0
 14 15  2  0  0  0  0
 14 34  1  0  0  0  0
 15 16  1  0  0  0  0
 15 35  1  0  0  0  0
 16 17  2  0  0  0  0
 17 36  1  0  0  0  0
 18 19  1  0  0  0  0
 18 37  1  0  0  0  0
 18 38  1  0  0  0  0
 19 20  2  0  0  0  0
M  END
> <s_m_source_file>
AV-unprocessed.smi

> <i_m_source_file_index>
3354

> <i_lp_mmshare_version>
43012

> <i_f3d_flags>
0

> <s_epik_input>
W0NIM11bQ0BASF0xW0NIMl1bQ0BIXTFOMltDSDJdW0NASF0oW0NIMl1DMj1PKVtOSF1DKD1PKVtOSF1jM1tjSF1bY0hdW2NIXW5bY0hdMw==

> <s_epik_cmdline>
J2VwaWtfcHl0aG9uJywgJy1waCcsICc3LjAnLCAnLXRuJywgJzgnLCAnLW1hJywgJzIwMCcsICctbWV0YWxfYmluZGluZycsICctaW1hZScsICc8aW5maWxlLm1hZT4nLCAnLW9tYWUnLCAnPG91dGZpbGUubWFlPic=

> <r_epik_Ionization_Penalty>
0.00456191

> <r_epik_Ionization_Penalty_Charging>
0

> <r_epik_Ionization_Penalty_Neutral>
0.00456191

> <r_epik_State_Penalty>
0.00327094

> <r_epik_Charging_Adjusted_Penalty>
0.00327094

> <i_epik_Tot_Q>
0

> <i_epik_Tot_abs_Q>
0

> <r_epik_Metal_State_Penalty>
-0

> <b_epik_Metal_Only>
0

> <s_lp_Force_Field>
OPLS_2005

> <r_lp_Energy>
41.6225

> <b_lp_Chiralities_Consistent>
1

> <s_lp_Variant>
AV-unprocessed.smi:3354-7

> <Gold.Version>
5.8.1

> <Gold.Id.Protein>
6NUR|6NUR_protein|mol2

> <Gold.PLP.Fitness>
42.7910

> <Gold.PLP.PLP>
-38.0449

> <Gold.PLP.part.hbond>
-2.0000

> <Gold.PLP.part.metal>
0.0000

> <Gold.PLP.part.buried>
-3.7801

> <Gold.PLP.part.nonpolar>
-32.4654

> <Gold.PLP.part.repulsive>
0.4327

> <Gold.PLP.ligand.clash>
0.0000

> <Gold.PLP.ligand.torsion>
0.7419

> <Gold.PLP.Chemscore.Hbond>
1.8432

> <Gold.PLP.Chemscore.CHOScore>
0.1647

> <Gold.PLP.Chemscore.Metal>
0.0000

> <Gold.Chemscore.Hbonds>
donor molecule, donor type, donor heavy atom, donor atom, acceptor molecule, acceptor atom, score
      P1  H  7997  8009       L1    10  1.00
      P1  H 10752 10763       L1    16  0.81
      L1  C    15    35       P1  7948  0.07

> <Gold.PLP.Chemscore.Internal.Correction>
0.2062

> <Gold.Rescore>
     Score         DG    S(hbond)    S(metal)    S(lipo)     H(rot)  DE(clash)    DE(int)     intcor
     15.81     -18.27       1.59        0.00      90.87       1.24       0.37       2.09       ----

> <Gold.Chemscore.Fitness>
15.8095

> <Gold.Chemscore.DG>
-18.2700

> <Gold.Chemscore.ZeroCoef>
-5.4800

> <Gold.Chemscore.Hbond>
1.5937

> <Gold.Chemscore.Metal>
0.0000

> <Gold.Chemscore.Lipo>
90.8658

> <Gold.Chemscore.Internal_Hbond>
0.0000

> <Gold.Chemscore.DEClash>
0.3657

> <Gold.Chemscore.DEInternal>
2.0947

> <Gold.Chemscore.Rot>
1.2361

> <Gold.Chemscore.Internal.Correction>
   9.000000E+99

> <Gold.Chemscore.Hbonds>
donor molecule, donor type, donor heavy atom, donor atom, acceptor molecule, acceptor atom, score
      P1  H  7997  8009       L1    10  0.95
      P1  H 10752 10763       L1    16  0.23

> <Gold.Chemscore.Hbond.Weighted>
-5.3230

> <Gold.Chemscore.Metal.Weighted>
-0.0000

> <Gold.Chemscore.Lipo.Weighted>
-10.6313

> <Gold.Chemscore.Internal_Hbond.Weighted>
0.0000

> <Gold.Chemscore.DEClash.Weighted>
0.3657

> <Gold.Chemscore.DEInternal.Weighted>
2.0947

> <Gold.Chemscore.Rot.Weighted>
3.1643

> <Gold.Chemscore.Internal.Correction.Weighted>
   9.000000E+99

> <Gold.Protein.RotatedTorsions>
[ 6907 6896 6895 6894 ] final   30.28 input  -60.11 | X-H torsion
[ 7974 7965 7964 7962 ] final -132.21 input  175.53 | X-H torsion
[ 8008 7997 7996 7995 ] final -162.93 input   59.86 | X-H torsion
[ 10167 10162 10161 10158 ] final  123.32 input  -65.29 | X-H torsion
[ 10718 10713 10712 10709 ] final  106.88 input   66.30 | X-H torsion
[ 10763 10752 10751 10750 ] final   31.62 input  -60.55 | X-H torsion
[ 11005 11000 10999 10996 ] final  164.75 input  -57.11 | X-H torsion

> <Gold.Protein.ActiveResidues>
 VAL166  LYS551  ARG553  GLY616  TRP617  ASP618  TYR619  PRO620  LYS621  CYS622 
 ASP623  PHE694  ASN695  SER759  ASP760  ASP761  ALA762  ILE779  LEU786  VAL792 
 PHE793  MET794  SER795  GLU796  ALA797  LYS798  CYS799  TRP800  GLU811  SER814 

> <Gold.Protein.RotatedAtoms>
  152.0436  134.9696  160.0573 H   0  0  0  0  0  0  0  0  0  0  0  0  # atno 6907 bound_to 6896
  152.1125  133.4304  159.4646 H   0  0  0  0  0  0  0  0  0  0  0  0  # atno 6908 bound_to 6896
  150.6844  134.2550  159.4569 H   0  0  0  0  0  0  0  0  0  0  0  0  # atno 6909 bound_to 6896
  144.9307  140.7124  143.4908 H   0  0  0  0  0  0  0  0  0  0  0  0  # atno 7974 bound_to 7965
  155.8139  140.0909  157.1888 H   0  0  0  0  0  0  0  0  0  0  0  0  # atno 8008 bound_to 7997
  154.3979  140.1449  156.3479 H   0  0  0  0  0  0  0  0  0  0  0  0  # atno 8009 bound_to 7997
  155.8336  140.3441  155.5590 H   0  0  0  0  0  0  0  0  0  0  0  0  # atno 8010 bound_to 7997
  139.5806  144.6984  151.3538 H   0  0  0  0  0  0  0  0  0  0  0  0  # atno 10167 bound_to 10162
  157.6651  131.0860  150.6073 H   0  0  0  0  0  0  0  0  0  0  0  0  # atno 10718 bound_to 10713
  153.0306  135.6434  154.1228 H   0  0  0  0  0  0  0  0  0  0  0  0  # atno 10763 bound_to 10752
  154.0950  135.2863  155.3265 H   0  0  0  0  0  0  0  0  0  0  0  0  # atno 10764 bound_to 10752
  154.6438  135.5450  153.7884 H   0  0  0  0  0  0  0  0  0  0  0  0  # atno 10765 bound_to 10752
  140.2491  134.7991  157.3484 H   0  0  0  0  0  0  0  0  0  0  0  0  # atno 11005 bound_to 11000
  145.3147  139.1807  143.4620 LP  0  0  0  0  0  0  0  0  0  0  0  0  # atno 17320 bound_to 7965
  146.3245  140.3156  142.8630 LP  0  0  0  0  0  0  0  0  0  0  0  0  # atno 17321 bound_to 7965
  140.7085  143.7452  150.7524 LP  0  0  0  0  0  0  0  0  0  0  0  0  # atno 17342 bound_to 10162
  140.0984  143.4811  152.2439 LP  0  0  0  0  0  0  0  0  0  0  0  0  # atno 17343 bound_to 10162
  156.6374  130.4449  149.5764 LP  0  0  0  0  0  0  0  0  0  0  0  0  # atno 17370 bound_to 10713
  156.2235  130.6751  151.1392 LP  0  0  0  0  0  0  0  0  0  0  0  0  # atno 17371 bound_to 10713
  140.1576  134.4769  155.7917 LP  0  0  0  0  0  0  0  0  0  0  0  0  # atno 17394 bound_to 11000
  141.2203  133.6888  156.7488 LP  0  0  0  0  0  0  0  0  0  0  0  0  # atno 17395 bound_to 11000

$$$$
