AV-unprocessed.smi:1117|AV-procd|sdf|4813|dock1
  -GOLD-   22720 3363D 1   1.00000     0.00000
 Structure written by MMmdl.
 40 41  0  0  0  0  0  0  0  0  1 V2000
  150.4993  133.6324  155.0976 C   0  0  0  0  0  0  0  0  0  0  0  0
  149.3923  134.6710  154.8463 C   0  0  0  0  0  0  0  0  0  0  0  0
  148.3854  134.0924  153.8297 C   0  0  0  0  0  0  0  0  0  0  0  0
  148.6919  134.9940  156.1824 C   0  0  0  0  0  0  0  0  0  0  0  0
  150.0471  135.8670  154.3047 N   0  0  0  0  0  0  0  0  0  0  0  0
  151.0871  136.5565  154.8093 C   0  0  0  0  0  0  0  0  0  0  0  0
  151.6801  136.2503  155.8430 O   0  0  0  0  0  0  0  0  0  0  0  0
  151.5317  137.7871  154.0159 C   0  0  0  0  0  0  0  0  0  0  0  0
  150.9884  139.0389  154.6433 C   0  0  0  0  0  0  0  0  0  0  0  0
  149.8897  139.7559  154.2352 C   0  0  0  0  0  0  0  0  0  0  0  0
  149.6189  141.1616  155.2286 S   0  0  0  0  0  0  0  0  0  0  0  0
  151.0236  140.7026  156.1950 C   0  0  0  0  0  0  0  0  0  0  0  0
  151.5422  141.4342  157.3054 N   0  0  0  0  0  0  0  0  0  0  0  0
  151.1038  142.8357  157.4432 C   0  0  0  0  0  0  0  0  0  0  0  0
  151.0339  143.2691  158.9092 C   0  0  0  0  0  0  0  0  0  0  0  0
  152.3506  142.9203  159.5976 C   0  0  0  0  0  0  0  0  0  0  0  0
  152.7643  141.5636  159.2595 N   0  0  0  0  0  0  0  0  0  0  0  0
  152.4771  140.8820  158.1314 C   0  0  0  0  0  0  0  0  0  0  0  0
  153.0195  139.7979  157.9203 O   0  0  0  0  0  0  0  0  0  0  0  0
  151.6251  139.5900  155.7607 N   0  0  0  0  0  0  0  0  0  0  0  0
  150.0900  132.7063  155.5026 H   0  0  0  0  0  0  0  0  0  0  0  0
  151.2387  134.0020  155.8093 H   0  0  0  0  0  0  0  0  0  0  0  0
  151.0273  133.3823  154.1763 H   0  0  0  0  0  0  0  0  0  0  0  0
  148.8598  133.8980  152.8671 H   0  0  0  0  0  0  0  0  0  0  0  0
  147.5464  134.7654  153.6538 H   0  0  0  0  0  0  0  0  0  0  0  0
  147.9674  133.1500  154.1852 H   0  0  0  0  0  0  0  0  0  0  0  0
  148.2786  134.0926  156.6363 H   0  0  0  0  0  0  0  0  0  0  0  0
  147.8659  135.6934  156.0534 H   0  0  0  0  0  0  0  0  0  0  0  0
  149.3867  135.4330  156.8992 H   0  0  0  0  0  0  0  0  0  0  0  0
  149.6510  136.2241  153.4470 H   0  0  0  0  0  0  0  0  0  0  0  0
  152.6213  137.8210  153.9792 H   0  0  0  0  0  0  0  0  0  0  0  0
  151.1922  137.6865  152.9842 H   0  0  0  0  0  0  0  0  0  0  0  0
  149.2312  139.5475  153.4050 H   0  0  0  0  0  0  0  0  0  0  0  0
  151.8034  143.4715  156.8986 H   0  0  0  0  0  0  0  0  0  0  0  0
  150.1233  142.9828  156.9874 H   0  0  0  0  0  0  0  0  0  0  0  0
  150.8238  144.3359  158.9914 H   0  0  0  0  0  0  0  0  0  0  0  0
  150.2135  142.7462  159.4029 H   0  0  0  0  0  0  0  0  0  0  0  0
  153.1358  143.6065  159.2781 H   0  0  0  0  0  0  0  0  0  0  0  0
  152.2579  143.0177  160.6795 H   0  0  0  0  0  0  0  0  0  0  0  0
  153.4164  141.1300  159.8971 H   0  0  0  0  0  0  0  0  0  0  0  0
  1  2  1  0  0  0  0
  1 21  1  0  0  0  0
  1 22  1  0  0  0  0
  1 23  1  0  0  0  0
  2  3  1  0  0  0  0
  2  4  1  0  0  0  0
  2  5  1  0  0  0  0
  3 24  1  0  0  0  0
  3 25  1  0  0  0  0
  3 26  1  0  0  0  0
  4 27  1  0  0  0  0
  4 28  1  0  0  0  0
  4 29  1  0  0  0  0
  5  6  1  0  0  0  0
  5 30  1  0  0  0  0
  6  7  2  0  0  0  0
  6  8  1  0  0  0  0
  8  9  1  0  0  0  0
  8 31  1  0  0  0  0
  8 32  1  0  0  0  0
  9 20  1  0  0  0  0
  9 10  2  0  0  0  0
 10 11  1  0  0  0  0
 10 33  1  0  0  0  0
 11 12  1  0  0  0  0
 12 13  1  0  0  0  0
 12 20  2  0  0  0  0
 13 18  1  0  0  0  0
 13 14  1  0  0  0  0
 14 15  1  0  0  0  0
 14 34  1  0  0  0  0
 14 35  1  0  0  0  0
 15 16  1  0  0  0  0
 15 36  1  0  0  0  0
 15 37  1  0  0  0  0
 16 17  1  0  0  0  0
 16 38  1  0  0  0  0
 16 39  1  0  0  0  0
 17 18  1  0  0  0  0
 17 40  1  0  0  0  0
 18 19  2  0  0  0  0
M  END
> <s_m_source_file>
AV-unprocessed.smi

> <i_m_source_file_index>
1117

> <i_lp_mmshare_version>
43012

> <i_f3d_flags>
0

> <s_epik_input>
W0NIM11DKFtDSDNdKShbQ0gzXSlbTkhdQyg9TylbQ0gyXWMxW2NIXXNjKG4xKU4yW0NIMl1bQ0gyXVtDSDJdW05IXUMyPU8=

> <s_epik_cmdline>
J2VwaWtfcHl0aG9uJywgJy1waCcsICc3LjAnLCAnLXRuJywgJzgnLCAnLW1hJywgJzIwMCcsICctbWV0YWxfYmluZGluZycsICctaW1hZScsICc8aW5maWxlLm1hZT4nLCAnLW9tYWUnLCAnPG91dGZpbGUubWFlPic=

> <r_lp_tautomer_probability>
1

> <r_epik_Ionization_Penalty>
0.000135599

> <r_epik_Ionization_Penalty_Charging>
0

> <r_epik_Ionization_Penalty_Neutral>
0.000135599

> <r_epik_State_Penalty>
-0

> <r_epik_Charging_Adjusted_Penalty>
0

> <i_epik_Tot_Q>
0

> <i_epik_Tot_abs_Q>
0

> <r_epik_Metal_State_Penalty>
-0

> <b_epik_Metal_Only>
0

> <s_lp_Force_Field>
OPLS_2005

> <r_lp_Energy>
32.4347

> <b_lp_Chiralities_Consistent>
1

> <s_lp_Variant>
AV-unprocessed.smi:1117-1

> <Gold.Version>
5.8.1

> <Gold.Id.Protein>
6NUR|6NUR_protein|mol2

> <Gold.PLP.Fitness>
45.3808

> <Gold.PLP.PLP>
-35.3886

> <Gold.PLP.part.hbond>
-3.3085

> <Gold.PLP.part.metal>
0.0000

> <Gold.PLP.part.buried>
-1.5672

> <Gold.PLP.part.nonpolar>
-29.6090

> <Gold.PLP.part.repulsive>
0.1715

> <Gold.PLP.ligand.clash>
0.0000

> <Gold.PLP.ligand.torsion>
0.7512

> <Gold.PLP.Chemscore.Hbond>
2.9500

> <Gold.PLP.Chemscore.CHOScore>
0.8758

> <Gold.PLP.Chemscore.Metal>
0.0000

> <Gold.Chemscore.Hbonds>
donor molecule, donor type, donor heavy atom, donor atom, acceptor molecule, acceptor atom, score
      L1  H     5    30       P1  7948  1.00
      P1  H  7997  8009       L1    19  1.00
      P1  H 10752 10763       L1     7  0.96
      L1  C    10    33       P1  7957  0.94

> <Gold.PLP.Chemscore.Internal.Correction>
0.0174

> <Gold.Rescore>
     Score         DG    S(hbond)    S(metal)    S(lipo)     H(rot)  DE(clash)    DE(int)     intcor
     15.06     -17.72       2.18        0.00      75.15       1.50       0.21       2.45       ----

> <Gold.Chemscore.Fitness>
15.0570

> <Gold.Chemscore.DG>
-17.7171

> <Gold.Chemscore.ZeroCoef>
-5.4800

> <Gold.Chemscore.Hbond>
2.1802

> <Gold.Chemscore.Metal>
0.0000

> <Gold.Chemscore.Lipo>
75.1510

> <Gold.Chemscore.Internal_Hbond>
0.0000

> <Gold.Chemscore.DEClash>
0.2142

> <Gold.Chemscore.DEInternal>
2.4459

> <Gold.Chemscore.Rot>
1.4990

> <Gold.Chemscore.Internal.Correction>
   9.000000E+99

> <Gold.Chemscore.Hbonds>
donor molecule, donor type, donor heavy atom, donor atom, acceptor molecule, acceptor atom, score
      L1  H     5    30       P1  7948  0.30
      P1  H  7997  8009       L1    19  0.65
      P1  H 10752 10763       L1     7  0.32

> <Gold.Chemscore.Hbond.Weighted>
-7.2819

> <Gold.Chemscore.Metal.Weighted>
-0.0000

> <Gold.Chemscore.Lipo.Weighted>
-8.7927

> <Gold.Chemscore.Internal_Hbond.Weighted>
0.0000

> <Gold.Chemscore.DEClash.Weighted>
0.2142

> <Gold.Chemscore.DEInternal.Weighted>
2.4459

> <Gold.Chemscore.Rot.Weighted>
3.8375

> <Gold.Chemscore.Internal.Correction.Weighted>
   9.000000E+99

> <Gold.Protein.RotatedTorsions>
[ 6907 6896 6895 6894 ] final  113.46 input  -60.11 | X-H torsion
[ 7974 7965 7964 7962 ] final  -48.72 input  175.53 | X-H torsion
[ 8008 7997 7996 7995 ] final  171.16 input   59.86 | X-H torsion
[ 10167 10162 10161 10158 ] final  154.95 input  -65.29 | X-H torsion
[ 10718 10713 10712 10709 ] final   81.21 input   66.30 | X-H torsion
[ 10763 10752 10751 10750 ] final  101.64 input  -60.55 | X-H torsion
[ 11005 11000 10999 10996 ] final -131.37 input  -57.11 | X-H torsion

> <Gold.Protein.ActiveResidues>
 VAL166  LYS551  ARG553  GLY616  TRP617  ASP618  TYR619  PRO620  LYS621  CYS622 
 ASP623  PHE694  ASN695  SER759  ASP760  ASP761  ALA762  ILE779  LEU786  VAL792 
 PHE793  MET794  SER795  GLU796  ALA797  LYS798  CYS799  TRP800  GLU811  SER814 

> <Gold.Protein.RotatedAtoms>
  152.4859  133.8372  159.7133 H   0  0  0  0  0  0  0  0  0  0  0  0  # atno 6907 bound_to 6896
  150.8946  133.7189  159.2902 H   0  0  0  0  0  0  0  0  0  0  0  0  # atno 6908 bound_to 6896
  151.4651  135.1045  159.9788 H   0  0  0  0  0  0  0  0  0  0  0  0  # atno 6909 bound_to 6896
  145.9482  140.7598  142.9518 H   0  0  0  0  0  0  0  0  0  0  0  0  # atno 7974 bound_to 7965
  156.1297  140.1519  156.9083 H   0  0  0  0  0  0  0  0  0  0  0  0  # atno 8008 bound_to 7997
  154.4900  140.0854  156.7612 H   0  0  0  0  0  0  0  0  0  0  0  0  # atno 8009 bound_to 7997
  155.4278  140.3426  155.4279 H   0  0  0  0  0  0  0  0  0  0  0  0  # atno 8010 bound_to 7997
  139.4822  144.5142  151.7978 H   0  0  0  0  0  0  0  0  0  0  0  0  # atno 10167 bound_to 10162
  157.6827  130.9994  150.2193 H   0  0  0  0  0  0  0  0  0  0  0  0  # atno 10718 bound_to 10713
  153.3293  135.4037  155.1482 H   0  0  0  0  0  0  0  0  0  0  0  0  # atno 10763 bound_to 10752
  154.8619  135.3606  154.5492 H   0  0  0  0  0  0  0  0  0  0  0  0  # atno 10764 bound_to 10752
  153.5929  135.7073  153.5475 H   0  0  0  0  0  0  0  0  0  0  0  0  # atno 10765 bound_to 10752
  140.9264  134.1377  157.4271 H   0  0  0  0  0  0  0  0  0  0  0  0  # atno 11005 bound_to 11000
  144.6791  140.2391  143.7346 LP  0  0  0  0  0  0  0  0  0  0  0  0  # atno 17320 bound_to 7965
  145.8208  139.2043  143.1939 LP  0  0  0  0  0  0  0  0  0  0  0  0  # atno 17321 bound_to 7965
  140.4648  144.1671  150.5910 LP  0  0  0  0  0  0  0  0  0  0  0  0  # atno 17342 bound_to 10162
  140.4446  143.2512  151.9428 LP  0  0  0  0  0  0  0  0  0  0  0  0  # atno 17343 bound_to 10162
  156.2848  130.3738  149.7900 LP  0  0  0  0  0  0  0  0  0  0  0  0  # atno 17370 bound_to 10713
  156.5577  130.8370  151.3319 LP  0  0  0  0  0  0  0  0  0  0  0  0  # atno 17371 bound_to 10713
  139.8786  134.9990  156.5929 LP  0  0  0  0  0  0  0  0  0  0  0  0  # atno 17394 bound_to 11000
  140.7920  133.8574  155.8654 LP  0  0  0  0  0  0  0  0  0  0  0  0  # atno 17395 bound_to 11000

$$$$
