AV-unprocessed.smi:107|AV-procd|sdf|1014|dock4
  -GOLD-   2262018 13D 1   1.00000     0.00000
 Structure written by MMmdl.
 31 32  0  0  0  0  0  0  0  0  1 V2000
  151.0251  144.9201  158.6048 C   0  0  0  0  0  0  0  0  0  0  0  0
  151.5000  143.4910  158.4016 C   0  0  0  0  0  0  0  0  0  0  0  0
  151.1162  142.7419  157.3367 C   0  0  0  0  0  0  0  0  0  0  0  0
  151.5346  141.4372  157.1202 N   0  0  0  0  0  0  0  0  0  0  0  0
  151.0681  140.6818  155.8983 C   0  0  1  0  0  0  0  0  0  0  0  0
  150.2355  139.4524  156.2870 C   0  0  0  0  0  0  0  0  0  0  0  0
  148.8969  139.7104  155.6100 C   0  0  1  0  0  0  0  0  0  0  0  0
  147.9481  140.1836  156.5483 O   0  0  0  0  0  0  0  0  0  0  0  0
  149.2308  140.7606  154.5391 C   0  0  1  0  0  0  0  0  0  0  0  0
  148.0586  141.6530  154.0940 C   0  0  0  0  0  0  0  0  0  0  0  0
  147.5277  142.3454  155.2036 O   0  0  0  0  0  0  0  0  0  0  0  0
  150.2590  141.5306  155.1467 O   0  0  0  0  0  0  0  0  0  0  0  0
  152.4137  140.8305  158.0416 C   0  0  0  0  0  0  0  0  0  0  0  0
  152.8248  139.6769  157.9235 O   0  0  0  0  0  0  0  0  0  0  0  0
  152.8082  141.5990  159.1357 N   0  0  0  0  0  0  0  0  0  0  0  0
  152.4096  142.9129  159.3946 C   0  0  0  0  0  0  0  0  0  0  0  0
  152.8260  143.4869  160.3996 O   0  0  0  0  0  0  0  0  0  0  0  0
  153.4347  141.1682  159.8000 H   0  0  0  0  0  0  0  0  0  0  0  0
  150.3371  145.2327  157.8188 H   0  0  0  0  0  0  0  0  0  0  0  0
  151.8722  145.6068  158.6005 H   0  0  0  0  0  0  0  0  0  0  0  0
  150.5082  145.0195  159.5599 H   0  0  0  0  0  0  0  0  0  0  0  0
  150.4482  143.1870  156.6138 H   0  0  0  0  0  0  0  0  0  0  0  0
  151.9404  140.4223  155.2970 H   0  0  0  0  0  0  0  0  0  0  0  0
  150.7186  138.5660  155.8744 H   0  0  0  0  0  0  0  0  0  0  0  0
  150.1612  139.3306  157.3690 H   0  0  0  0  0  0  0  0  0  0  0  0
  148.4967  138.8014  155.1600 H   0  0  0  0  0  0  0  0  0  0  0  0
  147.1384  140.3613  156.0947 H   0  0  0  0  0  0  0  0  0  0  0  0
  149.6564  140.2416  153.6776 H   0  0  0  0  0  0  0  0  0  0  0  0
  148.4060  142.4013  153.3810 H   0  0  0  0  0  0  0  0  0  0  0  0
  147.2788  141.0700  153.6027 H   0  0  0  0  0  0  0  0  0  0  0  0
  148.1466  143.0081  155.4694 H   0  0  0  0  0  0  0  0  0  0  0  0
  1  2  1  0  0  0  0
  1 19  1  0  0  0  0
  1 20  1  0  0  0  0
  1 21  1  0  0  0  0
  2 16  1  0  0  0  0
  2  3  2  0  0  0  0
  3  4  1  0  0  0  0
  3 22  1  0  0  0  0
  4  5  1  0  0  0  0
  4 13  1  0  0  0  0
  5 12  1  0  0  0  0
  5  6  1  0  0  0  0
  5 23  1  0  0  0  0
  6  7  1  0  0  0  0
  6 24  1  0  0  0  0
  6 25  1  0  0  0  0
  7  8  1  0  0  0  0
  7  9  1  0  0  0  0
  7 26  1  0  0  0  0
  8 27  1  0  0  0  0
  9 10  1  0  0  0  0
  9 12  1  0  0  0  0
  9 28  1  0  0  0  0
 10 11  1  0  0  0  0
 10 29  1  0  0  0  0
 10 30  1  0  0  0  0
 11 31  1  0  0  0  0
 13 14  2  0  0  0  0
 13 15  1  0  0  0  0
 15 18  1  0  0  0  0
 15 16  1  0  0  0  0
 16 17  2  0  0  0  0
M  END
> <s_m_source_file>
AV-unprocessed.smi

> <i_m_source_file_index>
107

> <i_lp_mmshare_version>
43012

> <i_f3d_flags>
0

> <s_epik_input>
Tz1jMVtuSF1jKD1PKW4oW2NIXWMxW0NIM10pW0NAQEhdMltDSDJdW0NAQEhdKFtPSF0pW0NASF0oTzIpW0NIMl1bT0hd

> <s_epik_cmdline>
J2VwaWtfcHl0aG9uJywgJy1waCcsICc3LjAnLCAnLXRuJywgJzgnLCAnLW1hJywgJzIwMCcsICctbWV0YWxfYmluZGluZycsICctaW1hZScsICc8aW5maWxlLm1hZT4nLCAnLW9tYWUnLCAnPG91dGZpbGUubWFlPic=

> <r_lp_tautomer_probability>
0.999537

> <r_epik_Ionization_Penalty>
0.00121888

> <r_epik_Ionization_Penalty_Charging>
0.00121876

> <r_epik_Ionization_Penalty_Neutral>
1.19946e-07

> <r_epik_State_Penalty>
0.000805124

> <r_epik_Charging_Adjusted_Penalty>
0.00202389

> <i_epik_Tot_Q>
0

> <i_epik_Tot_abs_Q>
0

> <r_epik_Metal_State_Penalty>
0.662472

> <b_epik_Metal_Only>
0

> <s_epik_Chemistry_Notes>
This compound contains an acetal/aminal-like group ( X-CH(R)-Y where X, Y are N, S, or O) that may be acid/base labile, releasing an aldehyde.

> <s_lp_Force_Field>
OPLS_2005

> <r_lp_Energy>
28.3693

> <b_lp_Chiralities_Consistent>
1

> <s_lp_Variant>
AV-unprocessed.smi:107-2

> <Gold.Version>
5.8.1

> <Gold.Id.Protein>
6NUR|6NUR_protein|mol2

> <Gold.PLP.Fitness>
38.1545

> <Gold.PLP.PLP>
-29.1670

> <Gold.PLP.part.hbond>
-3.0000

> <Gold.PLP.part.metal>
0.0000

> <Gold.PLP.part.buried>
-3.4633

> <Gold.PLP.part.nonpolar>
-22.2843

> <Gold.PLP.part.repulsive>
0.2324

> <Gold.PLP.ligand.clash>
0.0000

> <Gold.PLP.ligand.torsion>
0.0167

> <Gold.PLP.Chemscore.Hbond>
2.0051

> <Gold.PLP.Chemscore.CHOScore>
1.0000

> <Gold.PLP.Chemscore.Metal>
0.0000

> <Gold.Chemscore.Hbonds>
donor molecule, donor type, donor heavy atom, donor atom, acceptor molecule, acceptor atom, score
      L1  H    11    31       P1  8028  1.00
      P1  H  7989  7998       L1    12  0.02
      P1  H  7997  8008       L1    14  0.90
      L1  C     3    22       P1  8028  1.00

> <Gold.PLP.Chemscore.Internal.Correction>
0.0055

> <Gold.Rescore>
     Score         DG    S(hbond)    S(metal)    S(lipo)     H(rot)  DE(clash)    DE(int)     intcor
     10.27     -10.63       1.76        0.00      53.30       2.73       0.26       0.09       ----

> <Gold.Chemscore.Fitness>
10.2741

> <Gold.Chemscore.DG>
-10.6317

> <Gold.Chemscore.ZeroCoef>
-5.4800

> <Gold.Chemscore.Hbond>
1.7644

> <Gold.Chemscore.Metal>
0.0000

> <Gold.Chemscore.Lipo>
53.2960

> <Gold.Chemscore.Internal_Hbond>
0.0000

> <Gold.Chemscore.DEClash>
0.2632

> <Gold.Chemscore.DEInternal>
0.0945

> <Gold.Chemscore.Rot>
2.7253

> <Gold.Chemscore.Internal.Correction>
   9.000000E+99

> <Gold.Chemscore.Hbonds>
donor molecule, donor type, donor heavy atom, donor atom, acceptor molecule, acceptor atom, score
      L1  H    11    31       P1  8028  0.92
      P1  H  7997  8008       L1    14  0.21

> <Gold.Chemscore.Hbond.Weighted>
-5.8930

> <Gold.Chemscore.Metal.Weighted>
-0.0000

> <Gold.Chemscore.Lipo.Weighted>
-6.2356

> <Gold.Chemscore.Internal_Hbond.Weighted>
0.0000

> <Gold.Chemscore.DEClash.Weighted>
0.2632

> <Gold.Chemscore.DEInternal.Weighted>
0.0945

> <Gold.Chemscore.Rot.Weighted>
6.9769

> <Gold.Chemscore.Internal.Correction.Weighted>
   9.000000E+99

> <Gold.Protein.RotatedTorsions>
[ 6907 6896 6895 6894 ] final  -47.87 input  -60.11 | X-H torsion
[ 7974 7965 7964 7962 ] final   -1.28 input  175.53 | X-H torsion
[ 8008 7997 7996 7995 ] final  -95.00 input   59.86 | X-H torsion
[ 10167 10162 10161 10158 ] final -169.99 input  -65.29 | X-H torsion
[ 10718 10713 10712 10709 ] final  144.67 input   66.30 | X-H torsion
[ 10763 10752 10751 10750 ] final  111.21 input  -60.55 | X-H torsion
[ 11005 11000 10999 10996 ] final   31.71 input  -57.11 | X-H torsion

> <Gold.Protein.ActiveResidues>
 VAL166  LYS551  ARG553  GLY616  TRP617  ASP618  TYR619  PRO620  LYS621  CYS622 
 ASP623  PHE694  ASN695  SER759  ASP760  ASP761  ALA762  ILE779  LEU786  VAL792 
 PHE793  MET794  SER795  GLU796  ALA797  LYS798  CYS799  TRP800  GLU811  SER814 

> <Gold.Protein.RotatedAtoms>
  150.8963  134.8372  159.7328 H   0  0  0  0  0  0  0  0  0  0  0  0  # atno 6907 bound_to 6896
  152.4867  134.4570  159.9603 H   0  0  0  0  0  0  0  0  0  0  0  0  # atno 6908 bound_to 6896
  151.4627  133.3549  159.2847 H   0  0  0  0  0  0  0  0  0  0  0  0  # atno 6909 bound_to 6896
  146.2419  140.1397  142.8336 H   0  0  0  0  0  0  0  0  0  0  0  0  # atno 7974 bound_to 7965
  154.7557  140.0484  157.0931 H   0  0  0  0  0  0  0  0  0  0  0  0  # atno 8008 bound_to 7997
  155.0001  140.3123  155.4851 H   0  0  0  0  0  0  0  0  0  0  0  0  # atno 8009 bound_to 7997
  156.2894  140.2203  156.5110 H   0  0  0  0  0  0  0  0  0  0  0  0  # atno 8010 bound_to 7997
  139.5889  144.1257  152.1610 H   0  0  0  0  0  0  0  0  0  0  0  0  # atno 10167 bound_to 10162
  157.3544  131.0955  151.0971 H   0  0  0  0  0  0  0  0  0  0  0  0  # atno 10718 bound_to 10713
  153.4601  135.3724  155.2333 H   0  0  0  0  0  0  0  0  0  0  0  0  # atno 10763 bound_to 10752
  154.8757  135.3906  154.3935 H   0  0  0  0  0  0  0  0  0  0  0  0  # atno 10764 bound_to 10752
  153.4507  135.7085  153.6175 H   0  0  0  0  0  0  0  0  0  0  0  0  # atno 10765 bound_to 10752
  140.2810  134.2972  155.7800 H   0  0  0  0  0  0  0  0  0  0  0  0  # atno 11005 bound_to 11000
  145.0257  140.8830  143.5140 LP  0  0  0  0  0  0  0  0  0  0  0  0  # atno 17320 bound_to 7965
  145.1453  139.2547  143.5469 LP  0  0  0  0  0  0  0  0  0  0  0  0  # atno 17321 bound_to 7965
  140.0827  144.5687  150.7111 LP  0  0  0  0  0  0  0  0  0  0  0  0  # atno 17342 bound_to 10162
  140.7156  143.2541  151.4445 LP  0  0  0  0  0  0  0  0  0  0  0  0  # atno 17343 bound_to 10162
  157.2135  130.6448  149.5783 LP  0  0  0  0  0  0  0  0  0  0  0  0  # atno 17370 bound_to 10713
  155.9727  130.4652  150.6246 LP  0  0  0  0  0  0  0  0  0  0  0  0  # atno 17371 bound_to 10713
  141.2162  133.7525  156.9481 LP  0  0  0  0  0  0  0  0  0  0  0  0  # atno 17394 bound_to 11000
  140.1283  134.9372  157.2301 LP  0  0  0  0  0  0  0  0  0  0  0  0  # atno 17395 bound_to 11000

$$$$
