AV-unprocessed.smi:2489|AV-procd|sdf|9800|dock3
  -GOLD-   2272013433D 1   1.00000     0.00000
 Structure written by MMmdl.
 33 34  0  0  0  0  0  0  0  0  1 V2000
  152.9494  142.8156  161.8630 C   0  0  0  0  0  0  0  0  0  0  0  0
  153.4889  143.4391  160.7062 O   0  0  0  0  0  0  0  0  0  0  0  0
  152.6757  143.5383  159.6008 C   0  0  0  0  0  0  0  0  0  0  0  0
  152.0456  144.7860  159.1759 C   0  0  0  0  0  0  0  0  0  0  0  0
  151.2694  144.7654  158.0823 C   0  0  0  0  0  0  0  0  0  0  0  0
  151.0497  143.6065  157.3522 N   0  0  0  0  0  0  0  0  0  0  0  0
  151.6247  142.3719  157.7030 C   0  0  0  0  0  0  0  0  0  0  0  0
  151.4581  141.2520  157.0613 N   0  0  0  0  0  0  0  0  0  0  0  0
  150.6605  141.1479  155.9246 C   0  0  0  0  0  0  0  0  0  0  0  0
  149.6253  141.7559  155.6372 O   0  0  0  0  0  0  0  0  0  0  0  0
  151.2092  140.1051  154.9413 C   0  0  1  0  0  0  0  0  0  0  0  0
  152.5440  139.4889  155.3963 C   0  0  0  0  0  0  0  0  0  0  0  0
  152.1765  138.0623  155.7527 C   0  0  0  0  0  0  0  0  0  0  0  0
  151.0096  137.7938  154.8098 C   0  0  1  0  0  0  0  0  0  0  0  0
  150.1131  136.6275  155.2389 C   0  0  0  0  0  0  0  0  0  0  0  0
  150.2895  139.0163  154.8451 O   0  0  0  0  0  0  0  0  0  0  0  0
  152.4668  142.4047  158.8909 C   0  0  0  0  0  0  0  0  0  0  0  0
  153.7037  142.8069  162.6496 H   0  0  0  0  0  0  0  0  0  0  0  0
  152.6697  141.7796  161.6661 H   0  0  0  0  0  0  0  0  0  0  0  0
  152.0841  143.3594  162.2448 H   0  0  0  0  0  0  0  0  0  0  0  0
  152.1834  145.7161  159.7059 H   0  0  0  0  0  0  0  0  0  0  0  0
  150.7668  145.6401  157.6968 H   0  0  0  0  0  0  0  0  0  0  0  0
  151.3220  140.5543  153.9531 H   0  0  0  0  0  0  0  0  0  0  0  0
  153.2540  139.4974  154.5683 H   0  0  0  0  0  0  0  0  0  0  0  0
  153.0116  140.0087  156.2341 H   0  0  0  0  0  0  0  0  0  0  0  0
  153.0023  137.3627  155.6215 H   0  0  0  0  0  0  0  0  0  0  0  0
  151.8466  138.0131  156.7914 H   0  0  0  0  0  0  0  0  0  0  0  0
  151.3790  137.6341  153.7952 H   0  0  0  0  0  0  0  0  0  0  0  0
  150.6688  135.6896  155.2455 H   0  0  0  0  0  0  0  0  0  0  0  0
  149.2716  136.5124  154.5555 H   0  0  0  0  0  0  0  0  0  0  0  0
  149.7102  136.7861  156.2396 H   0  0  0  0  0  0  0  0  0  0  0  0
  152.9533  141.5059  159.2423 H   0  0  0  0  0  0  0  0  0  0  0  0
  150.4511  143.6913  156.5428 H   0  0  0  0  0  0  0  0  0  0  0  0
  1  2  1  0  0  0  0
  1 18  1  0  0  0  0
  1 19  1  0  0  0  0
  1 20  1  0  0  0  0
  2  3  1  0  0  0  0
  3 17  2  0  0  0  0
  3  4  1  0  0  0  0
  4  5  2  0  0  0  0
  4 21  1  0  0  0  0
  5  6  1  0  0  0  0
  5 22  1  0  0  0  0
  6  7  1  0  0  0  0
  6 33  1  0  0  0  0
  7  8  2  0  0  0  0
  7 17  1  0  0  0  0
  8  9  1  0  0  0  0
  9 10  2  0  0  0  0
  9 11  1  0  0  0  0
 11 16  1  0  0  0  0
 11 12  1  0  0  0  0
 11 23  1  0  0  0  0
 12 13  1  0  0  0  0
 12 24  1  0  0  0  0
 12 25  1  0  0  0  0
 13 14  1  0  0  0  0
 13 26  1  0  0  0  0
 13 27  1  0  0  0  0
 14 15  1  0  0  0  0
 14 16  1  0  0  0  0
 14 28  1  0  0  0  0
 15 29  1  0  0  0  0
 15 30  1  0  0  0  0
 15 31  1  0  0  0  0
 17 32  1  0  0  0  0
M  END
> <s_m_source_file>
AV-unprocessed.smi

> <i_m_source_file_index>
2489

> <i_lp_mmshare_version>
43012

> <i_f3d_flags>
0

> <s_epik_input>
W0NIM11PYzFbY0hdW2NIXW5jKFtjSF0xKVtOSF1DKD1PKVtDQEBIXTJbQ0gyXVtDSDJdW0NASF0oTzIpW0NIM10=

> <s_epik_cmdline>
J2VwaWtfcHl0aG9uJywgJy1waCcsICc3LjAnLCAnLXRuJywgJzgnLCAnLW1hJywgJzIwMCcsICctbWV0YWxfYmluZGluZycsICctaW1hZScsICc8aW5maWxlLm1hZT4nLCAnLW9tYWUnLCAnPG91dGZpbGUubWFlPic=

> <r_epik_Ionization_Penalty>
0.410206

> <r_epik_Ionization_Penalty_Charging>
0.410206

> <r_epik_Ionization_Penalty_Neutral>
6.57528e-13

> <r_epik_State_Penalty>
1.30987

> <r_epik_Charging_Adjusted_Penalty>
1.72007

> <i_epik_Tot_Q>
0

> <i_epik_Tot_abs_Q>
0

> <r_epik_Metal_State_Penalty>
1.32171

> <b_epik_Metal_Only>
0

> <s_lp_Force_Field>
OPLS_2005

> <r_lp_Energy>
35.4329

> <b_lp_Chiralities_Consistent>
1

> <s_lp_Variant>
AV-unprocessed.smi:2489-6

> <Gold.Version>
5.8.1

> <Gold.Id.Protein>
6NUR|6NUR_protein|mol2

> <Gold.PLP.Fitness>
38.2579

> <Gold.PLP.PLP>
-33.2116

> <Gold.PLP.part.hbond>
-1.0000

> <Gold.PLP.part.metal>
0.0000

> <Gold.PLP.part.buried>
-0.8196

> <Gold.PLP.part.nonpolar>
-32.6342

> <Gold.PLP.part.repulsive>
0.6581

> <Gold.PLP.ligand.clash>
0.0000

> <Gold.PLP.ligand.torsion>
0.4521

> <Gold.PLP.Chemscore.Hbond>
1.0000

> <Gold.PLP.Chemscore.CHOScore>
0.9812

> <Gold.PLP.Chemscore.Metal>
0.0000

> <Gold.Chemscore.Hbonds>
donor molecule, donor type, donor heavy atom, donor atom, acceptor molecule, acceptor atom, score
      L1  H     6    33       P1  8028  0.84
      L1  C     5    22       P1  8028  0.05
      L1  C     5    22       P1  8029  0.05

> <Gold.PLP.Chemscore.Internal.Correction>
0.0068

> <Gold.Rescore>
     Score         DG    S(hbond)    S(metal)    S(lipo)     H(rot)  DE(clash)    DE(int)     intcor
     14.05     -16.10       0.91        0.00      91.55       1.23       0.29       1.77       ----

> <Gold.Chemscore.Fitness>
14.0474

> <Gold.Chemscore.DG>
-16.1036

> <Gold.Chemscore.ZeroCoef>
-5.4800

> <Gold.Chemscore.Hbond>
0.9136

> <Gold.Chemscore.Metal>
0.0000

> <Gold.Chemscore.Lipo>
91.5528

> <Gold.Chemscore.Internal_Hbond>
0.0000

> <Gold.Chemscore.DEClash>
0.2874

> <Gold.Chemscore.DEInternal>
1.7688

> <Gold.Chemscore.Rot>
1.2264

> <Gold.Chemscore.Internal.Correction>
   9.000000E+99

> <Gold.Chemscore.Hbonds>
donor molecule, donor type, donor heavy atom, donor atom, acceptor molecule, acceptor atom, score
      L1  H     6    33       P1  8028  0.79

> <Gold.Chemscore.Hbond.Weighted>
-3.0515

> <Gold.Chemscore.Metal.Weighted>
-0.0000

> <Gold.Chemscore.Lipo.Weighted>
-10.7117

> <Gold.Chemscore.Internal_Hbond.Weighted>
0.0000

> <Gold.Chemscore.DEClash.Weighted>
0.2874

> <Gold.Chemscore.DEInternal.Weighted>
1.7688

> <Gold.Chemscore.Rot.Weighted>
3.1396

> <Gold.Chemscore.Internal.Correction.Weighted>
   9.000000E+99

> <Gold.Protein.RotatedTorsions>
[ 6907 6896 6895 6894 ] final   17.45 input  -60.11 | X-H torsion
[ 7974 7965 7964 7962 ] final -110.78 input  175.53 | X-H torsion
[ 8008 7997 7996 7995 ] final  148.84 input   59.86 | X-H torsion
[ 10167 10162 10161 10158 ] final  -66.24 input  -65.29 | X-H torsion
[ 10718 10713 10712 10709 ] final   45.46 input   66.30 | X-H torsion
[ 10763 10752 10751 10750 ] final -171.36 input  -60.55 | X-H torsion
[ 11005 11000 10999 10996 ] final    1.30 input  -57.11 | X-H torsion

> <Gold.Protein.ActiveResidues>
 VAL166  LYS551  ARG553  GLY616  TRP617  ASP618  TYR619  PRO620  LYS621  CYS622 
 ASP623  PHE694  ASN695  SER759  ASP760  ASP761  ALA762  ILE779  LEU786  VAL792 
 PHE793  MET794  SER795  GLU796  ALA797  LYS798  CYS799  TRP800  GLU811  SER814 

> <Gold.Protein.RotatedAtoms>
  151.8498  135.0562  160.0457 H   0  0  0  0  0  0  0  0  0  0  0  0  # atno 6907 bound_to 6896
  152.2745  133.5409  159.5468 H   0  0  0  0  0  0  0  0  0  0  0  0  # atno 6908 bound_to 6896
  150.7165  134.0567  159.3859 H   0  0  0  0  0  0  0  0  0  0  0  0  # atno 6909 bound_to 6896
  145.1641  140.8893  143.3573 H   0  0  0  0  0  0  0  0  0  0  0  0  # atno 7974 bound_to 7965
  156.2777  140.2118  156.5762 H   0  0  0  0  0  0  0  0  0  0  0  0  # atno 8008 bound_to 7997
  154.7096  140.0513  157.0560 H   0  0  0  0  0  0  0  0  0  0  0  0  # atno 8009 bound_to 7997
  155.0624  140.3168  155.4659 H   0  0  0  0  0  0  0  0  0  0  0  0  # atno 8010 bound_to 7997
  140.5671  143.2315  151.6613 H   0  0  0  0  0  0  0  0  0  0  0  0  # atno 10167 bound_to 10162
  157.4378  130.8063  149.7664 H   0  0  0  0  0  0  0  0  0  0  0  0  # atno 10718 bound_to 10713
  154.6314  135.2887  155.0212 H   0  0  0  0  0  0  0  0  0  0  0  0  # atno 10763 bound_to 10752
  154.1371  135.6524  153.4938 H   0  0  0  0  0  0  0  0  0  0  0  0  # atno 10764 bound_to 10752
  153.0281  135.5324  154.7143 H   0  0  0  0  0  0  0  0  0  0  0  0  # atno 10765 bound_to 10752
  140.6170  133.9696  155.8205 H   0  0  0  0  0  0  0  0  0  0  0  0  # atno 11005 bound_to 11000
  145.0300  139.3349  143.6029 LP  0  0  0  0  0  0  0  0  0  0  0  0  # atno 17320 bound_to 7965
  146.3478  139.9634  142.8714 LP  0  0  0  0  0  0  0  0  0  0  0  0  # atno 17321 bound_to 7965
  139.5098  144.3563  152.0605 LP  0  0  0  0  0  0  0  0  0  0  0  0  # atno 17342 bound_to 10162
  140.2696  144.3979  150.6156 LP  0  0  0  0  0  0  0  0  0  0  0  0  # atno 17343 bound_to 10162
  155.9937  130.3923  150.2890 LP  0  0  0  0  0  0  0  0  0  0  0  0  # atno 17370 bound_to 10713
  157.1052  131.0206  151.3070 LP  0  0  0  0  0  0  0  0  0  0  0  0  # atno 17371 bound_to 10713
  141.0769  134.0121  157.3444 LP  0  0  0  0  0  0  0  0  0  0  0  0  # atno 17394 bound_to 11000
  139.9169  135.0197  156.7915 LP  0  0  0  0  0  0  0  0  0  0  0  0  # atno 17395 bound_to 11000

$$$$
