AV-unprocessed.smi:786|AV-procd|sdf|3721|dock6
  -GOLD-   22720 1143D 1   1.00000     0.00000
 Structure written by MMmdl.
 39 40  0  0  0  0  0  0  0  0  1 V2000
  149.4970  141.3575  154.0508 O   0  0  0  0  0  0  0  0  0  0  0  0
  149.3731  139.9929  154.5842 S   0  0  0  0  0  0  0  0  0  0  0  0
  148.2521  139.1345  154.1725 O   0  0  0  0  0  0  0  0  0  0  0  0
  150.9536  139.0705  154.3055 C   0  0  0  0  0  0  0  0  0  0  0  0
  151.4078  138.2597  155.5371 C   0  0  0  0  0  0  0  0  0  0  0  0
  152.9349  138.2699  155.7422 C   0  0  0  0  0  0  0  0  0  0  0  0
  153.3313  137.3858  156.9360 C   0  0  0  0  0  0  0  0  0  0  0  0
  152.8548  136.0592  156.7386 O   0  0  0  0  0  0  0  0  0  0  0  0
  151.4358  135.9873  156.6562 C   0  0  0  0  0  0  0  0  0  0  0  0
  150.9369  136.7985  155.4491 C   0  0  0  0  0  0  0  0  0  0  0  0
  149.3101  140.1331  156.3035 N   0  0  0  0  0  0  0  0  0  0  0  0
  150.4474  140.6670  157.0528 C   0  0  0  0  0  0  0  0  0  0  0  0
  150.7094  142.1255  156.6546 C   0  0  0  0  0  0  0  0  0  0  0  0
  151.3332  142.9253  157.7830 C   0  0  0  0  0  0  0  0  0  0  0  0
  151.5862  144.3057  157.6338 C   0  0  0  0  0  0  0  0  0  0  0  0
  152.1602  145.0034  158.7141 C   0  0  0  0  0  0  0  0  0  0  0  0
  152.4574  144.2981  159.8959 C   0  0  0  0  0  0  0  0  0  0  0  0
  152.1648  142.9203  159.9455 C   0  0  0  0  0  0  0  0  0  0  0  0
  151.6135  142.2420  158.9159 N   0  0  0  0  0  0  0  0  0  0  0  0
  150.8062  138.4264  153.4394 H   0  0  0  0  0  0  0  0  0  0  0  0
  151.7200  139.7931  154.0247 H   0  0  0  0  0  0  0  0  0  0  0  0
  150.9386  138.6954  156.4204 H   0  0  0  0  0  0  0  0  0  0  0  0
  153.4305  137.9001  154.8438 H   0  0  0  0  0  0  0  0  0  0  0  0
  153.3057  139.2804  155.9037 H   0  0  0  0  0  0  0  0  0  0  0  0
  154.4164  137.3579  157.0360 H   0  0  0  0  0  0  0  0  0  0  0  0
  152.9369  137.7910  157.8690 H   0  0  0  0  0  0  0  0  0  0  0  0
  151.1428  134.9426  156.5523 H   0  0  0  0  0  0  0  0  0  0  0  0
  150.9886  136.3522  157.5821 H   0  0  0  0  0  0  0  0  0  0  0  0
  149.8482  136.7543  155.4018 H   0  0  0  0  0  0  0  0  0  0  0  0
  151.3081  136.3444  154.5293 H   0  0  0  0  0  0  0  0  0  0  0  0
  148.3937  140.3998  156.6629 H   0  0  0  0  0  0  0  0  0  0  0  0
  150.2396  140.6041  158.1214 H   0  0  0  0  0  0  0  0  0  0  0  0
  151.3264  140.0534  156.8544 H   0  0  0  0  0  0  0  0  0  0  0  0
  151.3697  142.1643  155.7869 H   0  0  0  0  0  0  0  0  0  0  0  0
  149.7762  142.6021  156.3516 H   0  0  0  0  0  0  0  0  0  0  0  0
  151.3453  144.8200  156.7148 H   0  0  0  0  0  0  0  0  0  0  0  0
  152.3686  146.0605  158.6372 H   0  0  0  0  0  0  0  0  0  0  0  0
  152.8982  144.8003  160.7444 H   0  0  0  0  0  0  0  0  0  0  0  0
  152.3790  142.3482  160.8358 H   0  0  0  0  0  0  0  0  0  0  0  0
  1  2  2  0  0  0  0
  2  3  2  0  0  0  0
  2  4  1  0  0  0  0
  2 11  1  0  0  0  0
  4  5  1  0  0  0  0
  4 20  1  0  0  0  0
  4 21  1  0  0  0  0
  5 10  1  0  0  0  0
  5  6  1  0  0  0  0
  5 22  1  0  0  0  0
  6  7  1  0  0  0  0
  6 23  1  0  0  0  0
  6 24  1  0  0  0  0
  7  8  1  0  0  0  0
  7 25  1  0  0  0  0
  7 26  1  0  0  0  0
  8  9  1  0  0  0  0
  9 10  1  0  0  0  0
  9 27  1  0  0  0  0
  9 28  1  0  0  0  0
 10 29  1  0  0  0  0
 10 30  1  0  0  0  0
 11 12  1  0  0  0  0
 11 31  1  0  0  0  0
 12 13  1  0  0  0  0
 12 32  1  0  0  0  0
 12 33  1  0  0  0  0
 13 14  1  0  0  0  0
 13 34  1  0  0  0  0
 13 35  1  0  0  0  0
 14 19  1  0  0  0  0
 14 15  2  0  0  0  0
 15 16  1  0  0  0  0
 15 36  1  0  0  0  0
 16 17  2  0  0  0  0
 16 37  1  0  0  0  0
 17 18  1  0  0  0  0
 17 38  1  0  0  0  0
 18 19  2  0  0  0  0
 18 39  1  0  0  0  0
M  END
> <s_m_source_file>
AV-unprocessed.smi

> <i_m_source_file_index>
786

> <i_lp_mmshare_version>
43012

> <i_f3d_flags>
0

> <s_epik_input>
W0NIMl0xW0NIMl1PW0NIMl1bQ0gyXVtDSF0xW0NIMl1TKD1PKSg9TylbTkhdW0NIMl1bQ0gyXWMyW2NIXVtjSF1bY0hdW2NIXW4y

> <s_epik_cmdline>
J2VwaWtfcHl0aG9uJywgJy1waCcsICc3LjAnLCAnLXRuJywgJzgnLCAnLW1hJywgJzIwMCcsICctbWV0YWxfYmluZGluZycsICctaW1hZScsICc8aW5maWxlLm1hZT4nLCAnLW9tYWUnLCAnPG91dGZpbGUubWFlPic=

> <r_epik_Ionization_Penalty>
0.0207022

> <r_epik_Ionization_Penalty_Charging>
0

> <r_epik_Ionization_Penalty_Neutral>
0.0207022

> <r_epik_State_Penalty>
0.0165999

> <r_epik_Charging_Adjusted_Penalty>
0.0165999

> <i_epik_Tot_Q>
0

> <i_epik_Tot_abs_Q>
0

> <r_epik_Metal_State_Penalty>
0.0248737

> <b_epik_Metal_Only>
0

> <s_lp_Force_Field>
OPLS_2005

> <r_lp_Energy>
3.32782

> <b_lp_Chiralities_Consistent>
1

> <s_lp_Variant>
AV-unprocessed.smi:786-1

> <Gold.Version>
5.8.1

> <Gold.Id.Protein>
6NUR|6NUR_protein|mol2

> <Gold.PLP.Fitness>
41.2813

> <Gold.PLP.PLP>
-38.1577

> <Gold.PLP.part.hbond>
-3.0000

> <Gold.PLP.part.metal>
0.0000

> <Gold.PLP.part.buried>
-3.6325

> <Gold.PLP.part.nonpolar>
-32.2255

> <Gold.PLP.part.repulsive>
0.3417

> <Gold.PLP.ligand.clash>
0.0000

> <Gold.PLP.ligand.torsion>
1.2525

> <Gold.PLP.Chemscore.Hbond>
1.8061

> <Gold.PLP.Chemscore.CHOScore>
0.0000

> <Gold.PLP.Chemscore.Metal>
0.0000

> <Gold.Chemscore.Hbonds>
donor molecule, donor type, donor heavy atom, donor atom, acceptor molecule, acceptor atom, score
      P1  H  7989  7998       L1     1  0.08
      P1  H  8011  8017       L1     1  0.71
      P1  H 10752 10763       L1     8  0.95

> <Gold.PLP.Chemscore.Internal.Correction>
0.2102

> <Gold.Rescore>
     Score         DG    S(hbond)    S(metal)    S(lipo)     H(rot)  DE(clash)    DE(int)     intcor
     14.77     -18.15       1.21        0.00     113.40       1.81       0.21       3.17       ----

> <Gold.Chemscore.Fitness>
14.7651

> <Gold.Chemscore.DG>
-18.1485

> <Gold.Chemscore.ZeroCoef>
-5.4800

> <Gold.Chemscore.Hbond>
1.2107

> <Gold.Chemscore.Metal>
0.0000

> <Gold.Chemscore.Lipo>
113.4010

> <Gold.Chemscore.Internal_Hbond>
0.0000

> <Gold.Chemscore.DEClash>
0.2089

> <Gold.Chemscore.DEInternal>
3.1745

> <Gold.Chemscore.Rot>
1.8138

> <Gold.Chemscore.Internal.Correction>
   9.000000E+99

> <Gold.Chemscore.Hbonds>
donor molecule, donor type, donor heavy atom, donor atom, acceptor molecule, acceptor atom, score
      P1  H  8011  8017       L1     1  0.66
      P1  H 10752 10763       L1     8  0.17

> <Gold.Chemscore.Hbond.Weighted>
-4.0438

> <Gold.Chemscore.Metal.Weighted>
-0.0000

> <Gold.Chemscore.Lipo.Weighted>
-13.2679

> <Gold.Chemscore.Internal_Hbond.Weighted>
0.0000

> <Gold.Chemscore.DEClash.Weighted>
0.2089

> <Gold.Chemscore.DEInternal.Weighted>
3.1745

> <Gold.Chemscore.Rot.Weighted>
4.6432

> <Gold.Chemscore.Internal.Correction.Weighted>
   9.000000E+99

> <Gold.Protein.RotatedTorsions>
[ 6907 6896 6895 6894 ] final  -76.29 input  -60.11 | X-H torsion
[ 7974 7965 7964 7962 ] final -145.51 input  175.53 | X-H torsion
[ 8008 7997 7996 7995 ] final   73.14 input   59.86 | X-H torsion
[ 10167 10162 10161 10158 ] final -166.10 input  -65.29 | X-H torsion
[ 10718 10713 10712 10709 ] final   63.83 input   66.30 | X-H torsion
[ 10763 10752 10751 10750 ] final   96.39 input  -60.55 | X-H torsion
[ 11005 11000 10999 10996 ] final -158.87 input  -57.11 | X-H torsion

> <Gold.Protein.ActiveResidues>
 VAL166  LYS551  ARG553  GLY616  TRP617  ASP618  TYR619  PRO620  LYS621  CYS622 
 ASP623  PHE694  ASN695  SER759  ASP760  ASP761  ALA762  ILE779  LEU786  VAL792 
 PHE793  MET794  SER795  GLU796  ALA797  LYS798  CYS799  TRP800  GLU811  SER814 

> <Gold.Protein.RotatedAtoms>
  150.7032  134.4594  159.5373 H   0  0  0  0  0  0  0  0  0  0  0  0  # atno 6907 bound_to 6896
  152.2271  134.8354  160.0487 H   0  0  0  0  0  0  0  0  0  0  0  0  # atno 6908 bound_to 6896
  151.9184  133.3544  159.3925 H   0  0  0  0  0  0  0  0  0  0  0  0  # atno 6909 bound_to 6896
  144.8223  140.5575  143.5570 H   0  0  0  0  0  0  0  0  0  0  0  0  # atno 7974 bound_to 7965
  155.7792  140.3482  155.5288 H   0  0  0  0  0  0  0  0  0  0  0  0  # atno 8008 bound_to 7997
  155.8745  140.0992  157.1548 H   0  0  0  0  0  0  0  0  0  0  0  0  # atno 8009 bound_to 7997
  154.4020  140.1334  156.4107 H   0  0  0  0  0  0  0  0  0  0  0  0  # atno 8010 bound_to 7997
  139.6137  144.0762  152.1867 H   0  0  0  0  0  0  0  0  0  0  0  0  # atno 10167 bound_to 10162
  157.5998  130.9127  149.9767 H   0  0  0  0  0  0  0  0  0  0  0  0  # atno 10718 bound_to 10713
  153.2643  135.4220  155.0925 H   0  0  0  0  0  0  0  0  0  0  0  0  # atno 10763 bound_to 10752
  154.8432  135.3457  154.6333 H   0  0  0  0  0  0  0  0  0  0  0  0  # atno 10764 bound_to 10752
  153.6753  135.7041  153.5192 H   0  0  0  0  0  0  0  0  0  0  0  0  # atno 10765 bound_to 10752
  140.6489  134.4472  157.5235 H   0  0  0  0  0  0  0  0  0  0  0  0  # atno 11005 bound_to 11000
  145.5078  139.1480  143.3621 LP  0  0  0  0  0  0  0  0  0  0  0  0  # atno 17320 bound_to 7965
  146.2528  140.5219  142.8886 LP  0  0  0  0  0  0  0  0  0  0  0  0  # atno 17321 bound_to 7965
  140.0387  144.6024  150.7429 LP  0  0  0  0  0  0  0  0  0  0  0  0  # atno 17342 bound_to 10162
  140.7337  143.2720  151.3859 LP  0  0  0  0  0  0  0  0  0  0  0  0  # atno 17343 bound_to 10162
  156.1069  130.3652  150.0118 LP  0  0  0  0  0  0  0  0  0  0  0  0  # atno 17370 bound_to 10713
  156.8223  130.9363  151.3640 LP  0  0  0  0  0  0  0  0  0  0  0  0  # atno 17371 bound_to 10713
  139.9053  134.8463  156.1731 LP  0  0  0  0  0  0  0  0  0  0  0  0  # atno 17394 bound_to 11000
  141.0552  133.6869  156.1846 LP  0  0  0  0  0  0  0  0  0  0  0  0  # atno 17395 bound_to 11000

$$$$
