AV-unprocessed.smi:2247|AV-procd|sdf|9086|dock1
  -GOLD-   2272012293D 1   1.00000     0.00000
 Structure written by MMmdl.
 34 35  0  0  0  0  0  0  0  0  1 V2000
  152.6232  143.2023  162.0277 C   0  0  0  0  0  0  0  0  0  0  0  0
  152.2195  144.0167  160.7857 C   0  0  0  0  0  0  0  0  0  0  0  0
  150.8862  144.7535  160.9894 C   0  0  0  0  0  0  0  0  0  0  0  0
  152.1684  143.1982  159.5669 N   0  0  0  0  0  0  0  0  0  0  0  0
  152.3957  141.7621  159.5813 C   0  0  0  0  0  0  0  0  0  0  0  0
  151.8979  141.2801  158.2152 C   0  0  0  0  0  0  0  0  0  0  0  0
  151.8992  142.5186  157.3045 C   0  0  1  0  0  0  0  0  0  0  0  0
  150.6972  142.5348  156.4727 N   0  0  0  0  0  0  0  0  0  0  0  0
  150.1750  141.4670  155.8512 C   0  0  0  0  0  0  0  0  0  0  0  0
  150.6375  140.3299  155.9489 O   0  0  0  0  0  0  0  0  0  0  0  0
  149.1013  141.8057  155.1180 N   0  0  0  0  0  0  0  0  0  0  0  0
  148.3094  140.9567  154.3045 C   0  0  0  0  0  0  0  0  0  0  0  0
  147.2561  141.3160  153.5691 N   0  0  0  0  0  0  0  0  0  0  0  0
  146.8304  140.1395  152.9698 C   0  0  0  0  0  0  0  0  0  0  0  0
  147.6591  139.1266  153.3792 C   0  0  0  0  0  0  0  0  0  0  0  0
  148.6059  139.6321  154.2293 O   0  0  0  0  0  0  0  0  0  0  0  0
  151.8683  143.6443  158.3393 C   0  0  0  0  0  0  0  0  0  0  0  0
  151.6075  144.8112  158.0463 O   0  0  0  0  0  0  0  0  0  0  0  0
  152.7506  143.8545  162.8923 H   0  0  0  0  0  0  0  0  0  0  0  0
  153.5690  142.6834  161.8688 H   0  0  0  0  0  0  0  0  0  0  0  0
  151.8699  142.4593  162.2900 H   0  0  0  0  0  0  0  0  0  0  0  0
  152.9951  144.7722  160.6466 H   0  0  0  0  0  0  0  0  0  0  0  0
  150.9271  145.4045  161.8629 H   0  0  0  0  0  0  0  0  0  0  0  0
  150.0647  144.0514  161.1362 H   0  0  0  0  0  0  0  0  0  0  0  0
  150.6421  145.3768  160.1285 H   0  0  0  0  0  0  0  0  0  0  0  0
  153.4624  141.5641  159.6944 H   0  0  0  0  0  0  0  0  0  0  0  0
  151.8637  141.2733  160.3983 H   0  0  0  0  0  0  0  0  0  0  0  0
  152.5184  140.4773  157.8154 H   0  0  0  0  0  0  0  0  0  0  0  0
  150.8878  140.8812  158.3263 H   0  0  0  0  0  0  0  0  0  0  0  0
  152.8187  142.5782  156.7194 H   0  0  0  0  0  0  0  0  0  0  0  0
  150.2532  143.4305  156.3351 H   0  0  0  0  0  0  0  0  0  0  0  0
  148.8293  142.7773  155.1297 H   0  0  0  0  0  0  0  0  0  0  0  0
  145.9797  140.1152  152.3048 H   0  0  0  0  0  0  0  0  0  0  0  0
  147.7070  138.0675  153.1732 H   0  0  0  0  0  0  0  0  0  0  0  0
  1  2  1  0  0  0  0
  1 19  1  0  0  0  0
  1 20  1  0  0  0  0
  1 21  1  0  0  0  0
  2  3  1  0  0  0  0
  2  4  1  0  0  0  0
  2 22  1  0  0  0  0
  3 23  1  0  0  0  0
  3 24  1  0  0  0  0
  3 25  1  0  0  0  0
  4 17  1  0  0  0  0
  4  5  1  0  0  0  0
  5  6  1  0  0  0  0
  5 26  1  0  0  0  0
  5 27  1  0  0  0  0
  6  7  1  0  0  0  0
  6 28  1  0  0  0  0
  6 29  1  0  0  0  0
  7  8  1  0  0  0  0
  7 17  1  0  0  0  0
  7 30  1  0  0  0  0
  8  9  1  0  0  0  0
  8 31  1  0  0  0  0
  9 10  2  0  0  0  0
  9 11  1  0  0  0  0
 11 12  1  0  0  0  0
 11 32  1  0  0  0  0
 12 16  1  0  0  0  0
 12 13  2  0  0  0  0
 13 14  1  0  0  0  0
 14 15  2  0  0  0  0
 14 33  1  0  0  0  0
 15 16  1  0  0  0  0
 15 34  1  0  0  0  0
 17 18  2  0  0  0  0
M  END
> <s_m_source_file>
AV-unprocessed.smi

> <i_m_source_file_index>
2247

> <i_lp_mmshare_version>
43012

> <i_f3d_flags>
0

> <s_epik_input>
W0NIM11bQ0hdKFtDSDNdKU4xW0NIMl1bQ0gyXVtDQEhdKEMxPU8pW05IXUMoPU8pW05IXWMybltjSF1bY0hdbzI=

> <s_epik_cmdline>
J2VwaWtfcHl0aG9uJywgJy1waCcsICc3LjAnLCAnLXRuJywgJzgnLCAnLW1hJywgJzIwMCcsICctbWV0YWxfYmluZGluZycsICctaW1hZScsICc8aW5maWxlLm1hZT4nLCAnLW9tYWUnLCAnPG91dGZpbGUubWFlPic=

> <r_lp_tautomer_probability>
0.785861

> <r_epik_Ionization_Penalty>
5.15801e-05

> <r_epik_Ionization_Penalty_Charging>
0

> <r_epik_Ionization_Penalty_Neutral>
5.15801e-05

> <r_epik_State_Penalty>
0.0205761

> <r_epik_Charging_Adjusted_Penalty>
0.0205761

> <i_epik_Tot_Q>
0

> <i_epik_Tot_abs_Q>
0

> <r_epik_Metal_State_Penalty>
0.0168939

> <b_epik_Metal_Only>
0

> <s_lp_Force_Field>
OPLS_2005

> <r_lp_Energy>
20.5401

> <b_lp_Chiralities_Consistent>
1

> <s_lp_Variant>
AV-unprocessed.smi:2247-1

> <Gold.Version>
5.8.1

> <Gold.Id.Protein>
6NUR|6NUR_protein|mol2

> <Gold.PLP.Fitness>
43.5551

> <Gold.PLP.PLP>
-32.1192

> <Gold.PLP.part.hbond>
-2.0000

> <Gold.PLP.part.metal>
0.0000

> <Gold.PLP.part.buried>
-1.6706

> <Gold.PLP.part.nonpolar>
-29.1712

> <Gold.PLP.part.repulsive>
0.7201

> <Gold.PLP.ligand.clash>
0.0000

> <Gold.PLP.ligand.torsion>
0.3193

> <Gold.PLP.Chemscore.Hbond>
2.0000

> <Gold.PLP.Chemscore.CHOScore>
1.9965

> <Gold.PLP.Chemscore.Metal>
0.0000

> <Gold.Chemscore.Hbonds>
donor molecule, donor type, donor heavy atom, donor atom, acceptor molecule, acceptor atom, score
      L1  H     8    31       P1  8028  1.00
      L1  H    11    32       P1  8028  1.00
      L1  C    14    33       P1 10175  1.00
      L1  C    15    34       P1  7948  0.91

> <Gold.PLP.Chemscore.Internal.Correction>
0.0848

> <Gold.Rescore>
     Score         DG    S(hbond)    S(metal)    S(lipo)     H(rot)  DE(clash)    DE(int)     intcor
     11.51     -17.55       1.93        0.00      77.14       1.33       2.03       4.00       ----

> <Gold.Chemscore.Fitness>
11.5138

> <Gold.Chemscore.DG>
-17.5471

> <Gold.Chemscore.ZeroCoef>
-5.4800

> <Gold.Chemscore.Hbond>
1.9332

> <Gold.Chemscore.Metal>
0.0000

> <Gold.Chemscore.Lipo>
77.1350

> <Gold.Chemscore.Internal_Hbond>
0.0000

> <Gold.Chemscore.DEClash>
2.0296

> <Gold.Chemscore.DEInternal>
4.0037

> <Gold.Chemscore.Rot>
1.3338

> <Gold.Chemscore.Internal.Correction>
   9.000000E+99

> <Gold.Chemscore.Hbonds>
donor molecule, donor type, donor heavy atom, donor atom, acceptor molecule, acceptor atom, score
      L1  H     8    31       P1  8028  0.96
      L1  H    11    32       P1  8028  0.95

> <Gold.Chemscore.Hbond.Weighted>
-6.4568

> <Gold.Chemscore.Metal.Weighted>
-0.0000

> <Gold.Chemscore.Lipo.Weighted>
-9.0248

> <Gold.Chemscore.Internal_Hbond.Weighted>
0.0000

> <Gold.Chemscore.DEClash.Weighted>
2.0296

> <Gold.Chemscore.DEInternal.Weighted>
4.0037

> <Gold.Chemscore.Rot.Weighted>
3.4145

> <Gold.Chemscore.Internal.Correction.Weighted>
   9.000000E+99

> <Gold.Protein.RotatedTorsions>
[ 6907 6896 6895 6894 ] final   36.09 input  -60.11 | X-H torsion
[ 7974 7965 7964 7962 ] final  -28.64 input  175.53 | X-H torsion
[ 8008 7997 7996 7995 ] final -161.31 input   59.86 | X-H torsion
[ 10167 10162 10161 10158 ] final   19.87 input  -65.29 | X-H torsion
[ 10718 10713 10712 10709 ] final  -24.27 input   66.30 | X-H torsion
[ 10763 10752 10751 10750 ] final   63.33 input  -60.55 | X-H torsion
[ 11005 11000 10999 10996 ] final   33.83 input  -57.11 | X-H torsion

> <Gold.Protein.ActiveResidues>
 VAL166  LYS551  ARG553  GLY616  TRP617  ASP618  TYR619  PRO620  LYS621  CYS622 
 ASP623  PHE694  ASN695  SER759  ASP760  ASP761  ALA762  ILE779  LEU786  VAL792 
 PHE793  MET794  SER795  GLU796  ALA797  LYS798  CYS799  TRP800  GLU811  SER814 

> <Gold.Protein.RotatedAtoms>
  152.1250  134.9177  160.0561 H   0  0  0  0  0  0  0  0  0  0  0  0  # atno 6907 bound_to 6896
  152.0303  133.3930  159.4303 H   0  0  0  0  0  0  0  0  0  0  0  0  # atno 6908 bound_to 6896
  150.6852  134.3449  159.4927 H   0  0  0  0  0  0  0  0  0  0  0  0  # atno 6909 bound_to 6896
  146.1274  140.5308  142.8708 H   0  0  0  0  0  0  0  0  0  0  0  0  # atno 7974 bound_to 7965
  155.7903  140.0877  157.2012 H   0  0  0  0  0  0  0  0  0  0  0  0  # atno 8008 bound_to 7997
  154.3986  140.1491  156.3213 H   0  0  0  0  0  0  0  0  0  0  0  0  # atno 8009 bound_to 7997
  155.8566  140.3432  155.5731 H   0  0  0  0  0  0  0  0  0  0  0  0  # atno 8010 bound_to 7997
  140.5547  143.9447  150.6601 H   0  0  0  0  0  0  0  0  0  0  0  0  # atno 10167 bound_to 10162
  156.4799  130.4543  149.6818 H   0  0  0  0  0  0  0  0  0  0  0  0  # atno 10718 bound_to 10713
  153.0014  135.5433  154.6335 H   0  0  0  0  0  0  0  0  0  0  0  0  # atno 10763 bound_to 10752
  154.5607  135.2833  155.0924 H   0  0  0  0  0  0  0  0  0  0  0  0  # atno 10764 bound_to 10752
  154.2127  135.6464  153.5173 H   0  0  0  0  0  0  0  0  0  0  0  0  # atno 10765 bound_to 10752
  140.2591  134.3213  155.7864 H   0  0  0  0  0  0  0  0  0  0  0  0  # atno 11005 bound_to 11000
  144.7656  140.5522  143.6705 LP  0  0  0  0  0  0  0  0  0  0  0  0  # atno 17320 bound_to 7965
  145.5336  139.1475  143.3486 LP  0  0  0  0  0  0  0  0  0  0  0  0  # atno 17321 bound_to 7965
  140.2881  143.3343  152.1088 LP  0  0  0  0  0  0  0  0  0  0  0  0  # atno 17342 bound_to 10162
  139.5042  144.6771  151.6100 LP  0  0  0  0  0  0  0  0  0  0  0  0  # atno 17343 bound_to 10162
  156.3532  130.7443  151.2405 LP  0  0  0  0  0  0  0  0  0  0  0  0  # atno 17370 bound_to 10713
  157.7484  131.0371  150.4440 LP  0  0  0  0  0  0  0  0  0  0  0  0  # atno 17371 bound_to 10713
  141.2192  133.7399  156.9158 LP  0  0  0  0  0  0  0  0  0  0  0  0  # atno 17394 bound_to 11000
  140.1482  134.9248  157.2558 LP  0  0  0  0  0  0  0  0  0  0  0  0  # atno 17395 bound_to 11000

$$$$
