AV-unprocessed.smi:2872|AV-procd|sdf|11034|dock7
  -GOLD-   2272015503D 1   1.00000     0.00000
 Structure written by MMmdl.
 39 41  0  0  0  0  0  0  0  0  1 V2000
  147.3868  140.8724  153.3171 O   0  0  0  0  0  0  0  0  0  0  0  0
  147.6549  141.9086  153.9228 C   0  0  0  0  0  0  0  0  0  0  0  0
  148.8049  142.1318  154.5750 N   0  0  0  0  0  0  0  0  0  0  0  0
  149.9102  141.1842  154.6753 C   0  0  0  0  0  0  0  0  0  0  0  0
  150.6284  141.4000  155.9758 C   0  0  0  0  0  0  0  0  0  0  0  0
  151.0413  142.6075  156.3627 N   0  0  0  0  0  0  0  0  0  0  0  0
  151.6291  142.3514  157.5861 C   0  0  0  0  0  0  0  0  0  0  0  0
  152.2560  143.2230  158.5050 C   0  0  0  0  0  0  0  0  0  0  0  0
  152.7858  142.7250  159.7135 C   0  0  0  0  0  0  0  0  0  0  0  0
  152.6967  141.3517  160.0201 C   0  0  0  0  0  0  0  0  0  0  0  0
  152.0776  140.4658  159.1175 C   0  0  0  0  0  0  0  0  0  0  0  0
  151.5514  140.9678  157.9122 C   0  0  0  0  0  0  0  0  0  0  0  0
  150.8949  140.3834  156.8343 N   0  0  0  0  0  0  0  0  0  0  0  0
  150.5654  138.9740  156.6932 C   0  0  0  0  0  0  0  0  0  0  0  0
  149.7896  138.4552  157.9093 C   0  0  0  0  0  0  0  0  0  0  0  0
  149.4712  137.0876  157.6952 O   0  0  0  0  0  0  0  0  0  0  0  0
  148.8155  136.4070  158.6987 C   0  0  0  0  0  0  0  0  0  0  0  0
  148.5115  135.0505  158.4599 C   0  0  0  0  0  0  0  0  0  0  0  0
  147.8413  134.2798  159.4294 C   0  0  0  0  0  0  0  0  0  0  0  0
  147.4668  134.8614  160.6545 C   0  0  0  0  0  0  0  0  0  0  0  0
  147.7653  136.2130  160.9076 C   0  0  0  0  0  0  0  0  0  0  0  0
  148.4357  136.9839  159.9376 C   0  0  0  0  0  0  0  0  0  0  0  0
  146.9842  142.7781  154.0020 H   0  0  0  0  0  0  0  0  0  0  0  0
  148.9209  143.0195  155.0416 H   0  0  0  0  0  0  0  0  0  0  0  0
  149.5529  140.1546  154.6142 H   0  0  0  0  0  0  0  0  0  0  0  0
  150.5942  141.3285  153.8392 H   0  0  0  0  0  0  0  0  0  0  0  0
  152.3282  144.2768  158.2798 H   0  0  0  0  0  0  0  0  0  0  0  0
  153.2621  143.4002  160.4093 H   0  0  0  0  0  0  0  0  0  0  0  0
  153.1039  140.9786  160.9485 H   0  0  0  0  0  0  0  0  0  0  0  0
  152.0067  139.4137  159.3495 H   0  0  0  0  0  0  0  0  0  0  0  0
  149.9924  138.8230  155.7786 H   0  0  0  0  0  0  0  0  0  0  0  0
  151.4910  138.4107  156.5706 H   0  0  0  0  0  0  0  0  0  0  0  0
  150.3987  138.5650  158.8081 H   0  0  0  0  0  0  0  0  0  0  0  0
  148.8769  139.0381  158.0423 H   0  0  0  0  0  0  0  0  0  0  0  0
  148.7949  134.5959  157.5219 H   0  0  0  0  0  0  0  0  0  0  0  0
  147.6146  133.2424  159.2327 H   0  0  0  0  0  0  0  0  0  0  0  0
  146.9521  134.2719  161.3990 H   0  0  0  0  0  0  0  0  0  0  0  0
  147.4799  136.6604  161.8482 H   0  0  0  0  0  0  0  0  0  0  0  0
  148.6471  138.0166  160.1693 H   0  0  0  0  0  0  0  0  0  0  0  0
  1  2  2  0  0  0  0
  2  3  1  0  0  0  0
  2 23  1  0  0  0  0
  3  4  1  0  0  0  0
  3 24  1  0  0  0  0
  4  5  1  0  0  0  0
  4 25  1  0  0  0  0
  4 26  1  0  0  0  0
  5 13  1  0  0  0  0
  5  6  2  0  0  0  0
  6  7  1  0  0  0  0
  7 12  2  0  0  0  0
  7  8  1  0  0  0  0
  8  9  2  0  0  0  0
  8 27  1  0  0  0  0
  9 10  1  0  0  0  0
  9 28  1  0  0  0  0
 10 11  2  0  0  0  0
 10 29  1  0  0  0  0
 11 12  1  0  0  0  0
 11 30  1  0  0  0  0
 12 13  1  0  0  0  0
 13 14  1  0  0  0  0
 14 15  1  0  0  0  0
 14 31  1  0  0  0  0
 14 32  1  0  0  0  0
 15 16  1  0  0  0  0
 15 33  1  0  0  0  0
 15 34  1  0  0  0  0
 16 17  1  0  0  0  0
 17 22  1  0  0  0  0
 17 18  2  0  0  0  0
 18 19  1  0  0  0  0
 18 35  1  0  0  0  0
 19 20  2  0  0  0  0
 19 36  1  0  0  0  0
 20 21  1  0  0  0  0
 20 37  1  0  0  0  0
 21 22  2  0  0  0  0
 21 38  1  0  0  0  0
 22 39  1  0  0  0  0
M  END
> <s_m_source_file>
AV-unprocessed.smi

> <i_m_source_file_index>
2872

> <i_lp_mmshare_version>
43012

> <i_f3d_flags>
0

> <s_epik_input>
Tz1bQ0hdW05IXVtDSDJdYyhuMSluKGMoYzEyKVtjSF1bY0hdW2NIXVtjSF0yKVtDSDJdW0NIMl1PYzNbY0hdW2NIXVtjSF1bY0hdW2NIXTM=

> <s_epik_cmdline>
J2VwaWtfcHl0aG9uJywgJy1waCcsICc3LjAnLCAnLXRuJywgJzgnLCAnLW1hJywgJzIwMCcsICctbWV0YWxfYmluZGluZycsICctaW1hZScsICc8aW5maWxlLm1hZT4nLCAnLW9tYWUnLCAnPG91dGZpbGUubWFlPic=

> <r_lp_tautomer_probability>
1

> <r_epik_Ionization_Penalty>
0.0659793

> <r_epik_Ionization_Penalty_Charging>
0

> <r_epik_Ionization_Penalty_Neutral>
0.0659793

> <r_epik_State_Penalty>
0.0575748

> <r_epik_Charging_Adjusted_Penalty>
0.0575748

> <i_epik_Tot_Q>
0

> <i_epik_Tot_abs_Q>
0

> <r_epik_Metal_State_Penalty>
0.0517641

> <b_epik_Metal_Only>
0

> <s_lp_Force_Field>
OPLS_2005

> <r_lp_Energy>
12.8976

> <b_lp_Chiralities_Consistent>
1

> <s_lp_Variant>
AV-unprocessed.smi:2872-1

> <Gold.Version>
5.8.1

> <Gold.Id.Protein>
6NUR|6NUR_protein|mol2

> <Gold.PLP.Fitness>
41.2567

> <Gold.PLP.PLP>
-38.8320

> <Gold.PLP.part.hbond>
-1.0000

> <Gold.PLP.part.metal>
0.0000

> <Gold.PLP.part.buried>
-3.6797

> <Gold.PLP.part.nonpolar>
-33.9433

> <Gold.PLP.part.repulsive>
0.4991

> <Gold.PLP.ligand.clash>
0.0000

> <Gold.PLP.ligand.torsion>
0.3107

> <Gold.PLP.Chemscore.Hbond>
1.0000

> <Gold.PLP.Chemscore.CHOScore>
0.0000

> <Gold.PLP.Chemscore.Metal>
0.0000

> <Gold.Chemscore.Hbonds>
donor molecule, donor type, donor heavy atom, donor atom, acceptor molecule, acceptor atom, score
      L1  H     3    24       P1  8028  1.00

> <Gold.PLP.Chemscore.Internal.Correction>
0.0460

> <Gold.Rescore>
     Score         DG    S(hbond)    S(metal)    S(lipo)     H(rot)  DE(clash)    DE(int)     intcor
     13.85     -14.00       1.00        0.00      97.26       2.42       0.05       0.10       ----

> <Gold.Chemscore.Fitness>
13.8462

> <Gold.Chemscore.DG>
-13.9984

> <Gold.Chemscore.ZeroCoef>
-5.4800

> <Gold.Chemscore.Hbond>
0.9987

> <Gold.Chemscore.Metal>
0.0000

> <Gold.Chemscore.Lipo>
97.2576

> <Gold.Chemscore.Internal_Hbond>
0.0000

> <Gold.Chemscore.DEClash>
0.0516

> <Gold.Chemscore.DEInternal>
0.1006

> <Gold.Chemscore.Rot>
2.4205

> <Gold.Chemscore.Internal.Correction>
   9.000000E+99

> <Gold.Chemscore.Hbonds>
donor molecule, donor type, donor heavy atom, donor atom, acceptor molecule, acceptor atom, score
      L1  H     3    24       P1  8028  1.00

> <Gold.Chemscore.Hbond.Weighted>
-3.3358

> <Gold.Chemscore.Metal.Weighted>
-0.0000

> <Gold.Chemscore.Lipo.Weighted>
-11.3791

> <Gold.Chemscore.Internal_Hbond.Weighted>
0.0000

> <Gold.Chemscore.DEClash.Weighted>
0.0516

> <Gold.Chemscore.DEInternal.Weighted>
0.1006

> <Gold.Chemscore.Rot.Weighted>
6.1965

> <Gold.Chemscore.Internal.Correction.Weighted>
   9.000000E+99

> <Gold.Protein.RotatedTorsions>
[ 6907 6896 6895 6894 ] final   21.11 input  -60.11 | X-H torsion
[ 7974 7965 7964 7962 ] final -138.49 input  175.53 | X-H torsion
[ 8008 7997 7996 7995 ] final   72.25 input   59.86 | X-H torsion
[ 10167 10162 10161 10158 ] final  119.40 input  -65.29 | X-H torsion
[ 10718 10713 10712 10709 ] final   45.81 input   66.30 | X-H torsion
[ 10763 10752 10751 10750 ] final -147.00 input  -60.55 | X-H torsion
[ 11005 11000 10999 10996 ] final   74.75 input  -57.11 | X-H torsion

> <Gold.Protein.ActiveResidues>
 VAL166  LYS551  ARG553  GLY616  TRP617  ASP618  TYR619  PRO620  LYS621  CYS622 
 ASP623  PHE694  ASN695  SER759  ASP760  ASP761  ALA762  ILE779  LEU786  VAL792 
 PHE793  MET794  SER795  GLU796  ALA797  LYS798  CYS799  TRP800  GLU811  SER814 

> <Gold.Protein.RotatedAtoms>
  151.9068  135.0356  160.0510 H   0  0  0  0  0  0  0  0  0  0  0  0  # atno 6907 bound_to 6896
  152.2313  133.5056  159.5225 H   0  0  0  0  0  0  0  0  0  0  0  0  # atno 6908 bound_to 6896
  150.7026  134.1129  159.4049 H   0  0  0  0  0  0  0  0  0  0  0  0  # atno 6909 bound_to 6896
  144.8754  140.6429  143.5240 H   0  0  0  0  0  0  0  0  0  0  0  0  # atno 7974 bound_to 7965
  155.7661  140.3485  155.5223 H   0  0  0  0  0  0  0  0  0  0  0  0  # atno 8008 bound_to 7997
  155.8867  140.1011  157.1468 H   0  0  0  0  0  0  0  0  0  0  0  0  # atno 8009 bound_to 7997
  154.4029  140.1312  156.4252 H   0  0  0  0  0  0  0  0  0  0  0  0  # atno 8010 bound_to 7997
  139.6048  144.7067  151.2978 H   0  0  0  0  0  0  0  0  0  0  0  0  # atno 10167 bound_to 10162
  157.4415  130.8084  149.7699 H   0  0  0  0  0  0  0  0  0  0  0  0  # atno 10718 bound_to 10713
  154.8308  135.3372  154.6749 H   0  0  0  0  0  0  0  0  0  0  0  0  # atno 10763 bound_to 10752
  153.7369  135.6948  153.4980 H   0  0  0  0  0  0  0  0  0  0  0  0  # atno 10764 bound_to 10752
  153.2271  135.4429  155.0506 H   0  0  0  0  0  0  0  0  0  0  0  0  # atno 10765 bound_to 10752
  139.9376  134.7459  156.1186 H   0  0  0  0  0  0  0  0  0  0  0  0  # atno 11005 bound_to 11000
  145.4053  139.1590  143.4155 LP  0  0  0  0  0  0  0  0  0  0  0  0  # atno 17320 bound_to 7965
  146.2959  140.4153  142.8722 LP  0  0  0  0  0  0  0  0  0  0  0  0  # atno 17321 bound_to 7965
  140.7277  143.6956  150.7886 LP  0  0  0  0  0  0  0  0  0  0  0  0  # atno 17342 bound_to 10162
  140.0540  143.5221  152.2660 LP  0  0  0  0  0  0  0  0  0  0  0  0  # atno 17343 bound_to 10162
  155.9951  130.3914  150.2834 LP  0  0  0  0  0  0  0  0  0  0  0  0  # atno 17370 bound_to 10713
  157.0999  131.0193  151.3089 LP  0  0  0  0  0  0  0  0  0  0  0  0  # atno 17371 bound_to 10713
  141.0997  133.6682  156.2726 LP  0  0  0  0  0  0  0  0  0  0  0  0  # atno 17394 bound_to 11000
  140.6035  134.5531  157.5521 LP  0  0  0  0  0  0  0  0  0  0  0  0  # atno 17395 bound_to 11000

$$$$
