AV-unprocessed.smi:308|AV-procd|sdf|2286|dock5
  -GOLD-   2262022183D 1   1.00000     0.00000
 Structure written by MMmdl.
 51 52  0  0  0  0  0  0  0  0  3 V2000
  143.7418  133.0994  151.5709 C   0  0  0  0  0  0  0  0  0  0  0  0
  145.2530  133.3884  151.5318 C   0  0  2  0  0  0  0  0  0  0  0  0
  145.7983  133.8980  152.8780 C   0  0  0  0  0  0  0  0  0  0  0  0
  145.3837  135.3532  153.1608 C   0  0  0  0  0  0  0  0  0  0  0  0
  145.7945  136.2578  152.0564 N   0  3  2  0  0  0  0  0  0  0  0  0
  145.5114  137.6827  152.3682 C   0  0  0  0  0  0  0  0  0  0  0  0
  146.5551  138.6611  151.7873 C   0  0  0  0  0  0  0  0  0  0  0  0
  147.7603  138.7744  152.6059 N   0  0  0  0  0  0  0  0  0  0  0  0
  147.9859  139.7390  153.5096 C   0  0  0  0  0  0  0  0  0  0  0  0
  147.1628  140.6113  153.7836 O   0  0  0  0  0  0  0  0  0  0  0  0
  149.2123  139.6266  154.0492 N   0  0  0  0  0  0  0  0  0  0  0  0
  149.8426  140.4667  155.0085 C   0  0  0  0  0  0  0  0  0  0  0  0
  150.8901  139.9149  155.7756 C   0  0  0  0  0  0  0  0  0  0  0  0
  151.5429  140.7032  156.7452 C   0  0  0  0  0  0  0  0  0  0  0  0
  151.1394  142.0451  156.9509 C   0  0  0  0  0  0  0  0  0  0  0  0
  151.7444  142.8979  157.8997 N   0  0  0  0  0  0  0  0  0  0  0  0
  151.3578  144.3014  157.9614 C   0  0  0  0  0  0  0  0  0  0  0  0
  152.6644  142.3446  158.8874 C   0  0  0  0  0  0  0  0  0  0  0  0
  150.1197  142.5269  156.1991 N   0  3  0  0  0  0  0  0  0  0  0  0
  149.4681  141.8084  155.2593 C   0  0  0  0  0  0  0  0  0  0  0  0
  145.2317  135.8229  150.7507 C   0  0  0  0  0  0  0  0  0  0  0  0
  145.6418  134.3769  150.4179 C   0  0  0  0  0  0  0  0  0  0  0  0
  143.1555  133.9937  151.7804 H   0  0  0  0  0  0  0  0  0  0  0  0
  143.5054  132.3637  152.3400 H   0  0  0  0  0  0  0  0  0  0  0  0
  143.3975  132.6958  150.6182 H   0  0  0  0  0  0  0  0  0  0  0  0
  145.7427  132.4378  151.3160 H   0  0  0  0  0  0  0  0  0  0  0  0
  145.4675  133.2496  153.6901 H   0  0  0  0  0  0  0  0  0  0  0  0
  146.8875  133.8367  152.8681 H   0  0  0  0  0  0  0  0  0  0  0  0
  144.3054  135.4226  153.3097 H   0  0  0  0  0  0  0  0  0  0  0  0
  145.8493  135.6785  154.0921 H   0  0  0  0  0  0  0  0  0  0  0  0
  144.5104  137.9466  152.0237 H   0  0  0  0  0  0  0  0  0  0  0  0
  145.4979  137.8088  153.4519 H   0  0  0  0  0  0  0  0  0  0  0  0
  146.8579  138.3402  150.7910 H   0  0  0  0  0  0  0  0  0  0  0  0
  146.1064  139.6472  151.6561 H   0  0  0  0  0  0  0  0  0  0  0  0
  148.4922  138.0999  152.4351 H   0  0  0  0  0  0  0  0  0  0  0  0
  149.7907  138.8864  153.6792 H   0  0  0  0  0  0  0  0  0  0  0  0
  151.2006  138.8917  155.6216 H   0  0  0  0  0  0  0  0  0  0  0  0
  152.3455  140.2618  157.3168 H   0  0  0  0  0  0  0  0  0  0  0  0
  151.5991  144.8070  157.0259 H   0  0  0  0  0  0  0  0  0  0  0  0
  151.8801  144.8217  158.7645 H   0  0  0  0  0  0  0  0  0  0  0  0
  150.2870  144.3970  158.1441 H   0  0  0  0  0  0  0  0  0  0  0  0
  153.5102  141.8618  158.3966 H   0  0  0  0  0  0  0  0  0  0  0  0
  152.1578  141.6078  159.5118 H   0  0  0  0  0  0  0  0  0  0  0  0
  153.0598  143.1223  159.5411 H   0  0  0  0  0  0  0  0  0  0  0  0
  148.6731  142.3403  154.7596 H   0  0  0  0  0  0  0  0  0  0  0  0
  144.1452  135.9172  150.7696 H   0  0  0  0  0  0  0  0  0  0  0  0
  145.5869  136.4756  149.9538 H   0  0  0  0  0  0  0  0  0  0  0  0
  146.7222  134.3416  150.2700 H   0  0  0  0  0  0  0  0  0  0  0  0
  145.1978  134.0711  149.4699 H   0  0  0  0  0  0  0  0  0  0  0  0
  146.7986  136.1763  151.9857 H   0  0  0  0  0  0  0  0  0  0  0  0
  149.8247  143.4916  156.3518 H   0  0  0  0  0  0  0  0  0  0  0  0
  1  2  1  0  0  0  0
  1 23  1  0  0  0  0
  1 24  1  0  0  0  0
  1 25  1  0  0  0  0
  2 22  1  0  0  0  0
  2  3  1  0  0  0  0
  2 26  1  0  0  0  0
  3  4  1  0  0  0  0
  3 27  1  0  0  0  0
  3 28  1  0  0  0  0
  4  5  1  0  0  0  0
  4 29  1  0  0  0  0
  4 30  1  0  0  0  0
  5  6  1  0  0  0  0
  5 21  1  0  0  0  0
  5 50  1  0  0  0  0
  6  7  1  0  0  0  0
  6 31  1  0  0  0  0
  6 32  1  0  0  0  0
  7  8  1  0  0  0  0
  7 33  1  0  0  0  0
  7 34  1  0  0  0  0
  8  9  1  0  0  0  0
  8 35  1  0  0  0  0
  9 10  2  0  0  0  0
  9 11  1  0  0  0  0
 11 12  1  0  0  0  0
 11 36  1  0  0  0  0
 12 20  1  0  0  0  0
 12 13  2  0  0  0  0
 13 14  1  0  0  0  0
 13 37  1  0  0  0  0
 14 15  2  0  0  0  0
 14 38  1  0  0  0  0
 15 16  1  0  0  0  0
 15 19  1  0  0  0  0
 16 17  1  0  0  0  0
 16 18  1  0  0  0  0
 17 39  1  0  0  0  0
 17 40  1  0  0  0  0
 17 41  1  0  0  0  0
 18 42  1  0  0  0  0
 18 43  1  0  0  0  0
 18 44  1  0  0  0  0
 19 20  2  0  0  0  0
 19 51  1  0  0  0  0
 20 45  1  0  0  0  0
 21 22  1  0  0  0  0
 21 46  1  0  0  0  0
 21 47  1  0  0  0  0
 22 48  1  0  0  0  0
 22 49  1  0  0  0  0
M  CHG  1   5   1
M  CHG  1  19   1
M  END
> <s_m_source_file>
AV-unprocessed.smi

> <i_m_source_file_index>
308

> <i_lp_mmshare_version>
43012

> <i_f3d_flags>
0

> <s_epik_input>
W0NIM11bQ0hdMVtDSDJdW0NIMl1OKFtDSDJdW0NIMl0xKVtDSDJdW0NIMl1bTkhdQyg9TylbTkhdYzJbY0hdW2NIXWMoTihbQ0gzXSlbQ0gzXSluW2NIXTI=

> <s_epik_cmdline>
J2VwaWtfcHl0aG9uJywgJy1waCcsICc3LjAnLCAnLXRuJywgJzgnLCAnLW1hJywgJzIwMCcsICctbWV0YWxfYmluZGluZycsICctaW1hZScsICc8aW5maWxlLm1hZT4nLCAnLW9tYWUnLCAnPG91dGZpbGUubWFlPic=

> <r_lp_tautomer_probability>
0.999994

> <r_epik_Ionization_Penalty>
0.309846

> <r_epik_Ionization_Penalty_Charging>
0.309826

> <r_epik_Ionization_Penalty_Neutral>
1.97883e-05

> <r_epik_State_Penalty>
0.302329

> <r_epik_Charging_Adjusted_Penalty>
0.612155

> <i_epik_Tot_Q>
2

> <i_epik_Tot_abs_Q>
2

> <r_epik_Metal_State_Penalty>
0.577265

> <b_epik_Metal_Only>
0

> <s_lp_Force_Field>
OPLS_2005

> <r_lp_Energy>
37.2755

> <b_lp_Chiralities_Consistent>
1

> <s_lp_Variant>
AV-unprocessed.smi:308-2

> <Gold.Version>
5.8.1

> <Gold.Id.Protein>
6NUR|6NUR_protein|mol2

> <Gold.PLP.Fitness>
54.3179

> <Gold.PLP.PLP>
-42.2221

> <Gold.PLP.part.hbond>
-5.0000

> <Gold.PLP.part.metal>
0.0000

> <Gold.PLP.part.buried>
0.1044

> <Gold.PLP.part.nonpolar>
-37.7123

> <Gold.PLP.part.repulsive>
0.4560

> <Gold.PLP.ligand.clash>
0.0000

> <Gold.PLP.ligand.torsion>
0.7994

> <Gold.PLP.Chemscore.Hbond>
4.5440

> <Gold.PLP.Chemscore.CHOScore>
0.0000

> <Gold.PLP.Chemscore.Metal>
0.0000

> <Gold.Chemscore.Hbonds>
donor molecule, donor type, donor heavy atom, donor atom, acceptor molecule, acceptor atom, score
      L1  H     5    50       P1  7948  1.46
      L1  H     8    35       P1  7948  0.94
      L1  H    19    51       P1  8028  1.70

> <Gold.PLP.Chemscore.Internal.Correction>
0.0626

> <Gold.Rescore>
     Score         DG    S(hbond)    S(metal)    S(lipo)     H(rot)  DE(clash)    DE(int)     intcor
     18.15     -21.99       2.66        0.00      96.95       1.45       1.88       1.96       ----

> <Gold.Chemscore.Fitness>
18.1518

> <Gold.Chemscore.DG>
-21.9893

> <Gold.Chemscore.ZeroCoef>
-5.4800

> <Gold.Chemscore.Hbond>
2.6564

> <Gold.Chemscore.Metal>
0.0000

> <Gold.Chemscore.Lipo>
96.9533

> <Gold.Chemscore.Internal_Hbond>
0.0000

> <Gold.Chemscore.DEClash>
1.8817

> <Gold.Chemscore.DEInternal>
1.9559

> <Gold.Chemscore.Rot>
1.4479

> <Gold.Chemscore.Internal.Correction>
   9.000000E+99

> <Gold.Chemscore.Hbonds>
donor molecule, donor type, donor heavy atom, donor atom, acceptor molecule, acceptor atom, score
      L1  H     5    50       P1  7948  0.73
      L1  H     8    35       P1  7948  0.90
      L1  H    19    51       P1  8028  0.83

> <Gold.Chemscore.Hbond.Weighted>
-8.8723

> <Gold.Chemscore.Metal.Weighted>
-0.0000

> <Gold.Chemscore.Lipo.Weighted>
-11.3435

> <Gold.Chemscore.Internal_Hbond.Weighted>
0.0000

> <Gold.Chemscore.DEClash.Weighted>
1.8817

> <Gold.Chemscore.DEInternal.Weighted>
1.9559

> <Gold.Chemscore.Rot.Weighted>
3.7065

> <Gold.Chemscore.Internal.Correction.Weighted>
   9.000000E+99

> <Gold.Protein.RotatedTorsions>
[ 6907 6896 6895 6894 ] final   77.11 input  -60.11 | X-H torsion
[ 7974 7965 7964 7962 ] final  -84.10 input  175.53 | X-H torsion
[ 8008 7997 7996 7995 ] final -156.53 input   59.86 | X-H torsion
[ 10167 10162 10161 10158 ] final  -70.34 input  -65.29 | X-H torsion
[ 10718 10713 10712 10709 ] final  159.22 input   66.30 | X-H torsion
[ 10763 10752 10751 10750 ] final   -6.87 input  -60.55 | X-H torsion
[ 11005 11000 10999 10996 ] final -128.68 input  -57.11 | X-H torsion

> <Gold.Protein.ActiveResidues>
 VAL166  LYS551  ARG553  GLY616  TRP617  ASP618  TYR619  PRO620  LYS621  CYS622 
 ASP623  PHE694  ASN695  SER759  ASP760  ASP761  ALA762  ILE779  LEU786  VAL792 
 PHE793  MET794  SER795  GLU796  ALA797  LYS798  CYS799  TRP800  GLU811  SER814 

> <Gold.Protein.RotatedAtoms>
  152.5103  134.3867  159.9369 H   0  0  0  0  0  0  0  0  0  0  0  0  # atno 6907 bound_to 6896
  151.3826  133.3810  159.2719 H   0  0  0  0  0  0  0  0  0  0  0  0  # atno 6908 bound_to 6896
  150.9493  134.8915  159.7721 H   0  0  0  0  0  0  0  0  0  0  0  0  # atno 6909 bound_to 6896
  145.5111  140.9540  143.1707 H   0  0  0  0  0  0  0  0  0  0  0  0  # atno 7974 bound_to 7965
  155.7185  140.0787  157.2340 H   0  0  0  0  0  0  0  0  0  0  0  0  # atno 8008 bound_to 7997
  154.4048  140.1617  156.2430 H   0  0  0  0  0  0  0  0  0  0  0  0  # atno 8009 bound_to 7997
  155.9218  140.3397  155.6181 H   0  0  0  0  0  0  0  0  0  0  0  0  # atno 8010 bound_to 7997
  140.5360  143.2318  151.7176 H   0  0  0  0  0  0  0  0  0  0  0  0  # atno 10167 bound_to 10162
  157.1672  131.0601  151.2202 H   0  0  0  0  0  0  0  0  0  0  0  0  # atno 10718 bound_to 10713
  153.4184  135.7009  153.6311 H   0  0  0  0  0  0  0  0  0  0  0  0  # atno 10763 bound_to 10752
  153.4776  135.3701  155.2425 H   0  0  0  0  0  0  0  0  0  0  0  0  # atno 10764 bound_to 10752
  154.8721  135.4058  154.3548 H   0  0  0  0  0  0  0  0  0  0  0  0  # atno 10765 bound_to 10752
  140.9495  134.1084  157.4075 H   0  0  0  0  0  0  0  0  0  0  0  0  # atno 11005 bound_to 11000
  144.7727  139.6699  143.7188 LP  0  0  0  0  0  0  0  0  0  0  0  0  # atno 17320 bound_to 7965
  146.2166  139.5560  142.9646 LP  0  0  0  0  0  0  0  0  0  0  0  0  # atno 17321 bound_to 7965
  139.4971  144.4042  152.0149 LP  0  0  0  0  0  0  0  0  0  0  0  0  # atno 17342 bound_to 10162
  140.3147  144.3497  150.6024 LP  0  0  0  0  0  0  0  0  0  0  0  0  # atno 17343 bound_to 10162
  157.4077  130.7368  149.6815 LP  0  0  0  0  0  0  0  0  0  0  0  0  # atno 17370 bound_to 10713
  155.9744  130.4103  150.3926 LP  0  0  0  0  0  0  0  0  0  0  0  0  # atno 17371 bound_to 10713
  139.8843  135.0062  156.6362 LP  0  0  0  0  0  0  0  0  0  0  0  0  # atno 17394 bound_to 11000
  140.7622  133.8808  155.8427 LP  0  0  0  0  0  0  0  0  0  0  0  0  # atno 17395 bound_to 11000

$$$$
