AV-unprocessed.smi:3106|AV-procd|sdf|11823|dock9
  -GOLD-   2272017193D 1   1.00000     0.00000
 Structure written by MMmdl.
 29 30  0  0  0  0  0  0  0  0  1 V2000
  151.5931  145.6410  159.9822 C   0  0  0  0  0  0  0  0  0  0  0  0
  152.1683  144.2759  160.2957 C   0  0  0  0  0  0  0  0  0  0  0  0
  152.1562  143.7691  161.6088 C   0  0  0  0  0  0  0  0  0  0  0  0
  152.7012  142.4931  161.8487 C   0  0  0  0  0  0  0  0  0  0  0  0
  153.2440  141.7547  160.7731 C   0  0  0  0  0  0  0  0  0  0  0  0
  153.7683  140.4822  161.1223 N   0  0  0  0  0  0  0  0  0  0  0  0
  154.2808  139.5359  160.3125 C   0  0  0  0  0  0  0  0  0  0  0  0
  154.3908  139.6498  159.0912 O   0  0  0  0  0  0  0  0  0  0  0  0
  154.7722  138.2535  160.9988 C   0  0  2  0  0  0  0  0  0  0  0  0
  154.0346  136.9840  160.5629 C   0  0  0  0  0  0  0  0  0  0  0  0
  154.2136  136.0959  161.7732 C   0  0  0  0  0  0  0  0  0  0  0  0
  154.0912  137.0949  162.9190 C   0  0  0  0  0  0  0  0  0  0  0  0
  154.5717  138.3369  162.4109 O   0  0  0  0  0  0  0  0  0  0  0  0
  153.2494  142.2511  159.5108 N   0  0  0  0  0  0  0  0  0  0  0  0
  152.7266  143.4739  159.2814 C   0  0  0  0  0  0  0  0  0  0  0  0
  151.7210  146.3184  160.8271 H   0  0  0  0  0  0  0  0  0  0  0  0
  150.5281  145.5590  159.7643 H   0  0  0  0  0  0  0  0  0  0  0  0
  152.0891  146.0817  159.1170 H   0  0  0  0  0  0  0  0  0  0  0  0
  151.7371  144.3456  162.4205 H   0  0  0  0  0  0  0  0  0  0  0  0
  152.7003  142.0893  162.8507 H   0  0  0  0  0  0  0  0  0  0  0  0
  153.7442  140.2556  162.1057 H   0  0  0  0  0  0  0  0  0  0  0  0
  155.8417  138.1381  160.8175 H   0  0  0  0  0  0  0  0  0  0  0  0
  152.9736  137.1783  160.3950 H   0  0  0  0  0  0  0  0  0  0  0  0
  154.4504  136.5434  159.6563 H   0  0  0  0  0  0  0  0  0  0  0  0
  153.4809  135.2903  161.8288 H   0  0  0  0  0  0  0  0  0  0  0  0
  155.2105  135.6528  161.7660 H   0  0  0  0  0  0  0  0  0  0  0  0
  153.0456  137.2204  163.2030 H   0  0  0  0  0  0  0  0  0  0  0  0
  154.6473  136.7836  163.8036 H   0  0  0  0  0  0  0  0  0  0  0  0
  152.7555  143.8198  158.2586 H   0  0  0  0  0  0  0  0  0  0  0  0
  1  2  1  0  0  0  0
  1 16  1  0  0  0  0
  1 17  1  0  0  0  0
  1 18  1  0  0  0  0
  2 15  1  0  0  0  0
  2  3  2  0  0  0  0
  3  4  1  0  0  0  0
  3 19  1  0  0  0  0
  4  5  2  0  0  0  0
  4 20  1  0  0  0  0
  5  6  1  0  0  0  0
  5 14  1  0  0  0  0
  6  7  1  0  0  0  0
  6 21  1  0  0  0  0
  7  8  2  0  0  0  0
  7  9  1  0  0  0  0
  9 13  1  0  0  0  0
  9 10  1  0  0  0  0
  9 22  1  0  0  0  0
 10 11  1  0  0  0  0
 10 23  1  0  0  0  0
 10 24  1  0  0  0  0
 11 12  1  0  0  0  0
 11 25  1  0  0  0  0
 11 26  1  0  0  0  0
 12 13  1  0  0  0  0
 12 27  1  0  0  0  0
 12 28  1  0  0  0  0
 14 15  2  0  0  0  0
 15 29  1  0  0  0  0
M  END
> <s_m_source_file>
AV-unprocessed.smi

> <i_m_source_file_index>
3106

> <i_lp_mmshare_version>
43012

> <i_f3d_flags>
0

> <s_epik_input>
W0NIM11jMVtjSF1bY0hdYyhuW2NIXTEpW05IXUMoPU8pW0NAQEhdMltDSDJdW0NIMl1bQ0gyXU8y

> <s_epik_cmdline>
J2VwaWtfcHl0aG9uJywgJy1waCcsICc3LjAnLCAnLXRuJywgJzgnLCAnLW1hJywgJzIwMCcsICctbWV0YWxfYmluZGluZycsICctaW1hZScsICc8aW5maWxlLm1hZT4nLCAnLW9tYWUnLCAnPG91dGZpbGUubWFlPic=

> <r_epik_Ionization_Penalty>
0.00356606

> <r_epik_Ionization_Penalty_Charging>
0

> <r_epik_Ionization_Penalty_Neutral>
0.00356606

> <r_epik_State_Penalty>
0.00372088

> <r_epik_Charging_Adjusted_Penalty>
0.00372088

> <i_epik_Tot_Q>
0

> <i_epik_Tot_abs_Q>
0

> <r_epik_Metal_State_Penalty>
-0

> <b_epik_Metal_Only>
0

> <s_lp_Force_Field>
OPLS_2005

> <r_lp_Energy>
20.8335

> <b_lp_Chiralities_Consistent>
1

> <s_lp_Variant>
AV-unprocessed.smi:3106-1

> <Gold.Version>
5.8.1

> <Gold.Id.Protein>
6NUR|6NUR_protein|mol2

> <Gold.PLP.Fitness>
40.1658

> <Gold.PLP.PLP>
-37.1791

> <Gold.PLP.part.hbond>
-1.0000

> <Gold.PLP.part.metal>
0.0000

> <Gold.PLP.part.buried>
-5.1433

> <Gold.PLP.part.nonpolar>
-31.1305

> <Gold.PLP.part.repulsive>
0.0189

> <Gold.PLP.ligand.clash>
0.0000

> <Gold.PLP.ligand.torsion>
0.0088

> <Gold.PLP.Chemscore.Hbond>
1.0000

> <Gold.PLP.Chemscore.CHOScore>
0.0000

> <Gold.PLP.Chemscore.Metal>
0.0000

> <Gold.Chemscore.Hbonds>
donor molecule, donor type, donor heavy atom, donor atom, acceptor molecule, acceptor atom, score
      P1  H  7997  8010       L1     8  1.00

> <Gold.PLP.Chemscore.Internal.Correction>
0.0042

> <Gold.Rescore>
     Score         DG    S(hbond)    S(metal)    S(lipo)     H(rot)  DE(clash)    DE(int)     intcor
     15.24     -16.58       0.99        0.00      88.38       1.00       0.04       1.30       ----

> <Gold.Chemscore.Fitness>
15.2426

> <Gold.Chemscore.DG>
-16.5811

> <Gold.Chemscore.ZeroCoef>
-5.4800

> <Gold.Chemscore.Hbond>
0.9943

> <Gold.Chemscore.Metal>
0.0000

> <Gold.Chemscore.Lipo>
88.3770

> <Gold.Chemscore.Internal_Hbond>
0.0000

> <Gold.Chemscore.DEClash>
0.0384

> <Gold.Chemscore.DEInternal>
1.3001

> <Gold.Chemscore.Rot>
1.0000

> <Gold.Chemscore.Internal.Correction>
   9.000000E+99

> <Gold.Chemscore.Hbonds>
donor molecule, donor type, donor heavy atom, donor atom, acceptor molecule, acceptor atom, score
      P1  H  7997  8010       L1     8  0.97

> <Gold.Chemscore.Hbond.Weighted>
-3.3210

> <Gold.Chemscore.Metal.Weighted>
-0.0000

> <Gold.Chemscore.Lipo.Weighted>
-10.3401

> <Gold.Chemscore.Internal_Hbond.Weighted>
0.0000

> <Gold.Chemscore.DEClash.Weighted>
0.0384

> <Gold.Chemscore.DEInternal.Weighted>
1.3001

> <Gold.Chemscore.Rot.Weighted>
2.5600

> <Gold.Chemscore.Internal.Correction.Weighted>
   9.000000E+99

> <Gold.Protein.RotatedTorsions>
[ 6907 6896 6895 6894 ] final  -89.95 input  -60.11 | X-H torsion
[ 7974 7965 7964 7962 ] final -135.82 input  175.53 | X-H torsion
[ 8008 7997 7996 7995 ] final   17.12 input   59.86 | X-H torsion
[ 10167 10162 10161 10158 ] final    9.70 input  -65.29 | X-H torsion
[ 10718 10713 10712 10709 ] final   81.47 input   66.30 | X-H torsion
[ 10763 10752 10751 10750 ] final   12.71 input  -60.55 | X-H torsion
[ 11005 11000 10999 10996 ] final   62.96 input  -57.11 | X-H torsion

> <Gold.Protein.ActiveResidues>
 VAL166  LYS551  ARG553  GLY616  TRP617  ASP618  TYR619  PRO620  LYS621  CYS622 
 ASP623  PHE694  ASN695  SER759  ASP760  ASP761  ALA762  ILE779  LEU786  VAL792 
 PHE793  MET794  SER795  GLU796  ALA797  LYS798  CYS799  TRP800  GLU811  SER814 

> <Gold.Protein.RotatedAtoms>
  150.6877  134.2507  159.4509 H   0  0  0  0  0  0  0  0  0  0  0  0  # atno 6907 bound_to 6896
  152.0445  134.9689  160.0583 H   0  0  0  0  0  0  0  0  0  0  0  0  # atno 6908 bound_to 6896
  152.1177  133.4301  159.4698 H   0  0  0  0  0  0  0  0  0  0  0  0  # atno 6909 bound_to 6896
  144.8981  140.6733  143.5103 H   0  0  0  0  0  0  0  0  0  0  0  0  # atno 7974 bound_to 7965
  154.8868  140.2981  155.5393 H   0  0  0  0  0  0  0  0  0  0  0  0  # atno 8008 bound_to 7997
  156.3021  140.2432  156.3812 H   0  0  0  0  0  0  0  0  0  0  0  0  # atno 8009 bound_to 7997
  154.8660  140.0403  157.1684 H   0  0  0  0  0  0  0  0  0  0  0  0  # atno 8010 bound_to 7997
  140.6239  143.8144  150.7209 H   0  0  0  0  0  0  0  0  0  0  0  0  # atno 10167 bound_to 10162
  157.6833  131.0005  150.2231 H   0  0  0  0  0  0  0  0  0  0  0  0  # atno 10718 bound_to 10713
  153.1795  135.6825  153.8497 H   0  0  0  0  0  0  0  0  0  0  0  0  # atno 10763 bound_to 10752
  153.7834  135.3179  155.3370 H   0  0  0  0  0  0  0  0  0  0  0  0  # atno 10764 bound_to 10752
  154.8050  135.4754  154.0465 H   0  0  0  0  0  0  0  0  0  0  0  0  # atno 10765 bound_to 10752
  140.0057  134.6373  155.9859 H   0  0  0  0  0  0  0  0  0  0  0  0  # atno 11005 bound_to 11000
  145.3665  139.1669  143.4355 LP  0  0  0  0  0  0  0  0  0  0  0  0  # atno 17320 bound_to 7965
  146.3092  140.3733  142.8676 LP  0  0  0  0  0  0  0  0  0  0  0  0  # atno 17321 bound_to 7965
  140.1741  143.4170  152.1980 LP  0  0  0  0  0  0  0  0  0  0  0  0  # atno 17342 bound_to 10162
  139.5462  144.7300  151.4575 LP  0  0  0  0  0  0  0  0  0  0  0  0  # atno 17343 bound_to 10162
  156.2879  130.3742  149.7871 LP  0  0  0  0  0  0  0  0  0  0  0  0  # atno 17370 bound_to 10713
  156.5539  130.8354  151.3308 LP  0  0  0  0  0  0  0  0  0  0  0  0  # atno 17371 bound_to 10713
  141.1675  133.6537  156.4531 LP  0  0  0  0  0  0  0  0  0  0  0  0  # atno 17394 bound_to 11000
  140.4646  134.6810  157.5101 LP  0  0  0  0  0  0  0  0  0  0  0  0  # atno 17395 bound_to 11000

$$$$
