AV-unprocessed.smi:2716|AV-procd|sdf|10483|dock10
  -GOLD-   2272014523D 1   1.00000     0.00000
 Structure written by MMmdl.
 19 19  0  0  0  0  0  0  0  0  1 V2000
  149.5511  142.3071  155.1450 N   0  0  0  0  0  0  0  0  0  0  0  0
  150.3565  141.3527  155.6194 C   0  0  0  0  0  0  0  0  0  0  0  0
  150.5175  140.2794  155.0416 O   0  0  0  0  0  0  0  0  0  0  0  0
  151.0385  141.6861  156.8999 C   0  0  0  0  0  0  0  0  0  0  0  0
  150.9602  142.8778  157.5643 C   0  0  0  0  0  0  0  0  0  0  0  0
  151.7588  142.6830  158.6719 N   0  0  0  0  0  0  0  0  0  0  0  0
  152.0568  143.6118  159.7473 C   0  0  0  0  0  0  0  0  0  0  0  0
  152.5316  142.9040  161.0275 C   0  0  0  0  0  0  0  0  0  0  0  0
  151.6076  143.0893  162.0801 O   0  0  0  0  0  0  0  0  0  0  0  0
  152.2914  141.4377  158.6880 N   0  0  0  0  0  0  0  0  0  0  0  0
  151.8679  140.8270  157.6262 N   0  0  0  0  0  0  0  0  0  0  0  0
  149.0497  142.1601  154.2813 H   0  0  0  0  0  0  0  0  0  0  0  0
  149.4485  143.1717  155.6566 H   0  0  0  0  0  0  0  0  0  0  0  0
  150.4373  143.7993  157.3547 H   0  0  0  0  0  0  0  0  0  0  0  0
  152.8171  144.3130  159.4004 H   0  0  0  0  0  0  0  0  0  0  0  0
  151.1615  144.1995  159.9544 H   0  0  0  0  0  0  0  0  0  0  0  0
  152.6448  141.8353  160.8446 H   0  0  0  0  0  0  0  0  0  0  0  0
  153.5064  143.2812  161.3381 H   0  0  0  0  0  0  0  0  0  0  0  0
  151.7839  143.9212  162.4924 H   0  0  0  0  0  0  0  0  0  0  0  0
  1  2  1  0  0  0  0
  1 12  1  0  0  0  0
  1 13  1  0  0  0  0
  2  3  2  0  0  0  0
  2  4  1  0  0  0  0
  4 11  1  0  0  0  0
  4  5  2  0  0  0  0
  5  6  1  0  0  0  0
  5 14  1  0  0  0  0
  6  7  1  0  0  0  0
  6 10  1  0  0  0  0
  7  8  1  0  0  0  0
  7 15  1  0  0  0  0
  7 16  1  0  0  0  0
  8  9  1  0  0  0  0
  8 17  1  0  0  0  0
  8 18  1  0  0  0  0
  9 19  1  0  0  0  0
 10 11  2  0  0  0  0
M  END
> <s_m_source_file>
AV-unprocessed.smi

> <i_m_source_file_index>
2716

> <i_lp_mmshare_version>
43012

> <i_f3d_flags>
0

> <s_epik_input>
W05IMl1DKD1PKWMxW2NIXW4obm4xKVtDSDJdW0NIMl1bT0hd

> <s_epik_cmdline>
J2VwaWtfcHl0aG9uJywgJy1waCcsICc3LjAnLCAnLXRuJywgJzgnLCAnLW1hJywgJzIwMCcsICctbWV0YWxfYmluZGluZycsICctaW1hZScsICc8aW5maWxlLm1hZT4nLCAnLW9tYWUnLCAnPG91dGZpbGUubWFlPic=

> <r_lp_tautomer_probability>
1

> <r_epik_Ionization_Penalty>
2.94119e-06

> <r_epik_Ionization_Penalty_Charging>
0

> <r_epik_Ionization_Penalty_Neutral>
2.94119e-06

> <r_epik_State_Penalty>
-0

> <r_epik_Charging_Adjusted_Penalty>
0

> <i_epik_Tot_Q>
0

> <i_epik_Tot_abs_Q>
0

> <r_epik_Metal_State_Penalty>
-0

> <b_epik_Metal_Only>
0

> <s_lp_Force_Field>
OPLS_2005

> <r_lp_Energy>
2.94202

> <b_lp_Chiralities_Consistent>
1

> <s_lp_Variant>
AV-unprocessed.smi:2716-1

> <Gold.Version>
5.8.1

> <Gold.Id.Protein>
6NUR|6NUR_protein|mol2

> <Gold.PLP.Fitness>
33.8948

> <Gold.PLP.PLP>
-24.0622

> <Gold.PLP.part.hbond>
-4.0000

> <Gold.PLP.part.metal>
0.0000

> <Gold.PLP.part.buried>
-4.0853

> <Gold.PLP.part.nonpolar>
-15.6250

> <Gold.PLP.part.repulsive>
0.2823

> <Gold.PLP.ligand.clash>
0.0000

> <Gold.PLP.ligand.torsion>
0.6759

> <Gold.PLP.Chemscore.Hbond>
2.7280

> <Gold.PLP.Chemscore.CHOScore>
1.0000

> <Gold.PLP.Chemscore.Metal>
0.0000

> <Gold.Chemscore.Hbonds>
donor molecule, donor type, donor heavy atom, donor atom, acceptor molecule, acceptor atom, score
      L1  H     1    13       P1  8028  0.93
      P1  H  6933  6945       L1     9  0.75
      P1  H  7989  7998       L1     3  1.00
      L1  C     5    14       P1  8028  1.00

> <Gold.PLP.Chemscore.Internal.Correction>
0.0003

> <Gold.Rescore>
     Score         DG    S(hbond)    S(metal)    S(lipo)     H(rot)  DE(clash)    DE(int)     intcor
     10.94     -11.68       2.15        0.00      38.47       2.14       0.02       0.72       ----

> <Gold.Chemscore.Fitness>
10.9426

> <Gold.Chemscore.DG>
-11.6781

> <Gold.Chemscore.ZeroCoef>
-5.4800

> <Gold.Chemscore.Hbond>
2.1481

> <Gold.Chemscore.Metal>
0.0000

> <Gold.Chemscore.Lipo>
38.4722

> <Gold.Chemscore.Internal_Hbond>
0.0000

> <Gold.Chemscore.DEClash>
0.0157

> <Gold.Chemscore.DEInternal>
0.7199

> <Gold.Chemscore.Rot>
2.1398

> <Gold.Chemscore.Internal.Correction>
   9.000000E+99

> <Gold.Chemscore.Hbonds>
donor molecule, donor type, donor heavy atom, donor atom, acceptor molecule, acceptor atom, score
      L1  H     1    13       P1  8028  0.91
      P1  H  6933  6945       L1     9  0.68
      P1  H  7989  7998       L1     3  0.24

> <Gold.Chemscore.Hbond.Weighted>
-7.1747

> <Gold.Chemscore.Metal.Weighted>
-0.0000

> <Gold.Chemscore.Lipo.Weighted>
-4.5012

> <Gold.Chemscore.Internal_Hbond.Weighted>
0.0000

> <Gold.Chemscore.DEClash.Weighted>
0.0157

> <Gold.Chemscore.DEInternal.Weighted>
0.7199

> <Gold.Chemscore.Rot.Weighted>
5.4778

> <Gold.Chemscore.Internal.Correction.Weighted>
   9.000000E+99

> <Gold.Protein.RotatedTorsions>
[ 6907 6896 6895 6894 ] final  166.16 input  -60.11 | X-H torsion
[ 7974 7965 7964 7962 ] final -108.80 input  175.53 | X-H torsion
[ 8008 7997 7996 7995 ] final   97.52 input   59.86 | X-H torsion
[ 10167 10162 10161 10158 ] final -175.42 input  -65.29 | X-H torsion
[ 10718 10713 10712 10709 ] final  106.19 input   66.30 | X-H torsion
[ 10763 10752 10751 10750 ] final   68.39 input  -60.55 | X-H torsion
[ 11005 11000 10999 10996 ] final  107.84 input  -57.11 | X-H torsion

> <Gold.Protein.ActiveResidues>
 VAL166  LYS551  ARG553  GLY616  TRP617  ASP618  TYR619  PRO620  LYS621  CYS622 
 ASP623  PHE694  ASN695  SER759  ASP760  ASP761  ALA762  ILE779  LEU786  VAL792 
 PHE793  MET794  SER795  GLU796  ALA797  LYS798  CYS799  TRP800  GLU811  SER814 

> <Gold.Protein.RotatedAtoms>
  151.8832  133.3500  159.3773 H   0  0  0  0  0  0  0  0  0  0  0  0  # atno 6907 bound_to 6896
  150.7122  134.4997  159.5565 H   0  0  0  0  0  0  0  0  0  0  0  0  # atno 6908 bound_to 6896
  152.2553  134.8091  160.0490 H   0  0  0  0  0  0  0  0  0  0  0  0  # atno 6909 bound_to 6896
  145.1884  140.9003  143.3439 H   0  0  0  0  0  0  0  0  0  0  0  0  # atno 7974 bound_to 7965
  156.0909  140.3257  155.7815 H   0  0  0  0  0  0  0  0  0  0  0  0  # atno 8008 bound_to 7997
  155.4997  140.0568  157.2958 H   0  0  0  0  0  0  0  0  0  0  0  0  # atno 8009 bound_to 7997
  154.4637  140.1979  156.0191 H   0  0  0  0  0  0  0  0  0  0  0  0  # atno 8010 bound_to 7997
  139.5582  144.1936  152.1194 H   0  0  0  0  0  0  0  0  0  0  0  0  # atno 10167 bound_to 10162
  157.6677  131.0845  150.5970 H   0  0  0  0  0  0  0  0  0  0  0  0  # atno 10718 bound_to 10713
  153.0233  135.5249  154.7127 H   0  0  0  0  0  0  0  0  0  0  0  0  # atno 10763 bound_to 10752
  154.6205  135.2888  155.0334 H   0  0  0  0  0  0  0  0  0  0  0  0  # atno 10764 bound_to 10752
  154.1322  135.6591  153.4977 H   0  0  0  0  0  0  0  0  0  0  0  0  # atno 10765 bound_to 10752
  139.8834  134.9413  156.5881 H   0  0  0  0  0  0  0  0  0  0  0  0  # atno 11005 bound_to 11000
  145.0066  139.3549  143.6141 LP  0  0  0  0  0  0  0  0  0  0  0  0  # atno 17320 bound_to 7965
  146.3440  139.9311  142.8753 LP  0  0  0  0  0  0  0  0  0  0  0  0  # atno 17321 bound_to 7965
  140.1445  144.5172  150.6724 LP  0  0  0  0  0  0  0  0  0  0  0  0  # atno 17342 bound_to 10162
  140.6858  143.2349  151.5265 LP  0  0  0  0  0  0  0  0  0  0  0  0  # atno 17343 bound_to 10162
  156.6270  130.4421  149.5800 LP  0  0  0  0  0  0  0  0  0  0  0  0  # atno 17370 bound_to 10713
  156.2311  130.6795  151.1464 LP  0  0  0  0  0  0  0  0  0  0  0  0  # atno 17371 bound_to 10713
  140.7976  133.8531  155.8699 LP  0  0  0  0  0  0  0  0  0  0  0  0  # atno 17394 bound_to 11000
  140.9621  134.1641  157.4645 LP  0  0  0  0  0  0  0  0  0  0  0  0  # atno 17395 bound_to 11000

$$$$
