AV-unprocessed.smi:473|AV-procd|sdf|2664|dock7
  -GOLD-   2262023 73D 1   1.00000     0.00000
 Structure written by MMmdl.
 43 45  0  0  0  0  0  0  0  0  2 V2000
  152.6380  143.1425  160.5786 C   0  0  0  0  0  0  0  0  0  0  0  0
  152.2255  142.3703  159.3370 C   0  0  0  0  0  0  0  0  0  0  0  0
  151.3685  142.9987  158.4051 C   0  0  0  0  0  0  0  0  0  0  0  0
  151.0117  142.2679  157.2779 C   0  0  0  0  0  0  0  0  0  0  0  0
  150.2004  142.5997  156.1903 N   0  3  0  0  0  0  0  0  0  0  0  0
  150.1477  141.5491  155.3250 C   0  0  0  0  0  0  0  0  0  0  0  0
  150.9134  140.5517  155.8442 N   0  0  0  0  0  0  0  0  0  0  0  0
  151.1914  139.2067  155.3216 C   0  0  0  0  0  0  0  0  0  0  0  0
  149.9117  138.4203  154.9662 C   0  0  1  0  0  0  0  0  0  0  0  0
  149.5930  138.5123  153.5917 O   0  0  0  0  0  0  0  0  0  0  0  0
  149.9771  136.9364  155.3629 C   0  0  0  0  0  0  0  0  0  0  0  0
  148.7198  136.3262  155.1223 O   0  0  0  0  0  0  0  0  0  0  0  0
  148.6747  134.9634  155.5110 C   0  0  0  0  0  0  0  0  0  0  0  0
  148.3136  134.1567  154.3036 C   0  0  0  0  0  0  0  0  0  0  0  0
  147.2397  134.1812  153.4568 C   0  0  0  0  0  0  0  0  0  0  0  0
  147.4695  133.1701  152.4830 C   0  0  0  0  0  0  0  0  0  0  0  0
  148.6688  132.6022  152.8054 C   0  0  0  0  0  0  0  0  0  0  0  0
  149.1972  133.1918  153.9118 O   0  0  0  0  0  0  0  0  0  0  0  0
  151.4738  140.9555  157.0618 C   0  0  0  0  0  0  0  0  0  0  0  0
  152.3202  140.3222  157.9694 C   0  0  0  0  0  0  0  0  0  0  0  0
  152.6961  141.0493  159.1209 C   0  0  0  0  0  0  0  0  0  0  0  0
  153.6207  140.3840  160.1266 C   0  0  0  0  0  0  0  0  0  0  0  0
  152.1570  144.1203  160.6188 H   0  0  0  0  0  0  0  0  0  0  0  0
  153.7167  143.2997  160.5887 H   0  0  0  0  0  0  0  0  0  0  0  0
  152.3580  142.5978  161.4807 H   0  0  0  0  0  0  0  0  0  0  0  0
  151.0081  144.0048  158.5619 H   0  0  0  0  0  0  0  0  0  0  0  0
  149.5963  141.5131  154.3963 H   0  0  0  0  0  0  0  0  0  0  0  0
  151.8598  139.2966  154.4653 H   0  0  0  0  0  0  0  0  0  0  0  0
  151.7538  138.6703  156.0868 H   0  0  0  0  0  0  0  0  0  0  0  0
  149.0731  138.8730  155.4967 H   0  0  0  0  0  0  0  0  0  0  0  0
  149.6176  137.6441  153.2200 H   0  0  0  0  0  0  0  0  0  0  0  0
  150.7361  136.4336  154.7614 H   0  0  0  0  0  0  0  0  0  0  0  0
  150.2688  136.8276  156.4090 H   0  0  0  0  0  0  0  0  0  0  0  0
  149.6434  134.6457  155.8991 H   0  0  0  0  0  0  0  0  0  0  0  0
  147.9316  134.8148  156.2956 H   0  0  0  0  0  0  0  0  0  0  0  0
  146.3922  134.8466  153.5296 H   0  0  0  0  0  0  0  0  0  0  0  0
  146.8382  132.8938  151.6514 H   0  0  0  0  0  0  0  0  0  0  0  0
  149.2638  131.8096  152.3763 H   0  0  0  0  0  0  0  0  0  0  0  0
  152.6838  139.3185  157.8032 H   0  0  0  0  0  0  0  0  0  0  0  0
  153.9087  139.3832  159.8025 H   0  0  0  0  0  0  0  0  0  0  0  0
  153.1297  140.2913  161.0955 H   0  0  0  0  0  0  0  0  0  0  0  0
  154.5330  140.9671  160.2536 H   0  0  0  0  0  0  0  0  0  0  0  0
  149.7165  143.4770  156.0472 H   0  0  0  0  0  0  0  0  0  0  0  0
  1  2  1  0  0  0  0
  1 23  1  0  0  0  0
  1 24  1  0  0  0  0
  1 25  1  0  0  0  0
  2 21  1  0  0  0  0
  2  3  2  0  0  0  0
  3  4  1  0  0  0  0
  3 26  1  0  0  0  0
  4 19  2  0  0  0  0
  4  5  1  0  0  0  0
  5  6  2  0  0  0  0
  5 43  1  0  0  0  0
  6  7  1  0  0  0  0
  6 27  1  0  0  0  0
  7  8  1  0  0  0  0
  7 19  1  0  0  0  0
  8  9  1  0  0  0  0
  8 28  1  0  0  0  0
  8 29  1  0  0  0  0
  9 10  1  0  0  0  0
  9 11  1  0  0  0  0
  9 30  1  0  0  0  0
 10 31  1  0  0  0  0
 11 12  1  0  0  0  0
 11 32  1  0  0  0  0
 11 33  1  0  0  0  0
 12 13  1  0  0  0  0
 13 14  1  0  0  0  0
 13 34  1  0  0  0  0
 13 35  1  0  0  0  0
 14 18  1  0  0  0  0
 14 15  2  0  0  0  0
 15 16  1  0  0  0  0
 15 36  1  0  0  0  0
 16 17  2  0  0  0  0
 16 37  1  0  0  0  0
 17 18  1  0  0  0  0
 17 38  1  0  0  0  0
 19 20  1  0  0  0  0
 20 21  2  0  0  0  0
 20 39  1  0  0  0  0
 21 22  1  0  0  0  0
 22 40  1  0  0  0  0
 22 41  1  0  0  0  0
 22 42  1  0  0  0  0
M  CHG  1   5   1
M  END
> <s_m_source_file>
AV-unprocessed.smi

> <i_m_source_file_index>
473

> <i_lp_mmshare_version>
43012

> <i_f3d_flags>
0

> <s_epik_input>
W0NIM11jKFtjSF0xKWMoW0NIM10pW2NIXWMoYzEyKW4oW2NIXW4yKVtDSDJdW0NASF0oW09IXSlbQ0gyXU9bQ0gyXWMzW2NIXVtjSF1bY0hdbzM=

> <s_epik_cmdline>
J2VwaWtfcHl0aG9uJywgJy1waCcsICc3LjAnLCAnLXRuJywgJzgnLCAnLW1hJywgJzIwMCcsICctbWV0YWxfYmluZGluZycsICctaW1hZScsICc8aW5maWxlLm1hZT4nLCAnLW9tYWUnLCAnPG91dGZpbGUubWFlPic=

> <r_epik_Ionization_Penalty>
1.03981

> <r_epik_Ionization_Penalty_Charging>
1.03981

> <r_epik_Ionization_Penalty_Neutral>
9.34185e-07

> <r_epik_State_Penalty>
1.09172

> <r_epik_Charging_Adjusted_Penalty>
2.13153

> <i_epik_Tot_Q>
1

> <i_epik_Tot_abs_Q>
1

> <r_epik_Metal_State_Penalty>
5.0824

> <b_epik_Metal_Only>
0

> <s_lp_Force_Field>
OPLS_2005

> <r_lp_Energy>
14.3304

> <b_lp_Chiralities_Consistent>
1

> <s_lp_Variant>
AV-unprocessed.smi:473-4

> <Gold.Version>
5.8.1

> <Gold.Id.Protein>
6NUR|6NUR_protein|mol2

> <Gold.PLP.Fitness>
51.2153

> <Gold.PLP.PLP>
-41.1166

> <Gold.PLP.part.hbond>
-3.0000

> <Gold.PLP.part.metal>
0.0000

> <Gold.PLP.part.buried>
-4.3889

> <Gold.PLP.part.nonpolar>
-34.3300

> <Gold.PLP.part.repulsive>
0.3652

> <Gold.PLP.ligand.clash>
0.0000

> <Gold.PLP.ligand.torsion>
0.9769

> <Gold.PLP.Chemscore.Hbond>
3.0000

> <Gold.PLP.Chemscore.CHOScore>
1.0000

> <Gold.PLP.Chemscore.Metal>
0.0000

> <Gold.Chemscore.Hbonds>
donor molecule, donor type, donor heavy atom, donor atom, acceptor molecule, acceptor atom, score
      L1  H     5    43       P1  8028  2.00
      L1  H    10    31       P1  7948  0.99
      L1  C    17    38       P1 10747  0.95

> <Gold.PLP.Chemscore.Internal.Correction>
0.0525

> <Gold.Rescore>
     Score         DG    S(hbond)    S(metal)    S(lipo)     H(rot)  DE(clash)    DE(int)     intcor
     17.28     -18.30       1.91        0.00     109.55       2.49       0.02       0.99       ----

> <Gold.Chemscore.Fitness>
17.2796

> <Gold.Chemscore.DG>
-18.2952

> <Gold.Chemscore.ZeroCoef>
-5.4800

> <Gold.Chemscore.Hbond>
1.9089

> <Gold.Chemscore.Metal>
0.0000

> <Gold.Chemscore.Lipo>
109.5486

> <Gold.Chemscore.Internal_Hbond>
0.0000

> <Gold.Chemscore.DEClash>
0.0223

> <Gold.Chemscore.DEInternal>
0.9933

> <Gold.Chemscore.Rot>
2.4913

> <Gold.Chemscore.Internal.Correction>
   9.000000E+99

> <Gold.Chemscore.Hbonds>
donor molecule, donor type, donor heavy atom, donor atom, acceptor molecule, acceptor atom, score
      L1  H     5    43       P1  8028  0.94
      L1  H    10    31       P1  7948  0.73

> <Gold.Chemscore.Hbond.Weighted>
-6.3758

> <Gold.Chemscore.Metal.Weighted>
-0.0000

> <Gold.Chemscore.Lipo.Weighted>
-12.8172

> <Gold.Chemscore.Internal_Hbond.Weighted>
0.0000

> <Gold.Chemscore.DEClash.Weighted>
0.0223

> <Gold.Chemscore.DEInternal.Weighted>
0.9933

> <Gold.Chemscore.Rot.Weighted>
6.3778

> <Gold.Chemscore.Internal.Correction.Weighted>
   9.000000E+99

> <Gold.Protein.RotatedTorsions>
[ 6907 6896 6895 6894 ] final -128.72 input  -60.11 | X-H torsion
[ 7974 7965 7964 7962 ] final -168.87 input  175.53 | X-H torsion
[ 8008 7997 7996 7995 ] final  -83.76 input   59.86 | X-H torsion
[ 10167 10162 10161 10158 ] final  173.96 input  -65.29 | X-H torsion
[ 10718 10713 10712 10709 ] final   86.35 input   66.30 | X-H torsion
[ 10763 10752 10751 10750 ] final  144.13 input  -60.55 | X-H torsion
[ 11005 11000 10999 10996 ] final   12.06 input  -57.11 | X-H torsion

> <Gold.Protein.ActiveResidues>
 VAL166  LYS551  ARG553  GLY616  TRP617  ASP618  TYR619  PRO620  LYS621  CYS622 
 ASP623  PHE694  ASN695  SER759  ASP760  ASP761  ALA762  ILE779  LEU786  VAL792 
 PHE793  MET794  SER795  GLU796  ALA797  LYS798  CYS799  TRP800  GLU811  SER814 

> <Gold.Protein.RotatedAtoms>
  150.9209  133.6881  159.2832 H   0  0  0  0  0  0  0  0  0  0  0  0  # atno 6907 bound_to 6896
  151.4336  135.1011  159.9659 H   0  0  0  0  0  0  0  0  0  0  0  0  # atno 6908 bound_to 6896
  152.4979  133.8634  159.7316 H   0  0  0  0  0  0  0  0  0  0  0  0  # atno 6909 bound_to 6896
  144.7195  140.2305  143.6304 H   0  0  0  0  0  0  0  0  0  0  0  0  # atno 7974 bound_to 7965
  154.6226  140.0614  156.9633 H   0  0  0  0  0  0  0  0  0  0  0  0  # atno 8008 bound_to 7997
  155.1794  140.3298  155.4359 H   0  0  0  0  0  0  0  0  0  0  0  0  # atno 8009 bound_to 7997
  156.2439  140.1900  156.6891 H   0  0  0  0  0  0  0  0  0  0  0  0  # atno 8010 bound_to 7997
  139.5125  144.3202  152.0210 H   0  0  0  0  0  0  0  0  0  0  0  0  # atno 10167 bound_to 10162
  157.6927  131.0212  150.2959 H   0  0  0  0  0  0  0  0  0  0  0  0  # atno 10718 bound_to 10713
  153.9838  135.2939  155.3418 H   0  0  0  0  0  0  0  0  0  0  0  0  # atno 10763 bound_to 10752
  154.7254  135.5091  153.8881 H   0  0  0  0  0  0  0  0  0  0  0  0  # atno 10764 bound_to 10752
  153.0842  135.6688  154.0098 H   0  0  0  0  0  0  0  0  0  0  0  0  # atno 10765 bound_to 10752
  140.4963  134.0791  155.7783 H   0  0  0  0  0  0  0  0  0  0  0  0  # atno 11005 bound_to 11000
  145.8415  139.2132  143.1825 LP  0  0  0  0  0  0  0  0  0  0  0  0  # atno 17320 bound_to 7965
  146.0342  140.8228  142.9861 LP  0  0  0  0  0  0  0  0  0  0  0  0  # atno 17321 bound_to 7965
  140.2644  144.4032  150.6174 LP  0  0  0  0  0  0  0  0  0  0  0  0  # atno 17342 bound_to 10162
  140.6134  143.2171  151.6840 LP  0  0  0  0  0  0  0  0  0  0  0  0  # atno 17343 bound_to 10162
  156.3483  130.3826  149.7350 LP  0  0  0  0  0  0  0  0  0  0  0  0  # atno 17370 bound_to 10713
  156.4837  130.8053  151.3066 LP  0  0  0  0  0  0  0  0  0  0  0  0  # atno 17371 bound_to 10713
  141.1459  133.9056  157.2217 LP  0  0  0  0  0  0  0  0  0  0  0  0  # atno 17394 bound_to 11000
  139.9740  135.0120  156.9583 LP  0  0  0  0  0  0  0  0  0  0  0  0  # atno 17395 bound_to 11000

$$$$
