AV-unprocessed.smi:2124|AV-procd|sdf|8655|dock1
  -GOLD-   2272011403D 1   1.00000     0.00000
 Structure written by MMmdl.
 47 49  0  0  0  0  0  0  0  0  1 V2000
  152.8449  136.6000  162.1360 C   0  0  0  0  0  0  0  0  0  0  0  0
  152.6565  137.0122  160.6913 C   0  0  0  0  0  0  0  0  0  0  0  0
  151.5154  137.0147  160.0845 N   0  0  0  0  0  0  0  0  0  0  0  0
  151.4672  137.4159  158.7420 C   0  0  0  0  0  0  0  0  0  0  0  0
  150.0927  137.3846  158.0956 C   0  0  0  0  0  0  0  0  0  0  0  0
  152.5907  137.8053  158.0708 C   0  0  0  0  0  0  0  0  0  0  0  0
  152.5730  138.2434  156.6069 C   0  0  0  0  0  0  0  0  0  0  0  0
  151.9529  139.6133  156.3201 C   0  0  0  0  0  0  0  0  0  0  0  0
  151.7087  139.9583  155.1637 O   0  0  0  0  0  0  0  0  0  0  0  0
  151.6992  140.3769  157.3963 N   0  0  0  0  0  0  0  0  0  0  0  0
  151.0842  141.7070  157.4204 C   0  0  1  0  0  0  0  0  0  0  0  0
  149.6385  141.6514  156.8875 C   0  0  0  0  0  0  0  0  0  0  0  0
  151.1899  142.3845  158.8137 C   0  0  2  0  0  0  0  0  0  0  0  0
  150.5449  143.7907  158.8673 C   0  0  0  0  0  0  0  0  0  0  0  0
  151.6712  144.6762  159.4283 C   0  0  1  0  0  0  0  0  0  0  0  0
  151.9238  144.3167  160.9040 C   0  0  0  0  0  0  0  0  0  0  0  0
  152.6241  142.9488  160.8032 C   0  0  0  0  0  0  0  0  0  0  0  0
  152.6367  142.6851  159.2855 C   0  0  2  0  0  0  0  0  0  0  0  0
  152.8940  144.0856  158.7393 C   0  0  0  0  0  0  0  0  0  0  0  0
  153.8884  137.7965  158.7730 C   0  0  0  0  0  0  0  0  0  0  0  0
  154.9602  138.1178  158.2619 O   0  0  0  0  0  0  0  0  0  0  0  0
  153.8404  137.3945  160.0626 N   0  0  0  0  0  0  0  0  0  0  0  0
  154.7031  137.3696  160.5862 H   0  0  0  0  0  0  0  0  0  0  0  0
  152.5154  135.5704  162.2782 H   0  0  0  0  0  0  0  0  0  0  0  0
  152.2555  137.2431  162.7900 H   0  0  0  0  0  0  0  0  0  0  0  0
  153.8901  136.6685  162.4416 H   0  0  0  0  0  0  0  0  0  0  0  0
  149.7717  138.3926  157.8326 H   0  0  0  0  0  0  0  0  0  0  0  0
  149.3476  136.9625  158.7709 H   0  0  0  0  0  0  0  0  0  0  0  0
  150.1037  136.7761  157.1911 H   0  0  0  0  0  0  0  0  0  0  0  0
  153.5982  138.2532  156.2357 H   0  0  0  0  0  0  0  0  0  0  0  0
  152.0625  137.4994  155.9941 H   0  0  0  0  0  0  0  0  0  0  0  0
  151.9447  139.9912  158.2965 H   0  0  0  0  0  0  0  0  0  0  0  0
  151.6652  142.2983  156.7121 H   0  0  0  0  0  0  0  0  0  0  0  0
  149.2269  142.6504  156.7470 H   0  0  0  0  0  0  0  0  0  0  0  0
  148.9748  141.1203  157.5699 H   0  0  0  0  0  0  0  0  0  0  0  0
  149.5955  141.1465  155.9219 H   0  0  0  0  0  0  0  0  0  0  0  0
  150.7003  141.7415  159.5462 H   0  0  0  0  0  0  0  0  0  0  0  0
  150.2637  144.1416  157.8736 H   0  0  0  0  0  0  0  0  0  0  0  0
  149.6495  143.8126  159.4895 H   0  0  0  0  0  0  0  0  0  0  0  0
  151.5149  145.7415  159.2570 H   0  0  0  0  0  0  0  0  0  0  0  0
  152.5783  145.0490  161.3783 H   0  0  0  0  0  0  0  0  0  0  0  0
  150.9991  144.2691  161.4801 H   0  0  0  0  0  0  0  0  0  0  0  0
  153.6414  143.0115  161.1917 H   0  0  0  0  0  0  0  0  0  0  0  0
  152.1041  142.1686  161.3603 H   0  0  0  0  0  0  0  0  0  0  0  0
  153.3770  141.9392  158.9957 H   0  0  0  0  0  0  0  0  0  0  0  0
  152.8505  144.1450  157.6508 H   0  0  0  0  0  0  0  0  0  0  0  0
  153.8351  144.5185  159.0828 H   0  0  0  0  0  0  0  0  0  0  0  0
  1  2  1  0  0  0  0
  1 24  1  0  0  0  0
  1 25  1  0  0  0  0
  1 26  1  0  0  0  0
  2 22  1  0  0  0  0
  2  3  2  0  0  0  0
  3  4  1  0  0  0  0
  4  5  1  0  0  0  0
  4  6  2  0  0  0  0
  5 27  1  0  0  0  0
  5 28  1  0  0  0  0
  5 29  1  0  0  0  0
  6  7  1  0  0  0  0
  6 20  1  0  0  0  0
  7  8  1  0  0  0  0
  7 30  1  0  0  0  0
  7 31  1  0  0  0  0
  8  9  2  0  0  0  0
  8 10  1  0  0  0  0
 10 11  1  0  0  0  0
 10 32  1  0  0  0  0
 11 12  1  0  0  0  0
 11 13  1  0  0  0  0
 11 33  1  0  0  0  0
 12 34  1  0  0  0  0
 12 35  1  0  0  0  0
 12 36  1  0  0  0  0
 13 18  1  0  0  0  0
 13 14  1  0  0  0  0
 13 37  1  0  0  0  0
 14 15  1  0  0  0  0
 14 38  1  0  0  0  0
 14 39  1  0  0  0  0
 15 19  1  0  0  0  0
 15 16  1  0  0  0  0
 15 40  1  0  0  0  0
 16 17  1  0  0  0  0
 16 41  1  0  0  0  0
 16 42  1  0  0  0  0
 17 18  1  0  0  0  0
 17 43  1  0  0  0  0
 17 44  1  0  0  0  0
 18 19  1  0  0  0  0
 18 45  1  0  0  0  0
 19 46  1  0  0  0  0
 19 47  1  0  0  0  0
 20 21  2  0  0  0  0
 20 22  1  0  0  0  0
 22 23  1  0  0  0  0
M  END
> <s_m_source_file>
AV-unprocessed.smi

> <i_m_source_file_index>
2124

> <i_lp_mmshare_version>
43012

> <i_f3d_flags>
0

> <s_epik_input>
W0NIM11jMW5jKFtDSDNdKWMoYyg9TylbbkhdMSlbQ0gyXUMoPU8pW05IXVtDQEhdKFtDSDNdKVtDQEhdKFtDSDJdW0NASF0yMylbQ0BIXShbQ0gyXTMpW0NIMl1bQ0gyXTI=

> <s_epik_cmdline>
J2VwaWtfcHl0aG9uJywgJy1waCcsICc3LjAnLCAnLXRuJywgJzgnLCAnLW1hJywgJzIwMCcsICctbWV0YWxfYmluZGluZycsICctaW1hZScsICc8aW5maWxlLm1hZT4nLCAnLW9tYWUnLCAnPG91dGZpbGUubWFlPic=

> <r_lp_tautomer_probability>
0.839158

> <r_epik_Ionization_Penalty>
0.000383628

> <r_epik_Ionization_Penalty_Charging>
0.00035045

> <r_epik_Ionization_Penalty_Neutral>
3.31781e-05

> <r_epik_State_Penalty>
0.09125

> <r_epik_Charging_Adjusted_Penalty>
0.0916005

> <i_epik_Tot_Q>
0

> <i_epik_Tot_abs_Q>
0

> <r_epik_Metal_State_Penalty>
0.255229

> <b_epik_Metal_Only>
0

> <s_lp_Force_Field>
OPLS_2005

> <r_lp_Energy>
52.5198

> <b_lp_Chiralities_Consistent>
1

> <s_lp_Variant>
AV-unprocessed.smi:2124-6

> <Gold.Version>
5.8.1

> <Gold.Id.Protein>
6NUR|6NUR_protein|mol2

> <Gold.PLP.Fitness>
51.6790

> <Gold.PLP.PLP>
-44.0106

> <Gold.PLP.part.hbond>
-2.5912

> <Gold.PLP.part.metal>
0.0000

> <Gold.PLP.part.buried>
-6.4442

> <Gold.PLP.part.nonpolar>
-36.0154

> <Gold.PLP.part.repulsive>
0.1731

> <Gold.PLP.ligand.clash>
0.0000

> <Gold.PLP.ligand.torsion>
0.3444

> <Gold.PLP.Chemscore.Hbond>
2.7585

> <Gold.PLP.Chemscore.CHOScore>
0.0000

> <Gold.PLP.Chemscore.Metal>
0.0000

> <Gold.Chemscore.Hbonds>
donor molecule, donor type, donor heavy atom, donor atom, acceptor molecule, acceptor atom, score
      P1  H  6896  6909       L1     3  0.15
      P1  H  7989  7998       L1     9  0.99
      P1  H  7997  8010       L1    21  0.60

> <Gold.PLP.Chemscore.Internal.Correction>
0.0817

> <Gold.Rescore>
     Score         DG    S(hbond)    S(metal)    S(lipo)     H(rot)  DE(clash)    DE(int)     intcor
     20.26     -20.49       1.83        0.00     112.19       1.65       0.00       0.23       ----

> <Gold.Chemscore.Fitness>
20.2594

> <Gold.Chemscore.DG>
-20.4921

> <Gold.Chemscore.ZeroCoef>
-5.4800

> <Gold.Chemscore.Hbond>
1.8318

> <Gold.Chemscore.Metal>
0.0000

> <Gold.Chemscore.Lipo>
112.1926

> <Gold.Chemscore.Internal_Hbond>
0.0000

> <Gold.Chemscore.DEClash>
0.0019

> <Gold.Chemscore.DEInternal>
0.2308

> <Gold.Chemscore.Rot>
1.6534

> <Gold.Chemscore.Internal.Correction>
   9.000000E+99

> <Gold.Chemscore.Hbonds>
donor molecule, donor type, donor heavy atom, donor atom, acceptor molecule, acceptor atom, score
      P1  H  7989  7998       L1     9  0.94
      P1  H  7997  8010       L1    21  0.59

> <Gold.Chemscore.Hbond.Weighted>
-6.1182

> <Gold.Chemscore.Metal.Weighted>
-0.0000

> <Gold.Chemscore.Lipo.Weighted>
-13.1265

> <Gold.Chemscore.Internal_Hbond.Weighted>
0.0000

> <Gold.Chemscore.DEClash.Weighted>
0.0019

> <Gold.Chemscore.DEInternal.Weighted>
0.2308

> <Gold.Chemscore.Rot.Weighted>
4.2326

> <Gold.Chemscore.Internal.Correction.Weighted>
   9.000000E+99

> <Gold.Protein.RotatedTorsions>
[ 6907 6896 6895 6894 ] final  134.49 input  -60.11 | X-H torsion
[ 7974 7965 7964 7962 ] final -111.37 input  175.53 | X-H torsion
[ 8008 7997 7996 7995 ] final  -17.86 input   59.86 | X-H torsion
[ 10167 10162 10161 10158 ] final    0.61 input  -65.29 | X-H torsion
[ 10718 10713 10712 10709 ] final   14.15 input   66.30 | X-H torsion
[ 10763 10752 10751 10750 ] final  157.66 input  -60.55 | X-H torsion
[ 11005 11000 10999 10996 ] final  127.65 input  -57.11 | X-H torsion

> <Gold.Protein.ActiveResidues>
 VAL166  LYS551  ARG553  GLY616  TRP617  ASP618  TYR619  PRO620  LYS621  CYS622 
 ASP623  PHE694  ASN695  SER759  ASP760  ASP761  ALA762  ILE779  LEU786  VAL792 
 PHE793  MET794  SER795  GLU796  ALA797  LYS798  CYS799  TRP800  GLU811  SER814 

> <Gold.Protein.RotatedAtoms>
  152.3107  133.5750  159.5678 H   0  0  0  0  0  0  0  0  0  0  0  0  # atno 6907 bound_to 6896
  150.7321  134.0157  159.3693 H   0  0  0  0  0  0  0  0  0  0  0  0  # atno 6908 bound_to 6896
  151.8049  135.0698  160.0456 H   0  0  0  0  0  0  0  0  0  0  0  0  # atno 6909 bound_to 6896
  145.1569  140.8858  143.3614 H   0  0  0  0  0  0  0  0  0  0  0  0  # atno 7974 bound_to 7965
  154.4947  140.2131  155.9472 H   0  0  0  0  0  0  0  0  0  0  0  0  # atno 8008 bound_to 7997
  156.1354  140.3189  155.8381 H   0  0  0  0  0  0  0  0  0  0  0  0  # atno 8009 bound_to 7997
  155.4219  140.0497  157.3016 H   0  0  0  0  0  0  0  0  0  0  0  0  # atno 8010 bound_to 7997
  140.6721  143.7020  150.7944 H   0  0  0  0  0  0  0  0  0  0  0  0  # atno 10167 bound_to 10162
  157.0350  130.6208  149.5741 H   0  0  0  0  0  0  0  0  0  0  0  0  # atno 10718 bound_to 10713
  154.2038  135.2789  155.2982 H   0  0  0  0  0  0  0  0  0  0  0  0  # atno 10763 bound_to 10752
  154.5833  135.5582  153.7210 H   0  0  0  0  0  0  0  0  0  0  0  0  # atno 10764 bound_to 10752
  153.0081  135.6350  154.2177 H   0  0  0  0  0  0  0  0  0  0  0  0  # atno 10765 bound_to 10752
  139.9519  134.9620  156.8886 H   0  0  0  0  0  0  0  0  0  0  0  0  # atno 11005 bound_to 11000
  145.0372  139.3290  143.5995 LP  0  0  0  0  0  0  0  0  0  0  0  0  # atno 17320 bound_to 7965
  146.3487  139.9732  142.8704 LP  0  0  0  0  0  0  0  0  0  0  0  0  # atno 17321 bound_to 7965
  140.0707  143.5064  152.2581 LP  0  0  0  0  0  0  0  0  0  0  0  0  # atno 17342 bound_to 10162
  139.5994  144.7578  151.3207 LP  0  0  0  0  0  0  0  0  0  0  0  0  # atno 17343 bound_to 10162
  156.0057  130.5143  150.7820 LP  0  0  0  0  0  0  0  0  0  0  0  0  # atno 17370 bound_to 10713
  157.5149  131.0928  151.0152 LP  0  0  0  0  0  0  0  0  0  0  0  0  # atno 17371 bound_to 10713
  140.5700  134.0452  155.7427 LP  0  0  0  0  0  0  0  0  0  0  0  0  # atno 17394 bound_to 11000
  141.1183  133.9504  157.2779 LP  0  0  0  0  0  0  0  0  0  0  0  0  # atno 17395 bound_to 11000

$$$$
