AV-unprocessed.smi:1593|AV-procd|sdf|6410|dock1
  -GOLD-   22720 7 43D 1   1.00000     0.00000
 Structure written by MMmdl.
 37 38  0  0  0  0  0  0  0  0  2 V2000
  151.8983  140.5314  158.0857 C   0  0  0  0  0  0  0  0  0  0  0  0
  151.5496  140.1012  156.7021 C   0  0  0  0  0  0  0  0  0  0  0  0
  150.3805  140.0996  155.9946 C   0  0  0  0  0  0  0  0  0  0  0  0
  150.7667  139.5555  154.7409 C   0  0  0  0  0  0  0  0  0  0  0  0
  149.8200  139.3837  153.6990 N   0  0  0  0  0  0  0  0  0  0  0  0
  148.5197  139.0667  153.8209 C   0  0  0  0  0  0  0  0  0  0  0  0
  147.9300  138.8820  154.8860 O   0  0  0  0  0  0  0  0  0  0  0  0
  147.9242  138.9689  152.6234 N   0  0  0  0  0  0  0  0  0  0  0  0
  146.5163  138.6471  152.4206 C   0  0  0  0  0  0  0  0  0  0  0  0
  146.0708  137.4685  153.3079 C   0  0  0  0  0  0  0  0  0  0  0  0
  146.1953  136.1616  152.6162 N   0  3  0  0  0  0  0  0  0  0  0  0
  146.0267  135.0161  153.5422 C   0  0  0  0  0  0  0  0  0  0  0  0
  146.2074  133.6846  152.7941 C   0  0  0  0  0  0  0  0  0  0  0  0
  145.2848  133.6144  151.7145 O   0  0  0  0  0  0  0  0  0  0  0  0
  145.4929  134.6564  150.7695 C   0  0  0  0  0  0  0  0  0  0  0  0
  145.2877  136.0204  151.4500 C   0  0  0  0  0  0  0  0  0  0  0  0
  152.0546  139.2522  154.6879 N   0  0  0  0  0  0  0  0  0  0  0  0
  152.5630  139.6002  155.9448 O   0  0  0  0  0  0  0  0  0  0  0  0
  151.0194  140.9052  158.6113 H   0  0  0  0  0  0  0  0  0  0  0  0
  152.6439  141.3262  158.0659 H   0  0  0  0  0  0  0  0  0  0  0  0
  152.3061  139.6979  158.6579 H   0  0  0  0  0  0  0  0  0  0  0  0
  149.4080  140.4347  156.3236 H   0  0  0  0  0  0  0  0  0  0  0  0
  150.1732  139.5100  152.7621 H   0  0  0  0  0  0  0  0  0  0  0  0
  148.4799  139.1373  151.7972 H   0  0  0  0  0  0  0  0  0  0  0  0
  145.9173  139.5385  152.6087 H   0  0  0  0  0  0  0  0  0  0  0  0
  146.3748  138.3947  151.3695 H   0  0  0  0  0  0  0  0  0  0  0  0
  146.6987  137.4619  154.2002 H   0  0  0  0  0  0  0  0  0  0  0  0
  145.0450  137.5999  153.6555 H   0  0  0  0  0  0  0  0  0  0  0  0
  146.7554  135.0819  154.3509 H   0  0  0  0  0  0  0  0  0  0  0  0
  145.0360  135.0572  153.9979 H   0  0  0  0  0  0  0  0  0  0  0  0
  147.2288  133.5799  152.4244 H   0  0  0  0  0  0  0  0  0  0  0  0
  146.0260  132.8479  153.4688 H   0  0  0  0  0  0  0  0  0  0  0  0
  146.4935  134.5808  150.3405 H   0  0  0  0  0  0  0  0  0  0  0  0
  144.7852  134.5356  149.9489 H   0  0  0  0  0  0  0  0  0  0  0  0
  144.2514  136.1187  151.7777 H   0  0  0  0  0  0  0  0  0  0  0  0
  145.4684  136.8131  150.7248 H   0  0  0  0  0  0  0  0  0  0  0  0
  147.1412  136.1064  152.2664 H   0  0  0  0  0  0  0  0  0  0  0  0
  1  2  1  0  0  0  0
  1 19  1  0  0  0  0
  1 20  1  0  0  0  0
  1 21  1  0  0  0  0
  2 18  1  0  0  0  0
  2  3  2  0  0  0  0
  3  4  1  0  0  0  0
  3 22  1  0  0  0  0
  4  5  1  0  0  0  0
  4 17  2  0  0  0  0
  5  6  1  0  0  0  0
  5 23  1  0  0  0  0
  6  7  2  0  0  0  0
  6  8  1  0  0  0  0
  8  9  1  0  0  0  0
  8 24  1  0  0  0  0
  9 10  1  0  0  0  0
  9 25  1  0  0  0  0
  9 26  1  0  0  0  0
 10 11  1  0  0  0  0
 10 27  1  0  0  0  0
 10 28  1  0  0  0  0
 11 16  1  0  0  0  0
 11 12  1  0  0  0  0
 11 37  1  0  0  0  0
 12 13  1  0  0  0  0
 12 29  1  0  0  0  0
 12 30  1  0  0  0  0
 13 14  1  0  0  0  0
 13 31  1  0  0  0  0
 13 32  1  0  0  0  0
 14 15  1  0  0  0  0
 15 16  1  0  0  0  0
 15 33  1  0  0  0  0
 15 34  1  0  0  0  0
 16 35  1  0  0  0  0
 16 36  1  0  0  0  0
 17 18  1  0  0  0  0
M  CHG  1  11   1
M  END
> <s_m_source_file>
AV-unprocessed.smi

> <i_m_source_file_index>
1593

> <i_lp_mmshare_version>
43012

> <i_f3d_flags>
0

> <s_epik_input>
W0NIM11jMVtjSF1jKG5vMSlbTkhdQyg9TylbTkhdW0NIMl1bQ0gyXU4yW0NIMl1bQ0gyXU9bQ0gyXVtDSDJdMg==

> <s_epik_cmdline>
J2VwaWtfcHl0aG9uJywgJy1waCcsICc3LjAnLCAnLXRuJywgJzgnLCAnLW1hJywgJzIwMCcsICctbWV0YWxfYmluZGluZycsICctaW1hZScsICc8aW5maWxlLm1hZT4nLCAnLW9tYWUnLCAnPG91dGZpbGUubWFlPic=

> <r_epik_Ionization_Penalty>
0.707076

> <r_epik_Ionization_Penalty_Charging>
0.707039

> <r_epik_Ionization_Penalty_Neutral>
3.67886e-05

> <r_epik_State_Penalty>
0.730276

> <r_epik_Charging_Adjusted_Penalty>
1.43732

> <i_epik_Tot_Q>
1

> <i_epik_Tot_abs_Q>
1

> <r_epik_Metal_State_Penalty>
0.743216

> <b_epik_Metal_Only>
0

> <s_lp_Force_Field>
OPLS_2005

> <r_lp_Energy>
12.0314

> <b_lp_Chiralities_Consistent>
1

> <s_lp_Variant>
AV-unprocessed.smi:1593-2

> <Gold.Version>
5.8.1

> <Gold.Id.Protein>
6NUR|6NUR_protein|mol2

> <Gold.PLP.Fitness>
41.9398

> <Gold.PLP.PLP>
-28.5959

> <Gold.PLP.part.hbond>
-5.7458

> <Gold.PLP.part.metal>
0.0000

> <Gold.PLP.part.buried>
-2.3441

> <Gold.PLP.part.nonpolar>
-20.5695

> <Gold.PLP.part.repulsive>
0.4578

> <Gold.PLP.ligand.clash>
0.0000

> <Gold.PLP.ligand.torsion>
0.5801

> <Gold.PLP.Chemscore.Hbond>
4.8240

> <Gold.PLP.Chemscore.CHOScore>
0.0000

> <Gold.PLP.Chemscore.Metal>
0.0000

> <Gold.Chemscore.Hbonds>
donor molecule, donor type, donor heavy atom, donor atom, acceptor molecule, acceptor atom, score
      L1  H     5    23       P1  7957  0.82
      L1  H     8    24       P1  7957  0.94
      L1  H    11    37       P1  7948  2.00
      P1  H  7997  8009       L1    18  1.00

> <Gold.PLP.Chemscore.Internal.Correction>
0.0321

> <Gold.Rescore>
     Score         DG    S(hbond)    S(metal)    S(lipo)     H(rot)  DE(clash)    DE(int)     intcor
     16.48     -19.56       3.91        0.00      44.69       1.65       0.02       3.05       ----

> <Gold.Chemscore.Fitness>
16.4837

> <Gold.Chemscore.DG>
-19.5556

> <Gold.Chemscore.ZeroCoef>
-5.4800

> <Gold.Chemscore.Hbond>
3.9148

> <Gold.Chemscore.Metal>
0.0000

> <Gold.Chemscore.Lipo>
44.6852

> <Gold.Chemscore.Internal_Hbond>
0.0000

> <Gold.Chemscore.DEClash>
0.0239

> <Gold.Chemscore.DEInternal>
3.0480

> <Gold.Chemscore.Rot>
1.6516

> <Gold.Chemscore.Internal.Correction>
   9.000000E+99

> <Gold.Chemscore.Hbonds>
donor molecule, donor type, donor heavy atom, donor atom, acceptor molecule, acceptor atom, score
      L1  H     5    23       P1  7957  0.75
      L1  H     8    24       P1  7957  0.83
      L1  H    11    37       P1  7948  1.00
      P1  H  7997  8009       L1    18  0.91

> <Gold.Chemscore.Hbond.Weighted>
-13.0755

> <Gold.Chemscore.Metal.Weighted>
-0.0000

> <Gold.Chemscore.Lipo.Weighted>
-5.2282

> <Gold.Chemscore.Internal_Hbond.Weighted>
0.0000

> <Gold.Chemscore.DEClash.Weighted>
0.0239

> <Gold.Chemscore.DEInternal.Weighted>
3.0480

> <Gold.Chemscore.Rot.Weighted>
4.2281

> <Gold.Chemscore.Internal.Correction.Weighted>
   9.000000E+99

> <Gold.Protein.RotatedTorsions>
[ 6907 6896 6895 6894 ] final  -95.40 input  -60.11 | X-H torsion
[ 7974 7965 7964 7962 ] final    9.88 input  175.53 | X-H torsion
[ 8008 7997 7996 7995 ] final -172.38 input   59.86 | X-H torsion
[ 10167 10162 10161 10158 ] final  -63.09 input  -65.29 | X-H torsion
[ 10718 10713 10712 10709 ] final  -93.59 input   66.30 | X-H torsion
[ 10763 10752 10751 10750 ] final  130.34 input  -60.55 | X-H torsion
[ 11005 11000 10999 10996 ] final  161.01 input  -57.11 | X-H torsion

> <Gold.Protein.ActiveResidues>
 VAL166  LYS551  ARG553  GLY616  TRP617  ASP618  TYR619  PRO620  LYS621  CYS622 
 ASP623  PHE694  ASN695  SER759  ASP760  ASP761  ALA762  ILE779  LEU786  VAL792 
 PHE793  MET794  SER795  GLU796  ALA797  LYS798  CYS799  TRP800  GLU811  SER814 

> <Gold.Protein.RotatedAtoms>
  150.6963  134.1664  159.4195 H   0  0  0  0  0  0  0  0  0  0  0  0  # atno 6907 bound_to 6896
  151.9643  135.0106  160.0558 H   0  0  0  0  0  0  0  0  0  0  0  0  # atno 6908 bound_to 6896
  152.1899  133.4730  159.5039 H   0  0  0  0  0  0  0  0  0  0  0  0  # atno 6909 bound_to 6896
  146.2397  139.9717  142.8446 H   0  0  0  0  0  0  0  0  0  0  0  0  # atno 7974 bound_to 7965
  155.9438  140.1113  157.1033 H   0  0  0  0  0  0  0  0  0  0  0  0  # atno 8008 bound_to 7997
  154.4095  140.1214  156.5028 H   0  0  0  0  0  0  0  0  0  0  0  0  # atno 8009 bound_to 7997
  155.6928  140.3472  155.4903 H   0  0  0  0  0  0  0  0  0  0  0  0  # atno 8010 bound_to 7997
  140.5894  143.2339  151.6171 H   0  0  0  0  0  0  0  0  0  0  0  0  # atno 10167 bound_to 10162
  156.0015  130.5033  150.5798 H   0  0  0  0  0  0  0  0  0  0  0  0  # atno 10718 bound_to 10713
  153.7565  135.3202  155.3330 H   0  0  0  0  0  0  0  0  0  0  0  0  # atno 10763 bound_to 10752
  154.8245  135.4579  154.0880 H   0  0  0  0  0  0  0  0  0  0  0  0  # atno 10764 bound_to 10752
  153.2098  135.6934  153.8211 H   0  0  0  0  0  0  0  0  0  0  0  0  # atno 10765 bound_to 10752
  140.2116  134.8263  157.3126 H   0  0  0  0  0  0  0  0  0  0  0  0  # atno 11005 bound_to 11000
  145.1675  140.9704  143.4341 LP  0  0  0  0  0  0  0  0  0  0  0  0  # atno 17320 bound_to 7965
  145.0059  139.3554  143.6144 LP  0  0  0  0  0  0  0  0  0  0  0  0  # atno 17321 bound_to 7965
  139.5218  144.3182  152.0934 LP  0  0  0  0  0  0  0  0  0  0  0  0  # atno 17342 bound_to 10162
  140.2344  144.4335  150.6286 LP  0  0  0  0  0  0  0  0  0  0  0  0  # atno 17343 bound_to 10162
  157.3680  131.0761  151.1581 LP  0  0  0  0  0  0  0  0  0  0  0  0  # atno 17370 bound_to 10713
  157.2344  130.6540  149.5863 LP  0  0  0  0  0  0  0  0  0  0  0  0  # atno 17371 bound_to 10713
  140.1945  134.4331  155.7697 LP  0  0  0  0  0  0  0  0  0  0  0  0  # atno 17394 bound_to 11000
  141.2226  133.7042  156.8082 LP  0  0  0  0  0  0  0  0  0  0  0  0  # atno 17395 bound_to 11000

$$$$
