AV-unprocessed.smi:2837|AV-procd|sdf|10920|dock7
  -GOLD-   2272015373D 1   1.00000     0.00000
 Structure written by MMmdl.
 32 34  0  0  0  0  0  0  0  0  1 V2000
  146.2944  138.5405  154.1962 F   0  0  0  0  0  0  0  0  0  0  0  0
  147.1913  139.0950  153.3441 C   0  0  0  0  0  0  0  0  0  0  0  0
  146.6780  139.0015  152.0939 F   0  0  0  0  0  0  0  0  0  0  0  0
  147.4003  140.4012  153.6580 O   0  0  0  0  0  0  0  0  0  0  0  0
  148.3248  140.7229  154.6260 C   0  0  0  0  0  0  0  0  0  0  0  0
  148.0123  141.4358  155.8077 C   0  0  0  0  0  0  0  0  0  0  0  0
  149.0409  141.7251  156.7246 C   0  0  0  0  0  0  0  0  0  0  0  0
  150.3536  141.3023  156.4317 C   0  0  0  0  0  0  0  0  0  0  0  0
  151.3729  141.5967  157.3487 N   0  0  0  0  0  0  0  0  0  0  0  0
  151.5539  142.9407  157.8863 C   0  0  2  0  0  0  0  0  0  0  0  0
  152.8386  143.0955  158.7107 C   0  0  0  0  0  0  0  0  0  0  0  0
  152.2957  143.6073  160.0507 C   0  0  1  0  0  0  0  0  0  0  0  0
  151.7365  145.0333  159.9481 C   0  0  0  0  0  0  0  0  0  0  0  0
  150.4329  144.8038  159.1841 C   0  0  0  0  0  0  0  0  0  0  0  0
  150.4788  143.2913  158.9290 C   0  0  2  0  0  0  0  0  0  0  0  0
  151.0954  142.8599  160.1317 O   0  0  0  0  0  0  0  0  0  0  0  0
  150.6618  140.6301  155.2978 N   0  0  0  0  0  0  0  0  0  0  0  0
  149.6702  140.3543  154.4242 C   0  0  0  0  0  0  0  0  0  0  0  0
  148.1183  138.5215  153.3669 H   0  0  0  0  0  0  0  0  0  0  0  0
  147.0060  141.7665  156.0175 H   0  0  0  0  0  0  0  0  0  0  0  0
  148.8219  142.2664  157.6334 H   0  0  0  0  0  0  0  0  0  0  0  0
  152.0121  140.8705  157.6384 H   0  0  0  0  0  0  0  0  0  0  0  0
  151.5186  143.6586  157.0655 H   0  0  0  0  0  0  0  0  0  0  0  0
  153.3445  142.1390  158.8511 H   0  0  0  0  0  0  0  0  0  0  0  0
  153.5475  143.7879  158.2561 H   0  0  0  0  0  0  0  0  0  0  0  0
  152.9760  143.4567  160.8893 H   0  0  0  0  0  0  0  0  0  0  0  0
  151.5315  145.4440  160.9373 H   0  0  0  0  0  0  0  0  0  0  0  0
  152.4187  145.7089  159.4307 H   0  0  0  0  0  0  0  0  0  0  0  0
  149.5751  145.0642  159.8053 H   0  0  0  0  0  0  0  0  0  0  0  0
  150.3738  145.3819  158.2614 H   0  0  0  0  0  0  0  0  0  0  0  0
  149.4990  142.8521  158.7362 H   0  0  0  0  0  0  0  0  0  0  0  0
  149.9598  139.8173  153.5331 H   0  0  0  0  0  0  0  0  0  0  0  0
  1  2  1  0  0  0  0
  2  3  1  0  0  0  0
  2  4  1  0  0  0  0
  2 19  1  0  0  0  0
  4  5  1  0  0  0  0
  5 18  1  0  0  0  0
  5  6  2  0  0  0  0
  6  7  1  0  0  0  0
  6 20  1  0  0  0  0
  7  8  2  0  0  0  0
  7 21  1  0  0  0  0
  8  9  1  0  0  0  0
  8 17  1  0  0  0  0
  9 10  1  0  0  0  0
  9 22  1  0  0  0  0
 10 15  1  0  0  0  0
 10 11  1  0  0  0  0
 10 23  1  0  0  0  0
 11 12  1  0  0  0  0
 11 24  1  0  0  0  0
 11 25  1  0  0  0  0
 12 16  1  0  0  0  0
 12 13  1  0  0  0  0
 12 26  1  0  0  0  0
 13 14  1  0  0  0  0
 13 27  1  0  0  0  0
 13 28  1  0  0  0  0
 14 15  1  0  0  0  0
 14 29  1  0  0  0  0
 14 30  1  0  0  0  0
 15 16  1  0  0  0  0
 15 31  1  0  0  0  0
 17 18  2  0  0  0  0
 18 32  1  0  0  0  0
M  END
> <s_m_source_file>
AV-unprocessed.smi

> <i_m_source_file_index>
2837

> <i_lp_mmshare_version>
43012

> <i_f3d_flags>
0

> <s_epik_input>
RltDSF0oRilPYzFbY0hdW2NIXWMobltjSF0xKVtOSF1bQ0BIXShbQ0gyXVtDQEBIXTIzKVtDQEBIXShPMylbQ0gyXVtDSDJdMg==

> <s_epik_cmdline>
J2VwaWtfcHl0aG9uJywgJy1waCcsICc3LjAnLCAnLXRuJywgJzgnLCAnLW1hJywgJzIwMCcsICctbWV0YWxfYmluZGluZycsICctaW1hZScsICc8aW5maWxlLm1hZT4nLCAnLW9tYWUnLCAnPG91dGZpbGUubWFlPic=

> <r_lp_tautomer_probability>
1

> <r_epik_Ionization_Penalty>
0.0124072

> <r_epik_Ionization_Penalty_Charging>
0

> <r_epik_Ionization_Penalty_Neutral>
0.0124072

> <r_epik_State_Penalty>
0.00959565

> <r_epik_Charging_Adjusted_Penalty>
0.00959565

> <i_epik_Tot_Q>
0

> <i_epik_Tot_abs_Q>
0

> <r_epik_Metal_State_Penalty>
9.67369e-06

> <b_epik_Metal_Only>
0

> <s_lp_Force_Field>
OPLS_2005

> <r_lp_Energy>
39.7079

> <b_lp_Chiralities_Consistent>
1

> <s_lp_Variant>
AV-unprocessed.smi:2837-1

> <Gold.Version>
5.8.1

> <Gold.Id.Protein>
6NUR|6NUR_protein|mol2

> <Gold.PLP.Fitness>
37.0992

> <Gold.PLP.PLP>
-35.7013

> <Gold.PLP.part.hbond>
-2.0000

> <Gold.PLP.part.metal>
0.0000

> <Gold.PLP.part.buried>
-1.9173

> <Gold.PLP.part.nonpolar>
-31.8690

> <Gold.PLP.part.repulsive>
0.3227

> <Gold.PLP.ligand.clash>
0.0000

> <Gold.PLP.ligand.torsion>
0.8138

> <Gold.PLP.Chemscore.Hbond>
0.0000

> <Gold.PLP.Chemscore.CHOScore>
1.0000

> <Gold.PLP.Chemscore.Metal>
0.0000

> <Gold.Chemscore.Hbonds>
donor molecule, donor type, donor heavy atom, donor atom, acceptor molecule, acceptor atom, score
      L1  C    18    32       P1  7957  1.00

> <Gold.PLP.Chemscore.Internal.Correction>
0.0256

> <Gold.Rescore>
     Score         DG    S(hbond)    S(metal)    S(lipo)     H(rot)  DE(clash)    DE(int)     intcor
     11.78     -12.54       0.01        0.00      88.86       1.32       0.04       0.71       ----

> <Gold.Chemscore.Fitness>
11.7833

> <Gold.Chemscore.DG>
-12.5351

> <Gold.Chemscore.ZeroCoef>
-5.4800

> <Gold.Chemscore.Hbond>
0.0122

> <Gold.Chemscore.Metal>
0.0000

> <Gold.Chemscore.Lipo>
88.8620

> <Gold.Chemscore.Internal_Hbond>
0.0000

> <Gold.Chemscore.DEClash>
0.0399

> <Gold.Chemscore.DEInternal>
0.7120

> <Gold.Chemscore.Rot>
1.3213

> <Gold.Chemscore.Internal.Correction>
   9.000000E+99

> <Gold.Chemscore.Hbond.Weighted>
-0.0408

> <Gold.Chemscore.Metal.Weighted>
-0.0000

> <Gold.Chemscore.Lipo.Weighted>
-10.3969

> <Gold.Chemscore.Internal_Hbond.Weighted>
0.0000

> <Gold.Chemscore.DEClash.Weighted>
0.0399

> <Gold.Chemscore.DEInternal.Weighted>
0.7120

> <Gold.Chemscore.Rot.Weighted>
3.3825

> <Gold.Chemscore.Internal.Correction.Weighted>
   9.000000E+99

> <Gold.Protein.RotatedTorsions>
[ 6907 6896 6895 6894 ] final  119.45 input  -60.11 | X-H torsion
[ 7974 7965 7964 7962 ] final  166.45 input  175.53 | X-H torsion
[ 8008 7997 7996 7995 ] final  -52.01 input   59.86 | X-H torsion
[ 10167 10162 10161 10158 ] final   74.09 input  -65.29 | X-H torsion
[ 10718 10713 10712 10709 ] final  113.91 input   66.30 | X-H torsion
[ 10763 10752 10751 10750 ] final -147.25 input  -60.55 | X-H torsion
[ 11005 11000 10999 10996 ] final  167.13 input  -57.11 | X-H torsion

> <Gold.Protein.ActiveResidues>
 VAL166  LYS551  ARG553  GLY616  TRP617  ASP618  TYR619  PRO620  LYS621  CYS622 
 ASP623  PHE694  ASN695  SER759  ASP760  ASP761  ALA762  ILE779  LEU786  VAL792 
 PHE793  MET794  SER795  GLU796  ALA797  LYS798  CYS799  TRP800  GLU811  SER814 

> <Gold.Protein.RotatedAtoms>
  152.4471  133.7557  159.6718 H   0  0  0  0  0  0  0  0  0  0  0  0  # atno 6907 bound_to 6896
  150.8373  133.7982  159.3080 H   0  0  0  0  0  0  0  0  0  0  0  0  # atno 6908 bound_to 6896
  151.5617  135.1068  160.0026 H   0  0  0  0  0  0  0  0  0  0  0  0  # atno 6909 bound_to 6896
  144.7462  139.8617  143.6381 H   0  0  0  0  0  0  0  0  0  0  0  0  # atno 7974 bound_to 7965
  154.4096  140.1234  156.4923 H   0  0  0  0  0  0  0  0  0  0  0  0  # atno 8008 bound_to 7997
  155.6978  140.3495  155.4901 H   0  0  0  0  0  0  0  0  0  0  0  0  # atno 8009 bound_to 7997
  155.9412  140.1087  157.1044 H   0  0  0  0  0  0  0  0  0  0  0  0  # atno 8010 bound_to 7997
  140.0174  144.5567  150.7609 H   0  0  0  0  0  0  0  0  0  0  0  0  # atno 10167 bound_to 10162
  157.6311  131.0991  150.7110 H   0  0  0  0  0  0  0  0  0  0  0  0  # atno 10718 bound_to 10713
  154.8295  135.3365  154.6789 H   0  0  0  0  0  0  0  0  0  0  0  0  # atno 10763 bound_to 10752
  153.7411  135.6946  153.4971 H   0  0  0  0  0  0  0  0  0  0  0  0  # atno 10764 bound_to 10752
  153.2243  135.4438  155.0476 H   0  0  0  0  0  0  0  0  0  0  0  0  # atno 10765 bound_to 10752
  140.2736  134.7807  157.3697 H   0  0  0  0  0  0  0  0  0  0  0  0  # atno 11005 bound_to 11000
  146.1343  139.4386  143.0149 LP  0  0  0  0  0  0  0  0  0  0  0  0  # atno 17320 bound_to 7965
  145.7115  141.0105  143.1451 LP  0  0  0  0  0  0  0  0  0  0  0  0  # atno 17321 bound_to 7965
  140.7356  143.2743  151.3790 LP  0  0  0  0  0  0  0  0  0  0  0  0  # atno 17342 bound_to 10162
  139.6163  144.0996  152.2348 LP  0  0  0  0  0  0  0  0  0  0  0  0  # atno 17343 bound_to 10162
  156.7449  130.4750  149.5469 LP  0  0  0  0  0  0  0  0  0  0  0  0  # atno 17370 bound_to 10713
  156.1516  130.6313  151.0602 LP  0  0  0  0  0  0  0  0  0  0  0  0  # atno 17371 bound_to 10713
  140.1350  134.5046  155.8076 LP  0  0  0  0  0  0  0  0  0  0  0  0  # atno 17394 bound_to 11000
  141.2174  133.6804  156.7107 LP  0  0  0  0  0  0  0  0  0  0  0  0  # atno 17395 bound_to 11000

$$$$
