AV-unprocessed.smi:1554|AV-procd|sdf|6244|dock5
  -GOLD-   22720 6423D 1   1.00000     0.00000
 Structure written by MMmdl.
 48 50  0  0  0  0  0  0  0  0  2 V2000
  152.9827  142.9732  161.3903 C   0  0  0  0  0  0  0  0  0  0  0  0
  152.3168  142.6948  160.0543 C   0  0  0  0  0  0  0  0  0  0  0  0
  152.6575  141.5191  159.3480 C   0  0  0  0  0  0  0  0  0  0  0  0
  152.0613  141.2240  158.1025 C   0  0  0  0  0  0  0  0  0  0  0  0
  152.2456  140.1497  157.2491 N   0  0  0  0  0  0  0  0  0  0  0  0
  151.4104  140.4475  156.2581 C   0  0  0  0  0  0  0  0  0  0  0  0
  150.7071  141.5911  156.3669 N   0  0  0  0  0  0  0  0  0  0  0  0
  149.7434  142.1182  155.4168 C   0  0  0  0  0  0  0  0  0  0  0  0
  149.0017  141.0075  154.6480 C   0  0  2  0  0  0  0  0  0  0  0  0
  149.8167  140.5461  153.5872 O   0  0  0  0  0  0  0  0  0  0  0  0
  147.6699  141.5159  154.0605 C   0  0  0  0  0  0  0  0  0  0  0  0
  146.9679  142.4647  154.9623 N   0  3  1  0  0  0  0  0  0  0  0  0
  145.6627  142.9361  154.4375 C   0  0  0  0  0  0  0  0  0  0  0  0
  145.0314  143.9480  155.4074 C   0  0  0  0  0  0  0  0  0  0  0  0
  144.8906  143.3540  156.6918 O   0  0  0  0  0  0  0  0  0  0  0  0
  146.1433  142.9761  157.2518 C   0  0  1  0  0  0  0  0  0  0  0  0
  145.8920  142.4339  158.6633 C   0  0  0  0  0  0  0  0  0  0  0  0
  146.8096  141.9305  156.3362 C   0  0  0  0  0  0  0  0  0  0  0  0
  151.1058  142.1437  157.5795 C   0  0  0  0  0  0  0  0  0  0  0  0
  150.7591  143.3170  158.2722 C   0  0  0  0  0  0  0  0  0  0  0  0
  151.3662  143.5979  159.5141 C   0  0  0  0  0  0  0  0  0  0  0  0
  150.9876  144.8697  160.2522 C   0  0  0  0  0  0  0  0  0  0  0  0
  153.6401  142.1551  161.6857 H   0  0  0  0  0  0  0  0  0  0  0  0
  152.2344  143.0980  162.1733 H   0  0  0  0  0  0  0  0  0  0  0  0
  153.5820  143.8822  161.3347 H   0  0  0  0  0  0  0  0  0  0  0  0
  153.3831  140.8322  159.7584 H   0  0  0  0  0  0  0  0  0  0  0  0
  151.3046  139.7970  155.4020 H   0  0  0  0  0  0  0  0  0  0  0  0
  149.0304  142.7368  155.9635 H   0  0  0  0  0  0  0  0  0  0  0  0
  150.2637  142.7832  154.7259 H   0  0  0  0  0  0  0  0  0  0  0  0
  148.8246  140.1759  155.3295 H   0  0  0  0  0  0  0  0  0  0  0  0
  149.2970  139.9848  153.0310 H   0  0  0  0  0  0  0  0  0  0  0  0
  147.8347  141.9930  153.0932 H   0  0  0  0  0  0  0  0  0  0  0  0
  147.0278  140.6546  153.8695 H   0  0  0  0  0  0  0  0  0  0  0  0
  145.7874  143.4058  153.4626 H   0  0  0  0  0  0  0  0  0  0  0  0
  144.9931  142.0857  154.2996 H   0  0  0  0  0  0  0  0  0  0  0  0
  145.6362  144.8537  155.4751 H   0  0  0  0  0  0  0  0  0  0  0  0
  144.0473  144.2491  155.0479 H   0  0  0  0  0  0  0  0  0  0  0  0
  146.7824  143.8576  157.3279 H   0  0  0  0  0  0  0  0  0  0  0  0
  146.8253  142.1365  159.1424 H   0  0  0  0  0  0  0  0  0  0  0  0
  145.2348  141.5641  158.6416 H   0  0  0  0  0  0  0  0  0  0  0  0
  145.4223  143.1899  159.2930 H   0  0  0  0  0  0  0  0  0  0  0  0
  146.2128  141.0172  156.3055 H   0  0  0  0  0  0  0  0  0  0  0  0
  147.7867  141.6618  156.7402 H   0  0  0  0  0  0  0  0  0  0  0  0
  150.0336  143.9966  157.8501 H   0  0  0  0  0  0  0  0  0  0  0  0
  150.2813  145.4682  159.6763 H   0  0  0  0  0  0  0  0  0  0  0  0
  151.8701  145.4822  160.4385 H   0  0  0  0  0  0  0  0  0  0  0  0
  150.5227  144.6311  161.2090 H   0  0  0  0  0  0  0  0  0  0  0  0
  147.5674  143.2744  155.0414 H   0  0  0  0  0  0  0  0  0  0  0  0
  1  2  1  0  0  0  0
  1 23  1  0  0  0  0
  1 24  1  0  0  0  0
  1 25  1  0  0  0  0
  2 21  1  0  0  0  0
  2  3  2  0  0  0  0
  3  4  1  0  0  0  0
  3 26  1  0  0  0  0
  4 19  2  0  0  0  0
  4  5  1  0  0  0  0
  5  6  2  0  0  0  0
  6  7  1  0  0  0  0
  6 27  1  0  0  0  0
  7  8  1  0  0  0  0
  7 19  1  0  0  0  0
  8  9  1  0  0  0  0
  8 28  1  0  0  0  0
  8 29  1  0  0  0  0
  9 10  1  0  0  0  0
  9 11  1  0  0  0  0
  9 30  1  0  0  0  0
 10 31  1  0  0  0  0
 11 12  1  0  0  0  0
 11 32  1  0  0  0  0
 11 33  1  0  0  0  0
 12 18  1  0  0  0  0
 12 13  1  0  0  0  0
 12 48  1  0  0  0  0
 13 14  1  0  0  0  0
 13 34  1  0  0  0  0
 13 35  1  0  0  0  0
 14 15  1  0  0  0  0
 14 36  1  0  0  0  0
 14 37  1  0  0  0  0
 15 16  1  0  0  0  0
 16 17  1  0  0  0  0
 16 18  1  0  0  0  0
 16 38  1  0  0  0  0
 17 39  1  0  0  0  0
 17 40  1  0  0  0  0
 17 41  1  0  0  0  0
 18 42  1  0  0  0  0
 18 43  1  0  0  0  0
 19 20  1  0  0  0  0
 20 21  2  0  0  0  0
 20 44  1  0  0  0  0
 21 22  1  0  0  0  0
 22 45  1  0  0  0  0
 22 46  1  0  0  0  0
 22 47  1  0  0  0  0
M  CHG  1  12   1
M  END
> <s_m_source_file>
AV-unprocessed.smi

> <i_m_source_file_index>
1554

> <i_lp_mmshare_version>
43012

> <i_f3d_flags>
0

> <s_epik_input>
W0NIM11jKFtjSF0xKWMoW0NIM10pW2NIXWMoYzEyKW4oW2NIXW4yKVtDSDJdW0NASF0oW09IXSlbQ0gyXU4zW0NIMl1bQ0gyXU9bQ0BASF0oW0NIM10pW0NIMl0z

> <s_epik_cmdline>
J2VwaWtfcHl0aG9uJywgJy1waCcsICc3LjAnLCAnLXRuJywgJzgnLCAnLW1hJywgJzIwMCcsICctbWV0YWxfYmluZGluZycsICctaW1hZScsICc8aW5maWxlLm1hZT4nLCAnLW9tYWUnLCAnPG91dGZpbGUubWFlPic=

> <r_epik_Ionization_Penalty>
0.695251

> <r_epik_Ionization_Penalty_Charging>
0.608065

> <r_epik_Ionization_Penalty_Neutral>
0.0871863

> <r_epik_State_Penalty>
0.731955

> <r_epik_Charging_Adjusted_Penalty>
1.34002

> <i_epik_Tot_Q>
1

> <i_epik_Tot_abs_Q>
1

> <r_epik_Metal_State_Penalty>
0.652186

> <b_epik_Metal_Only>
0

> <s_lp_Force_Field>
OPLS_2005

> <r_lp_Energy>
20.8571

> <b_lp_Chiralities_Consistent>
1

> <s_lp_Variant>
AV-unprocessed.smi:1554-5

> <Gold.Version>
5.8.1

> <Gold.Id.Protein>
6NUR|6NUR_protein|mol2

> <Gold.PLP.Fitness>
58.1144

> <Gold.PLP.PLP>
-45.5991

> <Gold.PLP.part.hbond>
-4.0417

> <Gold.PLP.part.metal>
0.0000

> <Gold.PLP.part.buried>
-2.7788

> <Gold.PLP.part.nonpolar>
-36.7070

> <Gold.PLP.part.repulsive>
0.1860

> <Gold.PLP.ligand.clash>
0.0000

> <Gold.PLP.ligand.torsion>
0.8177

> <Gold.PLP.Chemscore.Hbond>
4.7103

> <Gold.PLP.Chemscore.CHOScore>
0.0000

> <Gold.PLP.Chemscore.Metal>
0.0000

> <Gold.Chemscore.Hbonds>
donor molecule, donor type, donor heavy atom, donor atom, acceptor molecule, acceptor atom, score
      L1  H    10    31       P1  7957  0.37
      L1  H    12    48       P1  8028  2.00
      P1  H  7989  7998       L1    10  0.50
      P1  H  7997  8009       L1     5  0.55
      P1  H  8011  8017       L1    10  0.41

> <Gold.PLP.Chemscore.Internal.Correction>
0.0199

> <Gold.Rescore>
     Score         DG    S(hbond)    S(metal)    S(lipo)     H(rot)  DE(clash)    DE(int)     intcor
     18.06     -20.39       1.97        0.00     116.15       2.05       1.47       0.86       ----

> <Gold.Chemscore.Fitness>
18.0638

> <Gold.Chemscore.DG>
-20.3882

> <Gold.Chemscore.ZeroCoef>
-5.4800

> <Gold.Chemscore.Hbond>
1.9694

> <Gold.Chemscore.Metal>
0.0000

> <Gold.Chemscore.Lipo>
116.1549

> <Gold.Chemscore.Internal_Hbond>
0.0000

> <Gold.Chemscore.DEClash>
1.4677

> <Gold.Chemscore.DEInternal>
0.8567

> <Gold.Chemscore.Rot>
2.0546

> <Gold.Chemscore.Internal.Correction>
   9.000000E+99

> <Gold.Chemscore.Hbonds>
donor molecule, donor type, donor heavy atom, donor atom, acceptor molecule, acceptor atom, score
      L1  H    10    31       P1  7957  0.36
      L1  H    12    48       P1  8028  0.29
      P1  H  7989  7998       L1    10  0.50
      P1  H  7997  8009       L1     5  0.32
      P1  H  8011  8017       L1    10  0.02

> <Gold.Chemscore.Hbond.Weighted>
-6.5777

> <Gold.Chemscore.Metal.Weighted>
-0.0000

> <Gold.Chemscore.Lipo.Weighted>
-13.5901

> <Gold.Chemscore.Internal_Hbond.Weighted>
0.0000

> <Gold.Chemscore.DEClash.Weighted>
1.4677

> <Gold.Chemscore.DEInternal.Weighted>
0.8567

> <Gold.Chemscore.Rot.Weighted>
5.2597

> <Gold.Chemscore.Internal.Correction.Weighted>
   9.000000E+99

> <Gold.Protein.RotatedTorsions>
[ 6907 6896 6895 6894 ] final  -94.06 input  -60.11 | X-H torsion
[ 7974 7965 7964 7962 ] final -169.83 input  175.53 | X-H torsion
[ 8008 7997 7996 7995 ] final -178.41 input   59.86 | X-H torsion
[ 10167 10162 10161 10158 ] final   41.88 input  -65.29 | X-H torsion
[ 10718 10713 10712 10709 ] final  139.86 input   66.30 | X-H torsion
[ 10763 10752 10751 10750 ] final -161.12 input  -60.55 | X-H torsion
[ 11005 11000 10999 10996 ] final  -28.98 input  -57.11 | X-H torsion

> <Gold.Protein.ActiveResidues>
 VAL166  LYS551  ARG553  GLY616  TRP617  ASP618  TYR619  PRO620  LYS621  CYS622 
 ASP623  PHE694  ASN695  SER759  ASP760  ASP761  ALA762  ILE779  LEU786  VAL792 
 PHE793  MET794  SER795  GLU796  ALA797  LYS798  CYS799  TRP800  GLU811  SER814 

> <Gold.Protein.RotatedAtoms>
  150.6934  134.1871  159.4270 H   0  0  0  0  0  0  0  0  0  0  0  0  # atno 6907 bound_to 6896
  151.9843  135.0010  160.0568 H   0  0  0  0  0  0  0  0  0  0  0  0  # atno 6908 bound_to 6896
  152.1726  133.4619  159.4954 H   0  0  0  0  0  0  0  0  0  0  0  0  # atno 6909 bound_to 6896
  144.7179  140.2162  143.6321 H   0  0  0  0  0  0  0  0  0  0  0  0  # atno 7974 bound_to 7965
  156.0185  140.1256  157.0382 H   0  0  0  0  0  0  0  0  0  0  0  0  # atno 8008 bound_to 7997
  154.4302  140.1073  156.6000 H   0  0  0  0  0  0  0  0  0  0  0  0  # atno 8009 bound_to 7997
  155.5979  140.3470  155.4587 H   0  0  0  0  0  0  0  0  0  0  0  0  # atno 8010 bound_to 7997
  140.3599  144.2241  150.6139 H   0  0  0  0  0  0  0  0  0  0  0  0  # atno 10167 bound_to 10162
  157.4097  131.1026  151.0467 H   0  0  0  0  0  0  0  0  0  0  0  0  # atno 10718 bound_to 10713
  154.7332  135.3051  154.8857 H   0  0  0  0  0  0  0  0  0  0  0  0  # atno 10763 bound_to 10752
  153.9693  135.6743  153.4751 H   0  0  0  0  0  0  0  0  0  0  0  0  # atno 10764 bound_to 10752
  153.0937  135.4946  154.8661 H   0  0  0  0  0  0  0  0  0  0  0  0  # atno 10765 bound_to 10752
  140.9256  133.7371  156.0862 H   0  0  0  0  0  0  0  0  0  0  0  0  # atno 11005 bound_to 11000
  145.8544  139.2191  143.1753 LP  0  0  0  0  0  0  0  0  0  0  0  0  # atno 17320 bound_to 7965
  146.0231  140.8329  142.9913 LP  0  0  0  0  0  0  0  0  0  0  0  0  # atno 17321 bound_to 7965
  140.5137  143.2284  151.8496 LP  0  0  0  0  0  0  0  0  0  0  0  0  # atno 17342 bound_to 10162
  139.4815  144.4920  151.9173 LP  0  0  0  0  0  0  0  0  0  0  0  0  # atno 17343 bound_to 10162
  157.1436  130.6154  149.5562 LP  0  0  0  0  0  0  0  0  0  0  0  0  # atno 17370 bound_to 10713
  155.9847  130.4873  150.6995 LP  0  0  0  0  0  0  0  0  0  0  0  0  # atno 17371 bound_to 10713
  140.7931  134.3595  157.5459 LP  0  0  0  0  0  0  0  0  0  0  0  0  # atno 17394 bound_to 11000
  139.8784  134.9152  156.3125 LP  0  0  0  0  0  0  0  0  0  0  0  0  # atno 17395 bound_to 11000

$$$$
