AV-unprocessed.smi:2061|AV-procd|sdf|8392|dock2
  -GOLD-   2272011 73D 1   1.00000     0.00000
 Structure written by MMmdl.
 45 46  0  0  0  0  0  0  0  0  3 V2000
  152.8160  142.4902  161.1360 C   0  0  0  0  0  0  0  0  0  0  0  0
  152.0631  142.2458  159.8727 C   0  0  0  0  0  0  0  0  0  0  0  0
  152.3833  141.5985  158.7127 C   0  0  0  0  0  0  0  0  0  0  0  0
  151.2062  141.7391  157.9307 C   0  0  0  0  0  0  0  0  0  0  0  0
  151.1381  141.2027  156.6178 N   0  0  0  0  0  0  0  0  0  0  0  0
  151.8185  140.1634  156.1027 C   0  0  0  0  0  0  0  0  0  0  0  0
  152.7219  139.6253  156.7539 O   0  0  0  0  0  0  0  0  0  0  0  0
  151.3797  139.8184  154.8602 N   0  5  0  0  0  0  0  0  0  0  0  0
  150.2953  138.8691  154.5841 C   0  0  0  0  0  0  0  0  0  0  0  0
  149.1859  139.4983  153.6947 C   0  0  2  0  0  0  0  0  0  0  0  0
  148.7566  140.9239  154.1227 C   0  0  0  0  0  0  0  0  0  0  0  0
  148.0496  138.5438  153.4919 N   0  3  1  0  0  0  0  0  0  0  0  0
  147.4904  137.8949  154.7063 C   0  0  0  0  0  0  0  0  0  0  0  0
  146.5462  136.7544  154.2942 C   0  0  1  0  0  0  0  0  0  0  0  0
  145.8990  136.0771  155.5068 C   0  0  0  0  0  0  0  0  0  0  0  0
  145.5066  137.2848  153.4745 O   0  0  0  0  0  0  0  0  0  0  0  0
  145.9536  137.9489  152.2910 C   0  0  2  0  0  0  0  0  0  0  0  0
  146.4887  136.9590  151.2409 C   0  0  0  0  0  0  0  0  0  0  0  0
  146.9541  139.0689  152.6426 C   0  0  0  0  0  0  0  0  0  0  0  0
  150.2563  142.4206  158.5545 N   0  0  0  0  0  0  0  0  0  0  0  0
  150.7993  142.7454  159.8030 O   0  0  0  0  0  0  0  0  0  0  0  0
  153.7711  142.9730  160.9288 H   0  0  0  0  0  0  0  0  0  0  0  0
  153.0163  141.5516  161.6528 H   0  0  0  0  0  0  0  0  0  0  0  0
  152.2524  143.1339  161.8119 H   0  0  0  0  0  0  0  0  0  0  0  0
  153.3101  141.1030  158.4656 H   0  0  0  0  0  0  0  0  0  0  0  0
  150.4585  141.6300  156.0063 H   0  0  0  0  0  0  0  0  0  0  0  0
  150.6780  137.9791  154.0846 H   0  0  0  0  0  0  0  0  0  0  0  0
  149.8357  138.4986  155.5017 H   0  0  0  0  0  0  0  0  0  0  0  0
  149.6647  139.6327  152.7237 H   0  0  0  0  0  0  0  0  0  0  0  0
  149.6018  141.6145  154.1269 H   0  0  0  0  0  0  0  0  0  0  0  0
  148.3121  140.9536  155.1190 H   0  0  0  0  0  0  0  0  0  0  0  0
  148.0263  141.3334  153.4244 H   0  0  0  0  0  0  0  0  0  0  0  0
  148.2907  137.4899  155.3252 H   0  0  0  0  0  0  0  0  0  0  0  0
  146.9523  138.6263  155.3108 H   0  0  0  0  0  0  0  0  0  0  0  0
  147.1044  135.9961  153.7443 H   0  0  0  0  0  0  0  0  0  0  0  0
  146.6549  135.6446  156.1629 H   0  0  0  0  0  0  0  0  0  0  0  0
  145.2328  135.2729  155.1937 H   0  0  0  0  0  0  0  0  0  0  0  0
  145.3132  136.7873  156.0912 H   0  0  0  0  0  0  0  0  0  0  0  0
  145.0704  138.4188  151.8574 H   0  0  0  0  0  0  0  0  0  0  0  0
  146.6974  137.4678  150.2997 H   0  0  0  0  0  0  0  0  0  0  0  0
  145.7578  136.1765  151.0364 H   0  0  0  0  0  0  0  0  0  0  0  0
  147.4133  136.4775  151.5575 H   0  0  0  0  0  0  0  0  0  0  0  0
  146.4459  139.8735  153.1762 H   0  0  0  0  0  0  0  0  0  0  0  0
  147.3566  139.4997  151.7246 H   0  0  0  0  0  0  0  0  0  0  0  0
  148.4630  137.7926  152.9561 H   0  0  0  0  0  0  0  0  0  0  0  0
  1  2  1  0  0  0  0
  1 22  1  0  0  0  0
  1 23  1  0  0  0  0
  1 24  1  0  0  0  0
  2 21  1  0  0  0  0
  2  3  2  0  0  0  0
  3  4  1  0  0  0  0
  3 25  1  0  0  0  0
  4  5  1  0  0  0  0
  4 20  2  0  0  0  0
  5  6  1  0  0  0  0
  5 26  1  0  0  0  0
  6  7  2  0  0  0  0
  6  8  1  0  0  0  0
  8  9  1  0  0  0  0
  9 10  1  0  0  0  0
  9 27  1  0  0  0  0
  9 28  1  0  0  0  0
 10 11  1  0  0  0  0
 10 12  1  0  0  0  0
 10 29  1  0  0  0  0
 11 30  1  0  0  0  0
 11 31  1  0  0  0  0
 11 32  1  0  0  0  0
 12 19  1  0  0  0  0
 12 13  1  0  0  0  0
 12 45  1  0  0  0  0
 13 14  1  0  0  0  0
 13 33  1  0  0  0  0
 13 34  1  0  0  0  0
 14 15  1  0  0  0  0
 14 16  1  0  0  0  0
 14 35  1  0  0  0  0
 15 36  1  0  0  0  0
 15 37  1  0  0  0  0
 15 38  1  0  0  0  0
 16 17  1  0  0  0  0
 17 18  1  0  0  0  0
 17 19  1  0  0  0  0
 17 39  1  0  0  0  0
 18 40  1  0  0  0  0
 18 41  1  0  0  0  0
 18 42  1  0  0  0  0
 19 43  1  0  0  0  0
 19 44  1  0  0  0  0
 20 21  1  0  0  0  0
M  CHG  1   8  -1
M  CHG  1  12   1
M  END
> <s_m_source_file>
AV-unprocessed.smi

> <i_m_source_file_index>
2061

> <i_lp_mmshare_version>
43012

> <i_f3d_flags>
0

> <s_epik_input>
W0NIM11jMVtjSF1jKG5vMSlbTkhdQyg9TylbTkhdW0NIMl1bQ0BIXShbQ0gzXSlOMltDSDJdW0NAQEhdKFtDSDNdKU9bQ0BASF0oW0NIM10pW0NIMl0y

> <s_epik_cmdline>
J2VwaWtfcHl0aG9uJywgJy1waCcsICc3LjAnLCAnLXRuJywgJzgnLCAnLW1hJywgJzIwMCcsICctbWV0YWxfYmluZGluZycsICctaW1hZScsICc8aW5maWxlLm1hZT4nLCAnLW9tYWUnLCAnPG91dGZpbGUubWFlPic=

> <r_epik_Ionization_Penalty>
6.8073

> <r_epik_Ionization_Penalty_Charging>
6.80729

> <r_epik_Ionization_Penalty_Neutral>
5.65391e-06

> <r_epik_State_Penalty>
7.47323

> <r_epik_Charging_Adjusted_Penalty>
14.2805

> <i_epik_Tot_Q>
0

> <i_epik_Tot_abs_Q>
2

> <r_epik_Metal_State_Penalty>
3.40035

> <b_epik_Metal_Only>
1

> <s_lp_Force_Field>
OPLS_2005

> <r_lp_Energy>
16.7719

> <b_lp_Chiralities_Consistent>
1

> <s_lp_Variant>
AV-unprocessed.smi:2061-33

> <Gold.Version>
5.8.1

> <Gold.Id.Protein>
6NUR|6NUR_protein|mol2

> <Gold.PLP.Fitness>
41.3582

> <Gold.PLP.PLP>
-31.3714

> <Gold.PLP.part.hbond>
-4.6028

> <Gold.PLP.part.metal>
0.0000

> <Gold.PLP.part.buried>
3.1616

> <Gold.PLP.part.nonpolar>
-30.7069

> <Gold.PLP.part.repulsive>
0.4433

> <Gold.PLP.ligand.clash>
0.0000

> <Gold.PLP.ligand.torsion>
1.1280

> <Gold.PLP.Chemscore.Hbond>
4.0000

> <Gold.PLP.Chemscore.CHOScore>
0.0000

> <Gold.PLP.Chemscore.Metal>
0.0000

> <Gold.Chemscore.Hbonds>
donor molecule, donor type, donor heavy atom, donor atom, acceptor molecule, acceptor atom, score
      L1  H    12    45       P1  7948  2.00
      P1  H  7989  7998       L1     8  1.00
      P1  H  7997  8008       L1     7  1.00

> <Gold.PLP.Chemscore.Internal.Correction>
0.2428

> <Gold.Rescore>
     Score         DG    S(hbond)    S(metal)    S(lipo)     H(rot)  DE(clash)    DE(int)     intcor
     15.22     -20.59       2.83        0.00      82.30       1.56       2.89       2.48       ----

> <Gold.Chemscore.Fitness>
15.2177

> <Gold.Chemscore.DG>
-20.5908

> <Gold.Chemscore.ZeroCoef>
-5.4800

> <Gold.Chemscore.Hbond>
2.8331

> <Gold.Chemscore.Metal>
0.0000

> <Gold.Chemscore.Lipo>
82.2985

> <Gold.Chemscore.Internal_Hbond>
0.0000

> <Gold.Chemscore.DEClash>
2.8915

> <Gold.Chemscore.DEInternal>
2.4816

> <Gold.Chemscore.Rot>
1.5550

> <Gold.Chemscore.Internal.Correction>
   9.000000E+99

> <Gold.Chemscore.Hbonds>
donor molecule, donor type, donor heavy atom, donor atom, acceptor molecule, acceptor atom, score
      L1  H    12    45       P1  7948  0.99
      P1  H  7989  7998       L1     8  0.77
      P1  H  7997  8008       L1     7  0.98

> <Gold.Chemscore.Hbond.Weighted>
-9.4627

> <Gold.Chemscore.Metal.Weighted>
-0.0000

> <Gold.Chemscore.Lipo.Weighted>
-9.6289

> <Gold.Chemscore.Internal_Hbond.Weighted>
0.0000

> <Gold.Chemscore.DEClash.Weighted>
2.8915

> <Gold.Chemscore.DEInternal.Weighted>
2.4816

> <Gold.Chemscore.Rot.Weighted>
3.9809

> <Gold.Chemscore.Internal.Correction.Weighted>
   9.000000E+99

> <Gold.Protein.RotatedTorsions>
[ 6907 6896 6895 6894 ] final   58.01 input  -60.11 | X-H torsion
[ 7974 7965 7964 7962 ] final  177.23 input  175.53 | X-H torsion
[ 8008 7997 7996 7995 ] final  -56.13 input   59.86 | X-H torsion
[ 10167 10162 10161 10158 ] final   76.86 input  -65.29 | X-H torsion
[ 10718 10713 10712 10709 ] final -111.10 input   66.30 | X-H torsion
[ 10763 10752 10751 10750 ] final -138.08 input  -60.55 | X-H torsion
[ 11005 11000 10999 10996 ] final  -99.46 input  -57.11 | X-H torsion

> <Gold.Protein.ActiveResidues>
 VAL166  LYS551  ARG553  GLY616  TRP617  ASP618  TYR619  PRO620  LYS621  CYS622 
 ASP623  PHE694  ASN695  SER759  ASP760  ASP761  ALA762  ILE779  LEU786  VAL792 
 PHE793  MET794  SER795  GLU796  ALA797  LYS798  CYS799  TRP800  GLU811  SER814 

> <Gold.Protein.RotatedAtoms>
  152.3784  134.6628  160.0151 H   0  0  0  0  0  0  0  0  0  0  0  0  # atno 6907 bound_to 6896
  151.6899  133.3305  159.3248 H   0  0  0  0  0  0  0  0  0  0  0  0  # atno 6908 bound_to 6896
  150.7728  134.6644  159.6402 H   0  0  0  0  0  0  0  0  0  0  0  0  # atno 6909 bound_to 6896
  144.7172  140.0215  143.6440 H   0  0  0  0  0  0  0  0  0  0  0  0  # atno 7974 bound_to 7965
  154.4219  140.1137  156.5588 H   0  0  0  0  0  0  0  0  0  0  0  0  # atno 8008 bound_to 7997
  155.6333  140.3496  155.4671 H   0  0  0  0  0  0  0  0  0  0  0  0  # atno 8009 bound_to 7997
  155.9930  140.1183  157.0610 H   0  0  0  0  0  0  0  0  0  0  0  0  # atno 8010 bound_to 7997
  139.9877  144.5780  150.7845 H   0  0  0  0  0  0  0  0  0  0  0  0  # atno 10167 bound_to 10162
  156.0628  130.5850  150.8327 H   0  0  0  0  0  0  0  0  0  0  0  0  # atno 10718 bound_to 10713
  154.8646  135.3623  154.5328 H   0  0  0  0  0  0  0  0  0  0  0  0  # atno 10763 bound_to 10752
  153.5952  135.7014  153.5411 H   0  0  0  0  0  0  0  0  0  0  0  0  # atno 10764 bound_to 10752
  153.3338  135.4117  155.1478 H   0  0  0  0  0  0  0  0  0  0  0  0  # atno 10765 bound_to 10752
  141.1308  133.8323  157.0975 H   0  0  0  0  0  0  0  0  0  0  0  0  # atno 11005 bound_to 11000
  146.0176  139.3223  143.0832 LP  0  0  0  0  0  0  0  0  0  0  0  0  # atno 17320 bound_to 7965
  145.8606  140.9477  143.0702 LP  0  0  0  0  0  0  0  0  0  0  0  0  # atno 17321 bound_to 7965
  140.7466  143.2893  151.3374 LP  0  0  0  0  0  0  0  0  0  0  0  0  # atno 17342 bound_to 10162
  139.6363  144.0624  152.2518 LP  0  0  0  0  0  0  0  0  0  0  0  0  # atno 17343 bound_to 10162
  157.5648  131.0946  150.9505 LP  0  0  0  0  0  0  0  0  0  0  0  0  # atno 17370 bound_to 10713
  156.9735  130.5500  149.5292 LP  0  0  0  0  0  0  0  0  0  0  0  0  # atno 17371 bound_to 10713
  140.0354  134.9881  157.0861 LP  0  0  0  0  0  0  0  0  0  0  0  0  # atno 17394 bound_to 11000
  140.4219  134.1872  155.7165 LP  0  0  0  0  0  0  0  0  0  0  0  0  # atno 17395 bound_to 11000

$$$$
