AV-unprocessed.smi:2528|AV-procd|sdf|9956|dock5
  -GOLD-   2272013593D 1   1.00000     0.00000
 Structure written by MMmdl.
 43 45  0  0  0  0  0  0  0  0  1 V2000
  144.4136  136.6886  152.2786 O   0  0  0  0  0  0  0  0  0  0  0  0
  145.6019  136.6003  151.9678 C   0  0  0  0  0  0  0  0  0  0  0  0
  146.5004  137.5661  152.2077 N   0  0  0  0  0  0  0  0  0  0  0  0
  146.2071  138.8316  152.8728 C   0  0  0  0  0  0  0  0  0  0  0  0
  147.4792  139.6260  153.2219 C   0  0  2  0  0  0  0  0  0  0  0  0
  148.5220  138.7943  153.9964 C   0  0  0  0  0  0  0  0  0  0  0  0
  149.6749  139.5952  154.3893 N   0  0  0  0  0  0  0  0  0  0  0  0
  150.6458  138.7981  155.1374 C   0  0  0  0  0  0  0  0  0  0  0  0
  151.8884  139.6096  155.5378 C   0  0  0  0  0  0  0  0  0  0  0  0
  151.4785  140.8472  156.3485 C   0  0  0  0  0  0  0  0  0  0  0  0
  150.4206  141.6535  155.5796 C   0  0  0  0  0  0  0  0  0  0  0  0
  149.2346  140.7567  155.1681 C   0  0  1  0  0  0  0  0  0  0  0  0
  148.1814  141.5720  154.3913 C   0  0  0  0  0  0  0  0  0  0  0  0
  147.0901  140.7326  154.0297 O   0  0  0  0  0  0  0  0  0  0  0  0
  146.1705  135.5452  151.3581 N   0  0  0  0  0  0  0  0  0  0  0  0
  145.5538  134.3329  150.9477 C   0  0  0  0  0  0  0  0  0  0  0  0
  146.4435  133.3239  150.5135 C   0  0  0  0  0  0  0  0  0  0  0  0
  145.9298  132.0840  150.0866 C   0  0  0  0  0  0  0  0  0  0  0  0
  144.5378  131.8852  150.1027 C   0  0  0  0  0  0  0  0  0  0  0  0
  143.7222  132.9415  150.5480 C   0  0  0  0  0  0  0  0  0  0  0  0
  144.2124  134.1299  150.9586 N   0  0  0  0  0  0  0  0  0  0  0  0
  147.4561  137.4131  151.9208 H   0  0  0  0  0  0  0  0  0  0  0  0
  145.5517  139.4326  152.2402 H   0  0  0  0  0  0  0  0  0  0  0  0
  145.6433  138.6165  153.7809 H   0  0  0  0  0  0  0  0  0  0  0  0
  147.9277  140.0098  152.3037 H   0  0  0  0  0  0  0  0  0  0  0  0
  148.0535  138.3623  154.8821 H   0  0  0  0  0  0  0  0  0  0  0  0
  148.8540  137.9578  153.3807 H   0  0  0  0  0  0  0  0  0  0  0  0
  150.1770  138.3903  156.0343 H   0  0  0  0  0  0  0  0  0  0  0  0
  150.9577  137.9433  154.5363 H   0  0  0  0  0  0  0  0  0  0  0  0
  152.5717  138.9897  156.1186 H   0  0  0  0  0  0  0  0  0  0  0  0
  152.4297  139.9180  154.6423 H   0  0  0  0  0  0  0  0  0  0  0  0
  151.0727  140.5358  157.3118 H   0  0  0  0  0  0  0  0  0  0  0  0
  152.3492  141.4680  156.5611 H   0  0  0  0  0  0  0  0  0  0  0  0
  150.0716  142.4832  156.1951 H   0  0  0  0  0  0  0  0  0  0  0  0
  150.8750  142.0951  154.6915 H   0  0  0  0  0  0  0  0  0  0  0  0
  148.7590  140.3981  156.0826 H   0  0  0  0  0  0  0  0  0  0  0  0
  147.8039  142.3907  155.0043 H   0  0  0  0  0  0  0  0  0  0  0  0
  148.6152  142.0182  153.4948 H   0  0  0  0  0  0  0  0  0  0  0  0
  147.1607  135.6128  151.1751 H   0  0  0  0  0  0  0  0  0  0  0  0
  147.5106  133.4933  150.5081 H   0  0  0  0  0  0  0  0  0  0  0  0
  146.5928  131.2996  149.7528 H   0  0  0  0  0  0  0  0  0  0  0  0
  144.1062  130.9485  149.7822 H   0  0  0  0  0  0  0  0  0  0  0  0
  142.6484  132.8301  150.5759 H   0  0  0  0  0  0  0  0  0  0  0  0
  1  2  2  0  0  0  0
  2  3  1  0  0  0  0
  2 15  1  0  0  0  0
  3  4  1  0  0  0  0
  3 22  1  0  0  0  0
  4  5  1  0  0  0  0
  4 23  1  0  0  0  0
  4 24  1  0  0  0  0
  5 14  1  0  0  0  0
  5  6  1  0  0  0  0
  5 25  1  0  0  0  0
  6  7  1  0  0  0  0
  6 26  1  0  0  0  0
  6 27  1  0  0  0  0
  7 12  1  0  0  0  0
  7  8  1  0  0  0  0
  8  9  1  0  0  0  0
  8 28  1  0  0  0  0
  8 29  1  0  0  0  0
  9 10  1  0  0  0  0
  9 30  1  0  0  0  0
  9 31  1  0  0  0  0
 10 11  1  0  0  0  0
 10 32  1  0  0  0  0
 10 33  1  0  0  0  0
 11 12  1  0  0  0  0
 11 34  1  0  0  0  0
 11 35  1  0  0  0  0
 12 13  1  0  0  0  0
 12 36  1  0  0  0  0
 13 14  1  0  0  0  0
 13 37  1  0  0  0  0
 13 38  1  0  0  0  0
 15 16  1  0  0  0  0
 15 39  1  0  0  0  0
 16 21  1  0  0  0  0
 16 17  2  0  0  0  0
 17 18  1  0  0  0  0
 17 40  1  0  0  0  0
 18 19  2  0  0  0  0
 18 41  1  0  0  0  0
 19 20  1  0  0  0  0
 19 42  1  0  0  0  0
 20 21  2  0  0  0  0
 20 43  1  0  0  0  0
M  END
> <s_m_source_file>
AV-unprocessed.smi

> <i_m_source_file_index>
2528

> <i_lp_mmshare_version>
43012

> <i_f3d_flags>
0

> <s_epik_input>
bjFbY0hdW2NIXVtjSF1bY0hdYzFbTkhdQyg9TylbTkhdW0NIMl1bQ0BIXShbQ0gyXTIpT1tDSDJdW0NAQEhdKE4yMylbQ0gyXVtDSDJdW0NIMl1bQ0gyXTM=

> <s_epik_cmdline>
J2VwaWtfcHl0aG9uJywgJy1waCcsICc3LjAnLCAnLXRuJywgJzgnLCAnLW1hJywgJzIwMCcsICctbWV0YWxfYmluZGluZycsICctaW1hZScsICc8aW5maWxlLm1hZT4nLCAnLW9tYWUnLCAnPG91dGZpbGUubWFlPic=

> <r_epik_Ionization_Penalty>
1.14192

> <r_epik_Ionization_Penalty_Charging>
0

> <r_epik_Ionization_Penalty_Neutral>
1.14192

> <r_epik_State_Penalty>
1.20248

> <r_epik_Charging_Adjusted_Penalty>
1.20248

> <i_epik_Tot_Q>
0

> <i_epik_Tot_abs_Q>
0

> <r_epik_Metal_State_Penalty>
1.20248

> <b_epik_Metal_Only>
0

> <s_lp_Force_Field>
OPLS_2005

> <r_lp_Energy>
34.3645

> <b_lp_Chiralities_Consistent>
1

> <s_lp_Variant>
AV-unprocessed.smi:2528-9

> <Gold.Version>
5.8.1

> <Gold.Id.Protein>
6NUR|6NUR_protein|mol2

> <Gold.PLP.Fitness>
46.5413

> <Gold.PLP.PLP>
-37.9978

> <Gold.PLP.part.hbond>
-2.0000

> <Gold.PLP.part.metal>
0.0000

> <Gold.PLP.part.buried>
-3.3581

> <Gold.PLP.part.nonpolar>
-33.6669

> <Gold.PLP.part.repulsive>
0.7574

> <Gold.PLP.ligand.clash>
0.0000

> <Gold.PLP.ligand.torsion>
0.0998

> <Gold.PLP.Chemscore.Hbond>
1.9920

> <Gold.PLP.Chemscore.CHOScore>
0.9223

> <Gold.PLP.Chemscore.Metal>
0.0000

> <Gold.Chemscore.Hbonds>
donor molecule, donor type, donor heavy atom, donor atom, acceptor molecule, acceptor atom, score
      L1  H     3    22       P1  7948  0.98
      L1  H    15    39       P1  7948  0.96
      L1  C    20    43       P1 10186  0.91

> <Gold.PLP.Chemscore.Internal.Correction>
0.0003

> <Gold.Rescore>
     Score         DG    S(hbond)    S(metal)    S(lipo)     H(rot)  DE(clash)    DE(int)     intcor
     18.04     -19.47       1.92        0.00      92.69       1.27       0.04       1.40       ----

> <Gold.Chemscore.Fitness>
18.0412

> <Gold.Chemscore.DG>
-19.4729

> <Gold.Chemscore.ZeroCoef>
-5.4800

> <Gold.Chemscore.Hbond>
1.9156

> <Gold.Chemscore.Metal>
0.0000

> <Gold.Chemscore.Lipo>
92.6917

> <Gold.Chemscore.Internal_Hbond>
0.0000

> <Gold.Chemscore.DEClash>
0.0368

> <Gold.Chemscore.DEInternal>
1.3950

> <Gold.Chemscore.Rot>
1.2696

> <Gold.Chemscore.Internal.Correction>
   9.000000E+99

> <Gold.Chemscore.Hbonds>
donor molecule, donor type, donor heavy atom, donor atom, acceptor molecule, acceptor atom, score
      L1  H     3    22       P1  7948  0.93
      L1  H    15    39       P1  7948  0.82

> <Gold.Chemscore.Hbond.Weighted>
-6.3982

> <Gold.Chemscore.Metal.Weighted>
-0.0000

> <Gold.Chemscore.Lipo.Weighted>
-10.8449

> <Gold.Chemscore.Internal_Hbond.Weighted>
0.0000

> <Gold.Chemscore.DEClash.Weighted>
0.0368

> <Gold.Chemscore.DEInternal.Weighted>
1.3950

> <Gold.Chemscore.Rot.Weighted>
3.2502

> <Gold.Chemscore.Internal.Correction.Weighted>
   9.000000E+99

> <Gold.Protein.RotatedTorsions>
[ 6907 6896 6895 6894 ] final    1.21 input  -60.11 | X-H torsion
[ 7974 7965 7964 7962 ] final  -81.78 input  175.53 | X-H torsion
[ 8008 7997 7996 7995 ] final  135.98 input   59.86 | X-H torsion
[ 10167 10162 10161 10158 ] final  138.66 input  -65.29 | X-H torsion
[ 10718 10713 10712 10709 ] final  102.78 input   66.30 | X-H torsion
[ 10763 10752 10751 10750 ] final  141.79 input  -60.55 | X-H torsion
[ 11005 11000 10999 10996 ] final   79.01 input  -57.11 | X-H torsion

> <Gold.Protein.ActiveResidues>
 VAL166  LYS551  ARG553  GLY616  TRP617  ASP618  TYR619  PRO620  LYS621  CYS622 
 ASP623  PHE694  ASN695  SER759  ASP760  ASP761  ALA762  ILE779  LEU786  VAL792 
 PHE793  MET794  SER795  GLU796  ALA797  LYS798  CYS799  TRP800  GLU811  SER814 

> <Gold.Protein.RotatedAtoms>
  151.5889  135.1054  160.0034 H   0  0  0  0  0  0  0  0  0  0  0  0  # atno 6907 bound_to 6896
  152.4316  133.7284  159.6584 H   0  0  0  0  0  0  0  0  0  0  0  0  # atno 6908 bound_to 6896
  150.8209  133.8183  159.3162 H   0  0  0  0  0  0  0  0  0  0  0  0  # atno 6909 bound_to 6896
  145.5420  140.9508  143.1546 H   0  0  0  0  0  0  0  0  0  0  0  0  # atno 7974 bound_to 7965
  156.3004  140.2457  156.3671 H   0  0  0  0  0  0  0  0  0  0  0  0  # atno 8008 bound_to 7997
  154.8823  140.0412  157.1809 H   0  0  0  0  0  0  0  0  0  0  0  0  # atno 8009 bound_to 7997
  154.8683  140.2931  155.5501 H   0  0  0  0  0  0  0  0  0  0  0  0  # atno 8010 bound_to 7997
  139.5103  144.6340  151.5744 H   0  0  0  0  0  0  0  0  0  0  0  0  # atno 10167 bound_to 10162
  157.6792  131.0762  150.5455 H   0  0  0  0  0  0  0  0  0  0  0  0  # atno 10718 bound_to 10713
  153.9451  135.2976  155.3441 H   0  0  0  0  0  0  0  0  0  0  0  0  # atno 10763 bound_to 10752
  154.7456  135.5004  153.9201 H   0  0  0  0  0  0  0  0  0  0  0  0  # atno 10764 bound_to 10752
  153.1022  135.6737  153.9759 H   0  0  0  0  0  0  0  0  0  0  0  0  # atno 10765 bound_to 10752
  139.9189  134.7809  156.1723 H   0  0  0  0  0  0  0  0  0  0  0  0  # atno 11005 bound_to 11000
  144.7572  139.7045  143.7249 LP  0  0  0  0  0  0  0  0  0  0  0  0  # atno 17320 bound_to 7965
  146.1974  139.5249  142.9765 LP  0  0  0  0  0  0  0  0  0  0  0  0  # atno 17321 bound_to 7965
  140.6083  143.9484  150.6434 LP  0  0  0  0  0  0  0  0  0  0  0  0  # atno 17342 bound_to 10162
  140.2718  143.3450  152.1231 LP  0  0  0  0  0  0  0  0  0  0  0  0  # atno 17343 bound_to 10162
  156.5761  130.4292  149.5998 LP  0  0  0  0  0  0  0  0  0  0  0  0  # atno 17370 bound_to 10713
  156.2700  130.7011  151.1806 LP  0  0  0  0  0  0  0  0  0  0  0  0  # atno 17371 bound_to 10713
  141.0693  133.6804  156.2107 LP  0  0  0  0  0  0  0  0  0  0  0  0  # atno 17394 bound_to 11000
  140.6534  134.5043  157.5579 LP  0  0  0  0  0  0  0  0  0  0  0  0  # atno 17395 bound_to 11000

$$$$
