AV-unprocessed.smi:2079|AV-procd|sdf|8485|dock9
  -GOLD-   2272011193D 1   1.00000     0.00000
 Structure written by MMmdl.
 41 42  0  0  0  0  0  0  0  0  3 V2000
  151.4068  143.4064  158.6873 C   0  0  0  0  0  0  0  0  0  0  0  0
  151.2704  142.2774  157.7243 C   0  0  0  0  0  0  0  0  0  0  0  0
  151.3977  140.9231  157.8539 C   0  0  0  0  0  0  0  0  0  0  0  0
  151.1289  140.4481  156.5424 C   0  0  0  0  0  0  0  0  0  0  0  0
  151.1597  139.0576  156.2553 N   0  0  0  0  0  0  0  0  0  0  0  0
  152.0663  138.3644  155.5423 C   0  0  0  0  0  0  0  0  0  0  0  0
  153.0432  138.9384  155.0460 O   0  0  0  0  0  0  0  0  0  0  0  0
  151.7607  137.0391  155.4677 N   0  5  0  0  0  0  0  0  0  0  0  0
  150.4089  136.5009  155.3238 C   0  0  0  0  0  0  0  0  0  0  0  0
  150.4593  135.0537  154.7922 C   0  0  0  0  0  0  0  0  0  0  0  0
  149.1783  134.6535  154.1492 N   0  3  2  0  0  0  0  0  0  0  0  0
  147.9717  134.8761  154.9977 C   0  0  0  0  0  0  0  0  0  0  0  0
  146.6825  134.6685  154.1860 C   0  0  0  0  0  0  0  0  0  0  0  0
  146.6532  133.2795  153.5359 C   0  0  0  0  0  0  0  0  0  0  0  0
  147.9255  133.0579  152.7039 C   0  0  0  0  0  0  0  0  0  0  0  0
  149.2076  133.2947  153.5295 C   0  0  2  0  0  0  0  0  0  0  0  0
  149.4692  132.1633  154.5478 C   0  0  0  0  0  0  0  0  0  0  0  0
  150.8653  141.4265  155.6889 N   0  0  0  0  0  0  0  0  0  0  0  0
  150.9537  142.6032  156.4419 O   0  0  0  0  0  0  0  0  0  0  0  0
  151.8248  143.0630  159.6337 H   0  0  0  0  0  0  0  0  0  0  0  0
  150.4361  143.8589  158.8899 H   0  0  0  0  0  0  0  0  0  0  0  0
  152.0642  144.1786  158.2879 H   0  0  0  0  0  0  0  0  0  0  0  0
  151.6407  140.3635  158.7450 H   0  0  0  0  0  0  0  0  0  0  0  0
  150.3905  138.5191  156.6254 H   0  0  0  0  0  0  0  0  0  0  0  0
  149.8856  136.5068  156.2800 H   0  0  0  0  0  0  0  0  0  0  0  0
  149.7935  137.1048  154.6552 H   0  0  0  0  0  0  0  0  0  0  0  0
  151.2671  134.9949  154.0612 H   0  0  0  0  0  0  0  0  0  0  0  0
  150.7160  134.3502  155.5861 H   0  0  0  0  0  0  0  0  0  0  0  0
  147.9904  134.2110  155.8613 H   0  0  0  0  0  0  0  0  0  0  0  0
  147.9742  135.8913  155.3952 H   0  0  0  0  0  0  0  0  0  0  0  0
  145.8117  134.7975  154.8294 H   0  0  0  0  0  0  0  0  0  0  0  0
  146.6117  135.4349  153.4130 H   0  0  0  0  0  0  0  0  0  0  0  0
  146.5682  132.5121  154.3055 H   0  0  0  0  0  0  0  0  0  0  0  0
  145.7699  133.1805  152.9044 H   0  0  0  0  0  0  0  0  0  0  0  0
  147.9265  132.0528  152.2806 H   0  0  0  0  0  0  0  0  0  0  0  0
  147.9167  133.7428  151.8547 H   0  0  0  0  0  0  0  0  0  0  0  0
  150.0392  133.2861  152.8231 H   0  0  0  0  0  0  0  0  0  0  0  0
  149.5181  131.1978  154.0439 H   0  0  0  0  0  0  0  0  0  0  0  0
  148.6870  132.0927  155.3027 H   0  0  0  0  0  0  0  0  0  0  0  0
  150.4170  132.2977  155.0687 H   0  0  0  0  0  0  0  0  0  0  0  0
  149.0828  135.2878  153.3689 H   0  0  0  0  0  0  0  0  0  0  0  0
  1  2  1  0  0  0  0
  1 20  1  0  0  0  0
  1 21  1  0  0  0  0
  1 22  1  0  0  0  0
  2 19  1  0  0  0  0
  2  3  2  0  0  0  0
  3  4  1  0  0  0  0
  3 23  1  0  0  0  0
  4  5  1  0  0  0  0
  4 18  2  0  0  0  0
  5  6  1  0  0  0  0
  5 24  1  0  0  0  0
  6  7  2  0  0  0  0
  6  8  1  0  0  0  0
  8  9  1  0  0  0  0
  9 10  1  0  0  0  0
  9 25  1  0  0  0  0
  9 26  1  0  0  0  0
 10 11  1  0  0  0  0
 10 27  1  0  0  0  0
 10 28  1  0  0  0  0
 11 16  1  0  0  0  0
 11 12  1  0  0  0  0
 11 41  1  0  0  0  0
 12 13  1  0  0  0  0
 12 29  1  0  0  0  0
 12 30  1  0  0  0  0
 13 14  1  0  0  0  0
 13 31  1  0  0  0  0
 13 32  1  0  0  0  0
 14 15  1  0  0  0  0
 14 33  1  0  0  0  0
 14 34  1  0  0  0  0
 15 16  1  0  0  0  0
 15 35  1  0  0  0  0
 15 36  1  0  0  0  0
 16 17  1  0  0  0  0
 16 37  1  0  0  0  0
 17 38  1  0  0  0  0
 17 39  1  0  0  0  0
 17 40  1  0  0  0  0
 18 19  1  0  0  0  0
M  CHG  1   8  -1
M  CHG  1  11   1
M  END
> <s_m_source_file>
AV-unprocessed.smi

> <i_m_source_file_index>
2079

> <i_lp_mmshare_version>
43012

> <i_f3d_flags>
0

> <s_epik_input>
W0NIM11jMVtjSF1jKG5vMSlbTkhdQyg9TylbTkhdW0NIMl1bQ0gyXU4yW0NIMl1bQ0gyXVtDSDJdW0NIMl1bQ0BIXTJbQ0gzXQ==

> <s_epik_cmdline>
J2VwaWtfcHl0aG9uJywgJy1waCcsICc3LjAnLCAnLXRuJywgJzgnLCAnLW1hJywgJzIwMCcsICctbWV0YWxfYmluZGluZycsICctaW1hZScsICc8aW5maWxlLm1hZT4nLCAnLW9tYWUnLCAnPG91dGZpbGUubWFlPic=

> <r_epik_Ionization_Penalty>
6.7666

> <r_epik_Ionization_Penalty_Charging>
6.7666

> <r_epik_Ionization_Penalty_Neutral>
5.77131e-06

> <r_epik_State_Penalty>
6.79217

> <r_epik_Charging_Adjusted_Penalty>
13.5588

> <i_epik_Tot_Q>
0

> <i_epik_Tot_abs_Q>
2

> <r_epik_Metal_State_Penalty>
2.72569

> <b_epik_Metal_Only>
1

> <s_lp_Force_Field>
OPLS_2005

> <r_lp_Energy>
14.7709

> <b_lp_Chiralities_Consistent>
1

> <s_lp_Variant>
AV-unprocessed.smi:2079-11

> <Gold.Version>
5.8.1

> <Gold.Id.Protein>
6NUR|6NUR_protein|mol2

> <Gold.PLP.Fitness>
42.1763

> <Gold.PLP.PLP>
-29.2022

> <Gold.PLP.part.hbond>
-3.9621

> <Gold.PLP.part.metal>
0.0000

> <Gold.PLP.part.buried>
-3.0489

> <Gold.PLP.part.nonpolar>
-22.4093

> <Gold.PLP.part.repulsive>
0.5463

> <Gold.PLP.ligand.clash>
0.0000

> <Gold.PLP.ligand.torsion>
1.2226

> <Gold.PLP.Chemscore.Hbond>
5.0967

> <Gold.PLP.Chemscore.CHOScore>
0.0000

> <Gold.PLP.Chemscore.Metal>
0.0000

> <Gold.Chemscore.Hbonds>
donor molecule, donor type, donor heavy atom, donor atom, acceptor molecule, acceptor atom, score
      L1  H    11    41       P1  7948  2.00
      P1  H  7989  7998       L1    18  0.08
      P1  H  7997  8010       L1     7  0.91
      P1  H 10752 10765       L1     8  1.89

> <Gold.PLP.Chemscore.Internal.Correction>
0.1291

> <Gold.Rescore>
     Score         DG    S(hbond)    S(metal)    S(lipo)     H(rot)  DE(clash)    DE(int)     intcor
     15.57     -17.17       2.65        0.00      58.06       1.54       0.38       1.22       ----

> <Gold.Chemscore.Fitness>
15.5667

> <Gold.Chemscore.DG>
-17.1675

> <Gold.Chemscore.ZeroCoef>
-5.4800

> <Gold.Chemscore.Hbond>
2.6463

> <Gold.Chemscore.Metal>
0.0000

> <Gold.Chemscore.Lipo>
58.0647

> <Gold.Chemscore.Internal_Hbond>
0.0000

> <Gold.Chemscore.DEClash>
0.3832

> <Gold.Chemscore.DEInternal>
1.2176

> <Gold.Chemscore.Rot>
1.5409

> <Gold.Chemscore.Internal.Correction>
   9.000000E+99

> <Gold.Chemscore.Hbonds>
donor molecule, donor type, donor heavy atom, donor atom, acceptor molecule, acceptor atom, score
      L1  H    11    41       P1  7948  0.40
      P1  H  7989  7998       L1    18  0.07
      P1  H  7997  8010       L1     7  0.88
      P1  H 10752 10765       L1     8  0.48

> <Gold.Chemscore.Hbond.Weighted>
-8.8385

> <Gold.Chemscore.Metal.Weighted>
-0.0000

> <Gold.Chemscore.Lipo.Weighted>
-6.7936

> <Gold.Chemscore.Internal_Hbond.Weighted>
0.0000

> <Gold.Chemscore.DEClash.Weighted>
0.3832

> <Gold.Chemscore.DEInternal.Weighted>
1.2176

> <Gold.Chemscore.Rot.Weighted>
3.9446

> <Gold.Chemscore.Internal.Correction.Weighted>
   9.000000E+99

> <Gold.Protein.RotatedTorsions>
[ 6907 6896 6895 6894 ] final -164.59 input  -60.11 | X-H torsion
[ 7974 7965 7964 7962 ] final  -54.46 input  175.53 | X-H torsion
[ 8008 7997 7996 7995 ] final  105.45 input   59.86 | X-H torsion
[ 10167 10162 10161 10158 ] final  -14.43 input  -65.29 | X-H torsion
[ 10718 10713 10712 10709 ] final -167.11 input   66.30 | X-H torsion
[ 10763 10752 10751 10750 ] final -162.34 input  -60.55 | X-H torsion
[ 11005 11000 10999 10996 ] final  -48.47 input  -57.11 | X-H torsion

> <Gold.Protein.ActiveResidues>
 VAL166  LYS551  ARG553  GLY616  TRP617  ASP618  TYR619  PRO620  LYS621  CYS622 
 ASP623  PHE694  ASN695  SER759  ASP760  ASP761  ALA762  ILE779  LEU786  VAL792 
 PHE793  MET794  SER795  GLU796  ALA797  LYS798  CYS799  TRP800  GLU811  SER814 

> <Gold.Protein.RotatedAtoms>
  151.4143  133.3718  159.2747 H   0  0  0  0  0  0  0  0  0  0  0  0  # atno 6907 bound_to 6896
  150.9340  134.8755  159.7580 H   0  0  0  0  0  0  0  0  0  0  0  0  # atno 6908 bound_to 6896
  152.5041  134.4089  159.9494 H   0  0  0  0  0  0  0  0  0  0  0  0  # atno 6909 bound_to 6896
  145.8854  140.8112  142.9819 H   0  0  0  0  0  0  0  0  0  0  0  0  # atno 7974 bound_to 7965
  156.1660  140.3130  155.8889 H   0  0  0  0  0  0  0  0  0  0  0  0  # atno 8008 bound_to 7997
  155.3685  140.0480  157.3063 H   0  0  0  0  0  0  0  0  0  0  0  0  # atno 8009 bound_to 7997
  154.5193  140.2192  155.9017 H   0  0  0  0  0  0  0  0  0  0  0  0  # atno 8010 bound_to 7997
  140.7201  143.5322  150.9506 H   0  0  0  0  0  0  0  0  0  0  0  0  # atno 10167 bound_to 10162
  156.6776  130.9109  151.3052 H   0  0  0  0  0  0  0  0  0  0  0  0  # atno 10718 bound_to 10713
  154.7223  135.3028  154.9028 H   0  0  0  0  0  0  0  0  0  0  0  0  # atno 10763 bound_to 10752
  153.9896  135.6720  153.4757 H   0  0  0  0  0  0  0  0  0  0  0  0  # atno 10764 bound_to 10752
  153.0844  135.4992  154.8486 H   0  0  0  0  0  0  0  0  0  0  0  0  # atno 10765 bound_to 10752
  141.0703  133.6681  156.3446 H   0  0  0  0  0  0  0  0  0  0  0  0  # atno 11005 bound_to 11000
  144.6728  140.1447  143.7434 LP  0  0  0  0  0  0  0  0  0  0  0  0  # atno 17320 bound_to 7965
  145.8973  139.2410  143.1514 LP  0  0  0  0  0  0  0  0  0  0  0  0  # atno 17321 bound_to 7965
  139.9043  143.6798  152.3126 LP  0  0  0  0  0  0  0  0  0  0  0  0  # atno 17342 bound_to 10162
  139.7158  144.7612  151.1036 LP  0  0  0  0  0  0  0  0  0  0  0  0  # atno 17343 bound_to 10162
  157.7055  130.9380  150.0918 LP  0  0  0  0  0  0  0  0  0  0  0  0  # atno 17370 bound_to 10713
  156.1892  130.3654  149.8932 LP  0  0  0  0  0  0  0  0  0  0  0  0  # atno 17371 bound_to 10713
  140.5688  134.5861  157.5452 LP  0  0  0  0  0  0  0  0  0  0  0  0  # atno 17394 bound_to 11000
  139.9516  134.7606  156.0434 LP  0  0  0  0  0  0  0  0  0  0  0  0  # atno 17395 bound_to 11000

$$$$
