AV-unprocessed.smi:1261|AV-procd|sdf|5307|dock3
  -GOLD-   22720 4433D 1   1.00000     0.00000
 Structure written by MMmdl.
 50 51  0  0  0  0  0  0  0  0  2 V2000
  154.1859  141.3662  160.8360 C   0  0  0  0  0  0  0  0  0  0  0  0
  153.3476  141.7740  159.6163 C   0  0  2  0  0  0  0  0  0  0  0  0
  153.1466  143.2986  159.5597 C   0  0  0  0  0  0  0  0  0  0  0  0
  152.2650  143.6958  158.3626 C   0  0  2  0  0  0  0  0  0  0  0  0
  152.0358  145.2130  158.3167 C   0  0  0  0  0  0  0  0  0  0  0  0
  150.9279  142.9267  158.4116 C   0  0  0  0  0  0  0  0  0  0  0  0
  151.1284  141.4545  158.4567 N   0  3  1  0  0  0  0  0  0  0  0  0
  151.5233  140.8687  157.1472 C   0  0  0  0  0  0  0  0  0  0  0  0
  150.4328  139.9590  156.5574 C   0  0  0  0  0  0  0  0  0  0  0  0
  150.4296  138.5613  157.1979 C   0  0  0  0  0  0  0  0  0  0  0  0
  149.1224  138.2297  157.7510 N   0  0  0  0  0  0  0  0  0  0  0  0
  148.9003  137.3572  158.7493 C   0  0  0  0  0  0  0  0  0  0  0  0
  149.8086  136.7409  159.3053 O   0  0  0  0  0  0  0  0  0  0  0  0
  147.4508  137.1312  159.2150 C   0  0  0  0  0  0  0  0  0  0  0  0
  147.3089  136.6198  160.5879 N   0  0  0  0  0  0  0  0  0  0  0  0
  147.4895  137.5818  161.5704 N   0  0  0  0  0  0  0  0  0  0  0  0
  147.3927  137.2583  162.8156 C   0  0  0  0  0  0  0  0  0  0  0  0
  147.5769  138.2421  163.7556 O   0  0  0  0  0  0  0  0  0  0  0  0
  147.0979  135.8998  163.2148 C   0  0  0  0  0  0  0  0  0  0  0  0
  146.9212  134.9701  162.2507 C   0  0  0  0  0  0  0  0  0  0  0  0
  147.0198  135.3038  160.8287 C   0  0  0  0  0  0  0  0  0  0  0  0
  146.8499  134.4808  159.9299 O   0  0  0  0  0  0  0  0  0  0  0  0
  151.9822  141.0518  159.6082 C   0  0  0  0  0  0  0  0  0  0  0  0
  147.2196  137.8941  164.5579 H   0  0  0  0  0  0  0  0  0  0  0  0
  153.6892  141.6367  161.7684 H   0  0  0  0  0  0  0  0  0  0  0  0
  155.1604  141.8552  160.8243 H   0  0  0  0  0  0  0  0  0  0  0  0
  154.3592  140.2898  160.8514 H   0  0  0  0  0  0  0  0  0  0  0  0
  153.9083  141.4735  158.7312 H   0  0  0  0  0  0  0  0  0  0  0  0
  152.6853  143.6437  160.4864 H   0  0  0  0  0  0  0  0  0  0  0  0
  154.1138  143.7982  159.4907 H   0  0  0  0  0  0  0  0  0  0  0  0
  152.7897  143.4204  157.4467 H   0  0  0  0  0  0  0  0  0  0  0  0
  151.5137  145.5636  159.2078 H   0  0  0  0  0  0  0  0  0  0  0  0
  151.4384  145.4940  157.4488 H   0  0  0  0  0  0  0  0  0  0  0  0
  152.9819  145.7513  158.2521 H   0  0  0  0  0  0  0  0  0  0  0  0
  150.3697  143.2215  159.3015 H   0  0  0  0  0  0  0  0  0  0  0  0
  150.2984  143.1924  157.5612 H   0  0  0  0  0  0  0  0  0  0  0  0
  151.6994  141.6790  156.4386 H   0  0  0  0  0  0  0  0  0  0  0  0
  152.4671  140.3304  157.2303 H   0  0  0  0  0  0  0  0  0  0  0  0
  149.4515  140.4122  156.6940 H   0  0  0  0  0  0  0  0  0  0  0  0
  150.5820  139.8631  155.4811 H   0  0  0  0  0  0  0  0  0  0  0  0
  150.6792  137.8077  156.4507 H   0  0  0  0  0  0  0  0  0  0  0  0
  151.1925  138.4928  157.9753 H   0  0  0  0  0  0  0  0  0  0  0  0
  148.3225  138.6935  157.3446 H   0  0  0  0  0  0  0  0  0  0  0  0
  146.8993  138.0657  159.1002 H   0  0  0  0  0  0  0  0  0  0  0  0
  146.9814  136.4370  158.5157 H   0  0  0  0  0  0  0  0  0  0  0  0
  147.0226  135.6430  164.2614 H   0  0  0  0  0  0  0  0  0  0  0  0
  146.7007  133.9515  162.5344 H   0  0  0  0  0  0  0  0  0  0  0  0
  152.1219  139.9719  159.6261 H   0  0  0  0  0  0  0  0  0  0  0  0
  151.4416  141.2943  160.5243 H   0  0  0  0  0  0  0  0  0  0  0  0
  150.2131  141.0699  158.6422 H   0  0  0  0  0  0  0  0  0  0  0  0
  1  2  1  0  0  0  0
  1 25  1  0  0  0  0
  1 26  1  0  0  0  0
  1 27  1  0  0  0  0
  2 23  1  0  0  0  0
  2  3  1  0  0  0  0
  2 28  1  0  0  0  0
  3  4  1  0  0  0  0
  3 29  1  0  0  0  0
  3 30  1  0  0  0  0
  4  5  1  0  0  0  0
  4  6  1  0  0  0  0
  4 31  1  0  0  0  0
  5 32  1  0  0  0  0
  5 33  1  0  0  0  0
  5 34  1  0  0  0  0
  6  7  1  0  0  0  0
  6 35  1  0  0  0  0
  6 36  1  0  0  0  0
  7  8  1  0  0  0  0
  7 23  1  0  0  0  0
  7 50  1  0  0  0  0
  8  9  1  0  0  0  0
  8 37  1  0  0  0  0
  8 38  1  0  0  0  0
  9 10  1  0  0  0  0
  9 39  1  0  0  0  0
  9 40  1  0  0  0  0
 10 11  1  0  0  0  0
 10 41  1  0  0  0  0
 10 42  1  0  0  0  0
 11 12  1  0  0  0  0
 11 43  1  0  0  0  0
 12 13  2  0  0  0  0
 12 14  1  0  0  0  0
 14 44  1  0  0  0  0
 14 45  1  0  0  0  0
 14 15  1  0  0  0  0
 15 16  1  0  0  0  0
 15 21  1  0  0  0  0
 16 17  2  0  0  0  0
 17 18  1  0  0  0  0
 17 19  1  0  0  0  0
 18 24  1  0  0  0  0
 19 46  1  0  0  0  0
 19 20  2  0  0  0  0
 20 47  1  0  0  0  0
 20 21  1  0  0  0  0
 21 22  2  0  0  0  0
 23 48  1  0  0  0  0
 23 49  1  0  0  0  0
M  CHG  1   7   1
M  END
> <s_m_source_file>
AV-unprocessed.smi

> <i_m_source_file_index>
1261

> <i_lp_mmshare_version>
43012

> <i_f3d_flags>
0

> <s_epik_input>
W0NIM11bQ0BASF0xW0NIMl1bQ0BASF0oW0NIM10pW0NIMl1OKFtDSDJdMSlbQ0gyXVtDSDJdW0NIMl1bTkhdQyg9TylbQ0gyXW4yW25IXWMoPU8pW2NIXVtjSF1jMj1P

> <s_epik_cmdline>
J2VwaWtfcHl0aG9uJywgJy1waCcsICc3LjAnLCAnLXRuJywgJzgnLCAnLW1hJywgJzIwMCcsICctbWV0YWxfYmluZGluZycsICctaW1hZScsICc8aW5maWxlLm1hZT4nLCAnLW9tYWUnLCAnPG91dGZpbGUubWFlPic=

> <r_lp_tautomer_probability>
0.9996

> <r_epik_Ionization_Penalty>
2.1425

> <r_epik_Ionization_Penalty_Charging>
0.000312112

> <r_epik_Ionization_Penalty_Neutral>
2.14218

> <r_epik_State_Penalty>
1.71978

> <r_epik_Charging_Adjusted_Penalty>
1.72009

> <i_epik_Tot_Q>
1

> <i_epik_Tot_abs_Q>
1

> <r_epik_Metal_State_Penalty>
1.71978

> <b_epik_Metal_Only>
0

> <s_lp_Force_Field>
OPLS_2005

> <r_lp_Energy>
29.2022

> <b_lp_Chiralities_Consistent>
1

> <s_lp_Variant>
AV-unprocessed.smi:1261-7

> <Gold.Version>
5.8.1

> <Gold.Id.Protein>
6NUR|6NUR_protein|mol2

> <Gold.PLP.Fitness>
52.7856

> <Gold.PLP.PLP>
-49.1190

> <Gold.PLP.part.hbond>
-4.0000

> <Gold.PLP.part.metal>
0.0000

> <Gold.PLP.part.buried>
-5.0861

> <Gold.PLP.part.nonpolar>
-40.6154

> <Gold.PLP.part.repulsive>
0.2213

> <Gold.PLP.ligand.clash>
0.0000

> <Gold.PLP.ligand.torsion>
1.9238

> <Gold.PLP.Chemscore.Hbond>
2.4360

> <Gold.PLP.Chemscore.CHOScore>
0.0000

> <Gold.PLP.Chemscore.Metal>
0.0000

> <Gold.Chemscore.Hbonds>
donor molecule, donor type, donor heavy atom, donor atom, acceptor molecule, acceptor atom, score
      P1  H  6896  6909       L1    13  0.70
      P1  H  6931  6943       L1    16  0.33
      P1  H  6934  6947       L1    16  0.75

> <Gold.PLP.Chemscore.Internal.Correction>
0.2062

> <Gold.Rescore>
     Score         DG    S(hbond)    S(metal)    S(lipo)     H(rot)  DE(clash)    DE(int)     intcor
     14.43     -16.52       1.77        0.00     112.49       3.14       0.03       2.05       ----

> <Gold.Chemscore.Fitness>
14.4334

> <Gold.Chemscore.DG>
-16.5233

> <Gold.Chemscore.ZeroCoef>
-5.4800

> <Gold.Chemscore.Hbond>
1.7687

> <Gold.Chemscore.Metal>
0.0000

> <Gold.Chemscore.Lipo>
112.4933

> <Gold.Chemscore.Internal_Hbond>
0.0000

> <Gold.Chemscore.DEClash>
0.0349

> <Gold.Chemscore.DEInternal>
2.0549

> <Gold.Chemscore.Rot>
3.1352

> <Gold.Chemscore.Internal.Correction>
   9.000000E+99

> <Gold.Chemscore.Hbonds>
donor molecule, donor type, donor heavy atom, donor atom, acceptor molecule, acceptor atom, score
      P1  H  6896  6909       L1    13  0.69
      P1  H  6931  6943       L1    16  0.01
      P1  H  6934  6947       L1    16  0.51

> <Gold.Chemscore.Hbond.Weighted>
-5.9076

> <Gold.Chemscore.Metal.Weighted>
-0.0000

> <Gold.Chemscore.Lipo.Weighted>
-13.1617

> <Gold.Chemscore.Internal_Hbond.Weighted>
0.0000

> <Gold.Chemscore.DEClash.Weighted>
0.0349

> <Gold.Chemscore.DEInternal.Weighted>
2.0549

> <Gold.Chemscore.Rot.Weighted>
8.0260

> <Gold.Chemscore.Internal.Correction.Weighted>
   9.000000E+99

> <Gold.Protein.RotatedTorsions>
[ 6907 6896 6895 6894 ] final   83.92 input  -60.11 | X-H torsion
[ 7974 7965 7964 7962 ] final  -79.50 input  175.53 | X-H torsion
[ 8008 7997 7996 7995 ] final -148.20 input   59.86 | X-H torsion
[ 10167 10162 10161 10158 ] final  -44.30 input  -65.29 | X-H torsion
[ 10718 10713 10712 10709 ] final -140.76 input   66.30 | X-H torsion
[ 10763 10752 10751 10750 ] final  166.52 input  -60.55 | X-H torsion
[ 11005 11000 10999 10996 ] final -144.52 input  -57.11 | X-H torsion

> <Gold.Protein.ActiveResidues>
 VAL166  LYS551  ARG553  GLY616  TRP617  ASP618  TYR619  PRO620  LYS621  CYS622 
 ASP623  PHE694  ASN695  SER759  ASP760  ASP761  ALA762  ILE779  LEU786  VAL792 
 PHE793  MET794  SER795  GLU796  ALA797  LYS798  CYS799  TRP800  GLU811  SER814 

> <Gold.Protein.RotatedAtoms>
  152.5339  134.2821  159.9011 H   0  0  0  0  0  0  0  0  0  0  0  0  # atno 6907 bound_to 6896
  151.2775  133.4219  159.2632 H   0  0  0  0  0  0  0  0  0  0  0  0  # atno 6908 bound_to 6896
  151.0313  134.9556  159.8169 H   0  0  0  0  0  0  0  0  0  0  0  0  # atno 6909 bound_to 6896
  145.5725  140.9463  143.1388 H   0  0  0  0  0  0  0  0  0  0  0  0  # atno 7974 bound_to 7965
  155.5878  140.0649  157.2766 H   0  0  0  0  0  0  0  0  0  0  0  0  # atno 8008 bound_to 7997
  154.4314  140.1840  156.1090 H   0  0  0  0  0  0  0  0  0  0  0  0  # atno 8009 bound_to 7997
  156.0256  140.3312  155.7088 H   0  0  0  0  0  0  0  0  0  0  0  0  # atno 8010 bound_to 7997
  140.6902  143.2937  151.3475 H   0  0  0  0  0  0  0  0  0  0  0  0  # atno 10167 bound_to 10162
  156.3260  130.7560  151.1668 H   0  0  0  0  0  0  0  0  0  0  0  0  # atno 10718 bound_to 10713
  154.3402  135.2754  155.2426 H   0  0  0  0  0  0  0  0  0  0  0  0  # atno 10763 bound_to 10752
  154.4700  135.5885  153.6318 H   0  0  0  0  0  0  0  0  0  0  0  0  # atno 10764 bound_to 10752
  152.9858  135.6086  154.3602 H   0  0  0  0  0  0  0  0  0  0  0  0  # atno 10765 bound_to 10752
  140.8016  134.2850  157.4976 H   0  0  0  0  0  0  0  0  0  0  0  0  # atno 11005 bound_to 11000
  144.7431  139.7393  143.7303 LP  0  0  0  0  0  0  0  0  0  0  0  0  # atno 17320 bound_to 7965
  146.1774  139.4951  142.9888 LP  0  0  0  0  0  0  0  0  0  0  0  0  # atno 17321 bound_to 7965
  139.6297  144.0744  152.2466 LP  0  0  0  0  0  0  0  0  0  0  0  0  # atno 17342 bound_to 10162
  140.0215  144.6149  150.7563 LP  0  0  0  0  0  0  0  0  0  0  0  0  # atno 17343 bound_to 10162
  157.7421  131.0494  150.5047 LP  0  0  0  0  0  0  0  0  0  0  0  0  # atno 17370 bound_to 10713
  156.5206  130.4161  149.6253 LP  0  0  0  0  0  0  0  0  0  0  0  0  # atno 17371 bound_to 10713
  139.8721  134.9433  156.3848 LP  0  0  0  0  0  0  0  0  0  0  0  0  # atno 17394 bound_to 11000
  140.9289  133.7593  155.9999 LP  0  0  0  0  0  0  0  0  0  0  0  0  # atno 17395 bound_to 11000

$$$$
