AV-unprocessed.smi:392|AV-procd|sdf|2481|dock6
  -GOLD-   2262022423D 1   1.00000     0.00000
 Structure written by MMmdl.
 32 34  0  0  0  0  0  0  0  0  1 V2000
  153.1588  139.9148  158.2894 O   0  0  0  0  0  0  0  0  0  0  0  0
  152.3291  141.0503  158.4295 C   0  0  1  0  0  0  0  0  0  0  0  0
  150.8673  140.6066  158.2209 C   0  0  0  0  0  0  0  0  0  0  0  0
  150.4913  140.5899  156.8184 N   0  0  0  0  0  0  0  0  0  0  0  0
  151.2040  140.0783  155.7965 C   0  0  0  0  0  0  0  0  0  0  0  0
  150.6801  140.1758  154.5780 N   0  0  0  0  0  0  0  0  0  0  0  0
  149.4879  140.8292  154.8383 C   0  0  0  0  0  0  0  0  0  0  0  0
  148.4597  141.2442  153.9618 C   0  0  0  0  0  0  0  0  0  0  0  0
  147.3207  141.9099  154.4610 C   0  0  0  0  0  0  0  0  0  0  0  0
  147.1911  142.1684  155.8410 C   0  0  0  0  0  0  0  0  0  0  0  0
  148.2005  141.7612  156.7339 C   0  0  0  0  0  0  0  0  0  0  0  0
  149.3372  141.0999  156.2319 C   0  0  0  0  0  0  0  0  0  0  0  0
  152.5337  141.7534  159.7669 C   0  0  0  0  0  0  0  0  0  0  0  0
  153.2810  141.1303  160.7917 C   0  0  0  0  0  0  0  0  0  0  0  0
  153.4439  141.7619  162.0395 C   0  0  0  0  0  0  0  0  0  0  0  0
  152.8610  143.0215  162.2724 C   0  0  0  0  0  0  0  0  0  0  0  0
  152.1155  143.6489  161.2564 C   0  0  0  0  0  0  0  0  0  0  0  0
  151.9501  143.0187  160.0078 C   0  0  0  0  0  0  0  0  0  0  0  0
  151.2161  143.6308  159.0476 F   0  0  0  0  0  0  0  0  0  0  0  0
  152.6125  139.1667  158.1017 H   0  0  0  0  0  0  0  0  0  0  0  0
  152.6107  141.7278  157.6226 H   0  0  0  0  0  0  0  0  0  0  0  0
  150.7217  139.5999  158.6157 H   0  0  0  0  0  0  0  0  0  0  0  0
  150.1805  141.2558  158.7657 H   0  0  0  0  0  0  0  0  0  0  0  0
  152.1645  139.6104  155.9566 H   0  0  0  0  0  0  0  0  0  0  0  0
  148.5488  141.0524  152.9028 H   0  0  0  0  0  0  0  0  0  0  0  0
  146.5425  142.2240  153.7811 H   0  0  0  0  0  0  0  0  0  0  0  0
  146.3164  142.6804  156.2143 H   0  0  0  0  0  0  0  0  0  0  0  0
  148.1051  141.9610  157.7907 H   0  0  0  0  0  0  0  0  0  0  0  0
  153.7235  140.1585  160.6283 H   0  0  0  0  0  0  0  0  0  0  0  0
  154.0130  141.2776  162.8194 H   0  0  0  0  0  0  0  0  0  0  0  0
  152.9830  143.5050  163.2305 H   0  0  0  0  0  0  0  0  0  0  0  0
  151.6645  144.6135  161.4367 H   0  0  0  0  0  0  0  0  0  0  0  0
  1  2  1  0  0  0  0
  1 20  1  0  0  0  0
  2  3  1  0  0  0  0
  2 13  1  0  0  0  0
  2 21  1  0  0  0  0
  3  4  1  0  0  0  0
  3 22  1  0  0  0  0
  3 23  1  0  0  0  0
  4 12  1  0  0  0  0
  4  5  1  0  0  0  0
  5  6  2  0  0  0  0
  5 24  1  0  0  0  0
  6  7  1  0  0  0  0
  7 12  2  0  0  0  0
  7  8  1  0  0  0  0
  8  9  2  0  0  0  0
  8 25  1  0  0  0  0
  9 10  1  0  0  0  0
  9 26  1  0  0  0  0
 10 11  2  0  0  0  0
 10 27  1  0  0  0  0
 11 12  1  0  0  0  0
 11 28  1  0  0  0  0
 13 18  1  0  0  0  0
 13 14  2  0  0  0  0
 14 15  1  0  0  0  0
 14 29  1  0  0  0  0
 15 16  2  0  0  0  0
 15 30  1  0  0  0  0
 16 17  1  0  0  0  0
 16 31  1  0  0  0  0
 17 18  2  0  0  0  0
 17 32  1  0  0  0  0
 18 19  1  0  0  0  0
M  END
> <s_m_source_file>
AV-unprocessed.smi

> <i_m_source_file_index>
392

> <i_lp_mmshare_version>
43012

> <i_f3d_flags>
0

> <s_epik_input>
RmMxW2NIXVtjSF1bY0hdW2NIXWMxW0NASF0oW09IXSlbQ0gyXW4oW2NIXW4yKWMoYzIzKVtjSF1bY0hdW2NIXVtjSF0z

> <s_epik_cmdline>
J2VwaWtfcHl0aG9uJywgJy1waCcsICc3LjAnLCAnLXRuJywgJzgnLCAnLW1hJywgJzIwMCcsICctbWV0YWxfYmluZGluZycsICctaW1hZScsICc8aW5maWxlLm1hZT4nLCAnLW9tYWUnLCAnPG91dGZpbGUubWFlPic=

> <r_epik_Ionization_Penalty>
0.0696512

> <r_epik_Ionization_Penalty_Charging>
0

> <r_epik_Ionization_Penalty_Neutral>
0.0696512

> <r_epik_State_Penalty>
0.0610247

> <r_epik_Charging_Adjusted_Penalty>
0.0610247

> <i_epik_Tot_Q>
0

> <i_epik_Tot_abs_Q>
0

> <r_epik_Metal_State_Penalty>
6.42746e-05

> <b_epik_Metal_Only>
0

> <s_lp_Force_Field>
OPLS_2005

> <r_lp_Energy>
12.4864

> <b_lp_Chiralities_Consistent>
1

> <s_lp_Variant>
AV-unprocessed.smi:392-2

> <Gold.Version>
5.8.1

> <Gold.Id.Protein>
6NUR|6NUR_protein|mol2

> <Gold.PLP.Fitness>
51.0259

> <Gold.PLP.PLP>
-46.3851

> <Gold.PLP.part.hbond>
-2.0000

> <Gold.PLP.part.metal>
0.0000

> <Gold.PLP.part.buried>
-3.7103

> <Gold.PLP.part.nonpolar>
-40.4108

> <Gold.PLP.part.repulsive>
0.0911

> <Gold.PLP.ligand.clash>
0.0000

> <Gold.PLP.ligand.torsion>
0.6750

> <Gold.PLP.Chemscore.Hbond>
1.9920

> <Gold.PLP.Chemscore.CHOScore>
0.0000

> <Gold.PLP.Chemscore.Metal>
0.0000

> <Gold.Chemscore.Hbonds>
donor molecule, donor type, donor heavy atom, donor atom, acceptor molecule, acceptor atom, score
      P1  H  7989  7998       L1     6  1.00
      P1  H  7997  8010       L1     1  1.00

> <Gold.PLP.Chemscore.Internal.Correction>
0.0148

> <Gold.Rescore>
     Score         DG    S(hbond)    S(metal)    S(lipo)     H(rot)  DE(clash)    DE(int)     intcor
     18.65     -19.40       1.81        0.00     109.15       1.91       0.01       0.74       ----

> <Gold.Chemscore.Fitness>
18.6476

> <Gold.Chemscore.DG>
-19.3976

> <Gold.Chemscore.ZeroCoef>
-5.4800

> <Gold.Chemscore.Hbond>
1.8087

> <Gold.Chemscore.Metal>
0.0000

> <Gold.Chemscore.Lipo>
109.1472

> <Gold.Chemscore.Internal_Hbond>
0.0000

> <Gold.Chemscore.DEClash>
0.0120

> <Gold.Chemscore.DEInternal>
0.7381

> <Gold.Chemscore.Rot>
1.9116

> <Gold.Chemscore.Internal.Correction>
   9.000000E+99

> <Gold.Chemscore.Hbonds>
donor molecule, donor type, donor heavy atom, donor atom, acceptor molecule, acceptor atom, score
      P1  H  7989  7998       L1     6  0.81
      P1  H  7997  8010       L1     1  0.68

> <Gold.Chemscore.Hbond.Weighted>
-6.0411

> <Gold.Chemscore.Metal.Weighted>
-0.0000

> <Gold.Chemscore.Lipo.Weighted>
-12.7702

> <Gold.Chemscore.Internal_Hbond.Weighted>
0.0000

> <Gold.Chemscore.DEClash.Weighted>
0.0120

> <Gold.Chemscore.DEInternal.Weighted>
0.7381

> <Gold.Chemscore.Rot.Weighted>
4.8937

> <Gold.Chemscore.Internal.Correction.Weighted>
   9.000000E+99

> <Gold.Protein.RotatedTorsions>
[ 6907 6896 6895 6894 ] final   12.12 input  -60.11 | X-H torsion
[ 7974 7965 7964 7962 ] final  -31.32 input  175.53 | X-H torsion
[ 8008 7997 7996 7995 ] final   38.14 input   59.86 | X-H torsion
[ 10167 10162 10161 10158 ] final -157.59 input  -65.29 | X-H torsion
[ 10718 10713 10712 10709 ] final  -55.62 input   66.30 | X-H torsion
[ 10763 10752 10751 10750 ] final   57.74 input  -60.55 | X-H torsion
[ 11005 11000 10999 10996 ] final  -29.23 input  -57.11 | X-H torsion

> <Gold.Protein.ActiveResidues>
 VAL166  LYS551  ARG553  GLY616  TRP617  ASP618  TYR619  PRO620  LYS621  CYS622 
 ASP623  PHE694  ASN695  SER759  ASP760  ASP761  ALA762  ILE779  LEU786  VAL792 
 PHE793  MET794  SER795  GLU796  ALA797  LYS798  CYS799  TRP800  GLU811  SER814 

> <Gold.Protein.RotatedAtoms>
  151.7652  135.0800  160.0351 H   0  0  0  0  0  0  0  0  0  0  0  0  # atno 6907 bound_to 6896
  152.3326  133.5971  159.5828 H   0  0  0  0  0  0  0  0  0  0  0  0  # atno 6908 bound_to 6896
  150.7431  133.9761  159.3603 H   0  0  0  0  0  0  0  0  0  0  0  0  # atno 6909 bound_to 6896
  146.1077  140.5652  142.8792 H   0  0  0  0  0  0  0  0  0  0  0  0  # atno 7974 bound_to 7965
  155.2153  140.3326  155.4323 H   0  0  0  0  0  0  0  0  0  0  0  0  # atno 8008 bound_to 7997
  156.2354  140.1870  156.7180 H   0  0  0  0  0  0  0  0  0  0  0  0  # atno 8009 bound_to 7997
  154.6051  140.0617  156.9405 H   0  0  0  0  0  0  0  0  0  0  0  0  # atno 8010 bound_to 7997
  139.6759  143.9665  152.2310 H   0  0  0  0  0  0  0  0  0  0  0  0  # atno 10167 bound_to 10162
  156.1354  130.4157  150.0195 H   0  0  0  0  0  0  0  0  0  0  0  0  # atno 10718 bound_to 10713
  152.9856  135.5631  154.5440 H   0  0  0  0  0  0  0  0  0  0  0  0  # atno 10763 bound_to 10752
  154.4889  135.2792  155.1514 H   0  0  0  0  0  0  0  0  0  0  0  0  # atno 10764 bound_to 10752
  154.2991  135.6311  153.5470 H   0  0  0  0  0  0  0  0  0  0  0  0  # atno 10765 bound_to 10752
  140.9278  133.7357  156.0893 H   0  0  0  0  0  0  0  0  0  0  0  0  # atno 11005 bound_to 11000
  144.7484  140.5129  143.6819 LP  0  0  0  0  0  0  0  0  0  0  0  0  # atno 17320 bound_to 7965
  145.5728  139.1484  143.3279 LP  0  0  0  0  0  0  0  0  0  0  0  0  # atno 17321 bound_to 7965
  139.9442  144.6662  150.8236 LP  0  0  0  0  0  0  0  0  0  0  0  0  # atno 17342 bound_to 10162
  140.7635  143.3224  151.2591 LP  0  0  0  0  0  0  0  0  0  0  0  0  # atno 17343 bound_to 10162
  156.8095  130.9320  151.3644 LP  0  0  0  0  0  0  0  0  0  0  0  0  # atno 17370 bound_to 10713
  157.6527  130.8898  149.9666 LP  0  0  0  0  0  0  0  0  0  0  0  0  # atno 17371 bound_to 10713
  140.7903  134.3625  157.5466 LP  0  0  0  0  0  0  0  0  0  0  0  0  # atno 17394 bound_to 11000
  139.8789  134.9136  156.3087 LP  0  0  0  0  0  0  0  0  0  0  0  0  # atno 17395 bound_to 11000

$$$$
