AV-unprocessed.smi:690|AV-procd|sdf|3363|dock4
  -GOLD-   22720 0343D 1   1.00000     0.00000
 Structure written by MMmdl.
 46 48  0  0  0  0  0  0  0  0  1 V2000
  144.8403  142.4836  156.3437 C   0  0  0  0  0  0  0  0  0  0  0  0
  145.0390  141.1998  155.5356 C   0  0  0  0  0  0  0  0  0  0  0  0
  145.8626  140.3146  156.2755 O   0  0  0  0  0  0  0  0  0  0  0  0
  147.1417  140.8605  156.5575 C   0  0  1  0  0  0  0  0  0  0  0  0
  148.0530  139.9574  157.3948 C   0  0  0  0  0  0  0  0  0  0  0  0
  149.2045  140.3906  156.4802 C   0  0  2  0  0  0  0  0  0  0  0  0
  149.8746  141.5766  157.0111 N   0  0  0  0  0  0  0  0  0  0  0  0
  151.1549  141.6313  157.4123 C   0  0  0  0  0  0  0  0  0  0  0  0
  151.8994  140.6521  157.3972 O   0  0  0  0  0  0  0  0  0  0  0  0
  151.7088  142.9858  157.8872 C   0  0  0  0  0  0  0  0  0  0  0  0
  152.1549  143.0111  159.2922 N   0  0  0  0  0  0  0  0  0  0  0  0
  152.9942  141.9595  159.7112 C   0  0  0  0  0  0  0  0  0  0  0  0
  153.4739  141.8889  160.9627 C   0  0  0  0  0  0  0  0  0  0  0  0
  153.1061  142.9292  161.8937 C   0  0  0  0  0  0  0  0  0  0  0  0
  152.3075  143.9421  161.5024 C   0  0  0  0  0  0  0  0  0  0  0  0
  151.7869  144.0270  160.1330 C   0  0  0  0  0  0  0  0  0  0  0  0
  151.0720  144.9581  159.7624 O   0  0  0  0  0  0  0  0  0  0  0  0
  148.1508  140.7232  155.3911 C   0  0  0  0  0  0  0  0  0  0  0  0
  148.3446  141.9411  154.4899 C   0  0  0  0  0  0  0  0  0  0  0  0
  147.3696  141.7866  153.3213 C   0  0  0  0  0  0  0  0  0  0  0  0
  147.1068  140.2823  153.1999 C   0  0  0  0  0  0  0  0  0  0  0  0
  147.8722  139.6302  154.3561 C   0  0  0  0  0  0  0  0  0  0  0  0
  144.2045  143.1877  155.8066 H   0  0  0  0  0  0  0  0  0  0  0  0
  145.7942  142.9747  156.5381 H   0  0  0  0  0  0  0  0  0  0  0  0
  144.3696  142.2723  157.3040 H   0  0  0  0  0  0  0  0  0  0  0  0
  144.0735  140.7331  155.3344 H   0  0  0  0  0  0  0  0  0  0  0  0
  145.4998  141.4342  154.5750 H   0  0  0  0  0  0  0  0  0  0  0  0
  147.0943  141.8820  156.9420 H   0  0  0  0  0  0  0  0  0  0  0  0
  148.1495  140.2495  158.4411 H   0  0  0  0  0  0  0  0  0  0  0  0
  147.8108  138.8981  157.2949 H   0  0  0  0  0  0  0  0  0  0  0  0
  149.8751  139.5700  156.2200 H   0  0  0  0  0  0  0  0  0  0  0  0
  149.3291  142.4249  157.0551 H   0  0  0  0  0  0  0  0  0  0  0  0
  152.5192  143.2813  157.2188 H   0  0  0  0  0  0  0  0  0  0  0  0
  150.9338  143.7384  157.7350 H   0  0  0  0  0  0  0  0  0  0  0  0
  153.2261  141.2269  158.9515 H   0  0  0  0  0  0  0  0  0  0  0  0
  154.1203  141.0777  161.2643 H   0  0  0  0  0  0  0  0  0  0  0  0
  153.4732  142.8952  162.9089 H   0  0  0  0  0  0  0  0  0  0  0  0
  152.0436  144.7117  162.2131 H   0  0  0  0  0  0  0  0  0  0  0  0
  148.1869  142.8832  155.0160 H   0  0  0  0  0  0  0  0  0  0  0  0
  149.3653  141.9604  154.1056 H   0  0  0  0  0  0  0  0  0  0  0  0
  146.4364  142.3050  153.5445 H   0  0  0  0  0  0  0  0  0  0  0  0
  147.7716  142.2124  152.4015 H   0  0  0  0  0  0  0  0  0  0  0  0
  146.0383  140.0829  153.2889 H   0  0  0  0  0  0  0  0  0  0  0  0
  147.4349  139.8880  152.2376 H   0  0  0  0  0  0  0  0  0  0  0  0
  148.8149  139.2313  153.9792 H   0  0  0  0  0  0  0  0  0  0  0  0
  147.3226  138.7836  154.7688 H   0  0  0  0  0  0  0  0  0  0  0  0
  1  2  1  0  0  0  0
  1 23  1  0  0  0  0
  1 24  1  0  0  0  0
  1 25  1  0  0  0  0
  2  3  1  0  0  0  0
  2 26  1  0  0  0  0
  2 27  1  0  0  0  0
  3  4  1  0  0  0  0
  4 18  1  0  0  0  0
  4  5  1  0  0  0  0
  4 28  1  0  0  0  0
  5  6  1  0  0  0  0
  5 29  1  0  0  0  0
  5 30  1  0  0  0  0
  6  7  1  0  0  0  0
  6 18  1  0  0  0  0
  6 31  1  0  0  0  0
  7  8  1  0  0  0  0
  7 32  1  0  0  0  0
  8  9  2  0  0  0  0
  8 10  1  0  0  0  0
 10 11  1  0  0  0  0
 10 33  1  0  0  0  0
 10 34  1  0  0  0  0
 11 16  1  0  0  0  0
 11 12  1  0  0  0  0
 12 13  2  0  0  0  0
 12 35  1  0  0  0  0
 13 14  1  0  0  0  0
 13 36  1  0  0  0  0
 14 15  2  0  0  0  0
 14 37  1  0  0  0  0
 15 16  1  0  0  0  0
 15 38  1  0  0  0  0
 16 17  2  0  0  0  0
 18 22  1  0  0  0  0
 18 19  1  0  0  0  0
 19 20  1  0  0  0  0
 19 39  1  0  0  0  0
 19 40  1  0  0  0  0
 20 21  1  0  0  0  0
 20 41  1  0  0  0  0
 20 42  1  0  0  0  0
 21 22  1  0  0  0  0
 21 43  1  0  0  0  0
 21 44  1  0  0  0  0
 22 45  1  0  0  0  0
 22 46  1  0  0  0  0
M  END
> <s_m_source_file>
AV-unprocessed.smi

> <i_m_source_file_index>
690

> <i_lp_mmshare_version>
43012

> <i_f3d_flags>
0

> <s_epik_input>
W0NIMl0xW0NIMl1bQ0gyXVtDSDJdQzEyW0NASF0oT1tDSDJdW0NIM10pW0NIMl1bQ0BIXTJbTkhdQyg9TylbQ0gyXW4zW2NIXVtjSF1bY0hdW2NIXWMzPU8=

> <s_epik_cmdline>
J2VwaWtfcHl0aG9uJywgJy1waCcsICc3LjAnLCAnLXRuJywgJzgnLCAnLW1hJywgJzIwMCcsICctbWV0YWxfYmluZGluZycsICctaW1hZScsICc8aW5maWxlLm1hZT4nLCAnLW9tYWUnLCAnPG91dGZpbGUubWFlPic=

> <r_lp_tautomer_probability>
1

> <r_epik_Ionization_Penalty>
4.11691e-07

> <r_epik_Ionization_Penalty_Charging>
3.92797e-07

> <r_epik_Ionization_Penalty_Neutral>
1.88943e-08

> <r_epik_State_Penalty>
-0

> <r_epik_Charging_Adjusted_Penalty>
3.92797e-07

> <i_epik_Tot_Q>
0

> <i_epik_Tot_abs_Q>
0

> <r_epik_Metal_State_Penalty>
-0

> <b_epik_Metal_Only>
0

> <s_lp_Force_Field>
OPLS_2005

> <r_lp_Energy>
47.2811

> <b_lp_Chiralities_Consistent>
1

> <s_lp_Variant>
AV-unprocessed.smi:690-4

> <Gold.Version>
5.8.1

> <Gold.Id.Protein>
6NUR|6NUR_protein|mol2

> <Gold.PLP.Fitness>
38.8969

> <Gold.PLP.PLP>
-39.4296

> <Gold.PLP.part.hbond>
0.0000

> <Gold.PLP.part.metal>
0.0000

> <Gold.PLP.part.buried>
-5.2906

> <Gold.PLP.part.nonpolar>
-33.6550

> <Gold.PLP.part.repulsive>
0.2052

> <Gold.PLP.ligand.clash>
0.0000

> <Gold.PLP.ligand.torsion>
0.4404

> <Gold.PLP.Chemscore.Hbond>
0.0000

> <Gold.PLP.Chemscore.CHOScore>
0.0000

> <Gold.PLP.Chemscore.Metal>
0.0000

> <Gold.PLP.Chemscore.Internal.Correction>
0.3481

> <Gold.Rescore>
     Score         DG    S(hbond)    S(metal)    S(lipo)     H(rot)  DE(clash)    DE(int)     intcor
     10.56     -12.11       0.00        0.00      93.62       1.69       0.01       1.54       ----

> <Gold.Chemscore.Fitness>
10.5631

> <Gold.Chemscore.DG>
-12.1091

> <Gold.Chemscore.ZeroCoef>
-5.4800

> <Gold.Chemscore.Hbond>
0.0008

> <Gold.Chemscore.Metal>
0.0000

> <Gold.Chemscore.Lipo>
93.6159

> <Gold.Chemscore.Internal_Hbond>
0.0000

> <Gold.Chemscore.DEClash>
0.0050

> <Gold.Chemscore.DEInternal>
1.5410

> <Gold.Chemscore.Rot>
1.6900

> <Gold.Chemscore.Internal.Correction>
   9.000000E+99

> <Gold.Chemscore.Hbond.Weighted>
-0.0025

> <Gold.Chemscore.Metal.Weighted>
-0.0000

> <Gold.Chemscore.Lipo.Weighted>
-10.9531

> <Gold.Chemscore.Internal_Hbond.Weighted>
0.0000

> <Gold.Chemscore.DEClash.Weighted>
0.0050

> <Gold.Chemscore.DEInternal.Weighted>
1.5410

> <Gold.Chemscore.Rot.Weighted>
4.3265

> <Gold.Chemscore.Internal.Correction.Weighted>
   9.000000E+99

> <Gold.Protein.RotatedTorsions>
[ 6907 6896 6895 6894 ] final  -98.57 input  -60.11 | X-H torsion
[ 7974 7965 7964 7962 ] final  -93.76 input  175.53 | X-H torsion
[ 8008 7997 7996 7995 ] final  168.46 input   59.86 | X-H torsion
[ 10167 10162 10161 10158 ] final   89.28 input  -65.29 | X-H torsion
[ 10718 10713 10712 10709 ] final  -90.91 input   66.30 | X-H torsion
[ 10763 10752 10751 10750 ] final  135.68 input  -60.55 | X-H torsion
[ 11005 11000 10999 10996 ] final  -94.97 input  -57.11 | X-H torsion

> <Gold.Protein.ActiveResidues>
 VAL166  LYS551  ARG553  GLY616  TRP617  ASP618  TYR619  PRO620  LYS621  CYS622 
 ASP623  PHE694  ASN695  SER759  ASP760  ASP761  ALA762  ILE779  LEU786  VAL792 
 PHE793  MET794  SER795  GLU796  ALA797  LYS798  CYS799  TRP800  GLU811  SER814 

> <Gold.Protein.RotatedAtoms>
  150.7051  134.1174  159.4021 H   0  0  0  0  0  0  0  0  0  0  0  0  # atno 6907 bound_to 6896
  151.9160  135.0316  160.0527 H   0  0  0  0  0  0  0  0  0  0  0  0  # atno 6908 bound_to 6896
  152.2296  133.5012  159.5245 H   0  0  0  0  0  0  0  0  0  0  0  0  # atno 6909 bound_to 6896
  145.3822  140.9519  143.2387 H   0  0  0  0  0  0  0  0  0  0  0  0  # atno 7974 bound_to 7965
  156.1544  140.1590  156.8716 H   0  0  0  0  0  0  0  0  0  0  0  0  # atno 8008 bound_to 7997
  154.5101  140.0803  156.8009 H   0  0  0  0  0  0  0  0  0  0  0  0  # atno 8009 bound_to 7997
  155.3832  140.3406  155.4250 H   0  0  0  0  0  0  0  0  0  0  0  0  # atno 8010 bound_to 7997
  139.8589  144.6554  150.9082 H   0  0  0  0  0  0  0  0  0  0  0  0  # atno 10167 bound_to 10162
  155.9990  130.4928  150.5395 H   0  0  0  0  0  0  0  0  0  0  0  0  # atno 10718 bound_to 10713
  153.8439  135.3088  155.3428 H   0  0  0  0  0  0  0  0  0  0  0  0  # atno 10763 bound_to 10752
  154.7920  135.4777  154.0078 H   0  0  0  0  0  0  0  0  0  0  0  0  # atno 10764 bound_to 10752
  153.1559  135.6852  153.8906 H   0  0  0  0  0  0  0  0  0  0  0  0  # atno 10765 bound_to 10752
  141.1455  133.7993  157.0372 H   0  0  0  0  0  0  0  0  0  0  0  0  # atno 11005 bound_to 11000
  144.8499  139.5337  143.6861 LP  0  0  0  0  0  0  0  0  0  0  0  0  # atno 17320 bound_to 7965
  146.2837  139.6945  142.9211 LP  0  0  0  0  0  0  0  0  0  0  0  0  # atno 17321 bound_to 7965
  140.7778  143.3762  151.1559 LP  0  0  0  0  0  0  0  0  0  0  0  0  # atno 17342 bound_to 10162
  139.7393  143.8949  152.3045 LP  0  0  0  0  0  0  0  0  0  0  0  0  # atno 17343 bound_to 10162
  157.3333  131.0703  151.1844 LP  0  0  0  0  0  0  0  0  0  0  0  0  # atno 17370 bound_to 10713
  157.2717  130.6707  149.6023 LP  0  0  0  0  0  0  0  0  0  0  0  0  # atno 17371 bound_to 10713
  140.0716  134.9699  157.1477 LP  0  0  0  0  0  0  0  0  0  0  0  0  # atno 17394 bound_to 11000
  140.3702  134.2398  155.7178 LP  0  0  0  0  0  0  0  0  0  0  0  0  # atno 17395 bound_to 11000

$$$$
