AV-unprocessed.smi:2124|AV-procd|sdf|8663|dock9
  -GOLD-   2272011413D 1   1.00000     0.00000
 Structure written by MMmdl.
 47 49  0  0  0  0  0  0  0  0  1 V2000
  150.9870  142.1858  156.5889 C   0  0  0  0  0  0  0  0  0  0  0  0
  150.0331  141.4959  155.6382 C   0  0  0  0  0  0  0  0  0  0  0  0
  148.8848  142.2251  155.3762 N   0  0  0  0  0  0  0  0  0  0  0  0
  147.9516  141.6760  154.5151 C   0  0  0  0  0  0  0  0  0  0  0  0
  146.7223  142.5375  154.2841 C   0  0  0  0  0  0  0  0  0  0  0  0
  148.1512  140.4602  153.9455 C   0  0  0  0  0  0  0  0  0  0  0  0
  147.1420  139.8143  152.9966 C   0  0  0  0  0  0  0  0  0  0  0  0
  146.5479  138.4773  153.4480 C   0  0  0  0  0  0  0  0  0  0  0  0
  147.2651  137.6041  153.9377 O   0  0  0  0  0  0  0  0  0  0  0  0
  145.2251  138.3348  153.2761 N   0  0  0  0  0  0  0  0  0  0  0  0
  144.4479  137.1463  153.6216 C   0  0  1  0  0  0  0  0  0  0  0  0
  142.9762  137.3765  153.2319 C   0  0  0  0  0  0  0  0  0  0  0  0
  145.0501  135.9010  152.9262 C   0  0  2  0  0  0  0  0  0  0  0  0
  145.1867  136.0545  151.3914 C   0  0  0  0  0  0  0  0  0  0  0  0
  144.4467  134.8215  150.8425 C   0  0  1  0  0  0  0  0  0  0  0  0
  145.2559  133.5509  151.1588 C   0  0  0  0  0  0  0  0  0  0  0  0
  145.0604  133.3968  152.6785 C   0  0  0  0  0  0  0  0  0  0  0  0
  144.1878  134.6161  153.0350 C   0  0  2  0  0  0  0  0  0  0  0  0
  143.2793  134.7065  151.8132 C   0  0  0  0  0  0  0  0  0  0  0  0
  149.3969  139.7252  154.2682 C   0  0  0  0  0  0  0  0  0  0  0  0
  149.6302  138.6144  153.7935 O   0  0  0  0  0  0  0  0  0  0  0  0
  150.3145  140.3290  155.1430 N   0  0  0  0  0  0  0  0  0  0  0  0
  148.6949  143.1306  155.7810 H   0  0  0  0  0  0  0  0  0  0  0  0
  151.8473  141.5519  156.8069 H   0  0  0  0  0  0  0  0  0  0  0  0
  150.4866  142.4148  157.5303 H   0  0  0  0  0  0  0  0  0  0  0  0
  151.3503  143.1167  156.1526 H   0  0  0  0  0  0  0  0  0  0  0  0
  145.8179  141.9938  154.5583 H   0  0  0  0  0  0  0  0  0  0  0  0
  146.6490  142.8222  153.2343 H   0  0  0  0  0  0  0  0  0  0  0  0
  146.7556  143.4524  154.8773 H   0  0  0  0  0  0  0  0  0  0  0  0
  147.5802  139.6814  152.0066 H   0  0  0  0  0  0  0  0  0  0  0  0
  146.3178  140.5113  152.8433 H   0  0  0  0  0  0  0  0  0  0  0  0
  144.7170  139.1047  152.8654 H   0  0  0  0  0  0  0  0  0  0  0  0
  144.4985  136.9945  154.7012 H   0  0  0  0  0  0  0  0  0  0  0  0
  142.3489  136.5295  153.5086 H   0  0  0  0  0  0  0  0  0  0  0  0
  142.8703  137.5300  152.1576 H   0  0  0  0  0  0  0  0  0  0  0  0
  142.5688  138.2550  153.7333 H   0  0  0  0  0  0  0  0  0  0  0  0
  146.0315  135.7135  153.3656 H   0  0  0  0  0  0  0  0  0  0  0  0
  144.7003  136.9629  151.0336 H   0  0  0  0  0  0  0  0  0  0  0  0
  146.2281  136.0906  151.0697 H   0  0  0  0  0  0  0  0  0  0  0  0
  144.1661  134.9121  149.7927 H   0  0  0  0  0  0  0  0  0  0  0  0
  144.8485  132.6881  150.6305 H   0  0  0  0  0  0  0  0  0  0  0  0
  146.3058  133.6498  150.8808 H   0  0  0  0  0  0  0  0  0  0  0  0
  144.5363  132.4671  152.9042 H   0  0  0  0  0  0  0  0  0  0  0  0
  146.0060  133.3849  153.2218 H   0  0  0  0  0  0  0  0  0  0  0  0
  143.6636  134.4956  153.9829 H   0  0  0  0  0  0  0  0  0  0  0  0
  142.6283  135.5822  151.8156 H   0  0  0  0  0  0  0  0  0  0  0  0
  142.6734  133.8120  151.6571 H   0  0  0  0  0  0  0  0  0  0  0  0
  1 24  1  0  0  0  0
  1 25  1  0  0  0  0
  1 26  1  0  0  0  0
  1  2  1  0  0  0  0
  2  3  1  0  0  0  0
  2 22  2  0  0  0  0
  3  4  1  0  0  0  0
  3 23  1  0  0  0  0
  4  6  2  0  0  0  0
  4  5  1  0  0  0  0
  5 27  1  0  0  0  0
  5 28  1  0  0  0  0
  5 29  1  0  0  0  0
  6 20  1  0  0  0  0
  6  7  1  0  0  0  0
  7  8  1  0  0  0  0
  7 30  1  0  0  0  0
  7 31  1  0  0  0  0
  8  9  2  0  0  0  0
  8 10  1  0  0  0  0
 10 11  1  0  0  0  0
 10 32  1  0  0  0  0
 11 12  1  0  0  0  0
 11 13  1  0  0  0  0
 11 33  1  0  0  0  0
 12 34  1  0  0  0  0
 12 35  1  0  0  0  0
 12 36  1  0  0  0  0
 13 18  1  0  0  0  0
 13 14  1  0  0  0  0
 13 37  1  0  0  0  0
 14 15  1  0  0  0  0
 14 38  1  0  0  0  0
 14 39  1  0  0  0  0
 15 19  1  0  0  0  0
 15 16  1  0  0  0  0
 15 40  1  0  0  0  0
 16 17  1  0  0  0  0
 16 41  1  0  0  0  0
 16 42  1  0  0  0  0
 17 18  1  0  0  0  0
 17 43  1  0  0  0  0
 17 44  1  0  0  0  0
 18 19  1  0  0  0  0
 18 45  1  0  0  0  0
 19 46  1  0  0  0  0
 19 47  1  0  0  0  0
 20 21  2  0  0  0  0
 20 22  1  0  0  0  0
M  END
> <s_m_source_file>
AV-unprocessed.smi

> <i_m_source_file_index>
2124

> <i_lp_mmshare_version>
43012

> <i_f3d_flags>
0

> <s_epik_input>
W0NIM11jMW5jKFtDSDNdKWMoYyg9TylbbkhdMSlbQ0gyXUMoPU8pW05IXVtDQEhdKFtDSDNdKVtDQEhdKFtDSDJdW0NASF0yMylbQ0BIXShbQ0gyXTMpW0NIMl1bQ0gyXTI=

> <s_epik_cmdline>
J2VwaWtfcHl0aG9uJywgJy1waCcsICc3LjAnLCAnLXRuJywgJzgnLCAnLW1hJywgJzIwMCcsICctbWV0YWxfYmluZGluZycsICctaW1hZScsICc8aW5maWxlLm1hZT4nLCAnLW9tYWUnLCAnPG91dGZpbGUubWFlPic=

> <r_lp_tautomer_probability>
0.156392

> <r_epik_Ionization_Penalty>
0.0139374

> <r_epik_Ionization_Penalty_Charging>
0.0138122

> <r_epik_Ionization_Penalty_Neutral>
0.000125146

> <r_epik_State_Penalty>
1.15342

> <r_epik_Charging_Adjusted_Penalty>
1.16723

> <i_epik_Tot_Q>
0

> <i_epik_Tot_abs_Q>
0

> <r_epik_Metal_State_Penalty>
1.3173

> <b_epik_Metal_Only>
0

> <s_lp_Force_Field>
OPLS_2005

> <r_lp_Energy>
55.952

> <b_lp_Chiralities_Consistent>
1

> <s_lp_Variant>
AV-unprocessed.smi:2124-14

> <Gold.Version>
5.8.1

> <Gold.Id.Protein>
6NUR|6NUR_protein|mol2

> <Gold.PLP.Fitness>
43.4732

> <Gold.PLP.PLP>
-36.6762

> <Gold.PLP.part.hbond>
-2.7380

> <Gold.PLP.part.metal>
0.0000

> <Gold.PLP.part.buried>
-4.6618

> <Gold.PLP.part.nonpolar>
-31.2028

> <Gold.PLP.part.repulsive>
2.5091

> <Gold.PLP.ligand.clash>
0.0000

> <Gold.PLP.ligand.torsion>
0.2959

> <Gold.PLP.Chemscore.Hbond>
2.4560

> <Gold.PLP.Chemscore.CHOScore>
0.0000

> <Gold.PLP.Chemscore.Metal>
0.0000

> <Gold.Chemscore.Hbonds>
donor molecule, donor type, donor heavy atom, donor atom, acceptor molecule, acceptor atom, score
      L1  H     3    23       P1  8028  0.94
      L1  H    10    32       P1 10175  1.00
      P1  H  7989  7998       L1    22  0.39

> <Gold.PLP.Chemscore.Internal.Correction>
0.0209

> <Gold.Rescore>
     Score         DG    S(hbond)    S(metal)    S(lipo)     H(rot)  DE(clash)    DE(int)     intcor
     10.80     -14.39       1.43        0.00      71.57       1.65       0.16       3.43       ----

> <Gold.Chemscore.Fitness>
10.7957

> <Gold.Chemscore.DG>
-14.3867

> <Gold.Chemscore.ZeroCoef>
-5.4800

> <Gold.Chemscore.Hbond>
1.4267

> <Gold.Chemscore.Metal>
0.0000

> <Gold.Chemscore.Lipo>
71.5749

> <Gold.Chemscore.Internal_Hbond>
0.0000

> <Gold.Chemscore.DEClash>
0.1590

> <Gold.Chemscore.DEInternal>
3.4320

> <Gold.Chemscore.Rot>
1.6534

> <Gold.Chemscore.Internal.Correction>
   9.000000E+99

> <Gold.Chemscore.Hbonds>
donor molecule, donor type, donor heavy atom, donor atom, acceptor molecule, acceptor atom, score
      L1  H     3    23       P1  8028  0.90
      L1  H    10    32       P1 10175  1.00
      P1  H  7989  7998       L1    22  0.01

> <Gold.Chemscore.Hbond.Weighted>
-4.7651

> <Gold.Chemscore.Metal.Weighted>
-0.0000

> <Gold.Chemscore.Lipo.Weighted>
-8.3743

> <Gold.Chemscore.Internal_Hbond.Weighted>
0.0000

> <Gold.Chemscore.DEClash.Weighted>
0.1590

> <Gold.Chemscore.DEInternal.Weighted>
3.4320

> <Gold.Chemscore.Rot.Weighted>
4.2326

> <Gold.Chemscore.Internal.Correction.Weighted>
   9.000000E+99

> <Gold.Protein.RotatedTorsions>
[ 6907 6896 6895 6894 ] final  -39.54 input  -60.11 | X-H torsion
[ 7974 7965 7964 7962 ] final  162.02 input  175.53 | X-H torsion
[ 8008 7997 7996 7995 ] final   81.23 input   59.86 | X-H torsion
[ 10167 10162 10161 10158 ] final -132.77 input  -65.29 | X-H torsion
[ 10718 10713 10712 10709 ] final  -35.29 input   66.30 | X-H torsion
[ 10763 10752 10751 10750 ] final   67.25 input  -60.55 | X-H torsion
[ 11005 11000 10999 10996 ] final  147.46 input  -57.11 | X-H torsion

> <Gold.Protein.ActiveResidues>
 VAL166  LYS551  ARG553  GLY616  TRP617  ASP618  TYR619  PRO620  LYS621  CYS622 
 ASP623  PHE694  ASN695  SER759  ASP760  ASP761  ALA762  ILE779  LEU786  VAL792 
 PHE793  MET794  SER795  GLU796  ALA797  LYS798  CYS799  TRP800  GLU811  SER814 

> <Gold.Protein.RotatedAtoms>
  150.9891  134.9230  159.7888 H   0  0  0  0  0  0  0  0  0  0  0  0  # atno 6907 bound_to 6896
  152.5245  134.3306  159.9191 H   0  0  0  0  0  0  0  0  0  0  0  0  # atno 6908 bound_to 6896
  151.3312  133.3958  159.2697 H   0  0  0  0  0  0  0  0  0  0  0  0  # atno 6909 bound_to 6896
  144.7657  139.7980  143.6316 H   0  0  0  0  0  0  0  0  0  0  0  0  # atno 7974 bound_to 7965
  155.8943  140.3437  155.5979 H   0  0  0  0  0  0  0  0  0  0  0  0  # atno 8008 bound_to 7997
  155.7574  140.0828  157.2191 H   0  0  0  0  0  0  0  0  0  0  0  0  # atno 8009 bound_to 7997
  154.4036  140.1542  156.2781 H   0  0  0  0  0  0  0  0  0  0  0  0  # atno 8010 bound_to 7997
  139.9051  143.6561  152.2587 H   0  0  0  0  0  0  0  0  0  0  0  0  # atno 10167 bound_to 10162
  156.3404  130.4292  149.7792 H   0  0  0  0  0  0  0  0  0  0  0  0  # atno 10718 bound_to 10713
  153.0177  135.5291  154.6950 H   0  0  0  0  0  0  0  0  0  0  0  0  # atno 10763 bound_to 10752
  154.6075  135.2874  155.0471 H   0  0  0  0  0  0  0  0  0  0  0  0  # atno 10764 bound_to 10752
  154.1505  135.6563  153.5015 H   0  0  0  0  0  0  0  0  0  0  0  0  # atno 10765 bound_to 10752
  140.0878  134.9059  157.1602 H   0  0  0  0  0  0  0  0  0  0  0  0  # atno 11005 bound_to 11000
  146.1762  139.4933  142.9896 LP  0  0  0  0  0  0  0  0  0  0  0  0  # atno 17320 bound_to 7965
  145.6478  141.0270  143.1776 LP  0  0  0  0  0  0  0  0  0  0  0  0  # atno 17321 bound_to 7965
  139.6991  144.7637  151.1304 LP  0  0  0  0  0  0  0  0  0  0  0  0  # atno 17342 bound_to 10162
  140.7698  143.5482  150.9234 LP  0  0  0  0  0  0  0  0  0  0  0  0  # atno 17343 bound_to 10162
  156.5031  130.8138  151.3140 LP  0  0  0  0  0  0  0  0  0  0  0  0  # atno 17370 bound_to 10713
  157.7446  130.9938  150.2685 LP  0  0  0  0  0  0  0  0  0  0  0  0  # atno 17371 bound_to 10713
  140.3396  134.2719  155.7214 LP  0  0  0  0  0  0  0  0  0  0  0  0  # atno 17394 bound_to 11000
  141.2068  133.7823  157.0156 LP  0  0  0  0  0  0  0  0  0  0  0  0  # atno 17395 bound_to 11000

$$$$
