AV-unprocessed.smi:248|AV-procd|sdf|1897|dock6
  -GOLD-   2262020563D 1   1.00000     0.00000
 Structure written by MMmdl.
 62 65  0  0  0  0  0  0  0  0  1 V2000
  152.1010  144.5487  158.9352 C   0  0  0  0  0  0  0  0  0  0  0  0
  152.1650  143.2314  159.7228 C   0  0  0  0  0  0  0  0  0  0  0  0
  152.9613  143.4253  161.0250 C   0  0  0  0  0  0  0  0  0  0  0  0
  152.7086  142.0934  158.8268 C   0  0  0  0  0  0  0  0  0  0  0  0
  152.1278  140.7776  159.1408 N   0  0  0  0  0  0  0  0  0  0  0  0
  150.6677  140.7763  159.3086 C   0  0  0  0  0  0  0  0  0  0  0  0
  150.0441  139.3941  159.0936 C   0  0  0  0  0  0  0  0  0  0  0  0
  150.7811  138.4053  159.8671 N   0  0  0  0  0  0  0  0  0  0  0  0
  150.1333  137.2212  159.9657 C   0  0  0  0  0  0  0  0  0  0  0  0
  150.0110  136.4208  158.8740 N   0  0  0  0  0  0  0  0  0  0  0  0
  149.3806  135.2468  158.9762 C   0  0  0  0  0  0  0  0  0  0  0  0
  148.8187  134.6914  160.0524 N   0  0  0  0  0  0  0  0  0  0  0  0
  148.9475  135.4926  161.1495 C   0  0  0  0  0  0  0  0  0  0  0  0
  149.5770  136.7670  161.1899 C   0  0  0  0  0  0  0  0  0  0  0  0
  149.5047  137.2965  162.4713 N   0  0  0  0  0  0  0  0  0  0  0  0
  148.8705  136.3821  163.1533 C   0  0  0  0  0  0  0  0  0  0  0  0
  148.5197  135.2535  162.4447 N   0  0  0  0  0  0  0  0  0  0  0  0
  147.8084  134.0864  162.9501 C   0  0  0  0  0  0  0  0  0  0  0  0
  148.5891  133.1727  163.9492 C   0  0  0  0  0  0  0  0  0  0  0  0
  148.9526  134.1245  165.1286 C   0  0  0  0  0  0  0  0  0  0  0  0
  147.8643  134.6810  165.8322 O   0  0  0  0  0  0  0  0  0  0  0  0
  147.6999  131.9847  164.4103 C   0  0  0  0  0  0  0  0  0  0  0  0
  148.4754  130.8594  165.1203 C   0  0  0  0  0  0  0  0  0  0  0  0
  149.5408  130.4082  164.2943 O   0  0  0  0  0  0  0  0  0  0  0  0
  150.5035  131.4210  164.0336 C   0  0  0  0  0  0  0  0  0  0  0  0
  149.8524  132.5847  163.2617 C   0  0  0  0  0  0  0  0  0  0  0  0
  152.2158  138.3001  159.5658 C   0  0  2  0  0  0  0  0  0  0  0  0
  152.9621  137.5684  160.7050 C   0  0  0  0  0  0  0  0  0  0  0  0
  152.8887  139.6581  159.2487 C   0  0  0  0  0  0  0  0  0  0  0  0
  154.1092  139.6769  159.0814 O   0  0  0  0  0  0  0  0  0  0  0  0
  153.0955  144.8759  158.6301 H   0  0  0  0  0  0  0  0  0  0  0  0
  151.6577  145.3448  159.5340 H   0  0  0  0  0  0  0  0  0  0  0  0
  151.4954  144.4410  158.0348 H   0  0  0  0  0  0  0  0  0  0  0  0
  151.1420  142.9761  160.0020 H   0  0  0  0  0  0  0  0  0  0  0  0
  154.0134  143.6245  160.8190 H   0  0  0  0  0  0  0  0  0  0  0  0
  152.9049  142.5458  161.6661 H   0  0  0  0  0  0  0  0  0  0  0  0
  152.5713  144.2646  161.6016 H   0  0  0  0  0  0  0  0  0  0  0  0
  152.5082  142.3317  157.7815 H   0  0  0  0  0  0  0  0  0  0  0  0
  153.7974  142.0643  158.8938 H   0  0  0  0  0  0  0  0  0  0  0  0
  150.4490  141.1167  160.3217 H   0  0  0  0  0  0  0  0  0  0  0  0
  150.1937  141.4887  158.6326 H   0  0  0  0  0  0  0  0  0  0  0  0
  148.9931  139.4119  159.3875 H   0  0  0  0  0  0  0  0  0  0  0  0
  150.0777  139.1350  158.0335 H   0  0  0  0  0  0  0  0  0  0  0  0
  149.3206  134.6686  158.0658 H   0  0  0  0  0  0  0  0  0  0  0  0
  148.6480  136.5032  164.2036 H   0  0  0  0  0  0  0  0  0  0  0  0
  146.8887  134.4427  163.4162 H   0  0  0  0  0  0  0  0  0  0  0  0
  147.4906  133.5018  162.0855 H   0  0  0  0  0  0  0  0  0  0  0  0
  149.5686  133.5968  165.8576 H   0  0  0  0  0  0  0  0  0  0  0  0
  149.5568  134.9562  164.7640 H   0  0  0  0  0  0  0  0  0  0  0  0
  147.5843  134.0636  166.4907 H   0  0  0  0  0  0  0  0  0  0  0  0
  146.8859  132.3399  165.0429 H   0  0  0  0  0  0  0  0  0  0  0  0
  147.2288  131.5164  163.5482 H   0  0  0  0  0  0  0  0  0  0  0  0
  148.8509  131.1653  166.0957 H   0  0  0  0  0  0  0  0  0  0  0  0
  147.8070  130.0180  165.3049 H   0  0  0  0  0  0  0  0  0  0  0  0
  150.9723  131.7486  164.9601 H   0  0  0  0  0  0  0  0  0  0  0  0
  151.3007  130.9863  163.4307 H   0  0  0  0  0  0  0  0  0  0  0  0
  149.5894  132.1825  162.2854 H   0  0  0  0  0  0  0  0  0  0  0  0
  150.5859  133.3698  163.0756 H   0  0  0  0  0  0  0  0  0  0  0  0
  152.3235  137.7036  158.6583 H   0  0  0  0  0  0  0  0  0  0  0  0
  154.0316  137.4931  160.5063 H   0  0  0  0  0  0  0  0  0  0  0  0
  152.6031  136.5475  160.8357 H   0  0  0  0  0  0  0  0  0  0  0  0
  152.8381  138.0892  161.6555 H   0  0  0  0  0  0  0  0  0  0  0  0
  1  2  1  0  0  0  0
  1 31  1  0  0  0  0
  1 32  1  0  0  0  0
  1 33  1  0  0  0  0
  2  3  1  0  0  0  0
  2  4  1  0  0  0  0
  2 34  1  0  0  0  0
  3 35  1  0  0  0  0
  3 36  1  0  0  0  0
  3 37  1  0  0  0  0
  4  5  1  0  0  0  0
  4 38  1  0  0  0  0
  4 39  1  0  0  0  0
  5 29  1  0  0  0  0
  5  6  1  0  0  0  0
  6  7  1  0  0  0  0
  6 40  1  0  0  0  0
  6 41  1  0  0  0  0
  7  8  1  0  0  0  0
  7 42  1  0  0  0  0
  7 43  1  0  0  0  0
  8  9  1  0  0  0  0
  8 27  1  0  0  0  0
  9 14  1  0  0  0  0
  9 10  2  0  0  0  0
 10 11  1  0  0  0  0
 11 12  2  0  0  0  0
 11 44  1  0  0  0  0
 12 13  1  0  0  0  0
 13 17  1  0  0  0  0
 13 14  2  0  0  0  0
 14 15  1  0  0  0  0
 15 16  2  0  0  0  0
 16 17  1  0  0  0  0
 16 45  1  0  0  0  0
 17 18  1  0  0  0  0
 18 19  1  0  0  0  0
 18 46  1  0  0  0  0
 18 47  1  0  0  0  0
 19 26  1  0  0  0  0
 19 20  1  0  0  0  0
 19 22  1  0  0  0  0
 20 21  1  0  0  0  0
 20 48  1  0  0  0  0
 20 49  1  0  0  0  0
 21 50  1  0  0  0  0
 22 23  1  0  0  0  0
 22 51  1  0  0  0  0
 22 52  1  0  0  0  0
 23 24  1  0  0  0  0
 23 53  1  0  0  0  0
 23 54  1  0  0  0  0
 24 25  1  0  0  0  0
 25 26  1  0  0  0  0
 25 55  1  0  0  0  0
 25 56  1  0  0  0  0
 26 57  1  0  0  0  0
 26 58  1  0  0  0  0
 27 28  1  0  0  0  0
 27 29  1  0  0  0  0
 27 59  1  0  0  0  0
 28 60  1  0  0  0  0
 28 61  1  0  0  0  0
 28 62  1  0  0  0  0
 29 30  2  0  0  0  0
M  END
> <s_m_source_file>
AV-unprocessed.smi

> <i_m_source_file_index>
248

> <i_lp_mmshare_version>
43012

> <i_f3d_flags>
0

> <s_epik_input>
W0NIM11bQ0hdKFtDSDNdKVtDSDJdTjFbQ0gyXVtDSDJdTihbQ0BASF0oW0NIM10pQzE9TyljKG5bY0hdbjIpYyhjMjMpbltjSF1uM1tDSDJdQzQoW0NIMl1bT0hdKVtDSDJdW0NIMl1PW0NIMl1bQ0gyXTQ=

> <s_epik_cmdline>
J2VwaWtfcHl0aG9uJywgJy1waCcsICc3LjAnLCAnLXRuJywgJzgnLCAnLW1hJywgJzIwMCcsICctbWV0YWxfYmluZGluZycsICctaW1hZScsICc8aW5maWxlLm1hZT4nLCAnLW9tYWUnLCAnPG91dGZpbGUubWFlPic=

> <r_lp_tautomer_probability>
1

> <r_epik_Ionization_Penalty>
0.000593973

> <r_epik_Ionization_Penalty_Charging>
0

> <r_epik_Ionization_Penalty_Neutral>
0.000593973

> <r_epik_State_Penalty>
0.000283267

> <r_epik_Charging_Adjusted_Penalty>
0.000283267

> <i_epik_Tot_Q>
0

> <i_epik_Tot_abs_Q>
0

> <r_epik_Metal_State_Penalty>
-0

> <b_epik_Metal_Only>
0

> <s_lp_Force_Field>
OPLS_2005

> <r_lp_Energy>
47.3368

> <b_lp_Chiralities_Consistent>
1

> <s_lp_Variant>
AV-unprocessed.smi:248-2

> <Gold.Version>
5.8.1

> <Gold.Id.Protein>
6NUR|6NUR_protein|mol2

> <Gold.PLP.Fitness>
51.5669

> <Gold.PLP.PLP>
-45.7910

> <Gold.PLP.part.hbond>
-3.6911

> <Gold.PLP.part.metal>
0.0000

> <Gold.PLP.part.buried>
-5.2476

> <Gold.PLP.part.nonpolar>
-37.3885

> <Gold.PLP.part.repulsive>
0.0000

> <Gold.PLP.ligand.clash>
0.0000

> <Gold.PLP.ligand.torsion>
0.7712

> <Gold.PLP.Chemscore.Hbond>
2.3120

> <Gold.PLP.Chemscore.CHOScore>
0.0000

> <Gold.PLP.Chemscore.Metal>
0.0000

> <Gold.Chemscore.Hbonds>
donor molecule, donor type, donor heavy atom, donor atom, acceptor molecule, acceptor atom, score
      P1  H  6931  6943       L1    15  0.01
      P1  H  7997  8010       L1    30  1.00

> <Gold.PLP.Chemscore.Internal.Correction>
0.3823

> <Gold.Rescore>
     Score         DG    S(hbond)    S(metal)    S(lipo)     H(rot)  DE(clash)    DE(int)     intcor
     16.59     -17.53       2.12        0.00     102.59       2.75       0.13       0.81       ----

> <Gold.Chemscore.Fitness>
16.5886

> <Gold.Chemscore.DG>
-17.5304

> <Gold.Chemscore.ZeroCoef>
-5.4800

> <Gold.Chemscore.Hbond>
2.1238

> <Gold.Chemscore.Metal>
0.0000

> <Gold.Chemscore.Lipo>
102.5895

> <Gold.Chemscore.Internal_Hbond>
0.0000

> <Gold.Chemscore.DEClash>
0.1312

> <Gold.Chemscore.DEInternal>
0.8106

> <Gold.Chemscore.Rot>
2.7523

> <Gold.Chemscore.Internal.Correction>
   9.000000E+99

> <Gold.Chemscore.Hbonds>
donor molecule, donor type, donor heavy atom, donor atom, acceptor molecule, acceptor atom, score
      P1  H  7997  8010       L1    30  0.88

> <Gold.Chemscore.Hbond.Weighted>
-7.0933

> <Gold.Chemscore.Metal.Weighted>
-0.0000

> <Gold.Chemscore.Lipo.Weighted>
-12.0030

> <Gold.Chemscore.Internal_Hbond.Weighted>
0.0000

> <Gold.Chemscore.DEClash.Weighted>
0.1312

> <Gold.Chemscore.DEInternal.Weighted>
0.8106

> <Gold.Chemscore.Rot.Weighted>
7.0459

> <Gold.Chemscore.Internal.Correction.Weighted>
   9.000000E+99

> <Gold.Protein.RotatedTorsions>
[ 6907 6896 6895 6894 ] final -113.14 input  -60.11 | X-H torsion
[ 7974 7965 7964 7962 ] final -178.33 input  175.53 | X-H torsion
[ 8008 7997 7996 7995 ] final   19.85 input   59.86 | X-H torsion
[ 10167 10162 10161 10158 ] final  -25.57 input  -65.29 | X-H torsion
[ 10718 10713 10712 10709 ] final  126.17 input   66.30 | X-H torsion
[ 10763 10752 10751 10750 ] final -112.61 input  -60.55 | X-H torsion
[ 11005 11000 10999 10996 ] final  102.13 input  -57.11 | X-H torsion

> <Gold.Protein.ActiveResidues>
 VAL166  LYS551  ARG553  GLY616  TRP617  ASP618  TYR619  PRO620  LYS621  CYS622 
 ASP623  PHE694  ASN695  SER759  ASP760  ASP761  ALA762  ILE779  LEU786  VAL792 
 PHE793  MET794  SER795  GLU796  ALA797  LYS798  CYS799  TRP800  GLU811  SER814 

> <Gold.Protein.RotatedAtoms>
  150.7808  133.8988  159.3334 H   0  0  0  0  0  0  0  0  0  0  0  0  # atno 6907 bound_to 6896
  151.6851  135.0953  160.0233 H   0  0  0  0  0  0  0  0  0  0  0  0  # atno 6908 bound_to 6896
  152.3858  133.6571  159.6233 H   0  0  0  0  0  0  0  0  0  0  0  0  # atno 6909 bound_to 6896
  144.7130  140.0884  143.6422 H   0  0  0  0  0  0  0  0  0  0  0  0  # atno 7974 bound_to 7965
  154.9268  140.3035  155.5188 H   0  0  0  0  0  0  0  0  0  0  0  0  # atno 8008 bound_to 7997
  156.3006  140.2361  156.4261 H   0  0  0  0  0  0  0  0  0  0  0  0  # atno 8009 bound_to 7997
  154.8276  140.0420  157.1443 H   0  0  0  0  0  0  0  0  0  0  0  0  # atno 8010 bound_to 7997
  140.7286  143.4253  151.0886 H   0  0  0  0  0  0  0  0  0  0  0  0  # atno 10167 bound_to 10162
  157.5442  131.1096  150.8810 H   0  0  0  0  0  0  0  0  0  0  0  0  # atno 10718 bound_to 10713
  154.8358  135.4484  154.1220 H   0  0  0  0  0  0  0  0  0  0  0  0  # atno 10763 bound_to 10752
  153.2454  135.6921  153.7744 H   0  0  0  0  0  0  0  0  0  0  0  0  # atno 10764 bound_to 10752
  153.7076  135.3362  155.3215 H   0  0  0  0  0  0  0  0  0  0  0  0  # atno 10765 bound_to 10752
  139.8776  134.9211  156.5011 H   0  0  0  0  0  0  0  0  0  0  0  0  # atno 11005 bound_to 11000
  145.9642  139.2822  143.1138 LP  0  0  0  0  0  0  0  0  0  0  0  0  # atno 17320 bound_to 7965
  145.9188  140.9130  143.0416 LP  0  0  0  0  0  0  0  0  0  0  0  0  # atno 17321 bound_to 7965
  139.7904  143.8227  152.3151 LP  0  0  0  0  0  0  0  0  0  0  0  0  # atno 17342 bound_to 10162
  139.8209  144.7296  150.9574 LP  0  0  0  0  0  0  0  0  0  0  0  0  # atno 17343 bound_to 10162
  156.9354  130.5365  149.5279 LP  0  0  0  0  0  0  0  0  0  0  0  0  # atno 17370 bound_to 10713
  156.0521  130.5589  150.9012 LP  0  0  0  0  0  0  0  0  0  0  0  0  # atno 17371 bound_to 10713
  140.8589  133.8075  155.9244 LP  0  0  0  0  0  0  0  0  0  0  0  0  # atno 17394 bound_to 11000
  140.9070  134.2308  157.5008 LP  0  0  0  0  0  0  0  0  0  0  0  0  # atno 17395 bound_to 11000

$$$$
