AV-unprocessed.smi:673|AV-procd|sdf|3298|dock5
  -GOLD-   22720 0263D 1   1.00000     0.00000
 Structure written by MMmdl.
 45 46  0  0  0  0  0  0  0  0  1 V2000
  156.2881  138.4556  160.5060 C   0  0  0  0  0  0  0  0  0  0  0  0
  156.5047  139.9596  160.2752 C   0  0  1  0  0  0  0  0  0  0  0  0
  157.0705  140.2850  158.8723 C   0  0  0  0  0  0  0  0  0  0  0  0
  158.2998  141.0597  158.9042 N   0  0  0  0  0  0  0  0  0  0  0  0
  158.9695  141.6678  157.9234 C   0  0  0  0  0  0  0  0  0  0  0  0
  160.0669  142.2904  158.3301 N   0  0  0  0  0  0  0  0  0  0  0  0
  160.0125  142.0003  159.6641 C   0  0  0  0  0  0  0  0  0  0  0  0
  158.9746  141.2641  160.0602 N   0  0  0  0  0  0  0  0  0  0  0  0
  155.2497  140.6667  160.5178 N   0  0  0  0  0  0  0  0  0  0  0  0
  154.1252  140.5535  159.7892 C   0  0  0  0  0  0  0  0  0  0  0  0
  154.0566  139.8148  158.8050 O   0  0  0  0  0  0  0  0  0  0  0  0
  153.0664  141.2611  160.2657 N   0  0  0  0  0  0  0  0  0  0  0  0
  153.0551  141.9419  161.5768 C   0  0  0  0  0  0  0  0  0  0  0  0
  152.2334  143.2455  161.6279 C   0  0  0  0  0  0  0  0  0  0  0  0
  152.4943  144.2187  160.4580 C   0  0  0  0  0  0  0  0  0  0  0  0
  151.6604  143.9931  159.1670 C   0  0  0  0  0  0  0  0  0  0  0  0
  150.1496  144.1685  159.4422 C   0  0  0  0  0  0  0  0  0  0  0  0
  152.0663  145.0810  158.1515 C   0  0  0  0  0  0  0  0  0  0  0  0
  151.9328  142.6143  158.5127 C   0  0  0  0  0  0  0  0  0  0  0  0
  151.8489  141.3958  159.4528 C   0  0  0  0  0  0  0  0  0  0  0  0
  157.2047  137.8956  160.3188 H   0  0  0  0  0  0  0  0  0  0  0  0
  155.5113  138.0530  159.8549 H   0  0  0  0  0  0  0  0  0  0  0  0
  155.9874  138.2586  161.5357 H   0  0  0  0  0  0  0  0  0  0  0  0
  157.2327  140.2983  161.0142 H   0  0  0  0  0  0  0  0  0  0  0  0
  157.2473  139.3710  158.3033 H   0  0  0  0  0  0  0  0  0  0  0  0
  156.3321  140.8535  158.3059 H   0  0  0  0  0  0  0  0  0  0  0  0
  158.6449  141.6596  156.8932 H   0  0  0  0  0  0  0  0  0  0  0  0
  160.7606  142.3414  160.3644 H   0  0  0  0  0  0  0  0  0  0  0  0
  155.2218  141.2724  161.3250 H   0  0  0  0  0  0  0  0  0  0  0  0
  152.6916  141.2450  162.3329 H   0  0  0  0  0  0  0  0  0  0  0  0
  154.0675  142.2167  161.8761 H   0  0  0  0  0  0  0  0  0  0  0  0
  151.1730  143.0247  161.7317 H   0  0  0  0  0  0  0  0  0  0  0  0
  152.4959  143.7538  162.5564 H   0  0  0  0  0  0  0  0  0  0  0  0
  152.2891  145.2275  160.8190 H   0  0  0  0  0  0  0  0  0  0  0  0
  153.5591  144.2122  160.2207 H   0  0  0  0  0  0  0  0  0  0  0  0
  149.5748  144.1359  158.5159 H   0  0  0  0  0  0  0  0  0  0  0  0
  149.9427  145.1282  159.9171 H   0  0  0  0  0  0  0  0  0  0  0  0
  149.7439  143.3917  160.0881 H   0  0  0  0  0  0  0  0  0  0  0  0
  151.5150  144.9796  157.2158 H   0  0  0  0  0  0  0  0  0  0  0  0
  153.1286  145.0268  157.9104 H   0  0  0  0  0  0  0  0  0  0  0  0
  151.8715  146.0819  158.5382 H   0  0  0  0  0  0  0  0  0  0  0  0
  151.2219  142.4694  157.6982 H   0  0  0  0  0  0  0  0  0  0  0  0
  152.9125  142.6203  158.0326 H   0  0  0  0  0  0  0  0  0  0  0  0
  151.7041  140.4962  158.8519 H   0  0  0  0  0  0  0  0  0  0  0  0
  150.9614  141.4339  160.0830 H   0  0  0  0  0  0  0  0  0  0  0  0
  1  2  1  0  0  0  0
  1 21  1  0  0  0  0
  1 22  1  0  0  0  0
  1 23  1  0  0  0  0
  2  3  1  0  0  0  0
  2  9  1  0  0  0  0
  2 24  1  0  0  0  0
  3  4  1  0  0  0  0
  3 25  1  0  0  0  0
  3 26  1  0  0  0  0
  4  8  1  0  0  0  0
  4  5  1  0  0  0  0
  5  6  2  0  0  0  0
  5 27  1  0  0  0  0
  6  7  1  0  0  0  0
  7  8  2  0  0  0  0
  7 28  1  0  0  0  0
  9 10  1  0  0  0  0
  9 29  1  0  0  0  0
 10 11  2  0  0  0  0
 10 12  1  0  0  0  0
 12 20  1  0  0  0  0
 12 13  1  0  0  0  0
 13 14  1  0  0  0  0
 13 30  1  0  0  0  0
 13 31  1  0  0  0  0
 14 15  1  0  0  0  0
 14 32  1  0  0  0  0
 14 33  1  0  0  0  0
 15 16  1  0  0  0  0
 15 34  1  0  0  0  0
 15 35  1  0  0  0  0
 16 17  1  0  0  0  0
 16 18  1  0  0  0  0
 16 19  1  0  0  0  0
 17 36  1  0  0  0  0
 17 37  1  0  0  0  0
 17 38  1  0  0  0  0
 18 39  1  0  0  0  0
 18 40  1  0  0  0  0
 18 41  1  0  0  0  0
 19 20  1  0  0  0  0
 19 42  1  0  0  0  0
 19 43  1  0  0  0  0
 20 44  1  0  0  0  0
 20 45  1  0  0  0  0
M  END
> <s_m_source_file>
AV-unprocessed.smi

> <i_m_source_file_index>
673

> <i_lp_mmshare_version>
43012

> <i_f3d_flags>
0

> <s_epik_input>
bjFbY0hdbltjSF1uMVtDSDJdW0NAQEhdKFtDSDNdKVtOSF1DKD1PKU4oW0NIMl1bQ0gyXTIpW0NIMl1bQ0gyXVtDSDJdQzIoW0NIM10pW0NIM10=

> <s_epik_cmdline>
J2VwaWtfcHl0aG9uJywgJy1waCcsICc3LjAnLCAnLXRuJywgJzgnLCAnLW1hJywgJzIwMCcsICctbWV0YWxfYmluZGluZycsICctaW1hZScsICc8aW5maWxlLm1hZT4nLCAnLW9tYWUnLCAnPG91dGZpbGUubWFlPic=

> <r_lp_tautomer_probability>
1

> <r_epik_Ionization_Penalty>
0.000118908

> <r_epik_Ionization_Penalty_Charging>
0

> <r_epik_Ionization_Penalty_Neutral>
0.000118908

> <r_epik_State_Penalty>
-0

> <r_epik_Charging_Adjusted_Penalty>
0

> <i_epik_Tot_Q>
0

> <i_epik_Tot_abs_Q>
0

> <r_epik_Metal_State_Penalty>
-0

> <b_epik_Metal_Only>
0

> <s_lp_Force_Field>
OPLS_2005

> <r_lp_Energy>
39.1702

> <b_lp_Chiralities_Consistent>
1

> <s_lp_Variant>
AV-unprocessed.smi:673-2

> <Gold.Version>
5.8.1

> <Gold.Id.Protein>
6NUR|6NUR_protein|mol2

> <Gold.PLP.Fitness>
49.1285

> <Gold.PLP.PLP>
-47.8334

> <Gold.PLP.part.hbond>
-4.6460

> <Gold.PLP.part.metal>
0.0000

> <Gold.PLP.part.buried>
-6.1817

> <Gold.PLP.part.nonpolar>
-37.7917

> <Gold.PLP.part.repulsive>
0.1932

> <Gold.PLP.ligand.clash>
0.0000

> <Gold.PLP.ligand.torsion>
0.8956

> <Gold.PLP.Chemscore.Hbond>
1.0000

> <Gold.PLP.Chemscore.CHOScore>
0.0000

> <Gold.PLP.Chemscore.Metal>
0.0000

> <Gold.Chemscore.Hbonds>
donor molecule, donor type, donor heavy atom, donor atom, acceptor molecule, acceptor atom, score
      P1  H  7997  8008       L1    11  1.00

> <Gold.PLP.Chemscore.Internal.Correction>
0.0864

> <Gold.Rescore>
     Score         DG    S(hbond)    S(metal)    S(lipo)     H(rot)  DE(clash)    DE(int)     intcor
     13.71     -16.24       0.99        0.00     104.60       1.86       0.63       1.91       ----

> <Gold.Chemscore.Fitness>
13.7050

> <Gold.Chemscore.DG>
-16.2433

> <Gold.Chemscore.ZeroCoef>
-5.4800

> <Gold.Chemscore.Hbond>
0.9852

> <Gold.Chemscore.Metal>
0.0000

> <Gold.Chemscore.Lipo>
104.5990

> <Gold.Chemscore.Internal_Hbond>
0.0000

> <Gold.Chemscore.DEClash>
0.6319

> <Gold.Chemscore.DEInternal>
1.9064

> <Gold.Chemscore.Rot>
1.8614

> <Gold.Chemscore.Internal.Correction>
   9.000000E+99

> <Gold.Chemscore.Hbonds>
donor molecule, donor type, donor heavy atom, donor atom, acceptor molecule, acceptor atom, score
      P1  H  7997  8008       L1    11  0.99

> <Gold.Chemscore.Hbond.Weighted>
-3.2906

> <Gold.Chemscore.Metal.Weighted>
-0.0000

> <Gold.Chemscore.Lipo.Weighted>
-12.2381

> <Gold.Chemscore.Internal_Hbond.Weighted>
0.0000

> <Gold.Chemscore.DEClash.Weighted>
0.6319

> <Gold.Chemscore.DEInternal.Weighted>
1.9064

> <Gold.Chemscore.Rot.Weighted>
4.7653

> <Gold.Chemscore.Internal.Correction.Weighted>
   9.000000E+99

> <Gold.Protein.RotatedTorsions>
[ 6907 6896 6895 6894 ] final  130.02 input  -60.11 | X-H torsion
[ 7974 7965 7964 7962 ] final  159.64 input  175.53 | X-H torsion
[ 8008 7997 7996 7995 ] final -106.28 input   59.86 | X-H torsion
[ 10167 10162 10161 10158 ] final   13.88 input  -65.29 | X-H torsion
[ 10718 10713 10712 10709 ] final  -92.11 input   66.30 | X-H torsion
[ 10763 10752 10751 10750 ] final  -31.10 input  -60.55 | X-H torsion
[ 11005 11000 10999 10996 ] final  -99.91 input  -57.11 | X-H torsion

> <Gold.Protein.ActiveResidues>
 VAL166  LYS551  ARG553  GLY616  TRP617  ASP618  TYR619  PRO620  LYS621  CYS622 
 ASP623  PHE694  ASN695  SER759  ASP760  ASP761  ALA762  ILE779  LEU786  VAL792 
 PHE793  MET794  SER795  GLU796  ALA797  LYS798  CYS799  TRP800  GLU811  SER814 

> <Gold.Protein.RotatedAtoms>
  152.3567  133.6246  159.5984 H   0  0  0  0  0  0  0  0  0  0  0  0  # atno 6907 bound_to 6896
  150.7573  133.9488  159.3488 H   0  0  0  0  0  0  0  0  0  0  0  0  # atno 6908 bound_to 6896
  151.7332  135.0871  160.0354 H   0  0  0  0  0  0  0  0  0  0  0  0  # atno 6909 bound_to 6896
  144.7779  139.7645  143.6271 H   0  0  0  0  0  0  0  0  0  0  0  0  # atno 7974 bound_to 7965
  154.9123  140.0409  157.1953 H   0  0  0  0  0  0  0  0  0  0  0  0  # atno 8008 bound_to 7997
  154.8336  140.2903  155.5684 H   0  0  0  0  0  0  0  0  0  0  0  0  # atno 8009 bound_to 7997
  156.2988  140.2496  156.3266 H   0  0  0  0  0  0  0  0  0  0  0  0  # atno 8010 bound_to 7997
  140.5973  143.8675  150.6930 H   0  0  0  0  0  0  0  0  0  0  0  0  # atno 10167 bound_to 10162
  155.9999  130.4974  150.5576 H   0  0  0  0  0  0  0  0  0  0  0  0  # atno 10718 bound_to 10713
  153.7919  135.6897  153.4870 H   0  0  0  0  0  0  0  0  0  0  0  0  # atno 10763 bound_to 10752
  153.1744  135.4530  154.9944 H   0  0  0  0  0  0  0  0  0  0  0  0  # atno 10764 bound_to 10752
  154.8041  135.3349  154.7414 H   0  0  0  0  0  0  0  0  0  0  0  0  # atno 10765 bound_to 10752
  141.1291  133.8358  157.1034 H   0  0  0  0  0  0  0  0  0  0  0  0  # atno 11005 bound_to 11000
  146.1970  139.5243  142.9768 LP  0  0  0  0  0  0  0  0  0  0  0  0  # atno 17320 bound_to 7965
  145.6132  141.0336  143.1955 LP  0  0  0  0  0  0  0  0  0  0  0  0  # atno 17321 bound_to 7965
  140.2213  143.3807  152.1641 LP  0  0  0  0  0  0  0  0  0  0  0  0  # atno 17342 bound_to 10162
  139.5267  144.7110  151.5204 LP  0  0  0  0  0  0  0  0  0  0  0  0  # atno 17343 bound_to 10162
  157.3490  131.0730  151.1728 LP  0  0  0  0  0  0  0  0  0  0  0  0  # atno 17370 bound_to 10713
  157.2551  130.6632  149.5949 LP  0  0  0  0  0  0  0  0  0  0  0  0  # atno 17371 bound_to 10713
  140.0319  134.9897  157.0797 LP  0  0  0  0  0  0  0  0  0  0  0  0  # atno 17394 bound_to 11000
  140.4271  134.1819  155.7166 LP  0  0  0  0  0  0  0  0  0  0  0  0  # atno 17395 bound_to 11000

$$$$
