AV-unprocessed.smi:1738|AV-procd|sdf|7004|dock5
  -GOLD-   22720 8213D 1   1.00000     0.00000
 Structure written by MMmdl.
 46 48  0  0  0  0  0  0  0  0  2 V2000
  134.4925  137.6302  154.0437 C   0  0  0  0  0  0  0  0  0  0  0  0
  135.5313  139.0113  154.6725 S   0  0  0  0  0  0  0  0  0  0  0  0
  135.2457  140.1996  153.8533 O   0  0  0  0  0  0  0  0  0  0  0  0
  135.3721  139.0808  156.1334 O   0  0  0  0  0  0  0  0  0  0  0  0
  137.2033  138.4767  154.3256 C   0  0  0  0  0  0  0  0  0  0  0  0
  137.6433  137.2003  154.7289 C   0  0  0  0  0  0  0  0  0  0  0  0
  138.9805  136.8449  154.4680 C   0  0  0  0  0  0  0  0  0  0  0  0
  139.8285  137.7838  153.8285 C   0  0  0  0  0  0  0  0  0  0  0  0
  141.1943  137.5586  153.4989 N   0  0  0  0  0  0  0  0  0  0  0  0
  141.9536  136.4667  153.6970 C   0  0  0  0  0  0  0  0  0  0  0  0
  141.5858  135.4250  154.2378 O   0  0  0  0  0  0  0  0  0  0  0  0
  143.1970  136.6529  153.2312 N   0  0  0  0  0  0  0  0  0  0  0  0
  144.2674  135.6598  153.2685 C   0  0  1  0  0  0  0  0  0  0  0  0
  144.6419  135.2393  154.6848 C   0  0  0  0  0  0  0  0  0  0  0  0
  145.3718  133.9163  154.4475 C   0  0  0  0  0  0  0  0  0  0  0  0
  144.7154  133.2922  153.2755 N   0  3  2  0  0  0  0  0  0  0  0  0
  145.6344  132.5441  152.3832 C   0  0  0  0  0  0  0  0  0  0  0  0
  144.8612  131.9087  151.2129 C   0  0  0  0  0  0  0  0  0  0  0  0
  143.9231  132.9025  150.4963 C   0  0  0  0  0  0  0  0  0  0  0  0
  144.0279  134.3244  151.0689 C   0  0  0  0  0  0  0  0  0  0  0  0
  143.8752  134.3271  152.6073 C   0  0  2  0  0  0  0  0  0  0  0  0
  139.2756  139.0352  153.4787 C   0  0  0  0  0  0  0  0  0  0  0  0
  137.9964  139.3878  153.7239 N   0  0  0  0  0  0  0  0  0  0  0  0
  133.4409  137.8622  154.2107 H   0  0  0  0  0  0  0  0  0  0  0  0
  134.7496  136.7120  154.5716 H   0  0  0  0  0  0  0  0  0  0  0  0
  134.6706  137.4974  152.9767 H   0  0  0  0  0  0  0  0  0  0  0  0
  136.9787  136.5066  155.2221 H   0  0  0  0  0  0  0  0  0  0  0  0
  139.3145  135.8635  154.7627 H   0  0  0  0  0  0  0  0  0  0  0  0
  141.6600  138.3423  153.0649 H   0  0  0  0  0  0  0  0  0  0  0  0
  143.4144  137.5414  152.8035 H   0  0  0  0  0  0  0  0  0  0  0  0
  145.1662  136.0573  152.7919 H   0  0  0  0  0  0  0  0  0  0  0  0
  145.2597  135.9763  155.1991 H   0  0  0  0  0  0  0  0  0  0  0  0
  143.7456  135.0686  155.2834 H   0  0  0  0  0  0  0  0  0  0  0  0
  146.4201  134.1209  154.2231 H   0  0  0  0  0  0  0  0  0  0  0  0
  145.3405  133.2601  155.3177 H   0  0  0  0  0  0  0  0  0  0  0  0
  146.4051  133.2167  152.0029 H   0  0  0  0  0  0  0  0  0  0  0  0
  146.1481  131.7704  152.9550 H   0  0  0  0  0  0  0  0  0  0  0  0
  145.5694  131.4855  150.4996 H   0  0  0  0  0  0  0  0  0  0  0  0
  144.2724  131.0687  151.5835 H   0  0  0  0  0  0  0  0  0  0  0  0
  144.1366  132.9166  149.4270 H   0  0  0  0  0  0  0  0  0  0  0  0
  142.8937  132.5553  150.5936 H   0  0  0  0  0  0  0  0  0  0  0  0
  144.9894  134.7554  150.7861 H   0  0  0  0  0  0  0  0  0  0  0  0
  143.2678  134.9605  150.6148 H   0  0  0  0  0  0  0  0  0  0  0  0
  142.8419  134.0861  152.8627 H   0  0  0  0  0  0  0  0  0  0  0  0
  139.8817  139.7834  152.9887 H   0  0  0  0  0  0  0  0  0  0  0  0
  144.0633  132.6120  153.6397 H   0  0  0  0  0  0  0  0  0  0  0  0
  1  2  1  0  0  0  0
  1 24  1  0  0  0  0
  1 25  1  0  0  0  0
  1 26  1  0  0  0  0
  2  3  2  0  0  0  0
  2  4  2  0  0  0  0
  2  5  1  0  0  0  0
  5 23  1  0  0  0  0
  5  6  2  0  0  0  0
  6  7  1  0  0  0  0
  6 27  1  0  0  0  0
  7  8  2  0  0  0  0
  7 28  1  0  0  0  0
  8  9  1  0  0  0  0
  8 22  1  0  0  0  0
  9 10  1  0  0  0  0
  9 29  1  0  0  0  0
 10 11  2  0  0  0  0
 10 12  1  0  0  0  0
 12 13  1  0  0  0  0
 12 30  1  0  0  0  0
 13 21  1  0  0  0  0
 13 14  1  0  0  0  0
 13 31  1  0  0  0  0
 14 15  1  0  0  0  0
 14 32  1  0  0  0  0
 14 33  1  0  0  0  0
 15 16  1  0  0  0  0
 15 34  1  0  0  0  0
 15 35  1  0  0  0  0
 16 21  1  0  0  0  0
 16 17  1  0  0  0  0
 16 46  1  0  0  0  0
 17 18  1  0  0  0  0
 17 36  1  0  0  0  0
 17 37  1  0  0  0  0
 18 19  1  0  0  0  0
 18 38  1  0  0  0  0
 18 39  1  0  0  0  0
 19 20  1  0  0  0  0
 19 40  1  0  0  0  0
 19 41  1  0  0  0  0
 20 21  1  0  0  0  0
 20 42  1  0  0  0  0
 20 43  1  0  0  0  0
 21 44  1  0  0  0  0
 22 23  2  0  0  0  0
 22 45  1  0  0  0  0
M  CHG  1  16   1
M  END
> <s_m_source_file>
AV-unprocessed.smi

> <i_m_source_file_index>
1738

> <i_lp_mmshare_version>
43012

> <i_f3d_flags>
0

> <s_epik_input>
W0NIM11TKD1PKSg9TyljMVtjSF1bY0hdYyhbY0hdbjEpW05IXUMoPU8pW05IXVtDQEhdKFtDSDJdW0NIMl0yKVtDQEBIXShOMjMpW0NIMl1bQ0gyXVtDSDJdW0NIMl0z

> <s_epik_cmdline>
J2VwaWtfcHl0aG9uJywgJy1waCcsICc3LjAnLCAnLXRuJywgJzgnLCAnLW1hJywgJzIwMCcsICctbWV0YWxfYmluZGluZycsICctaW1hZScsICc8aW5maWxlLm1hZT4nLCAnLW9tYWUnLCAnPG91dGZpbGUubWFlPic=

> <r_epik_Ionization_Penalty>
0.00100042

> <r_epik_Ionization_Penalty_Charging>
0.000974069

> <r_epik_Ionization_Penalty_Neutral>
2.63543e-05

> <r_epik_State_Penalty>
0.000633842

> <r_epik_Charging_Adjusted_Penalty>
0.00160791

> <i_epik_Tot_Q>
1

> <i_epik_Tot_abs_Q>
1

> <r_epik_Metal_State_Penalty>
-0

> <b_epik_Metal_Only>
0

> <s_lp_Force_Field>
OPLS_2005

> <r_lp_Energy>
42.7986

> <b_lp_Chiralities_Consistent>
1

> <s_lp_Variant>
AV-unprocessed.smi:1738-8

> <Gold.Version>
5.8.1

> <Gold.Id.Protein>
6NUR|6NUR_protein|mol2

> <Gold.PLP.Fitness>
43.3104

> <Gold.PLP.PLP>
-33.4096

> <Gold.PLP.part.hbond>
-2.0000

> <Gold.PLP.part.metal>
0.0000

> <Gold.PLP.part.buried>
-6.9934

> <Gold.PLP.part.nonpolar>
-25.1506

> <Gold.PLP.part.repulsive>
0.1700

> <Gold.PLP.ligand.clash>
0.0000

> <Gold.PLP.ligand.torsion>
1.1247

> <Gold.PLP.Chemscore.Hbond>
2.3744

> <Gold.PLP.Chemscore.CHOScore>
1.0000

> <Gold.PLP.Chemscore.Metal>
0.0000

> <Gold.Chemscore.Hbonds>
donor molecule, donor type, donor heavy atom, donor atom, acceptor molecule, acceptor atom, score
      L1  H    16    46       P1 10957  2.00
      P1  H 11000 11005       L1    11  0.37
      L1  C    22    45       P1 10160  1.00

> <Gold.PLP.Chemscore.Internal.Correction>
2.0270

> <Gold.Rescore>
     Score         DG    S(hbond)    S(metal)    S(lipo)     H(rot)  DE(clash)    DE(int)     intcor
     12.57     -15.81       1.39        0.00      70.46       1.00       0.02       3.22       ----

> <Gold.Chemscore.Fitness>
12.5685

> <Gold.Chemscore.DG>
-15.8105

> <Gold.Chemscore.ZeroCoef>
-5.4800

> <Gold.Chemscore.Hbond>
1.3912

> <Gold.Chemscore.Metal>
0.0000

> <Gold.Chemscore.Lipo>
70.4619

> <Gold.Chemscore.Internal_Hbond>
0.0000

> <Gold.Chemscore.DEClash>
0.0178

> <Gold.Chemscore.DEInternal>
3.2242

> <Gold.Chemscore.Rot>
1.0000

> <Gold.Chemscore.Internal.Correction>
   9.000000E+99

> <Gold.Chemscore.Hbonds>
donor molecule, donor type, donor heavy atom, donor atom, acceptor molecule, acceptor atom, score
      L1  H    16    46       P1 10957  0.49
      P1  H 11000 11005       L1    11  0.36

> <Gold.Chemscore.Hbond.Weighted>
-4.6465

> <Gold.Chemscore.Metal.Weighted>
-0.0000

> <Gold.Chemscore.Lipo.Weighted>
-8.2440

> <Gold.Chemscore.Internal_Hbond.Weighted>
0.0000

> <Gold.Chemscore.DEClash.Weighted>
0.0178

> <Gold.Chemscore.DEInternal.Weighted>
3.2242

> <Gold.Chemscore.Rot.Weighted>
2.5600

> <Gold.Chemscore.Internal.Correction.Weighted>
   9.000000E+99

> <Gold.Protein.RotatedTorsions>
[ 6907 6896 6895 6894 ] final -104.34 input  -60.11 | X-H torsion
[ 7974 7965 7964 7962 ] final   36.99 input  175.53 | X-H torsion
[ 8008 7997 7996 7995 ] final  -66.80 input   59.86 | X-H torsion
[ 10167 10162 10161 10158 ] final   95.03 input  -65.29 | X-H torsion
[ 10718 10713 10712 10709 ] final   46.70 input   66.30 | X-H torsion
[ 10763 10752 10751 10750 ] final  -36.97 input  -60.55 | X-H torsion
[ 11005 11000 10999 10996 ] final   19.12 input  -57.11 | X-H torsion

> <Gold.Protein.ActiveResidues>
 VAL166  LYS551  ARG553  GLY616  TRP617  ASP618  TYR619  PRO620  LYS621  CYS622 
 ASP623  PHE694  ASN695  SER759  ASP760  ASP761  ALA762  ILE779  LEU786  VAL792 
 PHE793  MET794  SER795  GLU796  ALA797  LYS798  CYS799  TRP800  GLU811  SER814 

> <Gold.Protein.RotatedAtoms>
  150.7282  134.0292  159.3727 H   0  0  0  0  0  0  0  0  0  0  0  0  # atno 6907 bound_to 6896
  151.8261  135.0634  160.0440 H   0  0  0  0  0  0  0  0  0  0  0  0  # atno 6908 bound_to 6896
  152.2968  133.5579  159.5629 H   0  0  0  0  0  0  0  0  0  0  0  0  # atno 6909 bound_to 6896
  146.1171  139.5949  142.9314 H   0  0  0  0  0  0  0  0  0  0  0  0  # atno 7974 bound_to 7965
  154.4758  140.0905  156.7258 H   0  0  0  0  0  0  0  0  0  0  0  0  # atno 8008 bound_to 7997
  155.4600  140.3460  155.4293 H   0  0  0  0  0  0  0  0  0  0  0  0  # atno 8009 bound_to 7997
  156.1114  140.1449  156.9322 H   0  0  0  0  0  0  0  0  0  0  0  0  # atno 8010 bound_to 7997
  139.8027  144.6807  150.9743 H   0  0  0  0  0  0  0  0  0  0  0  0  # atno 10167 bound_to 10162
  157.4508  130.8137  149.7787 H   0  0  0  0  0  0  0  0  0  0  0  0  # atno 10718 bound_to 10713
  153.8886  135.6814  153.4762 H   0  0  0  0  0  0  0  0  0  0  0  0  # atno 10763 bound_to 10752
  153.1193  135.4747  154.9167 H   0  0  0  0  0  0  0  0  0  0  0  0  # atno 10764 bound_to 10752
  154.7633  135.3217  154.8288 H   0  0  0  0  0  0  0  0  0  0  0  0  # atno 10765 bound_to 10752
  140.4173  134.1556  155.7670 H   0  0  0  0  0  0  0  0  0  0  0  0  # atno 11005 bound_to 11000
  145.5545  141.0410  143.2260 LP  0  0  0  0  0  0  0  0  0  0  0  0  # atno 17320 bound_to 7965
  144.7562  139.7068  143.7253 LP  0  0  0  0  0  0  0  0  0  0  0  0  # atno 17321 bound_to 7965
  140.7820  143.4265  151.0760 LP  0  0  0  0  0  0  0  0  0  0  0  0  # atno 17342 bound_to 10162
  139.7936  143.8183  152.3155 LP  0  0  0  0  0  0  0  0  0  0  0  0  # atno 17343 bound_to 10162
  155.9986  130.3893  150.2694 LP  0  0  0  0  0  0  0  0  0  0  0  0  # atno 17370 bound_to 10713
  157.0866  131.0158  151.3137 LP  0  0  0  0  0  0  0  0  0  0  0  0  # atno 17371 bound_to 10713
  141.1798  133.8438  157.1298 LP  0  0  0  0  0  0  0  0  0  0  0  0  # atno 17394 bound_to 11000
  140.0225  134.9939  157.0620 LP  0  0  0  0  0  0  0  0  0  0  0  0  # atno 17395 bound_to 11000

$$$$
