AV-unprocessed.smi:3178|AV-procd|sdf|12131|dock1
  -GOLD-   2272017573D 1   1.00000     0.00000
 Structure written by MMmdl.
 35 35  0  0  0  0  0  0  0  0  1 V2000
  152.7349  142.2942  160.3000 C   0  0  0  0  0  0  0  0  0  0  0  0
  151.4033  142.7232  160.0400 O   0  0  0  0  0  0  0  0  0  0  0  0
  151.2051  144.0539  159.5495 C   0  0  0  0  0  0  0  0  0  0  0  0
  151.9249  144.9543  160.5723 C   0  0  0  0  0  0  0  0  0  0  0  0
  151.8738  144.2317  158.1711 C   0  0  0  0  0  0  0  0  0  0  0  0
  149.7003  144.4111  159.4726 C   0  0  0  0  0  0  0  0  0  0  0  0
  149.0341  143.6779  158.4022 N   0  0  0  0  0  0  0  0  0  0  0  0
  147.9922  142.8458  158.5534 C   0  0  0  0  0  0  0  0  0  0  0  0
  147.4264  142.6553  159.6295 O   0  0  0  0  0  0  0  0  0  0  0  0
  147.5083  142.1173  157.2970 C   0  0  0  0  0  0  0  0  0  0  0  0
  148.6065  141.3186  156.6663 C   0  0  0  0  0  0  0  0  0  0  0  0
  148.6212  140.5154  155.5601 C   0  0  0  0  0  0  0  0  0  0  0  0
  149.9587  140.0261  155.4966 C   0  0  0  0  0  0  0  0  0  0  0  0
  150.5551  139.0928  154.4845 C   0  0  0  0  0  0  0  0  0  0  0  0
  150.7151  140.4928  156.4790 N   0  0  0  0  0  0  0  0  0  0  0  0
  149.8816  141.2794  157.1841 N   0  0  0  0  0  0  0  0  0  0  0  0
  150.1922  141.7758  158.0071 H   0  0  0  0  0  0  0  0  0  0  0  0
  152.7083  141.2627  160.6508 H   0  0  0  0  0  0  0  0  0  0  0  0
  153.2137  142.8853  161.0798 H   0  0  0  0  0  0  0  0  0  0  0  0
  153.3576  142.3130  159.4062 H   0  0  0  0  0  0  0  0  0  0  0  0
  151.8163  146.0091  160.3176 H   0  0  0  0  0  0  0  0  0  0  0  0
  152.9918  144.7321  160.6089 H   0  0  0  0  0  0  0  0  0  0  0  0
  151.5333  144.8169  161.5810 H   0  0  0  0  0  0  0  0  0  0  0  0
  151.8579  145.2771  157.8615 H   0  0  0  0  0  0  0  0  0  0  0  0
  151.3662  143.6637  157.3918 H   0  0  0  0  0  0  0  0  0  0  0  0
  152.9159  143.9114  158.1933 H   0  0  0  0  0  0  0  0  0  0  0  0
  149.2330  144.1899  160.4339 H   0  0  0  0  0  0  0  0  0  0  0  0
  149.5539  145.4785  159.3087 H   0  0  0  0  0  0  0  0  0  0  0  0
  149.4323  143.7723  157.4790 H   0  0  0  0  0  0  0  0  0  0  0  0
  146.6783  141.4590  157.5560 H   0  0  0  0  0  0  0  0  0  0  0  0
  147.1163  142.8516  156.5924 H   0  0  0  0  0  0  0  0  0  0  0  0
  147.7954  140.3027  154.8974 H   0  0  0  0  0  0  0  0  0  0  0  0
  149.7818  138.5082  153.9858 H   0  0  0  0  0  0  0  0  0  0  0  0
  151.2498  138.3926  154.9497 H   0  0  0  0  0  0  0  0  0  0  0  0
  151.0998  139.6450  153.7186 H   0  0  0  0  0  0  0  0  0  0  0  0
  1  2  1  0  0  0  0
  1 18  1  0  0  0  0
  1 19  1  0  0  0  0
  1 20  1  0  0  0  0
  2  3  1  0  0  0  0
  3  4  1  0  0  0  0
  3  5  1  0  0  0  0
  3  6  1  0  0  0  0
  4 21  1  0  0  0  0
  4 22  1  0  0  0  0
  4 23  1  0  0  0  0
  5 24  1  0  0  0  0
  5 25  1  0  0  0  0
  5 26  1  0  0  0  0
  6  7  1  0  0  0  0
  6 27  1  0  0  0  0
  6 28  1  0  0  0  0
  7  8  1  0  0  0  0
  7 29  1  0  0  0  0
  8  9  2  0  0  0  0
  8 10  1  0  0  0  0
 10 30  1  0  0  0  0
 10 31  1  0  0  0  0
 10 11  1  0  0  0  0
 11 16  1  0  0  0  0
 11 12  2  0  0  0  0
 12 13  1  0  0  0  0
 12 32  1  0  0  0  0
 13 14  1  0  0  0  0
 13 15  2  0  0  0  0
 14 33  1  0  0  0  0
 14 34  1  0  0  0  0
 14 35  1  0  0  0  0
 15 16  1  0  0  0  0
 16 17  1  0  0  0  0
M  END
> <s_m_source_file>
AV-unprocessed.smi

> <i_m_source_file_index>
3178

> <i_lp_mmshare_version>
43012

> <i_f3d_flags>
0

> <s_epik_input>
W0NIM11PQyhbQ0gzXSkoW0NIM10pW0NIMl1bTkhdQyg9TylbQ0gyXWMxW2NIXWMoW0NIM10pW25IXW4x

> <s_epik_cmdline>
J2VwaWtfcHl0aG9uJywgJy1waCcsICc3LjAnLCAnLXRuJywgJzgnLCAnLW1hJywgJzIwMCcsICctbWV0YWxfYmluZGluZycsICctaW1hZScsICc8aW5maWxlLm1hZT4nLCAnLW9tYWUnLCAnPG91dGZpbGUubWFlPic=

> <r_lp_tautomer_probability>
0.5

> <r_epik_Ionization_Penalty>
0.000125824

> <r_epik_Ionization_Penalty_Charging>
0

> <r_epik_Ionization_Penalty_Neutral>
0.000125824

> <r_epik_State_Penalty>
0.41068

> <r_epik_Charging_Adjusted_Penalty>
0.41068

> <i_epik_Tot_Q>
0

> <i_epik_Tot_abs_Q>
0

> <r_epik_Metal_State_Penalty>
0.410657

> <b_epik_Metal_Only>
0

> <s_lp_Force_Field>
OPLS_2005

> <r_lp_Energy>
5.55187

> <b_lp_Chiralities_Consistent>
1

> <s_lp_Variant>
AV-unprocessed.smi:3178-2

> <Gold.Version>
5.8.1

> <Gold.Id.Protein>
6NUR|6NUR_protein|mol2

> <Gold.PLP.Fitness>
35.7575

> <Gold.PLP.PLP>
-30.2985

> <Gold.PLP.part.hbond>
-4.2244

> <Gold.PLP.part.metal>
0.0000

> <Gold.PLP.part.buried>
-2.4726

> <Gold.PLP.part.nonpolar>
-24.0591

> <Gold.PLP.part.repulsive>
0.1884

> <Gold.PLP.ligand.clash>
0.0000

> <Gold.PLP.ligand.torsion>
0.0846

> <Gold.PLP.Chemscore.Hbond>
1.8601

> <Gold.PLP.Chemscore.CHOScore>
0.0000

> <Gold.PLP.Chemscore.Metal>
0.0000

> <Gold.Chemscore.Hbonds>
donor molecule, donor type, donor heavy atom, donor atom, acceptor molecule, acceptor atom, score
      L1  H     7    29       P1  8028  0.57
      P1  H  6933  6944       L1     9  0.51
      P1  H  6934  6946       L1     9  0.46

> <Gold.PLP.Chemscore.Internal.Correction>
0.0478

> <Gold.Rescore>
     Score         DG    S(hbond)    S(metal)    S(lipo)     H(rot)  DE(clash)    DE(int)     intcor
     12.86     -14.18       1.39        0.00      75.84       1.89       0.01       1.31       ----

> <Gold.Chemscore.Fitness>
12.8618

> <Gold.Chemscore.DG>
-14.1779

> <Gold.Chemscore.ZeroCoef>
-5.4800

> <Gold.Chemscore.Hbond>
1.3943

> <Gold.Chemscore.Metal>
0.0000

> <Gold.Chemscore.Lipo>
75.8411

> <Gold.Chemscore.Internal_Hbond>
0.0000

> <Gold.Chemscore.DEClash>
0.0058

> <Gold.Chemscore.DEInternal>
1.3104

> <Gold.Chemscore.Rot>
1.8877

> <Gold.Chemscore.Internal.Correction>
   9.000000E+99

> <Gold.Chemscore.Hbonds>
donor molecule, donor type, donor heavy atom, donor atom, acceptor molecule, acceptor atom, score
      L1  H     7    29       P1  8028  0.22
      P1  H  6933  6944       L1     9  0.50
      P1  H  6934  6946       L1     9  0.45

> <Gold.Chemscore.Hbond.Weighted>
-4.6570

> <Gold.Chemscore.Metal.Weighted>
-0.0000

> <Gold.Chemscore.Lipo.Weighted>
-8.8734

> <Gold.Chemscore.Internal_Hbond.Weighted>
0.0000

> <Gold.Chemscore.DEClash.Weighted>
0.0058

> <Gold.Chemscore.DEInternal.Weighted>
1.3104

> <Gold.Chemscore.Rot.Weighted>
4.8325

> <Gold.Chemscore.Internal.Correction.Weighted>
   9.000000E+99

> <Gold.Protein.RotatedTorsions>
[ 6907 6896 6895 6894 ] final   65.75 input  -60.11 | X-H torsion
[ 7974 7965 7964 7962 ] final    4.62 input  175.53 | X-H torsion
[ 8008 7997 7996 7995 ] final  109.09 input   59.86 | X-H torsion
[ 10167 10162 10161 10158 ] final -124.69 input  -65.29 | X-H torsion
[ 10718 10713 10712 10709 ] final   97.37 input   66.30 | X-H torsion
[ 10763 10752 10751 10750 ] final  130.61 input  -60.55 | X-H torsion
[ 11005 11000 10999 10996 ] final  123.45 input  -57.11 | X-H torsion

> <Gold.Protein.ActiveResidues>
 VAL166  LYS551  ARG553  GLY616  TRP617  ASP618  TYR619  PRO620  LYS621  CYS622 
 ASP623  PHE694  ASN695  SER759  ASP760  ASP761  ALA762  ILE779  LEU786  VAL792 
 PHE793  MET794  SER795  GLU796  ALA797  LYS798  CYS799  TRP800  GLU811  SER814 

> <Gold.Protein.RotatedAtoms>
  152.4431  134.5551  159.9877 H   0  0  0  0  0  0  0  0  0  0  0  0  # atno 6907 bound_to 6896
  151.5643  133.3393  159.2985 H   0  0  0  0  0  0  0  0  0  0  0  0  # atno 6908 bound_to 6896
  150.8341  134.7640  159.6942 H   0  0  0  0  0  0  0  0  0  0  0  0  # atno 6909 bound_to 6896
  146.2443  140.0506  142.8375 H   0  0  0  0  0  0  0  0  0  0  0  0  # atno 7974 bound_to 7965
  156.1953  140.3064  155.9414 H   0  0  0  0  0  0  0  0  0  0  0  0  # atno 8008 bound_to 7997
  155.3081  140.0449  157.3050 H   0  0  0  0  0  0  0  0  0  0  0  0  # atno 8009 bound_to 7997
  154.5501  140.2289  155.8507 H   0  0  0  0  0  0  0  0  0  0  0  0  # atno 8010 bound_to 7997
  139.9901  143.5650  152.2345 H   0  0  0  0  0  0  0  0  0  0  0  0  # atno 10167 bound_to 10162
  157.6913  131.0607  150.4634 H   0  0  0  0  0  0  0  0  0  0  0  0  # atno 10718 bound_to 10713
  153.7609  135.3196  155.3337 H   0  0  0  0  0  0  0  0  0  0  0  0  # atno 10763 bound_to 10752
  154.8230  135.4589  154.0839 H   0  0  0  0  0  0  0  0  0  0  0  0  # atno 10764 bound_to 10752
  153.2069  135.6930  153.8245 H   0  0  0  0  0  0  0  0  0  0  0  0  # atno 10765 bound_to 10752
  139.9313  134.9641  156.8262 H   0  0  0  0  0  0  0  0  0  0  0  0  # atno 11005 bound_to 11000
  145.0987  140.9332  143.4725 LP  0  0  0  0  0  0  0  0  0  0  0  0  # atno 17320 bound_to 7965
  145.0695  139.3043  143.5839 LP  0  0  0  0  0  0  0  0  0  0  0  0  # atno 17321 bound_to 7965
  139.6346  144.7648  151.2464 LP  0  0  0  0  0  0  0  0  0  0  0  0  # atno 17342 bound_to 10162
  140.7458  143.6420  150.8326 LP  0  0  0  0  0  0  0  0  0  0  0  0  # atno 17343 bound_to 10162
  156.4976  130.4110  149.6371 LP  0  0  0  0  0  0  0  0  0  0  0  0  # atno 17370 bound_to 10713
  156.3358  130.7356  151.2293 LP  0  0  0  0  0  0  0  0  0  0  0  0  # atno 17371 bound_to 10713
  140.6194  134.0008  155.7611 LP  0  0  0  0  0  0  0  0  0  0  0  0  # atno 17394 bound_to 11000
  141.0903  133.9926  157.3247 LP  0  0  0  0  0  0  0  0  0  0  0  0  # atno 17395 bound_to 11000

$$$$
