AV-unprocessed.smi:386|AV-procd|sdf|2473|dock7
  -GOLD-   2262022413D 1   1.00000     0.00000
 Structure written by MMmdl.
 27 28  0  0  0  0  0  0  0  0  1 V2000
  151.8841  137.0865  159.5392 N   0  0  0  0  0  0  0  0  0  0  0  0
  151.8046  138.1783  159.1632 C   0  0  0  0  0  0  0  0  0  0  0  0
  151.6810  139.5153  158.6848 C   0  0  0  0  0  0  0  0  0  0  0  0
  152.4159  140.5242  159.1958 C   0  0  0  0  0  0  0  0  0  0  0  0
  152.3148  141.8204  158.7397 N   0  0  0  0  0  0  0  0  0  0  0  0
  152.9866  142.9021  159.4035 C   0  0  0  0  0  0  0  0  0  0  0  0
  152.8181  143.1084  160.8963 C   0  0  0  0  0  0  0  0  0  0  0  0
  152.1693  144.0639  159.9247 C   0  0  0  0  0  0  0  0  0  0  0  0
  151.3599  142.1531  157.7541 C   0  0  0  0  0  0  0  0  0  0  0  0
  151.1851  143.3229  157.4037 O   0  0  0  0  0  0  0  0  0  0  0  0
  150.5978  141.1023  157.1881 N   0  0  0  0  0  0  0  0  0  0  0  0
  149.6051  141.4306  156.1410 C   0  0  0  0  0  0  0  0  0  0  0  0
  149.9406  140.8314  154.7660 C   0  0  0  0  0  0  0  0  0  0  0  0
  149.1038  141.1273  153.7691 N   0  0  0  0  0  0  0  0  0  0  0  0
  150.9279  140.1168  154.5978 O   0  0  0  0  0  0  0  0  0  0  0  0
  150.7150  139.7546  157.6150 C   0  0  0  0  0  0  0  0  0  0  0  0
  150.0271  138.8660  157.1092 O   0  0  0  0  0  0  0  0  0  0  0  0
  153.1156  140.3099  159.9910 H   0  0  0  0  0  0  0  0  0  0  0  0
  153.9654  143.1557  159.0002 H   0  0  0  0  0  0  0  0  0  0  0  0
  152.1613  142.4318  161.4399 H   0  0  0  0  0  0  0  0  0  0  0  0
  153.6824  143.4647  161.4528 H   0  0  0  0  0  0  0  0  0  0  0  0
  152.5993  145.0595  159.8367 H   0  0  0  0  0  0  0  0  0  0  0  0
  151.0866  144.0143  159.8266 H   0  0  0  0  0  0  0  0  0  0  0  0
  148.6082  141.0941  156.4302 H   0  0  0  0  0  0  0  0  0  0  0  0
  149.4966  142.5109  156.0322 H   0  0  0  0  0  0  0  0  0  0  0  0
  149.2714  140.7616  152.8431 H   0  0  0  0  0  0  0  0  0  0  0  0
  148.3031  141.7166  153.9462 H   0  0  0  0  0  0  0  0  0  0  0  0
  1  2  3  0  0  0  0
  2  3  1  0  0  0  0
  3 16  1  0  0  0  0
  3  4  2  0  0  0  0
  4  5  1  0  0  0  0
  4 18  1  0  0  0  0
  5  6  1  0  0  0  0
  5  9  1  0  0  0  0
  6  8  1  0  0  0  0
  6  7  1  0  0  0  0
  6 19  1  0  0  0  0
  7  8  1  0  0  0  0
  7 20  1  0  0  0  0
  7 21  1  0  0  0  0
  8 22  1  0  0  0  0
  8 23  1  0  0  0  0
  9 10  2  0  0  0  0
  9 11  1  0  0  0  0
 11 12  1  0  0  0  0
 11 16  1  0  0  0  0
 12 13  1  0  0  0  0
 12 24  1  0  0  0  0
 12 25  1  0  0  0  0
 13 14  1  0  0  0  0
 13 15  2  0  0  0  0
 14 26  1  0  0  0  0
 14 27  1  0  0  0  0
 16 17  2  0  0  0  0
M  END
> <s_m_source_file>
AV-unprocessed.smi

> <i_m_source_file_index>
386

> <i_lp_mmshare_version>
43012

> <i_f3d_flags>
0

> <s_epik_input>
TiNDYzFbY0hdbihbQ0hdMltDSDJdW0NIMl0yKWMoPU8pbihjMT1PKVtDSDJdQyg9TylbTkgyXQ==

> <s_epik_cmdline>
J2VwaWtfcHl0aG9uJywgJy1waCcsICc3LjAnLCAnLXRuJywgJzgnLCAnLW1hJywgJzIwMCcsICctbWV0YWxfYmluZGluZycsICctaW1hZScsICc8aW5maWxlLm1hZT4nLCAnLW9tYWUnLCAnPG91dGZpbGUubWFlPic=

> <r_lp_tautomer_probability>
1

> <r_epik_Ionization_Penalty>
3.46323e-08

> <r_epik_Ionization_Penalty_Charging>
7.2855e-11

> <r_epik_Ionization_Penalty_Neutral>
3.45594e-08

> <r_epik_State_Penalty>
-0

> <r_epik_Charging_Adjusted_Penalty>
7.2855e-11

> <i_epik_Tot_Q>
0

> <i_epik_Tot_abs_Q>
0

> <r_epik_Metal_State_Penalty>
-0

> <b_epik_Metal_Only>
0

> <s_lp_Force_Field>
OPLS_2005

> <r_lp_Energy>
26.3068

> <b_lp_Chiralities_Consistent>
1

> <s_lp_Variant>
AV-unprocessed.smi:386-1

> <Gold.Version>
5.8.1

> <Gold.Id.Protein>
6NUR|6NUR_protein|mol2

> <Gold.PLP.Fitness>
41.8663

> <Gold.PLP.PLP>
-32.9718

> <Gold.PLP.part.hbond>
-3.0000

> <Gold.PLP.part.metal>
0.0000

> <Gold.PLP.part.buried>
-5.4357

> <Gold.PLP.part.nonpolar>
-25.0622

> <Gold.PLP.part.repulsive>
0.4179

> <Gold.PLP.ligand.clash>
0.0000

> <Gold.PLP.ligand.torsion>
0.1573

> <Gold.PLP.Chemscore.Hbond>
3.0000

> <Gold.PLP.Chemscore.CHOScore>
0.0000

> <Gold.PLP.Chemscore.Metal>
0.0000

> <Gold.Chemscore.Hbonds>
donor molecule, donor type, donor heavy atom, donor atom, acceptor molecule, acceptor atom, score
      L1  H    14    26       P1  7957  1.00
      P1  H  6896  6908       L1     1  1.00
      P1  H  7989  7998       L1    15  0.94

> <Gold.PLP.Chemscore.Internal.Correction>
0.2091

> <Gold.Rescore>
     Score         DG    S(hbond)    S(metal)    S(lipo)     H(rot)  DE(clash)    DE(int)     intcor
     14.34     -15.86       2.88        0.00      50.89       2.03       0.00       1.52       ----

> <Gold.Chemscore.Fitness>
14.3366

> <Gold.Chemscore.DG>
-15.8569

> <Gold.Chemscore.ZeroCoef>
-5.4800

> <Gold.Chemscore.Hbond>
2.8811

> <Gold.Chemscore.Metal>
0.0000

> <Gold.Chemscore.Lipo>
50.8898

> <Gold.Chemscore.Internal_Hbond>
0.0000

> <Gold.Chemscore.DEClash>
0.0029

> <Gold.Chemscore.DEInternal>
1.5174

> <Gold.Chemscore.Rot>
2.0313

> <Gold.Chemscore.Internal.Correction>
   9.000000E+99

> <Gold.Chemscore.Hbonds>
donor molecule, donor type, donor heavy atom, donor atom, acceptor molecule, acceptor atom, score
      L1  H    14    26       P1  7957  1.00
      P1  H  6896  6908       L1     1  0.96
      P1  H  7989  7998       L1    15  0.27

> <Gold.Chemscore.Hbond.Weighted>
-9.6229

> <Gold.Chemscore.Metal.Weighted>
-0.0000

> <Gold.Chemscore.Lipo.Weighted>
-5.9541

> <Gold.Chemscore.Internal_Hbond.Weighted>
0.0000

> <Gold.Chemscore.DEClash.Weighted>
0.0029

> <Gold.Chemscore.DEInternal.Weighted>
1.5174

> <Gold.Chemscore.Rot.Weighted>
5.2001

> <Gold.Chemscore.Internal.Correction.Weighted>
   9.000000E+99

> <Gold.Protein.RotatedTorsions>
[ 6907 6896 6895 6894 ] final -108.25 input  -60.11 | X-H torsion
[ 7974 7965 7964 7962 ] final  -80.61 input  175.53 | X-H torsion
[ 8008 7997 7996 7995 ] final  108.02 input   59.86 | X-H torsion
[ 10167 10162 10161 10158 ] final   -1.56 input  -65.29 | X-H torsion
[ 10718 10713 10712 10709 ] final  -84.73 input   66.30 | X-H torsion
[ 10763 10752 10751 10750 ] final -143.45 input  -60.55 | X-H torsion
[ 11005 11000 10999 10996 ] final   68.65 input  -57.11 | X-H torsion

> <Gold.Protein.ActiveResidues>
 VAL166  LYS551  ARG553  GLY616  TRP617  ASP618  TYR619  PRO620  LYS621  CYS622 
 ASP623  PHE694  ASN695  SER759  ASP760  ASP761  ALA762  ILE779  LEU786  VAL792 
 PHE793  MET794  SER795  GLU796  ALA797  LYS798  CYS799  TRP800  GLU811  SER814 

> <Gold.Protein.RotatedAtoms>
  150.7491  133.9705  159.3544 H   0  0  0  0  0  0  0  0  0  0  0  0  # atno 6907 bound_to 6896
  151.7638  135.0801  160.0359 H   0  0  0  0  0  0  0  0  0  0  0  0  # atno 6908 bound_to 6896
  152.3385  133.6002  159.5895 H   0  0  0  0  0  0  0  0  0  0  0  0  # atno 6909 bound_to 6896
  145.5577  140.9487  143.1464 H   0  0  0  0  0  0  0  0  0  0  0  0  # atno 7974 bound_to 7965
  156.1870  140.3084  155.9258 H   0  0  0  0  0  0  0  0  0  0  0  0  # atno 8008 bound_to 7997
  155.3258  140.0458  157.3058 H   0  0  0  0  0  0  0  0  0  0  0  0  # atno 8009 bound_to 7997
  154.5408  140.2261  155.8655 H   0  0  0  0  0  0  0  0  0  0  0  0  # atno 8010 bound_to 7997
  140.6815  143.6761  150.8144 H   0  0  0  0  0  0  0  0  0  0  0  0  # atno 10167 bound_to 10162
  156.0003  130.4707  150.4455 H   0  0  0  0  0  0  0  0  0  0  0  0  # atno 10718 bound_to 10713
  154.8469  135.3467  154.6190 H   0  0  0  0  0  0  0  0  0  0  0  0  # atno 10763 bound_to 10752
  153.6798  135.6980  153.5126 H   0  0  0  0  0  0  0  0  0  0  0  0  # atno 10764 bound_to 10752
  153.2677  135.4303  155.0913 H   0  0  0  0  0  0  0  0  0  0  0  0  # atno 10765 bound_to 10752
  139.9699  134.6918  156.0469 H   0  0  0  0  0  0  0  0  0  0  0  0  # atno 11005 bound_to 11000
  144.7498  139.7223  143.7277 LP  0  0  0  0  0  0  0  0  0  0  0  0  # atno 17320 bound_to 7965
  146.1873  139.5095  142.9828 LP  0  0  0  0  0  0  0  0  0  0  0  0  # atno 17321 bound_to 7965
  140.0462  143.5296  152.2695 LP  0  0  0  0  0  0  0  0  0  0  0  0  # atno 17342 bound_to 10162
  139.6141  144.7615  151.2885 LP  0  0  0  0  0  0  0  0  0  0  0  0  # atno 17343 bound_to 10162
  157.2492  131.0542  151.2389 LP  0  0  0  0  0  0  0  0  0  0  0  0  # atno 17370 bound_to 10713
  157.3545  130.7099  149.6461 LP  0  0  0  0  0  0  0  0  0  0  0  0  # atno 17371 bound_to 10713
  141.1378  133.6571  156.3644 LP  0  0  0  0  0  0  0  0  0  0  0  0  # atno 17394 bound_to 11000
  140.5316  134.6207  157.5352 LP  0  0  0  0  0  0  0  0  0  0  0  0  # atno 17395 bound_to 11000

$$$$
