AV-unprocessed.smi:2474|AV-procd|sdf|9752|dock8
  -GOLD-   2272013393D 1   1.00000     0.00000
 Structure written by MMmdl.
 40 41  0  0  0  0  0  0  0  0  1 V2000
  149.9709  140.0198  154.5232 C   0  0  0  0  0  0  0  0  0  0  0  0
  150.2947  138.5843  154.7625 C   0  0  0  0  0  0  0  0  0  0  0  0
  151.4296  137.9057  154.3932 C   0  0  0  0  0  0  0  0  0  0  0  0
  151.4318  136.5614  154.7714 N   0  0  0  0  0  0  0  0  0  0  0  0
  150.3140  136.2092  155.4130 C   0  0  0  0  0  0  0  0  0  0  0  0
  150.0584  134.8333  155.9498 C   0  0  1  0  0  0  0  0  0  0  0  0
  148.9720  134.8263  157.0347 C   0  0  0  0  0  0  0  0  0  0  0  0
  149.8115  133.7829  154.8431 C   0  0  0  0  0  0  0  0  0  0  0  0
  148.8688  134.2350  153.8230 N   0  0  0  0  0  0  0  0  0  0  0  0
  147.7461  133.5936  153.4727 C   0  0  0  0  0  0  0  0  0  0  0  0
  147.3520  132.5538  154.0009 O   0  0  0  0  0  0  0  0  0  0  0  0
  147.1181  134.2100  152.4620 N   0  0  0  0  0  0  0  0  0  0  0  0
  145.9003  133.7348  151.8123 C   0  0  2  0  0  0  0  0  0  0  0  0
  146.1561  132.3675  151.1443 C   0  0  0  0  0  0  0  0  0  0  0  0
  144.8947  131.7875  150.4842 C   0  0  0  0  0  0  0  0  0  0  0  0
  144.3425  132.6948  149.3759 C   0  0  0  0  0  0  0  0  0  0  0  0
  143.8480  134.3101  150.0349 S   0  0  0  0  0  0  0  0  0  0  0  0
  145.4246  134.7865  150.7953 C   0  0  0  0  0  0  0  0  0  0  0  0
  149.1775  137.5406  155.6010 S   0  0  0  0  0  0  0  0  0  0  0  0
  150.7733  140.5187  153.9793 H   0  0  0  0  0  0  0  0  0  0  0  0
  149.8262  140.5459  155.4671 H   0  0  0  0  0  0  0  0  0  0  0  0
  149.0566  140.1167  153.9375 H   0  0  0  0  0  0  0  0  0  0  0  0
  152.2836  138.3004  153.8630 H   0  0  0  0  0  0  0  0  0  0  0  0
  150.9782  134.5375  156.4558 H   0  0  0  0  0  0  0  0  0  0  0  0
  149.2323  135.4961  157.8547 H   0  0  0  0  0  0  0  0  0  0  0  0
  148.8409  133.8278  157.4525 H   0  0  0  0  0  0  0  0  0  0  0  0
  148.0098  135.1475  156.6345 H   0  0  0  0  0  0  0  0  0  0  0  0
  150.7526  133.4870  154.3771 H   0  0  0  0  0  0  0  0  0  0  0  0
  149.3912  132.8801  155.2872 H   0  0  0  0  0  0  0  0  0  0  0  0
  149.1081  135.0817  153.3278 H   0  0  0  0  0  0  0  0  0  0  0  0
  147.5245  135.0593  152.0981 H   0  0  0  0  0  0  0  0  0  0  0  0
  145.1208  133.6198  152.5683 H   0  0  0  0  0  0  0  0  0  0  0  0
  146.9489  132.4599  150.4008 H   0  0  0  0  0  0  0  0  0  0  0  0
  146.5195  131.6573  151.8883 H   0  0  0  0  0  0  0  0  0  0  0  0
  145.1280  130.8091  150.0632 H   0  0  0  0  0  0  0  0  0  0  0  0
  144.1265  131.6195  151.2402 H   0  0  0  0  0  0  0  0  0  0  0  0
  145.0905  132.8425  148.5961 H   0  0  0  0  0  0  0  0  0  0  0  0
  143.4764  132.2300  148.9045 H   0  0  0  0  0  0  0  0  0  0  0  0
  145.2895  135.7528  151.2821 H   0  0  0  0  0  0  0  0  0  0  0  0
  146.1678  134.9251  150.0091 H   0  0  0  0  0  0  0  0  0  0  0  0
  1  2  1  0  0  0  0
  1 20  1  0  0  0  0
  1 21  1  0  0  0  0
  1 22  1  0  0  0  0
  2 19  1  0  0  0  0
  2  3  2  0  0  0  0
  3  4  1  0  0  0  0
  3 23  1  0  0  0  0
  4  5  2  0  0  0  0
  5  6  1  0  0  0  0
  5 19  1  0  0  0  0
  6  7  1  0  0  0  0
  6  8  1  0  0  0  0
  6 24  1  0  0  0  0
  7 25  1  0  0  0  0
  7 26  1  0  0  0  0
  7 27  1  0  0  0  0
  8  9  1  0  0  0  0
  8 28  1  0  0  0  0
  8 29  1  0  0  0  0
  9 10  1  0  0  0  0
  9 30  1  0  0  0  0
 10 11  2  0  0  0  0
 10 12  1  0  0  0  0
 12 13  1  0  0  0  0
 12 31  1  0  0  0  0
 13 18  1  0  0  0  0
 13 14  1  0  0  0  0
 13 32  1  0  0  0  0
 14 15  1  0  0  0  0
 14 33  1  0  0  0  0
 14 34  1  0  0  0  0
 15 16  1  0  0  0  0
 15 35  1  0  0  0  0
 15 36  1  0  0  0  0
 16 17  1  0  0  0  0
 16 37  1  0  0  0  0
 16 38  1  0  0  0  0
 17 18  1  0  0  0  0
 18 39  1  0  0  0  0
 18 40  1  0  0  0  0
M  END
> <s_m_source_file>
AV-unprocessed.smi

> <i_m_source_file_index>
2474

> <i_lp_mmshare_version>
43012

> <i_f3d_flags>
0

> <s_epik_input>
W0NIM11jMVtjSF1uYyhzMSlbQ0BIXShbQ0gzXSlbQ0gyXVtOSF1DKD1PKVtOSF1bQ0BASF0yW0NIMl1bQ0gyXVtDSDJdU1tDSDJdMg==

> <s_epik_cmdline>
J2VwaWtfcHl0aG9uJywgJy1waCcsICc3LjAnLCAnLXRuJywgJzgnLCAnLW1hJywgJzIwMCcsICctbWV0YWxfYmluZGluZycsICctaW1hZScsICc8aW5maWxlLm1hZT4nLCAnLW9tYWUnLCAnPG91dGZpbGUubWFlPic=

> <r_epik_Ionization_Penalty>
0.000644338

> <r_epik_Ionization_Penalty_Charging>
0

> <r_epik_Ionization_Penalty_Neutral>
0.000644338

> <r_epik_State_Penalty>
0.000374131

> <r_epik_Charging_Adjusted_Penalty>
0.000374131

> <i_epik_Tot_Q>
0

> <i_epik_Tot_abs_Q>
0

> <r_epik_Metal_State_Penalty>
-0

> <b_epik_Metal_Only>
0

> <s_lp_Force_Field>
OPLS_2005

> <r_lp_Energy>
-6.48006

> <b_lp_Chiralities_Consistent>
1

> <s_lp_Variant>
AV-unprocessed.smi:2474-2

> <Gold.Version>
5.8.1

> <Gold.Id.Protein>
6NUR|6NUR_protein|mol2

> <Gold.PLP.Fitness>
41.6640

> <Gold.PLP.PLP>
-33.7786

> <Gold.PLP.part.hbond>
-3.0000

> <Gold.PLP.part.metal>
0.0000

> <Gold.PLP.part.buried>
-0.9611

> <Gold.PLP.part.nonpolar>
-29.2321

> <Gold.PLP.part.repulsive>
0.2270

> <Gold.PLP.ligand.clash>
0.0000

> <Gold.PLP.ligand.torsion>
0.5450

> <Gold.PLP.Chemscore.Hbond>
2.9500

> <Gold.PLP.Chemscore.CHOScore>
0.0000

> <Gold.PLP.Chemscore.Metal>
0.0000

> <Gold.Chemscore.Hbonds>
donor molecule, donor type, donor heavy atom, donor atom, acceptor molecule, acceptor atom, score
      L1  H     9    30       P1  7948  0.95
      L1  H    12    31       P1  7948  1.00
      P1  H 10752 10763       L1     4  1.00

> <Gold.PLP.Chemscore.Internal.Correction>
0.1255

> <Gold.Rescore>
     Score         DG    S(hbond)    S(metal)    S(lipo)     H(rot)  DE(clash)    DE(int)     intcor
     18.30     -19.36       2.11        0.00      90.25       1.46       0.47       0.58       ----

> <Gold.Chemscore.Fitness>
18.3046

> <Gold.Chemscore.DG>
-19.3553

> <Gold.Chemscore.ZeroCoef>
-5.4800

> <Gold.Chemscore.Hbond>
2.1131

> <Gold.Chemscore.Metal>
0.0000

> <Gold.Chemscore.Lipo>
90.2501

> <Gold.Chemscore.Internal_Hbond>
0.0000

> <Gold.Chemscore.DEClash>
0.4732

> <Gold.Chemscore.DEInternal>
0.5775

> <Gold.Chemscore.Rot>
1.4616

> <Gold.Chemscore.Internal.Correction>
   9.000000E+99

> <Gold.Chemscore.Hbonds>
donor molecule, donor type, donor heavy atom, donor atom, acceptor molecule, acceptor atom, score
      L1  H     9    30       P1  7948  0.21
      L1  H    12    31       P1  7948  0.91
      P1  H 10752 10763       L1     4  0.97

> <Gold.Chemscore.Hbond.Weighted>
-7.0577

> <Gold.Chemscore.Metal.Weighted>
-0.0000

> <Gold.Chemscore.Lipo.Weighted>
-10.5593

> <Gold.Chemscore.Internal_Hbond.Weighted>
0.0000

> <Gold.Chemscore.DEClash.Weighted>
0.4732

> <Gold.Chemscore.DEInternal.Weighted>
0.5775

> <Gold.Chemscore.Rot.Weighted>
3.7416

> <Gold.Chemscore.Internal.Correction.Weighted>
   9.000000E+99

> <Gold.Protein.RotatedTorsions>
[ 6907 6896 6895 6894 ] final    1.89 input  -60.11 | X-H torsion
[ 7974 7965 7964 7962 ] final  164.22 input  175.53 | X-H torsion
[ 8008 7997 7996 7995 ] final -117.73 input   59.86 | X-H torsion
[ 10167 10162 10161 10158 ] final  -91.27 input  -65.29 | X-H torsion
[ 10718 10713 10712 10709 ] final    4.40 input   66.30 | X-H torsion
[ 10763 10752 10751 10750 ] final   57.59 input  -60.55 | X-H torsion
[ 11005 11000 10999 10996 ] final -108.42 input  -57.11 | X-H torsion

> <Gold.Protein.ActiveResidues>
 VAL166  LYS551  ARG553  GLY616  TRP617  ASP618  TYR619  PRO620  LYS621  CYS622 
 ASP623  PHE694  ASN695  SER759  ASP760  ASP761  ALA762  ILE779  LEU786  VAL792 
 PHE793  MET794  SER795  GLU796  ALA797  LYS798  CYS799  TRP800  GLU811  SER814 

> <Gold.Protein.RotatedAtoms>
  151.6000  135.1048  160.0057 H   0  0  0  0  0  0  0  0  0  0  0  0  # atno 6907 bound_to 6896
  152.4262  133.7196  159.6536 H   0  0  0  0  0  0  0  0  0  0  0  0  # atno 6908 bound_to 6896
  150.8152  133.8278  159.3186 H   0  0  0  0  0  0  0  0  0  0  0  0  # atno 6909 bound_to 6896
  144.7555  139.8294  143.6351 H   0  0  0  0  0  0  0  0  0  0  0  0  # atno 7974 bound_to 7965
  155.0883  140.0395  157.2661 H   0  0  0  0  0  0  0  0  0  0  0  0  # atno 8008 bound_to 7997
  154.6852  140.2641  155.6843 H   0  0  0  0  0  0  0  0  0  0  0  0  # atno 8009 bound_to 7997
  156.2709  140.2770  156.1410 H   0  0  0  0  0  0  0  0  0  0  0  0  # atno 8010 bound_to 7997
  140.3466  143.2913  151.9775 H   0  0  0  0  0  0  0  0  0  0  0  0  # atno 10167 bound_to 10162
  156.8921  130.5691  149.5649 H   0  0  0  0  0  0  0  0  0  0  0  0  # atno 10718 bound_to 10713
  152.9853  135.5636  154.5415 H   0  0  0  0  0  0  0  0  0  0  0  0  # atno 10763 bound_to 10752
  154.4869  135.2791  155.1529 H   0  0  0  0  0  0  0  0  0  0  0  0  # atno 10764 bound_to 10752
  154.3015  135.6306  153.5480 H   0  0  0  0  0  0  0  0  0  0  0  0  # atno 10765 bound_to 10752
  141.0902  133.9068  157.2092 H   0  0  0  0  0  0  0  0  0  0  0  0  # atno 11005 bound_to 11000
  146.1559  139.4657  143.0019 LP  0  0  0  0  0  0  0  0  0  0  0  0  # atno 17320 bound_to 7965
  145.6795  141.0195  143.1614 LP  0  0  0  0  0  0  0  0  0  0  0  0  # atno 17321 bound_to 7965
  139.4832  144.6112  151.7430 LP  0  0  0  0  0  0  0  0  0  0  0  0  # atno 17342 bound_to 10162
  140.5259  144.0806  150.6037 LP  0  0  0  0  0  0  0  0  0  0  0  0  # atno 17343 bound_to 10162
  156.0624  130.5674  150.9220 LP  0  0  0  0  0  0  0  0  0  0  0  0  # atno 17370 bound_to 10713
  157.6078  131.0938  150.8849 LP  0  0  0  0  0  0  0  0  0  0  0  0  # atno 17371 bound_to 10713
  139.9727  135.0123  156.9553 LP  0  0  0  0  0  0  0  0  0  0  0  0  # atno 17394 bound_to 11000
  140.5269  134.0852  155.7306 LP  0  0  0  0  0  0  0  0  0  0  0  0  # atno 17395 bound_to 11000

$$$$
