AV-unprocessed.smi:2298|AV-procd|sdf|9225|dock9
  -GOLD-   2272012443D 1   1.00000     0.00000
 Structure written by MMmdl.
 37 38  0  0  0  0  0  0  0  0  1 V2000
  146.0154  130.3467  151.6735 C   0  0  0  0  0  0  0  0  0  0  0  0
  145.4002  131.7276  151.5442 C   0  0  0  0  0  0  0  0  0  0  0  0
  144.1290  131.7605  151.0890 N   0  0  0  0  0  0  0  0  0  0  0  0
  143.5370  132.9639  150.9481 C   0  0  0  0  0  0  0  0  0  0  0  0
  144.1733  134.1817  151.2554 C   0  0  0  0  0  0  0  0  0  0  0  0
  145.5010  134.1515  151.7468 C   0  0  0  0  0  0  0  0  0  0  0  0
  146.2492  135.3172  152.0769 N   0  0  0  0  0  0  0  0  0  0  0  0
  145.8450  136.4439  152.6887 C   0  0  0  0  0  0  0  0  0  0  0  0
  144.7011  136.6773  153.0777 O   0  0  0  0  0  0  0  0  0  0  0  0
  146.8656  137.3002  152.8410 N   0  0  0  0  0  0  0  0  0  0  0  0
  146.7806  138.6132  153.4737 C   0  0  1  0  0  0  0  0  0  0  0  0
  147.9108  138.7607  154.5084 C   0  0  0  0  0  0  0  0  0  0  0  0
  147.8970  140.1515  155.1667 C   0  0  0  0  0  0  0  0  0  0  0  0
  147.9430  141.2888  154.1290 C   0  0  1  0  0  0  0  0  0  0  0  0
  149.2160  141.3327  153.5148 O   0  0  0  0  0  0  0  0  0  0  0  0
  146.8445  141.1257  153.0613 C   0  0  0  0  0  0  0  0  0  0  0  0
  146.8612  139.7299  152.4139 C   0  0  0  0  0  0  0  0  0  0  0  0
  146.1306  132.8911  151.8824 C   0  0  0  0  0  0  0  0  0  0  0  0
  147.7614  132.7724  152.4549 Cl  0  0  0  0  0  0  0  0  0  0  0  0
  145.8282  138.6958  154.0013 H   0  0  0  0  0  0  0  0  0  0  0  0
  147.8048  142.2424  154.6399 H   0  0  0  0  0  0  0  0  0  0  0  0
  146.3400  130.1704  152.6994 H   0  0  0  0  0  0  0  0  0  0  0  0
  146.8810  130.2547  151.0168 H   0  0  0  0  0  0  0  0  0  0  0  0
  145.3041  129.5636  151.4069 H   0  0  0  0  0  0  0  0  0  0  0  0
  142.5246  132.9575  150.5724 H   0  0  0  0  0  0  0  0  0  0  0  0
  143.6351  135.1026  151.0965 H   0  0  0  0  0  0  0  0  0  0  0  0
  147.2370  135.2580  151.8774 H   0  0  0  0  0  0  0  0  0  0  0  0
  147.7726  137.0240  152.4944 H   0  0  0  0  0  0  0  0  0  0  0  0
  147.8151  137.9930  155.2772 H   0  0  0  0  0  0  0  0  0  0  0  0
  148.8766  138.5954  154.0285 H   0  0  0  0  0  0  0  0  0  0  0  0
  146.9880  140.2505  155.7614 H   0  0  0  0  0  0  0  0  0  0  0  0
  148.7285  140.2435  155.8665 H   0  0  0  0  0  0  0  0  0  0  0  0
  149.3518  140.5234  153.0460 H   0  0  0  0  0  0  0  0  0  0  0  0
  145.8713  141.2849  153.5274 H   0  0  0  0  0  0  0  0  0  0  0  0
  146.9426  141.8960  152.2954 H   0  0  0  0  0  0  0  0  0  0  0  0
  147.7707  139.6139  151.8227 H   0  0  0  0  0  0  0  0  0  0  0  0
  146.0287  139.6449  151.7145 H   0  0  0  0  0  0  0  0  0  0  0  0
  1  2  1  0  0  0  0
  1 22  1  0  0  0  0
  1 23  1  0  0  0  0
  1 24  1  0  0  0  0
  2 18  1  0  0  0  0
  2  3  2  0  0  0  0
  3  4  1  0  0  0  0
  4  5  2  0  0  0  0
  4 25  1  0  0  0  0
  5  6  1  0  0  0  0
  5 26  1  0  0  0  0
  6  7  1  0  0  0  0
  6 18  2  0  0  0  0
  7  8  1  0  0  0  0
  7 27  1  0  0  0  0
  8  9  2  0  0  0  0
  8 10  1  0  0  0  0
 10 11  1  0  0  0  0
 10 28  1  0  0  0  0
 11 20  1  0  0  0  0
 11 17  1  0  0  0  0
 11 12  1  0  0  0  0
 12 13  1  0  0  0  0
 12 29  1  0  0  0  0
 12 30  1  0  0  0  0
 13 14  1  0  0  0  0
 13 31  1  0  0  0  0
 13 32  1  0  0  0  0
 14 21  1  0  0  0  0
 14 15  1  0  0  0  0
 14 16  1  0  0  0  0
 15 33  1  0  0  0  0
 16 17  1  0  0  0  0
 16 34  1  0  0  0  0
 16 35  1  0  0  0  0
 17 36  1  0  0  0  0
 17 37  1  0  0  0  0
 18 19  1  0  0  0  0
M  END
> <s_m_source_file>
AV-unprocessed.smi

> <i_m_source_file_index>
2298

> <i_lp_mmshare_version>
43012

> <i_f3d_flags>
0

> <s_epik_input>
W0NIM11jMW5bY0hdW2NIXWMoYzFDbClbTkhdQyg9TylbTkhdW0NASF0yW0NIMl1bQ0gyXVtDQEhdKFtPSF0pW0NIMl1bQ0gyXTI=

> <s_epik_cmdline>
J2VwaWtfcHl0aG9uJywgJy1waCcsICc3LjAnLCAnLXRuJywgJzgnLCAnLW1hJywgJzIwMCcsICctbWV0YWxfYmluZGluZycsICctaW1hZScsICc8aW5maWxlLm1hZT4nLCAnLW9tYWUnLCAnPG91dGZpbGUubWFlPic=

> <r_epik_Ionization_Penalty>
0.00999805

> <r_epik_Ionization_Penalty_Charging>
0

> <r_epik_Ionization_Penalty_Neutral>
0.00999805

> <r_epik_State_Penalty>
0.00759022

> <r_epik_Charging_Adjusted_Penalty>
0.00759022

> <i_epik_Tot_Q>
0

> <i_epik_Tot_abs_Q>
0

> <r_epik_Metal_State_Penalty>
0.00746447

> <b_epik_Metal_Only>
0

> <s_lp_Force_Field>
OPLS_2005

> <r_lp_Energy>
16.8241

> <b_lp_Chiralities_Consistent>
1

> <s_lp_Variant>
AV-unprocessed.smi:2298-2

> <Gold.Version>
5.8.1

> <Gold.Id.Protein>
6NUR|6NUR_protein|mol2

> <Gold.PLP.Fitness>
44.2168

> <Gold.PLP.PLP>
-31.3372

> <Gold.PLP.part.hbond>
-5.0000

> <Gold.PLP.part.metal>
0.0000

> <Gold.PLP.part.buried>
-2.8420

> <Gold.PLP.part.nonpolar>
-24.6493

> <Gold.PLP.part.repulsive>
0.3852

> <Gold.PLP.ligand.clash>
0.0000

> <Gold.PLP.ligand.torsion>
0.4257

> <Gold.PLP.Chemscore.Hbond>
3.5760

> <Gold.PLP.Chemscore.CHOScore>
1.0000

> <Gold.PLP.Chemscore.Metal>
0.0000

> <Gold.Chemscore.Hbonds>
donor molecule, donor type, donor heavy atom, donor atom, acceptor molecule, acceptor atom, score
      L1  H     7    27       P1  7948  0.94
      L1  H    10    28       P1  7948  1.00
      L1  H    15    33       P1  7957  0.69
      P1  H  8011  8017       L1    15  0.88
      L1  C     4    25       P1 10186  1.00

> <Gold.PLP.Chemscore.Internal.Correction>
0.0031

> <Gold.Rescore>
     Score         DG    S(hbond)    S(metal)    S(lipo)     H(rot)  DE(clash)    DE(int)     intcor
     20.89     -21.66       3.00        0.00      83.66       1.42       0.36       0.41       ----

> <Gold.Chemscore.Fitness>
20.8909

> <Gold.Chemscore.DG>
-21.6605

> <Gold.Chemscore.ZeroCoef>
-5.4800

> <Gold.Chemscore.Hbond>
3.0021

> <Gold.Chemscore.Metal>
0.0000

> <Gold.Chemscore.Lipo>
83.6602

> <Gold.Chemscore.Internal_Hbond>
0.0000

> <Gold.Chemscore.DEClash>
0.3560

> <Gold.Chemscore.DEInternal>
0.4135

> <Gold.Chemscore.Rot>
1.4199

> <Gold.Chemscore.Internal.Correction>
   9.000000E+99

> <Gold.Chemscore.Hbonds>
donor molecule, donor type, donor heavy atom, donor atom, acceptor molecule, acceptor atom, score
      L1  H     7    27       P1  7948  0.89
      L1  H    10    28       P1  7948  0.95
      L1  H    15    33       P1  7957  0.67
      P1  H  8011  8017       L1    15  0.20

> <Gold.Chemscore.Hbond.Weighted>
-10.0272

> <Gold.Chemscore.Metal.Weighted>
-0.0000

> <Gold.Chemscore.Lipo.Weighted>
-9.7882

> <Gold.Chemscore.Internal_Hbond.Weighted>
0.0000

> <Gold.Chemscore.DEClash.Weighted>
0.3560

> <Gold.Chemscore.DEInternal.Weighted>
0.4135

> <Gold.Chemscore.Rot.Weighted>
3.6349

> <Gold.Chemscore.Internal.Correction.Weighted>
   9.000000E+99

> <Gold.Protein.RotatedTorsions>
[ 6907 6896 6895 6894 ] final  -72.27 input  -60.11 | X-H torsion
[ 7974 7965 7964 7962 ] final  149.68 input  175.53 | X-H torsion
[ 8008 7997 7996 7995 ] final   98.93 input   59.86 | X-H torsion
[ 10167 10162 10161 10158 ] final -148.75 input  -65.29 | X-H torsion
[ 10718 10713 10712 10709 ] final -147.64 input   66.30 | X-H torsion
[ 10763 10752 10751 10750 ] final  -43.45 input  -60.55 | X-H torsion
[ 11005 11000 10999 10996 ] final  -41.74 input  -57.11 | X-H torsion

> <Gold.Protein.ActiveResidues>
 VAL166  LYS551  ARG553  GLY616  TRP617  ASP618  TYR619  PRO620  LYS621  CYS622 
 ASP623  PHE694  ASN695  SER759  ASP760  ASP761  ALA762  ILE779  LEU786  VAL792 
 PHE793  MET794  SER795  GLU796  ALA797  LYS798  CYS799  TRP800  GLU811  SER814 

> <Gold.Protein.RotatedAtoms>
  150.7177  134.5187  159.5642 H   0  0  0  0  0  0  0  0  0  0  0  0  # atno 6907 bound_to 6896
  152.2747  134.7891  160.0417 H   0  0  0  0  0  0  0  0  0  0  0  0  # atno 6908 bound_to 6896
  151.8559  133.3413  159.3725 H   0  0  0  0  0  0  0  0  0  0  0  0  # atno 6909 bound_to 6896
  144.8420  139.6311  143.6012 H   0  0  0  0  0  0  0  0  0  0  0  0  # atno 7974 bound_to 7965
  156.1054  140.3236  155.7999 H   0  0  0  0  0  0  0  0  0  0  0  0  # atno 8008 bound_to 7997
  155.4764  140.0550  157.2990 H   0  0  0  0  0  0  0  0  0  0  0  0  # atno 8009 bound_to 7997
  154.4724  140.2017  155.9975 H   0  0  0  0  0  0  0  0  0  0  0  0  # atno 8010 bound_to 7997
  139.7504  143.8527  152.2585 H   0  0  0  0  0  0  0  0  0  0  0  0  # atno 10167 bound_to 10162
  156.4101  130.7977  151.2194 H   0  0  0  0  0  0  0  0  0  0  0  0  # atno 10718 bound_to 10713
  153.9958  135.6699  153.4756 H   0  0  0  0  0  0  0  0  0  0  0  0  # atno 10763 bound_to 10752
  153.0684  135.4988  154.8248 H   0  0  0  0  0  0  0  0  0  0  0  0  # atno 10764 bound_to 10752
  154.7082  135.3092  154.9200 H   0  0  0  0  0  0  0  0  0  0  0  0  # atno 10765 bound_to 10752
  141.0267  133.6838  156.2498 H   0  0  0  0  0  0  0  0  0  0  0  0  # atno 11005 bound_to 11000
  146.2711  139.6637  142.9295 LP  0  0  0  0  0  0  0  0  0  0  0  0  # atno 17320 bound_to 7965
  145.4675  141.0435  143.2717 LP  0  0  0  0  0  0  0  0  0  0  0  0  # atno 17321 bound_to 7965
  139.8504  144.7167  150.9221 LP  0  0  0  0  0  0  0  0  0  0  0  0  # atno 17342 bound_to 10162
  140.7797  143.3905  151.1319 LP  0  0  0  0  0  0  0  0  0  0  0  0  # atno 17343 bound_to 10162
  157.7507  131.0260  150.3944 LP  0  0  0  0  0  0  0  0  0  0  0  0  # atno 17370 bound_to 10713
  156.4241  130.3959  149.6805 LP  0  0  0  0  0  0  0  0  0  0  0  0  # atno 17371 bound_to 10713
  140.6479  134.5097  157.5575 LP  0  0  0  0  0  0  0  0  0  0  0  0  # atno 17394 bound_to 11000
  139.9180  134.8206  156.1302 LP  0  0  0  0  0  0  0  0  0  0  0  0  # atno 17395 bound_to 11000

$$$$
