AV-unprocessed.smi:37|AV-procd|sdf|309|dock4
  -GOLD-   2262016123D 1   1.00000     0.00000
 Structure written by MMmdl.
 44 45  0  0  0  0  0  0  0  0  1 V2000
  147.0950  133.7208  162.4157 C   0  0  0  0  0  0  0  0  0  0  0  0
  146.7944  135.2181  162.5651 C   0  0  0  0  0  0  0  0  0  0  0  0
  147.4227  136.0482  161.4482 C   0  0  0  0  0  0  0  0  0  0  0  0
  148.3317  136.8464  161.6776 O   0  0  0  0  0  0  0  0  0  0  0  0
  146.8655  135.8065  160.2489 O   0  0  0  0  0  0  0  0  0  0  0  0
  147.4393  136.3508  159.0701 C   0  0  0  0  0  0  0  0  0  0  0  0
  148.4513  135.3513  158.4949 C   0  0  2  0  0  0  0  0  0  0  0  0
  149.7501  135.7240  158.9528 O   0  0  0  0  0  0  0  0  0  0  0  0
  150.5998  135.9052  157.8651 C   0  0  2  0  0  0  0  0  0  0  0  0
  151.6517  136.9498  158.1758 N   0  0  0  0  0  0  0  0  0  0  0  0
  151.2495  138.2155  158.5779 C   0  0  0  0  0  0  0  0  0  0  0  0
  152.1185  139.2151  158.8586 C   0  0  0  0  0  0  0  0  0  0  0  0
  151.6492  140.4113  159.2516 F   0  0  0  0  0  0  0  0  0  0  0  0
  153.5577  139.0051  158.7385 C   0  0  0  0  0  0  0  0  0  0  0  0
  154.4231  139.8462  158.9722 O   0  0  0  0  0  0  0  0  0  0  0  0
  153.9193  137.7229  158.3167 N   0  0  0  0  0  0  0  0  0  0  0  0
  153.0346  136.6839  158.0226 C   0  0  0  0  0  0  0  0  0  0  0  0
  153.4773  135.6001  157.6457 O   0  0  0  0  0  0  0  0  0  0  0  0
  149.7354  136.1838  156.6270 C   0  0  2  0  0  0  0  0  0  0  0  0
  149.1899  138.0874  156.3720 Br  0  0  0  0  0  0  0  0  0  0  0  0
  148.4986  135.3623  156.9553 C   0  0  1  0  0  0  0  0  0  0  0  0
  148.6441  134.0223  156.4962 O   0  0  0  0  0  0  0  0  0  0  0  0
  148.6244  133.7487  155.1791 C   0  0  0  0  0  0  0  0  0  0  0  0
  148.0336  134.4036  154.3188 O   0  0  0  0  0  0  0  0  0  0  0  0
  149.4461  132.5029  154.8417 C   0  0  0  0  0  0  0  0  0  0  0  0
  149.4564  132.1605  153.3445 C   0  0  0  0  0  0  0  0  0  0  0  0
  154.9054  137.5330  158.2113 H   0  0  0  0  0  0  0  0  0  0  0  0
  146.6480  133.1571  163.2346 H   0  0  0  0  0  0  0  0  0  0  0  0
  148.1685  133.5290  162.4306 H   0  0  0  0  0  0  0  0  0  0  0  0
  146.6930  133.3217  161.4837 H   0  0  0  0  0  0  0  0  0  0  0  0
  145.7170  135.3845  162.5623 H   0  0  0  0  0  0  0  0  0  0  0  0
  147.1672  135.5770  163.5248 H   0  0  0  0  0  0  0  0  0  0  0  0
  146.6824  136.5825  158.3202 H   0  0  0  0  0  0  0  0  0  0  0  0
  147.9363  137.2872  159.3242 H   0  0  0  0  0  0  0  0  0  0  0  0
  148.2202  134.3542  158.8726 H   0  0  0  0  0  0  0  0  0  0  0  0
  151.1475  134.9671  157.7559 H   0  0  0  0  0  0  0  0  0  0  0  0
  150.1938  138.4204  158.6860 H   0  0  0  0  0  0  0  0  0  0  0  0
  150.2492  135.8661  155.7190 H   0  0  0  0  0  0  0  0  0  0  0  0
  147.5942  135.8007  156.5304 H   0  0  0  0  0  0  0  0  0  0  0  0
  150.4678  132.6574  155.1896 H   0  0  0  0  0  0  0  0  0  0  0  0
  149.0444  131.6615  155.4068 H   0  0  0  0  0  0  0  0  0  0  0  0
  150.0452  131.2618  153.1606 H   0  0  0  0  0  0  0  0  0  0  0  0
  149.8935  132.9670  152.7546 H   0  0  0  0  0  0  0  0  0  0  0  0
  148.4485  131.9754  152.9712 H   0  0  0  0  0  0  0  0  0  0  0  0
  1  2  1  0  0  0  0
  1 28  1  0  0  0  0
  1 29  1  0  0  0  0
  1 30  1  0  0  0  0
  2  3  1  0  0  0  0
  2 31  1  0  0  0  0
  2 32  1  0  0  0  0
  3  4  2  0  0  0  0
  3  5  1  0  0  0  0
  5  6  1  0  0  0  0
  6  7  1  0  0  0  0
  6 33  1  0  0  0  0
  6 34  1  0  0  0  0
  7 21  1  0  0  0  0
  7  8  1  0  0  0  0
  7 35  1  0  0  0  0
  8  9  1  0  0  0  0
  9 10  1  0  0  0  0
  9 19  1  0  0  0  0
  9 36  1  0  0  0  0
 10 17  1  0  0  0  0
 10 11  1  0  0  0  0
 11 12  2  0  0  0  0
 11 37  1  0  0  0  0
 12 13  1  0  0  0  0
 12 14  1  0  0  0  0
 14 15  2  0  0  0  0
 14 16  1  0  0  0  0
 16 27  1  0  0  0  0
 16 17  1  0  0  0  0
 17 18  2  0  0  0  0
 19 20  1  0  0  0  0
 19 21  1  0  0  0  0
 19 38  1  0  0  0  0
 21 22  1  0  0  0  0
 21 39  1  0  0  0  0
 22 23  1  0  0  0  0
 23 24  2  0  0  0  0
 23 25  1  0  0  0  0
 25 26  1  0  0  0  0
 25 40  1  0  0  0  0
 25 41  1  0  0  0  0
 26 42  1  0  0  0  0
 26 43  1  0  0  0  0
 26 44  1  0  0  0  0
M  END
> <s_m_source_file>
AV-unprocessed.smi

> <i_m_source_file_index>
37

> <i_lp_mmshare_version>
43012

> <i_f3d_flags>
0

> <s_epik_input>
W0NIM11bQ0gyXUMoPU8pT1tDSDJdW0NAQEhdMU9bQ0BASF0objJbY0hdYyhGKWMoPU8pW25IXWMyPU8pW0NAQEhdKEJyKVtDQEhdMU9DKD1PKVtDSDJdW0NIM10=

> <s_epik_cmdline>
J2VwaWtfcHl0aG9uJywgJy1waCcsICc3LjAnLCAnLXRuJywgJzgnLCAnLW1hJywgJzIwMCcsICctbWV0YWxfYmluZGluZycsICctaW1hZScsICc8aW5maWxlLm1hZT4nLCAnLW9tYWUnLCAnPG91dGZpbGUubWFlPic=

> <r_lp_tautomer_probability>
0.999537

> <r_epik_Ionization_Penalty>
0.104106

> <r_epik_Ionization_Penalty_Charging>
0.104106

> <r_epik_Ionization_Penalty_Neutral>
3.94675e-16

> <r_epik_State_Penalty>
0.0940182

> <r_epik_Charging_Adjusted_Penalty>
0.198124

> <i_epik_Tot_Q>
0

> <i_epik_Tot_abs_Q>
0

> <r_epik_Metal_State_Penalty>
3.05314

> <b_epik_Metal_Only>
0

> <s_epik_Chemistry_Notes>
This compound has an ester and may undergo hydrolysis at high or low pH. This compound contains an acetal/aminal-like group ( X-CH(R)-Y where X, Y are N, S, or O) that may be acid/base labile, releasing an aldehyde.

> <s_lp_Force_Field>
OPLS_2005

> <r_lp_Energy>
23.3394

> <b_lp_Chiralities_Consistent>
1

> <s_lp_Variant>
AV-unprocessed.smi:37-7

> <Gold.Version>
5.8.1

> <Gold.Id.Protein>
6NUR|6NUR_protein|mol2

> <Gold.PLP.Fitness>
38.7480

> <Gold.PLP.PLP>
-29.6339

> <Gold.PLP.part.hbond>
-4.2505

> <Gold.PLP.part.metal>
0.0000

> <Gold.PLP.part.buried>
-2.9663

> <Gold.PLP.part.nonpolar>
-22.9118

> <Gold.PLP.part.repulsive>
1.2034

> <Gold.PLP.ligand.clash>
0.0000

> <Gold.PLP.ligand.torsion>
1.3030

> <Gold.PLP.Chemscore.Hbond>
3.8500

> <Gold.PLP.Chemscore.CHOScore>
0.0000

> <Gold.PLP.Chemscore.Metal>
0.0000

> <Gold.Chemscore.Hbonds>
donor molecule, donor type, donor heavy atom, donor atom, acceptor molecule, acceptor atom, score
      P1  H  6896  6907       L1     8  0.60
      P1  H  6931  6943       L1     4  1.00
      P1  H  7997  8010       L1    15  1.00
      P1  H 10752 10764       L1    18  0.37

> <Gold.PLP.Chemscore.Internal.Correction>
0.1700

> <Gold.Rescore>
     Score         DG    S(hbond)    S(metal)    S(lipo)     H(rot)  DE(clash)    DE(int)     intcor
     10.82     -12.56       3.07        0.00      45.82       3.33       0.02       1.72       ----

> <Gold.Chemscore.Fitness>
10.8185

> <Gold.Chemscore.DG>
-12.5581

> <Gold.Chemscore.ZeroCoef>
-5.4800

> <Gold.Chemscore.Hbond>
3.0667

> <Gold.Chemscore.Metal>
0.0000

> <Gold.Chemscore.Lipo>
45.8200

> <Gold.Chemscore.Internal_Hbond>
0.0000

> <Gold.Chemscore.DEClash>
0.0208

> <Gold.Chemscore.DEInternal>
1.7187

> <Gold.Chemscore.Rot>
3.3303

> <Gold.Chemscore.Internal.Correction>
   9.000000E+99

> <Gold.Chemscore.Hbonds>
donor molecule, donor type, donor heavy atom, donor atom, acceptor molecule, acceptor atom, score
      P1  H  6896  6907       L1     8  0.04
      P1  H  6931  6943       L1     4  0.98
      P1  H  7997  8010       L1    15  0.25
      P1  H 10752 10764       L1    18  0.34

> <Gold.Chemscore.Hbond.Weighted>
-10.2428

> <Gold.Chemscore.Metal.Weighted>
-0.0000

> <Gold.Chemscore.Lipo.Weighted>
-5.3609

> <Gold.Chemscore.Internal_Hbond.Weighted>
0.0000

> <Gold.Chemscore.DEClash.Weighted>
0.0208

> <Gold.Chemscore.DEInternal.Weighted>
1.7187

> <Gold.Chemscore.Rot.Weighted>
8.5256

> <Gold.Chemscore.Internal.Correction.Weighted>
   9.000000E+99

> <Gold.Protein.RotatedTorsions>
[ 6907 6896 6895 6894 ] final  -58.29 input  -60.11 | X-H torsion
[ 7974 7965 7964 7962 ] final   27.73 input  175.53 | X-H torsion
[ 8008 7997 7996 7995 ] final   -0.43 input   59.86 | X-H torsion
[ 10167 10162 10161 10158 ] final  116.16 input  -65.29 | X-H torsion
[ 10718 10713 10712 10709 ] final -156.42 input   66.30 | X-H torsion
[ 10763 10752 10751 10750 ] final    6.13 input  -60.55 | X-H torsion
[ 11005 11000 10999 10996 ] final  111.97 input  -57.11 | X-H torsion

> <Gold.Protein.ActiveResidues>
 VAL166  LYS551  ARG553  GLY616  TRP617  ASP618  TYR619  PRO620  LYS621  CYS622 
 ASP623  PHE694  ASN695  SER759  ASP760  ASP761  ALA762  ILE779  LEU786  VAL792 
 PHE793  MET794  SER795  GLU796  ALA797  LYS798  CYS799  TRP800  GLU811  SER814 

> <Gold.Protein.RotatedAtoms>
  150.8018  134.7117  159.6607 H   0  0  0  0  0  0  0  0  0  0  0  0  # atno 6907 bound_to 6896
  152.4135  134.6079  160.0027 H   0  0  0  0  0  0  0  0  0  0  0  0  # atno 6908 bound_to 6896
  151.6314  133.3295  159.3146 H   0  0  0  0  0  0  0  0  0  0  0  0  # atno 6909 bound_to 6896
  146.1768  139.7151  142.8929 H   0  0  0  0  0  0  0  0  0  0  0  0  # atno 7974 bound_to 7965
  154.6581  140.2584  155.7138 H   0  0  0  0  0  0  0  0  0  0  0  0  # atno 8008 bound_to 7997
  156.2606  140.2854  156.0964 H   0  0  0  0  0  0  0  0  0  0  0  0  # atno 8009 bound_to 7997
  155.1349  140.0379  157.2774 H   0  0  0  0  0  0  0  0  0  0  0  0  # atno 8010 bound_to 7997
  139.6266  144.7109  151.2520 H   0  0  0  0  0  0  0  0  0  0  0  0  # atno 10167 bound_to 10162
  156.5263  130.8501  151.2700 H   0  0  0  0  0  0  0  0  0  0  0  0  # atno 10718 bound_to 10713
  153.2513  135.6914  153.7676 H   0  0  0  0  0  0  0  0  0  0  0  0  # atno 10763 bound_to 10752
  153.6769  135.3335  155.3169 H   0  0  0  0  0  0  0  0  0  0  0  0  # atno 10764 bound_to 10752
  154.8395  135.4513  154.1471 H   0  0  0  0  0  0  0  0  0  0  0  0  # atno 10765 bound_to 10752
  139.8916  134.9520  156.6514 H   0  0  0  0  0  0  0  0  0  0  0  0  # atno 11005 bound_to 11000
  145.4189  141.0404  143.2975 LP  0  0  0  0  0  0  0  0  0  0  0  0  # atno 17320 bound_to 7965
  144.8249  139.5727  143.6970 LP  0  0  0  0  0  0  0  0  0  0  0  0  # atno 17321 bound_to 7965
  140.7415  143.6556  150.8210 LP  0  0  0  0  0  0  0  0  0  0  0  0  # atno 17342 bound_to 10162
  140.0175  143.5577  152.2814 LP  0  0  0  0  0  0  0  0  0  0  0  0  # atno 17343 bound_to 10162
  157.7429  130.9900  150.2550 LP  0  0  0  0  0  0  0  0  0  0  0  0  # atno 17370 bound_to 10713
  156.3101  130.3770  149.7669 LP  0  0  0  0  0  0  0  0  0  0  0  0  # atno 17371 bound_to 10713
  140.7518  133.8891  155.8352 LP  0  0  0  0  0  0  0  0  0  0  0  0  # atno 17394 bound_to 11000
  140.9995  134.1170  157.4331 LP  0  0  0  0  0  0  0  0  0  0  0  0  # atno 17395 bound_to 11000

$$$$
