AV-unprocessed.smi:1639|AV-procd|sdf|6552|dock2
  -GOLD-   22720 7233D 1   1.00000     0.00000
 Structure written by MMmdl.
 38 39  0  0  0  0  0  0  0  0  2 V2000
  151.5780  145.5437  159.5720 C   0  0  0  0  0  0  0  0  0  0  0  0
  151.1845  144.1016  159.2445 C   0  0  0  0  0  0  0  0  0  0  0  0
  152.2786  143.2497  159.5404 O   0  0  0  0  0  0  0  0  0  0  0  0
  151.9910  141.8674  159.3855 C   0  0  2  0  0  0  0  0  0  0  0  0
  153.2289  141.0525  159.7972 C   0  0  0  0  0  0  0  0  0  0  0  0
  153.0145  139.5635  159.4805 C   0  0  0  0  0  0  0  0  0  0  0  0
  152.6309  139.3658  158.0037 C   0  0  0  0  0  0  0  0  0  0  0  0
  151.4723  140.1842  157.6544 N   0  0  0  0  0  0  0  0  0  0  0  0
  150.9662  139.9071  156.3775 C   0  0  0  0  0  0  0  0  0  0  0  0
  149.8846  140.6520  155.8768 C   0  0  0  0  0  0  0  0  0  0  0  0
  149.4287  140.3277  154.5843 C   0  0  0  0  0  0  0  0  0  0  0  0
  148.2759  141.0592  153.9311 C   0  0  0  0  0  0  0  0  0  0  0  0
  150.0276  139.3333  153.8823 N   0  3  0  0  0  0  0  0  0  0  0  0
  151.0542  138.6622  154.4245 C   0  0  0  0  0  0  0  0  0  0  0  0
  151.6446  137.6592  153.6935 N   0  0  0  0  0  0  0  0  0  0  0  0
  151.5342  138.9226  155.6450 N   0  0  0  0  0  0  0  0  0  0  0  0
  151.6417  141.6126  157.9093 C   0  0  0  0  0  0  0  0  0  0  0  0
  150.7593  146.2300  159.3552 H   0  0  0  0  0  0  0  0  0  0  0  0
  152.4408  145.8561  158.9831 H   0  0  0  0  0  0  0  0  0  0  0  0
  151.8343  145.6506  160.6262 H   0  0  0  0  0  0  0  0  0  0  0  0
  150.3122  143.8077  159.8302 H   0  0  0  0  0  0  0  0  0  0  0  0
  150.9210  144.0207  158.1888 H   0  0  0  0  0  0  0  0  0  0  0  0
  151.1450  141.5590  160.0039 H   0  0  0  0  0  0  0  0  0  0  0  0
  154.1054  141.4167  159.2601 H   0  0  0  0  0  0  0  0  0  0  0  0
  153.4337  141.1872  160.8597 H   0  0  0  0  0  0  0  0  0  0  0  0
  153.9172  138.9972  159.7108 H   0  0  0  0  0  0  0  0  0  0  0  0
  152.2259  139.1640  160.1196 H   0  0  0  0  0  0  0  0  0  0  0  0
  153.4726  139.6353  157.3639 H   0  0  0  0  0  0  0  0  0  0  0  0
  152.4104  138.3142  157.8152 H   0  0  0  0  0  0  0  0  0  0  0  0
  149.4272  141.4396  156.4582 H   0  0  0  0  0  0  0  0  0  0  0  0
  147.8802  141.8354  154.5867 H   0  0  0  0  0  0  0  0  0  0  0  0
  147.4679  140.3649  153.6990 H   0  0  0  0  0  0  0  0  0  0  0  0
  148.6026  141.5311  153.0040 H   0  0  0  0  0  0  0  0  0  0  0  0
  151.3080  137.4365  152.7677 H   0  0  0  0  0  0  0  0  0  0  0  0
  152.4107  137.1253  154.0774 H   0  0  0  0  0  0  0  0  0  0  0  0
  150.7261  142.1452  157.6481 H   0  0  0  0  0  0  0  0  0  0  0  0
  152.4340  142.0045  157.2696 H   0  0  0  0  0  0  0  0  0  0  0  0
  149.6897  139.1061  152.9468 H   0  0  0  0  0  0  0  0  0  0  0  0
  1  2  1  0  0  0  0
  1 18  1  0  0  0  0
  1 19  1  0  0  0  0
  1 20  1  0  0  0  0
  2  3  1  0  0  0  0
  2 21  1  0  0  0  0
  2 22  1  0  0  0  0
  3  4  1  0  0  0  0
  4 17  1  0  0  0  0
  4  5  1  0  0  0  0
  4 23  1  0  0  0  0
  5  6  1  0  0  0  0
  5 24  1  0  0  0  0
  5 25  1  0  0  0  0
  6  7  1  0  0  0  0
  6 26  1  0  0  0  0
  6 27  1  0  0  0  0
  7  8  1  0  0  0  0
  7 28  1  0  0  0  0
  7 29  1  0  0  0  0
  8  9  1  0  0  0  0
  8 17  1  0  0  0  0
  9 16  1  0  0  0  0
  9 10  2  0  0  0  0
 10 11  1  0  0  0  0
 10 30  1  0  0  0  0
 11 12  1  0  0  0  0
 11 13  2  0  0  0  0
 12 31  1  0  0  0  0
 12 32  1  0  0  0  0
 12 33  1  0  0  0  0
 13 14  1  0  0  0  0
 13 38  1  0  0  0  0
 14 15  1  0  0  0  0
 14 16  2  0  0  0  0
 15 34  1  0  0  0  0
 15 35  1  0  0  0  0
 17 36  1  0  0  0  0
 17 37  1  0  0  0  0
M  CHG  1  13   1
M  END
> <s_m_source_file>
AV-unprocessed.smi

> <i_m_source_file_index>
1639

> <i_lp_mmshare_version>
43012

> <i_f3d_flags>
0

> <s_epik_input>
W0NIM11bQ0gyXU9bQ0BASF0xW0NIMl1bQ0gyXVtDSDJdTihbQ0gyXTEpYzJbY0hdYyhbQ0gzXSluYyhuMilbTkgyXQ==

> <s_epik_cmdline>
J2VwaWtfcHl0aG9uJywgJy1waCcsICc3LjAnLCAnLXRuJywgJzgnLCAnLW1hJywgJzIwMCcsICctbWV0YWxfYmluZGluZycsICctaW1hZScsICc8aW5maWxlLm1hZT4nLCAnLW9tYWUnLCAnPG91dGZpbGUubWFlPic=

> <r_lp_tautomer_probability>
0.575011

> <r_epik_Ionization_Penalty>
2.98813

> <r_epik_Ionization_Penalty_Charging>
2.98813

> <r_epik_Ionization_Penalty_Neutral>
3.21773e-06

> <r_epik_State_Penalty>
2.17402

> <r_epik_Charging_Adjusted_Penalty>
5.16215

> <i_epik_Tot_Q>
1

> <i_epik_Tot_abs_Q>
1

> <r_epik_Metal_State_Penalty>
2.51158

> <b_epik_Metal_Only>
0

> <s_lp_Force_Field>
OPLS_2005

> <r_lp_Energy>
16.4344

> <b_lp_Chiralities_Consistent>
1

> <s_lp_Variant>
AV-unprocessed.smi:1639-5

> <Gold.Version>
5.8.1

> <Gold.Id.Protein>
6NUR|6NUR_protein|mol2

> <Gold.PLP.Fitness>
41.9219

> <Gold.PLP.PLP>
-34.4387

> <Gold.PLP.part.hbond>
-2.0000

> <Gold.PLP.part.metal>
0.0000

> <Gold.PLP.part.buried>
-3.7405

> <Gold.PLP.part.nonpolar>
-28.2590

> <Gold.PLP.part.repulsive>
0.2597

> <Gold.PLP.ligand.clash>
0.0000

> <Gold.PLP.ligand.torsion>
0.2009

> <Gold.PLP.Chemscore.Hbond>
2.5760

> <Gold.PLP.Chemscore.CHOScore>
0.0000

> <Gold.PLP.Chemscore.Metal>
0.0000

> <Gold.Chemscore.Hbonds>
donor molecule, donor type, donor heavy atom, donor atom, acceptor molecule, acceptor atom, score
      L1  H    13    38       P1  7957  0.74
      L1  H    15    34       P1  7949  1.73

> <Gold.PLP.Chemscore.Internal.Correction>
0.1571

> <Gold.Rescore>
     Score         DG    S(hbond)    S(metal)    S(lipo)     H(rot)  DE(clash)    DE(int)     intcor
     15.52     -15.76       1.43        0.00      78.84       1.46       0.16       0.09       ----

> <Gold.Chemscore.Fitness>
15.5214

> <Gold.Chemscore.DG>
-15.7634

> <Gold.Chemscore.ZeroCoef>
-5.4800

> <Gold.Chemscore.Hbond>
1.4330

> <Gold.Chemscore.Metal>
0.0000

> <Gold.Chemscore.Lipo>
78.8413

> <Gold.Chemscore.Internal_Hbond>
0.0000

> <Gold.Chemscore.DEClash>
0.1551

> <Gold.Chemscore.DEInternal>
0.0868

> <Gold.Chemscore.Rot>
1.4560

> <Gold.Chemscore.Internal.Correction>
   9.000000E+99

> <Gold.Chemscore.Hbonds>
donor molecule, donor type, donor heavy atom, donor atom, acceptor molecule, acceptor atom, score
      L1  H    13    38       P1  7957  0.69
      L1  H    15    34       P1  7949  0.59

> <Gold.Chemscore.Hbond.Weighted>
-4.7862

> <Gold.Chemscore.Metal.Weighted>
-0.0000

> <Gold.Chemscore.Lipo.Weighted>
-9.2244

> <Gold.Chemscore.Internal_Hbond.Weighted>
0.0000

> <Gold.Chemscore.DEClash.Weighted>
0.1551

> <Gold.Chemscore.DEInternal.Weighted>
0.0868

> <Gold.Chemscore.Rot.Weighted>
3.7272

> <Gold.Chemscore.Internal.Correction.Weighted>
   9.000000E+99

> <Gold.Protein.RotatedTorsions>
[ 6907 6896 6895 6894 ] final  171.16 input  -60.11 | X-H torsion
[ 7974 7965 7964 7962 ] final  -99.62 input  175.53 | X-H torsion
[ 8008 7997 7996 7995 ] final -150.01 input   59.86 | X-H torsion
[ 10167 10162 10161 10158 ] final -130.75 input  -65.29 | X-H torsion
[ 10718 10713 10712 10709 ] final  -36.07 input   66.30 | X-H torsion
[ 10763 10752 10751 10750 ] final  -78.34 input  -60.55 | X-H torsion
[ 11005 11000 10999 10996 ] final  131.81 input  -57.11 | X-H torsion

> <Gold.Protein.ActiveResidues>
 VAL166  LYS551  ARG553  GLY616  TRP617  ASP618  TYR619  PRO620  LYS621  CYS622 
 ASP623  PHE694  ASN695  SER759  ASP760  ASP761  ALA762  ILE779  LEU786  VAL792 
 PHE793  MET794  SER795  GLU796  ALA797  LYS798  CYS799  TRP800  GLU811  SER814 

> <Gold.Protein.RotatedAtoms>
  151.8047  133.3374  159.3537 H   0  0  0  0  0  0  0  0  0  0  0  0  # atno 6907 bound_to 6896
  150.7346  134.5720  159.5905 H   0  0  0  0  0  0  0  0  0  0  0  0  # atno 6908 bound_to 6896
  152.3118  134.7489  160.0386 H   0  0  0  0  0  0  0  0  0  0  0  0  # atno 6909 bound_to 6896
  145.3053  140.9387  143.2800 H   0  0  0  0  0  0  0  0  0  0  0  0  # atno 7974 bound_to 7965
  155.6167  140.0677  157.2690 H   0  0  0  0  0  0  0  0  0  0  0  0  # atno 8008 bound_to 7997
  154.4239  140.1792  156.1377 H   0  0  0  0  0  0  0  0  0  0  0  0  # atno 8009 bound_to 7997
  156.0042  140.3333  155.6879 H   0  0  0  0  0  0  0  0  0  0  0  0  # atno 8010 bound_to 7997
  139.9260  143.6327  152.2542 H   0  0  0  0  0  0  0  0  0  0  0  0  # atno 10167 bound_to 10162
  156.3311  130.4279  149.7871 H   0  0  0  0  0  0  0  0  0  0  0  0  # atno 10718 bound_to 10713
  154.5246  135.5733  153.6708 H   0  0  0  0  0  0  0  0  0  0  0  0  # atno 10763 bound_to 10752
  152.9925  135.6190  154.2710 H   0  0  0  0  0  0  0  0  0  0  0  0  # atno 10764 bound_to 10752
  154.2633  135.2855  155.2749 H   0  0  0  0  0  0  0  0  0  0  0  0  # atno 10765 bound_to 10752
  139.9752  134.9565  156.9492 H   0  0  0  0  0  0  0  0  0  0  0  0  # atno 11005 bound_to 11000
  144.9060  139.4588  143.6609 LP  0  0  0  0  0  0  0  0  0  0  0  0  # atno 17320 bound_to 7965
  146.3137  139.7842  142.9000 LP  0  0  0  0  0  0  0  0  0  0  0  0  # atno 17321 bound_to 7965
  139.6821  144.7654  151.1589 LP  0  0  0  0  0  0  0  0  0  0  0  0  # atno 17342 bound_to 10162
  140.7650  143.5709  150.8997 LP  0  0  0  0  0  0  0  0  0  0  0  0  # atno 17343 bound_to 10162
  156.5143  130.8186  151.3180 LP  0  0  0  0  0  0  0  0  0  0  0  0  # atno 17370 bound_to 10713
  157.7430  130.9903  150.2562 LP  0  0  0  0  0  0  0  0  0  0  0  0  # atno 17371 bound_to 10713
  140.5209  134.0909  155.7292 LP  0  0  0  0  0  0  0  0  0  0  0  0  # atno 17394 bound_to 11000
  141.1430  133.9105  157.2282 LP  0  0  0  0  0  0  0  0  0  0  0  0  # atno 17395 bound_to 11000

$$$$
