AV-unprocessed.smi:1050|AV-procd|sdf|4613|dock3
  -GOLD-   22720 3113D 1   1.00000     0.00000
 Structure written by MMmdl.
 48 49  0  0  0  0  0  0  0  0  1 V2000
  148.4066  126.3374  151.9342 C   0  0  0  0  0  0  0  0  0  0  0  0
  148.2308  127.2993  152.9688 O   0  0  0  0  0  0  0  0  0  0  0  0
  147.5377  128.4553  152.6748 C   0  0  0  0  0  0  0  0  0  0  0  0
  146.5353  128.4111  151.6892 C   0  0  0  0  0  0  0  0  0  0  0  0
  145.8278  129.5891  151.3898 C   0  0  0  0  0  0  0  0  0  0  0  0
  146.1502  130.7844  152.0770 C   0  0  0  0  0  0  0  0  0  0  0  0
  145.4560  132.0106  151.8661 N   0  0  0  0  0  0  0  0  0  0  0  0
  144.4571  132.2832  151.0072 C   0  0  0  0  0  0  0  0  0  0  0  0
  143.9525  131.4654  150.2380 O   0  0  0  0  0  0  0  0  0  0  0  0
  143.9526  133.7364  151.0185 C   0  0  1  0  0  0  0  0  0  0  0  0
  143.2974  134.0967  152.3604 C   0  0  0  0  0  0  0  0  0  0  0  0
  145.0334  134.6412  150.8079 O   0  0  0  0  0  0  0  0  0  0  0  0
  144.7135  136.0172  150.9700 C   0  0  0  0  0  0  0  0  0  0  0  0
  147.1684  130.7299  153.0653 C   0  0  0  0  0  0  0  0  0  0  0  0
  147.5304  131.8860  153.7840 N   0  0  0  0  0  0  0  0  0  0  0  0
  148.9196  132.2950  153.5760 C   0  0  0  0  0  0  0  0  0  0  0  0
  149.1766  133.6849  154.1901 C   0  0  0  0  0  0  0  0  0  0  0  0
  148.7676  133.6681  155.6009 N   0  0  0  0  0  0  0  0  0  0  0  0
  149.6480  133.7781  156.6239 C   0  0  0  0  0  0  0  0  0  0  0  0
  151.1281  134.0125  156.3146 C   0  0  0  0  0  0  0  0  0  0  0  0
  149.3088  133.6997  157.8047 O   0  0  0  0  0  0  0  0  0  0  0  0
  147.3324  133.3835  155.7357 C   0  0  0  0  0  0  0  0  0  0  0  0
  147.0506  131.9820  155.1639 C   0  0  0  0  0  0  0  0  0  0  0  0
  147.8425  129.5900  153.3484 N   0  0  0  0  0  0  0  0  0  0  0  0
  148.9696  125.4889  152.3225 H   0  0  0  0  0  0  0  0  0  0  0  0
  148.9683  126.7509  151.0952 H   0  0  0  0  0  0  0  0  0  0  0  0
  147.4486  125.9607  151.5726 H   0  0  0  0  0  0  0  0  0  0  0  0
  146.3073  127.4882  151.1766 H   0  0  0  0  0  0  0  0  0  0  0  0
  145.0408  129.5457  150.6535 H   0  0  0  0  0  0  0  0  0  0  0  0
  145.8204  132.8010  152.3783 H   0  0  0  0  0  0  0  0  0  0  0  0
  143.2073  133.8732  150.2322 H   0  0  0  0  0  0  0  0  0  0  0  0
  142.4700  133.4243  152.5900 H   0  0  0  0  0  0  0  0  0  0  0  0
  142.8992  135.1111  152.3348 H   0  0  0  0  0  0  0  0  0  0  0  0
  144.0108  134.0455  153.1838 H   0  0  0  0  0  0  0  0  0  0  0  0
  145.6194  136.6136  150.8626 H   0  0  0  0  0  0  0  0  0  0  0  0
  144.3022  136.2114  151.9614 H   0  0  0  0  0  0  0  0  0  0  0  0
  144.0014  136.3651  150.2215 H   0  0  0  0  0  0  0  0  0  0  0  0
  149.5778  131.5567  154.0363 H   0  0  0  0  0  0  0  0  0  0  0  0
  149.1612  132.3128  152.5130 H   0  0  0  0  0  0  0  0  0  0  0  0
  150.2231  133.9600  154.0538 H   0  0  0  0  0  0  0  0  0  0  0  0
  148.5979  134.4416  153.6586 H   0  0  0  0  0  0  0  0  0  0  0  0
  151.2636  134.9253  155.7335 H   0  0  0  0  0  0  0  0  0  0  0  0
  151.5432  133.1717  155.7584 H   0  0  0  0  0  0  0  0  0  0  0  0
  151.7017  134.1180  157.2363 H   0  0  0  0  0  0  0  0  0  0  0  0
  146.9655  133.4442  156.7589 H   0  0  0  0  0  0  0  0  0  0  0  0
  146.7684  134.1330  155.1785 H   0  0  0  0  0  0  0  0  0  0  0  0
  145.9800  131.7757  155.1949 H   0  0  0  0  0  0  0  0  0  0  0  0
  147.5441  131.2284  155.7794 H   0  0  0  0  0  0  0  0  0  0  0  0
  1  2  1  0  0  0  0
  1 25  1  0  0  0  0
  1 26  1  0  0  0  0
  1 27  1  0  0  0  0
  2  3  1  0  0  0  0
  3 24  1  0  0  0  0
  3  4  2  0  0  0  0
  4  5  1  0  0  0  0
  4 28  1  0  0  0  0
  5  6  2  0  0  0  0
  5 29  1  0  0  0  0
  6  7  1  0  0  0  0
  6 14  1  0  0  0  0
  7  8  1  0  0  0  0
  7 30  1  0  0  0  0
  8  9  2  0  0  0  0
  8 10  1  0  0  0  0
 10 11  1  0  0  0  0
 10 12  1  0  0  0  0
 10 31  1  0  0  0  0
 11 32  1  0  0  0  0
 11 33  1  0  0  0  0
 11 34  1  0  0  0  0
 12 13  1  0  0  0  0
 13 35  1  0  0  0  0
 13 36  1  0  0  0  0
 13 37  1  0  0  0  0
 14 15  1  0  0  0  0
 14 24  2  0  0  0  0
 15 23  1  0  0  0  0
 15 16  1  0  0  0  0
 16 17  1  0  0  0  0
 16 38  1  0  0  0  0
 16 39  1  0  0  0  0
 17 18  1  0  0  0  0
 17 40  1  0  0  0  0
 17 41  1  0  0  0  0
 18 19  1  0  0  0  0
 18 22  1  0  0  0  0
 19 20  1  0  0  0  0
 19 21  2  0  0  0  0
 20 42  1  0  0  0  0
 20 43  1  0  0  0  0
 20 44  1  0  0  0  0
 22 23  1  0  0  0  0
 22 45  1  0  0  0  0
 22 46  1  0  0  0  0
 23 47  1  0  0  0  0
 23 48  1  0  0  0  0
M  END
> <s_m_source_file>
AV-unprocessed.smi

> <i_m_source_file_index>
1050

> <i_lp_mmshare_version>
43012

> <i_f3d_flags>
0

> <s_epik_input>
W0NIM11PYzFbY0hdW2NIXWMoW05IXUMoPU8pW0NASF0oW0NIM10pT1tDSDNdKWMobjEpTjJbQ0gyXVtDSDJdTihDKD1PKVtDSDNdKVtDSDJdW0NIMl0y

> <s_epik_cmdline>
J2VwaWtfcHl0aG9uJywgJy1waCcsICc3LjAnLCAnLXRuJywgJzgnLCAnLW1hJywgJzIwMCcsICctbWV0YWxfYmluZGluZycsICctaW1hZScsICc8aW5maWxlLm1hZT4nLCAnLW9tYWUnLCAnPG91dGZpbGUubWFlPic=

> <r_lp_tautomer_probability>
1

> <r_epik_Ionization_Penalty>
0.000150604

> <r_epik_Ionization_Penalty_Charging>
0

> <r_epik_Ionization_Penalty_Neutral>
0.000150604

> <r_epik_State_Penalty>
-0

> <r_epik_Charging_Adjusted_Penalty>
0

> <i_epik_Tot_Q>
0

> <i_epik_Tot_abs_Q>
0

> <r_epik_Metal_State_Penalty>
-0

> <b_epik_Metal_Only>
0

> <s_lp_Force_Field>
OPLS_2005

> <r_lp_Energy>
41.0836

> <b_lp_Chiralities_Consistent>
1

> <s_lp_Variant>
AV-unprocessed.smi:1050-2

> <Gold.Version>
5.8.1

> <Gold.Id.Protein>
6NUR|6NUR_protein|mol2

> <Gold.PLP.Fitness>
38.6975

> <Gold.PLP.PLP>
-35.2499

> <Gold.PLP.part.hbond>
-2.0000

> <Gold.PLP.part.metal>
0.0000

> <Gold.PLP.part.buried>
-5.2868

> <Gold.PLP.part.nonpolar>
-28.1203

> <Gold.PLP.part.repulsive>
0.5795

> <Gold.PLP.ligand.clash>
0.0000

> <Gold.PLP.ligand.torsion>
0.6872

> <Gold.PLP.Chemscore.Hbond>
1.4919

> <Gold.PLP.Chemscore.CHOScore>
0.0000

> <Gold.PLP.Chemscore.Metal>
0.0000

> <Gold.Chemscore.Hbonds>
donor molecule, donor type, donor heavy atom, donor atom, acceptor molecule, acceptor atom, score
      P1  H  6896  6909       L1    21  0.84
      P1  H 10785 10796       L1     9  0.54

> <Gold.PLP.Chemscore.Internal.Correction>
0.3462

> <Gold.Rescore>
     Score         DG    S(hbond)    S(metal)    S(lipo)     H(rot)  DE(clash)    DE(int)     intcor
     12.79     -14.88       1.48        0.00      75.69       1.71       0.23       1.86       ----

> <Gold.Chemscore.Fitness>
12.7858

> <Gold.Chemscore.DG>
-14.8844

> <Gold.Chemscore.ZeroCoef>
-5.4800

> <Gold.Chemscore.Hbond>
1.4754

> <Gold.Chemscore.Metal>
0.0000

> <Gold.Chemscore.Lipo>
75.6879

> <Gold.Chemscore.Internal_Hbond>
0.0000

> <Gold.Chemscore.DEClash>
0.2349

> <Gold.Chemscore.DEInternal>
1.8636

> <Gold.Chemscore.Rot>
1.7106

> <Gold.Chemscore.Internal.Correction>
   9.000000E+99

> <Gold.Chemscore.Hbonds>
donor molecule, donor type, donor heavy atom, donor atom, acceptor molecule, acceptor atom, score
      P1  H  6896  6909       L1    21  0.80
      P1  H 10785 10796       L1     9  0.52

> <Gold.Chemscore.Hbond.Weighted>
-4.9279

> <Gold.Chemscore.Metal.Weighted>
-0.0000

> <Gold.Chemscore.Lipo.Weighted>
-8.8555

> <Gold.Chemscore.Internal_Hbond.Weighted>
0.0000

> <Gold.Chemscore.DEClash.Weighted>
0.2349

> <Gold.Chemscore.DEInternal.Weighted>
1.8636

> <Gold.Chemscore.Rot.Weighted>
4.3790

> <Gold.Chemscore.Internal.Correction.Weighted>
   9.000000E+99

> <Gold.Protein.RotatedTorsions>
[ 6907 6896 6895 6894 ] final   -3.81 input  -60.11 | X-H torsion
[ 7974 7965 7964 7962 ] final   31.17 input  175.53 | X-H torsion
[ 8008 7997 7996 7995 ] final   62.72 input   59.86 | X-H torsion
[ 10167 10162 10161 10158 ] final  -11.24 input  -65.29 | X-H torsion
[ 10718 10713 10712 10709 ] final  -91.52 input   66.30 | X-H torsion
[ 10763 10752 10751 10750 ] final   65.39 input  -60.55 | X-H torsion
[ 11005 11000 10999 10996 ] final  -97.01 input  -57.11 | X-H torsion

> <Gold.Protein.ActiveResidues>
 VAL166  LYS551  ARG553  GLY616  TRP617  ASP618  TYR619  PRO620  LYS621  CYS622 
 ASP623  PHE694  ASN695  SER759  ASP760  ASP761  ALA762  ILE779  LEU786  VAL792 
 PHE793  MET794  SER795  GLU796  ALA797  LYS798  CYS799  TRP800  GLU811  SER814 

> <Gold.Protein.RotatedAtoms>
  151.5078  135.1064  159.9845 H   0  0  0  0  0  0  0  0  0  0  0  0  # atno 6907 bound_to 6896
  152.4674  133.7950  159.6933 H   0  0  0  0  0  0  0  0  0  0  0  0  # atno 6908 bound_to 6896
  150.8665  133.7503  159.3000 H   0  0  0  0  0  0  0  0  0  0  0  0  # atno 6909 bound_to 6896
  146.1567  139.6692  142.9062 H   0  0  0  0  0  0  0  0  0  0  0  0  # atno 7974 bound_to 7965
  155.6188  140.3495  155.4645 H   0  0  0  0  0  0  0  0  0  0  0  0  # atno 8008 bound_to 7997
  156.0096  140.1230  157.0491 H   0  0  0  0  0  0  0  0  0  0  0  0  # atno 8009 bound_to 7997
  154.4276  140.1084  156.5797 H   0  0  0  0  0  0  0  0  0  0  0  0  # atno 8010 bound_to 7997
  140.7133  143.5661  150.9142 H   0  0  0  0  0  0  0  0  0  0  0  0  # atno 10167 bound_to 10162
  155.9994  130.4951  150.5487 H   0  0  0  0  0  0  0  0  0  0  0  0  # atno 10718 bound_to 10713
  153.0094  135.5358  154.6659 H   0  0  0  0  0  0  0  0  0  0  0  0  # atno 10763 bound_to 10752
  154.5856  135.2854  155.0690 H   0  0  0  0  0  0  0  0  0  0  0  0  # atno 10764 bound_to 10752
  154.1803  135.6517  153.5085 H   0  0  0  0  0  0  0  0  0  0  0  0  # atno 10765 bound_to 10752
  141.1393  133.8139  157.0648 H   0  0  0  0  0  0  0  0  0  0  0  0  # atno 11005 bound_to 11000
  145.4691  141.0435  143.2708 LP  0  0  0  0  0  0  0  0  0  0  0  0  # atno 17320 bound_to 7965
  144.7972  139.6211  143.7087 LP  0  0  0  0  0  0  0  0  0  0  0  0  # atno 17321 bound_to 7965
  139.9387  143.6407  152.3059 LP  0  0  0  0  0  0  0  0  0  0  0  0  # atno 17342 bound_to 10162
  139.6884  144.7649  151.1482 LP  0  0  0  0  0  0  0  0  0  0  0  0  # atno 17343 bound_to 10162
  157.3413  131.0717  151.1785 LP  0  0  0  0  0  0  0  0  0  0  0  0  # atno 17370 bound_to 10713
  157.2633  130.6669  149.5985 LP  0  0  0  0  0  0  0  0  0  0  0  0  # atno 17371 bound_to 10713
  140.0548  134.9786  157.1202 LP  0  0  0  0  0  0  0  0  0  0  0  0  # atno 17394 bound_to 11000
  140.3935  134.2159  155.7165 LP  0  0  0  0  0  0  0  0  0  0  0  0  # atno 17395 bound_to 11000

$$$$
