AV-unprocessed.smi:1243|AV-procd|sdf|5218|dock2
  -GOLD-   22720 4313D 1   1.00000     0.00000
 Structure written by MMmdl.
 51 52  0  0  0  0  0  0  0  0  2 V2000
  151.2955  139.7829  156.8059 C   0  0  0  0  0  0  0  0  0  0  0  0
  152.1547  140.2409  157.8444 O   0  0  0  0  0  0  0  0  0  0  0  0
  152.1075  141.5764  158.1976 C   0  0  0  0  0  0  0  0  0  0  0  0
  151.2673  142.3955  157.5164 N   0  0  0  0  0  0  0  0  0  0  0  0
  151.2230  143.6995  157.8587 C   0  0  0  0  0  0  0  0  0  0  0  0
  152.0112  144.2547  158.8835 C   0  0  0  0  0  0  0  0  0  0  0  0
  152.8826  143.4071  159.5921 C   0  0  0  0  0  0  0  0  0  0  0  0
  152.9283  142.0330  159.2547 C   0  0  0  0  0  0  0  0  0  0  0  0
  153.7898  141.1012  159.8942 N   0  0  0  0  0  0  0  0  0  0  0  0
  154.4500  141.2458  161.0550 C   0  0  0  0  0  0  0  0  0  0  0  0
  154.3944  142.2365  161.7833 O   0  0  0  0  0  0  0  0  0  0  0  0
  155.1649  140.1490  161.3416 N   0  0  0  0  0  0  0  0  0  0  0  0
  155.9566  139.9349  162.5532 C   0  0  0  0  0  0  0  0  0  0  0  0
  156.6459  138.5388  162.5813 C   0  0  0  0  0  0  0  0  0  0  0  0
  157.2040  138.2359  161.1701 C   0  0  0  0  0  0  0  0  0  0  0  0
  157.8317  138.6239  163.5762 C   0  0  0  0  0  0  0  0  0  0  0  0
  155.6896  137.4919  163.0346 N   0  0  0  0  0  0  0  0  0  0  0  0
  155.2088  137.6522  164.4175 C   0  0  0  0  0  0  0  0  0  0  0  0
  154.0427  136.6838  164.6998 C   0  0  0  0  0  0  0  0  0  0  0  0
  154.4427  135.2741  164.4884 N   0  3  0  0  0  0  0  0  0  0  0  0
  155.2714  134.7131  165.5803 C   0  0  0  0  0  0  0  0  0  0  0  0
  155.0320  135.1070  163.1405 C   0  0  0  0  0  0  0  0  0  0  0  0
  156.1780  136.1094  162.8962 C   0  0  0  0  0  0  0  0  0  0  0  0
  151.4477  138.7141  156.6571 H   0  0  0  0  0  0  0  0  0  0  0  0
  151.5117  140.2822  155.8606 H   0  0  0  0  0  0  0  0  0  0  0  0
  150.2453  139.9347  157.0595 H   0  0  0  0  0  0  0  0  0  0  0  0
  150.5434  144.3204  157.2938 H   0  0  0  0  0  0  0  0  0  0  0  0
  151.9524  145.3075  159.1169 H   0  0  0  0  0  0  0  0  0  0  0  0
  153.5082  143.8250  160.3658 H   0  0  0  0  0  0  0  0  0  0  0  0
  153.8457  140.1931  159.4570 H   0  0  0  0  0  0  0  0  0  0  0  0
  155.1369  139.3844  160.6838 H   0  0  0  0  0  0  0  0  0  0  0  0
  156.6816  140.7436  162.6349 H   0  0  0  0  0  0  0  0  0  0  0  0
  155.3345  140.0496  163.4427 H   0  0  0  0  0  0  0  0  0  0  0  0
  157.9132  139.0063  160.8651 H   0  0  0  0  0  0  0  0  0  0  0  0
  156.4221  138.2134  160.4112 H   0  0  0  0  0  0  0  0  0  0  0  0
  157.7387  137.2872  161.1287 H   0  0  0  0  0  0  0  0  0  0  0  0
  158.4274  139.5203  163.4002 H   0  0  0  0  0  0  0  0  0  0  0  0
  158.5203  137.7845  163.4808 H   0  0  0  0  0  0  0  0  0  0  0  0
  157.4918  138.6619  164.6120 H   0  0  0  0  0  0  0  0  0  0  0  0
  156.0178  137.4912  165.1301 H   0  0  0  0  0  0  0  0  0  0  0  0
  154.8334  138.6583  164.5902 H   0  0  0  0  0  0  0  0  0  0  0  0
  153.6722  136.8174  165.7168 H   0  0  0  0  0  0  0  0  0  0  0  0
  153.2077  136.9135  164.0360 H   0  0  0  0  0  0  0  0  0  0  0  0
  156.2290  135.2255  165.6719 H   0  0  0  0  0  0  0  0  0  0  0  0
  155.4688  133.6554  165.4034 H   0  0  0  0  0  0  0  0  0  0  0  0
  154.7504  134.7960  166.5348 H   0  0  0  0  0  0  0  0  0  0  0  0
  155.3853  134.0832  163.0124 H   0  0  0  0  0  0  0  0  0  0  0  0
  154.2496  135.2575  162.3951 H   0  0  0  0  0  0  0  0  0  0  0  0
  156.5539  135.9219  161.8931 H   0  0  0  0  0  0  0  0  0  0  0  0
  157.0038  135.9195  163.5820 H   0  0  0  0  0  0  0  0  0  0  0  0
  153.5902  134.7324  164.4961 H   0  0  0  0  0  0  0  0  0  0  0  0
  1  2  1  0  0  0  0
  1 24  1  0  0  0  0
  1 25  1  0  0  0  0
  1 26  1  0  0  0  0
  2  3  1  0  0  0  0
  3  8  1  0  0  0  0
  3  4  2  0  0  0  0
  4  5  1  0  0  0  0
  5  6  2  0  0  0  0
  5 27  1  0  0  0  0
  6  7  1  0  0  0  0
  6 28  1  0  0  0  0
  7  8  2  0  0  0  0
  7 29  1  0  0  0  0
  8  9  1  0  0  0  0
  9 10  1  0  0  0  0
  9 30  1  0  0  0  0
 10 11  2  0  0  0  0
 10 12  1  0  0  0  0
 12 13  1  0  0  0  0
 12 31  1  0  0  0  0
 13 14  1  0  0  0  0
 13 32  1  0  0  0  0
 13 33  1  0  0  0  0
 14 15  1  0  0  0  0
 14 16  1  0  0  0  0
 14 17  1  0  0  0  0
 15 34  1  0  0  0  0
 15 35  1  0  0  0  0
 15 36  1  0  0  0  0
 16 37  1  0  0  0  0
 16 38  1  0  0  0  0
 16 39  1  0  0  0  0
 17 23  1  0  0  0  0
 17 18  1  0  0  0  0
 18 19  1  0  0  0  0
 18 40  1  0  0  0  0
 18 41  1  0  0  0  0
 19 20  1  0  0  0  0
 19 42  1  0  0  0  0
 19 43  1  0  0  0  0
 20 21  1  0  0  0  0
 20 22  1  0  0  0  0
 20 51  1  0  0  0  0
 21 44  1  0  0  0  0
 21 45  1  0  0  0  0
 21 46  1  0  0  0  0
 22 23  1  0  0  0  0
 22 47  1  0  0  0  0
 22 48  1  0  0  0  0
 23 49  1  0  0  0  0
 23 50  1  0  0  0  0
M  CHG  1  20   1
M  END
> <s_m_source_file>
AV-unprocessed.smi

> <i_m_source_file_index>
1243

> <i_lp_mmshare_version>
43012

> <i_f3d_flags>
0

> <s_epik_input>
W0NIM11PYzFuW2NIXVtjSF1bY0hdYzFbTkhdQyg9TylbTkhdW0NIMl1DKFtDSDNdKShbQ0gzXSlOMltDSDJdW0NIMl1OKFtDSDNdKVtDSDJdW0NIMl0y

> <s_epik_cmdline>
J2VwaWtfcHl0aG9uJywgJy1waCcsICc3LjAnLCAnLXRuJywgJzgnLCAnLW1hJywgJzIwMCcsICctbWV0YWxfYmluZGluZycsICctaW1hZScsICc8aW5maWxlLm1hZT4nLCAnLW9tYWUnLCAnPG91dGZpbGUubWFlPic=

> <r_lp_tautomer_probability>
1

> <r_epik_Ionization_Penalty>
0.0248754

> <r_epik_Ionization_Penalty_Charging>
0.0238192

> <r_epik_Ionization_Penalty_Neutral>
0.00105626

> <r_epik_State_Penalty>
0.139266

> <r_epik_Charging_Adjusted_Penalty>
0.163085

> <i_epik_Tot_Q>
1

> <i_epik_Tot_abs_Q>
1

> <r_epik_Metal_State_Penalty>
0.139265

> <b_epik_Metal_Only>
0

> <s_lp_Force_Field>
OPLS_2005

> <r_lp_Energy>
29.8064

> <b_lp_Chiralities_Consistent>
1

> <s_lp_Variant>
AV-unprocessed.smi:1243-1

> <Gold.Version>
5.8.1

> <Gold.Id.Protein>
6NUR|6NUR_protein|mol2

> <Gold.PLP.Fitness>
39.5572

> <Gold.PLP.PLP>
-35.4912

> <Gold.PLP.part.hbond>
-1.9002

> <Gold.PLP.part.metal>
0.0000

> <Gold.PLP.part.buried>
-4.6807

> <Gold.PLP.part.nonpolar>
-28.5155

> <Gold.PLP.part.repulsive>
0.1380

> <Gold.PLP.ligand.clash>
0.0000

> <Gold.PLP.ligand.torsion>
0.4371

> <Gold.PLP.Chemscore.Hbond>
0.6259

> <Gold.PLP.Chemscore.CHOScore>
1.0000

> <Gold.PLP.Chemscore.Metal>
0.0000

> <Gold.Chemscore.Hbonds>
donor molecule, donor type, donor heavy atom, donor atom, acceptor molecule, acceptor atom, score
      L1  C     5    27       P1  8028  1.00

> <Gold.PLP.Chemscore.Internal.Correction>
0.0626

> <Gold.Rescore>
     Score         DG    S(hbond)    S(metal)    S(lipo)     H(rot)  DE(clash)    DE(int)     intcor
     11.07     -12.73       0.11        0.00      96.36       1.72       0.05       1.60       ----

> <Gold.Chemscore.Fitness>
11.0727

> <Gold.Chemscore.DG>
-12.7263

> <Gold.Chemscore.ZeroCoef>
-5.4800

> <Gold.Chemscore.Hbond>
0.1133

> <Gold.Chemscore.Metal>
0.0000

> <Gold.Chemscore.Lipo>
96.3633

> <Gold.Chemscore.Internal_Hbond>
0.0000

> <Gold.Chemscore.DEClash>
0.0522

> <Gold.Chemscore.DEInternal>
1.6014

> <Gold.Chemscore.Rot>
1.7213

> <Gold.Chemscore.Internal.Correction>
   9.000000E+99

> <Gold.Chemscore.Hbond.Weighted>
-0.3783

> <Gold.Chemscore.Metal.Weighted>
-0.0000

> <Gold.Chemscore.Lipo.Weighted>
-11.2745

> <Gold.Chemscore.Internal_Hbond.Weighted>
0.0000

> <Gold.Chemscore.DEClash.Weighted>
0.0522

> <Gold.Chemscore.DEInternal.Weighted>
1.6014

> <Gold.Chemscore.Rot.Weighted>
4.4066

> <Gold.Chemscore.Internal.Correction.Weighted>
   9.000000E+99

> <Gold.Protein.RotatedTorsions>
[ 6907 6896 6895 6894 ] final -134.23 input  -60.11 | X-H torsion
[ 7974 7965 7964 7962 ] final  114.48 input  175.53 | X-H torsion
[ 8008 7997 7996 7995 ] final  166.81 input   59.86 | X-H torsion
[ 10167 10162 10161 10158 ] final  -35.12 input  -65.29 | X-H torsion
[ 10718 10713 10712 10709 ] final -101.45 input   66.30 | X-H torsion
[ 10763 10752 10751 10750 ] final  -82.07 input  -60.55 | X-H torsion
[ 11005 11000 10999 10996 ] final  -53.82 input  -57.11 | X-H torsion

> <Gold.Protein.ActiveResidues>
 VAL166  LYS551  ARG553  GLY616  TRP617  ASP618  TYR619  PRO620  LYS621  CYS622 
 ASP623  PHE694  ASN695  SER759  ASP760  ASP761  ALA762  ILE779  LEU786  VAL792 
 PHE793  MET794  SER795  GLU796  ALA797  LYS798  CYS799  TRP800  GLU811  SER814 

> <Gold.Protein.RotatedAtoms>
  150.9834  133.6223  159.2718 H   0  0  0  0  0  0  0  0  0  0  0  0  # atno 6907 bound_to 6896
  151.3469  135.0875  159.9400 H   0  0  0  0  0  0  0  0  0  0  0  0  # atno 6908 bound_to 6896
  152.5223  133.9434  159.7691 H   0  0  0  0  0  0  0  0  0  0  0  0  # atno 6909 bound_to 6896
  145.2039  139.2939  143.4304 H   0  0  0  0  0  0  0  0  0  0  0  0  # atno 7974 bound_to 7965
  156.1687  140.1633  156.8485 H   0  0  0  0  0  0  0  0  0  0  0  0  # atno 8008 bound_to 7997
  154.5234  140.0773  156.8249 H   0  0  0  0  0  0  0  0  0  0  0  0  # atno 8009 bound_to 7997
  155.3557  140.3392  155.4242 H   0  0  0  0  0  0  0  0  0  0  0  0  # atno 8010 bound_to 7997
  140.7172  143.3500  151.2176 H   0  0  0  0  0  0  0  0  0  0  0  0  # atno 10167 bound_to 10162
  156.0195  130.5374  150.6965 H   0  0  0  0  0  0  0  0  0  0  0  0  # atno 10718 bound_to 10713
  154.5713  135.5604  153.7097 H   0  0  0  0  0  0  0  0  0  0  0  0  # atno 10763 bound_to 10752
  153.0049  135.6297  154.2110 H   0  0  0  0  0  0  0  0  0  0  0  0  # atno 10764 bound_to 10752
  154.2050  135.2876  155.2958 H   0  0  0  0  0  0  0  0  0  0  0  0  # atno 10765 bound_to 10752
  141.0995  133.6620  156.4229 H   0  0  0  0  0  0  0  0  0  0  0  0  # atno 11005 bound_to 11000
  146.3412  140.2293  142.8593 LP  0  0  0  0  0  0  0  0  0  0  0  0  # atno 17320 bound_to 7965
  144.9921  140.8556  143.5333 LP  0  0  0  0  0  0  0  0  0  0  0  0  # atno 17321 bound_to 7965
  139.7028  143.9505  152.2913 LP  0  0  0  0  0  0  0  0  0  0  0  0  # atno 17342 bound_to 10162
  139.9203  144.6803  150.8468 LP  0  0  0  0  0  0  0  0  0  0  0  0  # atno 17343 bound_to 10162
  157.4634  131.0885  151.0720 LP  0  0  0  0  0  0  0  0  0  0  0  0  # atno 17370 bound_to 10713
  157.1202  130.6058  149.5503 LP  0  0  0  0  0  0  0  0  0  0  0  0  # atno 17371 bound_to 10713
  140.5057  134.6443  157.5265 LP  0  0  0  0  0  0  0  0  0  0  0  0  # atno 17394 bound_to 11000
  139.9842  134.7088  155.9804 LP  0  0  0  0  0  0  0  0  0  0  0  0  # atno 17395 bound_to 11000

$$$$
