AV-unprocessed.smi:2044|AV-procd|sdf|8304|dock4
  -GOLD-   2272010573D 1   1.00000     0.00000
 Structure written by MMmdl.
 39 40  0  0  0  0  0  0  0  0  3 V2000
  152.5732  142.4820  161.6233 C   0  0  0  0  0  0  0  0  0  0  0  0
  152.3217  141.8899  160.2785 C   0  0  0  0  0  0  0  0  0  0  0  0
  152.8943  140.8518  159.5997 C   0  0  0  0  0  0  0  0  0  0  0  0
  152.1685  140.8235  158.3772 C   0  0  0  0  0  0  0  0  0  0  0  0
  152.3674  139.9735  157.3579 N   0  5  0  0  0  0  0  0  0  0  0  0
  151.5092  139.9518  156.3129 C   0  0  0  0  0  0  0  0  0  0  0  0
  150.9443  140.9241  155.8069 O   0  0  0  0  0  0  0  0  0  0  0  0
  151.2926  138.7252  155.8202 N   0  0  0  0  0  0  0  0  0  0  0  0
  150.4315  138.4156  154.6845 C   0  0  0  0  0  0  0  0  0  0  0  0
  149.1396  137.6669  155.1068 C   0  0  2  0  0  0  0  0  0  0  0  0
  149.4873  136.2490  155.6245 C   0  0  0  0  0  0  0  0  0  0  0  0
  148.1251  137.6094  154.0012 N   0  3  0  0  0  0  0  0  0  0  0  0
  146.9459  136.7576  154.3240 C   0  0  0  0  0  0  0  0  0  0  0  0
  145.9497  136.7062  153.1540 C   0  0  0  0  0  0  0  0  0  0  0  0
  145.5337  138.0210  152.8227 O   0  0  0  0  0  0  0  0  0  0  0  0
  146.6298  138.8109  152.3906 C   0  0  0  0  0  0  0  0  0  0  0  0
  147.6600  138.9428  153.5248 C   0  0  0  0  0  0  0  0  0  0  0  0
  151.2502  141.7728  158.3126 N   0  0  0  0  0  0  0  0  0  0  0  0
  151.3370  142.4569  159.5309 O   0  0  0  0  0  0  0  0  0  0  0  0
  153.6112  142.8010  161.7161 H   0  0  0  0  0  0  0  0  0  0  0  0
  152.3712  141.7534  162.4085 H   0  0  0  0  0  0  0  0  0  0  0  0
  151.9368  143.3501  161.7964 H   0  0  0  0  0  0  0  0  0  0  0  0
  153.6995  140.2108  159.9261 H   0  0  0  0  0  0  0  0  0  0  0  0
  151.7726  137.9546  156.2618 H   0  0  0  0  0  0  0  0  0  0  0  0
  150.2026  139.3750  154.2218 H   0  0  0  0  0  0  0  0  0  0  0  0
  150.9822  137.8209  153.9534 H   0  0  0  0  0  0  0  0  0  0  0  0
  148.6941  138.2248  155.9323 H   0  0  0  0  0  0  0  0  0  0  0  0
  150.2792  136.2642  156.3729 H   0  0  0  0  0  0  0  0  0  0  0  0
  149.8214  135.6031  154.8121 H   0  0  0  0  0  0  0  0  0  0  0  0
  148.6437  135.7676  156.1162 H   0  0  0  0  0  0  0  0  0  0  0  0
  147.2455  135.7333  154.5368 H   0  0  0  0  0  0  0  0  0  0  0  0
  146.4514  137.1422  155.2173 H   0  0  0  0  0  0  0  0  0  0  0  0
  146.3928  136.2179  152.2844 H   0  0  0  0  0  0  0  0  0  0  0  0
  145.0738  136.1206  153.4336 H   0  0  0  0  0  0  0  0  0  0  0  0
  147.0841  138.3723  151.5006 H   0  0  0  0  0  0  0  0  0  0  0  0
  146.2613  139.7961  152.1039 H   0  0  0  0  0  0  0  0  0  0  0  0
  147.2315  139.5005  154.3591 H   0  0  0  0  0  0  0  0  0  0  0  0
  148.4877  139.5292  153.1298 H   0  0  0  0  0  0  0  0  0  0  0  0
  148.5876  137.1756  153.2150 H   0  0  0  0  0  0  0  0  0  0  0  0
  1  2  1  0  0  0  0
  1 20  1  0  0  0  0
  1 21  1  0  0  0  0
  1 22  1  0  0  0  0
  2 19  1  0  0  0  0
  2  3  2  0  0  0  0
  3  4  1  0  0  0  0
  3 23  1  0  0  0  0
  4  5  1  0  0  0  0
  4 18  2  0  0  0  0
  5  6  1  0  0  0  0
  6  7  2  0  0  0  0
  6  8  1  0  0  0  0
  8  9  1  0  0  0  0
  8 24  1  0  0  0  0
  9 10  1  0  0  0  0
  9 25  1  0  0  0  0
  9 26  1  0  0  0  0
 10 11  1  0  0  0  0
 10 12  1  0  0  0  0
 10 27  1  0  0  0  0
 11 28  1  0  0  0  0
 11 29  1  0  0  0  0
 11 30  1  0  0  0  0
 12 17  1  0  0  0  0
 12 13  1  0  0  0  0
 12 39  1  0  0  0  0
 13 14  1  0  0  0  0
 13 31  1  0  0  0  0
 13 32  1  0  0  0  0
 14 15  1  0  0  0  0
 14 33  1  0  0  0  0
 14 34  1  0  0  0  0
 15 16  1  0  0  0  0
 16 17  1  0  0  0  0
 16 35  1  0  0  0  0
 16 36  1  0  0  0  0
 17 37  1  0  0  0  0
 17 38  1  0  0  0  0
 18 19  1  0  0  0  0
M  CHG  1   5  -1
M  CHG  1  12   1
M  END
> <s_m_source_file>
AV-unprocessed.smi

> <i_m_source_file_index>
2044

> <i_lp_mmshare_version>
43012

> <i_f3d_flags>
0

> <s_epik_input>
W0NIM11jMVtjSF1jKG5vMSlbTkhdQyg9TylbTkhdW0NIMl1bQ0BIXShbQ0gzXSlOMltDSDJdW0NIMl1PW0NIMl1bQ0gyXTI=

> <s_epik_cmdline>
J2VwaWtfcHl0aG9uJywgJy1waCcsICc3LjAnLCAnLXRuJywgJzgnLCAnLW1hJywgJzIwMCcsICctbWV0YWxfYmluZGluZycsICctaW1hZScsICc8aW5maWxlLm1hZT4nLCAnLW9tYWUnLCAnPG91dGZpbGUubWFlPic=

> <r_epik_Ionization_Penalty>
6.73014

> <r_epik_Ionization_Penalty_Charging>
6.73004

> <r_epik_Ionization_Penalty_Neutral>
9.51297e-05

> <r_epik_State_Penalty>
6.93052

> <r_epik_Charging_Adjusted_Penalty>
13.6606

> <i_epik_Tot_Q>
0

> <i_epik_Tot_abs_Q>
2

> <r_epik_Metal_State_Penalty>
2.86736

> <b_epik_Metal_Only>
1

> <s_lp_Force_Field>
OPLS_2005

> <r_lp_Energy>
9.04271

> <b_lp_Chiralities_Consistent>
1

> <s_lp_Variant>
AV-unprocessed.smi:2044-7

> <Gold.Version>
5.8.1

> <Gold.Id.Protein>
6NUR|6NUR_protein|mol2

> <Gold.PLP.Fitness>
40.8785

> <Gold.PLP.PLP>
-28.2609

> <Gold.PLP.part.hbond>
-3.0000

> <Gold.PLP.part.metal>
0.0000

> <Gold.PLP.part.buried>
-2.8589

> <Gold.PLP.part.nonpolar>
-22.5869

> <Gold.PLP.part.repulsive>
0.7416

> <Gold.PLP.ligand.clash>
0.0000

> <Gold.PLP.ligand.torsion>
0.4357

> <Gold.PLP.Chemscore.Hbond>
4.4696

> <Gold.PLP.Chemscore.CHOScore>
0.0000

> <Gold.PLP.Chemscore.Metal>
0.0000

> <Gold.Chemscore.Hbonds>
donor molecule, donor type, donor heavy atom, donor atom, acceptor molecule, acceptor atom, score
      L1  H    12    39       P1  7948  2.00
      P1  H  7989  7998       L1     7  0.06
      P1  H  7997  8010       L1     5  1.40

> <Gold.PLP.Chemscore.Internal.Correction>
0.0803

> <Gold.Rescore>
     Score         DG    S(hbond)    S(metal)    S(lipo)     H(rot)  DE(clash)    DE(int)     intcor
     14.09     -16.18       2.29        0.00      60.91       1.59       0.10       1.99       ----

> <Gold.Chemscore.Fitness>
14.0889

> <Gold.Chemscore.DG>
-16.1815

> <Gold.Chemscore.ZeroCoef>
-5.4800

> <Gold.Chemscore.Hbond>
2.2915

> <Gold.Chemscore.Metal>
0.0000

> <Gold.Chemscore.Lipo>
60.9057

> <Gold.Chemscore.Internal_Hbond>
0.0000

> <Gold.Chemscore.DEClash>
0.0994

> <Gold.Chemscore.DEInternal>
1.9932

> <Gold.Chemscore.Rot>
1.5930

> <Gold.Chemscore.Internal.Correction>
   9.000000E+99

> <Gold.Chemscore.Hbonds>
donor molecule, donor type, donor heavy atom, donor atom, acceptor molecule, acceptor atom, score
      L1  H    12    39       P1  7948  1.00
      P1  H  7989  7998       L1     7  0.04
      P1  H  7997  8010       L1     5  0.41

> <Gold.Chemscore.Hbond.Weighted>
-7.6536

> <Gold.Chemscore.Metal.Weighted>
-0.0000

> <Gold.Chemscore.Lipo.Weighted>
-7.1260

> <Gold.Chemscore.Internal_Hbond.Weighted>
0.0000

> <Gold.Chemscore.DEClash.Weighted>
0.0994

> <Gold.Chemscore.DEInternal.Weighted>
1.9932

> <Gold.Chemscore.Rot.Weighted>
4.0781

> <Gold.Chemscore.Internal.Correction.Weighted>
   9.000000E+99

> <Gold.Protein.RotatedTorsions>
[ 6907 6896 6895 6894 ] final  166.95 input  -60.11 | X-H torsion
[ 7974 7965 7964 7962 ] final -152.69 input  175.53 | X-H torsion
[ 8008 7997 7996 7995 ] final   48.77 input   59.86 | X-H torsion
[ 10167 10162 10161 10158 ] final   37.32 input  -65.29 | X-H torsion
[ 10718 10713 10712 10709 ] final   85.42 input   66.30 | X-H torsion
[ 10763 10752 10751 10750 ] final  -14.56 input  -60.55 | X-H torsion
[ 11005 11000 10999 10996 ] final  -57.70 input  -57.11 | X-H torsion

> <Gold.Protein.ActiveResidues>
 VAL166  LYS551  ARG553  GLY616  TRP617  ASP618  TYR619  PRO620  LYS621  CYS622 
 ASP623  PHE694  ASN695  SER759  ASP760  ASP761  ALA762  ILE779  LEU786  VAL792 
 PHE793  MET794  SER795  GLU796  ALA797  LYS798  CYS799  TRP800  GLU811  SER814 

> <Gold.Protein.RotatedAtoms>
  151.8709  133.3475  159.3734 H   0  0  0  0  0  0  0  0  0  0  0  0  # atno 6907 bound_to 6896
  150.7153  134.5114  159.5618 H   0  0  0  0  0  0  0  0  0  0  0  0  # atno 6908 bound_to 6896
  152.2646  134.7998  160.0476 H   0  0  0  0  0  0  0  0  0  0  0  0  # atno 6909 bound_to 6896
  144.7780  140.4628  143.5859 H   0  0  0  0  0  0  0  0  0  0  0  0  # atno 7974 bound_to 7965
  155.3911  140.3433  155.4251 H   0  0  0  0  0  0  0  0  0  0  0  0  # atno 8008 bound_to 7997
  156.1557  140.1585  156.8729 H   0  0  0  0  0  0  0  0  0  0  0  0  # atno 8009 bound_to 7997
  154.5093  140.0794  156.7938 H   0  0  0  0  0  0  0  0  0  0  0  0  # atno 8010 bound_to 7997
  140.4044  144.1679  150.6135 H   0  0  0  0  0  0  0  0  0  0  0  0  # atno 10167 bound_to 10162
  157.6914  131.0174  150.2820 H   0  0  0  0  0  0  0  0  0  0  0  0  # atno 10718 bound_to 10713
  153.5301  135.7014  153.5687 H   0  0  0  0  0  0  0  0  0  0  0  0  # atno 10763 bound_to 10752
  153.3699  135.3947  155.1780 H   0  0  0  0  0  0  0  0  0  0  0  0  # atno 10764 bound_to 10752
  154.8685  135.3809  154.4797 H   0  0  0  0  0  0  0  0  0  0  0  0  # atno 10765 bound_to 10752
  141.1176  133.6611  156.4810 H   0  0  0  0  0  0  0  0  0  0  0  0  # atno 11005 bound_to 11000
  145.6129  139.1515  143.3065 LP  0  0  0  0  0  0  0  0  0  0  0  0  # atno 17320 bound_to 7965
  146.1972  140.6244  142.9119 LP  0  0  0  0  0  0  0  0  0  0  0  0  # atno 17321 bound_to 7965
  140.4705  143.2415  151.9095 LP  0  0  0  0  0  0  0  0  0  0  0  0  # atno 17342 bound_to 10162
  139.4784  144.5374  151.8578 LP  0  0  0  0  0  0  0  0  0  0  0  0  # atno 17343 bound_to 10162
  156.3365  130.3808  149.7446 LP  0  0  0  0  0  0  0  0  0  0  0  0  # atno 17370 bound_to 10713
  156.4969  130.8110  151.3117 LP  0  0  0  0  0  0  0  0  0  0  0  0  # atno 17371 bound_to 10713
  140.4601  134.6849  157.5081 LP  0  0  0  0  0  0  0  0  0  0  0  0  # atno 17394 bound_to 11000
  140.0109  134.6692  155.9382 LP  0  0  0  0  0  0  0  0  0  0  0  0  # atno 17395 bound_to 11000

$$$$
