AV-unprocessed.smi:2878|AV-procd|sdf|11048|dock2
  -GOLD-   2272015513D 1   1.00000     0.00000
 Structure written by MMmdl.
 42 43  0  0  0  0  0  0  0  0  1 V2000
  146.8524  132.3955  154.1913 C   0  0  0  0  0  0  0  0  0  0  0  0
  147.8755  132.6267  152.7119 S   0  0  0  0  0  0  0  0  0  0  0  0
  146.6022  132.9892  151.4609 C   0  0  1  0  0  0  0  0  0  0  0  0
  145.7938  131.7116  151.1651 C   0  0  0  0  0  0  0  0  0  0  0  0
  144.6821  131.9623  150.1361 C   0  0  0  0  0  0  0  0  0  0  0  0
  143.7494  133.0877  150.6023 C   0  0  0  0  0  0  0  0  0  0  0  0
  144.5382  134.3746  150.8816 C   0  0  0  0  0  0  0  0  0  0  0  0
  145.6718  134.1443  151.9057 C   0  0  2  0  0  0  0  0  0  0  0  0
  146.4351  135.3788  152.0691 N   0  0  0  0  0  0  0  0  0  0  0  0
  145.9224  136.5563  152.4486 C   0  0  0  0  0  0  0  0  0  0  0  0
  144.7386  136.7320  152.7380 O   0  0  0  0  0  0  0  0  0  0  0  0
  146.8465  137.5277  152.4353 N   0  0  0  0  0  0  0  0  0  0  0  0
  146.5816  138.9445  152.6777 C   0  0  0  0  0  0  0  0  0  0  0  0
  147.0706  139.4073  154.0651 C   0  0  0  0  0  0  0  0  0  0  0  0
  148.5587  139.4203  154.2139 C   0  0  0  0  0  0  0  0  0  0  0  0
  149.3769  138.3712  154.1947 N   0  0  0  0  0  0  0  0  0  0  0  0
  150.5689  138.9656  154.4754 C   0  0  0  0  0  0  0  0  0  0  0  0
  151.8443  138.2015  154.5773 C   0  0  0  0  0  0  0  0  0  0  0  0
  150.5350  140.2802  154.6568 N   0  0  0  0  0  0  0  0  0  0  0  0
  149.1791  140.5937  154.4890 O   0  0  0  0  0  0  0  0  0  0  0  0
  147.4851  132.1780  155.0516 H   0  0  0  0  0  0  0  0  0  0  0  0
  146.1578  131.5669  154.0595 H   0  0  0  0  0  0  0  0  0  0  0  0
  146.2813  133.2991  154.4043 H   0  0  0  0  0  0  0  0  0  0  0  0
  147.1108  133.2771  150.5396 H   0  0  0  0  0  0  0  0  0  0  0  0
  146.4584  130.9278  150.8000 H   0  0  0  0  0  0  0  0  0  0  0  0
  145.3519  131.3350  152.0886 H   0  0  0  0  0  0  0  0  0  0  0  0
  145.1238  132.2252  149.1741 H   0  0  0  0  0  0  0  0  0  0  0  0
  144.1104  131.0479  149.9757 H   0  0  0  0  0  0  0  0  0  0  0  0
  142.9863  133.2761  149.8466 H   0  0  0  0  0  0  0  0  0  0  0  0
  143.2222  132.7779  151.5054 H   0  0  0  0  0  0  0  0  0  0  0  0
  144.9573  134.7488  149.9464 H   0  0  0  0  0  0  0  0  0  0  0  0
  143.8555  135.1460  151.2404 H   0  0  0  0  0  0  0  0  0  0  0  0
  145.2263  133.8705  152.8643 H   0  0  0  0  0  0  0  0  0  0  0  0
  147.4191  135.3363  151.8484 H   0  0  0  0  0  0  0  0  0  0  0  0
  147.7925  137.2783  152.1862 H   0  0  0  0  0  0  0  0  0  0  0  0
  147.0409  139.5567  151.8997 H   0  0  0  0  0  0  0  0  0  0  0  0
  145.5071  139.1091  152.5964 H   0  0  0  0  0  0  0  0  0  0  0  0
  146.6928  140.4088  154.2722 H   0  0  0  0  0  0  0  0  0  0  0  0
  146.6545  138.7580  154.8362 H   0  0  0  0  0  0  0  0  0  0  0  0
  152.6206  138.8014  155.0535 H   0  0  0  0  0  0  0  0  0  0  0  0
  152.1891  137.9132  153.5841 H   0  0  0  0  0  0  0  0  0  0  0  0
  151.6973  137.2982  155.1698 H   0  0  0  0  0  0  0  0  0  0  0  0
  1  2  1  0  0  0  0
  1 21  1  0  0  0  0
  1 22  1  0  0  0  0
  1 23  1  0  0  0  0
  2  3  1  0  0  0  0
  3  8  1  0  0  0  0
  3  4  1  0  0  0  0
  3 24  1  0  0  0  0
  4  5  1  0  0  0  0
  4 25  1  0  0  0  0
  4 26  1  0  0  0  0
  5  6  1  0  0  0  0
  5 27  1  0  0  0  0
  5 28  1  0  0  0  0
  6  7  1  0  0  0  0
  6 29  1  0  0  0  0
  6 30  1  0  0  0  0
  7  8  1  0  0  0  0
  7 31  1  0  0  0  0
  7 32  1  0  0  0  0
  8  9  1  0  0  0  0
  8 33  1  0  0  0  0
  9 10  1  0  0  0  0
  9 34  1  0  0  0  0
 10 11  2  0  0  0  0
 10 12  1  0  0  0  0
 12 13  1  0  0  0  0
 12 35  1  0  0  0  0
 13 14  1  0  0  0  0
 13 36  1  0  0  0  0
 13 37  1  0  0  0  0
 14 15  1  0  0  0  0
 14 38  1  0  0  0  0
 14 39  1  0  0  0  0
 15 20  1  0  0  0  0
 15 16  2  0  0  0  0
 16 17  1  0  0  0  0
 17 18  1  0  0  0  0
 17 19  2  0  0  0  0
 18 40  1  0  0  0  0
 18 41  1  0  0  0  0
 18 42  1  0  0  0  0
 19 20  1  0  0  0  0
M  END
> <s_m_source_file>
AV-unprocessed.smi

> <i_m_source_file_index>
2878

> <i_lp_mmshare_version>
43012

> <i_f3d_flags>
0

> <s_epik_input>
W0NIM11TW0NAQEhdMVtDSDJdW0NIMl1bQ0gyXVtDSDJdW0NASF0xW05IXUMoPU8pW05IXVtDSDJdW0NIMl1jMm5jKFtDSDNdKW5vMg==

> <s_epik_cmdline>
J2VwaWtfcHl0aG9uJywgJy1waCcsICc3LjAnLCAnLXRuJywgJzgnLCAnLW1hJywgJzIwMCcsICctbWV0YWxfYmluZGluZycsICctaW1hZScsICc8aW5maWxlLm1hZT4nLCAnLW9tYWUnLCAnPG91dGZpbGUubWFlPic=

> <r_lp_tautomer_probability>
1

> <r_epik_Ionization_Penalty>
4.9299e-05

> <r_epik_Ionization_Penalty_Charging>
0

> <r_epik_Ionization_Penalty_Neutral>
4.9299e-05

> <r_epik_State_Penalty>
-0

> <r_epik_Charging_Adjusted_Penalty>
0

> <i_epik_Tot_Q>
0

> <i_epik_Tot_abs_Q>
0

> <r_epik_Metal_State_Penalty>
-0

> <b_epik_Metal_Only>
0

> <s_lp_Force_Field>
OPLS_2005

> <r_lp_Energy>
3.16315

> <b_lp_Chiralities_Consistent>
1

> <s_lp_Variant>
AV-unprocessed.smi:2878-4

> <Gold.Version>
5.8.1

> <Gold.Id.Protein>
6NUR|6NUR_protein|mol2

> <Gold.PLP.Fitness>
44.9254

> <Gold.PLP.PLP>
-36.3984

> <Gold.PLP.part.hbond>
-2.9686

> <Gold.PLP.part.metal>
0.0000

> <Gold.PLP.part.buried>
-4.7146

> <Gold.PLP.part.nonpolar>
-30.2384

> <Gold.PLP.part.repulsive>
0.7827

> <Gold.PLP.ligand.clash>
0.0000

> <Gold.PLP.ligand.torsion>
0.1621

> <Gold.PLP.Chemscore.Hbond>
2.9360

> <Gold.PLP.Chemscore.CHOScore>
0.0000

> <Gold.PLP.Chemscore.Metal>
0.0000

> <Gold.Chemscore.Hbonds>
donor molecule, donor type, donor heavy atom, donor atom, acceptor molecule, acceptor atom, score
      L1  H     9    34       P1  7948  0.93
      L1  H    12    35       P1  7948  1.00
      P1  H  7989  7998       L1    19  1.00

> <Gold.PLP.Chemscore.Internal.Correction>
0.0432

> <Gold.Rescore>
     Score         DG    S(hbond)    S(metal)    S(lipo)     H(rot)  DE(clash)    DE(int)     intcor
     16.03     -17.71       2.72        0.00      72.53       2.09       0.16       1.52       ----

> <Gold.Chemscore.Fitness>
16.0264

> <Gold.Chemscore.DG>
-17.7090

> <Gold.Chemscore.ZeroCoef>
-5.4800

> <Gold.Chemscore.Hbond>
2.7244

> <Gold.Chemscore.Metal>
0.0000

> <Gold.Chemscore.Lipo>
72.5285

> <Gold.Chemscore.Internal_Hbond>
0.0000

> <Gold.Chemscore.DEClash>
0.1623

> <Gold.Chemscore.DEInternal>
1.5203

> <Gold.Chemscore.Rot>
2.0923

> <Gold.Chemscore.Internal.Correction>
   9.000000E+99

> <Gold.Chemscore.Hbonds>
donor molecule, donor type, donor heavy atom, donor atom, acceptor molecule, acceptor atom, score
      L1  H     9    34       P1  7948  0.89
      L1  H    12    35       P1  7948  0.95
      P1  H  7989  7998       L1    19  0.42

> <Gold.Chemscore.Hbond.Weighted>
-9.0994

> <Gold.Chemscore.Metal.Weighted>
-0.0000

> <Gold.Chemscore.Lipo.Weighted>
-8.4858

> <Gold.Chemscore.Internal_Hbond.Weighted>
0.0000

> <Gold.Chemscore.DEClash.Weighted>
0.1623

> <Gold.Chemscore.DEInternal.Weighted>
1.5203

> <Gold.Chemscore.Rot.Weighted>
5.3562

> <Gold.Chemscore.Internal.Correction.Weighted>
   9.000000E+99

> <Gold.Protein.RotatedTorsions>
[ 6907 6896 6895 6894 ] final  -39.58 input  -60.11 | X-H torsion
[ 7974 7965 7964 7962 ] final  -90.59 input  175.53 | X-H torsion
[ 8008 7997 7996 7995 ] final   61.95 input   59.86 | X-H torsion
[ 10167 10162 10161 10158 ] final -131.12 input  -65.29 | X-H torsion
[ 10718 10713 10712 10709 ] final   16.87 input   66.30 | X-H torsion
[ 10763 10752 10751 10750 ] final  -67.67 input  -60.55 | X-H torsion
[ 11005 11000 10999 10996 ] final  127.31 input  -57.11 | X-H torsion

> <Gold.Protein.ActiveResidues>
 VAL166  LYS551  ARG553  GLY616  TRP617  ASP618  TYR619  PRO620  LYS621  CYS622 
 ASP623  PHE694  ASN695  SER759  ASP760  ASP761  ALA762  ILE779  LEU786  VAL792 
 PHE793  MET794  SER795  GLU796  ALA797  LYS798  CYS799  TRP800  GLU811  SER814 

> <Gold.Protein.RotatedAtoms>
  150.9886  134.9226  159.7885 H   0  0  0  0  0  0  0  0  0  0  0  0  # atno 6907 bound_to 6896
  152.5244  134.3312  159.9193 H   0  0  0  0  0  0  0  0  0  0  0  0  # atno 6908 bound_to 6896
  151.3319  133.3956  159.2698 H   0  0  0  0  0  0  0  0  0  0  0  0  # atno 6909 bound_to 6896
  145.4245  140.9553  143.2163 H   0  0  0  0  0  0  0  0  0  0  0  0  # atno 7974 bound_to 7965
  155.6065  140.3494  155.4609 H   0  0  0  0  0  0  0  0  0  0  0  0  # atno 8008 bound_to 7997
  156.0188  140.1249  157.0403 H   0  0  0  0  0  0  0  0  0  0  0  0  # atno 8009 bound_to 7997
  154.4307  140.1067  156.5920 H   0  0  0  0  0  0  0  0  0  0  0  0  # atno 8010 bound_to 7997
  139.9222  143.6369  152.2551 H   0  0  0  0  0  0  0  0  0  0  0  0  # atno 10167 bound_to 10162
  157.0741  130.6360  149.5812 H   0  0  0  0  0  0  0  0  0  0  0  0  # atno 10718 bound_to 10713
  154.3779  135.6080  153.5775 H   0  0  0  0  0  0  0  0  0  0  0  0  # atno 10763 bound_to 10752
  152.9788  135.5854  154.4444 H   0  0  0  0  0  0  0  0  0  0  0  0  # atno 10764 bound_to 10752
  154.4209  135.2846  155.1954 H   0  0  0  0  0  0  0  0  0  0  0  0  # atno 10765 bound_to 10752
  139.9501  134.9623  156.8835 H   0  0  0  0  0  0  0  0  0  0  0  0  # atno 11005 bound_to 11000
  144.8223  139.5769  143.6981 LP  0  0  0  0  0  0  0  0  0  0  0  0  # atno 17320 bound_to 7965
  146.2639  139.6475  142.9342 LP  0  0  0  0  0  0  0  0  0  0  0  0  # atno 17321 bound_to 7965
  139.6852  144.7652  151.1537 LP  0  0  0  0  0  0  0  0  0  0  0  0  # atno 17342 bound_to 10162
  140.7659  143.5667  150.9040 LP  0  0  0  0  0  0  0  0  0  0  0  0  # atno 17343 bound_to 10162
  155.9942  130.5005  150.7411 LP  0  0  0  0  0  0  0  0  0  0  0  0  # atno 17370 bound_to 10713
  157.4854  131.0906  151.0488 LP  0  0  0  0  0  0  0  0  0  0  0  0  # atno 17371 bound_to 10713
  140.5740  134.0415  155.7440 LP  0  0  0  0  0  0  0  0  0  0  0  0  # atno 17394 bound_to 11000
  141.1161  133.9537  157.2819 LP  0  0  0  0  0  0  0  0  0  0  0  0  # atno 17395 bound_to 11000

$$$$
