AV-unprocessed.smi:1987|AV-procd|sdf|8054|dock9
  -GOLD-   2272010263D 1   1.00000     0.00000
 Structure written by MMmdl.
 37 39  0  0  0  0  0  0  0  0  2 V2000
  148.8475  141.6323  153.9605 O   0  0  0  0  0  0  0  0  0  0  0  0
  149.0347  141.3724  155.1485 C   0  0  0  0  0  0  0  0  0  0  0  0
  150.3454  141.7697  155.8251 C   0  0  0  0  0  0  0  0  0  0  0  0
  151.2646  140.6466  155.8168 N   0  0  0  0  0  0  0  0  0  0  0  0
  152.0554  140.1546  156.7726 C   0  0  0  0  0  0  0  0  0  0  0  0
  152.7882  139.1449  156.3282 N   0  0  0  0  0  0  0  0  0  0  0  0
  152.3940  139.0266  155.0059 N   0  0  0  0  0  0  0  0  0  0  0  0
  151.4903  139.9148  154.6964 N   0  0  0  0  0  0  0  0  0  0  0  0
  148.1612  140.6918  155.9059 N   0  0  0  0  0  0  0  0  0  0  0  0
  146.9671  140.0179  155.4116 C   0  0  0  0  0  0  0  0  0  0  0  0
  147.2681  139.2046  154.1362 C   0  0  2  0  0  0  0  0  0  0  0  0
  146.9761  139.9433  152.8319 C   0  0  0  0  0  0  0  0  0  0  0  0
  146.7966  138.8252  151.7956 C   0  0  0  0  0  0  0  0  0  0  0  0
  146.5465  137.5746  152.5504 N   0  3  2  0  0  0  0  0  0  0  0  0
  145.4133  136.7712  152.0455 C   0  0  0  0  0  0  0  0  0  0  0  0
  145.6361  135.2816  152.1562 C   0  0  0  0  0  0  0  0  0  0  0  0
  145.7441  135.9675  150.8110 C   0  0  0  0  0  0  0  0  0  0  0  0
  146.4369  137.9299  153.9783 C   0  0  0  0  0  0  0  0  0  0  0  0
  150.8043  142.6073  155.2982 H   0  0  0  0  0  0  0  0  0  0  0  0
  150.1646  142.0876  156.8531 H   0  0  0  0  0  0  0  0  0  0  0  0
  152.1072  140.5444  157.7786 H   0  0  0  0  0  0  0  0  0  0  0  0
  148.3950  140.5462  156.8779 H   0  0  0  0  0  0  0  0  0  0  0  0
  146.6059  139.3590  156.2017 H   0  0  0  0  0  0  0  0  0  0  0  0
  146.1744  140.7447  155.2253 H   0  0  0  0  0  0  0  0  0  0  0  0
  148.3225  138.9227  154.1329 H   0  0  0  0  0  0  0  0  0  0  0  0
  146.0463  140.5072  152.9213 H   0  0  0  0  0  0  0  0  0  0  0  0
  147.7653  140.6452  152.5604 H   0  0  0  0  0  0  0  0  0  0  0  0
  145.9838  139.0608  151.1067 H   0  0  0  0  0  0  0  0  0  0  0  0
  147.7028  138.6941  151.2035 H   0  0  0  0  0  0  0  0  0  0  0  0
  144.4188  137.1925  152.1832 H   0  0  0  0  0  0  0  0  0  0  0  0
  146.5575  134.9311  152.6187 H   0  0  0  0  0  0  0  0  0  0  0  0
  144.7632  134.6547  152.3275 H   0  0  0  0  0  0  0  0  0  0  0  0
  144.9418  135.7923  150.0968 H   0  0  0  0  0  0  0  0  0  0  0  0
  146.7372  136.0735  150.3781 H   0  0  0  0  0  0  0  0  0  0  0  0
  146.7876  137.1163  154.6143 H   0  0  0  0  0  0  0  0  0  0  0  0
  145.3941  138.1309  154.2306 H   0  0  0  0  0  0  0  0  0  0  0  0
  147.3822  137.0150  152.4568 H   0  0  0  0  0  0  0  0  0  0  0  0
  1  2  2  0  0  0  0
  2  3  1  0  0  0  0
  2  9  1  0  0  0  0
  3  4  1  0  0  0  0
  3 19  1  0  0  0  0
  3 20  1  0  0  0  0
  4  8  1  0  0  0  0
  4  5  1  0  0  0  0
  5  6  2  0  0  0  0
  5 21  1  0  0  0  0
  6  7  1  0  0  0  0
  7  8  2  0  0  0  0
  9 10  1  0  0  0  0
  9 22  1  0  0  0  0
 10 11  1  0  0  0  0
 10 23  1  0  0  0  0
 10 24  1  0  0  0  0
 11 18  1  0  0  0  0
 11 12  1  0  0  0  0
 11 25  1  0  0  0  0
 12 13  1  0  0  0  0
 12 26  1  0  0  0  0
 12 27  1  0  0  0  0
 13 14  1  0  0  0  0
 13 28  1  0  0  0  0
 13 29  1  0  0  0  0
 14 15  1  0  0  0  0
 14 18  1  0  0  0  0
 14 37  1  0  0  0  0
 15 17  1  0  0  0  0
 15 16  1  0  0  0  0
 15 30  1  0  0  0  0
 16 17  1  0  0  0  0
 16 31  1  0  0  0  0
 16 32  1  0  0  0  0
 17 33  1  0  0  0  0
 17 34  1  0  0  0  0
 18 35  1  0  0  0  0
 18 36  1  0  0  0  0
M  CHG  1  14   1
M  END
> <s_m_source_file>
AV-unprocessed.smi

> <i_m_source_file_index>
1987

> <i_lp_mmshare_version>
43012

> <i_f3d_flags>
0

> <s_epik_input>
bjFubltjSF1uMVtDSDJdQyg9TylbTkhdW0NIMl1bQ0BASF0yW0NIMl1bQ0gyXU4oW0NIMl0yKVtDSF0zW0NIMl1bQ0gyXTM=

> <s_epik_cmdline>
J2VwaWtfcHl0aG9uJywgJy1waCcsICc3LjAnLCAnLXRuJywgJzgnLCAnLW1hJywgJzIwMCcsICctbWV0YWxfYmluZGluZycsICctaW1hZScsICc8aW5maWxlLm1hZT4nLCAnLW9tYWUnLCAnPG91dGZpbGUubWFlPic=

> <r_lp_tautomer_probability>
1

> <r_epik_Ionization_Penalty>
0.000242849

> <r_epik_Ionization_Penalty_Charging>
0.000241326

> <r_epik_Ionization_Penalty_Neutral>
1.52322e-06

> <r_epik_State_Penalty>
-0

> <r_epik_Charging_Adjusted_Penalty>
0.000241326

> <i_epik_Tot_Q>
1

> <i_epik_Tot_abs_Q>
1

> <r_epik_Metal_State_Penalty>
-0

> <b_epik_Metal_Only>
0

> <s_lp_Force_Field>
OPLS_2005

> <r_lp_Energy>
37.5939

> <b_lp_Chiralities_Consistent>
1

> <s_lp_Variant>
AV-unprocessed.smi:1987-1

> <Gold.Version>
5.8.1

> <Gold.Id.Protein>
6NUR|6NUR_protein|mol2

> <Gold.PLP.Fitness>
41.1004

> <Gold.PLP.PLP>
-29.8969

> <Gold.PLP.part.hbond>
-4.0028

> <Gold.PLP.part.metal>
0.0000

> <Gold.PLP.part.buried>
-2.6603

> <Gold.PLP.part.nonpolar>
-23.5213

> <Gold.PLP.part.repulsive>
0.3164

> <Gold.PLP.ligand.clash>
0.0000

> <Gold.PLP.ligand.torsion>
1.6680

> <Gold.PLP.Chemscore.Hbond>
4.4185

> <Gold.PLP.Chemscore.CHOScore>
0.0000

> <Gold.PLP.Chemscore.Metal>
0.0000

> <Gold.Chemscore.Hbonds>
donor molecule, donor type, donor heavy atom, donor atom, acceptor molecule, acceptor atom, score
      L1  H    14    37       P1  7948  2.00
      P1  H  7989  7998       L1     8  1.00
      P1  H  7997  8009       L1     6  0.80
      P1  H  8011  8017       L1     1  0.62

> <Gold.PLP.Chemscore.Internal.Correction>
1.2839

> <Gold.Rescore>
     Score         DG    S(hbond)    S(metal)    S(lipo)     H(rot)  DE(clash)    DE(int)     intcor
      8.47     -13.19       2.46        0.00      53.25       2.62       0.49       4.23       ----

> <Gold.Chemscore.Fitness>
8.4748

> <Gold.Chemscore.DG>
-13.1921

> <Gold.Chemscore.ZeroCoef>
-5.4800

> <Gold.Chemscore.Hbond>
2.4552

> <Gold.Chemscore.Metal>
0.0000

> <Gold.Chemscore.Lipo>
53.2505

> <Gold.Chemscore.Internal_Hbond>
0.0000

> <Gold.Chemscore.DEClash>
0.4913

> <Gold.Chemscore.DEInternal>
4.2261

> <Gold.Chemscore.Rot>
2.6244

> <Gold.Chemscore.Internal.Correction>
   9.000000E+99

> <Gold.Chemscore.Hbonds>
donor molecule, donor type, donor heavy atom, donor atom, acceptor molecule, acceptor atom, score
      L1  H    14    37       P1  7948  1.00
      P1  H  7989  7998       L1     8  0.65
      P1  H  7997  8009       L1     6  0.03
      P1  H  8011  8017       L1     1  0.57

> <Gold.Chemscore.Hbond.Weighted>
-8.2004

> <Gold.Chemscore.Metal.Weighted>
-0.0000

> <Gold.Chemscore.Lipo.Weighted>
-6.2303

> <Gold.Chemscore.Internal_Hbond.Weighted>
0.0000

> <Gold.Chemscore.DEClash.Weighted>
0.4913

> <Gold.Chemscore.DEInternal.Weighted>
4.2261

> <Gold.Chemscore.Rot.Weighted>
6.7186

> <Gold.Chemscore.Internal.Correction.Weighted>
   9.000000E+99

> <Gold.Protein.RotatedTorsions>
[ 6907 6896 6895 6894 ] final -159.24 input  -60.11 | X-H torsion
[ 7974 7965 7964 7962 ] final    1.26 input  175.53 | X-H torsion
[ 8008 7997 7996 7995 ] final -147.21 input   59.86 | X-H torsion
[ 10167 10162 10161 10158 ] final  -95.90 input  -65.29 | X-H torsion
[ 10718 10713 10712 10709 ] final -141.19 input   66.30 | X-H torsion
[ 10763 10752 10751 10750 ] final   91.21 input  -60.55 | X-H torsion
[ 11005 11000 10999 10996 ] final -135.35 input  -57.11 | X-H torsion

> <Gold.Protein.ActiveResidues>
 VAL166  LYS551  ARG553  GLY616  TRP617  ASP618  TYR619  PRO620  LYS621  CYS622 
 ASP623  PHE694  ASN695  SER759  ASP760  ASP761  ALA762  ILE779  LEU786  VAL792 
 PHE793  MET794  SER795  GLU796  ALA797  LYS798  CYS799  TRP800  GLU811  SER814 

> <Gold.Protein.RotatedAtoms>
  151.3305  133.4003  159.2661 H   0  0  0  0  0  0  0  0  0  0  0  0  # atno 6907 bound_to 6896
  150.9960  134.9284  159.7937 H   0  0  0  0  0  0  0  0  0  0  0  0  # atno 6908 bound_to 6896
  152.5261  134.3270  159.9221 H   0  0  0  0  0  0  0  0  0  0  0  0  # atno 6909 bound_to 6896
  146.2439  140.1014  142.8347 H   0  0  0  0  0  0  0  0  0  0  0  0  # atno 7974 bound_to 7965
  155.5719  140.0635  157.2804 H   0  0  0  0  0  0  0  0  0  0  0  0  # atno 8008 bound_to 7997
  154.4358  140.1867  156.0933 H   0  0  0  0  0  0  0  0  0  0  0  0  # atno 8009 bound_to 7997
  156.0370  140.3300  155.7205 H   0  0  0  0  0  0  0  0  0  0  0  0  # atno 8010 bound_to 7997
  140.2993  143.3172  152.0265 H   0  0  0  0  0  0  0  0  0  0  0  0  # atno 10167 bound_to 10162
  156.3311  130.7587  151.1705 H   0  0  0  0  0  0  0  0  0  0  0  0  # atno 10718 bound_to 10713
  153.2058  135.4406  155.0321 H   0  0  0  0  0  0  0  0  0  0  0  0  # atno 10763 bound_to 10752
  154.8173  135.3321  154.7143 H   0  0  0  0  0  0  0  0  0  0  0  0  # atno 10764 bound_to 10752
  153.7585  135.6993  153.4986 H   0  0  0  0  0  0  0  0  0  0  0  0  # atno 10765 bound_to 10752
  140.8906  134.1817  157.4530 H   0  0  0  0  0  0  0  0  0  0  0  0  # atno 11005 bound_to 11000
  145.0565  140.9056  143.4964 LP  0  0  0  0  0  0  0  0  0  0  0  0  # atno 17320 bound_to 7965
  145.1122  139.2749  143.5632 LP  0  0  0  0  0  0  0  0  0  0  0  0  # atno 17321 bound_to 7965
  139.4919  144.6467  151.6762 LP  0  0  0  0  0  0  0  0  0  0  0  0  # atno 17342 bound_to 10162
  140.5665  144.0182  150.6195 LP  0  0  0  0  0  0  0  0  0  0  0  0  # atno 17343 bound_to 10162
  157.7430  131.0481  150.4977 LP  0  0  0  0  0  0  0  0  0  0  0  0  # atno 17370 bound_to 10713
  156.5143  130.4147  149.6284 LP  0  0  0  0  0  0  0  0  0  0  0  0  # atno 17371 bound_to 10713
  139.8729  134.9857  156.5291 LP  0  0  0  0  0  0  0  0  0  0  0  0  # atno 17394 bound_to 11000
  140.8352  133.8248  155.9022 LP  0  0  0  0  0  0  0  0  0  0  0  0  # atno 17395 bound_to 11000

$$$$
