AV-unprocessed.smi:2400|AV-procd|sdf|9501|dock2
  -GOLD-   2272013133D 1   1.00000     0.00000
 Structure written by MMmdl.
 44 45  0  0  0  0  0  0  0  0  1 V2000
  151.8946  137.5199  154.5571 C   0  0  0  0  0  0  0  0  0  0  0  0
  150.7167  137.0236  155.1694 O   0  0  0  0  0  0  0  0  0  0  0  0
  150.7718  135.7055  155.4567 C   0  0  0  0  0  0  0  0  0  0  0  0
  150.1084  134.6273  154.9395 C   0  0  0  0  0  0  0  0  0  0  0  0
  149.1277  134.5689  153.9169 N   0  0  0  0  0  0  0  0  0  0  0  0
  148.0039  133.8349  153.9137 C   0  0  0  0  0  0  0  0  0  0  0  0
  147.6311  133.1127  154.8379 O   0  0  0  0  0  0  0  0  0  0  0  0
  147.3156  134.0041  152.7761 N   0  0  0  0  0  0  0  0  0  0  0  0
  146.0362  133.3689  152.4589 C   0  0  2  0  0  0  0  0  0  0  0  0
  146.2096  132.3575  151.3078 C   0  0  0  0  0  0  0  0  0  0  0  0
  145.2801  132.8120  150.1840 C   0  0  0  0  0  0  0  0  0  0  0  0
  144.1954  133.6171  150.8928 C   0  0  0  0  0  0  0  0  0  0  0  0
  144.9230  134.3701  152.0207 C   0  0  0  0  0  0  0  0  0  0  0  0
  143.9607  134.6825  153.1820 C   0  0  0  0  0  0  0  0  0  0  0  0
  145.4768  135.7046  151.4644 C   0  0  0  0  0  0  0  0  0  0  0  0
  150.5622  133.5149  155.7013 C   0  0  0  0  0  0  0  0  0  0  0  0
  150.1640  132.0700  155.6059 C   0  0  0  0  0  0  0  0  0  0  0  0
  151.4772  133.8844  156.5907 N   0  0  0  0  0  0  0  0  0  0  0  0
  151.6140  135.2242  156.4370 N   0  0  0  0  0  0  0  0  0  0  0  0
  152.5411  135.9512  157.2794 C   0  0  0  0  0  0  0  0  0  0  0  0
  151.7716  138.5793  154.3340 H   0  0  0  0  0  0  0  0  0  0  0  0
  152.0973  136.9997  153.6201 H   0  0  0  0  0  0  0  0  0  0  0  0
  152.7627  137.4137  155.2083 H   0  0  0  0  0  0  0  0  0  0  0  0
  149.2579  135.2043  153.1435 H   0  0  0  0  0  0  0  0  0  0  0  0
  147.6981  134.6238  152.0773 H   0  0  0  0  0  0  0  0  0  0  0  0
  145.6958  132.8001  153.3267 H   0  0  0  0  0  0  0  0  0  0  0  0
  147.2395  132.2763  150.9576 H   0  0  0  0  0  0  0  0  0  0  0  0
  145.9123  131.3652  151.6499 H   0  0  0  0  0  0  0  0  0  0  0  0
  145.8241  133.4527  149.4893 H   0  0  0  0  0  0  0  0  0  0  0  0
  144.8751  131.9759  149.6135 H   0  0  0  0  0  0  0  0  0  0  0  0
  143.6566  134.2774  150.2121 H   0  0  0  0  0  0  0  0  0  0  0  0
  143.4645  132.9250  151.3139 H   0  0  0  0  0  0  0  0  0  0  0  0
  143.1426  135.3253  152.8556 H   0  0  0  0  0  0  0  0  0  0  0  0
  144.4773  135.1932  153.9951 H   0  0  0  0  0  0  0  0  0  0  0  0
  143.5192  133.7745  153.5940 H   0  0  0  0  0  0  0  0  0  0  0  0
  144.6750  136.3262  151.0641 H   0  0  0  0  0  0  0  0  0  0  0  0
  146.1955  135.5440  150.6604 H   0  0  0  0  0  0  0  0  0  0  0  0
  145.9731  136.2900  152.2391 H   0  0  0  0  0  0  0  0  0  0  0  0
  149.4221  131.9105  154.8235 H   0  0  0  0  0  0  0  0  0  0  0  0
  149.7348  131.7193  156.5444 H   0  0  0  0  0  0  0  0  0  0  0  0
  151.0244  131.4412  155.3765 H   0  0  0  0  0  0  0  0  0  0  0  0
  152.8620  136.8653  156.7793 H   0  0  0  0  0  0  0  0  0  0  0  0
  153.4193  135.3394  157.4884 H   0  0  0  0  0  0  0  0  0  0  0  0
  152.0534  136.2117  158.2189 H   0  0  0  0  0  0  0  0  0  0  0  0
  1  2  1  0  0  0  0
  1 21  1  0  0  0  0
  1 22  1  0  0  0  0
  1 23  1  0  0  0  0
  2  3  1  0  0  0  0
  3 19  1  0  0  0  0
  3  4  2  0  0  0  0
  4  5  1  0  0  0  0
  4 16  1  0  0  0  0
  5  6  1  0  0  0  0
  5 24  1  0  0  0  0
  6  7  2  0  0  0  0
  6  8  1  0  0  0  0
  8  9  1  0  0  0  0
  8 25  1  0  0  0  0
  9 13  1  0  0  0  0
  9 10  1  0  0  0  0
  9 26  1  0  0  0  0
 10 11  1  0  0  0  0
 10 27  1  0  0  0  0
 10 28  1  0  0  0  0
 11 12  1  0  0  0  0
 11 29  1  0  0  0  0
 11 30  1  0  0  0  0
 12 13  1  0  0  0  0
 12 31  1  0  0  0  0
 12 32  1  0  0  0  0
 13 14  1  0  0  0  0
 13 15  1  0  0  0  0
 14 33  1  0  0  0  0
 14 34  1  0  0  0  0
 14 35  1  0  0  0  0
 15 36  1  0  0  0  0
 15 37  1  0  0  0  0
 15 38  1  0  0  0  0
 16 17  1  0  0  0  0
 16 18  2  0  0  0  0
 17 39  1  0  0  0  0
 17 40  1  0  0  0  0
 17 41  1  0  0  0  0
 18 19  1  0  0  0  0
 19 20  1  0  0  0  0
 20 42  1  0  0  0  0
 20 43  1  0  0  0  0
 20 44  1  0  0  0  0
M  END
> <s_m_source_file>
AV-unprocessed.smi

> <i_m_source_file_index>
2400

> <i_lp_mmshare_version>
43012

> <i_f3d_flags>
0

> <s_epik_input>
W0NIM11uMW5jKFtDSDNdKWMoYzFPW0NIM10pW05IXUMoPU8pW05IXVtDQEBIXShDMihbQ0gzXSlbQ0gzXSlbQ0gyXVtDSDJdW0NIMl0y

> <s_epik_cmdline>
J2VwaWtfcHl0aG9uJywgJy1waCcsICc3LjAnLCAnLXRuJywgJzgnLCAnLW1hJywgJzIwMCcsICctbWV0YWxfYmluZGluZycsICctaW1hZScsICc8aW5maWxlLm1hZT4nLCAnLW9tYWUnLCAnPG91dGZpbGUubWFlPic=

> <r_lp_tautomer_probability>
1

> <r_epik_Ionization_Penalty>
0.000423583

> <r_epik_Ionization_Penalty_Charging>
0

> <r_epik_Ionization_Penalty_Neutral>
0.000423583

> <r_epik_State_Penalty>
-0

> <r_epik_Charging_Adjusted_Penalty>
0

> <i_epik_Tot_Q>
0

> <i_epik_Tot_abs_Q>
0

> <r_epik_Metal_State_Penalty>
-0

> <b_epik_Metal_Only>
0

> <s_lp_Force_Field>
OPLS_2005

> <r_lp_Energy>
29.9339

> <b_lp_Chiralities_Consistent>
1

> <s_lp_Variant>
AV-unprocessed.smi:2400-1

> <Gold.Version>
5.8.1

> <Gold.Id.Protein>
6NUR|6NUR_protein|mol2

> <Gold.PLP.Fitness>
35.5294

> <Gold.PLP.PLP>
-30.5412

> <Gold.PLP.part.hbond>
-3.0000

> <Gold.PLP.part.metal>
0.0000

> <Gold.PLP.part.buried>
-4.8666

> <Gold.PLP.part.nonpolar>
-23.4739

> <Gold.PLP.part.repulsive>
0.1526

> <Gold.PLP.ligand.clash>
0.0000

> <Gold.PLP.ligand.torsion>
0.4462

> <Gold.PLP.Chemscore.Hbond>
1.9568

> <Gold.PLP.Chemscore.CHOScore>
0.0000

> <Gold.PLP.Chemscore.Metal>
0.0000

> <Gold.Chemscore.Hbonds>
donor molecule, donor type, donor heavy atom, donor atom, acceptor molecule, acceptor atom, score
      L1  H     5    24       P1  7948  0.70
      L1  H     8    25       P1  7948  0.86

> <Gold.PLP.Chemscore.Internal.Correction>
0.0101

> <Gold.Rescore>
     Score         DG    S(hbond)    S(metal)    S(lipo)     H(rot)  DE(clash)    DE(int)     intcor
     16.04     -17.72       2.48        0.00      60.24       1.21       0.01       1.66       ----

> <Gold.Chemscore.Fitness>
16.0419

> <Gold.Chemscore.DG>
-17.7191

> <Gold.Chemscore.ZeroCoef>
-5.4800

> <Gold.Chemscore.Hbond>
2.4830

> <Gold.Chemscore.Metal>
0.0000

> <Gold.Chemscore.Lipo>
60.2404

> <Gold.Chemscore.Internal_Hbond>
0.0000

> <Gold.Chemscore.DEClash>
0.0149

> <Gold.Chemscore.DEInternal>
1.6624

> <Gold.Chemscore.Rot>
1.2119

> <Gold.Chemscore.Internal.Correction>
   9.000000E+99

> <Gold.Chemscore.Hbonds>
donor molecule, donor type, donor heavy atom, donor atom, acceptor molecule, acceptor atom, score
      L1  H     5    24       P1  7948  0.07
      L1  H     8    25       P1  7948  0.45

> <Gold.Chemscore.Hbond.Weighted>
-8.2934

> <Gold.Chemscore.Metal.Weighted>
-0.0000

> <Gold.Chemscore.Lipo.Weighted>
-7.0481

> <Gold.Chemscore.Internal_Hbond.Weighted>
0.0000

> <Gold.Chemscore.DEClash.Weighted>
0.0149

> <Gold.Chemscore.DEInternal.Weighted>
1.6624

> <Gold.Chemscore.Rot.Weighted>
3.1024

> <Gold.Chemscore.Internal.Correction.Weighted>
   9.000000E+99

> <Gold.Protein.RotatedTorsions>
[ 6907 6896 6895 6894 ] final  119.43 input  -60.11 | X-H torsion
[ 7974 7965 7964 7962 ] final  -84.54 input  175.53 | X-H torsion
[ 8008 7997 7996 7995 ] final  -40.79 input   59.86 | X-H torsion
[ 10167 10162 10161 10158 ] final  160.89 input  -65.29 | X-H torsion
[ 10718 10713 10712 10709 ] final -170.79 input   66.30 | X-H torsion
[ 10763 10752 10751 10750 ] final  135.27 input  -60.55 | X-H torsion
[ 11005 11000 10999 10996 ] final   31.64 input  -57.11 | X-H torsion

> <Gold.Protein.ActiveResidues>
 VAL166  LYS551  ARG553  GLY616  TRP617  ASP618  TYR619  PRO620  LYS621  CYS622 
 ASP623  PHE694  ASN695  SER759  ASP760  ASP761  ALA762  ILE779  LEU786  VAL792 
 PHE793  MET794  SER795  GLU796  ALA797  LYS798  CYS799  TRP800  GLU811  SER814 

> <Gold.Protein.RotatedAtoms>
  152.4472  133.7560  159.6719 H   0  0  0  0  0  0  0  0  0  0  0  0  # atno 6907 bound_to 6896
  150.8375  133.7979  159.3080 H   0  0  0  0  0  0  0  0  0  0  0  0  # atno 6908 bound_to 6896
  151.5614  135.1068  160.0025 H   0  0  0  0  0  0  0  0  0  0  0  0  # atno 6909 bound_to 6896
  145.5053  140.9544  143.1737 H   0  0  0  0  0  0  0  0  0  0  0  0  # atno 7974 bound_to 7965
  154.4009  140.1516  156.3084 H   0  0  0  0  0  0  0  0  0  0  0  0  # atno 8008 bound_to 7997
  155.8637  140.3452  155.5752 H   0  0  0  0  0  0  0  0  0  0  0  0  # atno 8009 bound_to 7997
  155.7851  140.0849  157.2029 H   0  0  0  0  0  0  0  0  0  0  0  0  # atno 8010 bound_to 7997
  139.4844  144.4590  151.8730 H   0  0  0  0  0  0  0  0  0  0  0  0  # atno 10167 bound_to 10162
  156.7314  130.9308  151.3104 H   0  0  0  0  0  0  0  0  0  0  0  0  # atno 10718 bound_to 10713
  153.8373  135.3096  155.3423 H   0  0  0  0  0  0  0  0  0  0  0  0  # atno 10763 bound_to 10752
  154.7948  135.4762  154.0138 H   0  0  0  0  0  0  0  0  0  0  0  0  # atno 10764 bound_to 10752
  153.1597  135.6858  153.8851 H   0  0  0  0  0  0  0  0  0  0  0  0  # atno 10765 bound_to 10752
  140.2818  134.2964  155.7798 H   0  0  0  0  0  0  0  0  0  0  0  0  # atno 11005 bound_to 11000
  144.7757  139.6634  143.7176 LP  0  0  0  0  0  0  0  0  0  0  0  0  # atno 17320 bound_to 7965
  146.2201  139.5620  142.9624 LP  0  0  0  0  0  0  0  0  0  0  0  0  # atno 17321 bound_to 7965
  140.4051  144.2442  150.5891 LP  0  0  0  0  0  0  0  0  0  0  0  0  # atno 17342 bound_to 10162
  140.5019  143.2315  151.8665 LP  0  0  0  0  0  0  0  0  0  0  0  0  # atno 17343 bound_to 10162
  157.6857  130.9183  150.0380 LP  0  0  0  0  0  0  0  0  0  0  0  0  # atno 17370 bound_to 10713
  156.1526  130.3642  149.9416 LP  0  0  0  0  0  0  0  0  0  0  0  0  # atno 17371 bound_to 10713
  141.2161  133.7530  156.9492 LP  0  0  0  0  0  0  0  0  0  0  0  0  # atno 17394 bound_to 11000
  140.1276  134.9376  157.2292 LP  0  0  0  0  0  0  0  0  0  0  0  0  # atno 17395 bound_to 11000

$$$$
