AV-unprocessed.smi:2193|AV-procd|sdf|8899|dock7
  -GOLD-   2272012113D 1   1.00000     0.00000
 Structure written by MMmdl.
 40 42  0  0  0  0  0  0  0  0  1 V2000
  153.3140  139.0629  157.4372 O   0  0  0  0  0  0  0  0  0  0  0  0
  152.4442  139.3302  158.5188 C   0  0  0  0  0  0  0  0  0  0  0  0
  152.2608  140.7934  158.8097 C   0  0  0  0  0  0  0  0  0  0  0  0
  152.6099  141.3559  159.9695 N   0  0  0  0  0  0  0  0  0  0  0  0
  152.2767  142.6824  159.7800 C   0  0  0  0  0  0  0  0  0  0  0  0
  152.4038  143.7936  160.6443 C   0  0  0  0  0  0  0  0  0  0  0  0
  151.9907  145.0752  160.2250 C   0  0  0  0  0  0  0  0  0  0  0  0
  151.4454  145.2633  158.9384 C   0  0  0  0  0  0  0  0  0  0  0  0
  151.3102  144.1696  158.0618 C   0  0  0  0  0  0  0  0  0  0  0  0
  151.7245  142.8922  158.4850 C   0  0  0  0  0  0  0  0  0  0  0  0
  151.7306  141.6353  157.8868 N   0  0  0  0  0  0  0  0  0  0  0  0
  151.2646  141.3151  156.5436 C   0  0  0  0  0  0  0  0  0  0  0  0
  149.7691  141.6327  156.3361 C   0  0  1  0  0  0  0  0  0  0  0  0
  149.5646  142.1983  155.0565 O   0  0  0  0  0  0  0  0  0  0  0  0
  148.8809  140.3865  156.4617 C   0  0  0  0  0  0  0  0  0  0  0  0
  147.6528  140.6229  155.7861 O   0  0  0  0  0  0  0  0  0  0  0  0
  146.8329  141.6270  156.2545 C   0  0  0  0  0  0  0  0  0  0  0  0
  145.8232  142.0866  155.3836 C   0  0  0  0  0  0  0  0  0  0  0  0
  144.9380  143.1072  155.7808 C   0  0  0  0  0  0  0  0  0  0  0  0
  145.0546  143.6808  157.0602 C   0  0  0  0  0  0  0  0  0  0  0  0
  144.2032  144.6606  157.4451 F   0  0  0  0  0  0  0  0  0  0  0  0
  146.0581  143.2332  157.9391 C   0  0  0  0  0  0  0  0  0  0  0  0
  146.9441  142.2128  157.5414 C   0  0  0  0  0  0  0  0  0  0  0  0
  152.8009  138.7463  156.7098 H   0  0  0  0  0  0  0  0  0  0  0  0
  151.4729  138.8869  158.2981 H   0  0  0  0  0  0  0  0  0  0  0  0
  152.8383  138.8320  159.4040 H   0  0  0  0  0  0  0  0  0  0  0  0
  152.8197  143.6593  161.6318 H   0  0  0  0  0  0  0  0  0  0  0  0
  152.0925  145.9175  160.8937 H   0  0  0  0  0  0  0  0  0  0  0  0
  151.1305  146.2479  158.6252 H   0  0  0  0  0  0  0  0  0  0  0  0
  150.8916  144.3111  157.0766 H   0  0  0  0  0  0  0  0  0  0  0  0
  151.8712  141.8689  155.8260 H   0  0  0  0  0  0  0  0  0  0  0  0
  151.4607  140.2609  156.3467 H   0  0  0  0  0  0  0  0  0  0  0  0
  149.4433  142.3701  157.0699 H   0  0  0  0  0  0  0  0  0  0  0  0
  149.2794  143.0927  155.1646 H   0  0  0  0  0  0  0  0  0  0  0  0
  149.3857  139.5324  156.0068 H   0  0  0  0  0  0  0  0  0  0  0  0
  148.7044  140.1552  157.5138 H   0  0  0  0  0  0  0  0  0  0  0  0
  145.7259  141.6519  154.3994 H   0  0  0  0  0  0  0  0  0  0  0  0
  144.1691  143.4492  155.1039 H   0  0  0  0  0  0  0  0  0  0  0  0
  146.1488  143.6724  158.9215 H   0  0  0  0  0  0  0  0  0  0  0  0
  147.6994  141.8961  158.2442 H   0  0  0  0  0  0  0  0  0  0  0  0
  1  2  1  0  0  0  0
  1 24  1  0  0  0  0
  2  3  1  0  0  0  0
  2 25  1  0  0  0  0
  2 26  1  0  0  0  0
  3 11  1  0  0  0  0
  3  4  2  0  0  0  0
  4  5  1  0  0  0  0
  5 10  2  0  0  0  0
  5  6  1  0  0  0  0
  6  7  2  0  0  0  0
  6 27  1  0  0  0  0
  7  8  1  0  0  0  0
  7 28  1  0  0  0  0
  8  9  2  0  0  0  0
  8 29  1  0  0  0  0
  9 10  1  0  0  0  0
  9 30  1  0  0  0  0
 10 11  1  0  0  0  0
 11 12  1  0  0  0  0
 12 13  1  0  0  0  0
 12 31  1  0  0  0  0
 12 32  1  0  0  0  0
 13 14  1  0  0  0  0
 13 15  1  0  0  0  0
 13 33  1  0  0  0  0
 14 34  1  0  0  0  0
 15 16  1  0  0  0  0
 15 35  1  0  0  0  0
 15 36  1  0  0  0  0
 16 17  1  0  0  0  0
 17 23  1  0  0  0  0
 17 18  2  0  0  0  0
 18 19  1  0  0  0  0
 18 37  1  0  0  0  0
 19 20  2  0  0  0  0
 19 38  1  0  0  0  0
 20 21  1  0  0  0  0
 20 22  1  0  0  0  0
 22 23  2  0  0  0  0
 22 39  1  0  0  0  0
 23 40  1  0  0  0  0
M  END
> <s_m_source_file>
AV-unprocessed.smi

> <i_m_source_file_index>
2193

> <i_lp_mmshare_version>
43012

> <i_f3d_flags>
0

> <s_epik_input>
W2NIXTFbY0hdW2NIXVtjSF1jKGMxMiluKGMobjIpW0NIMl1bT0hdKVtDSDJdW0NASF0oW09IXSlbQ0gyXU9jM1tjSF1bY0hdYyhGKVtjSF1bY0hdMw==

> <s_epik_cmdline>
J2VwaWtfcHl0aG9uJywgJy1waCcsICc3LjAnLCAnLXRuJywgJzgnLCAnLW1hJywgJzIwMCcsICctbWV0YWxfYmluZGluZycsICctaW1hZScsICc8aW5maWxlLm1hZT4nLCAnLW9tYWUnLCAnPG91dGZpbGUubWFlPic=

> <r_lp_tautomer_probability>
1

> <r_epik_Ionization_Penalty>
0.0549747

> <r_epik_Ionization_Penalty_Charging>
0

> <r_epik_Ionization_Penalty_Neutral>
0.0549747

> <r_epik_State_Penalty>
0.0472568

> <r_epik_Charging_Adjusted_Penalty>
0.0472568

> <i_epik_Tot_Q>
0

> <i_epik_Tot_abs_Q>
0

> <r_epik_Metal_State_Penalty>
4.91905e-05

> <b_epik_Metal_Only>
0

> <s_lp_Force_Field>
OPLS_2005

> <r_lp_Energy>
14.6926

> <b_lp_Chiralities_Consistent>
1

> <s_lp_Variant>
AV-unprocessed.smi:2193-2

> <Gold.Version>
5.8.1

> <Gold.Id.Protein>
6NUR|6NUR_protein|mol2

> <Gold.PLP.Fitness>
46.9492

> <Gold.PLP.PLP>
-42.8812

> <Gold.PLP.part.hbond>
-2.4070

> <Gold.PLP.part.metal>
0.0000

> <Gold.PLP.part.buried>
-6.3327

> <Gold.PLP.part.nonpolar>
-33.8388

> <Gold.PLP.part.repulsive>
0.0370

> <Gold.PLP.ligand.clash>
0.0000

> <Gold.PLP.ligand.torsion>
1.0285

> <Gold.PLP.Chemscore.Hbond>
2.0000

> <Gold.PLP.Chemscore.CHOScore>
0.0000

> <Gold.PLP.Chemscore.Metal>
0.0000

> <Gold.Chemscore.Hbonds>
donor molecule, donor type, donor heavy atom, donor atom, acceptor molecule, acceptor atom, score
      L1  H    14    34       P1  8028  1.00
      P1  H  7997  8008       L1     1  1.00

> <Gold.PLP.Chemscore.Internal.Correction>
0.1251

> <Gold.Rescore>
     Score         DG    S(hbond)    S(metal)    S(lipo)     H(rot)  DE(clash)    DE(int)     intcor
     15.01     -15.72       1.97        0.00     101.66       3.22       0.04       0.67       ----

> <Gold.Chemscore.Fitness>
15.0084

> <Gold.Chemscore.DG>
-15.7184

> <Gold.Chemscore.ZeroCoef>
-5.4800

> <Gold.Chemscore.Hbond>
1.9719

> <Gold.Chemscore.Metal>
0.0000

> <Gold.Chemscore.Lipo>
101.6613

> <Gold.Chemscore.Internal_Hbond>
0.0000

> <Gold.Chemscore.DEClash>
0.0431

> <Gold.Chemscore.DEInternal>
0.6669

> <Gold.Chemscore.Rot>
3.2196

> <Gold.Chemscore.Internal.Correction>
   9.000000E+99

> <Gold.Chemscore.Hbonds>
donor molecule, donor type, donor heavy atom, donor atom, acceptor molecule, acceptor atom, score
      L1  H    14    34       P1  8028  1.00
      P1  H  7997  8008       L1     1  0.70

> <Gold.Chemscore.Hbond.Weighted>
-6.5862

> <Gold.Chemscore.Metal.Weighted>
-0.0000

> <Gold.Chemscore.Lipo.Weighted>
-11.8944

> <Gold.Chemscore.Internal_Hbond.Weighted>
0.0000

> <Gold.Chemscore.DEClash.Weighted>
0.0431

> <Gold.Chemscore.DEInternal.Weighted>
0.6669

> <Gold.Chemscore.Rot.Weighted>
8.2422

> <Gold.Chemscore.Internal.Correction.Weighted>
   9.000000E+99

> <Gold.Protein.RotatedTorsions>
[ 6907 6896 6895 6894 ] final  169.98 input  -60.11 | X-H torsion
[ 7974 7965 7964 7962 ] final  125.31 input  175.53 | X-H torsion
[ 8008 7997 7996 7995 ] final  -75.65 input   59.86 | X-H torsion
[ 10167 10162 10161 10158 ] final   51.00 input  -65.29 | X-H torsion
[ 10718 10713 10712 10709 ] final  -31.12 input   66.30 | X-H torsion
[ 10763 10752 10751 10750 ] final  139.83 input  -60.55 | X-H torsion
[ 11005 11000 10999 10996 ] final   65.72 input  -57.11 | X-H torsion

> <Gold.Protein.ActiveResidues>
 VAL166  LYS551  ARG553  GLY616  TRP617  ASP618  TYR619  PRO620  LYS621  CYS622 
 ASP623  PHE694  ASN695  SER759  ASP760  ASP761  ALA762  ILE779  LEU786  VAL792 
 PHE793  MET794  SER795  GLU796  ALA797  LYS798  CYS799  TRP800  GLU811  SER814 

> <Gold.Protein.RotatedAtoms>
  151.8233  133.3398  159.3590 H   0  0  0  0  0  0  0  0  0  0  0  0  # atno 6907 bound_to 6896
  150.7287  134.5553  159.5824 H   0  0  0  0  0  0  0  0  0  0  0  0  # atno 6908 bound_to 6896
  152.2990  134.7634  160.0413 H   0  0  0  0  0  0  0  0  0  0  0  0  # atno 6909 bound_to 6896
  145.0744  139.3705  143.4941 H   0  0  0  0  0  0  0  0  0  0  0  0  # atno 7974 bound_to 7965
  154.5436  140.0740  156.8551 H   0  0  0  0  0  0  0  0  0  0  0  0  # atno 8008 bound_to 7997
  155.3132  140.3391  155.4225 H   0  0  0  0  0  0  0  0  0  0  0  0  # atno 8009 bound_to 7997
  156.1897  140.1681  156.8102 H   0  0  0  0  0  0  0  0  0  0  0  0  # atno 8010 bound_to 7997
  140.2665  144.3314  150.6302 H   0  0  0  0  0  0  0  0  0  0  0  0  # atno 10167 bound_to 10162
  156.3913  130.4373  149.7392 H   0  0  0  0  0  0  0  0  0  0  0  0  # atno 10718 bound_to 10713
  153.9126  135.3009  155.3448 H   0  0  0  0  0  0  0  0  0  0  0  0  # atno 10763 bound_to 10752
  154.7616  135.4931  153.9478 H   0  0  0  0  0  0  0  0  0  0  0  0  # atno 10764 bound_to 10752
  153.1185  135.6776  153.9479 H   0  0  0  0  0  0  0  0  0  0  0  0  # atno 10765 bound_to 10752
  139.9877  134.6642  156.0147 H   0  0  0  0  0  0  0  0  0  0  0  0  # atno 11005 bound_to 11000
  146.3529  140.0504  142.8636 LP  0  0  0  0  0  0  0  0  0  0  0  0  # atno 17320 bound_to 7965
  145.1253  140.9486  143.4576 LP  0  0  0  0  0  0  0  0  0  0  0  0  # atno 17321 bound_to 7965
  140.5924  143.2167  151.7228 LP  0  0  0  0  0  0  0  0  0  0  0  0  # atno 17342 bound_to 10162
  139.5001  144.3919  152.0271 LP  0  0  0  0  0  0  0  0  0  0  0  0  # atno 17343 bound_to 10162
  156.4445  130.7877  151.2898 LP  0  0  0  0  0  0  0  0  0  0  0  0  # atno 17370 bound_to 10713
  157.7499  131.0114  150.3346 LP  0  0  0  0  0  0  0  0  0  0  0  0  # atno 17371 bound_to 10713
  141.1539  133.6545  156.4098 LP  0  0  0  0  0  0  0  0  0  0  0  0  # atno 17394 bound_to 11000
  140.4970  134.6521  157.5234 LP  0  0  0  0  0  0  0  0  0  0  0  0  # atno 17395 bound_to 11000

$$$$
