AV-unprocessed.smi:1027|AV-procd|sdf|4471|dock4
  -GOLD-   22720 2443D 1   1.00000     0.00000
 Structure written by MMmdl.
 34 35  0  0  0  0  0  0  0  0  2 V2000
  149.8535  132.3474  154.2297 C   0  0  0  0  0  0  0  0  0  0  0  0
  148.4760  133.0186  154.0794 C   0  0  0  0  0  0  0  0  0  0  0  0
  148.1209  133.1283  152.5835 C   0  0  0  0  0  0  0  0  0  0  0  0
  148.4030  134.3902  154.8017 C   0  0  2  0  0  0  0  0  0  0  0  0
  147.0533  135.1084  154.6120 C   0  0  0  0  0  0  0  0  0  0  0  0
  149.4748  135.2663  154.3266 N   0  0  0  0  0  0  0  0  0  0  0  0
  150.6208  135.5445  154.9658 C   0  0  0  0  0  0  0  0  0  0  0  0
  150.8447  135.0530  156.0745 O   0  0  0  0  0  0  0  0  0  0  0  0
  151.4376  136.3754  154.2786 N   0  5  0  0  0  0  0  0  0  0  0  0
  151.6607  137.6212  154.7289 C   0  0  0  0  0  0  0  0  0  0  0  0
  152.7061  138.3554  154.3231 N   0  0  0  0  0  0  0  0  0  0  0  0
  152.7506  139.6110  154.9115 N   0  0  0  0  0  0  0  0  0  0  0  0
  151.7397  139.8050  155.7618 C   0  0  0  0  0  0  0  0  0  0  0  0
  151.5644  141.0797  156.5175 C   0  0  0  0  0  0  0  0  0  0  0  0
  150.4044  141.2840  157.4675 C   0  0  0  0  0  0  0  0  0  0  0  0
  150.4518  142.0401  156.1645 C   0  0  0  0  0  0  0  0  0  0  0  0
  150.6446  138.4402  155.9146 S   0  0  0  0  0  0  0  0  0  0  0  0
  150.6497  132.9887  153.8507 H   0  0  0  0  0  0  0  0  0  0  0  0
  149.8944  131.4082  153.6774 H   0  0  0  0  0  0  0  0  0  0  0  0
  150.0784  132.1100  155.2689 H   0  0  0  0  0  0  0  0  0  0  0  0
  147.7399  132.3562  154.5376 H   0  0  0  0  0  0  0  0  0  0  0  0
  148.7915  133.8174  152.0691 H   0  0  0  0  0  0  0  0  0  0  0  0
  147.1008  133.4813  152.4308 H   0  0  0  0  0  0  0  0  0  0  0  0
  148.1980  132.1597  152.0890 H   0  0  0  0  0  0  0  0  0  0  0  0
  148.5454  134.2095  155.8688 H   0  0  0  0  0  0  0  0  0  0  0  0
  146.2319  134.5524  155.0623 H   0  0  0  0  0  0  0  0  0  0  0  0
  146.8249  135.2508  153.5554 H   0  0  0  0  0  0  0  0  0  0  0  0
  147.0612  136.0917  155.0835 H   0  0  0  0  0  0  0  0  0  0  0  0
  149.3391  135.6957  153.4231 H   0  0  0  0  0  0  0  0  0  0  0  0
  152.5300  141.4971  156.7962 H   0  0  0  0  0  0  0  0  0  0  0  0
  149.6641  140.4912  157.5549 H   0  0  0  0  0  0  0  0  0  0  0  0
  150.5972  141.8435  158.3804 H   0  0  0  0  0  0  0  0  0  0  0  0
  150.6756  143.1040  156.2068 H   0  0  0  0  0  0  0  0  0  0  0  0
  149.7541  141.7401  155.3850 H   0  0  0  0  0  0  0  0  0  0  0  0
  1  2  1  0  0  0  0
  1 18  1  0  0  0  0
  1 19  1  0  0  0  0
  1 20  1  0  0  0  0
  2  3  1  0  0  0  0
  2  4  1  0  0  0  0
  2 21  1  0  0  0  0
  3 22  1  0  0  0  0
  3 23  1  0  0  0  0
  3 24  1  0  0  0  0
  4  5  1  0  0  0  0
  4  6  1  0  0  0  0
  4 25  1  0  0  0  0
  5 26  1  0  0  0  0
  5 27  1  0  0  0  0
  5 28  1  0  0  0  0
  6  7  1  0  0  0  0
  6 29  1  0  0  0  0
  7  8  2  0  0  0  0
  7  9  1  0  0  0  0
  9 10  1  0  0  0  0
 10 17  1  0  0  0  0
 10 11  2  0  0  0  0
 11 12  1  0  0  0  0
 12 13  2  0  0  0  0
 13 14  1  0  0  0  0
 13 17  1  0  0  0  0
 14 16  1  0  0  0  0
 14 15  1  0  0  0  0
 14 30  1  0  0  0  0
 15 16  1  0  0  0  0
 15 31  1  0  0  0  0
 15 32  1  0  0  0  0
 16 33  1  0  0  0  0
 16 34  1  0  0  0  0
M  CHG  1   9  -1
M  END
> <s_m_source_file>
AV-unprocessed.smi

> <i_m_source_file_index>
1027

> <i_lp_mmshare_version>
43012

> <i_f3d_flags>
0

> <s_epik_input>
W0NIM11bQ0hdKFtDSDNdKVtDQEhdKFtDSDNdKVtOSF1DKD1PKVtOSF1jMW5uYyhzMSlbQ0hdMltDSDJdW0NIMl0y

> <s_epik_cmdline>
J2VwaWtfcHl0aG9uJywgJy1waCcsICc3LjAnLCAnLXRuJywgJzgnLCAnLW1hJywgJzIwMCcsICctbWV0YWxfYmluZGluZycsICctaW1hZScsICc8aW5maWxlLm1hZT4nLCAnLW9tYWUnLCAnPG91dGZpbGUubWFlPic=

> <r_lp_tautomer_probability>
1

> <r_epik_Ionization_Penalty>
3.99975

> <r_epik_Ionization_Penalty_Charging>
3.83446

> <r_epik_Ionization_Penalty_Neutral>
0.165297

> <r_epik_State_Penalty>
3.83354

> <r_epik_Charging_Adjusted_Penalty>
7.668

> <i_epik_Tot_Q>
-1

> <i_epik_Tot_abs_Q>
1

> <r_epik_Metal_State_Penalty>
0.575872

> <b_epik_Metal_Only>
1

> <s_lp_Force_Field>
OPLS_2005

> <r_lp_Energy>
2.28672

> <b_lp_Chiralities_Consistent>
1

> <s_lp_Variant>
AV-unprocessed.smi:1027-3

> <Gold.Version>
5.8.1

> <Gold.Id.Protein>
6NUR|6NUR_protein|mol2

> <Gold.PLP.Fitness>
37.1856

> <Gold.PLP.PLP>
-27.1805

> <Gold.PLP.part.hbond>
-3.9275

> <Gold.PLP.part.metal>
0.0000

> <Gold.PLP.part.buried>
-4.1445

> <Gold.PLP.part.nonpolar>
-20.1974

> <Gold.PLP.part.repulsive>
1.1240

> <Gold.PLP.ligand.clash>
0.0000

> <Gold.PLP.ligand.torsion>
1.0770

> <Gold.PLP.Chemscore.Hbond>
4.0000

> <Gold.PLP.Chemscore.CHOScore>
0.0000

> <Gold.PLP.Chemscore.Metal>
0.0000

> <Gold.Chemscore.Hbonds>
donor molecule, donor type, donor heavy atom, donor atom, acceptor molecule, acceptor atom, score
      L1  H     6    29       P1  7948  1.00
      P1  H  7989  7998       L1    12  0.14
      P1  H  7997  8008       L1    12  0.47
      P1  H 10752 10763       L1     9  2.00

> <Gold.PLP.Chemscore.Internal.Correction>
0.1589

> <Gold.Rescore>
     Score         DG    S(hbond)    S(metal)    S(lipo)     H(rot)  DE(clash)    DE(int)     intcor
     14.18     -15.63       2.45        0.00      46.53       1.36       0.04       1.41       ----

> <Gold.Chemscore.Fitness>
14.1766

> <Gold.Chemscore.DG>
-15.6279

> <Gold.Chemscore.ZeroCoef>
-5.4800

> <Gold.Chemscore.Hbond>
2.4523

> <Gold.Chemscore.Metal>
0.0000

> <Gold.Chemscore.Lipo>
46.5267

> <Gold.Chemscore.Internal_Hbond>
0.0000

> <Gold.Chemscore.DEClash>
0.0402

> <Gold.Chemscore.DEInternal>
1.4110

> <Gold.Chemscore.Rot>
1.3618

> <Gold.Chemscore.Internal.Correction>
   9.000000E+99

> <Gold.Chemscore.Hbonds>
donor molecule, donor type, donor heavy atom, donor atom, acceptor molecule, acceptor atom, score
      L1  H     6    29       P1  7948  0.40
      P1  H  7997  8008       L1    12  0.08
      P1  H 10752 10763       L1     9  0.25

> <Gold.Chemscore.Hbond.Weighted>
-8.1906

> <Gold.Chemscore.Metal.Weighted>
-0.0000

> <Gold.Chemscore.Lipo.Weighted>
-5.4436

> <Gold.Chemscore.Internal_Hbond.Weighted>
0.0000

> <Gold.Chemscore.DEClash.Weighted>
0.0402

> <Gold.Chemscore.DEInternal.Weighted>
1.4110

> <Gold.Chemscore.Rot.Weighted>
3.4863

> <Gold.Chemscore.Internal.Correction.Weighted>
   9.000000E+99

> <Gold.Protein.RotatedTorsions>
[ 6907 6896 6895 6894 ] final  158.44 input  -60.11 | X-H torsion
[ 7974 7965 7964 7962 ] final   64.81 input  175.53 | X-H torsion
[ 8008 7997 7996 7995 ] final  -43.03 input   59.86 | X-H torsion
[ 10167 10162 10161 10158 ] final  134.61 input  -65.29 | X-H torsion
[ 10718 10713 10712 10709 ] final   12.95 input   66.30 | X-H torsion
[ 10763 10752 10751 10750 ] final   43.87 input  -60.55 | X-H torsion
[ 11005 11000 10999 10996 ] final   57.57 input  -57.11 | X-H torsion

> <Gold.Protein.ActiveResidues>
 VAL166  LYS551  ARG553  GLY616  TRP617  ASP618  TYR619  PRO620  LYS621  CYS622 
 ASP623  PHE694  ASN695  SER759  ASP760  ASP761  ALA762  ILE779  LEU786  VAL792 
 PHE793  MET794  SER795  GLU796  ALA797  LYS798  CYS799  TRP800  GLU811  SER814 

> <Gold.Protein.RotatedAtoms>
  152.0003  133.3823  159.4178 H   0  0  0  0  0  0  0  0  0  0  0  0  # atno 6907 bound_to 6896
  150.6911  134.3841  159.5056 H   0  0  0  0  0  0  0  0  0  0  0  0  # atno 6908 bound_to 6896
  152.1587  134.8929  160.0594 H   0  0  0  0  0  0  0  0  0  0  0  0  # atno 6909 bound_to 6896
  145.8459  139.3224  143.0904 H   0  0  0  0  0  0  0  0  0  0  0  0  # atno 7974 bound_to 7965
  154.3997  140.1458  156.3452 H   0  0  0  0  0  0  0  0  0  0  0  0  # atno 8008 bound_to 7997
  155.8319  140.3465  155.5557 H   0  0  0  0  0  0  0  0  0  0  0  0  # atno 8009 bound_to 7997
  155.8179  140.0893  157.1857 H   0  0  0  0  0  0  0  0  0  0  0  0  # atno 8010 bound_to 7997
  139.5249  144.6558  151.5165 H   0  0  0  0  0  0  0  0  0  0  0  0  # atno 10167 bound_to 10162
  157.0176  130.6142  149.5716 H   0  0  0  0  0  0  0  0  0  0  0  0  # atno 10718 bound_to 10713
  152.9852  135.6088  154.3181 H   0  0  0  0  0  0  0  0  0  0  0  0  # atno 10763 bound_to 10752
  154.2892  135.2775  155.2664 H   0  0  0  0  0  0  0  0  0  0  0  0  # atno 10764 bound_to 10752
  154.4967  135.5878  153.6556 H   0  0  0  0  0  0  0  0  0  0  0  0  # atno 10765 bound_to 10752
  140.0442  134.5829  155.9343 H   0  0  0  0  0  0  0  0  0  0  0  0  # atno 11005 bound_to 11000
  145.9413  140.8977  143.0306 LP  0  0  0  0  0  0  0  0  0  0  0  0  # atno 17320 bound_to 7965
  144.6731  140.1552  143.7427 LP  0  0  0  0  0  0  0  0  0  0  0  0  # atno 17321 bound_to 7965
  140.6384  143.8939  150.6668 LP  0  0  0  0  0  0  0  0  0  0  0  0  # atno 17342 bound_to 10162
  140.2265  143.3768  152.1600 LP  0  0  0  0  0  0  0  0  0  0  0  0  # atno 17343 bound_to 10162
  156.0114  130.5205  150.7999 LP  0  0  0  0  0  0  0  0  0  0  0  0  # atno 17370 bound_to 10713
  157.5274  131.0935  151.0000 LP  0  0  0  0  0  0  0  0  0  0  0  0  # atno 17371 bound_to 10713
  141.1898  133.6566  156.5386 LP  0  0  0  0  0  0  0  0  0  0  0  0  # atno 17394 bound_to 11000
  140.4020  134.7348  157.4785 LP  0  0  0  0  0  0  0  0  0  0  0  0  # atno 17395 bound_to 11000

$$$$
