AV-unprocessed.smi:1941|AV-procd|sdf|7848|dock1
  -GOLD-   22720 9593D 1   1.00000     0.00000
 Structure written by MMmdl.
 40 41  0  0  0  0  0  0  0  0  1 V2000
  144.7788  130.7029  151.4887 C   0  0  0  0  0  0  0  0  0  0  0  0
  145.7566  131.7164  151.9759 C   0  0  0  0  0  0  0  0  0  0  0  0
  146.8514  131.4103  152.6769 N   0  0  0  0  0  0  0  0  0  0  0  0
  147.6051  132.5382  153.0171 C   0  0  0  0  0  0  0  0  0  0  0  0
  148.8677  132.3826  153.8082 C   0  0  0  0  0  0  0  0  0  0  0  0
  148.9522  133.3757  154.9790 C   0  0  0  0  0  0  0  0  0  0  0  0
  149.1112  134.7446  154.5029 N   0  0  0  0  0  0  0  0  0  0  0  0
  149.7197  135.7263  155.1818 C   0  0  0  0  0  0  0  0  0  0  0  0
  150.1956  135.5908  156.3092 O   0  0  0  0  0  0  0  0  0  0  0  0
  149.7482  136.8681  154.4800 N   0  0  0  0  0  0  0  0  0  0  0  0
  150.3374  138.1303  154.9227 C   0  0  1  0  0  0  0  0  0  0  0  0
  151.8607  138.0619  154.7413 C   0  0  0  0  0  0  0  0  0  0  0  0
  149.7153  139.3053  154.1433 C   0  0  1  0  0  0  0  0  0  0  0  0
  148.2061  139.4771  154.3340 C   0  0  0  0  0  0  0  0  0  0  0  0
  147.9735  140.9607  154.0890 C   0  0  0  0  0  0  0  0  0  0  0  0
  149.3792  141.5666  154.0954 C   0  0  0  0  0  0  0  0  0  0  0  0
  150.2175  140.5454  154.6157 O   0  0  0  0  0  0  0  0  0  0  0  0
  147.0613  133.7118  152.5577 C   0  0  0  0  0  0  0  0  0  0  0  0
  145.5799  133.4420  151.6816 S   0  0  0  0  0  0  0  0  0  0  0  0
  145.0469  129.7071  151.8435 H   0  0  0  0  0  0  0  0  0  0  0  0
  144.7650  130.6942  150.3988 H   0  0  0  0  0  0  0  0  0  0  0  0
  143.7796  130.9449  151.8509 H   0  0  0  0  0  0  0  0  0  0  0  0
  148.9392  131.3624  154.1876 H   0  0  0  0  0  0  0  0  0  0  0  0
  149.7310  132.5175  153.1553 H   0  0  0  0  0  0  0  0  0  0  0  0
  148.0398  133.3307  155.5742 H   0  0  0  0  0  0  0  0  0  0  0  0
  149.7732  133.1116  155.6482 H   0  0  0  0  0  0  0  0  0  0  0  0
  148.7478  134.9532  153.5844 H   0  0  0  0  0  0  0  0  0  0  0  0
  149.3281  136.8665  153.5621 H   0  0  0  0  0  0  0  0  0  0  0  0
  150.1389  138.2845  155.9848 H   0  0  0  0  0  0  0  0  0  0  0  0
  152.3397  138.9781  155.0876 H   0  0  0  0  0  0  0  0  0  0  0  0
  152.1316  137.9205  153.6945 H   0  0  0  0  0  0  0  0  0  0  0  0
  152.2866  137.2353  155.3109 H   0  0  0  0  0  0  0  0  0  0  0  0
  149.9428  139.2172  153.0787 H   0  0  0  0  0  0  0  0  0  0  0  0
  147.6254  138.8416  153.6648 H   0  0  0  0  0  0  0  0  0  0  0  0
  147.9246  139.2285  155.3585 H   0  0  0  0  0  0  0  0  0  0  0  0
  147.4779  141.1409  153.1344 H   0  0  0  0  0  0  0  0  0  0  0  0
  147.3502  141.3866  154.8761 H   0  0  0  0  0  0  0  0  0  0  0  0
  149.6976  141.8085  153.0802 H   0  0  0  0  0  0  0  0  0  0  0  0
  149.4426  142.4731  154.6975 H   0  0  0  0  0  0  0  0  0  0  0  0
  147.4410  134.7152  152.6816 H   0  0  0  0  0  0  0  0  0  0  0  0
  1  2  1  0  0  0  0
  1 20  1  0  0  0  0
  1 21  1  0  0  0  0
  1 22  1  0  0  0  0
  2 19  1  0  0  0  0
  2  3  2  0  0  0  0
  3  4  1  0  0  0  0
  4  5  1  0  0  0  0
  4 18  2  0  0  0  0
  5  6  1  0  0  0  0
  5 23  1  0  0  0  0
  5 24  1  0  0  0  0
  6  7  1  0  0  0  0
  6 25  1  0  0  0  0
  6 26  1  0  0  0  0
  7  8  1  0  0  0  0
  7 27  1  0  0  0  0
  8  9  2  0  0  0  0
  8 10  1  0  0  0  0
 10 11  1  0  0  0  0
 10 28  1  0  0  0  0
 11 12  1  0  0  0  0
 11 13  1  0  0  0  0
 11 29  1  0  0  0  0
 12 30  1  0  0  0  0
 12 31  1  0  0  0  0
 12 32  1  0  0  0  0
 13 17  1  0  0  0  0
 13 14  1  0  0  0  0
 13 33  1  0  0  0  0
 14 15  1  0  0  0  0
 14 34  1  0  0  0  0
 14 35  1  0  0  0  0
 15 16  1  0  0  0  0
 15 36  1  0  0  0  0
 15 37  1  0  0  0  0
 16 17  1  0  0  0  0
 16 38  1  0  0  0  0
 16 39  1  0  0  0  0
 18 19  1  0  0  0  0
 18 40  1  0  0  0  0
M  END
> <s_m_source_file>
AV-unprocessed.smi

> <i_m_source_file_index>
1941

> <i_lp_mmshare_version>
43012

> <i_f3d_flags>
0

> <s_epik_input>
W0NIM11jMW5jKFtjSF1zMSlbQ0gyXVtDSDJdW05IXUMoPU8pW05IXVtDQEhdKFtDSDNdKVtDQEBIXTJbQ0gyXVtDSDJdW0NIMl1PMg==

> <s_epik_cmdline>
J2VwaWtfcHl0aG9uJywgJy1waCcsICc3LjAnLCAnLXRuJywgJzgnLCAnLW1hJywgJzIwMCcsICctbWV0YWxfYmluZGluZycsICctaW1hZScsICc8aW5maWxlLm1hZT4nLCAnLW9tYWUnLCAnPG91dGZpbGUubWFlPic=

> <r_epik_Ionization_Penalty>
0.00195486

> <r_epik_Ionization_Penalty_Charging>
0

> <r_epik_Ionization_Penalty_Neutral>
0.00195486

> <r_epik_State_Penalty>
0.00129472

> <r_epik_Charging_Adjusted_Penalty>
0.00129472

> <i_epik_Tot_Q>
0

> <i_epik_Tot_abs_Q>
0

> <r_epik_Metal_State_Penalty>
-0

> <b_epik_Metal_Only>
0

> <s_lp_Force_Field>
OPLS_2005

> <r_lp_Energy>
10.4384

> <b_lp_Chiralities_Consistent>
1

> <s_lp_Variant>
AV-unprocessed.smi:1941-4

> <Gold.Version>
5.8.1

> <Gold.Id.Protein>
6NUR|6NUR_protein|mol2

> <Gold.PLP.Fitness>
44.4286

> <Gold.PLP.PLP>
-34.4319

> <Gold.PLP.part.hbond>
-3.0000

> <Gold.PLP.part.metal>
0.0000

> <Gold.PLP.part.buried>
-3.0387

> <Gold.PLP.part.nonpolar>
-28.6658

> <Gold.PLP.part.repulsive>
1.2463

> <Gold.PLP.ligand.clash>
0.0000

> <Gold.PLP.ligand.torsion>
0.6456

> <Gold.PLP.Chemscore.Hbond>
2.7274

> <Gold.PLP.Chemscore.CHOScore>
1.0000

> <Gold.PLP.Chemscore.Metal>
0.0000

> <Gold.Chemscore.Hbonds>
donor molecule, donor type, donor heavy atom, donor atom, acceptor molecule, acceptor atom, score
      L1  H     7    27       P1  7948  0.68
      L1  H    10    28       P1  7948  1.00
      P1  H  7989  7998       L1    17  0.68
      L1  C    18    40       P1  7948  1.00

> <Gold.PLP.Chemscore.Internal.Correction>
0.1058

> <Gold.Rescore>
     Score         DG    S(hbond)    S(metal)    S(lipo)     H(rot)  DE(clash)    DE(int)     intcor
     14.95     -15.54       1.43        0.00      82.17       1.69       0.07       0.52       ----

> <Gold.Chemscore.Fitness>
14.9474

> <Gold.Chemscore.DG>
-15.5388

> <Gold.Chemscore.ZeroCoef>
-5.4800

> <Gold.Chemscore.Hbond>
1.4302

> <Gold.Chemscore.Metal>
0.0000

> <Gold.Chemscore.Lipo>
82.1717

> <Gold.Chemscore.Internal_Hbond>
0.0000

> <Gold.Chemscore.DEClash>
0.0734

> <Gold.Chemscore.DEInternal>
0.5180

> <Gold.Chemscore.Rot>
1.6923

> <Gold.Chemscore.Internal.Correction>
   9.000000E+99

> <Gold.Chemscore.Hbonds>
donor molecule, donor type, donor heavy atom, donor atom, acceptor molecule, acceptor atom, score
      L1  H     7    27       P1  7948  0.41
      L1  H    10    28       P1  7948  0.94
      P1  H  7989  7998       L1    17  0.03

> <Gold.Chemscore.Hbond.Weighted>
-4.7770

> <Gold.Chemscore.Metal.Weighted>
-0.0000

> <Gold.Chemscore.Lipo.Weighted>
-9.6141

> <Gold.Chemscore.Internal_Hbond.Weighted>
0.0000

> <Gold.Chemscore.DEClash.Weighted>
0.0734

> <Gold.Chemscore.DEInternal.Weighted>
0.5180

> <Gold.Chemscore.Rot.Weighted>
4.3323

> <Gold.Chemscore.Internal.Correction.Weighted>
   9.000000E+99

> <Gold.Protein.RotatedTorsions>
[ 6907 6896 6895 6894 ] final   84.86 input  -60.11 | X-H torsion
[ 7974 7965 7964 7962 ] final   61.22 input  175.53 | X-H torsion
[ 8008 7997 7996 7995 ] final -163.25 input   59.86 | X-H torsion
[ 10167 10162 10161 10158 ] final   -8.38 input  -65.29 | X-H torsion
[ 10718 10713 10712 10709 ] final  -49.39 input   66.30 | X-H torsion
[ 10763 10752 10751 10750 ] final -152.71 input  -60.55 | X-H torsion
[ 11005 11000 10999 10996 ] final  -64.71 input  -57.11 | X-H torsion

> <Gold.Protein.ActiveResidues>
 VAL166  LYS551  ARG553  GLY616  TRP617  ASP618  TYR619  PRO620  LYS621  CYS622 
 ASP623  PHE694  ASN695  SER759  ASP760  ASP761  ALA762  ILE779  LEU786  VAL792 
 PHE793  MET794  SER795  GLU796  ALA797  LYS798  CYS799  TRP800  GLU811  SER814 

> <Gold.Protein.RotatedAtoms>
  152.5362  134.2676  159.8958 H   0  0  0  0  0  0  0  0  0  0  0  0  # atno 6907 bound_to 6896
  151.2633  133.4284  159.2625 H   0  0  0  0  0  0  0  0  0  0  0  0  # atno 6908 bound_to 6896
  151.0433  134.9637  159.8229 H   0  0  0  0  0  0  0  0  0  0  0  0  # atno 6909 bound_to 6896
  145.8872  139.3485  143.0671 H   0  0  0  0  0  0  0  0  0  0  0  0  # atno 7974 bound_to 7965
  155.8185  140.0916  157.1862 H   0  0  0  0  0  0  0  0  0  0  0  0  # atno 8008 bound_to 7997
  154.3979  140.1441  156.3532 H   0  0  0  0  0  0  0  0  0  0  0  0  # atno 8009 bound_to 7997
  155.8290  140.3443  155.5563 H   0  0  0  0  0  0  0  0  0  0  0  0  # atno 8010 bound_to 7997
  140.7057  143.5975  150.8831 H   0  0  0  0  0  0  0  0  0  0  0  0  # atno 10167 bound_to 10162
  156.1898  130.4152  149.9388 H   0  0  0  0  0  0  0  0  0  0  0  0  # atno 10718 bound_to 10713
  154.7976  135.3230  154.7628 H   0  0  0  0  0  0  0  0  0  0  0  0  # atno 10763 bound_to 10752
  153.8303  135.6880  153.4820 H   0  0  0  0  0  0  0  0  0  0  0  0  # atno 10764 bound_to 10752
  153.1676  135.4636  154.9801 H   0  0  0  0  0  0  0  0  0  0  0  0  # atno 10765 bound_to 10752
  141.1433  133.6670  156.5875 H   0  0  0  0  0  0  0  0  0  0  0  0  # atno 11005 bound_to 11000
  145.8952  140.9278  143.0531 LP  0  0  0  0  0  0  0  0  0  0  0  0  # atno 17320 bound_to 7965
  144.6729  140.0959  143.7463 LP  0  0  0  0  0  0  0  0  0  0  0  0  # atno 17321 bound_to 7965
  139.9700  143.6067  152.2976 LP  0  0  0  0  0  0  0  0  0  0  0  0  # atno 17342 bound_to 10162
  139.6651  144.7662  151.1889 LP  0  0  0  0  0  0  0  0  0  0  0  0  # atno 17343 bound_to 10162
  156.7132  130.8978  151.3611 LP  0  0  0  0  0  0  0  0  0  0  0  0  # atno 17370 bound_to 10713
  157.6922  130.9245  150.0544 LP  0  0  0  0  0  0  0  0  0  0  0  0  # atno 17371 bound_to 10713
  140.3789  134.7541  157.4648 LP  0  0  0  0  0  0  0  0  0  0  0  0  # atno 17394 bound_to 11000
  140.0653  134.5938  155.8702 LP  0  0  0  0  0  0  0  0  0  0  0  0  # atno 17395 bound_to 11000

$$$$
