AV-unprocessed.smi:2035|AV-procd|sdf|8270|dock2
  -GOLD-   2272010543D 1   1.00000     0.00000
 Structure written by MMmdl.
 34 35  0  0  0  0  0  0  0  0  1 V2000
  150.0473  140.8517  157.5973 O   0  0  0  0  0  0  0  0  0  0  0  0
  149.8887  141.9563  157.0788 C   0  0  0  0  0  0  0  0  0  0  0  0
  150.3397  143.1264  157.5648 N   0  0  0  0  0  0  0  0  0  0  0  0
  151.0848  143.3968  158.7471 C   0  0  0  0  0  0  0  0  0  0  0  0
  151.0678  144.7225  159.2289 C   0  0  0  0  0  0  0  0  0  0  0  0
  151.7914  145.0339  160.3973 C   0  0  0  0  0  0  0  0  0  0  0  0
  152.5085  144.1244  161.0891 N   0  0  0  0  0  0  0  0  0  0  0  0
  152.5260  142.8562  160.6281 C   0  0  0  0  0  0  0  0  0  0  0  0
  151.8379  142.4393  159.4706 C   0  0  0  0  0  0  0  0  0  0  0  0
  149.2236  142.1398  155.9287 N   0  0  0  0  0  0  0  0  0  0  0  0
  148.6210  141.0858  155.1103 C   0  0  1  0  0  0  0  0  0  0  0  0
  147.8868  141.7058  153.9002 C   0  0  0  0  0  0  0  0  0  0  0  0
  146.7957  140.8031  153.3016 C   0  0  0  0  0  0  0  0  0  0  0  0
  147.3031  139.4767  152.7160 C   0  0  0  0  0  0  0  0  0  0  0  0
  147.9017  138.5254  153.7661 C   0  0  0  0  0  0  0  0  0  0  0  0
  149.2633  138.8878  154.1392 N   0  0  0  0  0  0  0  0  0  0  0  0
  149.6678  140.0196  154.7358 C   0  0  0  0  0  0  0  0  0  0  0  0
  150.8607  140.2075  154.9742 O   0  0  0  0  0  0  0  0  0  0  0  0
  150.1171  143.9401  157.0104 H   0  0  0  0  0  0  0  0  0  0  0  0
  150.5107  145.4925  158.7154 H   0  0  0  0  0  0  0  0  0  0  0  0
  151.7939  146.0414  160.7859 H   0  0  0  0  0  0  0  0  0  0  0  0
  153.1078  142.1488  161.2006 H   0  0  0  0  0  0  0  0  0  0  0  0
  151.9085  141.4053  159.1749 H   0  0  0  0  0  0  0  0  0  0  0  0
  149.1435  143.0811  155.5716 H   0  0  0  0  0  0  0  0  0  0  0  0
  147.8846  140.5805  155.7383 H   0  0  0  0  0  0  0  0  0  0  0  0
  147.4045  142.6361  154.2036 H   0  0  0  0  0  0  0  0  0  0  0  0
  148.6056  141.9863  153.1288 H   0  0  0  0  0  0  0  0  0  0  0  0
  146.0369  140.6004  154.0584 H   0  0  0  0  0  0  0  0  0  0  0  0
  146.2856  141.3561  152.5124 H   0  0  0  0  0  0  0  0  0  0  0  0
  146.4579  138.9748  152.2435 H   0  0  0  0  0  0  0  0  0  0  0  0
  148.0228  139.6638  151.9178 H   0  0  0  0  0  0  0  0  0  0  0  0
  147.2672  138.4640  154.6512 H   0  0  0  0  0  0  0  0  0  0  0  0
  147.9444  137.5182  153.3508 H   0  0  0  0  0  0  0  0  0  0  0  0
  149.9788  138.2122  153.9122 H   0  0  0  0  0  0  0  0  0  0  0  0
  1  2  2  0  0  0  0
  2  3  1  0  0  0  0
  2 10  1  0  0  0  0
  3  4  1  0  0  0  0
  3 19  1  0  0  0  0
  4  9  1  0  0  0  0
  4  5  2  0  0  0  0
  5  6  1  0  0  0  0
  5 20  1  0  0  0  0
  6  7  2  0  0  0  0
  6 21  1  0  0  0  0
  7  8  1  0  0  0  0
  8  9  2  0  0  0  0
  8 22  1  0  0  0  0
  9 23  1  0  0  0  0
 10 11  1  0  0  0  0
 10 24  1  0  0  0  0
 11 17  1  0  0  0  0
 11 12  1  0  0  0  0
 11 25  1  0  0  0  0
 12 13  1  0  0  0  0
 12 26  1  0  0  0  0
 12 27  1  0  0  0  0
 13 14  1  0  0  0  0
 13 28  1  0  0  0  0
 13 29  1  0  0  0  0
 14 15  1  0  0  0  0
 14 30  1  0  0  0  0
 14 31  1  0  0  0  0
 15 16  1  0  0  0  0
 15 32  1  0  0  0  0
 15 33  1  0  0  0  0
 16 17  1  0  0  0  0
 16 34  1  0  0  0  0
 17 18  2  0  0  0  0
M  END
> <s_m_source_file>
AV-unprocessed.smi

> <i_m_source_file_index>
2035

> <i_lp_mmshare_version>
43012

> <i_f3d_flags>
0

> <s_epik_input>
W2NIXTFbY0hdbltjSF1bY0hdYzFbTkhdQyg9TylbTkhdW0NAQEhdMltDSDJdW0NIMl1bQ0gyXVtDSDJdW05IXUMyPU8=

> <s_epik_cmdline>
J2VwaWtfcHl0aG9uJywgJy1waCcsICc3LjAnLCAnLXRuJywgJzgnLCAnLW1hJywgJzIwMCcsICctbWV0YWxfYmluZGluZycsICctaW1hZScsICc8aW5maWxlLm1hZT4nLCAnLW9tYWUnLCAnPG91dGZpbGUubWFlPic=

> <r_epik_Ionization_Penalty>
0.100041

> <r_epik_Ionization_Penalty_Charging>
0

> <r_epik_Ionization_Penalty_Neutral>
0.100041

> <r_epik_State_Penalty>
0.0900442

> <r_epik_Charging_Adjusted_Penalty>
0.0900442

> <i_epik_Tot_Q>
0

> <i_epik_Tot_abs_Q>
0

> <r_epik_Metal_State_Penalty>
0.0769377

> <b_epik_Metal_Only>
0

> <s_lp_Force_Field>
OPLS_2005

> <r_lp_Energy>
15.5607

> <b_lp_Chiralities_Consistent>
1

> <s_lp_Variant>
AV-unprocessed.smi:2035-2

> <Gold.Version>
5.8.1

> <Gold.Id.Protein>
6NUR|6NUR_protein|mol2

> <Gold.PLP.Fitness>
42.1898

> <Gold.PLP.PLP>
-33.5226

> <Gold.PLP.part.hbond>
-3.4059

> <Gold.PLP.part.metal>
0.0000

> <Gold.PLP.part.buried>
-0.8198

> <Gold.PLP.part.nonpolar>
-29.7875

> <Gold.PLP.part.repulsive>
0.3618

> <Gold.PLP.ligand.clash>
0.0000

> <Gold.PLP.ligand.torsion>
0.0961

> <Gold.PLP.Chemscore.Hbond>
2.9440

> <Gold.PLP.Chemscore.CHOScore>
0.0000

> <Gold.PLP.Chemscore.Metal>
0.0000

> <Gold.Chemscore.Hbonds>
donor molecule, donor type, donor heavy atom, donor atom, acceptor molecule, acceptor atom, score
      L1  H     3    19       P1  8028  0.94
      L1  H    10    24       P1  8028  1.00
      P1  H  7989  7998       L1    18  1.00

> <Gold.PLP.Chemscore.Internal.Correction>
0.0273

> <Gold.Rescore>
     Score         DG    S(hbond)    S(metal)    S(lipo)     H(rot)  DE(clash)    DE(int)     intcor
     20.77     -22.02       2.80        0.00      83.28       1.00       0.15       1.09       ----

> <Gold.Chemscore.Fitness>
20.7732

> <Gold.Chemscore.DG>
-22.0180

> <Gold.Chemscore.ZeroCoef>
-5.4800

> <Gold.Chemscore.Hbond>
2.8007

> <Gold.Chemscore.Metal>
0.0000

> <Gold.Chemscore.Lipo>
83.2799

> <Gold.Chemscore.Internal_Hbond>
0.0000

> <Gold.Chemscore.DEClash>
0.1524

> <Gold.Chemscore.DEInternal>
1.0924

> <Gold.Chemscore.Rot>
1.0000

> <Gold.Chemscore.Internal.Correction>
   9.000000E+99

> <Gold.Chemscore.Hbonds>
donor molecule, donor type, donor heavy atom, donor atom, acceptor molecule, acceptor atom, score
      L1  H     3    19       P1  8028  0.87
      L1  H    10    24       P1  8028  0.99
      P1  H  7989  7998       L1    18  0.65

> <Gold.Chemscore.Hbond.Weighted>
-9.3543

> <Gold.Chemscore.Metal.Weighted>
-0.0000

> <Gold.Chemscore.Lipo.Weighted>
-9.7437

> <Gold.Chemscore.Internal_Hbond.Weighted>
0.0000

> <Gold.Chemscore.DEClash.Weighted>
0.1524

> <Gold.Chemscore.DEInternal.Weighted>
1.0924

> <Gold.Chemscore.Rot.Weighted>
2.5600

> <Gold.Chemscore.Internal.Correction.Weighted>
   9.000000E+99

> <Gold.Protein.RotatedTorsions>
[ 6907 6896 6895 6894 ] final -140.76 input  -60.11 | X-H torsion
[ 7974 7965 7964 7962 ] final  -68.48 input  175.53 | X-H torsion
[ 8008 7997 7996 7995 ] final   27.08 input   59.86 | X-H torsion
[ 10167 10162 10161 10158 ] final   24.06 input  -65.29 | X-H torsion
[ 10718 10713 10712 10709 ] final   72.01 input   66.30 | X-H torsion
[ 10763 10752 10751 10750 ] final  -35.18 input  -60.55 | X-H torsion
[ 11005 11000 10999 10996 ] final   96.27 input  -57.11 | X-H torsion

> <Gold.Protein.ActiveResidues>
 VAL166  LYS551  ARG553  GLY616  TRP617  ASP618  TYR619  PRO620  LYS621  CYS622 
 ASP623  PHE694  ASN695  SER759  ASP760  ASP761  ALA762  ILE779  LEU786  VAL792 
 PHE793  MET794  SER795  GLU796  ALA797  LYS798  CYS799  TRP800  GLU811  SER814 

> <Gold.Protein.RotatedAtoms>
  151.0649  133.5513  159.2631 H   0  0  0  0  0  0  0  0  0  0  0  0  # atno 6907 bound_to 6896
  151.2474  135.0609  159.9058 H   0  0  0  0  0  0  0  0  0  0  0  0  # atno 6908 bound_to 6896
  152.5403  134.0415  159.8123 H   0  0  0  0  0  0  0  0  0  0  0  0  # atno 6909 bound_to 6896
  145.7160  140.9059  143.0655 H   0  0  0  0  0  0  0  0  0  0  0  0  # atno 7974 bound_to 7965
  155.0373  140.3165  155.4737 H   0  0  0  0  0  0  0  0  0  0  0  0  # atno 8008 bound_to 7997
  156.2862  140.2169  156.5439 H   0  0  0  0  0  0  0  0  0  0  0  0  # atno 8009 bound_to 7997
  154.7320  140.0480  157.0722 H   0  0  0  0  0  0  0  0  0  0  0  0  # atno 8010 bound_to 7997
  140.5219  143.9988  150.6421 H   0  0  0  0  0  0  0  0  0  0  0  0  # atno 10167 bound_to 10162
  157.6480  130.9557  150.0869 H   0  0  0  0  0  0  0  0  0  0  0  0  # atno 10718 bound_to 10713
  153.8589  135.6842  153.4785 H   0  0  0  0  0  0  0  0  0  0  0  0  # atno 10763 bound_to 10752
  153.1353  135.4680  154.9410 H   0  0  0  0  0  0  0  0  0  0  0  0  # atno 10764 bound_to 10752
  154.7768  135.3256  154.8025 H   0  0  0  0  0  0  0  0  0  0  0  0  # atno 10765 bound_to 10752
  139.8783  134.8942  156.4133 H   0  0  0  0  0  0  0  0  0  0  0  0  # atno 11005 bound_to 11000
  144.6929  139.9138  143.7464 LP  0  0  0  0  0  0  0  0  0  0  0  0  # atno 17320 bound_to 7965
  146.0669  139.3660  143.0546 LP  0  0  0  0  0  0  0  0  0  0  0  0  # atno 17321 bound_to 7965
  140.3339  143.3060  152.0658 LP  0  0  0  0  0  0  0  0  0  0  0  0  # atno 17342 bound_to 10162
  139.4926  144.6490  151.6717 LP  0  0  0  0  0  0  0  0  0  0  0  0  # atno 17343 bound_to 10162
  156.1829  130.3651  149.9011 LP  0  0  0  0  0  0  0  0  0  0  0  0  # atno 17370 bound_to 10713
  156.6959  130.8914  151.3594 LP  0  0  0  0  0  0  0  0  0  0  0  0  # atno 17371 bound_to 10713
  140.9185  133.7662  155.9877 LP  0  0  0  0  0  0  0  0  0  0  0  0  # atno 17394 bound_to 11000
  140.8466  134.3003  157.5292 LP  0  0  0  0  0  0  0  0  0  0  0  0  # atno 17395 bound_to 11000

$$$$
