AV-unprocessed.smi:1835|AV-procd|sdf|7476|dock5
  -GOLD-   22720 9173D 1   1.00000     0.00000
 Structure written by MMmdl.
 42 43  0  0  0  0  0  0  0  0  2 V2000
  149.0639  139.0848  154.0852 C   0  0  0  0  0  0  0  0  0  0  0  0
  150.0953  138.0731  154.6372 C   0  0  1  0  0  0  0  0  0  0  0  0
  150.5899  138.5024  156.0475 C   0  0  0  0  0  0  0  0  0  0  0  0
  151.0471  139.8891  156.0894 N   0  0  0  0  0  0  0  0  0  0  0  0
  150.3751  140.9157  156.6333 C   0  0  0  0  0  0  0  0  0  0  0  0
  149.2870  140.7895  157.1958 O   0  0  0  0  0  0  0  0  0  0  0  0
  151.0421  142.2934  156.5234 C   0  0  0  0  0  0  0  0  0  0  0  0
  151.5713  142.7768  157.8096 N   0  0  0  0  0  0  0  0  0  0  0  0
  151.2735  144.1062  158.1703 C   0  0  0  0  0  0  0  0  0  0  0  0
  151.7070  144.6434  159.3217 C   0  0  0  0  0  0  0  0  0  0  0  0
  152.5004  143.8203  160.2033 C   0  0  0  0  0  0  0  0  0  0  0  0
  152.7935  142.5484  159.8670 C   0  0  0  0  0  0  0  0  0  0  0  0
  152.3228  141.9573  158.6089 C   0  0  0  0  0  0  0  0  0  0  0  0
  152.5878  140.7969  158.2920 O   0  0  0  0  0  0  0  0  0  0  0  0
  149.5232  136.6865  154.5973 N   0  3  0  0  0  0  0  0  0  0  0  0
  150.4933  135.6534  155.0542 C   0  0  0  0  0  0  0  0  0  0  0  0
  149.9092  134.2401  154.9023 C   0  0  0  0  0  0  0  0  0  0  0  0
  148.7045  134.1450  155.6473 O   0  0  0  0  0  0  0  0  0  0  0  0
  147.7231  135.0516  155.1674 C   0  0  0  0  0  0  0  0  0  0  0  0
  148.2290  136.4977  155.3099 C   0  0  0  0  0  0  0  0  0  0  0  0
  149.4804  140.0889  154.0139 H   0  0  0  0  0  0  0  0  0  0  0  0
  148.1848  139.1383  154.7281 H   0  0  0  0  0  0  0  0  0  0  0  0
  148.7227  138.8383  153.0819 H   0  0  0  0  0  0  0  0  0  0  0  0
  150.9677  138.0859  153.9817 H   0  0  0  0  0  0  0  0  0  0  0  0
  149.8133  138.3250  156.7939 H   0  0  0  0  0  0  0  0  0  0  0  0
  151.4521  137.9076  156.3489 H   0  0  0  0  0  0  0  0  0  0  0  0
  151.9369  140.0876  155.6549 H   0  0  0  0  0  0  0  0  0  0  0  0
  151.8347  142.2266  155.7772 H   0  0  0  0  0  0  0  0  0  0  0  0
  150.3311  143.0187  156.1228 H   0  0  0  0  0  0  0  0  0  0  0  0
  150.6802  144.6574  157.4552 H   0  0  0  0  0  0  0  0  0  0  0  0
  151.4706  145.6651  159.5803 H   0  0  0  0  0  0  0  0  0  0  0  0
  152.8619  144.2270  161.1364 H   0  0  0  0  0  0  0  0  0  0  0  0
  153.3892  141.9481  160.5388 H   0  0  0  0  0  0  0  0  0  0  0  0
  151.4213  135.7028  154.4880 H   0  0  0  0  0  0  0  0  0  0  0  0
  150.7524  135.8332  156.0988 H   0  0  0  0  0  0  0  0  0  0  0  0
  149.7279  134.0015  153.8529 H   0  0  0  0  0  0  0  0  0  0  0  0
  150.6152  133.5001  155.2794 H   0  0  0  0  0  0  0  0  0  0  0  0
  147.4785  134.8252  154.1282 H   0  0  0  0  0  0  0  0  0  0  0  0
  146.8081  134.9168  155.7446 H   0  0  0  0  0  0  0  0  0  0  0  0
  148.3505  136.7502  156.3646 H   0  0  0  0  0  0  0  0  0  0  0  0
  147.4590  137.1512  154.9013 H   0  0  0  0  0  0  0  0  0  0  0  0
  149.3277  136.4946  153.6250 H   0  0  0  0  0  0  0  0  0  0  0  0
  1  2  1  0  0  0  0
  1 21  1  0  0  0  0
  1 22  1  0  0  0  0
  1 23  1  0  0  0  0
  2  3  1  0  0  0  0
  2 15  1  0  0  0  0
  2 24  1  0  0  0  0
  3  4  1  0  0  0  0
  3 25  1  0  0  0  0
  3 26  1  0  0  0  0
  4  5  1  0  0  0  0
  4 27  1  0  0  0  0
  5  6  2  0  0  0  0
  5  7  1  0  0  0  0
  7  8  1  0  0  0  0
  7 28  1  0  0  0  0
  7 29  1  0  0  0  0
  8 13  1  0  0  0  0
  8  9  1  0  0  0  0
  9 10  2  0  0  0  0
  9 30  1  0  0  0  0
 10 11  1  0  0  0  0
 10 31  1  0  0  0  0
 11 12  2  0  0  0  0
 11 32  1  0  0  0  0
 12 13  1  0  0  0  0
 12 33  1  0  0  0  0
 13 14  2  0  0  0  0
 15 20  1  0  0  0  0
 15 16  1  0  0  0  0
 15 42  1  0  0  0  0
 16 17  1  0  0  0  0
 16 34  1  0  0  0  0
 16 35  1  0  0  0  0
 17 18  1  0  0  0  0
 17 36  1  0  0  0  0
 17 37  1  0  0  0  0
 18 19  1  0  0  0  0
 19 20  1  0  0  0  0
 19 38  1  0  0  0  0
 19 39  1  0  0  0  0
 20 40  1  0  0  0  0
 20 41  1  0  0  0  0
M  CHG  1  15   1
M  END
> <s_m_source_file>
AV-unprocessed.smi

> <i_m_source_file_index>
1835

> <i_lp_mmshare_version>
43012

> <i_f3d_flags>
0

> <s_epik_input>
W0NIMl0xW0NIMl1PW0NIMl1bQ0gyXU4xW0NASF0oW0NIM10pW0NIMl1bTkhdQyg9TylbQ0gyXW4yW2NIXVtjSF1bY0hdW2NIXWMyPU8=

> <s_epik_cmdline>
J2VwaWtfcHl0aG9uJywgJy1waCcsICc3LjAnLCAnLXRuJywgJzgnLCAnLW1hJywgJzIwMCcsICctbWV0YWxfYmluZGluZycsICctaW1hZScsICc8aW5maWxlLm1hZT4nLCAnLW9tYWUnLCAnPG91dGZpbGUubWFlPic=

> <r_lp_tautomer_probability>
1

> <r_epik_Ionization_Penalty>
0.656654

> <r_epik_Ionization_Penalty_Charging>
0.656654

> <r_epik_Ionization_Penalty_Neutral>
9.12373e-08

> <r_epik_State_Penalty>
0.675641

> <r_epik_Charging_Adjusted_Penalty>
1.33229

> <i_epik_Tot_Q>
1

> <i_epik_Tot_abs_Q>
1

> <r_epik_Metal_State_Penalty>
0.675692

> <b_epik_Metal_Only>
0

> <s_lp_Force_Field>
OPLS_2005

> <r_lp_Energy>
28.3698

> <b_lp_Chiralities_Consistent>
1

> <s_lp_Variant>
AV-unprocessed.smi:1835-4

> <Gold.Version>
5.8.1

> <Gold.Id.Protein>
6NUR|6NUR_protein|mol2

> <Gold.PLP.Fitness>
43.4802

> <Gold.PLP.PLP>
-35.2570

> <Gold.PLP.part.hbond>
-1.3219

> <Gold.PLP.part.metal>
0.0000

> <Gold.PLP.part.buried>
-4.5852

> <Gold.PLP.part.nonpolar>
-29.1838

> <Gold.PLP.part.repulsive>
0.1979

> <Gold.PLP.ligand.clash>
0.0000

> <Gold.PLP.ligand.torsion>
0.4242

> <Gold.PLP.Chemscore.Hbond>
2.0000

> <Gold.PLP.Chemscore.CHOScore>
1.0000

> <Gold.PLP.Chemscore.Metal>
0.0000

> <Gold.Chemscore.Hbonds>
donor molecule, donor type, donor heavy atom, donor atom, acceptor molecule, acceptor atom, score
      L1  H    15    42       P1  7948  2.00
      L1  C     9    30       P1  8028  1.00

> <Gold.PLP.Chemscore.Internal.Correction>
0.0717

> <Gold.Rescore>
     Score         DG    S(hbond)    S(metal)    S(lipo)     H(rot)  DE(clash)    DE(int)     intcor
     12.95     -16.42       1.70        0.00      88.03       1.96       0.36       3.11       ----

> <Gold.Chemscore.Fitness>
12.9483

> <Gold.Chemscore.DG>
-16.4183

> <Gold.Chemscore.ZeroCoef>
-5.4800

> <Gold.Chemscore.Hbond>
1.6974

> <Gold.Chemscore.Metal>
0.0000

> <Gold.Chemscore.Lipo>
88.0276

> <Gold.Chemscore.Internal_Hbond>
0.0000

> <Gold.Chemscore.DEClash>
0.3602

> <Gold.Chemscore.DEInternal>
3.1098

> <Gold.Chemscore.Rot>
1.9649

> <Gold.Chemscore.Internal.Correction>
   9.000000E+99

> <Gold.Chemscore.Hbonds>
donor molecule, donor type, donor heavy atom, donor atom, acceptor molecule, acceptor atom, score
      L1  H    15    42       P1  7948  0.91

> <Gold.Chemscore.Hbond.Weighted>
-5.6692

> <Gold.Chemscore.Metal.Weighted>
-0.0000

> <Gold.Chemscore.Lipo.Weighted>
-10.2992

> <Gold.Chemscore.Internal_Hbond.Weighted>
0.0000

> <Gold.Chemscore.DEClash.Weighted>
0.3602

> <Gold.Chemscore.DEInternal.Weighted>
3.1098

> <Gold.Chemscore.Rot.Weighted>
5.0300

> <Gold.Chemscore.Internal.Correction.Weighted>
   9.000000E+99

> <Gold.Protein.RotatedTorsions>
[ 6907 6896 6895 6894 ] final  118.53 input  -60.11 | X-H torsion
[ 7974 7965 7964 7962 ] final  129.17 input  175.53 | X-H torsion
[ 8008 7997 7996 7995 ] final  -50.74 input   59.86 | X-H torsion
[ 10167 10162 10161 10158 ] final -137.75 input  -65.29 | X-H torsion
[ 10718 10713 10712 10709 ] final  150.47 input   66.30 | X-H torsion
[ 10763 10752 10751 10750 ] final -104.65 input  -60.55 | X-H torsion
[ 11005 11000 10999 10996 ] final  101.21 input  -57.11 | X-H torsion

> <Gold.Protein.ActiveResidues>
 VAL166  LYS551  ARG553  GLY616  TRP617  ASP618  TYR619  PRO620  LYS621  CYS622 
 ASP623  PHE694  ASN695  SER759  ASP760  ASP761  ALA762  ILE779  LEU786  VAL792 
 PHE793  MET794  SER795  GLU796  ALA797  LYS798  CYS799  TRP800  GLU811  SER814 

> <Gold.Protein.RotatedAtoms>
  152.4537  133.7679  159.6782 H   0  0  0  0  0  0  0  0  0  0  0  0  # atno 6907 bound_to 6896
  150.8456  133.7857  159.3050 H   0  0  0  0  0  0  0  0  0  0  0  0  # atno 6908 bound_to 6896
  151.5468  135.1070  159.9992 H   0  0  0  0  0  0  0  0  0  0  0  0  # atno 6909 bound_to 6896
  145.0316  139.4041  143.5147 H   0  0  0  0  0  0  0  0  0  0  0  0  # atno 7974 bound_to 7965
  154.4068  140.1265  156.4715 H   0  0  0  0  0  0  0  0  0  0  0  0  # atno 8008 bound_to 7997
  155.7175  140.3493  155.4981 H   0  0  0  0  0  0  0  0  0  0  0  0  # atno 8009 bound_to 7997
  155.9245  140.1058  157.1171 H   0  0  0  0  0  0  0  0  0  0  0  0  # atno 8010 bound_to 7997
  139.8547  143.7154  152.2655 H   0  0  0  0  0  0  0  0  0  0  0  0  # atno 10167 bound_to 10162
  157.2830  131.0839  151.1517 H   0  0  0  0  0  0  0  0  0  0  0  0  # atno 10718 bound_to 10713
  154.7892  135.4778  154.0015 H   0  0  0  0  0  0  0  0  0  0  0  0  # atno 10763 bound_to 10752
  153.1606  135.6808  153.8755 H   0  0  0  0  0  0  0  0  0  0  0  0  # atno 10764 bound_to 10752
  153.8370  135.3184  155.3401 H   0  0  0  0  0  0  0  0  0  0  0  0  # atno 10765 bound_to 10752
  139.8772  134.9173  156.4872 H   0  0  0  0  0  0  0  0  0  0  0  0  # atno 11005 bound_to 11000
  146.3499  139.9869  142.8690 LP  0  0  0  0  0  0  0  0  0  0  0  0  # atno 17320 bound_to 7965
  145.1763  140.9745  143.4292 LP  0  0  0  0  0  0  0  0  0  0  0  0  # atno 17321 bound_to 7965
  139.7432  144.7554  151.0621 LP  0  0  0  0  0  0  0  0  0  0  0  0  # atno 17342 bound_to 10162
  140.7783  143.4948  150.9847 LP  0  0  0  0  0  0  0  0  0  0  0  0  # atno 17343 bound_to 10162
  157.2944  130.6812  149.6131 LP  0  0  0  0  0  0  0  0  0  0  0  0  # atno 17370 bound_to 10713
  155.9665  130.4411  150.5327 LP  0  0  0  0  0  0  0  0  0  0  0  0  # atno 17371 bound_to 10713
  140.8684  133.8006  155.9339 LP  0  0  0  0  0  0  0  0  0  0  0  0  # atno 17394 bound_to 11000
  140.8978  134.2416  157.5059 LP  0  0  0  0  0  0  0  0  0  0  0  0  # atno 17395 bound_to 11000

$$$$
