AV-unprocessed.smi:256|AV-procd|sdf|1959|dock9
  -GOLD-   2262021103D 1   1.00000     0.00000
 Structure written by MMmdl.
 62 65  0  0  0  0  0  0  0  0  2 V2000
  149.2045  130.5853  154.5676 C   0  0  0  0  0  0  0  0  0  0  0  0
  148.1165  131.5702  154.1171 C   0  0  0  0  0  0  0  0  0  0  0  0
  148.6650  132.8510  153.4330 C   0  0  2  0  0  0  0  0  0  0  0  0
  149.4904  133.7495  154.3851 C   0  0  0  0  0  0  0  0  0  0  0  0
  148.6273  134.4493  155.3364 N   0  0  0  0  0  0  0  0  0  0  0  0
  148.4583  133.9101  156.5761 C   0  0  0  0  0  0  0  0  0  0  0  0
  149.3082  132.9138  156.9395 N   0  0  0  0  0  0  0  0  0  0  0  0
  149.2060  132.3277  158.1346 C   0  0  0  0  0  0  0  0  0  0  0  0
  148.3359  132.5784  159.1115 N   0  0  0  0  0  0  0  0  0  0  0  0
  147.4754  133.5757  158.7624 C   0  0  0  0  0  0  0  0  0  0  0  0
  147.4658  134.2946  157.5308 C   0  0  0  0  0  0  0  0  0  0  0  0
  146.4338  135.2283  157.5547 N   0  0  0  0  0  0  0  0  0  0  0  0
  145.8803  135.0792  158.7259 C   0  0  0  0  0  0  0  0  0  0  0  0
  146.4354  134.0970  159.5116 N   0  0  0  0  0  0  0  0  0  0  0  0
  146.0161  133.7072  160.8494 C   0  0  0  0  0  0  0  0  0  0  0  0
  146.2287  134.8043  161.9222 C   0  0  0  0  0  0  0  0  0  0  0  0
  145.6474  134.3509  163.1327 O   0  0  0  0  0  0  0  0  0  0  0  0
  147.7347  135.0318  162.1625 C   0  0  0  0  0  0  0  0  0  0  0  0
  147.9999  136.2305  163.0902 C   0  0  0  0  0  0  0  0  0  0  0  0
  147.3807  137.3974  162.5632 O   0  0  0  0  0  0  0  0  0  0  0  0
  145.9645  137.2846  162.4944 C   0  0  0  0  0  0  0  0  0  0  0  0
  145.5680  136.1461  161.5374 C   0  0  0  0  0  0  0  0  0  0  0  0
  147.5876  135.2548  154.7078 C   0  0  0  0  0  0  0  0  0  0  0  0
  146.7405  134.4053  153.7424 C   0  0  0  0  0  0  0  0  0  0  0  0
  147.5993  133.6730  152.7737 N   0  3  2  0  0  0  0  0  0  0  0  0
  146.8006  132.9986  151.7139 C   0  0  0  0  0  0  0  0  0  0  0  0
  145.5584  132.2620  152.2532 C   0  0  0  0  0  0  0  0  0  0  0  0
  144.3506  132.9348  151.9213 O   0  0  0  0  0  0  0  0  0  0  0  0
  143.8812  132.6812  150.6062 C   0  0  0  0  0  0  0  0  0  0  0  0
  148.7566  129.6668  154.9475 H   0  0  0  0  0  0  0  0  0  0  0  0
  149.8195  130.9964  155.3677 H   0  0  0  0  0  0  0  0  0  0  0  0
  149.8612  130.3152  153.7403 H   0  0  0  0  0  0  0  0  0  0  0  0
  147.4712  131.0290  153.4268 H   0  0  0  0  0  0  0  0  0  0  0  0
  147.4920  131.8257  154.9727 H   0  0  0  0  0  0  0  0  0  0  0  0
  149.3585  132.5300  152.6566 H   0  0  0  0  0  0  0  0  0  0  0  0
  150.2849  133.1825  154.8679 H   0  0  0  0  0  0  0  0  0  0  0  0
  150.0049  134.5099  153.7961 H   0  0  0  0  0  0  0  0  0  0  0  0
  149.9227  131.5453  158.3361 H   0  0  0  0  0  0  0  0  0  0  0  0
  145.0394  135.6770  159.0466 H   0  0  0  0  0  0  0  0  0  0  0  0
  144.9649  133.4186  160.8074 H   0  0  0  0  0  0  0  0  0  0  0  0
  146.5652  132.8054  161.1237 H   0  0  0  0  0  0  0  0  0  0  0  0
  145.4823  135.0989  163.6860 H   0  0  0  0  0  0  0  0  0  0  0  0
  148.1970  134.1325  162.5720 H   0  0  0  0  0  0  0  0  0  0  0  0
  148.2281  135.2199  161.2080 H   0  0  0  0  0  0  0  0  0  0  0  0
  147.6370  136.0354  164.1004 H   0  0  0  0  0  0  0  0  0  0  0  0
  149.0723  136.4082  163.1707 H   0  0  0  0  0  0  0  0  0  0  0  0
  145.5519  137.1216  163.4910 H   0  0  0  0  0  0  0  0  0  0  0  0
  145.5559  138.2295  162.1358 H   0  0  0  0  0  0  0  0  0  0  0  0
  145.8751  136.4200  160.5274 H   0  0  0  0  0  0  0  0  0  0  0  0
  144.4818  136.0538  161.5134 H   0  0  0  0  0  0  0  0  0  0  0  0
  146.9685  135.7677  155.4426 H   0  0  0  0  0  0  0  0  0  0  0  0
  148.0823  136.0467  154.1444 H   0  0  0  0  0  0  0  0  0  0  0  0
  146.1244  133.6927  154.2905 H   0  0  0  0  0  0  0  0  0  0  0  0
  146.0533  135.0600  153.2052 H   0  0  0  0  0  0  0  0  0  0  0  0
  146.5084  133.7152  150.9466 H   0  0  0  0  0  0  0  0  0  0  0  0
  147.4408  132.2799  151.2023 H   0  0  0  0  0  0  0  0  0  0  0  0
  145.5116  131.2535  151.8429 H   0  0  0  0  0  0  0  0  0  0  0  0
  145.6337  132.1334  153.3339 H   0  0  0  0  0  0  0  0  0  0  0  0
  142.9915  133.2821  150.4177 H   0  0  0  0  0  0  0  0  0  0  0  0
  143.6064  131.6357  150.4676 H   0  0  0  0  0  0  0  0  0  0  0  0
  144.6292  132.9504  149.8593 H   0  0  0  0  0  0  0  0  0  0  0  0
  148.1072  134.3979  152.2870 H   0  0  0  0  0  0  0  0  0  0  0  0
  1  2  1  0  0  0  0
  1 30  1  0  0  0  0
  1 31  1  0  0  0  0
  1 32  1  0  0  0  0
  2  3  1  0  0  0  0
  2 33  1  0  0  0  0
  2 34  1  0  0  0  0
  3 25  1  0  0  0  0
  3  4  1  0  0  0  0
  3 35  1  0  0  0  0
  4  5  1  0  0  0  0
  4 36  1  0  0  0  0
  4 37  1  0  0  0  0
  5  6  1  0  0  0  0
  5 23  1  0  0  0  0
  6 11  1  0  0  0  0
  6  7  2  0  0  0  0
  7  8  1  0  0  0  0
  8  9  2  0  0  0  0
  8 38  1  0  0  0  0
  9 10  1  0  0  0  0
 10 14  1  0  0  0  0
 10 11  2  0  0  0  0
 11 12  1  0  0  0  0
 12 13  2  0  0  0  0
 13 14  1  0  0  0  0
 13 39  1  0  0  0  0
 14 15  1  0  0  0  0
 15 16  1  0  0  0  0
 15 40  1  0  0  0  0
 15 41  1  0  0  0  0
 16 22  1  0  0  0  0
 16 17  1  0  0  0  0
 16 18  1  0  0  0  0
 17 42  1  0  0  0  0
 18 19  1  0  0  0  0
 18 43  1  0  0  0  0
 18 44  1  0  0  0  0
 19 20  1  0  0  0  0
 19 45  1  0  0  0  0
 19 46  1  0  0  0  0
 20 21  1  0  0  0  0
 21 22  1  0  0  0  0
 21 47  1  0  0  0  0
 21 48  1  0  0  0  0
 22 49  1  0  0  0  0
 22 50  1  0  0  0  0
 23 24  1  0  0  0  0
 23 51  1  0  0  0  0
 23 52  1  0  0  0  0
 24 25  1  0  0  0  0
 24 53  1  0  0  0  0
 24 54  1  0  0  0  0
 25 26  1  0  0  0  0
 25 62  1  0  0  0  0
 26 27  1  0  0  0  0
 26 55  1  0  0  0  0
 26 56  1  0  0  0  0
 27 28  1  0  0  0  0
 27 57  1  0  0  0  0
 27 58  1  0  0  0  0
 28 29  1  0  0  0  0
 29 59  1  0  0  0  0
 29 60  1  0  0  0  0
 29 61  1  0  0  0  0
M  CHG  1  25   1
M  END
> <s_m_source_file>
AV-unprocessed.smi

> <i_m_source_file_index>
256

> <i_lp_mmshare_version>
43012

> <i_f3d_flags>
0

> <s_epik_input>
W0NIM11PW0NIMl1bQ0gyXU4xW0NIMl1bQ0gyXU4oW0NIMl1bQ0BIXTFbQ0gyXVtDSDNdKWMobltjSF1uMiljKGMyMyluW2NIXW4zW0NIMl1DNChbT0hdKVtDSDJdW0NIMl1PW0NIMl1bQ0gyXTQ=

> <s_epik_cmdline>
J2VwaWtfcHl0aG9uJywgJy1waCcsICc3LjAnLCAnLXRuJywgJzgnLCAnLW1hJywgJzIwMCcsICctbWV0YWxfYmluZGluZycsICctaW1hZScsICc8aW5maWxlLm1hZT4nLCAnLW9tYWUnLCAnPG91dGZpbGUubWFlPic=

> <r_lp_tautomer_probability>
1

> <r_epik_Ionization_Penalty>
0.233023

> <r_epik_Ionization_Penalty_Charging>
0.23295

> <r_epik_Ionization_Penalty_Neutral>
7.2493e-05

> <r_epik_State_Penalty>
0.223667

> <r_epik_Charging_Adjusted_Penalty>
0.456618

> <i_epik_Tot_Q>
1

> <i_epik_Tot_abs_Q>
1

> <r_epik_Metal_State_Penalty>
0.226879

> <b_epik_Metal_Only>
0

> <s_lp_Force_Field>
OPLS_2005

> <r_lp_Energy>
46.9359

> <b_lp_Chiralities_Consistent>
1

> <s_lp_Variant>
AV-unprocessed.smi:256-3

> <Gold.Version>
5.8.1

> <Gold.Id.Protein>
6NUR|6NUR_protein|mol2

> <Gold.PLP.Fitness>
46.2434

> <Gold.PLP.PLP>
-40.1380

> <Gold.PLP.part.hbond>
-3.9562

> <Gold.PLP.part.metal>
0.0000

> <Gold.PLP.part.buried>
-5.8333

> <Gold.PLP.part.nonpolar>
-31.2480

> <Gold.PLP.part.repulsive>
0.1441

> <Gold.PLP.ligand.clash>
0.0000

> <Gold.PLP.ligand.torsion>
0.8816

> <Gold.PLP.Chemscore.Hbond>
2.4748

> <Gold.PLP.Chemscore.CHOScore>
0.0000

> <Gold.PLP.Chemscore.Metal>
0.0000

> <Gold.Chemscore.Hbonds>
donor molecule, donor type, donor heavy atom, donor atom, acceptor molecule, acceptor atom, score
      L1  H    25    62       P1  7948  1.80
      P1  H  6931  6943       L1    20  0.58
      P1  H  6934  6947       L1    20  0.06

> <Gold.PLP.Chemscore.Internal.Correction>
0.4442

> <Gold.Rescore>
     Score         DG    S(hbond)    S(metal)    S(lipo)     H(rot)  DE(clash)    DE(int)     intcor
     10.33     -11.94       0.85        0.00      88.85       2.65       0.09       1.52       ----

> <Gold.Chemscore.Fitness>
10.3285

> <Gold.Chemscore.DG>
-11.9388

> <Gold.Chemscore.ZeroCoef>
-5.4800

> <Gold.Chemscore.Hbond>
0.8496

> <Gold.Chemscore.Metal>
0.0000

> <Gold.Chemscore.Lipo>
88.8482

> <Gold.Chemscore.Internal_Hbond>
0.0000

> <Gold.Chemscore.DEClash>
0.0880

> <Gold.Chemscore.DEInternal>
1.5222

> <Gold.Chemscore.Rot>
2.6462

> <Gold.Chemscore.Internal.Correction>
   9.000000E+99

> <Gold.Chemscore.Hbonds>
donor molecule, donor type, donor heavy atom, donor atom, acceptor molecule, acceptor atom, score
      L1  H    25    62       P1  7948  0.17
      P1  H  6931  6943       L1    20  0.10

> <Gold.Chemscore.Hbond.Weighted>
-2.8377

> <Gold.Chemscore.Metal.Weighted>
-0.0000

> <Gold.Chemscore.Lipo.Weighted>
-10.3952

> <Gold.Chemscore.Internal_Hbond.Weighted>
0.0000

> <Gold.Chemscore.DEClash.Weighted>
0.0880

> <Gold.Chemscore.DEInternal.Weighted>
1.5222

> <Gold.Chemscore.Rot.Weighted>
6.7742

> <Gold.Chemscore.Internal.Correction.Weighted>
   9.000000E+99

> <Gold.Protein.RotatedTorsions>
[ 6907 6896 6895 6894 ] final  -76.70 input  -60.11 | X-H torsion
[ 7974 7965 7964 7962 ] final  -29.42 input  175.53 | X-H torsion
[ 8008 7997 7996 7995 ] final -105.86 input   59.86 | X-H torsion
[ 10167 10162 10161 10158 ] final  164.18 input  -65.29 | X-H torsion
[ 10718 10713 10712 10709 ] final   27.20 input   66.30 | X-H torsion
[ 10763 10752 10751 10750 ] final   58.75 input  -60.55 | X-H torsion
[ 11005 11000 10999 10996 ] final  -41.36 input  -57.11 | X-H torsion

> <Gold.Protein.ActiveResidues>
 VAL166  LYS551  ARG553  GLY616  TRP617  ASP618  TYR619  PRO620  LYS621  CYS622 
 ASP623  PHE694  ASN695  SER759  ASP760  ASP761  ALA762  ILE779  LEU786  VAL792 
 PHE793  MET794  SER795  GLU796  ALA797  LYS798  CYS799  TRP800  GLU811  SER814 

> <Gold.Protein.RotatedAtoms>
  150.7020  134.4533  159.5346 H   0  0  0  0  0  0  0  0  0  0  0  0  # atno 6907 bound_to 6896
  152.2221  134.8400  160.0493 H   0  0  0  0  0  0  0  0  0  0  0  0  # atno 6908 bound_to 6896
  151.9246  133.3560  159.3946 H   0  0  0  0  0  0  0  0  0  0  0  0  # atno 6909 bound_to 6896
  146.1217  140.5410  142.8732 H   0  0  0  0  0  0  0  0  0  0  0  0  # atno 7974 bound_to 7965
  154.9061  140.0411  157.1920 H   0  0  0  0  0  0  0  0  0  0  0  0  # atno 8008 bound_to 7997
  154.8395  140.2912  155.5647 H   0  0  0  0  0  0  0  0  0  0  0  0  # atno 8009 bound_to 7997
  156.2991  140.2485  156.3335 H   0  0  0  0  0  0  0  0  0  0  0  0  # atno 8010 bound_to 7997
  139.4885  144.4261  151.9127 H   0  0  0  0  0  0  0  0  0  0  0  0  # atno 10167 bound_to 10162
  157.2170  130.6961  149.6253 H   0  0  0  0  0  0  0  0  0  0  0  0  # atno 10718 bound_to 10713
  152.9878  135.5596  154.5602 H   0  0  0  0  0  0  0  0  0  0  0  0  # atno 10763 bound_to 10752
  154.5023  135.2798  155.1413 H   0  0  0  0  0  0  0  0  0  0  0  0  # atno 10764 bound_to 10752
  154.2838  135.6339  153.5411 H   0  0  0  0  0  0  0  0  0  0  0  0  # atno 10765 bound_to 10752
  141.0240  133.6850  156.2447 H   0  0  0  0  0  0  0  0  0  0  0  0  # atno 11005 bound_to 11000
  144.7604  140.5407  143.6740 LP  0  0  0  0  0  0  0  0  0  0  0  0  # atno 17320 bound_to 7965
  145.5451  139.1476  143.3425 LP  0  0  0  0  0  0  0  0  0  0  0  0  # atno 17321 bound_to 7965
  140.3707  144.2858  150.5920 LP  0  0  0  0  0  0  0  0  0  0  0  0  # atno 17342 bound_to 10162
  140.5321  143.2241  151.8222 LP  0  0  0  0  0  0  0  0  0  0  0  0  # atno 17343 bound_to 10162
  155.9685  130.4532  150.5804 LP  0  0  0  0  0  0  0  0  0  0  0  0  # atno 17370 bound_to 10713
  157.3615  131.0750  151.1633 LP  0  0  0  0  0  0  0  0  0  0  0  0  # atno 17371 bound_to 10713
  140.6523  134.5054  157.5578 LP  0  0  0  0  0  0  0  0  0  0  0  0  # atno 17394 bound_to 11000
  139.9164  134.8237  156.1352 LP  0  0  0  0  0  0  0  0  0  0  0  0  # atno 17395 bound_to 11000

$$$$
