AV-unprocessed.smi:54|AV-procd|sdf|542|dock5
  -GOLD-   2262016433D 1   1.00000     0.00000
 Structure written by MMmdl.
 44 46  0  0  0  0  0  0  0  0  1 V2000
  146.2506  130.7681  151.9194 C   0  0  0  0  0  0  0  0  0  0  0  0
  146.1524  132.1881  152.4997 C   0  0  0  0  0  0  0  0  0  0  0  0
  145.9226  133.2291  151.3921 C   0  0  0  0  0  0  0  0  0  0  0  0
  147.4096  132.5248  153.3097 C   0  0  0  0  0  0  0  0  0  0  0  0
  148.3755  131.7623  153.3636 O   0  0  0  0  0  0  0  0  0  0  0  0
  147.3745  133.7943  154.0143 N   0  0  0  0  0  0  0  0  0  0  0  0
  148.3358  134.3175  154.8101 C   0  0  0  0  0  0  0  0  0  0  0  0
  148.9252  135.4790  154.5644 N   0  0  0  0  0  0  0  0  0  0  0  0
  149.8778  135.8379  155.4766 C   0  0  0  0  0  0  0  0  0  0  0  0
  150.2533  135.1271  156.5967 C   0  0  0  0  0  0  0  0  0  0  0  0
  151.2488  135.8111  157.2847 N   0  0  0  0  0  0  0  0  0  0  0  0
  151.4403  136.8898  156.5772 C   0  0  0  0  0  0  0  0  0  0  0  0
  150.6553  136.9756  155.4499 N   0  0  0  0  0  0  0  0  0  0  0  0
  150.5775  138.0574  154.4158 C   0  0  1  0  0  0  0  0  0  0  0  0
  149.3703  137.9177  153.7285 O   0  0  0  0  0  0  0  0  0  0  0  0
  148.3936  138.7738  154.3110 C   0  0  2  0  0  0  0  0  0  0  0  0
  147.1914  138.9717  153.3717 C   0  0  0  0  0  0  0  0  0  0  0  0
  147.5880  138.7616  152.0335 O   0  0  0  0  0  0  0  0  0  0  0  0
  149.2208  140.0299  154.6097 C   0  0  2  0  0  0  0  0  0  0  0  0
  149.3724  140.8152  153.4379 O   0  0  0  0  0  0  0  0  0  0  0  0
  150.5435  139.4392  155.0988 C   0  0  2  0  0  0  0  0  0  0  0  0
  151.6591  140.2511  154.7827 O   0  0  0  0  0  0  0  0  0  0  0  0
  149.6145  133.8753  156.8854 C   0  0  0  0  0  0  0  0  0  0  0  0
  149.8166  133.1167  157.8311 O   0  0  0  0  0  0  0  0  0  0  0  0
  148.6518  133.5394  155.9241 N   0  0  0  0  0  0  0  0  0  0  0  0
  151.4343  137.8842  153.7632 H   0  0  0  0  0  0  0  0  0  0  0  0
  148.0600  138.3490  155.2601 H   0  0  0  0  0  0  0  0  0  0  0  0
  148.7519  140.6497  155.3747 H   0  0  0  0  0  0  0  0  0  0  0  0
  150.4994  139.3102  156.1816 H   0  0  0  0  0  0  0  0  0  0  0  0
  146.4140  130.0291  152.7049 H   0  0  0  0  0  0  0  0  0  0  0  0
  147.0705  130.6815  151.2050 H   0  0  0  0  0  0  0  0  0  0  0  0
  145.3312  130.4951  151.4010 H   0  0  0  0  0  0  0  0  0  0  0  0
  145.2947  132.2192  153.1732 H   0  0  0  0  0  0  0  0  0  0  0  0
  145.8639  134.2385  151.8013 H   0  0  0  0  0  0  0  0  0  0  0  0
  144.9880  133.0359  150.8652 H   0  0  0  0  0  0  0  0  0  0  0  0
  146.7256  133.2147  150.6538 H   0  0  0  0  0  0  0  0  0  0  0  0
  146.5217  134.3263  153.9237 H   0  0  0  0  0  0  0  0  0  0  0  0
  152.1591  137.6442  156.8623 H   0  0  0  0  0  0  0  0  0  0  0  0
  146.4130  138.2433  153.6004 H   0  0  0  0  0  0  0  0  0  0  0  0
  146.7535  139.9640  153.4840 H   0  0  0  0  0  0  0  0  0  0  0  0
  148.4287  139.1733  151.9037 H   0  0  0  0  0  0  0  0  0  0  0  0
  149.2965  140.2452  152.6874 H   0  0  0  0  0  0  0  0  0  0  0  0
  152.4470  139.7726  154.9945 H   0  0  0  0  0  0  0  0  0  0  0  0
  148.1648  132.6658  156.0608 H   0  0  0  0  0  0  0  0  0  0  0  0
  1  2  1  0  0  0  0
  1 30  1  0  0  0  0
  1 31  1  0  0  0  0
  1 32  1  0  0  0  0
  2  3  1  0  0  0  0
  2  4  1  0  0  0  0
  2 33  1  0  0  0  0
  3 34  1  0  0  0  0
  3 35  1  0  0  0  0
  3 36  1  0  0  0  0
  4  5  2  0  0  0  0
  4  6  1  0  0  0  0
  6 37  1  0  0  0  0
  6  7  1  0  0  0  0
  7 25  1  0  0  0  0
  7  8  2  0  0  0  0
  8  9  1  0  0  0  0
  9 13  1  0  0  0  0
  9 10  2  0  0  0  0
 10 11  1  0  0  0  0
 10 23  1  0  0  0  0
 11 12  2  0  0  0  0
 12 13  1  0  0  0  0
 12 38  1  0  0  0  0
 13 14  1  0  0  0  0
 14 26  1  0  0  0  0
 14 21  1  0  0  0  0
 14 15  1  0  0  0  0
 15 16  1  0  0  0  0
 16 27  1  0  0  0  0
 16 17  1  0  0  0  0
 16 19  1  0  0  0  0
 17 18  1  0  0  0  0
 17 39  1  0  0  0  0
 17 40  1  0  0  0  0
 18 41  1  0  0  0  0
 19 28  1  0  0  0  0
 19 20  1  0  0  0  0
 19 21  1  0  0  0  0
 20 42  1  0  0  0  0
 21 29  1  0  0  0  0
 21 22  1  0  0  0  0
 22 43  1  0  0  0  0
 23 24  2  0  0  0  0
 23 25  1  0  0  0  0
 25 44  1  0  0  0  0
M  END
> <s_m_source_file>
AV-unprocessed.smi

> <i_m_source_file_index>
54

> <i_lp_mmshare_version>
43012

> <i_f3d_flags>
0

> <s_epik_input>
W0NIM11bQ0hdKFtDSDNdKUMoPU8pW05IXWMobjEpW25IXWMoPU8pYyhjMTIpbltjSF1uMltDQEBIXTNPW0NASF0oW0NIMl1bT0hdKVtDQEBIXShbT0hdKVtDQEhdM1tPSF0=

> <s_epik_cmdline>
J2VwaWtfcHl0aG9uJywgJy1waCcsICc3LjAnLCAnLXRuJywgJzgnLCAnLW1hJywgJzIwMCcsICctbWV0YWxfYmluZGluZycsICctaW1hZScsICc8aW5maWxlLm1hZT4nLCAnLW9tYWUnLCAnPG91dGZpbGUubWFlPic=

> <r_lp_tautomer_probability>
0.85571

> <r_epik_Ionization_Penalty>
0.0316551

> <r_epik_Ionization_Penalty_Charging>
0.0316043

> <r_epik_Ionization_Penalty_Neutral>
5.07097e-05

> <r_epik_State_Penalty>
3.15494e-07

> <r_epik_Charging_Adjusted_Penalty>
0.0316047

> <i_epik_Tot_Q>
0

> <i_epik_Tot_abs_Q>
0

> <r_epik_Metal_State_Penalty>
0.421206

> <b_epik_Metal_Only>
0

> <s_epik_Chemistry_Notes>
This compound contains an acetal/aminal-like group ( X-CH(R)-Y where X, Y are N, S, or O) that may be acid/base labile, releasing an aldehyde.

> <s_lp_Force_Field>
OPLS_2005

> <r_lp_Energy>
43.5631

> <b_lp_Chiralities_Consistent>
1

> <s_lp_Variant>
AV-unprocessed.smi:54-14

> <Gold.Version>
5.8.1

> <Gold.Id.Protein>
6NUR|6NUR_protein|mol2

> <Gold.PLP.Fitness>
40.5896

> <Gold.PLP.PLP>
-29.5294

> <Gold.PLP.part.hbond>
-7.3844

> <Gold.PLP.part.metal>
0.0000

> <Gold.PLP.part.buried>
-7.1491

> <Gold.PLP.part.nonpolar>
-20.3345

> <Gold.PLP.part.repulsive>
5.6528

> <Gold.PLP.ligand.clash>
0.0000

> <Gold.PLP.ligand.torsion>
1.4333

> <Gold.PLP.Chemscore.Hbond>
4.6273

> <Gold.PLP.Chemscore.CHOScore>
0.0000

> <Gold.PLP.Chemscore.Metal>
0.0000

> <Gold.Chemscore.Hbonds>
donor molecule, donor type, donor heavy atom, donor atom, acceptor molecule, acceptor atom, score
      L1  H    18    41       P1  7957  1.00
      L1  H    20    42       P1  7957  0.93
      P1  H  6896  6909       L1    24  1.00
      P1  H  7989  7998       L1    22  0.70
      P1  H  8011  8017       L1    20  0.65

> <Gold.PLP.Chemscore.Internal.Correction>
0.0449

> <Gold.Rescore>
     Score         DG    S(hbond)    S(metal)    S(lipo)     H(rot)  DE(clash)    DE(int)     intcor
      7.29     -12.38       3.61        0.00      44.63       4.05       2.12       2.97       ----

> <Gold.Chemscore.Fitness>
7.2891

> <Gold.Chemscore.DG>
-12.3838

> <Gold.Chemscore.ZeroCoef>
-5.4800

> <Gold.Chemscore.Hbond>
3.6074

> <Gold.Chemscore.Metal>
0.0000

> <Gold.Chemscore.Lipo>
44.6255

> <Gold.Chemscore.Internal_Hbond>
0.0000

> <Gold.Chemscore.DEClash>
2.1199

> <Gold.Chemscore.DEInternal>
2.9748

> <Gold.Chemscore.Rot>
4.0493

> <Gold.Chemscore.Internal.Correction>
   9.000000E+99

> <Gold.Chemscore.Hbonds>
donor molecule, donor type, donor heavy atom, donor atom, acceptor molecule, acceptor atom, score
      L1  H    18    41       P1  7957  0.97
      L1  H    20    42       P1  7957  0.87
      P1  H  6896  6909       L1    24  0.99
      P1  H  7989  7998       L1    22  0.57
      P1  H  8011  8017       L1    20  0.05

> <Gold.Chemscore.Hbond.Weighted>
-12.0488

> <Gold.Chemscore.Metal.Weighted>
-0.0000

> <Gold.Chemscore.Lipo.Weighted>
-5.2212

> <Gold.Chemscore.Internal_Hbond.Weighted>
0.0000

> <Gold.Chemscore.DEClash.Weighted>
2.1199

> <Gold.Chemscore.DEInternal.Weighted>
2.9748

> <Gold.Chemscore.Rot.Weighted>
10.3662

> <Gold.Chemscore.Internal.Correction.Weighted>
   9.000000E+99

> <Gold.Protein.RotatedTorsions>
[ 6907 6896 6895 6894 ] final  -17.44 input  -60.11 | X-H torsion
[ 7974 7965 7964 7962 ] final   56.26 input  175.53 | X-H torsion
[ 8008 7997 7996 7995 ] final  -61.14 input   59.86 | X-H torsion
[ 10167 10162 10161 10158 ] final   88.53 input  -65.29 | X-H torsion
[ 10718 10713 10712 10709 ] final   81.66 input   66.30 | X-H torsion
[ 10763 10752 10751 10750 ] final -128.30 input  -60.55 | X-H torsion
[ 11005 11000 10999 10996 ] final  131.44 input  -57.11 | X-H torsion

> <Gold.Protein.ActiveResidues>
 VAL166  LYS551  ARG553  GLY616  TRP617  ASP618  TYR619  PRO620  LYS621  CYS622 
 ASP623  PHE694  ASN695  SER759  ASP760  ASP761  ALA762  ILE779  LEU786  VAL792 
 PHE793  MET794  SER795  GLU796  ALA797  LYS798  CYS799  TRP800  GLU811  SER814 

> <Gold.Protein.RotatedAtoms>
  151.2933  135.0748  159.9211 H   0  0  0  0  0  0  0  0  0  0  0  0  # atno 6907 bound_to 6896
  152.5312  133.9909  159.7860 H   0  0  0  0  0  0  0  0  0  0  0  0  # atno 6908 bound_to 6896
  151.0183  133.5849  159.2705 H   0  0  0  0  0  0  0  0  0  0  0  0  # atno 6909 bound_to 6896
  145.9417  139.3894  143.0360 H   0  0  0  0  0  0  0  0  0  0  0  0  # atno 7974 bound_to 7965
  154.4433  140.1024  156.6384 H   0  0  0  0  0  0  0  0  0  0  0  0  # atno 8008 bound_to 7997
  155.5529  140.3486  155.4454 H   0  0  0  0  0  0  0  0  0  0  0  0  # atno 8009 bound_to 7997
  156.0516  140.1305  157.0033 H   0  0  0  0  0  0  0  0  0  0  0  0  # atno 8010 bound_to 7997
  139.8663  144.6517  150.9000 H   0  0  0  0  0  0  0  0  0  0  0  0  # atno 10167 bound_to 10162
  157.6838  131.0014  150.2260 H   0  0  0  0  0  0  0  0  0  0  0  0  # atno 10718 bound_to 10713
  154.8756  135.3933  154.3734 H   0  0  0  0  0  0  0  0  0  0  0  0  # atno 10763 bound_to 10752
  153.4490  135.7028  153.6126 H   0  0  0  0  0  0  0  0  0  0  0  0  # atno 10764 bound_to 10752
  153.4674  135.3798  155.2341 H   0  0  0  0  0  0  0  0  0  0  0  0  # atno 10765 bound_to 10752
  139.9730  134.9572  156.9439 H   0  0  0  0  0  0  0  0  0  0  0  0  # atno 11005 bound_to 11000
  145.8291  140.9640  143.0858 LP  0  0  0  0  0  0  0  0  0  0  0  0  # atno 17320 bound_to 7965
  144.6780  140.0139  143.7484 LP  0  0  0  0  0  0  0  0  0  0  0  0  # atno 17321 bound_to 7965
  140.7767  143.3701  151.1665 LP  0  0  0  0  0  0  0  0  0  0  0  0  # atno 17342 bound_to 10162
  139.7326  143.9049  152.3024 LP  0  0  0  0  0  0  0  0  0  0  0  0  # atno 17343 bound_to 10162
  156.2902  130.3744  149.7849 LP  0  0  0  0  0  0  0  0  0  0  0  0  # atno 17370 bound_to 10713
  156.5511  130.8342  151.3300 LP  0  0  0  0  0  0  0  0  0  0  0  0  # atno 17371 bound_to 10713
  140.5252  134.0867  155.7302 LP  0  0  0  0  0  0  0  0  0  0  0  0  # atno 17394 bound_to 11000
  141.1409  133.9139  157.2327 LP  0  0  0  0  0  0  0  0  0  0  0  0  # atno 17395 bound_to 11000

$$$$
