AV-unprocessed.smi:2855|AV-procd|sdf|10977|dock8
  -GOLD-   2272015433D 1   1.00000     0.00000
 Structure written by MMmdl.
 47 48  0  0  0  0  0  0  0  0  1 V2000
  148.4021  141.6858  154.3012 C   0  0  0  0  0  0  0  0  0  0  0  0
  149.1617  140.6935  155.1932 C   0  0  2  0  0  0  0  0  0  0  0  0
  149.8484  141.4049  156.3694 C   0  0  0  0  0  0  0  0  0  0  0  0
  150.6118  140.4174  157.2661 C   0  0  0  0  0  0  0  0  0  0  0  0
  151.6668  139.5963  156.4823 C   0  0  1  0  0  0  0  0  0  0  0  0
  152.4614  138.6162  157.4018 C   0  0  0  0  0  0  0  0  0  0  0  0
  153.1396  139.3339  158.5848 C   0  0  0  0  0  0  0  0  0  0  0  0
  153.5288  137.8101  156.6360 C   0  0  0  0  0  0  0  0  0  0  0  0
  150.9956  138.9030  155.2622 C   0  0  1  0  0  0  0  0  0  0  0  0
  150.1418  137.7968  155.6948 N   0  0  0  0  0  0  0  0  0  0  0  0
  150.4500  136.4933  155.6282 C   0  0  0  0  0  0  0  0  0  0  0  0
  151.4847  136.0646  155.1163 O   0  0  0  0  0  0  0  0  0  0  0  0
  149.4241  135.5239  156.2279 C   0  0  0  0  0  0  0  0  0  0  0  0
  149.5369  134.1765  155.6524 N   0  0  0  0  0  0  0  0  0  0  0  0
  149.2043  133.9484  154.3246 C   0  0  0  0  0  0  0  0  0  0  0  0
  149.2964  132.7346  153.7312 C   0  0  0  0  0  0  0  0  0  0  0  0
  149.7652  131.5770  154.4855 C   0  0  0  0  0  0  0  0  0  0  0  0
  149.8821  130.4388  154.0373 O   0  0  0  0  0  0  0  0  0  0  0  0
  150.0921  131.8472  155.8171 N   0  0  0  0  0  0  0  0  0  0  0  0
  150.0003  133.0954  156.4348 C   0  0  0  0  0  0  0  0  0  0  0  0
  150.3182  133.2256  157.6168 O   0  0  0  0  0  0  0  0  0  0  0  0
  150.2006  139.8935  154.3876 C   0  0  0  0  0  0  0  0  0  0  0  0
  150.4241  131.0763  156.3781 H   0  0  0  0  0  0  0  0  0  0  0  0
  149.0764  142.4216  153.8621 H   0  0  0  0  0  0  0  0  0  0  0  0
  147.6455  142.2259  154.8709 H   0  0  0  0  0  0  0  0  0  0  0  0
  147.8945  141.1711  153.4850 H   0  0  0  0  0  0  0  0  0  0  0  0
  148.4295  139.9947  155.6000 H   0  0  0  0  0  0  0  0  0  0  0  0
  150.5397  142.1600  155.9922 H   0  0  0  0  0  0  0  0  0  0  0  0
  149.1065  141.9376  156.9654 H   0  0  0  0  0  0  0  0  0  0  0  0
  151.0837  140.9927  158.0609 H   0  0  0  0  0  0  0  0  0  0  0  0
  149.9048  139.7451  157.7538 H   0  0  0  0  0  0  0  0  0  0  0  0
  152.3874  140.3094  156.0786 H   0  0  0  0  0  0  0  0  0  0  0  0
  151.7613  137.8964  157.8278 H   0  0  0  0  0  0  0  0  0  0  0  0
  153.7850  140.1427  158.2410 H   0  0  0  0  0  0  0  0  0  0  0  0
  153.7556  138.6437  159.1620 H   0  0  0  0  0  0  0  0  0  0  0  0
  152.4139  139.7521  159.2812 H   0  0  0  0  0  0  0  0  0  0  0  0
  154.2272  138.4684  156.1185 H   0  0  0  0  0  0  0  0  0  0  0  0
  153.0869  137.1403  155.8993 H   0  0  0  0  0  0  0  0  0  0  0  0
  154.1071  137.1814  157.3135 H   0  0  0  0  0  0  0  0  0  0  0  0
  151.7894  138.5079  154.6270 H   0  0  0  0  0  0  0  0  0  0  0  0
  149.2628  138.0491  156.1229 H   0  0  0  0  0  0  0  0  0  0  0  0
  149.5305  135.4739  157.3138 H   0  0  0  0  0  0  0  0  0  0  0  0
  148.4290  135.9355  156.0539 H   0  0  0  0  0  0  0  0  0  0  0  0
  148.8564  134.7777  153.7251 H   0  0  0  0  0  0  0  0  0  0  0  0
  149.0234  132.6198  152.6922 H   0  0  0  0  0  0  0  0  0  0  0  0
  149.7115  139.3593  153.5718 H   0  0  0  0  0  0  0  0  0  0  0  0
  150.8990  140.5865  153.9164 H   0  0  0  0  0  0  0  0  0  0  0  0
  1  2  1  0  0  0  0
  1 24  1  0  0  0  0
  1 25  1  0  0  0  0
  1 26  1  0  0  0  0
  2 22  1  0  0  0  0
  2  3  1  0  0  0  0
  2 27  1  0  0  0  0
  3  4  1  0  0  0  0
  3 28  1  0  0  0  0
  3 29  1  0  0  0  0
  4  5  1  0  0  0  0
  4 30  1  0  0  0  0
  4 31  1  0  0  0  0
  5  6  1  0  0  0  0
  5  9  1  0  0  0  0
  5 32  1  0  0  0  0
  6  7  1  0  0  0  0
  6  8  1  0  0  0  0
  6 33  1  0  0  0  0
  7 34  1  0  0  0  0
  7 35  1  0  0  0  0
  7 36  1  0  0  0  0
  8 37  1  0  0  0  0
  8 38  1  0  0  0  0
  8 39  1  0  0  0  0
  9 10  1  0  0  0  0
  9 22  1  0  0  0  0
  9 40  1  0  0  0  0
 10 11  1  0  0  0  0
 10 41  1  0  0  0  0
 11 12  2  0  0  0  0
 11 13  1  0  0  0  0
 13 14  1  0  0  0  0
 13 42  1  0  0  0  0
 13 43  1  0  0  0  0
 14 20  1  0  0  0  0
 14 15  1  0  0  0  0
 15 16  2  0  0  0  0
 15 44  1  0  0  0  0
 16 17  1  0  0  0  0
 16 45  1  0  0  0  0
 17 18  2  0  0  0  0
 17 19  1  0  0  0  0
 19 23  1  0  0  0  0
 19 20  1  0  0  0  0
 20 21  2  0  0  0  0
 22 46  1  0  0  0  0
 22 47  1  0  0  0  0
M  END
> <s_m_source_file>
AV-unprocessed.smi

> <i_m_source_file_index>
2855

> <i_lp_mmshare_version>
43012

> <i_f3d_flags>
0

> <s_epik_input>
W0NIM11bQ0BASF0xW0NIMl1bQ0gyXVtDQEBIXShbQ0hdKFtDSDNdKVtDSDNdKVtDQEhdKFtDSDJdMSlbTkhdQyg9TylbQ0gyXW4yW2NIXVtjSF1jKD1PKVtuSF1jMj1P

> <s_epik_cmdline>
J2VwaWtfcHl0aG9uJywgJy1waCcsICc3LjAnLCAnLXRuJywgJzgnLCAnLW1hJywgJzIwMCcsICctbWV0YWxfYmluZGluZycsICctaW1hZScsICc8aW5maWxlLm1hZT4nLCAnLW9tYWUnLCAnPG91dGZpbGUubWFlPic=

> <r_lp_tautomer_probability>
0.999537

> <r_epik_Ionization_Penalty>
0.00306256

> <r_epik_Ionization_Penalty_Charging>
0.00306254

> <r_epik_Ionization_Penalty_Neutral>
2.0223e-08

> <r_epik_State_Penalty>
0.0021533

> <r_epik_Charging_Adjusted_Penalty>
0.00521583

> <i_epik_Tot_Q>
0

> <i_epik_Tot_abs_Q>
0

> <r_epik_Metal_State_Penalty>
0.362116

> <b_epik_Metal_Only>
0

> <s_lp_Force_Field>
OPLS_2005

> <r_lp_Energy>
12.8991

> <b_lp_Chiralities_Consistent>
1

> <s_lp_Variant>
AV-unprocessed.smi:2855-1

> <Gold.Version>
5.8.1

> <Gold.Id.Protein>
6NUR|6NUR_protein|mol2

> <Gold.PLP.Fitness>
39.9666

> <Gold.PLP.PLP>
-32.1056

> <Gold.PLP.part.hbond>
-2.0000

> <Gold.PLP.part.metal>
0.0000

> <Gold.PLP.part.buried>
-1.0892

> <Gold.PLP.part.nonpolar>
-29.0433

> <Gold.PLP.part.repulsive>
0.2305

> <Gold.PLP.ligand.clash>
0.0000

> <Gold.PLP.ligand.torsion>
0.5929

> <Gold.PLP.Chemscore.Hbond>
2.0000

> <Gold.PLP.Chemscore.CHOScore>
1.0000

> <Gold.PLP.Chemscore.Metal>
0.0000

> <Gold.Chemscore.Hbonds>
donor molecule, donor type, donor heavy atom, donor atom, acceptor molecule, acceptor atom, score
      P1  H  6896  6909       L1    21  1.00
      P1  H 10752 10765       L1    12  1.00
      L1  C    15    44       P1  7948  1.00

> <Gold.PLP.Chemscore.Internal.Correction>
0.0468

> <Gold.Rescore>
     Score         DG    S(hbond)    S(metal)    S(lipo)     H(rot)  DE(clash)    DE(int)     intcor
     15.27     -15.99       2.00        0.00      73.30       1.85       0.28       0.44       ----

> <Gold.Chemscore.Fitness>
15.2657

> <Gold.Chemscore.DG>
-15.9856

> <Gold.Chemscore.ZeroCoef>
-5.4800

> <Gold.Chemscore.Hbond>
1.9985

> <Gold.Chemscore.Metal>
0.0000

> <Gold.Chemscore.Lipo>
73.3045

> <Gold.Chemscore.Internal_Hbond>
0.0000

> <Gold.Chemscore.DEClash>
0.2753

> <Gold.Chemscore.DEInternal>
0.4447

> <Gold.Chemscore.Rot>
1.8539

> <Gold.Chemscore.Internal.Correction>
   9.000000E+99

> <Gold.Chemscore.Hbonds>
donor molecule, donor type, donor heavy atom, donor atom, acceptor molecule, acceptor atom, score
      P1  H  6896  6909       L1    21  0.99
      P1  H 10752 10765       L1    12  0.99

> <Gold.Chemscore.Hbond.Weighted>
-6.6750

> <Gold.Chemscore.Metal.Weighted>
-0.0000

> <Gold.Chemscore.Lipo.Weighted>
-8.5766

> <Gold.Chemscore.Internal_Hbond.Weighted>
0.0000

> <Gold.Chemscore.DEClash.Weighted>
0.2753

> <Gold.Chemscore.DEInternal.Weighted>
0.4447

> <Gold.Chemscore.Rot.Weighted>
4.7460

> <Gold.Chemscore.Internal.Correction.Weighted>
   9.000000E+99

> <Gold.Protein.RotatedTorsions>
[ 6907 6896 6895 6894 ] final  -13.50 input  -60.11 | X-H torsion
[ 7974 7965 7964 7962 ] final  -53.66 input  175.53 | X-H torsion
[ 8008 7997 7996 7995 ] final  106.59 input   59.86 | X-H torsion
[ 10167 10162 10161 10158 ] final -173.70 input  -65.29 | X-H torsion
[ 10718 10713 10712 10709 ] final  -92.37 input   66.30 | X-H torsion
[ 10763 10752 10751 10750 ] final -176.64 input  -60.55 | X-H torsion
[ 11005 11000 10999 10996 ] final   41.65 input  -57.11 | X-H torsion

> <Gold.Protein.ActiveResidues>
 VAL166  LYS551  ARG553  GLY616  TRP617  ASP618  TYR619  PRO620  LYS621  CYS622 
 ASP623  PHE694  ASN695  SER759  ASP760  ASP761  ALA762  ILE779  LEU786  VAL792 
 PHE793  MET794  SER795  GLU796  ALA797  LYS798  CYS799  TRP800  GLU811  SER814 

> <Gold.Protein.RotatedAtoms>
  151.3540  135.0890  159.9412 H   0  0  0  0  0  0  0  0  0  0  0  0  # atno 6907 bound_to 6896
  152.5180  133.9324  159.7597 H   0  0  0  0  0  0  0  0  0  0  0  0  # atno 6908 bound_to 6896
  150.9705  133.6295  159.2768 H   0  0  0  0  0  0  0  0  0  0  0  0  # atno 6909 bound_to 6896
  145.8944  140.8045  142.9775 H   0  0  0  0  0  0  0  0  0  0  0  0  # atno 7974 bound_to 7965
  156.1755  140.3110  155.9051 H   0  0  0  0  0  0  0  0  0  0  0  0  # atno 8008 bound_to 7997
  155.3496  140.0470  157.3063 H   0  0  0  0  0  0  0  0  0  0  0  0  # atno 8009 bound_to 7997
  154.5286  140.2223  155.8856 H   0  0  0  0  0  0  0  0  0  0  0  0  # atno 8010 bound_to 7997
  139.5674  144.1723  152.1333 H   0  0  0  0  0  0  0  0  0  0  0  0  # atno 10167 bound_to 10162
  156.0002  130.4984  150.5615 H   0  0  0  0  0  0  0  0  0  0  0  0  # atno 10718 bound_to 10713
  154.5698  135.2827  155.0838 H   0  0  0  0  0  0  0  0  0  0  0  0  # atno 10763 bound_to 10752
  154.2215  135.6390  153.5150 H   0  0  0  0  0  0  0  0  0  0  0  0  # atno 10764 bound_to 10752
  153.0054  135.5515  154.6318 H   0  0  0  0  0  0  0  0  0  0  0  0  # atno 10765 bound_to 10752
  140.1814  134.4099  155.8198 H   0  0  0  0  0  0  0  0  0  0  0  0  # atno 11005 bound_to 11000
  144.6732  140.1579  143.7425 LP  0  0  0  0  0  0  0  0  0  0  0  0  # atno 17320 bound_to 7965
  145.8869  139.2354  143.1572 LP  0  0  0  0  0  0  0  0  0  0  0  0  # atno 17321 bound_to 7965
  140.1249  144.5340  150.6839 LP  0  0  0  0  0  0  0  0  0  0  0  0  # atno 17342 bound_to 10162
  140.6958  143.2403  151.5006 LP  0  0  0  0  0  0  0  0  0  0  0  0  # atno 17343 bound_to 10162
  157.3524  131.0736  151.1702 LP  0  0  0  0  0  0  0  0  0  0  0  0  # atno 17370 bound_to 10713
  157.2515  130.6616  149.5933 LP  0  0  0  0  0  0  0  0  0  0  0  0  # atno 17371 bound_to 10713
  141.2223  133.7002  156.7937 LP  0  0  0  0  0  0  0  0  0  0  0  0  # atno 17394 bound_to 11000
  140.2263  134.8719  157.3430 LP  0  0  0  0  0  0  0  0  0  0  0  0  # atno 17395 bound_to 11000

$$$$
