AV-unprocessed.smi:78|AV-procd|sdf|776|dock7
  -GOLD-   2262017133D 1   1.00000     0.00000
 Structure written by MMmdl.
 56 59  0  0  0  0  0  0  0  0  1 V2000
  152.6504  138.5487  154.0367 C   0  0  0  0  0  0  0  0  0  0  0  0
  151.6142  139.5324  154.6052 C   0  0  0  0  0  0  0  0  0  0  0  0
  152.1416  140.1811  155.8936 C   0  0  0  0  0  0  0  0  0  0  0  0
  150.2402  138.8674  154.8575 C   0  0  0  0  0  0  0  0  0  0  0  0
  149.0681  139.8399  155.1735 C   0  0  1  0  0  0  0  0  0  0  0  0
  148.6331  140.7177  153.9784 C   0  0  0  0  0  0  0  0  0  0  0  0
  149.4352  141.0110  153.0938 O   0  0  0  0  0  0  0  0  0  0  0  0
  147.3638  141.1621  153.9492 N   0  0  0  0  0  0  0  0  0  0  0  0
  146.3229  140.8543  154.9339 C   0  0  0  0  0  0  0  0  0  0  0  0
  146.8514  140.1260  156.1890 C   0  0  0  0  0  0  0  0  0  0  0  0
  147.9257  139.1990  155.8463 N   0  0  0  0  0  0  0  0  0  0  0  0
  147.4515  138.0052  155.4048 C   0  0  0  0  0  0  0  0  0  0  0  0
  147.5200  136.8949  156.1862 N   0  0  0  0  0  0  0  0  0  0  0  0
  147.0633  135.7244  155.7315 C   0  0  0  0  0  0  0  0  0  0  0  0
  146.5195  135.4448  154.5451 N   0  0  0  0  0  0  0  0  0  0  0  0
  146.4595  136.5544  153.7543 C   0  0  0  0  0  0  0  0  0  0  0  0
  146.8971  137.8618  154.1051 C   0  0  0  0  0  0  0  0  0  0  0  0
  146.6613  138.7414  153.0565 N   0  0  0  0  0  0  0  0  0  0  0  0
  146.1094  137.9961  152.1378 C   0  0  0  0  0  0  0  0  0  0  0  0
  145.9767  136.6639  152.4623 N   0  0  0  0  0  0  0  0  0  0  0  0
  145.3839  135.6327  151.6622 C   0  0  0  0  0  0  0  0  0  0  0  0
  144.7543  134.3993  152.3161 C   0  0  0  0  0  0  0  0  0  0  0  0
  145.1756  133.5514  151.0931 C   0  0  0  0  0  0  0  0  0  0  0  0
  145.7015  132.1280  151.3655 C   0  0  0  0  0  0  0  0  0  0  0  0
  146.3138  131.5477  150.2309 O   0  0  0  0  0  0  0  0  0  0  0  0
  144.1238  133.4407  149.9726 C   0  0  0  0  0  0  0  0  0  0  0  0
  143.0091  132.6730  150.3794 O   0  0  0  0  0  0  0  0  0  0  0  0
  146.2392  134.6487  150.8563 C   0  0  0  0  0  0  0  0  0  0  0  0
  152.7834  137.6885  154.6933 H   0  0  0  0  0  0  0  0  0  0  0  0
  153.6222  139.0285  153.9184 H   0  0  0  0  0  0  0  0  0  0  0  0
  152.3570  138.1792  153.0543 H   0  0  0  0  0  0  0  0  0  0  0  0
  151.4913  140.3365  153.8801 H   0  0  0  0  0  0  0  0  0  0  0  0
  152.3008  139.4373  156.6750 H   0  0  0  0  0  0  0  0  0  0  0  0
  151.4398  140.9224  156.2769 H   0  0  0  0  0  0  0  0  0  0  0  0
  153.0905  140.6891  155.7189 H   0  0  0  0  0  0  0  0  0  0  0  0
  149.9850  138.2772  153.9761 H   0  0  0  0  0  0  0  0  0  0  0  0
  150.3398  138.1389  155.6621 H   0  0  0  0  0  0  0  0  0  0  0  0
  149.4555  140.5620  155.8921 H   0  0  0  0  0  0  0  0  0  0  0  0
  147.0919  141.7443  153.1701 H   0  0  0  0  0  0  0  0  0  0  0  0
  145.8024  141.7696  155.2159 H   0  0  0  0  0  0  0  0  0  0  0  0
  145.5889  140.2219  154.4334 H   0  0  0  0  0  0  0  0  0  0  0  0
  147.2543  140.8570  156.8909 H   0  0  0  0  0  0  0  0  0  0  0  0
  146.0356  139.6265  156.7145 H   0  0  0  0  0  0  0  0  0  0  0  0
  147.1485  134.8926  156.4151 H   0  0  0  0  0  0  0  0  0  0  0  0
  145.7887  138.4026  151.1899 H   0  0  0  0  0  0  0  0  0  0  0  0
  144.6622  136.1344  151.0154 H   0  0  0  0  0  0  0  0  0  0  0  0
  145.2627  134.1179  153.2395 H   0  0  0  0  0  0  0  0  0  0  0  0
  143.6787  134.4775  152.4771 H   0  0  0  0  0  0  0  0  0  0  0  0
  146.4378  132.1284  152.1696 H   0  0  0  0  0  0  0  0  0  0  0  0
  144.8917  131.4691  151.6807 H   0  0  0  0  0  0  0  0  0  0  0  0
  147.2493  131.5415  150.3651 H   0  0  0  0  0  0  0  0  0  0  0  0
  143.7582  134.4228  149.6724 H   0  0  0  0  0  0  0  0  0  0  0  0
  144.5517  132.9892  149.0771 H   0  0  0  0  0  0  0  0  0  0  0  0
  142.2308  133.2014  150.2881 H   0  0  0  0  0  0  0  0  0  0  0  0
  146.3833  134.9292  149.8124 H   0  0  0  0  0  0  0  0  0  0  0  0
  147.1973  134.4424  151.3359 H   0  0  0  0  0  0  0  0  0  0  0  0
  1  2  1  0  0  0  0
  1 29  1  0  0  0  0
  1 30  1  0  0  0  0
  1 31  1  0  0  0  0
  2  3  1  0  0  0  0
  2  4  1  0  0  0  0
  2 32  1  0  0  0  0
  3 33  1  0  0  0  0
  3 34  1  0  0  0  0
  3 35  1  0  0  0  0
  4  5  1  0  0  0  0
  4 36  1  0  0  0  0
  4 37  1  0  0  0  0
  5 11  1  0  0  0  0
  5  6  1  0  0  0  0
  5 38  1  0  0  0  0
  6  7  2  0  0  0  0
  6  8  1  0  0  0  0
  8  9  1  0  0  0  0
  8 39  1  0  0  0  0
  9 10  1  0  0  0  0
  9 40  1  0  0  0  0
  9 41  1  0  0  0  0
 10 11  1  0  0  0  0
 10 42  1  0  0  0  0
 10 43  1  0  0  0  0
 11 12  1  0  0  0  0
 12 17  1  0  0  0  0
 12 13  2  0  0  0  0
 13 14  1  0  0  0  0
 14 15  2  0  0  0  0
 14 44  1  0  0  0  0
 15 16  1  0  0  0  0
 16 20  1  0  0  0  0
 16 17  2  0  0  0  0
 17 18  1  0  0  0  0
 18 19  2  0  0  0  0
 19 20  1  0  0  0  0
 19 45  1  0  0  0  0
 20 21  1  0  0  0  0
 21 28  1  0  0  0  0
 21 22  1  0  0  0  0
 21 46  1  0  0  0  0
 22 23  1  0  0  0  0
 22 47  1  0  0  0  0
 22 48  1  0  0  0  0
 23 24  1  0  0  0  0
 23 26  1  0  0  0  0
 23 28  1  0  0  0  0
 24 25  1  0  0  0  0
 24 49  1  0  0  0  0
 24 50  1  0  0  0  0
 25 51  1  0  0  0  0
 26 27  1  0  0  0  0
 26 52  1  0  0  0  0
 26 53  1  0  0  0  0
 27 54  1  0  0  0  0
 28 55  1  0  0  0  0
 28 56  1  0  0  0  0
M  END
> <s_m_source_file>
AV-unprocessed.smi

> <i_m_source_file_index>
78

> <i_lp_mmshare_version>
43012

> <i_f3d_flags>
0

> <s_epik_input>
W0NIM11bQ0hdKFtDSDNdKVtDSDJdW0NAQEhdMUMoPU8pW05IXVtDSDJdW0NIMl1OMWMobltjSF1uMiljKGMyMyluW2NIXW4zW0NIXShbQ0gyXTQpW0NIMl1DNChbQ0gyXVtPSF0pW0NIMl1bT0hd

> <s_epik_cmdline>
J2VwaWtfcHl0aG9uJywgJy1waCcsICc3LjAnLCAnLXRuJywgJzgnLCAnLW1hJywgJzIwMCcsICctbWV0YWxfYmluZGluZycsICctaW1hZScsICc8aW5maWxlLm1hZT4nLCAnLW9tYWUnLCAnPG91dGZpbGUubWFlPic=

> <r_lp_tautomer_probability>
1

> <r_epik_Ionization_Penalty>
0.000550083

> <r_epik_Ionization_Penalty_Charging>
0

> <r_epik_Ionization_Penalty_Neutral>
0.000550083

> <r_epik_State_Penalty>
0.000250415

> <r_epik_Charging_Adjusted_Penalty>
0.000250415

> <i_epik_Tot_Q>
0

> <i_epik_Tot_abs_Q>
0

> <r_epik_Metal_State_Penalty>
-0

> <b_epik_Metal_Only>
0

> <s_lp_Force_Field>
OPLS_2005

> <r_lp_Energy>
48.678

> <b_lp_Chiralities_Consistent>
1

> <s_lp_Variant>
AV-unprocessed.smi:78-2

> <Gold.Version>
5.8.1

> <Gold.Id.Protein>
6NUR|6NUR_protein|mol2

> <Gold.PLP.Fitness>
44.2515

> <Gold.PLP.PLP>
-33.1788

> <Gold.PLP.part.hbond>
-4.1766

> <Gold.PLP.part.metal>
0.0000

> <Gold.PLP.part.buried>
-5.6467

> <Gold.PLP.part.nonpolar>
-28.8808

> <Gold.PLP.part.repulsive>
5.7787

> <Gold.PLP.ligand.clash>
0.0000

> <Gold.PLP.ligand.torsion>
1.1202

> <Gold.PLP.Chemscore.Hbond>
3.1594

> <Gold.PLP.Chemscore.CHOScore>
1.0000

> <Gold.PLP.Chemscore.Metal>
0.0000

> <Gold.Chemscore.Hbonds>
donor molecule, donor type, donor heavy atom, donor atom, acceptor molecule, acceptor atom, score
      L1  H    25    51       P1 10747  1.00
      L1  H    27    54       P1 10186  1.00
      P1  H  7989  7998       L1     7  0.07
      P1  H  8011  8017       L1     7  1.00
      L1  C    19    45       P1 10171  1.00

> <Gold.PLP.Chemscore.Internal.Correction>
0.8349

> <Gold.Rescore>
     Score         DG    S(hbond)    S(metal)    S(lipo)     H(rot)  DE(clash)    DE(int)     intcor
      6.71     -15.41       3.19        0.00      75.20       3.72       2.03       6.67       ----

> <Gold.Chemscore.Fitness>
6.7077

> <Gold.Chemscore.DG>
-15.4073

> <Gold.Chemscore.ZeroCoef>
-5.4800

> <Gold.Chemscore.Hbond>
3.1921

> <Gold.Chemscore.Metal>
0.0000

> <Gold.Chemscore.Lipo>
75.2038

> <Gold.Chemscore.Internal_Hbond>
0.0000

> <Gold.Chemscore.DEClash>
2.0262

> <Gold.Chemscore.DEInternal>
6.6734

> <Gold.Chemscore.Rot>
3.7239

> <Gold.Chemscore.Internal.Correction>
   9.000000E+99

> <Gold.Chemscore.Hbonds>
donor molecule, donor type, donor heavy atom, donor atom, acceptor molecule, acceptor atom, score
      L1  H    25    51       P1 10747  0.98
      L1  H    27    54       P1 10186  1.00
      P1  H  7989  7998       L1     7  0.08
      P1  H  8011  8017       L1     7  0.99

> <Gold.Chemscore.Hbond.Weighted>
-10.6617

> <Gold.Chemscore.Metal.Weighted>
-0.0000

> <Gold.Chemscore.Lipo.Weighted>
-8.7988

> <Gold.Chemscore.Internal_Hbond.Weighted>
0.0000

> <Gold.Chemscore.DEClash.Weighted>
2.0262

> <Gold.Chemscore.DEInternal.Weighted>
6.6734

> <Gold.Chemscore.Rot.Weighted>
9.5332

> <Gold.Chemscore.Internal.Correction.Weighted>
   9.000000E+99

> <Gold.Protein.RotatedTorsions>
[ 6907 6896 6895 6894 ] final   70.01 input  -60.11 | X-H torsion
[ 7974 7965 7964 7962 ] final -172.49 input  175.53 | X-H torsion
[ 8008 7997 7996 7995 ] final -137.24 input   59.86 | X-H torsion
[ 10167 10162 10161 10158 ] final  -43.08 input  -65.29 | X-H torsion
[ 10718 10713 10712 10709 ] final   36.16 input   66.30 | X-H torsion
[ 10763 10752 10751 10750 ] final  -99.83 input  -60.55 | X-H torsion
[ 11005 11000 10999 10996 ] final   34.13 input  -57.11 | X-H torsion

> <Gold.Protein.ActiveResidues>
 VAL166  LYS551  ARG553  GLY616  TRP617  ASP618  TYR619  PRO620  LYS621  CYS622 
 ASP623  PHE694  ASN695  SER759  ASP760  ASP761  ALA762  ILE779  LEU786  VAL792 
 PHE793  MET794  SER795  GLU796  ALA797  LYS798  CYS799  TRP800  GLU811  SER814 

> <Gold.Protein.RotatedAtoms>
  152.4722  134.4932  159.9701 H   0  0  0  0  0  0  0  0  0  0  0  0  # atno 6907 bound_to 6896
  151.4956  133.3509  159.2868 H   0  0  0  0  0  0  0  0  0  0  0  0  # atno 6908 bound_to 6896
  150.8739  134.8146  159.7237 H   0  0  0  0  0  0  0  0  0  0  0  0  # atno 6909 bound_to 6896
  144.7146  140.1765  143.6362 H   0  0  0  0  0  0  0  0  0  0  0  0  # atno 7974 bound_to 7965
  155.4086  140.0510  157.3033 H   0  0  0  0  0  0  0  0  0  0  0  0  # atno 8008 bound_to 7997
  154.4957  140.2137  155.9412 H   0  0  0  0  0  0  0  0  0  0  0  0  # atno 8009 bound_to 7997
  156.1402  140.3156  155.8488 H   0  0  0  0  0  0  0  0  0  0  0  0  # atno 8010 bound_to 7997
  140.6947  143.3002  151.3300 H   0  0  0  0  0  0  0  0  0  0  0  0  # atno 10167 bound_to 10162
  157.3315  130.7500  149.6850 H   0  0  0  0  0  0  0  0  0  0  0  0  # atno 10718 bound_to 10713
  154.7530  135.4957  153.9323 H   0  0  0  0  0  0  0  0  0  0  0  0  # atno 10763 bound_to 10752
  153.1164  135.6721  153.9418 H   0  0  0  0  0  0  0  0  0  0  0  0  # atno 10764 bound_to 10752
  153.9163  135.3093  155.3427 H   0  0  0  0  0  0  0  0  0  0  0  0  # atno 10765 bound_to 10752
  140.2560  134.3248  155.7874 H   0  0  0  0  0  0  0  0  0  0  0  0  # atno 11005 bound_to 11000
  145.8896  139.2368  143.1557 LP  0  0  0  0  0  0  0  0  0  0  0  0  # atno 17320 bound_to 7965
  145.9916  140.8597  143.0063 LP  0  0  0  0  0  0  0  0  0  0  0  0  # atno 17321 bound_to 7965
  139.6388  144.0580  152.2537 LP  0  0  0  0  0  0  0  0  0  0  0  0  # atno 17342 bound_to 10162
  140.0078  144.6246  150.7673 LP  0  0  0  0  0  0  0  0  0  0  0  0  # atno 17343 bound_to 10162
  155.9696  130.4194  150.4372 LP  0  0  0  0  0  0  0  0  0  0  0  0  # atno 17370 bound_to 10713
  157.2405  131.0524  151.2439 LP  0  0  0  0  0  0  0  0  0  0  0  0  # atno 17371 bound_to 10713
  141.2196  133.7381  156.9111 LP  0  0  0  0  0  0  0  0  0  0  0  0  # atno 17394 bound_to 11000
  140.1511  134.9229  157.2594 LP  0  0  0  0  0  0  0  0  0  0  0  0  # atno 17395 bound_to 11000

$$$$
