AV-unprocessed.smi:1017|AV-procd|sdf|4439|dock9
  -GOLD-   22720 2403D 1   1.00000     0.00000
 Structure written by MMmdl.
 43 44  0  0  0  0  0  0  0  0  2 V2000
  152.4042  142.5628  159.8639 C   0  0  0  0  0  0  0  0  0  0  0  0
  152.5930  141.4547  158.9981 O   0  0  0  0  0  0  0  0  0  0  0  0
  151.5322  141.2545  158.0742 C   0  0  0  0  0  0  0  0  0  0  0  0
  151.9514  140.3381  156.9083 C   0  0  0  0  0  0  0  0  0  0  0  0
  150.9416  139.3076  156.6473 N   0  0  0  0  0  0  0  0  0  0  0  0
  150.6036  138.5532  157.7580 N   0  0  0  0  0  0  0  0  0  0  0  0
  149.7184  137.6134  157.6680 C   0  0  0  0  0  0  0  0  0  0  0  0
  149.3533  136.7955  158.8682 C   0  0  0  0  0  0  0  0  0  0  0  0
  150.1674  136.8324  159.7985 O   0  0  0  0  0  0  0  0  0  0  0  0
  148.1833  136.0858  158.8562 N   0  5  0  0  0  0  0  0  0  0  0  0
  147.3170  135.6898  159.9900 C   0  0  0  0  0  0  0  0  0  0  0  0
  145.8789  136.1741  159.6210 C   0  0  0  0  0  0  0  0  0  0  0  0
  144.9807  135.8852  160.5606 F   0  0  0  0  0  0  0  0  0  0  0  0
  145.8636  137.4973  159.4439 F   0  0  0  0  0  0  0  0  0  0  0  0
  145.4705  135.6028  158.4855 F   0  0  0  0  0  0  0  0  0  0  0  0
  147.3628  134.1372  160.1794 C   0  0  0  0  0  0  0  0  0  0  0  0
  146.7189  133.6124  161.4878 C   0  0  0  0  0  0  0  0  0  0  0  0
  147.2909  134.2951  162.7453 C   0  0  0  0  0  0  0  0  0  0  0  0
  147.1750  135.8261  162.6130 C   0  0  0  0  0  0  0  0  0  0  0  0
  147.8203  136.3629  161.3100 C   0  0  0  0  0  0  0  0  0  0  0  0
  149.0642  137.3369  156.3943 C   0  0  0  0  0  0  0  0  0  0  0  0
  149.4041  138.0822  155.3204 C   0  0  0  0  0  0  0  0  0  0  0  0
  150.4009  139.1496  155.4025 C   0  0  0  0  0  0  0  0  0  0  0  0
  150.7228  139.8458  154.4397 O   0  0  0  0  0  0  0  0  0  0  0  0
  153.2325  142.6143  160.5705 H   0  0  0  0  0  0  0  0  0  0  0  0
  151.4821  142.4642  160.4381 H   0  0  0  0  0  0  0  0  0  0  0  0
  152.3781  143.5057  159.3180 H   0  0  0  0  0  0  0  0  0  0  0  0
  150.7139  140.7823  158.6188 H   0  0  0  0  0  0  0  0  0  0  0  0
  151.1506  142.2116  157.7155 H   0  0  0  0  0  0  0  0  0  0  0  0
  152.1302  140.9154  156.0005 H   0  0  0  0  0  0  0  0  0  0  0  0
  152.9079  139.8687  157.1461 H   0  0  0  0  0  0  0  0  0  0  0  0
  146.9004  133.6425  159.3248 H   0  0  0  0  0  0  0  0  0  0  0  0
  148.3950  133.7892  160.1882 H   0  0  0  0  0  0  0  0  0  0  0  0
  145.6355  133.7316  161.4629 H   0  0  0  0  0  0  0  0  0  0  0  0
  146.8865  132.5372  161.5591 H   0  0  0  0  0  0  0  0  0  0  0  0
  146.7693  133.9491  163.6379 H   0  0  0  0  0  0  0  0  0  0  0  0
  148.3390  134.0180  162.8657 H   0  0  0  0  0  0  0  0  0  0  0  0
  146.1288  136.1247  162.6804 H   0  0  0  0  0  0  0  0  0  0  0  0
  147.6614  136.2946  163.4690 H   0  0  0  0  0  0  0  0  0  0  0  0
  148.8939  136.2181  161.4218 H   0  0  0  0  0  0  0  0  0  0  0  0
  147.6807  137.4427  161.2555 H   0  0  0  0  0  0  0  0  0  0  0  0
  148.3231  136.5579  156.2926 H   0  0  0  0  0  0  0  0  0  0  0  0
  148.9257  137.8855  154.3723 H   0  0  0  0  0  0  0  0  0  0  0  0
  1  2  1  0  0  0  0
  1 25  1  0  0  0  0
  1 26  1  0  0  0  0
  1 27  1  0  0  0  0
  2  3  1  0  0  0  0
  3  4  1  0  0  0  0
  3 28  1  0  0  0  0
  3 29  1  0  0  0  0
  4  5  1  0  0  0  0
  4 30  1  0  0  0  0
  4 31  1  0  0  0  0
  5 23  1  0  0  0  0
  5  6  1  0  0  0  0
  6  7  2  0  0  0  0
  7  8  1  0  0  0  0
  7 21  1  0  0  0  0
  8  9  2  0  0  0  0
  8 10  1  0  0  0  0
 10 11  1  0  0  0  0
 11 20  1  0  0  0  0
 11 12  1  0  0  0  0
 11 16  1  0  0  0  0
 12 13  1  0  0  0  0
 12 14  1  0  0  0  0
 12 15  1  0  0  0  0
 16 17  1  0  0  0  0
 16 32  1  0  0  0  0
 16 33  1  0  0  0  0
 17 18  1  0  0  0  0
 17 34  1  0  0  0  0
 17 35  1  0  0  0  0
 18 19  1  0  0  0  0
 18 36  1  0  0  0  0
 18 37  1  0  0  0  0
 19 20  1  0  0  0  0
 19 38  1  0  0  0  0
 19 39  1  0  0  0  0
 20 40  1  0  0  0  0
 20 41  1  0  0  0  0
 21 22  2  0  0  0  0
 21 42  1  0  0  0  0
 22 23  1  0  0  0  0
 22 43  1  0  0  0  0
 23 24  2  0  0  0  0
M  CHG  1  10  -1
M  END
> <s_m_source_file>
AV-unprocessed.smi

> <i_m_source_file_index>
1017

> <i_lp_mmshare_version>
43012

> <i_f3d_flags>
0

> <s_epik_input>
W0NIM11PW0NIMl1bQ0gyXW4xbmMoW2NIXVtjSF1jMT1PKUMoPU8pW05IXUMyKEMoRikoRilGKVtDSDJdW0NIMl1bQ0gyXVtDSDJdW0NIMl0y

> <s_epik_cmdline>
J2VwaWtfcHl0aG9uJywgJy1waCcsICc3LjAnLCAnLXRuJywgJzgnLCAnLW1hJywgJzIwMCcsICctbWV0YWxfYmluZGluZycsICctaW1hZScsICc8aW5maWxlLm1hZT4nLCAnLW9tYWUnLCAnPG91dGZpbGUubWFlPic=

> <r_lp_tautomer_probability>
1

> <r_epik_Ionization_Penalty>
6.5547

> <r_epik_Ionization_Penalty_Charging>
6.5547

> <r_epik_Ionization_Penalty_Neutral>
1.08437e-11

> <r_epik_State_Penalty>
6.55469

> <r_epik_Charging_Adjusted_Penalty>
13.1094

> <i_epik_Tot_Q>
-1

> <i_epik_Tot_abs_Q>
1

> <r_epik_Metal_State_Penalty>
2.48023

> <b_epik_Metal_Only>
1

> <s_lp_Force_Field>
OPLS_2005

> <r_lp_Energy>
56.1946

> <b_lp_Chiralities_Consistent>
1

> <s_lp_Variant>
AV-unprocessed.smi:1017-2

> <Gold.Version>
5.8.1

> <Gold.Id.Protein>
6NUR|6NUR_protein|mol2

> <Gold.PLP.Fitness>
37.9638

> <Gold.PLP.PLP>
-33.5121

> <Gold.PLP.part.hbond>
-2.2211

> <Gold.PLP.part.metal>
0.0000

> <Gold.PLP.part.buried>
-5.6696

> <Gold.PLP.part.nonpolar>
-26.6392

> <Gold.PLP.part.repulsive>
0.1182

> <Gold.PLP.ligand.clash>
0.0000

> <Gold.PLP.ligand.torsion>
0.8315

> <Gold.PLP.Chemscore.Hbond>
2.0000

> <Gold.PLP.Chemscore.CHOScore>
0.0000

> <Gold.PLP.Chemscore.Metal>
0.0000

> <Gold.Chemscore.Hbonds>
donor molecule, donor type, donor heavy atom, donor atom, acceptor molecule, acceptor atom, score
      P1  H  6896  6908       L1     9  1.00
      P1  H  7989  7998       L1    24  1.00

> <Gold.PLP.Chemscore.Internal.Correction>
0.1146

> <Gold.Rescore>
     Score         DG    S(hbond)    S(metal)    S(lipo)     H(rot)  DE(clash)    DE(int)     intcor
     13.03     -16.64       1.97        0.00      75.71       1.67       0.02       3.60       ----

> <Gold.Chemscore.Fitness>
13.0268

> <Gold.Chemscore.DG>
-16.6436

> <Gold.Chemscore.ZeroCoef>
-5.4800

> <Gold.Chemscore.Hbond>
1.9669

> <Gold.Chemscore.Metal>
0.0000

> <Gold.Chemscore.Lipo>
75.7102

> <Gold.Chemscore.Internal_Hbond>
0.0000

> <Gold.Chemscore.DEClash>
0.0174

> <Gold.Chemscore.DEInternal>
3.5994

> <Gold.Chemscore.Rot>
1.6657

> <Gold.Chemscore.Internal.Correction>
   9.000000E+99

> <Gold.Chemscore.Hbonds>
donor molecule, donor type, donor heavy atom, donor atom, acceptor molecule, acceptor atom, score
      P1  H  6896  6908       L1     9  0.53
      P1  H  7989  7998       L1    24  1.00

> <Gold.Chemscore.Hbond.Weighted>
-6.5696

> <Gold.Chemscore.Metal.Weighted>
-0.0000

> <Gold.Chemscore.Lipo.Weighted>
-8.8581

> <Gold.Chemscore.Internal_Hbond.Weighted>
0.0000

> <Gold.Chemscore.DEClash.Weighted>
0.0174

> <Gold.Chemscore.DEInternal.Weighted>
3.5994

> <Gold.Chemscore.Rot.Weighted>
4.2641

> <Gold.Chemscore.Internal.Correction.Weighted>
   9.000000E+99

> <Gold.Protein.RotatedTorsions>
[ 6907 6896 6895 6894 ] final -153.08 input  -60.11 | X-H torsion
[ 7974 7965 7964 7962 ] final  -87.25 input  175.53 | X-H torsion
[ 8008 7997 7996 7995 ] final  -68.80 input   59.86 | X-H torsion
[ 10167 10162 10161 10158 ] final  169.67 input  -65.29 | X-H torsion
[ 10718 10713 10712 10709 ] final    1.63 input   66.30 | X-H torsion
[ 10763 10752 10751 10750 ] final   15.93 input  -60.55 | X-H torsion
[ 11005 11000 10999 10996 ] final  -76.43 input  -57.11 | X-H torsion

> <Gold.Protein.ActiveResidues>
 VAL166  LYS551  ARG553  GLY616  TRP617  ASP618  TYR619  PRO620  LYS621  CYS622 
 ASP623  PHE694  ASN695  SER759  ASP760  ASP761  ALA762  ILE779  LEU786  VAL792 
 PHE793  MET794  SER795  GLU796  ALA797  LYS798  CYS799  TRP800  GLU811  SER814 

> <Gold.Protein.RotatedAtoms>
  151.2373  133.4418  159.2605 H   0  0  0  0  0  0  0  0  0  0  0  0  # atno 6907 bound_to 6896
  151.0738  134.9815  159.8332 H   0  0  0  0  0  0  0  0  0  0  0  0  # atno 6908 bound_to 6896
  152.5415  134.2317  159.8880 H   0  0  0  0  0  0  0  0  0  0  0  0  # atno 6909 bound_to 6896
  145.4690  140.9560  143.1927 H   0  0  0  0  0  0  0  0  0  0  0  0  # atno 7974 bound_to 7965
  154.4893  140.0866  156.7559 H   0  0  0  0  0  0  0  0  0  0  0  0  # atno 8008 bound_to 7997
  155.4270  140.3448  155.4258 H   0  0  0  0  0  0  0  0  0  0  0  0  # atno 8009 bound_to 7997
  156.1307  140.1500  156.9057 H   0  0  0  0  0  0  0  0  0  0  0  0  # atno 8010 bound_to 7997
  139.4998  144.3681  151.9754 H   0  0  0  0  0  0  0  0  0  0  0  0  # atno 10167 bound_to 10162
  156.8510  130.5553  149.5670 H   0  0  0  0  0  0  0  0  0  0  0  0  # atno 10718 bound_to 10713
  153.1478  135.6772  153.8928 H   0  0  0  0  0  0  0  0  0  0  0  0  # atno 10763 bound_to 10752
  153.8364  135.3111  155.3424 H   0  0  0  0  0  0  0  0  0  0  0  0  # atno 10764 bound_to 10752
  154.7839  135.4873  153.9989 H   0  0  0  0  0  0  0  0  0  0  0  0  # atno 10765 bound_to 10752
  141.1654  133.6983  156.7668 H   0  0  0  0  0  0  0  0  0  0  0  0  # atno 11005 bound_to 11000
  144.7956  139.6240  143.7094 LP  0  0  0  0  0  0  0  0  0  0  0  0  # atno 17320 bound_to 7965
  146.2407  139.5996  142.9493 LP  0  0  0  0  0  0  0  0  0  0  0  0  # atno 17321 bound_to 7965
  140.3117  144.3531  150.6032 LP  0  0  0  0  0  0  0  0  0  0  0  0  # atno 17342 bound_to 10162
  140.5794  143.2174  151.7456 LP  0  0  0  0  0  0  0  0  0  0  0  0  # atno 17343 bound_to 10162
  156.0828  130.5834  150.9594 LP  0  0  0  0  0  0  0  0  0  0  0  0  # atno 17370 bound_to 10713
  157.6303  131.0921  150.8453 LP  0  0  0  0  0  0  0  0  0  0  0  0  # atno 17371 bound_to 10713
  140.2494  134.8552  157.3652 LP  0  0  0  0  0  0  0  0  0  0  0  0  # atno 17394 bound_to 11000
  140.1718  134.4599  155.7827 LP  0  0  0  0  0  0  0  0  0  0  0  0  # atno 17395 bound_to 11000

$$$$
