AV-unprocessed.smi:959|AV-procd|sdf|4269|dock4
  -GOLD-   22720 2173D 1   1.00000     0.00000
 Structure written by MMmdl.
 33 34  0  0  0  0  0  0  0  0  2 V2000
  151.0834  144.8721  159.7783 C   0  0  0  0  0  0  0  0  0  0  0  0
  152.4405  144.2999  159.3426 C   0  0  0  0  0  0  0  0  0  0  0  0
  152.8120  144.7520  157.9196 C   0  0  0  0  0  0  0  0  0  0  0  0
  152.4523  142.8461  159.4837 N   0  0  0  0  0  0  0  0  0  0  0  0
  153.2607  142.0801  160.2381 C   0  0  0  0  0  0  0  0  0  0  0  0
  153.0484  140.7691  160.1499 N   0  0  0  0  0  0  0  0  0  0  0  0
  152.0196  140.6470  159.2423 N   0  0  0  0  0  0  0  0  0  0  0  0
  151.7208  141.8948  158.8568 C   0  0  0  0  0  0  0  0  0  0  0  0
  150.6447  142.1972  157.8495 C   0  0  2  0  0  0  0  0  0  0  0  0
  149.2689  141.6799  158.3096 C   0  0  0  0  0  0  0  0  0  0  0  0
  148.1958  141.9892  157.2546 C   0  0  0  0  0  0  0  0  0  0  0  0
  148.6033  141.4392  155.8776 C   0  0  0  0  0  0  0  0  0  0  0  0
  149.9248  141.9673  155.4743 N   0  3  0  0  0  0  0  0  0  0  0  0
  150.9941  141.6531  156.4478 C   0  0  0  0  0  0  0  0  0  0  0  0
  151.0788  145.9607  159.7157 H   0  0  0  0  0  0  0  0  0  0  0  0
  150.8502  144.6011  160.8082 H   0  0  0  0  0  0  0  0  0  0  0  0
  150.2764  144.4996  159.1462 H   0  0  0  0  0  0  0  0  0  0  0  0
  153.2128  144.7004  159.9990 H   0  0  0  0  0  0  0  0  0  0  0  0
  152.9009  145.8376  157.8688 H   0  0  0  0  0  0  0  0  0  0  0  0
  152.0585  144.4544  157.1896 H   0  0  0  0  0  0  0  0  0  0  0  0
  153.7688  144.3316  157.6079 H   0  0  0  0  0  0  0  0  0  0  0  0
  154.0291  142.4878  160.8779 H   0  0  0  0  0  0  0  0  0  0  0  0
  150.5641  143.2777  157.7425 H   0  0  0  0  0  0  0  0  0  0  0  0
  149.3122  140.6029  158.4786 H   0  0  0  0  0  0  0  0  0  0  0  0
  148.9951  142.1339  159.2629 H   0  0  0  0  0  0  0  0  0  0  0  0
  147.2399  141.5621  157.5593 H   0  0  0  0  0  0  0  0  0  0  0  0
  148.0461  143.0678  157.1892 H   0  0  0  0  0  0  0  0  0  0  0  0
  148.6431  140.3492  155.9001 H   0  0  0  0  0  0  0  0  0  0  0  0
  147.8647  141.7160  155.1251 H   0  0  0  0  0  0  0  0  0  0  0  0
  150.1736  141.5766  154.5765 H   0  0  0  0  0  0  0  0  0  0  0  0
  151.9298  142.0877  156.0940 H   0  0  0  0  0  0  0  0  0  0  0  0
  151.1354  140.5715  156.4760 H   0  0  0  0  0  0  0  0  0  0  0  0
  149.8555  142.9710  155.3850 H   0  0  0  0  0  0  0  0  0  0  0  0
  1  2  1  0  0  0  0
  1 15  1  0  0  0  0
  1 16  1  0  0  0  0
  1 17  1  0  0  0  0
  2  3  1  0  0  0  0
  2  4  1  0  0  0  0
  2 18  1  0  0  0  0
  3 19  1  0  0  0  0
  3 20  1  0  0  0  0
  3 21  1  0  0  0  0
  4  8  1  0  0  0  0
  4  5  1  0  0  0  0
  5  6  2  0  0  0  0
  5 22  1  0  0  0  0
  6  7  1  0  0  0  0
  7  8  2  0  0  0  0
  8  9  1  0  0  0  0
  9 14  1  0  0  0  0
  9 10  1  0  0  0  0
  9 23  1  0  0  0  0
 10 11  1  0  0  0  0
 10 24  1  0  0  0  0
 10 25  1  0  0  0  0
 11 12  1  0  0  0  0
 11 26  1  0  0  0  0
 11 27  1  0  0  0  0
 12 13  1  0  0  0  0
 12 28  1  0  0  0  0
 12 29  1  0  0  0  0
 13 14  1  0  0  0  0
 13 30  1  0  0  0  0
 13 33  1  0  0  0  0
 14 31  1  0  0  0  0
 14 32  1  0  0  0  0
M  CHG  1  13   1
M  END
> <s_m_source_file>
AV-unprocessed.smi

> <i_m_source_file_index>
959

> <i_lp_mmshare_version>
43012

> <i_f3d_flags>
0

> <s_epik_input>
W0NIM11bQ0hdKFtDSDNdKW4xW2NIXW5uYzFbQ0BASF0yW0NIMl1bQ0gyXVtDSDJdW05IXVtDSDJdMg==

> <s_epik_cmdline>
J2VwaWtfcHl0aG9uJywgJy1waCcsICc3LjAnLCAnLXRuJywgJzgnLCAnLW1hJywgJzIwMCcsICctbWV0YWxfYmluZGluZycsICctaW1hZScsICc8aW5maWxlLm1hZT4nLCAnLW9tYWUnLCAnPG91dGZpbGUubWFlPic=

> <r_lp_tautomer_probability>
1

> <r_epik_Ionization_Penalty>
0.000442722

> <r_epik_Ionization_Penalty_Charging>
0.000426856

> <r_epik_Ionization_Penalty_Neutral>
1.58656e-05

> <r_epik_State_Penalty>
-0

> <r_epik_Charging_Adjusted_Penalty>
0.000426856

> <i_epik_Tot_Q>
1

> <i_epik_Tot_abs_Q>
1

> <r_epik_Metal_State_Penalty>
-0

> <b_epik_Metal_Only>
0

> <s_lp_Force_Field>
OPLS_2005

> <r_lp_Energy>
20.311

> <b_lp_Chiralities_Consistent>
1

> <s_lp_Variant>
AV-unprocessed.smi:959-1

> <Gold.Version>
5.8.1

> <Gold.Id.Protein>
6NUR|6NUR_protein|mol2

> <Gold.PLP.Fitness>
38.8551

> <Gold.PLP.PLP>
-32.8793

> <Gold.PLP.part.hbond>
-1.0000

> <Gold.PLP.part.metal>
0.0000

> <Gold.PLP.part.buried>
-4.3019

> <Gold.PLP.part.nonpolar>
-26.9272

> <Gold.PLP.part.repulsive>
0.1793

> <Gold.PLP.ligand.clash>
0.0000

> <Gold.PLP.ligand.torsion>
0.0482

> <Gold.PLP.Chemscore.Hbond>
2.0000

> <Gold.PLP.Chemscore.CHOScore>
0.0000

> <Gold.PLP.Chemscore.Metal>
0.0000

> <Gold.Chemscore.Hbonds>
donor molecule, donor type, donor heavy atom, donor atom, acceptor molecule, acceptor atom, score
      L1  H    13    33       P1  8028  2.00

> <Gold.PLP.Chemscore.Internal.Correction>
0.0722

> <Gold.Rescore>
     Score         DG    S(hbond)    S(metal)    S(lipo)     H(rot)  DE(clash)    DE(int)     intcor
     12.80     -12.87       0.99        0.00      61.98       1.24       0.03       0.04       ----

> <Gold.Chemscore.Fitness>
12.8000

> <Gold.Chemscore.DG>
-12.8695

> <Gold.Chemscore.ZeroCoef>
-5.4800

> <Gold.Chemscore.Hbond>
0.9884

> <Gold.Chemscore.Metal>
0.0000

> <Gold.Chemscore.Lipo>
61.9781

> <Gold.Chemscore.Internal_Hbond>
0.0000

> <Gold.Chemscore.DEClash>
0.0280

> <Gold.Chemscore.DEInternal>
0.0415

> <Gold.Chemscore.Rot>
1.2357

> <Gold.Chemscore.Internal.Correction>
   9.000000E+99

> <Gold.Chemscore.Hbonds>
donor molecule, donor type, donor heavy atom, donor atom, acceptor molecule, acceptor atom, score
      L1  H    13    33       P1  8028  0.92

> <Gold.Chemscore.Hbond.Weighted>
-3.3014

> <Gold.Chemscore.Metal.Weighted>
-0.0000

> <Gold.Chemscore.Lipo.Weighted>
-7.2514

> <Gold.Chemscore.Internal_Hbond.Weighted>
0.0000

> <Gold.Chemscore.DEClash.Weighted>
0.0280

> <Gold.Chemscore.DEInternal.Weighted>
0.0415

> <Gold.Chemscore.Rot.Weighted>
3.1634

> <Gold.Chemscore.Internal.Correction.Weighted>
   9.000000E+99

> <Gold.Protein.RotatedTorsions>
[ 6907 6896 6895 6894 ] final  -86.56 input  -60.11 | X-H torsion
[ 7974 7965 7964 7962 ] final -152.23 input  175.53 | X-H torsion
[ 8008 7997 7996 7995 ] final   58.57 input   59.86 | X-H torsion
[ 10167 10162 10161 10158 ] final  172.02 input  -65.29 | X-H torsion
[ 10718 10713 10712 10709 ] final  137.28 input   66.30 | X-H torsion
[ 10763 10752 10751 10750 ] final -109.58 input  -60.55 | X-H torsion
[ 11005 11000 10999 10996 ] final  102.04 input  -57.11 | X-H torsion

> <Gold.Protein.ActiveResidues>
 VAL166  LYS551  ARG553  GLY616  TRP617  ASP618  TYR619  PRO620  LYS621  CYS622 
 ASP623  PHE694  ASN695  SER759  ASP760  ASP761  ALA762  ILE779  LEU786  VAL792 
 PHE793  MET794  SER795  GLU796  ALA797  LYS798  CYS799  TRP800  GLU811  SER814 

> <Gold.Protein.RotatedAtoms>
  150.6867  134.3031  159.4714 H   0  0  0  0  0  0  0  0  0  0  0  0  # atno 6907 bound_to 6896
  152.0925  134.9395  160.0581 H   0  0  0  0  0  0  0  0  0  0  0  0  # atno 6908 bound_to 6896
  152.0705  133.4070  159.4494 H   0  0  0  0  0  0  0  0  0  0  0  0  # atno 6909 bound_to 6896
  144.7806  140.4691  143.5842 H   0  0  0  0  0  0  0  0  0  0  0  0  # atno 7974 bound_to 7965
  155.5522  140.3486  155.4471 H   0  0  0  0  0  0  0  0  0  0  0  0  # atno 8008 bound_to 7997
  156.0575  140.1332  157.0006 H   0  0  0  0  0  0  0  0  0  0  0  0  # atno 8009 bound_to 7997
  154.4463  140.0992  156.6452 H   0  0  0  0  0  0  0  0  0  0  0  0  # atno 8010 bound_to 7997
  139.5064  144.3421  152.0008 H   0  0  0  0  0  0  0  0  0  0  0  0  # atno 10167 bound_to 10162
  157.4377  131.1054  151.0178 H   0  0  0  0  0  0  0  0  0  0  0  0  # atno 10718 bound_to 10713
  154.8201  135.4596  154.0753 H   0  0  0  0  0  0  0  0  0  0  0  0  # atno 10763 bound_to 10752
  153.2114  135.6882  153.8115 H   0  0  0  0  0  0  0  0  0  0  0  0  # atno 10764 bound_to 10752
  153.7565  135.3290  155.3307 H   0  0  0  0  0  0  0  0  0  0  0  0  # atno 10765 bound_to 10752
  139.8776  134.9208  156.4998 H   0  0  0  0  0  0  0  0  0  0  0  0  # atno 11005 bound_to 11000
  145.6062  139.1508  143.3101 LP  0  0  0  0  0  0  0  0  0  0  0  0  # atno 17320 bound_to 7965
  146.2011  140.6180  142.9102 LP  0  0  0  0  0  0  0  0  0  0  0  0  # atno 17321 bound_to 7965
  140.2859  144.3808  150.6104 LP  0  0  0  0  0  0  0  0  0  0  0  0  # atno 17342 bound_to 10162
  140.5983  143.2167  151.7121 LP  0  0  0  0  0  0  0  0  0  0  0  0  # atno 17343 bound_to 10162
  157.1052  130.5998  149.5469 LP  0  0  0  0  0  0  0  0  0  0  0  0  # atno 17370 bound_to 10713
  155.9937  130.4998  150.7390 LP  0  0  0  0  0  0  0  0  0  0  0  0  # atno 17371 bound_to 10713
  140.8597  133.8069  155.9253 LP  0  0  0  0  0  0  0  0  0  0  0  0  # atno 17394 bound_to 11000
  140.9061  134.2318  157.5013 LP  0  0  0  0  0  0  0  0  0  0  0  0  # atno 17395 bound_to 11000

$$$$
