AV-unprocessed.smi:72|AV-procd|sdf|707|dock6
  -GOLD-   2262017 23D 1   1.00000     0.00000
 Structure written by MMmdl.
 30 31  0  0  0  0  0  0  0  0  2 V2000
  149.9206  134.3022  154.7331 N   0  0  0  0  0  0  0  0  0  0  0  0
  149.8585  135.5832  155.2404 C   0  0  0  0  0  0  0  0  0  0  0  0
  149.2828  136.5608  154.4487 N   0  3  0  0  0  0  0  0  0  0  0  0
  149.1472  137.8478  154.7943 C   0  0  0  0  0  0  0  0  0  0  0  0
  149.5861  138.2459  155.9688 N   0  0  0  0  0  0  0  0  0  0  0  0
  149.4436  139.6903  156.3681 C   0  0  2  0  0  0  0  0  0  0  0  0
  148.1498  140.0892  156.0407 O   0  0  0  0  0  0  0  0  0  0  0  0
  148.1899  141.4474  155.6238 C   0  0  2  0  0  0  0  0  0  0  0  0
  146.8936  141.8535  154.9000 C   0  0  0  0  0  0  0  0  0  0  0  0
  147.1247  142.9858  154.0895 O   0  0  0  0  0  0  0  0  0  0  0  0
  149.4982  141.5329  154.8232 C   0  0  2  0  0  0  0  0  0  0  0  0
  149.3103  141.0977  153.4868 O   0  0  0  0  0  0  0  0  0  0  0  0
  150.4268  140.6132  155.6173 C   0  0  2  0  0  0  0  0  0  0  0  0
  151.3900  139.9519  154.8127 O   0  0  0  0  0  0  0  0  0  0  0  0
  150.1943  137.3171  156.8518 C   0  0  0  0  0  0  0  0  0  0  0  0
  150.6222  137.6762  157.9478 O   0  0  0  0  0  0  0  0  0  0  0  0
  150.2870  135.9912  156.4031 N   0  0  0  0  0  0  0  0  0  0  0  0
  149.5555  139.7535  157.4508 H   0  0  0  0  0  0  0  0  0  0  0  0
  148.2925  142.0520  156.5273 H   0  0  0  0  0  0  0  0  0  0  0  0
  149.8799  142.5540  154.7908 H   0  0  0  0  0  0  0  0  0  0  0  0
  150.9540  141.1997  156.3712 H   0  0  0  0  0  0  0  0  0  0  0  0
  150.3228  133.5262  155.2400 H   0  0  0  0  0  0  0  0  0  0  0  0
  149.5760  134.0378  153.8214 H   0  0  0  0  0  0  0  0  0  0  0  0
  148.6811  138.5463  154.1115 H   0  0  0  0  0  0  0  0  0  0  0  0
  146.4941  141.0401  154.2942 H   0  0  0  0  0  0  0  0  0  0  0  0
  146.1260  142.1090  155.6309 H   0  0  0  0  0  0  0  0  0  0  0  0
  147.7703  143.5325  154.5112 H   0  0  0  0  0  0  0  0  0  0  0  0
  149.0562  140.1887  153.4987 H   0  0  0  0  0  0  0  0  0  0  0  0
  151.4434  139.0497  155.0914 H   0  0  0  0  0  0  0  0  0  0  0  0
  148.9400  136.2783  153.5416 H   0  0  0  0  0  0  0  0  0  0  0  0
  1  2  1  0  0  0  0
  1 22  1  0  0  0  0
  1 23  1  0  0  0  0
  2 17  2  0  0  0  0
  2  3  1  0  0  0  0
  3  4  2  0  0  0  0
  3 30  1  0  0  0  0
  4  5  1  0  0  0  0
  4 24  1  0  0  0  0
  5  6  1  0  0  0  0
  5 15  1  0  0  0  0
  6 18  1  0  0  0  0
  6 13  1  0  0  0  0
  6  7  1  0  0  0  0
  7  8  1  0  0  0  0
  8 19  1  0  0  0  0
  8  9  1  0  0  0  0
  8 11  1  0  0  0  0
  9 10  1  0  0  0  0
  9 25  1  0  0  0  0
  9 26  1  0  0  0  0
 10 27  1  0  0  0  0
 11 20  1  0  0  0  0
 11 12  1  0  0  0  0
 11 13  1  0  0  0  0
 12 28  1  0  0  0  0
 13 21  1  0  0  0  0
 13 14  1  0  0  0  0
 14 29  1  0  0  0  0
 15 16  2  0  0  0  0
 15 17  1  0  0  0  0
M  CHG  1   3   1
M  END
> <s_m_source_file>
AV-unprocessed.smi

> <i_m_source_file_index>
72

> <i_lp_mmshare_version>
43012

> <i_f3d_flags>
0

> <s_epik_input>
W05IMl1jMW5bY0hdbihjKD1PKW4xKVtDQEBIXTJPW0NASF0oW0NIMl1bT0hdKVtDQEBIXShbT0hdKVtDQEhdMltPSF0=

> <s_epik_cmdline>
J2VwaWtfcHl0aG9uJywgJy1waCcsICc3LjAnLCAnLXRuJywgJzgnLCAnLW1hJywgJzIwMCcsICctbWV0YWxfYmluZGluZycsICctaW1hZScsICc8aW5maWxlLm1hZT4nLCAnLW9tYWUnLCAnPG91dGZpbGUubWFlPic=

> <r_lp_tautomer_probability>
4.77166e-05

> <r_epik_Ionization_Penalty>
0.104979

> <r_epik_Ionization_Penalty_Charging>
0.0999619

> <r_epik_Ionization_Penalty_Neutral>
0.00501745

> <r_epik_State_Penalty>
2.51541

> <r_epik_Charging_Adjusted_Penalty>
2.61537

> <i_epik_Tot_Q>
1

> <i_epik_Tot_abs_Q>
1

> <r_epik_Metal_State_Penalty>
3.53763

> <b_epik_Metal_Only>
0

> <s_epik_Chemistry_Notes>
This compound contains an acetal/aminal-like group ( X-CH(R)-Y where X, Y are N, S, or O) that may be acid/base labile, releasing an aldehyde.

> <s_lp_Force_Field>
OPLS_2005

> <r_lp_Energy>
39.1051

> <b_lp_Chiralities_Consistent>
1

> <s_lp_Variant>
AV-unprocessed.smi:72-45

> <Gold.Version>
5.8.1

> <Gold.Id.Protein>
6NUR|6NUR_protein|mol2

> <Gold.PLP.Fitness>
35.5893

> <Gold.PLP.PLP>
-21.5044

> <Gold.PLP.part.hbond>
-6.9517

> <Gold.PLP.part.metal>
0.0000

> <Gold.PLP.part.buried>
-4.4135

> <Gold.PLP.part.nonpolar>
-11.3924

> <Gold.PLP.part.repulsive>
0.0841

> <Gold.PLP.ligand.clash>
0.0000

> <Gold.PLP.ligand.torsion>
0.5357

> <Gold.PLP.Chemscore.Hbond>
5.0000

> <Gold.PLP.Chemscore.CHOScore>
0.0000

> <Gold.PLP.Chemscore.Metal>
0.0000

> <Gold.Chemscore.Hbonds>
donor molecule, donor type, donor heavy atom, donor atom, acceptor molecule, acceptor atom, score
      L1  H     3    30       P1  7948  2.00
      L1  H    10    27       P1  8028  1.00
      P1  H  7989  7998       L1    14  1.00
      P1  H  8011  8017       L1    12  1.00

> <Gold.PLP.Chemscore.Internal.Correction>
0.1563

> <Gold.Rescore>
     Score         DG    S(hbond)    S(metal)    S(lipo)     H(rot)  DE(clash)    DE(int)     intcor
      8.30      -9.11       3.42        0.00      22.57       4.08      -0.00       0.81       ----

> <Gold.Chemscore.Fitness>
8.2986

> <Gold.Chemscore.DG>
-9.1066

> <Gold.Chemscore.ZeroCoef>
-5.4800

> <Gold.Chemscore.Hbond>
3.4211

> <Gold.Chemscore.Metal>
0.0000

> <Gold.Chemscore.Lipo>
22.5678

> <Gold.Chemscore.Internal_Hbond>
0.0000

> <Gold.Chemscore.DEClash>
-0.0000

> <Gold.Chemscore.DEInternal>
0.8079

> <Gold.Chemscore.Rot>
4.0783

> <Gold.Chemscore.Internal.Correction>
   9.000000E+99

> <Gold.Chemscore.Hbonds>
donor molecule, donor type, donor heavy atom, donor atom, acceptor molecule, acceptor atom, score
      L1  H     3    30       P1  7948  0.97
      L1  H    10    27       P1  8028  0.50
      P1  H  7989  7998       L1    14  0.65
      P1  H  8011  8017       L1    12  0.72

> <Gold.Chemscore.Hbond.Weighted>
-11.4265

> <Gold.Chemscore.Metal.Weighted>
-0.0000

> <Gold.Chemscore.Lipo.Weighted>
-2.6404

> <Gold.Chemscore.Internal_Hbond.Weighted>
0.0000

> <Gold.Chemscore.DEClash.Weighted>
-0.0000

> <Gold.Chemscore.DEInternal.Weighted>
0.8079

> <Gold.Chemscore.Rot.Weighted>
10.4404

> <Gold.Chemscore.Internal.Correction.Weighted>
   9.000000E+99

> <Gold.Protein.RotatedTorsions>
[ 6907 6896 6895 6894 ] final  -57.15 input  -60.11 | X-H torsion
[ 7974 7965 7964 7962 ] final   16.70 input  175.53 | X-H torsion
[ 8008 7997 7996 7995 ] final  127.25 input   59.86 | X-H torsion
[ 10167 10162 10161 10158 ] final  178.07 input  -65.29 | X-H torsion
[ 10718 10713 10712 10709 ] final  114.55 input   66.30 | X-H torsion
[ 10763 10752 10751 10750 ] final  -67.50 input  -60.55 | X-H torsion
[ 11005 11000 10999 10996 ] final   81.03 input  -57.11 | X-H torsion

> <Gold.Protein.ActiveResidues>
 VAL166  LYS551  ARG553  GLY616  TRP617  ASP618  TYR619  PRO620  LYS621  CYS622 
 ASP623  PHE694  ASN695  SER759  ASP760  ASP761  ALA762  ILE779  LEU786  VAL792 
 PHE793  MET794  SER795  GLU796  ALA797  LYS798  CYS799  TRP800  GLU811  SER814 

> <Gold.Protein.RotatedAtoms>
  150.8109  134.7263  159.6686 H   0  0  0  0  0  0  0  0  0  0  0  0  # atno 6907 bound_to 6896
  152.4229  134.5919  159.9986 H   0  0  0  0  0  0  0  0  0  0  0  0  # atno 6908 bound_to 6896
  151.6129  133.3308  159.3107 H   0  0  0  0  0  0  0  0  0  0  0  0  # atno 6909 bound_to 6896
  146.2241  139.8710  142.8587 H   0  0  0  0  0  0  0  0  0  0  0  0  # atno 7974 bound_to 7965
  156.2886  140.2673  156.2243 H   0  0  0  0  0  0  0  0  0  0  0  0  # atno 8008 bound_to 7997
  155.0136  140.0387  157.2427 H   0  0  0  0  0  0  0  0  0  0  0  0  # atno 8009 bound_to 7997
  154.7496  140.2740  155.6308 H   0  0  0  0  0  0  0  0  0  0  0  0  # atno 8010 bound_to 7997
  139.5279  144.2723  152.0617 H   0  0  0  0  0  0  0  0  0  0  0  0  # atno 10167 bound_to 10162
  157.6274  131.1000  150.7202 H   0  0  0  0  0  0  0  0  0  0  0  0  # atno 10718 bound_to 10713
  154.3754  135.6086  153.5762 H   0  0  0  0  0  0  0  0  0  0  0  0  # atno 10763 bound_to 10752
  152.9789  135.5848  154.4473 H   0  0  0  0  0  0  0  0  0  0  0  0  # atno 10764 bound_to 10752
  154.4233  135.2846  155.1938 H   0  0  0  0  0  0  0  0  0  0  0  0  # atno 10765 bound_to 10752
  139.9113  134.7965  156.1987 H   0  0  0  0  0  0  0  0  0  0  0  0  # atno 11005 bound_to 11000
  145.2608  141.0076  143.3827 LP  0  0  0  0  0  0  0  0  0  0  0  0  # atno 17320 bound_to 7965
  144.9300  139.4310  143.6500 LP  0  0  0  0  0  0  0  0  0  0  0  0  # atno 17321 bound_to 7965
  140.2182  144.4493  150.6354 LP  0  0  0  0  0  0  0  0  0  0  0  0  # atno 17342 bound_to 10162
  140.6436  143.2208  151.6236 LP  0  0  0  0  0  0  0  0  0  0  0  0  # atno 17343 bound_to 10162
  156.7548  130.4780  149.5449 LP  0  0  0  0  0  0  0  0  0  0  0  0  # atno 17370 bound_to 10713
  156.1455  130.6274  151.0526 LP  0  0  0  0  0  0  0  0  0  0  0  0  # atno 17371 bound_to 10713
  141.0538  133.6875  156.1822 LP  0  0  0  0  0  0  0  0  0  0  0  0  # atno 17394 bound_to 11000
  140.6768  134.4809  157.5588 LP  0  0  0  0  0  0  0  0  0  0  0  0  # atno 17395 bound_to 11000

$$$$
