AV-unprocessed.smi:1864|AV-procd|sdf|7553|dock3
  -GOLD-   22720 9273D 1   1.00000     0.00000
 Structure written by MMmdl.
 33 34  0  0  0  0  0  0  0  0  2 V2000
  147.5538  135.3724  161.4508 C   0  0  0  0  0  0  0  0  0  0  0  0
  148.1337  136.2677  160.4095 C   0  0  0  0  0  0  0  0  0  0  0  0
  147.7554  137.5348  160.2979 N   0  0  0  0  0  0  0  0  0  0  0  0
  148.5173  138.0057  159.2189 O   0  0  0  0  0  0  0  0  0  0  0  0
  149.2750  136.9563  158.8106 C   0  0  0  0  0  0  0  0  0  0  0  0
  150.1967  137.1335  157.6417 C   0  0  0  0  0  0  0  0  0  0  0  0
  151.3791  138.0825  157.9162 C   0  0  0  0  0  0  0  0  0  0  0  0
  151.7798  138.7494  156.6766 N   0  5  0  0  0  0  0  0  0  0  0  0
  151.4710  140.0404  156.3480 C   0  0  0  0  0  0  0  0  0  0  0  0
  151.0024  140.4261  155.2697 O   0  0  0  0  0  0  0  0  0  0  0  0
  151.7150  141.1170  157.3550 C   0  0  0  0  0  0  0  0  0  0  0  0
  152.4855  140.8828  158.3714 N   0  0  0  0  0  0  0  0  0  0  0  0
  152.7720  141.8422  159.3206 N   0  0  0  0  0  0  0  0  0  0  0  0
  153.8673  141.4686  160.2147 C   0  0  0  0  0  0  0  0  0  0  0  0
  152.1025  143.0157  159.4524 C   0  0  0  0  0  0  0  0  0  0  0  0
  152.3747  143.8772  160.2885 O   0  0  0  0  0  0  0  0  0  0  0  0
  150.9201  143.2355  158.5050 C   0  0  0  0  0  0  0  0  0  0  0  0
  151.0955  142.4904  157.1679 C   0  0  0  0  0  0  0  0  0  0  0  0
  149.0727  135.8453  159.5201 N   0  0  0  0  0  0  0  0  0  0  0  0
  146.8065  135.8980  162.0465 H   0  0  0  0  0  0  0  0  0  0  0  0
  148.3380  135.0149  162.1184 H   0  0  0  0  0  0  0  0  0  0  0  0
  147.0771  134.5111  160.9823 H   0  0  0  0  0  0  0  0  0  0  0  0
  150.5678  136.1507  157.3483 H   0  0  0  0  0  0  0  0  0  0  0  0
  149.6111  137.5053  156.7998 H   0  0  0  0  0  0  0  0  0  0  0  0
  151.0843  138.7999  158.6835 H   0  0  0  0  0  0  0  0  0  0  0  0
  152.2039  137.5103  158.3425 H   0  0  0  0  0  0  0  0  0  0  0  0
  154.0851  142.2118  160.9825 H   0  0  0  0  0  0  0  0  0  0  0  0
  154.7815  141.3145  159.6402 H   0  0  0  0  0  0  0  0  0  0  0  0
  153.6313  140.5335  160.7238 H   0  0  0  0  0  0  0  0  0  0  0  0
  150.0239  142.8747  159.0111 H   0  0  0  0  0  0  0  0  0  0  0  0
  150.7741  144.3015  158.3269 H   0  0  0  0  0  0  0  0  0  0  0  0
  151.7202  143.0762  156.4929 H   0  0  0  0  0  0  0  0  0  0  0  0
  150.1163  142.4149  156.6942 H   0  0  0  0  0  0  0  0  0  0  0  0
  1  2  1  0  0  0  0
  1 20  1  0  0  0  0
  1 21  1  0  0  0  0
  1 22  1  0  0  0  0
  2 19  1  0  0  0  0
  2  3  2  0  0  0  0
  3  4  1  0  0  0  0
  4  5  1  0  0  0  0
  5  6  1  0  0  0  0
  5 19  2  0  0  0  0
  6  7  1  0  0  0  0
  6 23  1  0  0  0  0
  6 24  1  0  0  0  0
  7  8  1  0  0  0  0
  7 25  1  0  0  0  0
  7 26  1  0  0  0  0
  8  9  1  0  0  0  0
  9 10  2  0  0  0  0
  9 11  1  0  0  0  0
 11 18  1  0  0  0  0
 11 12  2  0  0  0  0
 12 13  1  0  0  0  0
 13 14  1  0  0  0  0
 13 15  1  0  0  0  0
 14 27  1  0  0  0  0
 14 28  1  0  0  0  0
 14 29  1  0  0  0  0
 15 16  2  0  0  0  0
 15 17  1  0  0  0  0
 17 18  1  0  0  0  0
 17 30  1  0  0  0  0
 17 31  1  0  0  0  0
 18 32  1  0  0  0  0
 18 33  1  0  0  0  0
M  CHG  1   8  -1
M  END
> <s_m_source_file>
AV-unprocessed.smi

> <i_m_source_file_index>
1864

> <i_lp_mmshare_version>
43012

> <i_f3d_flags>
0

> <s_epik_input>
W0NIM11jMW5vYyhuMSlbQ0gyXVtDSDJdW05IXUMoPU8pQzI9Tk4oW0NIM10pQyg9TylbQ0gyXVtDSDJdMg==

> <s_epik_cmdline>
J2VwaWtfcHl0aG9uJywgJy1waCcsICc3LjAnLCAnLXRuJywgJzgnLCAnLW1hJywgJzIwMCcsICctbWV0YWxfYmluZGluZycsICctaW1hZScsICc8aW5maWxlLm1hZT4nLCAnLW9tYWUnLCAnPG91dGZpbGUubWFlPic=

> <r_lp_tautomer_probability>
1

> <r_epik_Ionization_Penalty>
5.04632

> <r_epik_Ionization_Penalty_Charging>
5.04632

> <r_epik_Ionization_Penalty_Neutral>
3.43742e-09

> <r_epik_State_Penalty>
5.0462

> <r_epik_Charging_Adjusted_Penalty>
10.0925

> <i_epik_Tot_Q>
-1

> <i_epik_Tot_abs_Q>
1

> <r_epik_Metal_State_Penalty>
1.15274

> <b_epik_Metal_Only>
1

> <s_epik_Chemistry_Notes>
This compound has an imine and may undergo hydrolysis.

> <s_lp_Force_Field>
OPLS_2005

> <r_lp_Energy>
22.1734

> <b_lp_Chiralities_Consistent>
1

> <s_lp_Variant>
AV-unprocessed.smi:1864-2

> <Gold.Version>
5.8.1

> <Gold.Id.Protein>
6NUR|6NUR_protein|mol2

> <Gold.PLP.Fitness>
41.1643

> <Gold.PLP.PLP>
-33.6331

> <Gold.PLP.part.hbond>
-5.6695

> <Gold.PLP.part.metal>
0.0000

> <Gold.PLP.part.buried>
-4.3767

> <Gold.PLP.part.nonpolar>
-23.0573

> <Gold.PLP.part.repulsive>
0.0863

> <Gold.PLP.ligand.clash>
0.0000

> <Gold.PLP.ligand.torsion>
0.8868

> <Gold.PLP.Chemscore.Hbond>
3.0820

> <Gold.PLP.Chemscore.CHOScore>
0.0000

> <Gold.PLP.Chemscore.Metal>
0.0000

> <Gold.Chemscore.Hbonds>
donor molecule, donor type, donor heavy atom, donor atom, acceptor molecule, acceptor atom, score
      P1  H  6896  6907       L1    19  1.00
      P1  H  6931  6943       L1     3  0.25
      P1  H  6934  6947       L1     3  0.76
      P1  H  7989  7998       L1    10  1.00

> <Gold.PLP.Chemscore.Internal.Correction>
0.0587

> <Gold.Rescore>
     Score         DG    S(hbond)    S(metal)    S(lipo)     H(rot)  DE(clash)    DE(int)     intcor
     14.00     -15.37       2.56        0.00      50.29       1.77       0.17       1.19       ----

> <Gold.Chemscore.Fitness>
14.0049

> <Gold.Chemscore.DG>
-15.3660

> <Gold.Chemscore.ZeroCoef>
-5.4800

> <Gold.Chemscore.Hbond>
2.5572

> <Gold.Chemscore.Metal>
0.0000

> <Gold.Chemscore.Lipo>
50.2927

> <Gold.Chemscore.Internal_Hbond>
0.0000

> <Gold.Chemscore.DEClash>
0.1736

> <Gold.Chemscore.DEInternal>
1.1875

> <Gold.Chemscore.Rot>
1.7731

> <Gold.Chemscore.Internal.Correction>
   9.000000E+99

> <Gold.Chemscore.Hbonds>
donor molecule, donor type, donor heavy atom, donor atom, acceptor molecule, acceptor atom, score
      P1  H  6896  6907       L1    19  0.71
      P1  H  6931  6943       L1     3  0.01
      P1  H  6934  6947       L1     3  0.17
      P1  H  7989  7998       L1    10  0.94

> <Gold.Chemscore.Hbond.Weighted>
-8.5410

> <Gold.Chemscore.Metal.Weighted>
-0.0000

> <Gold.Chemscore.Lipo.Weighted>
-5.8842

> <Gold.Chemscore.Internal_Hbond.Weighted>
0.0000

> <Gold.Chemscore.DEClash.Weighted>
0.1736

> <Gold.Chemscore.DEInternal.Weighted>
1.1875

> <Gold.Chemscore.Rot.Weighted>
4.5393

> <Gold.Chemscore.Internal.Correction.Weighted>
   9.000000E+99

> <Gold.Protein.RotatedTorsions>
[ 6907 6896 6895 6894 ] final  -53.42 input  -60.11 | X-H torsion
[ 7974 7965 7964 7962 ] final -106.95 input  175.53 | X-H torsion
[ 8008 7997 7996 7995 ] final -166.92 input   59.86 | X-H torsion
[ 10167 10162 10161 10158 ] final  -14.13 input  -65.29 | X-H torsion
[ 10718 10713 10712 10709 ] final   66.79 input   66.30 | X-H torsion
[ 10763 10752 10751 10750 ] final  -98.05 input  -60.55 | X-H torsion
[ 11005 11000 10999 10996 ] final  159.76 input  -57.11 | X-H torsion

> <Gold.Protein.ActiveResidues>
 VAL166  LYS551  ARG553  GLY616  TRP617  ASP618  TYR619  PRO620  LYS621  CYS622 
 ASP623  PHE694  ASN695  SER759  ASP760  ASP761  ALA762  ILE779  LEU786  VAL792 
 PHE793  MET794  SER795  GLU796  ALA797  LYS798  CYS799  TRP800  GLU811  SER814 

> <Gold.Protein.RotatedAtoms>
  150.8428  134.7727  159.6946 H   0  0  0  0  0  0  0  0  0  0  0  0  # atno 6907 bound_to 6896
  152.4512  134.5386  159.9842 H   0  0  0  0  0  0  0  0  0  0  0  0  # atno 6908 bound_to 6896
  151.5523  133.3378  159.2991 H   0  0  0  0  0  0  0  0  0  0  0  0  # atno 6909 bound_to 6896
  145.2114  140.9097  143.3312 H   0  0  0  0  0  0  0  0  0  0  0  0  # atno 7974 bound_to 7965
  155.8705  140.0992  157.1553 H   0  0  0  0  0  0  0  0  0  0  0  0  # atno 8008 bound_to 7997
  154.3997  140.1348  156.4135 H   0  0  0  0  0  0  0  0  0  0  0  0  # atno 8009 bound_to 7997
  155.7755  140.3460  155.5272 H   0  0  0  0  0  0  0  0  0  0  0  0  # atno 8010 bound_to 7997
  140.7195  143.5353  150.9472 H   0  0  0  0  0  0  0  0  0  0  0  0  # atno 10167 bound_to 10162
  157.6191  130.9286  150.0156 H   0  0  0  0  0  0  0  0  0  0  0  0  # atno 10718 bound_to 10713
  154.7381  135.5024  153.9076 H   0  0  0  0  0  0  0  0  0  0  0  0  # atno 10763 bound_to 10752
  153.1015  135.6686  153.9672 H   0  0  0  0  0  0  0  0  0  0  0  0  # atno 10764 bound_to 10752
  153.9456  135.3063  155.3420 H   0  0  0  0  0  0  0  0  0  0  0  0  # atno 10765 bound_to 10752
  140.1993  134.8350  157.3000 H   0  0  0  0  0  0  0  0  0  0  0  0  # atno 11005 bound_to 11000
  144.9852  139.3743  143.6242 LP  0  0  0  0  0  0  0  0  0  0  0  0  # atno 17320 bound_to 7965
  146.3396  139.9011  142.8794 LP  0  0  0  0  0  0  0  0  0  0  0  0  # atno 17321 bound_to 7965
  139.9075  143.6761  152.3121 LP  0  0  0  0  0  0  0  0  0  0  0  0  # atno 17342 bound_to 10162
  139.7132  144.7616  151.1077 LP  0  0  0  0  0  0  0  0  0  0  0  0  # atno 17343 bound_to 10162
  156.1327  130.3643  149.9706 LP  0  0  0  0  0  0  0  0  0  0  0  0  # atno 17370 bound_to 10713
  156.7764  130.9205  151.3645 LP  0  0  0  0  0  0  0  0  0  0  0  0  # atno 17371 bound_to 10713
  140.2072  134.4183  155.7631 LP  0  0  0  0  0  0  0  0  0  0  0  0  # atno 17394 bound_to 11000
  141.2227  133.7100  156.8279 LP  0  0  0  0  0  0  0  0  0  0  0  0  # atno 17395 bound_to 11000

$$$$
