AV-unprocessed.smi:103|AV-procd|sdf|983|dock7
  -GOLD-   2262017553D 1   1.00000     0.00000
 Structure written by MMmdl.
 53 55  0  0  0  0  0  0  0  0  1 V2000
  155.3706  135.2756  160.2423 C   0  0  0  0  0  0  0  0  0  0  0  0
  154.3504  135.3749  159.1160 C   0  0  0  0  0  0  0  0  0  0  0  0
  153.9427  134.3742  158.5261 O   0  0  0  0  0  0  0  0  0  0  0  0
  153.9820  136.6406  158.8728 O   0  0  0  0  0  0  0  0  0  0  0  0
  153.0070  136.9146  157.8801 C   0  0  0  0  0  0  0  0  0  0  0  0
  151.8388  137.6792  158.5131 C   0  0  2  0  0  0  0  0  0  0  0  0
  150.9734  136.7692  159.1734 O   0  0  0  0  0  0  0  0  0  0  0  0
  149.6946  137.3145  159.2538 C   0  0  2  0  0  0  0  0  0  0  0  0
  148.7136  136.2121  158.9779 N   0  0  0  0  0  0  0  0  0  0  0  0
  147.6808  135.7289  159.7569 C   0  0  0  0  0  0  0  0  0  0  0  0
  147.1915  136.3292  161.3705 S   0  0  0  0  0  0  0  0  0  0  0  0
  146.4522  134.8275  162.1332 C   0  0  0  0  0  0  0  0  0  0  0  0
  148.4259  136.6757  162.0925 O   0  0  0  0  0  0  0  0  0  0  0  0
  146.1422  137.3378  161.1590 O   0  0  0  0  0  0  0  0  0  0  0  0
  146.9433  134.7869  159.2339 N   0  0  0  0  0  0  0  0  0  0  0  0
  147.5293  134.5791  157.9938 C   0  0  0  0  0  0  0  0  0  0  0  0
  147.2558  133.7095  156.9081 C   0  0  0  0  0  0  0  0  0  0  0  0
  146.2523  132.8210  156.9172 N   0  0  0  0  0  0  0  0  0  0  0  0
  148.0422  133.7805  155.8088 N   0  0  0  0  0  0  0  0  0  0  0  0
  149.0478  134.6608  155.7734 C   0  0  0  0  0  0  0  0  0  0  0  0
  149.4252  135.5355  156.7094 N   0  0  0  0  0  0  0  0  0  0  0  0
  148.6348  135.4603  157.8209 C   0  0  0  0  0  0  0  0  0  0  0  0
  149.5999  138.4641  158.2270 C   0  0  2  0  0  0  0  0  0  0  0  0
  148.5126  138.2974  157.3213 O   0  0  0  0  0  0  0  0  0  0  0  0
  147.2496  138.4864  157.7308 C   0  0  0  0  0  0  0  0  0  0  0  0
  146.2392  138.2242  156.6226 C   0  0  0  0  0  0  0  0  0  0  0  0
  146.8956  138.8290  158.8589 O   0  0  0  0  0  0  0  0  0  0  0  0
  150.9354  138.3870  157.5027 C   0  0  1  0  0  0  0  0  0  0  0  0
  151.4002  139.7039  157.2317 O   0  0  0  0  0  0  0  0  0  0  0  0
  151.0090  140.3530  156.1214 C   0  0  0  0  0  0  0  0  0  0  0  0
  150.9749  141.8626  156.3156 C   0  0  0  0  0  0  0  0  0  0  0  0
  150.7106  139.8381  155.0441 O   0  0  0  0  0  0  0  0  0  0  0  0
  154.8813  135.4071  161.2074 H   0  0  0  0  0  0  0  0  0  0  0  0
  156.1347  136.0456  160.1327 H   0  0  0  0  0  0  0  0  0  0  0  0
  155.8591  134.3011  160.2311 H   0  0  0  0  0  0  0  0  0  0  0  0
  153.4342  137.4961  157.0615 H   0  0  0  0  0  0  0  0  0  0  0  0
  152.6557  135.9703  157.4623 H   0  0  0  0  0  0  0  0  0  0  0  0
  152.2008  138.3861  159.2621 H   0  0  0  0  0  0  0  0  0  0  0  0
  149.4979  137.6478  160.2690 H   0  0  0  0  0  0  0  0  0  0  0  0
  146.1554  135.0511  163.1575 H   0  0  0  0  0  0  0  0  0  0  0  0
  147.1866  134.0222  162.1355 H   0  0  0  0  0  0  0  0  0  0  0  0
  145.5767  134.5177  161.5651 H   0  0  0  0  0  0  0  0  0  0  0  0
  145.6500  132.7502  157.7248 H   0  0  0  0  0  0  0  0  0  0  0  0
  146.1047  132.2191  156.1202 H   0  0  0  0  0  0  0  0  0  0  0  0
  149.6337  134.6652  154.8661 H   0  0  0  0  0  0  0  0  0  0  0  0
  149.5174  139.3925  158.7951 H   0  0  0  0  0  0  0  0  0  0  0  0
  146.3342  137.2010  156.2589 H   0  0  0  0  0  0  0  0  0  0  0  0
  146.4077  138.9059  155.7889 H   0  0  0  0  0  0  0  0  0  0  0  0
  145.2224  138.3692  156.9881 H   0  0  0  0  0  0  0  0  0  0  0  0
  150.8271  137.7719  156.6077 H   0  0  0  0  0  0  0  0  0  0  0  0
  150.5398  142.1130  157.2833 H   0  0  0  0  0  0  0  0  0  0  0  0
  150.3766  142.3347  155.5364 H   0  0  0  0  0  0  0  0  0  0  0  0
  151.9847  142.2709  156.2721 H   0  0  0  0  0  0  0  0  0  0  0  0
  1  2  1  0  0  0  0
  1 33  1  0  0  0  0
  1 34  1  0  0  0  0
  1 35  1  0  0  0  0
  2  3  2  0  0  0  0
  2  4  1  0  0  0  0
  4  5  1  0  0  0  0
  5  6  1  0  0  0  0
  5 36  1  0  0  0  0
  5 37  1  0  0  0  0
  6 28  1  0  0  0  0
  6  7  1  0  0  0  0
  6 38  1  0  0  0  0
  7  8  1  0  0  0  0
  8  9  1  0  0  0  0
  8 23  1  0  0  0  0
  8 39  1  0  0  0  0
  9 22  1  0  0  0  0
  9 10  1  0  0  0  0
 10 11  1  0  0  0  0
 10 15  2  0  0  0  0
 11 12  1  0  0  0  0
 11 13  2  0  0  0  0
 11 14  2  0  0  0  0
 12 40  1  0  0  0  0
 12 41  1  0  0  0  0
 12 42  1  0  0  0  0
 15 16  1  0  0  0  0
 16 22  2  0  0  0  0
 16 17  1  0  0  0  0
 17 18  1  0  0  0  0
 17 19  2  0  0  0  0
 18 43  1  0  0  0  0
 18 44  1  0  0  0  0
 19 20  1  0  0  0  0
 20 21  2  0  0  0  0
 20 45  1  0  0  0  0
 21 22  1  0  0  0  0
 23 24  1  0  0  0  0
 23 28  1  0  0  0  0
 23 46  1  0  0  0  0
 24 25  1  0  0  0  0
 25 26  1  0  0  0  0
 25 27  2  0  0  0  0
 26 47  1  0  0  0  0
 26 48  1  0  0  0  0
 26 49  1  0  0  0  0
 28 29  1  0  0  0  0
 28 50  1  0  0  0  0
 29 30  1  0  0  0  0
 30 31  1  0  0  0  0
 30 32  2  0  0  0  0
 31 51  1  0  0  0  0
 31 52  1  0  0  0  0
 31 53  1  0  0  0  0
M  END
> <s_m_source_file>
AV-unprocessed.smi

> <i_m_source_file_index>
103

> <i_lp_mmshare_version>
43012

> <i_f3d_flags>
0

> <s_epik_input>
W0NIM11DKD1PKU9bQ0gyXVtDQEBIXTFPW0NASF0oW0NAQEhdKE9DKD1PKVtDSDNdKVtDQEhdMU9DKD1PKVtDSDNdKW4oYyhuMilTKD1PKSg9TylbQ0gzXSljKGMyMyluW2NIXW5jM1tOSDJd

> <s_epik_cmdline>
J2VwaWtfcHl0aG9uJywgJy1waCcsICc3LjAnLCAnLXRuJywgJzgnLCAnLW1hJywgJzIwMCcsICctbWV0YWxfYmluZGluZycsICctaW1hZScsICc8aW5maWxlLm1hZT4nLCAnLW9tYWUnLCAnPG91dGZpbGUubWFlPic=

> <r_lp_tautomer_probability>
1

> <r_epik_Ionization_Penalty>
1.51338e-05

> <r_epik_Ionization_Penalty_Charging>
0

> <r_epik_Ionization_Penalty_Neutral>
1.51338e-05

> <r_epik_State_Penalty>
-0

> <r_epik_Charging_Adjusted_Penalty>
0

> <i_epik_Tot_Q>
0

> <i_epik_Tot_abs_Q>
0

> <r_epik_Metal_State_Penalty>
-0

> <b_epik_Metal_Only>
0

> <s_epik_Chemistry_Notes>
This compound has an ester and may undergo hydrolysis at high or low pH. This compound contains an acetal/aminal-like group ( X-CH(R)-Y where X, Y are N, S, or O) that may be acid/base labile, releasing an aldehyde.

> <s_lp_Force_Field>
OPLS_2005

> <r_lp_Energy>
14.5233

> <b_lp_Chiralities_Consistent>
1

> <s_lp_Variant>
AV-unprocessed.smi:103-7

> <Gold.Version>
5.8.1

> <Gold.Id.Protein>
6NUR|6NUR_protein|mol2

> <Gold.PLP.Fitness>
43.7141

> <Gold.PLP.PLP>
-31.2020

> <Gold.PLP.part.hbond>
-5.9826

> <Gold.PLP.part.metal>
0.0000

> <Gold.PLP.part.buried>
-6.3208

> <Gold.PLP.part.nonpolar>
-20.2307

> <Gold.PLP.part.repulsive>
0.0522

> <Gold.PLP.ligand.clash>
0.0000

> <Gold.PLP.ligand.torsion>
2.4072

> <Gold.PLP.Chemscore.Hbond>
5.0000

> <Gold.PLP.Chemscore.CHOScore>
0.0000

> <Gold.PLP.Chemscore.Metal>
0.0000

> <Gold.Chemscore.Hbonds>
donor molecule, donor type, donor heavy atom, donor atom, acceptor molecule, acceptor atom, score
      P1  H  6896  6908       L1     7  1.00
      P1  H  6896  6909       L1     3  0.33
      P1  H  6931  6943       L1    13  1.00
      P1  H  6934  6947       L1    14  1.00
      P1  H  7989  7998       L1    32  0.89

> <Gold.PLP.Chemscore.Internal.Correction>
2.3266

> <Gold.Rescore>
     Score         DG    S(hbond)    S(metal)    S(lipo)     H(rot)  DE(clash)    DE(int)     intcor
      7.48     -12.82       4.23        0.00      34.76       4.25       0.01       5.33       ----

> <Gold.Chemscore.Fitness>
7.4767

> <Gold.Chemscore.DG>
-12.8214

> <Gold.Chemscore.ZeroCoef>
-5.4800

> <Gold.Chemscore.Hbond>
4.2346

> <Gold.Chemscore.Metal>
0.0000

> <Gold.Chemscore.Lipo>
34.7554

> <Gold.Chemscore.Internal_Hbond>
0.0000

> <Gold.Chemscore.DEClash>
0.0104

> <Gold.Chemscore.DEInternal>
5.3343

> <Gold.Chemscore.Rot>
4.2456

> <Gold.Chemscore.Internal.Correction>
   9.000000E+99

> <Gold.Chemscore.Hbonds>
donor molecule, donor type, donor heavy atom, donor atom, acceptor molecule, acceptor atom, score
      P1  H  6896  6908       L1     7  0.83
      P1  H  6896  6909       L1     3  0.01
      P1  H  6931  6943       L1    13  0.97
      P1  H  6934  6947       L1    14  0.43
      P1  H  7989  7998       L1    32  0.64

> <Gold.Chemscore.Hbond.Weighted>
-14.1437

> <Gold.Chemscore.Metal.Weighted>
-0.0000

> <Gold.Chemscore.Lipo.Weighted>
-4.0664

> <Gold.Chemscore.Internal_Hbond.Weighted>
0.0000

> <Gold.Chemscore.DEClash.Weighted>
0.0104

> <Gold.Chemscore.DEInternal.Weighted>
5.3343

> <Gold.Chemscore.Rot.Weighted>
10.8687

> <Gold.Chemscore.Internal.Correction.Weighted>
   9.000000E+99

> <Gold.Protein.RotatedTorsions>
[ 6907 6896 6895 6894 ] final -152.53 input  -60.11 | X-H torsion
[ 7974 7965 7964 7962 ] final -124.06 input  175.53 | X-H torsion
[ 8008 7997 7996 7995 ] final   91.70 input   59.86 | X-H torsion
[ 10167 10162 10161 10158 ] final  -67.11 input  -65.29 | X-H torsion
[ 10718 10713 10712 10709 ] final   82.59 input   66.30 | X-H torsion
[ 10763 10752 10751 10750 ] final   55.33 input  -60.55 | X-H torsion
[ 11005 11000 10999 10996 ] final  139.69 input  -57.11 | X-H torsion

> <Gold.Protein.ActiveResidues>
 VAL166  LYS551  ARG553  GLY616  TRP617  ASP618  TYR619  PRO620  LYS621  CYS622 
 ASP623  PHE694  ASN695  SER759  ASP760  ASP761  ALA762  ILE779  LEU786  VAL792 
 PHE793  MET794  SER795  GLU796  ALA797  LYS798  CYS799  TRP800  GLU811  SER814 

> <Gold.Protein.RotatedAtoms>
  151.2291  133.4460  159.2602 H   0  0  0  0  0  0  0  0  0  0  0  0  # atno 6907 bound_to 6896
  151.0811  134.9859  159.8367 H   0  0  0  0  0  0  0  0  0  0  0  0  # atno 6908 bound_to 6896
  152.5424  134.2231  159.8848 H   0  0  0  0  0  0  0  0  0  0  0  0  # atno 6909 bound_to 6896
  145.0120  140.7914  143.4432 H   0  0  0  0  0  0  0  0  0  0  0  0  # atno 7974 bound_to 7965
  156.0268  140.3334  155.7096 H   0  0  0  0  0  0  0  0  0  0  0  0  # atno 8008 bound_to 7997
  155.5943  140.0649  157.2768 H   0  0  0  0  0  0  0  0  0  0  0  0  # atno 8009 bound_to 7997
  154.4337  140.1821  156.1095 H   0  0  0  0  0  0  0  0  0  0  0  0  # atno 8010 bound_to 7997
  140.5607  143.2313  151.6732 H   0  0  0  0  0  0  0  0  0  0  0  0  # atno 10167 bound_to 10162
  157.6860  131.0054  150.2398 H   0  0  0  0  0  0  0  0  0  0  0  0  # atno 10718 bound_to 10713
  152.9815  135.5714  154.5049 H   0  0  0  0  0  0  0  0  0  0  0  0  # atno 10763 bound_to 10752
  154.4562  135.2780  155.1748 H   0  0  0  0  0  0  0  0  0  0  0  0  # atno 10764 bound_to 10752
  154.3355  135.6240  153.5625 H   0  0  0  0  0  0  0  0  0  0  0  0  # atno 10765 bound_to 10752
  140.0273  134.9368  157.0593 H   0  0  0  0  0  0  0  0  0  0  0  0  # atno 11005 bound_to 11000
  145.2010  139.2252  143.5193 LP  0  0  0  0  0  0  0  0  0  0  0  0  # atno 17320 bound_to 7965
  146.3471  140.1827  142.8589 LP  0  0  0  0  0  0  0  0  0  0  0  0  # atno 17321 bound_to 7965
  139.5069  144.3665  152.0511 LP  0  0  0  0  0  0  0  0  0  0  0  0  # atno 17342 bound_to 10162
  140.2792  144.3879  150.6125 LP  0  0  0  0  0  0  0  0  0  0  0  0  # atno 17343 bound_to 10162
  156.3015  130.3759  149.7746 LP  0  0  0  0  0  0  0  0  0  0  0  0  # atno 17370 bound_to 10713
  156.5375  130.8285  151.3258 LP  0  0  0  0  0  0  0  0  0  0  0  0  # atno 17371 bound_to 10713
  140.4285  134.1806  155.7167 LP  0  0  0  0  0  0  0  0  0  0  0  0  # atno 17394 bound_to 11000
  141.1810  133.8413  157.1257 LP  0  0  0  0  0  0  0  0  0  0  0  0  # atno 17395 bound_to 11000

$$$$
