AV-unprocessed.smi:407|AV-procd|sdf|2501|dock9
  -GOLD-   2262022453D 1   1.00000     0.00000
 Structure written by MMmdl.
 45 47  0  0  0  0  0  0  0  0  1 V2000
  148.5382  133.2703  155.3283 C   0  0  0  0  0  0  0  0  0  0  0  0
  149.7632  134.1768  155.2188 C   0  0  0  0  0  0  0  0  0  0  0  0
  150.8786  133.6592  155.1672 O   0  0  0  0  0  0  0  0  0  0  0  0
  149.5376  135.6498  155.1840 C   0  0  0  0  0  0  0  0  0  0  0  0
  148.2218  136.1486  155.0597 C   0  0  0  0  0  0  0  0  0  0  0  0
  147.9817  137.5353  155.0235 C   0  0  0  0  0  0  0  0  0  0  0  0
  149.0444  138.4554  155.1102 C   0  0  0  0  0  0  0  0  0  0  0  0
  148.7194  139.7940  155.0630 O   0  0  0  0  0  0  0  0  0  0  0  0
  149.7765  140.7441  155.0300 C   0  0  0  0  0  0  0  0  0  0  0  0
  149.8972  141.3976  156.4168 C   0  0  2  0  0  0  0  0  0  0  0  0
  148.7674  142.2305  156.5882 O   0  0  0  0  0  0  0  0  0  0  0  0
  151.1549  142.2834  156.5266 C   0  0  0  0  0  0  0  0  0  0  0  0
  151.7441  142.2267  157.8641 N   0  0  0  0  0  0  0  0  0  0  0  0
  152.4455  141.1955  158.3924 C   0  0  0  0  0  0  0  0  0  0  0  0
  152.7050  140.1344  157.8254 O   0  0  0  0  0  0  0  0  0  0  0  0
  152.8079  141.5361  159.6512 N   0  0  0  0  0  0  0  0  0  0  0  0
  153.5752  140.7288  160.5917 C   0  0  0  0  0  0  0  0  0  0  0  0
  152.3293  142.8212  159.9358 C   0  0  0  0  0  0  0  0  0  0  0  0
  152.4425  143.6123  161.0917 C   0  0  0  0  0  0  0  0  0  0  0  0
  151.8315  144.8878  161.0636 C   0  0  0  0  0  0  0  0  0  0  0  0
  151.1367  145.3355  159.9099 C   0  0  0  0  0  0  0  0  0  0  0  0
  151.0393  144.5183  158.7592 C   0  0  0  0  0  0  0  0  0  0  0  0
  151.6574  143.2564  158.8128 C   0  0  0  0  0  0  0  0  0  0  0  0
  150.3645  137.9582  155.2395 C   0  0  0  0  0  0  0  0  0  0  0  0
  150.6068  136.5711  155.2761 C   0  0  0  0  0  0  0  0  0  0  0  0
  147.9708  133.5018  156.2299 H   0  0  0  0  0  0  0  0  0  0  0  0
  148.8413  132.2241  155.3767 H   0  0  0  0  0  0  0  0  0  0  0  0
  147.8898  133.3972  154.4611 H   0  0  0  0  0  0  0  0  0  0  0  0
  147.3811  135.4734  154.9889 H   0  0  0  0  0  0  0  0  0  0  0  0
  146.9684  137.8966  154.9259 H   0  0  0  0  0  0  0  0  0  0  0  0
  150.7010  140.2141  154.7948 H   0  0  0  0  0  0  0  0  0  0  0  0
  149.6197  141.4996  154.2577 H   0  0  0  0  0  0  0  0  0  0  0  0
  149.9115  140.6225  157.1844 H   0  0  0  0  0  0  0  0  0  0  0  0
  148.8176  142.9357  155.9614 H   0  0  0  0  0  0  0  0  0  0  0  0
  151.9116  141.9359  155.8215 H   0  0  0  0  0  0  0  0  0  0  0  0
  150.9382  143.3120  156.2365 H   0  0  0  0  0  0  0  0  0  0  0  0
  153.0852  140.7115  161.5656 H   0  0  0  0  0  0  0  0  0  0  0  0
  154.5737  141.1479  160.7180 H   0  0  0  0  0  0  0  0  0  0  0  0
  153.6797  139.6970  160.2536 H   0  0  0  0  0  0  0  0  0  0  0  0
  152.9718  143.2636  161.9662 H   0  0  0  0  0  0  0  0  0  0  0  0
  151.8937  145.5286  161.9308 H   0  0  0  0  0  0  0  0  0  0  0  0
  150.6762  146.3125  159.9104 H   0  0  0  0  0  0  0  0  0  0  0  0
  150.5099  144.8551  157.8804 H   0  0  0  0  0  0  0  0  0  0  0  0
  151.2127  138.6215  155.3131 H   0  0  0  0  0  0  0  0  0  0  0  0
  151.6282  136.2358  155.3762 H   0  0  0  0  0  0  0  0  0  0  0  0
  1  2  1  0  0  0  0
  1 26  1  0  0  0  0
  1 27  1  0  0  0  0
  1 28  1  0  0  0  0
  2  3  2  0  0  0  0
  2  4  1  0  0  0  0
  4 25  1  0  0  0  0
  4  5  2  0  0  0  0
  5  6  1  0  0  0  0
  5 29  1  0  0  0  0
  6  7  2  0  0  0  0
  6 30  1  0  0  0  0
  7  8  1  0  0  0  0
  7 24  1  0  0  0  0
  8  9  1  0  0  0  0
  9 10  1  0  0  0  0
  9 31  1  0  0  0  0
  9 32  1  0  0  0  0
 10 11  1  0  0  0  0
 10 12  1  0  0  0  0
 10 33  1  0  0  0  0
 11 34  1  0  0  0  0
 12 13  1  0  0  0  0
 12 35  1  0  0  0  0
 12 36  1  0  0  0  0
 13 23  1  0  0  0  0
 13 14  1  0  0  0  0
 14 15  2  0  0  0  0
 14 16  1  0  0  0  0
 16 17  1  0  0  0  0
 16 18  1  0  0  0  0
 17 37  1  0  0  0  0
 17 38  1  0  0  0  0
 17 39  1  0  0  0  0
 18 23  2  0  0  0  0
 18 19  1  0  0  0  0
 19 20  2  0  0  0  0
 19 40  1  0  0  0  0
 20 21  1  0  0  0  0
 20 41  1  0  0  0  0
 21 22  2  0  0  0  0
 21 42  1  0  0  0  0
 22 23  1  0  0  0  0
 22 43  1  0  0  0  0
 24 25  2  0  0  0  0
 24 44  1  0  0  0  0
 25 45  1  0  0  0  0
M  END
> <s_m_source_file>
AV-unprocessed.smi

> <i_m_source_file_index>
407

> <i_lp_mmshare_version>
43012

> <i_f3d_flags>
0

> <s_epik_input>
W0NIM11DKD1PKWMxW2NIXVtjSF1jKFtjSF1bY0hdMSlPW0NIMl1bQ0BIXShbT0hdKVtDSDJdbihjKD1PKW4yW0NIM10pYyhjMjMpW2NIXVtjSF1bY0hdW2NIXTM=

> <s_epik_cmdline>
J2VwaWtfcHl0aG9uJywgJy1waCcsICc3LjAnLCAnLXRuJywgJzgnLCAnLW1hJywgJzIwMCcsICctbWV0YWxfYmluZGluZycsICctaW1hZScsICc8aW5maWxlLm1hZT4nLCAnLW9tYWUnLCAnPG91dGZpbGUubWFlPic=

> <r_lp_tautomer_probability>
1

> <r_epik_Ionization_Penalty>
2.40123e-06

> <r_epik_Ionization_Penalty_Charging>
1.9356e-09

> <r_epik_Ionization_Penalty_Neutral>
2.3993e-06

> <r_epik_State_Penalty>
-0

> <r_epik_Charging_Adjusted_Penalty>
1.9356e-09

> <i_epik_Tot_Q>
0

> <i_epik_Tot_abs_Q>
0

> <r_epik_Metal_State_Penalty>
-0

> <b_epik_Metal_Only>
0

> <s_lp_Force_Field>
OPLS_2005

> <r_lp_Energy>
53.6429

> <b_lp_Chiralities_Consistent>
1

> <s_lp_Variant>
AV-unprocessed.smi:407-1

> <Gold.Version>
5.8.1

> <Gold.Id.Protein>
6NUR|6NUR_protein|mol2

> <Gold.PLP.Fitness>
48.2710

> <Gold.PLP.PLP>
-44.4098

> <Gold.PLP.part.hbond>
-2.0000

> <Gold.PLP.part.metal>
0.0000

> <Gold.PLP.part.buried>
-5.5155

> <Gold.PLP.part.nonpolar>
-35.3241

> <Gold.PLP.part.repulsive>
0.1343

> <Gold.PLP.ligand.clash>
0.0000

> <Gold.PLP.ligand.torsion>
1.0984

> <Gold.PLP.Chemscore.Hbond>
2.0000

> <Gold.PLP.Chemscore.CHOScore>
0.0000

> <Gold.PLP.Chemscore.Metal>
0.0000

> <Gold.Chemscore.Hbonds>
donor molecule, donor type, donor heavy atom, donor atom, acceptor molecule, acceptor atom, score
      L1  H    11    34       P1  8028  0.96
      P1  H  7997  8010       L1    15  1.00

> <Gold.PLP.Chemscore.Internal.Correction>
0.0580

> <Gold.Rescore>
     Score         DG    S(hbond)    S(metal)    S(lipo)     H(rot)  DE(clash)    DE(int)     intcor
     17.96     -19.23       1.76        0.00     117.72       2.30       0.08       1.19       ----

> <Gold.Chemscore.Fitness>
17.9553

> <Gold.Chemscore.DG>
-19.2317

> <Gold.Chemscore.ZeroCoef>
-5.4800

> <Gold.Chemscore.Hbond>
1.7553

> <Gold.Chemscore.Metal>
0.0000

> <Gold.Chemscore.Lipo>
117.7163

> <Gold.Chemscore.Internal_Hbond>
0.0000

> <Gold.Chemscore.DEClash>
0.0843

> <Gold.Chemscore.DEInternal>
1.1922

> <Gold.Chemscore.Rot>
2.2984

> <Gold.Chemscore.Internal.Correction>
   9.000000E+99

> <Gold.Chemscore.Hbonds>
donor molecule, donor type, donor heavy atom, donor atom, acceptor molecule, acceptor atom, score
      L1  H    11    34       P1  8028  0.92
      P1  H  7997  8010       L1    15  0.82

> <Gold.Chemscore.Hbond.Weighted>
-5.8628

> <Gold.Chemscore.Metal.Weighted>
-0.0000

> <Gold.Chemscore.Lipo.Weighted>
-13.7728

> <Gold.Chemscore.Internal_Hbond.Weighted>
0.0000

> <Gold.Chemscore.DEClash.Weighted>
0.0843

> <Gold.Chemscore.DEInternal.Weighted>
1.1922

> <Gold.Chemscore.Rot.Weighted>
5.8839

> <Gold.Chemscore.Internal.Correction.Weighted>
   9.000000E+99

> <Gold.Protein.RotatedTorsions>
[ 6907 6896 6895 6894 ] final  -11.72 input  -60.11 | X-H torsion
[ 7974 7965 7964 7962 ] final  113.63 input  175.53 | X-H torsion
[ 8008 7997 7996 7995 ] final   42.96 input   59.86 | X-H torsion
[ 10167 10162 10161 10158 ] final -125.08 input  -65.29 | X-H torsion
[ 10718 10713 10712 10709 ] final  107.75 input   66.30 | X-H torsion
[ 10763 10752 10751 10750 ] final   79.88 input  -60.55 | X-H torsion
[ 11005 11000 10999 10996 ] final   22.55 input  -57.11 | X-H torsion

> <Gold.Protein.ActiveResidues>
 VAL166  LYS551  ARG553  GLY616  TRP617  ASP618  TYR619  PRO620  LYS621  CYS622 
 ASP623  PHE694  ASN695  SER759  ASP760  ASP761  ALA762  ILE779  LEU786  VAL792 
 PHE793  MET794  SER795  GLU796  ALA797  LYS798  CYS799  TRP800  GLU811  SER814 

> <Gold.Protein.RotatedAtoms>
  151.3818  135.0941  159.9498 H   0  0  0  0  0  0  0  0  0  0  0  0  # atno 6907 bound_to 6896
  152.5106  133.9065  159.7477 H   0  0  0  0  0  0  0  0  0  0  0  0  # atno 6908 bound_to 6896
  150.9500  133.6505  159.2802 H   0  0  0  0  0  0  0  0  0  0  0  0  # atno 6909 bound_to 6896
  145.2145  139.2890  143.4251 H   0  0  0  0  0  0  0  0  0  0  0  0  # atno 7974 bound_to 7965
  155.2949  140.3381  155.4250 H   0  0  0  0  0  0  0  0  0  0  0  0  # atno 8008 bound_to 7997
  156.2029  140.1739  156.7901 H   0  0  0  0  0  0  0  0  0  0  0  0  # atno 8009 bound_to 7997
  154.5582  140.0692  156.8761 H   0  0  0  0  0  0  0  0  0  0  0  0  # atno 8010 bound_to 7997
  139.9859  143.5693  152.2361 H   0  0  0  0  0  0  0  0  0  0  0  0  # atno 10167 bound_to 10162
  157.6615  131.0879  150.6203 H   0  0  0  0  0  0  0  0  0  0  0  0  # atno 10718 bound_to 10713
  153.0988  135.4823  154.8829 H   0  0  0  0  0  0  0  0  0  0  0  0  # atno 10763 bound_to 10752
  154.7355  135.3070  154.8820 H   0  0  0  0  0  0  0  0  0  0  0  0  # atno 10764 bound_to 10752
  153.9443  135.6830  153.4797 H   0  0  0  0  0  0  0  0  0  0  0  0  # atno 10765 bound_to 10752
  140.3794  134.1937  155.7664 H   0  0  0  0  0  0  0  0  0  0  0  0  # atno 11005 bound_to 11000
  146.3390  140.2432  142.8596 LP  0  0  0  0  0  0  0  0  0  0  0  0  # atno 17320 bound_to 7965
  144.9824  140.8471  143.5389 LP  0  0  0  0  0  0  0  0  0  0  0  0  # atno 17321 bound_to 7965
  139.6375  144.7651  151.2406 LP  0  0  0  0  0  0  0  0  0  0  0  0  # atno 17342 bound_to 10162
  140.7472  143.6372  150.8368 LP  0  0  0  0  0  0  0  0  0  0  0  0  # atno 17343 bound_to 10162
  156.6506  130.4484  149.5721 LP  0  0  0  0  0  0  0  0  0  0  0  0  # atno 17370 bound_to 10713
  156.2141  130.6697  151.1300 LP  0  0  0  0  0  0  0  0  0  0  0  0  # atno 17371 bound_to 10713
  141.1928  133.8164  157.0822 LP  0  0  0  0  0  0  0  0  0  0  0  0  # atno 17394 bound_to 11000
  140.0490  134.9815  157.1102 LP  0  0  0  0  0  0  0  0  0  0  0  0  # atno 17395 bound_to 11000

$$$$
