AV-unprocessed.smi:109|AV-procd|sdf|1031|dock7
  -GOLD-   2262018 33D 1   1.00000     0.00000
 Structure written by MMmdl.
 58 61  0  0  0  0  0  0  0  0  1 V2000
  151.7887  139.3231  154.7537 O   0  0  0  0  0  0  0  0  0  0  0  0
  151.9385  140.0056  155.9798 C   0  0  0  0  0  0  0  0  0  0  0  0
  150.6369  139.9100  156.7945 C   0  0  0  0  0  0  0  0  0  0  0  0
  150.1048  141.2730  157.3016 C   0  0  2  0  0  0  0  0  0  0  0  0
  149.4733  141.9922  156.1927 N   0  0  0  0  0  0  0  0  0  0  0  0
  148.6337  141.3868  155.3225 C   0  0  0  0  0  0  0  0  0  0  0  0
  148.8011  141.4969  153.9789 N   0  0  0  0  0  0  0  0  0  0  0  0
  147.9520  140.8887  153.1460 C   0  0  0  0  0  0  0  0  0  0  0  0
  146.8891  140.1378  153.4412 N   0  0  0  0  0  0  0  0  0  0  0  0
  146.7145  140.0233  154.7897 C   0  0  0  0  0  0  0  0  0  0  0  0
  147.5390  140.6135  155.7878 C   0  0  0  0  0  0  0  0  0  0  0  0
  147.0611  140.2829  157.0490 N   0  0  0  0  0  0  0  0  0  0  0  0
  146.0159  139.5385  156.8052 C   0  0  0  0  0  0  0  0  0  0  0  0
  145.7331  139.3342  155.4728 N   0  0  0  0  0  0  0  0  0  0  0  0
  144.6115  138.5355  154.8918 C   0  0  2  0  0  0  0  0  0  0  0  0
  144.0224  137.8033  155.9220 O   0  0  0  0  0  0  0  0  0  0  0  0
  143.7253  136.4887  155.4665 C   0  0  2  0  0  0  0  0  0  0  0  0
  143.6463  135.5293  156.6639 C   0  0  0  0  0  0  0  0  0  0  0  0
  143.4038  134.2133  156.2141 O   0  0  0  0  0  0  0  0  0  0  0  0
  144.8931  136.1956  154.5230 C   0  0  1  0  0  0  0  0  0  0  0  0
  144.6167  135.1441  153.6165 O   0  0  0  0  0  0  0  0  0  0  0  0
  145.1304  137.5411  153.8397 C   0  0  1  0  0  0  0  0  0  0  0  0
  144.4034  137.6640  152.6307 O   0  0  0  0  0  0  0  0  0  0  0  0
  151.2025  142.1707  157.9425 C   0  0  0  0  0  0  0  0  0  0  0  0
  151.8419  141.5404  159.2056 C   0  0  0  0  0  0  0  0  0  0  0  0
  152.8916  142.4578  159.8550 C   0  0  0  0  0  0  0  0  0  0  0  0
  152.3016  143.8311  160.1973 C   0  0  0  0  0  0  0  0  0  0  0  0
  151.6956  144.4818  158.9487 C   0  0  0  0  0  0  0  0  0  0  0  0
  150.6392  143.5693  158.3069 C   0  0  0  0  0  0  0  0  0  0  0  0
  143.9166  139.2767  154.4937 H   0  0  0  0  0  0  0  0  0  0  0  0
  142.7898  136.5031  154.9030 H   0  0  0  0  0  0  0  0  0  0  0  0
  145.7756  135.9271  155.1037 H   0  0  0  0  0  0  0  0  0  0  0  0
  146.1885  137.7038  153.6290 H   0  0  0  0  0  0  0  0  0  0  0  0
  151.5549  138.4259  154.9360 H   0  0  0  0  0  0  0  0  0  0  0  0
  152.7773  139.5656  156.5193 H   0  0  0  0  0  0  0  0  0  0  0  0
  152.1888  141.0473  155.7764 H   0  0  0  0  0  0  0  0  0  0  0  0
  149.8970  139.4411  156.1481 H   0  0  0  0  0  0  0  0  0  0  0  0
  150.7802  139.2340  157.6386 H   0  0  0  0  0  0  0  0  0  0  0  0
  149.3795  141.0692  158.0890 H   0  0  0  0  0  0  0  0  0  0  0  0
  149.6829  142.9790  156.1434 H   0  0  0  0  0  0  0  0  0  0  0  0
  148.1528  141.0225  152.0934 H   0  0  0  0  0  0  0  0  0  0  0  0
  145.4155  139.1173  157.5985 H   0  0  0  0  0  0  0  0  0  0  0  0
  144.5945  135.5205  157.2019 H   0  0  0  0  0  0  0  0  0  0  0  0
  142.8761  135.8394  157.3707 H   0  0  0  0  0  0  0  0  0  0  0  0
  142.4698  134.0735  156.1833 H   0  0  0  0  0  0  0  0  0  0  0  0
  145.2360  135.1932  152.9043 H   0  0  0  0  0  0  0  0  0  0  0  0
  144.1061  138.5576  152.5510 H   0  0  0  0  0  0  0  0  0  0  0  0
  151.9950  142.3108  157.2055 H   0  0  0  0  0  0  0  0  0  0  0  0
  151.0638  141.3057  159.9333 H   0  0  0  0  0  0  0  0  0  0  0  0
  152.3358  140.6006  158.9645 H   0  0  0  0  0  0  0  0  0  0  0  0
  153.2853  141.9890  160.7572 H   0  0  0  0  0  0  0  0  0  0  0  0
  153.7375  142.5820  159.1777 H   0  0  0  0  0  0  0  0  0  0  0  0
  151.5344  143.7215  160.9649 H   0  0  0  0  0  0  0  0  0  0  0  0
  153.0733  144.4763  160.6181 H   0  0  0  0  0  0  0  0  0  0  0  0
  151.2476  145.4408  159.2107 H   0  0  0  0  0  0  0  0  0  0  0  0
  152.4837  144.6954  158.2255 H   0  0  0  0  0  0  0  0  0  0  0  0
  150.2487  144.0728  157.4224 H   0  0  0  0  0  0  0  0  0  0  0  0
  149.7959  143.4569  158.9901 H   0  0  0  0  0  0  0  0  0  0  0  0
  1  2  1  0  0  0  0
  1 34  1  0  0  0  0
  2  3  1  0  0  0  0
  2 35  1  0  0  0  0
  2 36  1  0  0  0  0
  3  4  1  0  0  0  0
  3 37  1  0  0  0  0
  3 38  1  0  0  0  0
  4  5  1  0  0  0  0
  4 24  1  0  0  0  0
  4 39  1  0  0  0  0
  5  6  1  0  0  0  0
  5 40  1  0  0  0  0
  6 11  1  0  0  0  0
  6  7  2  0  0  0  0
  7  8  1  0  0  0  0
  8  9  2  0  0  0  0
  8 41  1  0  0  0  0
  9 10  1  0  0  0  0
 10 14  1  0  0  0  0
 10 11  2  0  0  0  0
 11 12  1  0  0  0  0
 12 13  2  0  0  0  0
 13 14  1  0  0  0  0
 13 42  1  0  0  0  0
 14 15  1  0  0  0  0
 15 30  1  0  0  0  0
 15 22  1  0  0  0  0
 15 16  1  0  0  0  0
 16 17  1  0  0  0  0
 17 31  1  0  0  0  0
 17 18  1  0  0  0  0
 17 20  1  0  0  0  0
 18 19  1  0  0  0  0
 18 43  1  0  0  0  0
 18 44  1  0  0  0  0
 19 45  1  0  0  0  0
 20 32  1  0  0  0  0
 20 21  1  0  0  0  0
 20 22  1  0  0  0  0
 21 46  1  0  0  0  0
 22 33  1  0  0  0  0
 22 23  1  0  0  0  0
 23 47  1  0  0  0  0
 24 29  1  0  0  0  0
 24 25  1  0  0  0  0
 24 48  1  0  0  0  0
 25 26  1  0  0  0  0
 25 49  1  0  0  0  0
 25 50  1  0  0  0  0
 26 27  1  0  0  0  0
 26 51  1  0  0  0  0
 26 52  1  0  0  0  0
 27 28  1  0  0  0  0
 27 53  1  0  0  0  0
 27 54  1  0  0  0  0
 28 29  1  0  0  0  0
 28 55  1  0  0  0  0
 28 56  1  0  0  0  0
 29 57  1  0  0  0  0
 29 58  1  0  0  0  0
M  END
> <s_m_source_file>
AV-unprocessed.smi

> <i_m_source_file_index>
109

> <i_lp_mmshare_version>
43012

> <i_f3d_flags>
0

> <s_epik_input>
W0NIMl0xW0NIMl1bQ0gyXVtDSDJdW0NIMl1bQ0hdMVtDQEhdKFtDSDJdW0NIMl1bT0hdKVtOSF1jKG5bY0hdbjIpYyhjMjMpbltjSF1uM1tDQEBIXTRPW0NASF0oW0NIMl1bT0hdKVtDQEBIXShbT0hdKVtDQEhdNFtPSF0=

> <s_epik_cmdline>
J2VwaWtfcHl0aG9uJywgJy1waCcsICc3LjAnLCAnLXRuJywgJzgnLCAnLW1hJywgJzIwMCcsICctbWV0YWxfYmluZGluZycsICctaW1hZScsICc8aW5maWxlLm1hZT4nLCAnLW9tYWUnLCAnPG91dGZpbGUubWFlPic=

> <r_lp_tautomer_probability>
1

> <r_epik_Ionization_Penalty>
0.000793976

> <r_epik_Ionization_Penalty_Charging>
0

> <r_epik_Ionization_Penalty_Neutral>
0.000793976

> <r_epik_State_Penalty>
-0

> <r_epik_Charging_Adjusted_Penalty>
0

> <i_epik_Tot_Q>
0

> <i_epik_Tot_abs_Q>
0

> <r_epik_Metal_State_Penalty>
-0

> <b_epik_Metal_Only>
0

> <s_epik_Chemistry_Notes>
This compound contains an acetal/aminal-like group ( X-CH(R)-Y where X, Y are N, S, or O) that may be acid/base labile, releasing an aldehyde.

> <s_lp_Force_Field>
OPLS_2005

> <r_lp_Energy>
54.5538

> <b_lp_Chiralities_Consistent>
1

> <s_lp_Variant>
AV-unprocessed.smi:109-1

> <Gold.Version>
5.8.1

> <Gold.Id.Protein>
6NUR|6NUR_protein|mol2

> <Gold.PLP.Fitness>
50.4604

> <Gold.PLP.PLP>
-38.0547

> <Gold.PLP.part.hbond>
-6.9691

> <Gold.PLP.part.metal>
0.0000

> <Gold.PLP.part.buried>
-4.8540

> <Gold.PLP.part.nonpolar>
-27.6991

> <Gold.PLP.part.repulsive>
0.4532

> <Gold.PLP.ligand.clash>
0.0000

> <Gold.PLP.ligand.torsion>
1.3145

> <Gold.PLP.Chemscore.Hbond>
4.1070

> <Gold.PLP.Chemscore.CHOScore>
0.8382

> <Gold.PLP.Chemscore.Metal>
0.0000

> <Gold.Chemscore.Hbonds>
donor molecule, donor type, donor heavy atom, donor atom, acceptor molecule, acceptor atom, score
      L1  H     5    40       P1  8028  0.85
      L1  H    19    45       P1 11000  0.70
      L1  H    23    47       P1 10175  1.00
      P1  H  7989  7998       L1     1  1.00
      P1  H  8011  8017       L1     7  0.28
      L1  C     8    41       P1  7957  0.72

> <Gold.PLP.Chemscore.Internal.Correction>
0.1990

> <Gold.Rescore>
     Score         DG    S(hbond)    S(metal)    S(lipo)     H(rot)  DE(clash)    DE(int)     intcor
     11.72     -13.08       3.74        0.00      77.79       5.47       0.12       1.24       ----

> <Gold.Chemscore.Fitness>
11.7197

> <Gold.Chemscore.DG>
-13.0768

> <Gold.Chemscore.ZeroCoef>
-5.4800

> <Gold.Chemscore.Hbond>
3.7393

> <Gold.Chemscore.Metal>
0.0000

> <Gold.Chemscore.Lipo>
77.7876

> <Gold.Chemscore.Internal_Hbond>
0.0000

> <Gold.Chemscore.DEClash>
0.1191

> <Gold.Chemscore.DEInternal>
1.2380

> <Gold.Chemscore.Rot>
5.4662

> <Gold.Chemscore.Internal.Correction>
   9.000000E+99

> <Gold.Chemscore.Hbonds>
donor molecule, donor type, donor heavy atom, donor atom, acceptor molecule, acceptor atom, score
      L1  H     5    40       P1  8028  0.81
      L1  H    19    45       P1 11000  0.61
      L1  H    23    47       P1 10175  0.99
      P1  H  7989  7998       L1     1  0.28
      P1  H  8011  8017       L1     7  0.02

> <Gold.Chemscore.Hbond.Weighted>
-12.4891

> <Gold.Chemscore.Metal.Weighted>
-0.0000

> <Gold.Chemscore.Lipo.Weighted>
-9.1011

> <Gold.Chemscore.Internal_Hbond.Weighted>
0.0000

> <Gold.Chemscore.DEClash.Weighted>
0.1191

> <Gold.Chemscore.DEInternal.Weighted>
1.2380

> <Gold.Chemscore.Rot.Weighted>
13.9935

> <Gold.Chemscore.Internal.Correction.Weighted>
   9.000000E+99

> <Gold.Protein.RotatedTorsions>
[ 6907 6896 6895 6894 ] final  168.66 input  -60.11 | X-H torsion
[ 7974 7965 7964 7962 ] final   13.74 input  175.53 | X-H torsion
[ 8008 7997 7996 7995 ] final   75.91 input   59.86 | X-H torsion
[ 10167 10162 10161 10158 ] final   79.04 input  -65.29 | X-H torsion
[ 10718 10713 10712 10709 ] final   -3.02 input   66.30 | X-H torsion
[ 10763 10752 10751 10750 ] final  112.93 input  -60.55 | X-H torsion
[ 11005 11000 10999 10996 ] final  137.71 input  -57.11 | X-H torsion

> <Gold.Protein.ActiveResidues>
 VAL166  LYS551  ARG553  GLY616  TRP617  ASP618  TYR619  PRO620  LYS621  CYS622 
 ASP623  PHE694  ASN695  SER759  ASP760  ASP761  ALA762  ILE779  LEU786  VAL792 
 PHE793  MET794  SER795  GLU796  ALA797  LYS798  CYS799  TRP800  GLU811  SER814 

> <Gold.Protein.RotatedAtoms>
  151.8442  133.3428  159.3652 H   0  0  0  0  0  0  0  0  0  0  0  0  # atno 6907 bound_to 6896
  150.7226  134.5362  159.5734 H   0  0  0  0  0  0  0  0  0  0  0  0  # atno 6908 bound_to 6896
  152.2842  134.7795  160.0442 H   0  0  0  0  0  0  0  0  0  0  0  0  # atno 6909 bound_to 6896
  146.2322  139.9144  142.8519 H   0  0  0  0  0  0  0  0  0  0  0  0  # atno 7974 bound_to 7965
  155.8197  140.3470  155.5507 H   0  0  0  0  0  0  0  0  0  0  0  0  # atno 8008 bound_to 7997
  155.8355  140.0933  157.1787 H   0  0  0  0  0  0  0  0  0  0  0  0  # atno 8009 bound_to 7997
  154.4004  140.1404  156.3652 H   0  0  0  0  0  0  0  0  0  0  0  0  # atno 8010 bound_to 7997
  139.9645  144.5938  150.8042 H   0  0  0  0  0  0  0  0  0  0  0  0  # atno 10167 bound_to 10162
  156.7822  130.5334  149.5749 H   0  0  0  0  0  0  0  0  0  0  0  0  # atno 10718 bound_to 10713
  153.4851  135.3671  155.2462 H   0  0  0  0  0  0  0  0  0  0  0  0  # atno 10763 bound_to 10752
  154.8754  135.3963  154.3655 H   0  0  0  0  0  0  0  0  0  0  0  0  # atno 10764 bound_to 10752
  153.4265  135.7081  153.6325 H   0  0  0  0  0  0  0  0  0  0  0  0  # atno 10765 bound_to 10752
  140.0133  134.9429  157.0323 H   0  0  0  0  0  0  0  0  0  0  0  0  # atno 11005 bound_to 11000
  145.2198  140.9930  143.4052 LP  0  0  0  0  0  0  0  0  0  0  0  0  # atno 17320 bound_to 7965
  144.9620  139.3970  143.6351 LP  0  0  0  0  0  0  0  0  0  0  0  0  # atno 17321 bound_to 7965
  140.7542  143.3023  151.3049 LP  0  0  0  0  0  0  0  0  0  0  0  0  # atno 17342 bound_to 10162
  139.6528  144.0330  152.2639 LP  0  0  0  0  0  0  0  0  0  0  0  0  # atno 17343 bound_to 10162
  156.1211  130.6110  151.0194 LP  0  0  0  0  0  0  0  0  0  0  0  0  # atno 17370 bound_to 10713
  157.6641  131.0875  150.7770 LP  0  0  0  0  0  0  0  0  0  0  0  0  # atno 17371 bound_to 10713
  140.4516  134.1577  155.7182 LP  0  0  0  0  0  0  0  0  0  0  0  0  # atno 17394 bound_to 11000
  141.1726  133.8579  157.1524 LP  0  0  0  0  0  0  0  0  0  0  0  0  # atno 17395 bound_to 11000

$$$$
