AV-unprocessed.smi:1627|AV-procd|sdf|6517|dock8
  -GOLD-   22720 7193D 1   1.00000     0.00000
 Structure written by MMmdl.
 43 44  0  0  0  0  0  0  0  0  1 V2000
  156.6101  135.0679  162.3084 C   0  0  0  0  0  0  0  0  0  0  0  0
  155.2281  134.6707  161.7690 C   0  0  1  0  0  0  0  0  0  0  0  0
  154.4551  134.2064  162.8732 O   0  0  0  0  0  0  0  0  0  0  0  0
  155.0183  133.1224  163.6055 C   0  0  0  0  0  0  0  0  0  0  0  0
  154.0059  132.6357  164.6493 C   0  0  0  0  0  0  0  0  0  0  0  0
  153.0507  131.9339  164.0406 F   0  0  0  0  0  0  0  0  0  0  0  0
  154.6068  131.8526  165.5445 F   0  0  0  0  0  0  0  0  0  0  0  0
  153.4456  133.6750  165.2673 F   0  0  0  0  0  0  0  0  0  0  0  0
  154.5316  135.8606  161.0880 C   0  0  0  0  0  0  0  0  0  0  0  0
  153.8180  135.6658  160.1043 O   0  0  0  0  0  0  0  0  0  0  0  0
  154.7944  137.0707  161.6154 N   0  0  0  0  0  0  0  0  0  0  0  0
  154.3061  138.3424  161.2105 C   0  0  0  0  0  0  0  0  0  0  0  0
  153.4817  138.5606  160.0831 C   0  0  0  0  0  0  0  0  0  0  0  0
  153.0471  139.8691  159.7968 C   0  0  0  0  0  0  0  0  0  0  0  0
  153.4391  140.9340  160.6469 C   0  0  0  0  0  0  0  0  0  0  0  0
  153.0308  142.2684  160.4205 N   0  0  0  0  0  0  0  0  0  0  0  0
  152.7432  142.6315  159.0291 C   0  0  0  0  0  0  0  0  0  0  0  0
  152.7590  144.1569  158.8322 C   0  0  0  0  0  0  0  0  0  0  0  0
  151.8264  144.8534  159.8327 C   0  0  0  0  0  0  0  0  0  0  0  0
  152.2055  144.4514  161.2646 C   0  0  0  0  0  0  0  0  0  0  0  0
  152.1993  142.9224  161.4331 C   0  0  0  0  0  0  0  0  0  0  0  0
  154.2186  140.7143  161.7332 N   0  0  0  0  0  0  0  0  0  0  0  0
  154.6318  139.4592  162.0041 C   0  0  0  0  0  0  0  0  0  0  0  0
  157.2528  135.4467  161.5129 H   0  0  0  0  0  0  0  0  0  0  0  0
  157.1114  134.2091  162.7550 H   0  0  0  0  0  0  0  0  0  0  0  0
  156.5355  135.8394  163.0760 H   0  0  0  0  0  0  0  0  0  0  0  0
  155.3616  133.8573  161.0530 H   0  0  0  0  0  0  0  0  0  0  0  0
  155.2813  132.2973  162.9425 H   0  0  0  0  0  0  0  0  0  0  0  0
  155.9338  133.4457  164.1033 H   0  0  0  0  0  0  0  0  0  0  0  0
  155.4681  137.0865  162.3675 H   0  0  0  0  0  0  0  0  0  0  0  0
  153.1633  137.7551  159.4400 H   0  0  0  0  0  0  0  0  0  0  0  0
  152.4270  140.0268  158.9275 H   0  0  0  0  0  0  0  0  0  0  0  0
  153.4586  142.1868  158.3376 H   0  0  0  0  0  0  0  0  0  0  0  0
  151.7634  142.2331  158.7631 H   0  0  0  0  0  0  0  0  0  0  0  0
  153.7763  144.5297  158.9601 H   0  0  0  0  0  0  0  0  0  0  0  0
  152.4647  144.4036  157.8119 H   0  0  0  0  0  0  0  0  0  0  0  0
  151.8871  145.9357  159.7157 H   0  0  0  0  0  0  0  0  0  0  0  0
  150.7918  144.5728  159.6314 H   0  0  0  0  0  0  0  0  0  0  0  0
  153.1972  144.8395  161.5009 H   0  0  0  0  0  0  0  0  0  0  0  0
  151.5171  144.9070  161.9765 H   0  0  0  0  0  0  0  0  0  0  0  0
  151.1798  142.5416  161.3578 H   0  0  0  0  0  0  0  0  0  0  0  0
  152.5645  142.6845  162.4326 H   0  0  0  0  0  0  0  0  0  0  0  0
  155.2487  139.3459  162.8838 H   0  0  0  0  0  0  0  0  0  0  0  0
  1  2  1  0  0  0  0
  1 24  1  0  0  0  0
  1 25  1  0  0  0  0
  1 26  1  0  0  0  0
  2  3  1  0  0  0  0
  2  9  1  0  0  0  0
  2 27  1  0  0  0  0
  3  4  1  0  0  0  0
  4  5  1  0  0  0  0
  4 28  1  0  0  0  0
  4 29  1  0  0  0  0
  5  6  1  0  0  0  0
  5  7  1  0  0  0  0
  5  8  1  0  0  0  0
  9 10  2  0  0  0  0
  9 11  1  0  0  0  0
 11 12  1  0  0  0  0
 11 30  1  0  0  0  0
 12 23  1  0  0  0  0
 12 13  2  0  0  0  0
 13 14  1  0  0  0  0
 13 31  1  0  0  0  0
 14 15  2  0  0  0  0
 14 32  1  0  0  0  0
 15 16  1  0  0  0  0
 15 22  1  0  0  0  0
 16 21  1  0  0  0  0
 16 17  1  0  0  0  0
 17 18  1  0  0  0  0
 17 33  1  0  0  0  0
 17 34  1  0  0  0  0
 18 19  1  0  0  0  0
 18 35  1  0  0  0  0
 18 36  1  0  0  0  0
 19 20  1  0  0  0  0
 19 37  1  0  0  0  0
 19 38  1  0  0  0  0
 20 21  1  0  0  0  0
 20 39  1  0  0  0  0
 20 40  1  0  0  0  0
 21 41  1  0  0  0  0
 21 42  1  0  0  0  0
 22 23  2  0  0  0  0
 23 43  1  0  0  0  0
M  END
> <s_m_source_file>
AV-unprocessed.smi

> <i_m_source_file_index>
1627

> <i_lp_mmshare_version>
43012

> <i_f3d_flags>
0

> <s_epik_input>
RkMoRikoRilbQ0gyXU9bQ0BASF0oW0NIM10pQyg9TylbTkhdYzFbY0hdW2NIXWMobltjSF0xKU4yW0NIMl1bQ0gyXVtDSDJdW0NIMl1bQ0gyXTI=

> <s_epik_cmdline>
J2VwaWtfcHl0aG9uJywgJy1waCcsICc3LjAnLCAnLXRuJywgJzgnLCAnLW1hJywgJzIwMCcsICctbWV0YWxfYmluZGluZycsICctaW1hZScsICc8aW5maWxlLm1hZT4nLCAnLW9tYWUnLCAnPG91dGZpbGUubWFlPic=

> <r_lp_tautomer_probability>
1

> <r_epik_Ionization_Penalty>
0.0254771

> <r_epik_Ionization_Penalty_Charging>
0

> <r_epik_Ionization_Penalty_Neutral>
0.0254771

> <r_epik_State_Penalty>
0.0187406

> <r_epik_Charging_Adjusted_Penalty>
0.0187406

> <i_epik_Tot_Q>
0

> <i_epik_Tot_abs_Q>
0

> <r_epik_Metal_State_Penalty>
0.017939

> <b_epik_Metal_Only>
0

> <s_lp_Force_Field>
OPLS_2005

> <r_lp_Energy>
25.1621

> <b_lp_Chiralities_Consistent>
1

> <s_lp_Variant>
AV-unprocessed.smi:1627-2

> <Gold.Version>
5.8.1

> <Gold.Id.Protein>
6NUR|6NUR_protein|mol2

> <Gold.PLP.Fitness>
48.1068

> <Gold.PLP.PLP>
-48.0929

> <Gold.PLP.part.hbond>
-1.0000

> <Gold.PLP.part.metal>
0.0000

> <Gold.PLP.part.buried>
-5.6422

> <Gold.PLP.part.nonpolar>
-41.8469

> <Gold.PLP.part.repulsive>
0.0105

> <Gold.PLP.ligand.clash>
0.0000

> <Gold.PLP.ligand.torsion>
1.6474

> <Gold.PLP.Chemscore.Hbond>
1.0000

> <Gold.PLP.Chemscore.CHOScore>
0.0000

> <Gold.PLP.Chemscore.Metal>
0.0000

> <Gold.Chemscore.Hbonds>
donor molecule, donor type, donor heavy atom, donor atom, acceptor molecule, acceptor atom, score
      P1  H  6896  6907       L1    10  1.00

> <Gold.PLP.Chemscore.Internal.Correction>
0.3087

> <Gold.Rescore>
     Score         DG    S(hbond)    S(metal)    S(lipo)     H(rot)  DE(clash)    DE(int)     intcor
     14.00     -16.74       1.00        0.00     103.30       1.63       0.00       2.73       ----

> <Gold.Chemscore.Fitness>
14.0018

> <Gold.Chemscore.DG>
-16.7364

> <Gold.Chemscore.ZeroCoef>
-5.4800

> <Gold.Chemscore.Hbond>
0.9978

> <Gold.Chemscore.Metal>
0.0000

> <Gold.Chemscore.Lipo>
103.3026

> <Gold.Chemscore.Internal_Hbond>
0.0000

> <Gold.Chemscore.DEClash>
0.0000

> <Gold.Chemscore.DEInternal>
2.7347

> <Gold.Chemscore.Rot>
1.6260

> <Gold.Chemscore.Internal.Correction>
   9.000000E+99

> <Gold.Chemscore.Hbonds>
donor molecule, donor type, donor heavy atom, donor atom, acceptor molecule, acceptor atom, score
      P1  H  6896  6907       L1    10  1.00

> <Gold.Chemscore.Hbond.Weighted>
-3.3325

> <Gold.Chemscore.Metal.Weighted>
-0.0000

> <Gold.Chemscore.Lipo.Weighted>
-12.0864

> <Gold.Chemscore.Internal_Hbond.Weighted>
0.0000

> <Gold.Chemscore.DEClash.Weighted>
0.0000

> <Gold.Chemscore.DEInternal.Weighted>
2.7347

> <Gold.Chemscore.Rot.Weighted>
4.1625

> <Gold.Chemscore.Internal.Correction.Weighted>
   9.000000E+99

> <Gold.Protein.RotatedTorsions>
[ 6907 6896 6895 6894 ] final   44.76 input  -60.11 | X-H torsion
[ 7974 7965 7964 7962 ] final   31.59 input  175.53 | X-H torsion
[ 8008 7997 7996 7995 ] final  -91.60 input   59.86 | X-H torsion
[ 10167 10162 10161 10158 ] final  -38.05 input  -65.29 | X-H torsion
[ 10718 10713 10712 10709 ] final   38.28 input   66.30 | X-H torsion
[ 10763 10752 10751 10750 ] final -136.83 input  -60.55 | X-H torsion
[ 11005 11000 10999 10996 ] final  115.07 input  -57.11 | X-H torsion

> <Gold.Protein.ActiveResidues>
 VAL166  LYS551  ARG553  GLY616  TRP617  ASP618  TYR619  PRO620  LYS621  CYS622 
 ASP623  PHE694  ASN695  SER759  ASP760  ASP761  ALA762  ILE779  LEU786  VAL792 
 PHE793  MET794  SER795  GLU796  ALA797  LYS798  CYS799  TRP800  GLU811  SER814 

> <Gold.Protein.RotatedAtoms>
  152.2364  134.8271  160.0466 H   0  0  0  0  0  0  0  0  0  0  0  0  # atno 6907 bound_to 6896
  151.9002  133.3531  159.3836 H   0  0  0  0  0  0  0  0  0  0  0  0  # atno 6908 bound_to 6896
  150.7040  134.4762  159.5493 H   0  0  0  0  0  0  0  0  0  0  0  0  # atno 6909 bound_to 6896
  146.1540  139.6636  142.9079 H   0  0  0  0  0  0  0  0  0  0  0  0  # atno 7974 bound_to 7965
  154.7128  140.0518  157.0566 H   0  0  0  0  0  0  0  0  0  0  0  0  # atno 8008 bound_to 7997
  155.0532  140.3181  155.4666 H   0  0  0  0  0  0  0  0  0  0  0  0  # atno 8009 bound_to 7997
  156.2794  140.2112  156.5658 H   0  0  0  0  0  0  0  0  0  0  0  0  # atno 8010 bound_to 7997
  140.7102  143.3302  151.2587 H   0  0  0  0  0  0  0  0  0  0  0  0  # atno 10167 bound_to 10162
  157.3569  130.7628  149.7019 H   0  0  0  0  0  0  0  0  0  0  0  0  # atno 10718 bound_to 10713
  154.8675  135.3660  154.5125 H   0  0  0  0  0  0  0  0  0  0  0  0  # atno 10763 bound_to 10752
  153.5759  135.7019  153.5489 H   0  0  0  0  0  0  0  0  0  0  0  0  # atno 10764 bound_to 10752
  153.3500  135.4074  155.1601 H   0  0  0  0  0  0  0  0  0  0  0  0  # atno 10765 bound_to 10752
  139.8999  134.9578  156.6990 H   0  0  0  0  0  0  0  0  0  0  0  0  # atno 11005 bound_to 11000
  145.4753  141.0437  143.2676 LP  0  0  0  0  0  0  0  0  0  0  0  0  # atno 17320 bound_to 7965
  144.7940  139.6271  143.7101 LP  0  0  0  0  0  0  0  0  0  0  0  0  # atno 17321 bound_to 7965
  139.6782  143.9901  152.2793 LP  0  0  0  0  0  0  0  0  0  0  0  0  # atno 17342 bound_to 10162
  139.9522  144.6613  150.8160 LP  0  0  0  0  0  0  0  0  0  0  0  0  # atno 17343 bound_to 10162
  155.9731  130.4125  150.4033 LP  0  0  0  0  0  0  0  0  0  0  0  0  # atno 17370 bound_to 10713
  157.2105  131.0459  151.2602 LP  0  0  0  0  0  0  0  0  0  0  0  0  # atno 17371 bound_to 10713
  140.7166  133.9177  155.8119 LP  0  0  0  0  0  0  0  0  0  0  0  0  # atno 17394 bound_to 11000
  141.0260  134.0823  157.4068 LP  0  0  0  0  0  0  0  0  0  0  0  0  # atno 17395 bound_to 11000

$$$$
