AV-unprocessed.smi:651|AV-procd|sdf|3187|dock1
  -GOLD-   22720 0113D 1   1.00000     0.00000
 Structure written by MMmdl.
 38 39  0  0  0  0  0  0  0  0  1 V2000
  152.9292  143.0639  162.8960 C   0  0  0  0  0  0  0  0  0  0  0  0
  152.5597  143.1659  161.4309 C   0  0  0  0  0  0  0  0  0  0  0  0
  151.9820  144.3436  160.9117 C   0  0  0  0  0  0  0  0  0  0  0  0
  151.6599  144.3850  159.5419 C   0  0  0  0  0  0  0  0  0  0  0  0
  151.9283  143.2529  158.7448 C   0  0  0  0  0  0  0  0  0  0  0  0
  151.6019  143.2458  157.2616 C   0  0  0  0  0  0  0  0  0  0  0  0
  150.6723  142.0812  156.9166 C   0  0  0  0  0  0  0  0  0  0  0  0
  150.9123  140.9566  157.3545 O   0  0  0  0  0  0  0  0  0  0  0  0
  149.6151  142.3717  156.1378 N   0  0  0  0  0  0  0  0  0  0  0  0
  148.5779  141.4558  155.6539 C   0  0  1  0  0  0  0  0  0  0  0  0
  147.1429  142.0092  155.7844 C   0  0  0  0  0  0  0  0  0  0  0  0
  146.5889  142.0806  154.3605 C   0  0  0  0  0  0  0  0  0  0  0  0
  147.3443  140.9968  153.5942 C   0  0  0  0  0  0  0  0  0  0  0  0
  148.7670  141.0367  154.1720 C   0  0  2  0  0  0  0  0  0  0  0  0
  149.5207  139.7079  154.0116 C   0  0  0  0  0  0  0  0  0  0  0  0
  148.8843  138.7225  153.3736 N   0  0  0  0  0  0  0  0  0  0  0  0
  150.6595  139.5698  154.4552 O   0  0  0  0  0  0  0  0  0  0  0  0
  152.5088  142.1246  159.3628 C   0  0  0  0  0  0  0  0  0  0  0  0
  152.8209  142.0760  160.6759 N   0  0  0  0  0  0  0  0  0  0  0  0
  152.4749  143.8695  163.4734 H   0  0  0  0  0  0  0  0  0  0  0  0
  154.0111  143.1241  163.0166 H   0  0  0  0  0  0  0  0  0  0  0  0
  152.5886  142.1157  163.3134 H   0  0  0  0  0  0  0  0  0  0  0  0
  151.7897  145.1971  161.5454 H   0  0  0  0  0  0  0  0  0  0  0  0
  151.2181  145.2721  159.1124 H   0  0  0  0  0  0  0  0  0  0  0  0
  151.1310  144.1910  156.9871 H   0  0  0  0  0  0  0  0  0  0  0  0
  152.5179  143.1677  156.6749 H   0  0  0  0  0  0  0  0  0  0  0  0
  149.5237  143.3317  155.8381 H   0  0  0  0  0  0  0  0  0  0  0  0
  148.6426  140.5808  156.3027 H   0  0  0  0  0  0  0  0  0  0  0  0
  146.5415  141.3130  156.3704 H   0  0  0  0  0  0  0  0  0  0  0  0
  147.0886  142.9746  156.2890 H   0  0  0  0  0  0  0  0  0  0  0  0
  145.5078  141.9438  154.3251 H   0  0  0  0  0  0  0  0  0  0  0  0
  146.8133  143.0562  153.9276 H   0  0  0  0  0  0  0  0  0  0  0  0
  146.8719  140.0295  153.7727 H   0  0  0  0  0  0  0  0  0  0  0  0
  147.3306  141.1773  152.5190 H   0  0  0  0  0  0  0  0  0  0  0  0
  149.3087  141.8149  153.6323 H   0  0  0  0  0  0  0  0  0  0  0  0
  149.3392  137.8309  153.2402 H   0  0  0  0  0  0  0  0  0  0  0  0
  147.9494  138.8745  153.0234 H   0  0  0  0  0  0  0  0  0  0  0  0
  152.7304  141.2373  158.7881 H   0  0  0  0  0  0  0  0  0  0  0  0
  1  2  1  0  0  0  0
  1 20  1  0  0  0  0
  1 21  1  0  0  0  0
  1 22  1  0  0  0  0
  2 19  1  0  0  0  0
  2  3  2  0  0  0  0
  3  4  1  0  0  0  0
  3 23  1  0  0  0  0
  4  5  2  0  0  0  0
  4 24  1  0  0  0  0
  5  6  1  0  0  0  0
  5 18  1  0  0  0  0
  6  7  1  0  0  0  0
  6 25  1  0  0  0  0
  6 26  1  0  0  0  0
  7  8  2  0  0  0  0
  7  9  1  0  0  0  0
  9 10  1  0  0  0  0
  9 27  1  0  0  0  0
 10 14  1  0  0  0  0
 10 11  1  0  0  0  0
 10 28  1  0  0  0  0
 11 12  1  0  0  0  0
 11 29  1  0  0  0  0
 11 30  1  0  0  0  0
 12 13  1  0  0  0  0
 12 31  1  0  0  0  0
 12 32  1  0  0  0  0
 13 14  1  0  0  0  0
 13 33  1  0  0  0  0
 13 34  1  0  0  0  0
 14 15  1  0  0  0  0
 14 35  1  0  0  0  0
 15 16  1  0  0  0  0
 15 17  2  0  0  0  0
 16 36  1  0  0  0  0
 16 37  1  0  0  0  0
 18 19  2  0  0  0  0
 18 38  1  0  0  0  0
M  END
> <s_m_source_file>
AV-unprocessed.smi

> <i_m_source_file_index>
651

> <i_lp_mmshare_version>
43012

> <i_f3d_flags>
0

> <s_epik_input>
W0NIM11jMVtjSF1bY0hdYyhbY0hdbjEpW0NIMl1DKD1PKVtOSF1bQ0BASF0yW0NIMl1bQ0gyXVtDSDJdW0NASF0yQyg9TylbTkgyXQ==

> <s_epik_cmdline>
J2VwaWtfcHl0aG9uJywgJy1waCcsICc3LjAnLCAnLXRuJywgJzgnLCAnLW1hJywgJzIwMCcsICctbWV0YWxfYmluZGluZycsICctaW1hZScsICc8aW5maWxlLm1hZT4nLCAnLW9tYWUnLCAnPG91dGZpbGUubWFlPic=

> <r_epik_Ionization_Penalty>
0.0159502

> <r_epik_Ionization_Penalty_Charging>
0

> <r_epik_Ionization_Penalty_Neutral>
0.0159502

> <r_epik_State_Penalty>
0.012563

> <r_epik_Charging_Adjusted_Penalty>
0.012563

> <i_epik_Tot_Q>
0

> <i_epik_Tot_abs_Q>
0

> <r_epik_Metal_State_Penalty>
0.0122326

> <b_epik_Metal_Only>
0

> <s_lp_Force_Field>
OPLS_2005

> <r_lp_Energy>
14.6818

> <b_lp_Chiralities_Consistent>
1

> <s_lp_Variant>
AV-unprocessed.smi:651-4

> <Gold.Version>
5.8.1

> <Gold.Id.Protein>
6NUR|6NUR_protein|mol2

> <Gold.PLP.Fitness>
52.7198

> <Gold.PLP.PLP>
-45.5976

> <Gold.PLP.part.hbond>
-4.0000

> <Gold.PLP.part.metal>
0.0000

> <Gold.PLP.part.buried>
-4.7471

> <Gold.PLP.part.nonpolar>
-37.1243

> <Gold.PLP.part.repulsive>
0.3242

> <Gold.PLP.ligand.clash>
0.0000

> <Gold.PLP.ligand.torsion>
0.3874

> <Gold.PLP.Chemscore.Hbond>
2.6224

> <Gold.PLP.Chemscore.CHOScore>
0.0000

> <Gold.PLP.Chemscore.Metal>
0.0000

> <Gold.Chemscore.Hbonds>
donor molecule, donor type, donor heavy atom, donor atom, acceptor molecule, acceptor atom, score
      L1  H     9    27       P1  8028  1.00
      L1  H    16    36       P1  7948  0.50
      P1  H  7989  7998       L1    17  1.00

> <Gold.PLP.Chemscore.Internal.Correction>
0.0297

> <Gold.Rescore>
     Score         DG    S(hbond)    S(metal)    S(lipo)     H(rot)  DE(clash)    DE(int)     intcor
     18.74     -22.42       2.76        0.00     109.00       1.97       2.12       1.56       ----

> <Gold.Chemscore.Fitness>
18.7351

> <Gold.Chemscore.DG>
-22.4229

> <Gold.Chemscore.ZeroCoef>
-5.4800

> <Gold.Chemscore.Hbond>
2.7649

> <Gold.Chemscore.Metal>
0.0000

> <Gold.Chemscore.Lipo>
108.9951

> <Gold.Chemscore.Internal_Hbond>
0.0000

> <Gold.Chemscore.DEClash>
2.1229

> <Gold.Chemscore.DEInternal>
1.5649

> <Gold.Chemscore.Rot>
1.9704

> <Gold.Chemscore.Internal.Correction>
   9.000000E+99

> <Gold.Chemscore.Hbonds>
donor molecule, donor type, donor heavy atom, donor atom, acceptor molecule, acceptor atom, score
      L1  H     9    27       P1  8028  0.93
      L1  H    16    36       P1  7948  0.49
      P1  H  7989  7998       L1    17  0.35

> <Gold.Chemscore.Hbond.Weighted>
-9.2347

> <Gold.Chemscore.Metal.Weighted>
-0.0000

> <Gold.Chemscore.Lipo.Weighted>
-12.7524

> <Gold.Chemscore.Internal_Hbond.Weighted>
0.0000

> <Gold.Chemscore.DEClash.Weighted>
2.1229

> <Gold.Chemscore.DEInternal.Weighted>
1.5649

> <Gold.Chemscore.Rot.Weighted>
5.0443

> <Gold.Chemscore.Internal.Correction.Weighted>
   9.000000E+99

> <Gold.Protein.RotatedTorsions>
[ 6907 6896 6895 6894 ] final   89.81 input  -60.11 | X-H torsion
[ 7974 7965 7964 7962 ] final  140.04 input  175.53 | X-H torsion
[ 8008 7997 7996 7995 ] final   28.39 input   59.86 | X-H torsion
[ 10167 10162 10161 10158 ] final   84.67 input  -65.29 | X-H torsion
[ 10718 10713 10712 10709 ] final  127.90 input   66.30 | X-H torsion
[ 10763 10752 10751 10750 ] final   26.77 input  -60.55 | X-H torsion
[ 11005 11000 10999 10996 ] final   25.30 input  -57.11 | X-H torsion

> <Gold.Protein.ActiveResidues>
 VAL166  LYS551  ARG553  GLY616  TRP617  ASP618  TYR619  PRO620  LYS621  CYS622 
 ASP623  PHE694  ASN695  SER759  ASP760  ASP761  ALA762  ILE779  LEU786  VAL792 
 PHE793  MET794  SER795  GLU796  ALA797  LYS798  CYS799  TRP800  GLU811  SER814 

> <Gold.Protein.RotatedAtoms>
  152.5439  134.1908  159.8672 H   0  0  0  0  0  0  0  0  0  0  0  0  # atno 6907 bound_to 6896
  151.1904  133.4664  159.2602 H   0  0  0  0  0  0  0  0  0  0  0  0  # atno 6908 bound_to 6896
  151.1089  135.0027  159.8540 H   0  0  0  0  0  0  0  0  0  0  0  0  # atno 6909 bound_to 6896
  144.9223  139.5152  143.5657 H   0  0  0  0  0  0  0  0  0  0  0  0  # atno 7974 bound_to 7965
  155.0579  140.3187  155.4670 H   0  0  0  0  0  0  0  0  0  0  0  0  # atno 8008 bound_to 7997
  156.2820  140.2134  156.5650 H   0  0  0  0  0  0  0  0  0  0  0  0  # atno 8009 bound_to 7997
  154.7156  140.0494  157.0579 H   0  0  0  0  0  0  0  0  0  0  0  0  # atno 8010 bound_to 7997
  139.9056  144.6303  150.8591 H   0  0  0  0  0  0  0  0  0  0  0  0  # atno 10167 bound_to 10162
  157.5292  131.1098  150.9035 H   0  0  0  0  0  0  0  0  0  0  0  0  # atno 10718 bound_to 10713
  153.0600  135.6552  154.0486 H   0  0  0  0  0  0  0  0  0  0  0  0  # atno 10763 bound_to 10752
  154.0155  135.2924  155.3389 H   0  0  0  0  0  0  0  0  0  0  0  0  # atno 10764 bound_to 10752
  154.6934  135.5274  153.8491 H   0  0  0  0  0  0  0  0  0  0  0  0  # atno 10765 bound_to 10752
  140.3494  134.2246  155.7681 H   0  0  0  0  0  0  0  0  0  0  0  0  # atno 11005 bound_to 11000
  146.3210  139.8112  142.8945 LP  0  0  0  0  0  0  0  0  0  0  0  0  # atno 17320 bound_to 7965
  145.3276  141.0259  143.3465 LP  0  0  0  0  0  0  0  0  0  0  0  0  # atno 17321 bound_to 7965
  140.7697  143.3404  151.2221 LP  0  0  0  0  0  0  0  0  0  0  0  0  # atno 17342 bound_to 10162
  139.6987  143.9570  152.2895 LP  0  0  0  0  0  0  0  0  0  0  0  0  # atno 17343 bound_to 10162
  156.9621  130.5459  149.5286 LP  0  0  0  0  0  0  0  0  0  0  0  0  # atno 17370 bound_to 10713
  156.0410  130.5492  150.8770 LP  0  0  0  0  0  0  0  0  0  0  0  0  # atno 17371 bound_to 10713
  141.2016  133.7957  157.0430 LP  0  0  0  0  0  0  0  0  0  0  0  0  # atno 17394 bound_to 11000
  140.0716  134.9699  157.1476 LP  0  0  0  0  0  0  0  0  0  0  0  0  # atno 17395 bound_to 11000

$$$$
