AV-unprocessed.smi:654|AV-procd|sdf|3212|dock5
  -GOLD-   22720 0153D 1   1.00000     0.00000
 Structure written by MMmdl.
 47 49  0  0  0  0  0  0  0  0  1 V2000
  146.7268  137.1570  154.9636 O   0  0  0  0  0  0  0  0  0  0  0  0
  146.3453  138.2335  154.5023 C   0  0  0  0  0  0  0  0  0  0  0  0
  145.4279  138.3034  153.5235 N   0  0  0  0  0  0  0  0  0  0  0  0
  144.7175  137.1657  152.9491 C   0  0  0  0  0  0  0  0  0  0  0  0
  145.2789  136.7586  151.5728 C   0  0  0  0  0  0  0  0  0  0  0  0
  145.2917  135.2554  151.3514 C   0  0  0  0  0  0  0  0  0  0  0  0
  144.2931  134.6309  150.5767 C   0  0  0  0  0  0  0  0  0  0  0  0
  144.3357  133.2327  150.4147 C   0  0  0  0  0  0  0  0  0  0  0  0
  145.3793  132.5171  151.0353 C   0  0  0  0  0  0  0  0  0  0  0  0
  146.3416  133.1044  151.7787 N   0  0  0  0  0  0  0  0  0  0  0  0
  146.2941  134.4454  151.9279 C   0  0  0  0  0  0  0  0  0  0  0  0
  146.8201  139.4342  154.9222 N   0  0  0  0  0  0  0  0  0  0  0  0
  146.5052  140.7455  154.3345 C   0  0  0  0  0  0  0  0  0  0  0  0
  147.7081  141.2222  153.5110 C   0  0  0  0  0  0  0  0  0  0  0  0
  149.1669  141.4556  154.5730 S   0  0  0  0  0  0  0  0  0  0  0  0
  149.2191  139.8655  155.4857 C   0  0  0  0  0  0  0  0  0  0  0  0
  149.7438  138.7263  154.5698 C   0  0  0  0  0  0  0  0  0  0  0  0
  151.2249  138.8856  154.1828 C   0  0  0  0  0  0  0  0  0  0  0  0
  152.1169  139.0129  155.4243 C   0  0  0  0  0  0  0  0  0  0  0  0
  151.6482  140.1692  156.3167 C   0  0  0  0  0  0  0  0  0  0  0  0
  150.1666  140.0085  156.7036 C   0  0  0  0  0  0  0  0  0  0  0  0
  147.7940  139.5510  156.0174 C   0  0  0  0  0  0  0  0  0  0  0  0
  145.1714  139.2185  153.1830 H   0  0  0  0  0  0  0  0  0  0  0  0
  144.8232  136.3331  153.6451 H   0  0  0  0  0  0  0  0  0  0  0  0
  143.6490  137.3753  152.8806 H   0  0  0  0  0  0  0  0  0  0  0  0
  144.6939  137.2296  150.7821 H   0  0  0  0  0  0  0  0  0  0  0  0
  146.2948  137.1406  151.4632 H   0  0  0  0  0  0  0  0  0  0  0  0
  143.5053  135.2111  150.1190 H   0  0  0  0  0  0  0  0  0  0  0  0
  143.5859  132.7204  149.8302 H   0  0  0  0  0  0  0  0  0  0  0  0
  145.4423  131.4438  150.9324 H   0  0  0  0  0  0  0  0  0  0  0  0
  147.0733  134.8832  152.5346 H   0  0  0  0  0  0  0  0  0  0  0  0
  145.6089  140.7384  153.7140 H   0  0  0  0  0  0  0  0  0  0  0  0
  146.2884  141.4642  155.1261 H   0  0  0  0  0  0  0  0  0  0  0  0
  147.9425  140.5060  152.7230 H   0  0  0  0  0  0  0  0  0  0  0  0
  147.4808  142.1693  153.0215 H   0  0  0  0  0  0  0  0  0  0  0  0
  149.6212  137.7708  155.0818 H   0  0  0  0  0  0  0  0  0  0  0  0
  149.1492  138.6535  153.6598 H   0  0  0  0  0  0  0  0  0  0  0  0
  151.5424  138.0291  153.5877 H   0  0  0  0  0  0  0  0  0  0  0  0
  151.3526  139.7622  153.5469 H   0  0  0  0  0  0  0  0  0  0  0  0
  152.0931  138.0805  155.9899 H   0  0  0  0  0  0  0  0  0  0  0  0
  153.1539  139.1682  155.1251 H   0  0  0  0  0  0  0  0  0  0  0  0
  152.2611  140.2107  157.2175 H   0  0  0  0  0  0  0  0  0  0  0  0
  151.8021  141.1177  155.8012 H   0  0  0  0  0  0  0  0  0  0  0  0
  149.8589  140.8542  157.3195 H   0  0  0  0  0  0  0  0  0  0  0  0
  150.0735  139.1266  157.3395 H   0  0  0  0  0  0  0  0  0  0  0  0
  147.4707  140.3375  156.7012 H   0  0  0  0  0  0  0  0  0  0  0  0
  147.8177  138.6477  156.6290 H   0  0  0  0  0  0  0  0  0  0  0  0
  1  2  2  0  0  0  0
  2  3  1  0  0  0  0
  2 12  1  0  0  0  0
  3  4  1  0  0  0  0
  3 23  1  0  0  0  0
  4  5  1  0  0  0  0
  4 24  1  0  0  0  0
  4 25  1  0  0  0  0
  5  6  1  0  0  0  0
  5 26  1  0  0  0  0
  5 27  1  0  0  0  0
  6 11  1  0  0  0  0
  6  7  2  0  0  0  0
  7  8  1  0  0  0  0
  7 28  1  0  0  0  0
  8  9  2  0  0  0  0
  8 29  1  0  0  0  0
  9 10  1  0  0  0  0
  9 30  1  0  0  0  0
 10 11  2  0  0  0  0
 11 31  1  0  0  0  0
 12 22  1  0  0  0  0
 12 13  1  0  0  0  0
 13 14  1  0  0  0  0
 13 32  1  0  0  0  0
 13 33  1  0  0  0  0
 14 15  1  0  0  0  0
 14 34  1  0  0  0  0
 14 35  1  0  0  0  0
 15 16  1  0  0  0  0
 16 21  1  0  0  0  0
 16 17  1  0  0  0  0
 16 22  1  0  0  0  0
 17 18  1  0  0  0  0
 17 36  1  0  0  0  0
 17 37  1  0  0  0  0
 18 19  1  0  0  0  0
 18 38  1  0  0  0  0
 18 39  1  0  0  0  0
 19 20  1  0  0  0  0
 19 40  1  0  0  0  0
 19 41  1  0  0  0  0
 20 21  1  0  0  0  0
 20 42  1  0  0  0  0
 20 43  1  0  0  0  0
 21 44  1  0  0  0  0
 21 45  1  0  0  0  0
 22 46  1  0  0  0  0
 22 47  1  0  0  0  0
M  END
> <s_m_source_file>
AV-unprocessed.smi

> <i_m_source_file_index>
654

> <i_lp_mmshare_version>
43012

> <i_f3d_flags>
0

> <s_epik_input>
W2NIXTFuW2NIXVtjSF1bY0hdYzFbQ0gyXVtDSDJdW05IXUMoPU8pTihbQ0gyXTIpW0NIMl1bQ0gyXVNDMjNbQ0gyXVtDSDJdW0NIMl1bQ0gyXVtDSDJdMw==

> <s_epik_cmdline>
J2VwaWtfcHl0aG9uJywgJy1waCcsICc3LjAnLCAnLXRuJywgJzgnLCAnLW1hJywgJzIwMCcsICctbWV0YWxfYmluZGluZycsICctaW1hZScsICc8aW5maWxlLm1hZT4nLCAnLW9tYWUnLCAnPG91dGZpbGUubWFlPic=

> <r_epik_Ionization_Penalty>
0.0144586

> <r_epik_Ionization_Penalty_Charging>
0

> <r_epik_Ionization_Penalty_Neutral>
0.0144586

> <r_epik_State_Penalty>
0.0112665

> <r_epik_Charging_Adjusted_Penalty>
0.0112665

> <i_epik_Tot_Q>
0

> <i_epik_Tot_abs_Q>
0

> <r_epik_Metal_State_Penalty>
0.0109983

> <b_epik_Metal_Only>
0

> <s_lp_Force_Field>
OPLS_2005

> <r_lp_Energy>
31.4252

> <b_lp_Chiralities_Consistent>
1

> <s_lp_Variant>
AV-unprocessed.smi:654-1

> <Gold.Version>
5.8.1

> <Gold.Id.Protein>
6NUR|6NUR_protein|mol2

> <Gold.PLP.Fitness>
38.3145

> <Gold.PLP.PLP>
-33.8471

> <Gold.PLP.part.hbond>
-1.0000

> <Gold.PLP.part.metal>
0.0000

> <Gold.PLP.part.buried>
-1.8968

> <Gold.PLP.part.nonpolar>
-31.2697

> <Gold.PLP.part.repulsive>
0.1926

> <Gold.PLP.ligand.clash>
0.0000

> <Gold.PLP.ligand.torsion>
0.6449

> <Gold.PLP.Chemscore.Hbond>
0.9357

> <Gold.PLP.Chemscore.CHOScore>
0.9819

> <Gold.PLP.Chemscore.Metal>
0.0000

> <Gold.Chemscore.Hbonds>
donor molecule, donor type, donor heavy atom, donor atom, acceptor molecule, acceptor atom, score
      L1  H     3    23       P1 10175  0.84
      L1  C    11    31       P1  7948  0.97

> <Gold.PLP.Chemscore.Internal.Correction>
0.0042

> <Gold.Rescore>
     Score         DG    S(hbond)    S(metal)    S(lipo)     H(rot)  DE(clash)    DE(int)     intcor
     16.11     -16.83       0.89        0.00      98.44       1.23       0.24       0.47       ----

> <Gold.Chemscore.Fitness>
16.1133

> <Gold.Chemscore.DG>
-16.8269

> <Gold.Chemscore.ZeroCoef>
-5.4800

> <Gold.Chemscore.Hbond>
0.8899

> <Gold.Chemscore.Metal>
0.0000

> <Gold.Chemscore.Lipo>
98.4398

> <Gold.Chemscore.Internal_Hbond>
0.0000

> <Gold.Chemscore.DEClash>
0.2394

> <Gold.Chemscore.DEInternal>
0.4742

> <Gold.Chemscore.Rot>
1.2276

> <Gold.Chemscore.Internal.Correction>
   9.000000E+99

> <Gold.Chemscore.Hbonds>
donor molecule, donor type, donor heavy atom, donor atom, acceptor molecule, acceptor atom, score
      L1  H     3    23       P1 10175  0.79

> <Gold.Chemscore.Hbond.Weighted>
-2.9722

> <Gold.Chemscore.Metal.Weighted>
-0.0000

> <Gold.Chemscore.Lipo.Weighted>
-11.5175

> <Gold.Chemscore.Internal_Hbond.Weighted>
0.0000

> <Gold.Chemscore.DEClash.Weighted>
0.2394

> <Gold.Chemscore.DEInternal.Weighted>
0.4742

> <Gold.Chemscore.Rot.Weighted>
3.1427

> <Gold.Chemscore.Internal.Correction.Weighted>
   9.000000E+99

> <Gold.Protein.RotatedTorsions>
[ 6907 6896 6895 6894 ] final  160.29 input  -60.11 | X-H torsion
[ 7974 7965 7964 7962 ] final   80.40 input  175.53 | X-H torsion
[ 8008 7997 7996 7995 ] final -154.03 input   59.86 | X-H torsion
[ 10167 10162 10161 10158 ] final  178.78 input  -65.29 | X-H torsion
[ 10718 10713 10712 10709 ] final -131.82 input   66.30 | X-H torsion
[ 10763 10752 10751 10750 ] final   78.31 input  -60.55 | X-H torsion
[ 11005 11000 10999 10996 ] final   21.19 input  -57.11 | X-H torsion

> <Gold.Protein.ActiveResidues>
 VAL166  LYS551  ARG553  GLY616  TRP617  ASP618  TYR619  PRO620  LYS621  CYS622 
 ASP623  PHE694  ASN695  SER759  ASP760  ASP761  ALA762  ILE779  LEU786  VAL792 
 PHE793  MET794  SER795  GLU796  ALA797  LYS798  CYS799  TRP800  GLU811  SER814 

> <Gold.Protein.RotatedAtoms>
  151.9729  133.3732  159.4077 H   0  0  0  0  0  0  0  0  0  0  0  0  # atno 6907 bound_to 6896
  150.6946  134.4121  159.5176 H   0  0  0  0  0  0  0  0  0  0  0  0  # atno 6908 bound_to 6896
  152.1828  134.8739  160.0575 H   0  0  0  0  0  0  0  0  0  0  0  0  # atno 6909 bound_to 6896
  145.6517  139.2449  143.1973 H   0  0  0  0  0  0  0  0  0  0  0  0  # atno 7974 bound_to 7965
  155.6800  140.0743  157.2488 H   0  0  0  0  0  0  0  0  0  0  0  0  # atno 8008 bound_to 7997
  154.4107  140.1683  156.2024 H   0  0  0  0  0  0  0  0  0  0  0  0  # atno 8009 bound_to 7997
  155.9543  140.3375  155.6437 H   0  0  0  0  0  0  0  0  0  0  0  0  # atno 8010 bound_to 7997
  139.5308  144.2639  152.0684 H   0  0  0  0  0  0  0  0  0  0  0  0  # atno 10167 bound_to 10162
  156.2283  130.7021  151.0830 H   0  0  0  0  0  0  0  0  0  0  0  0  # atno 10718 bound_to 10713
  153.0864  135.4882  154.8605 H   0  0  0  0  0  0  0  0  0  0  0  0  # atno 10763 bound_to 10752
  154.7216  135.3040  154.9041 H   0  0  0  0  0  0  0  0  0  0  0  0  # atno 10764 bound_to 10752
  153.9703  135.6802  153.4800 H   0  0  0  0  0  0  0  0  0  0  0  0  # atno 10765 bound_to 10752
  140.3943  134.1786  155.7663 H   0  0  0  0  0  0  0  0  0  0  0  0  # atno 11005 bound_to 11000
  146.1198  140.7323  142.9463 LP  0  0  0  0  0  0  0  0  0  0  0  0  # atno 17320 bound_to 7965
  144.7120  140.4074  143.7073 LP  0  0  0  0  0  0  0  0  0  0  0  0  # atno 17321 bound_to 7965
  140.2102  144.4570  150.6389 LP  0  0  0  0  0  0  0  0  0  0  0  0  # atno 17342 bound_to 10162
  140.6485  143.2219  151.6131 LP  0  0  0  0  0  0  0  0  0  0  0  0  # atno 17343 bound_to 10162
  157.7121  131.0729  150.6463 LP  0  0  0  0  0  0  0  0  0  0  0  0  # atno 17370 bound_to 10713
  156.6530  130.4490  149.5713 LP  0  0  0  0  0  0  0  0  0  0  0  0  # atno 17371 bound_to 10713
  141.1880  133.8270  157.1012 LP  0  0  0  0  0  0  0  0  0  0  0  0  # atno 17394 bound_to 11000
  140.0383  134.9867  157.0914 LP  0  0  0  0  0  0  0  0  0  0  0  0  # atno 17395 bound_to 11000

$$$$
