AV-unprocessed.smi:1202|AV-procd|sdf|5028|dock6
  -GOLD-   22720 4 53D 1   1.00000     0.00000
 Structure written by MMmdl.
 44 45  0  0  0  0  0  0  0  0  1 V2000
  145.9788  138.3088  151.4947 C   0  0  0  0  0  0  0  0  0  0  0  0
  146.7955  137.9365  152.6393 N   0  0  0  0  0  0  0  0  0  0  0  0
  146.3800  137.9955  153.9129 C   0  0  0  0  0  0  0  0  0  0  0  0
  145.2555  138.3754  154.2401 O   0  0  0  0  0  0  0  0  0  0  0  0
  147.3825  137.5510  154.9851 C   0  0  0  0  0  0  0  0  0  0  0  0
  148.2540  138.6329  155.4986 N   0  0  0  0  0  0  0  0  0  0  0  0
  147.4703  139.5044  156.3819 C   0  0  0  0  0  0  0  0  0  0  0  0
  148.3721  140.5602  157.0450 C   0  0  0  0  0  0  0  0  0  0  0  0
  149.0882  141.4045  155.9772 C   0  0  0  0  0  0  0  0  0  0  0  0
  149.9455  142.4463  156.5471 N   0  0  0  0  0  0  0  0  0  0  0  0
  151.0748  142.2858  157.2577 C   0  0  0  0  0  0  0  0  0  0  0  0
  151.5495  141.1871  157.5476 O   0  0  0  0  0  0  0  0  0  0  0  0
  151.7557  143.5798  157.7262 C   0  0  0  0  0  0  0  0  0  0  0  0
  152.0894  143.5768  159.1604 N   0  0  0  0  0  0  0  0  0  0  0  0
  152.8354  142.4833  159.6437 C   0  0  0  0  0  0  0  0  0  0  0  0
  153.1947  142.3835  160.9333 C   0  0  0  0  0  0  0  0  0  0  0  0
  152.7951  143.4364  161.8366 C   0  0  0  0  0  0  0  0  0  0  0  0
  152.0847  144.4887  161.3841 C   0  0  0  0  0  0  0  0  0  0  0  0
  151.6926  144.6035  159.9747 C   0  0  0  0  0  0  0  0  0  0  0  0
  151.0463  145.5628  159.5523 O   0  0  0  0  0  0  0  0  0  0  0  0
  149.8326  140.4754  155.0028 C   0  0  0  0  0  0  0  0  0  0  0  0
  148.8778  139.4173  154.4211 C   0  0  0  0  0  0  0  0  0  0  0  0
  146.5325  138.1388  150.5712 H   0  0  0  0  0  0  0  0  0  0  0  0
  145.7058  139.3639  151.5401 H   0  0  0  0  0  0  0  0  0  0  0  0
  145.0654  137.7140  151.4588 H   0  0  0  0  0  0  0  0  0  0  0  0
  147.7335  137.6121  152.4533 H   0  0  0  0  0  0  0  0  0  0  0  0
  146.8515  137.0821  155.8160 H   0  0  0  0  0  0  0  0  0  0  0  0
  148.0005  136.7722  154.5357 H   0  0  0  0  0  0  0  0  0  0  0  0
  146.6682  139.9894  155.8227 H   0  0  0  0  0  0  0  0  0  0  0  0
  146.9962  138.9090  157.1634 H   0  0  0  0  0  0  0  0  0  0  0  0
  147.7740  141.2031  157.6916 H   0  0  0  0  0  0  0  0  0  0  0  0
  149.0930  140.0564  157.6898 H   0  0  0  0  0  0  0  0  0  0  0  0
  148.3242  141.9363  155.4086 H   0  0  0  0  0  0  0  0  0  0  0  0
  149.6486  143.3963  156.3767 H   0  0  0  0  0  0  0  0  0  0  0  0
  152.6561  143.7523  157.1334 H   0  0  0  0  0  0  0  0  0  0  0  0
  151.0945  144.4145  157.4894 H   0  0  0  0  0  0  0  0  0  0  0  0
  153.1004  141.7429  158.9029 H   0  0  0  0  0  0  0  0  0  0  0  0
  153.7705  141.5400  161.2847 H   0  0  0  0  0  0  0  0  0  0  0  0
  153.0681  143.3807  162.8801 H   0  0  0  0  0  0  0  0  0  0  0  0
  151.7953  145.2673  162.0748 H   0  0  0  0  0  0  0  0  0  0  0  0
  150.2733  141.0587  154.1934 H   0  0  0  0  0  0  0  0  0  0  0  0
  150.6581  139.9685  155.5035 H   0  0  0  0  0  0  0  0  0  0  0  0
  149.4548  138.7762  153.7548 H   0  0  0  0  0  0  0  0  0  0  0  0
  148.1088  139.8946  153.8112 H   0  0  0  0  0  0  0  0  0  0  0  0
  1  2  1  0  0  0  0
  1 23  1  0  0  0  0
  1 24  1  0  0  0  0
  1 25  1  0  0  0  0
  2  3  1  0  0  0  0
  2 26  1  0  0  0  0
  3  4  2  0  0  0  0
  3  5  1  0  0  0  0
  5  6  1  0  0  0  0
  5 27  1  0  0  0  0
  5 28  1  0  0  0  0
  6 22  1  0  0  0  0
  6  7  1  0  0  0  0
  7  8  1  0  0  0  0
  7 29  1  0  0  0  0
  7 30  1  0  0  0  0
  8  9  1  0  0  0  0
  8 31  1  0  0  0  0
  8 32  1  0  0  0  0
  9 10  1  0  0  0  0
  9 21  1  0  0  0  0
  9 33  1  0  0  0  0
 10 11  1  0  0  0  0
 10 34  1  0  0  0  0
 11 12  2  0  0  0  0
 11 13  1  0  0  0  0
 13 14  1  0  0  0  0
 13 35  1  0  0  0  0
 13 36  1  0  0  0  0
 14 19  1  0  0  0  0
 14 15  1  0  0  0  0
 15 16  2  0  0  0  0
 15 37  1  0  0  0  0
 16 17  1  0  0  0  0
 16 38  1  0  0  0  0
 17 18  2  0  0  0  0
 17 39  1  0  0  0  0
 18 19  1  0  0  0  0
 18 40  1  0  0  0  0
 19 20  2  0  0  0  0
 21 22  1  0  0  0  0
 21 41  1  0  0  0  0
 21 42  1  0  0  0  0
 22 43  1  0  0  0  0
 22 44  1  0  0  0  0
M  END
> <s_m_source_file>
AV-unprocessed.smi

> <i_m_source_file_index>
1202

> <i_lp_mmshare_version>
43012

> <i_f3d_flags>
0

> <s_epik_input>
W0NIM11bTkhdQyg9TylbQ0gyXU4xW0NIMl1bQ0gyXVtDSF0oW0NIMl1bQ0gyXTEpW05IXUMoPU8pW0NIMl1uMltjSF1bY0hdW2NIXVtjSF1jMj1P

> <s_epik_cmdline>
J2VwaWtfcHl0aG9uJywgJy1waCcsICc3LjAnLCAnLXRuJywgJzgnLCAnLW1hJywgJzIwMCcsICctbWV0YWxfYmluZGluZycsICctaW1hZScsICc8aW5maWxlLm1hZT4nLCAnLW9tYWUnLCAnPG91dGZpbGUubWFlPic=

> <r_lp_tautomer_probability>
1

> <r_epik_Ionization_Penalty>
0.12485

> <r_epik_Ionization_Penalty_Charging>
3.59605e-07

> <r_epik_Ionization_Penalty_Neutral>
0.12485

> <r_epik_State_Penalty>
0.114323

> <r_epik_Charging_Adjusted_Penalty>
0.114323

> <i_epik_Tot_Q>
0

> <i_epik_Tot_abs_Q>
0

> <r_epik_Metal_State_Penalty>
0.117995

> <b_epik_Metal_Only>
0

> <s_lp_Force_Field>
OPLS_2005

> <r_lp_Energy>
24.2751

> <b_lp_Chiralities_Consistent>
1

> <s_lp_Variant>
AV-unprocessed.smi:1202-1

> <Gold.Version>
5.8.1

> <Gold.Id.Protein>
6NUR|6NUR_protein|mol2

> <Gold.PLP.Fitness>
46.2823

> <Gold.PLP.PLP>
-41.7402

> <Gold.PLP.part.hbond>
-3.3253

> <Gold.PLP.part.metal>
0.0000

> <Gold.PLP.part.buried>
-2.0646

> <Gold.PLP.part.nonpolar>
-38.0901

> <Gold.PLP.part.repulsive>
0.5001

> <Gold.PLP.ligand.clash>
0.0000

> <Gold.PLP.ligand.torsion>
0.6391

> <Gold.PLP.Chemscore.Hbond>
1.9280

> <Gold.PLP.Chemscore.CHOScore>
0.0000

> <Gold.PLP.Chemscore.Metal>
0.0000

> <Gold.Chemscore.Hbonds>
donor molecule, donor type, donor heavy atom, donor atom, acceptor molecule, acceptor atom, score
      L1  H     2    26       P1  7948  1.00
      L1  H    10    34       P1  8028  1.00

> <Gold.PLP.Chemscore.Internal.Correction>
0.0363

> <Gold.Rescore>
     Score         DG    S(hbond)    S(metal)    S(lipo)     H(rot)  DE(clash)    DE(int)     intcor
     12.38     -16.86       1.96        0.00      89.16       2.19       1.60       2.88       ----

> <Gold.Chemscore.Fitness>
12.3805

> <Gold.Chemscore.DG>
-16.8602

> <Gold.Chemscore.ZeroCoef>
-5.4800

> <Gold.Chemscore.Hbond>
1.9609

> <Gold.Chemscore.Metal>
0.0000

> <Gold.Chemscore.Lipo>
89.1552

> <Gold.Chemscore.Internal_Hbond>
0.0000

> <Gold.Chemscore.DEClash>
1.5961

> <Gold.Chemscore.DEInternal>
2.8836

> <Gold.Chemscore.Rot>
2.1877

> <Gold.Chemscore.Internal.Correction>
   9.000000E+99

> <Gold.Chemscore.Hbonds>
donor molecule, donor type, donor heavy atom, donor atom, acceptor molecule, acceptor atom, score
      L1  H     2    26       P1  7948  0.95
      L1  H    10    34       P1  8028  1.00

> <Gold.Chemscore.Hbond.Weighted>
-6.5495

> <Gold.Chemscore.Metal.Weighted>
-0.0000

> <Gold.Chemscore.Lipo.Weighted>
-10.4312

> <Gold.Chemscore.Internal_Hbond.Weighted>
0.0000

> <Gold.Chemscore.DEClash.Weighted>
1.5961

> <Gold.Chemscore.DEInternal.Weighted>
2.8836

> <Gold.Chemscore.Rot.Weighted>
5.6005

> <Gold.Chemscore.Internal.Correction.Weighted>
   9.000000E+99

> <Gold.Protein.RotatedTorsions>
[ 6907 6896 6895 6894 ] final -145.28 input  -60.11 | X-H torsion
[ 7974 7965 7964 7962 ] final   51.39 input  175.53 | X-H torsion
[ 8008 7997 7996 7995 ] final   19.47 input   59.86 | X-H torsion
[ 10167 10162 10161 10158 ] final   72.50 input  -65.29 | X-H torsion
[ 10718 10713 10712 10709 ] final   35.85 input   66.30 | X-H torsion
[ 10763 10752 10751 10750 ] final  -94.16 input  -60.55 | X-H torsion
[ 11005 11000 10999 10996 ] final  -39.55 input  -57.11 | X-H torsion

> <Gold.Protein.ActiveResidues>
 VAL166  LYS551  ARG553  GLY616  TRP617  ASP618  TYR619  PRO620  LYS621  CYS622 
 ASP623  PHE694  ASN695  SER759  ASP760  ASP761  ALA762  ILE779  LEU786  VAL792 
 PHE793  MET794  SER795  GLU796  ALA797  LYS798  CYS799  TRP800  GLU811  SER814 

> <Gold.Protein.RotatedAtoms>
  151.1256  133.5073  159.2600 H   0  0  0  0  0  0  0  0  0  0  0  0  # atno 6907 bound_to 6896
  151.1813  135.0362  159.8803 H   0  0  0  0  0  0  0  0  0  0  0  0  # atno 6908 bound_to 6896
  152.5458  134.1108  159.8411 H   0  0  0  0  0  0  0  0  0  0  0  0  # atno 6909 bound_to 6896
  145.9918  139.4347  143.0069 H   0  0  0  0  0  0  0  0  0  0  0  0  # atno 7974 bound_to 7965
  154.9212  140.3027  155.5215 H   0  0  0  0  0  0  0  0  0  0  0  0  # atno 8008 bound_to 7997
  156.3009  140.2371  156.4198 H   0  0  0  0  0  0  0  0  0  0  0  0  # atno 8009 bound_to 7997
  154.8329  140.0417  157.1478 H   0  0  0  0  0  0  0  0  0  0  0  0  # atno 8010 bound_to 7997
  140.0346  144.5438  150.7481 H   0  0  0  0  0  0  0  0  0  0  0  0  # atno 10167 bound_to 10162
  157.3277  130.7481  149.6827 H   0  0  0  0  0  0  0  0  0  0  0  0  # atno 10718 bound_to 10713
  154.7029  135.5168  153.8552 H   0  0  0  0  0  0  0  0  0  0  0  0  # atno 10763 bound_to 10752
  153.0718  135.6603  154.0240 H   0  0  0  0  0  0  0  0  0  0  0  0  # atno 10764 bound_to 10752
  154.0096  135.3003  155.3373 H   0  0  0  0  0  0  0  0  0  0  0  0  # atno 10765 bound_to 10752
  141.0110  133.6908  156.2202 H   0  0  0  0  0  0  0  0  0  0  0  0  # atno 11005 bound_to 11000
  145.7618  140.9932  143.1196 LP  0  0  0  0  0  0  0  0  0  0  0  0  # atno 17320 bound_to 7965
  144.6891  139.9340  143.7473 LP  0  0  0  0  0  0  0  0  0  0  0  0  # atno 17321 bound_to 7965
  140.7287  143.2665  151.4029 LP  0  0  0  0  0  0  0  0  0  0  0  0  # atno 17342 bound_to 10162
  139.6054  144.1209  152.2243 LP  0  0  0  0  0  0  0  0  0  0  0  0  # atno 17343 bound_to 10162
  155.9692  130.4204  150.4422 LP  0  0  0  0  0  0  0  0  0  0  0  0  # atno 17370 bound_to 10713
  157.2448  131.0533  151.2415 LP  0  0  0  0  0  0  0  0  0  0  0  0  # atno 17371 bound_to 10713
  140.6733  134.4844  157.5588 LP  0  0  0  0  0  0  0  0  0  0  0  0  # atno 17394 bound_to 11000
  139.9090  134.8386  156.1598 LP  0  0  0  0  0  0  0  0  0  0  0  0  # atno 17395 bound_to 11000

$$$$
