AV-unprocessed.smi:1703|AV-procd|sdf|6866|dock10
  -GOLD-   22720 8 63D 1   1.00000     0.00000
 Structure written by MMmdl.
 49 51  0  0  0  0  0  0  0  0  2 V2000
  148.3016  133.3798  153.1092 C   0  0  0  0  0  0  0  0  0  0  0  0
  146.7705  133.4067  153.2653 C   0  0  1  0  0  0  0  0  0  0  0  0
  146.2058  134.8161  153.5289 C   0  0  0  0  0  0  0  0  0  0  0  0
  146.2507  135.6432  152.2983 N   0  3  2  0  0  0  0  0  0  0  0  0
  145.7920  137.0410  152.5004 C   0  0  0  0  0  0  0  0  0  0  0  0
  146.9608  138.0080  152.7715 C   0  0  1  0  0  0  0  0  0  0  0  0
  147.5631  138.3500  151.5374 O   0  0  0  0  0  0  0  0  0  0  0  0
  146.4899  139.2877  153.4910 C   0  0  0  0  0  0  0  0  0  0  0  0
  147.5981  140.1014  153.9735 N   0  0  0  0  0  0  0  0  0  0  0  0
  147.6470  141.4500  154.1178 C   0  0  0  0  0  0  0  0  0  0  0  0
  146.4924  142.3362  153.7626 C   0  0  0  0  0  0  0  0  0  0  0  0
  145.2973  141.9614  154.4135 O   0  0  0  0  0  0  0  0  0  0  0  0
  148.7917  141.9417  154.5926 N   0  0  0  0  0  0  0  0  0  0  0  0
  149.5606  140.8077  154.7678 C   0  0  0  0  0  0  0  0  0  0  0  0
  150.8820  140.6589  155.2466 C   0  0  0  0  0  0  0  0  0  0  0  0
  151.4682  139.3794  155.3388 C   0  0  0  0  0  0  0  0  0  0  0  0
  150.7436  138.2329  154.9538 C   0  0  0  0  0  0  0  0  0  0  0  0
  149.4258  138.3588  154.4740 C   0  0  0  0  0  0  0  0  0  0  0  0
  148.8443  139.6382  154.3855 C   0  0  0  0  0  0  0  0  0  0  0  0
  145.5362  134.9601  151.1961 C   0  0  0  0  0  0  0  0  0  0  0  0
  146.1409  133.5661  150.9487 C   0  0  2  0  0  0  0  0  0  0  0  0
  145.3703  132.7890  149.8757 C   0  0  0  0  0  0  0  0  0  0  0  0
  146.1001  132.8083  152.1556 O   0  0  0  0  0  0  0  0  0  0  0  0
  148.7884  133.7237  154.0222 H   0  0  0  0  0  0  0  0  0  0  0  0
  148.6482  134.0203  152.2987 H   0  0  0  0  0  0  0  0  0  0  0  0
  148.6542  132.3675  152.9105 H   0  0  0  0  0  0  0  0  0  0  0  0
  146.5322  132.7873  154.1305 H   0  0  0  0  0  0  0  0  0  0  0  0
  145.1710  134.7371  153.8665 H   0  0  0  0  0  0  0  0  0  0  0  0
  146.7629  135.2874  154.3378 H   0  0  0  0  0  0  0  0  0  0  0  0
  145.2557  137.3854  151.6145 H   0  0  0  0  0  0  0  0  0  0  0  0
  145.0723  137.0681  153.3203 H   0  0  0  0  0  0  0  0  0  0  0  0
  147.7162  137.5209  153.3863 H   0  0  0  0  0  0  0  0  0  0  0  0
  148.1019  139.1162  151.6645 H   0  0  0  0  0  0  0  0  0  0  0  0
  145.8782  139.8960  152.8233 H   0  0  0  0  0  0  0  0  0  0  0  0
  145.8471  139.0322  154.3335 H   0  0  0  0  0  0  0  0  0  0  0  0
  146.7291  143.3712  154.0074 H   0  0  0  0  0  0  0  0  0  0  0  0
  146.3278  142.2990  152.6851 H   0  0  0  0  0  0  0  0  0  0  0  0
  144.7826  141.4372  153.8192 H   0  0  0  0  0  0  0  0  0  0  0  0
  151.4459  141.5306  155.5435 H   0  0  0  0  0  0  0  0  0  0  0  0
  152.4786  139.2771  155.7066 H   0  0  0  0  0  0  0  0  0  0  0  0
  151.2000  137.2568  155.0276 H   0  0  0  0  0  0  0  0  0  0  0  0
  148.8695  137.4815  154.1798 H   0  0  0  0  0  0  0  0  0  0  0  0
  144.4763  134.8796  151.4437 H   0  0  0  0  0  0  0  0  0  0  0  0
  145.6089  135.5544  150.2843 H   0  0  0  0  0  0  0  0  0  0  0  0
  147.1733  133.6688  150.6141 H   0  0  0  0  0  0  0  0  0  0  0  0
  145.3795  133.3200  148.9236 H   0  0  0  0  0  0  0  0  0  0  0  0
  144.3299  132.6395  150.1654 H   0  0  0  0  0  0  0  0  0  0  0  0
  145.8146  131.8070  149.7115 H   0  0  0  0  0  0  0  0  0  0  0  0
  147.2188  135.7026  152.0146 H   0  0  0  0  0  0  0  0  0  0  0  0
  1  2  1  0  0  0  0
  1 24  1  0  0  0  0
  1 25  1  0  0  0  0
  1 26  1  0  0  0  0
  2 23  1  0  0  0  0
  2  3  1  0  0  0  0
  2 27  1  0  0  0  0
  3  4  1  0  0  0  0
  3 28  1  0  0  0  0
  3 29  1  0  0  0  0
  4  5  1  0  0  0  0
  4 20  1  0  0  0  0
  4 49  1  0  0  0  0
  5  6  1  0  0  0  0
  5 30  1  0  0  0  0
  5 31  1  0  0  0  0
  6  7  1  0  0  0  0
  6  8  1  0  0  0  0
  6 32  1  0  0  0  0
  7 33  1  0  0  0  0
  8  9  1  0  0  0  0
  8 34  1  0  0  0  0
  8 35  1  0  0  0  0
  9 19  1  0  0  0  0
  9 10  1  0  0  0  0
 10 11  1  0  0  0  0
 10 13  2  0  0  0  0
 11 12  1  0  0  0  0
 11 36  1  0  0  0  0
 11 37  1  0  0  0  0
 12 38  1  0  0  0  0
 13 14  1  0  0  0  0
 14 19  2  0  0  0  0
 14 15  1  0  0  0  0
 15 16  2  0  0  0  0
 15 39  1  0  0  0  0
 16 17  1  0  0  0  0
 16 40  1  0  0  0  0
 17 18  2  0  0  0  0
 17 41  1  0  0  0  0
 18 19  1  0  0  0  0
 18 42  1  0  0  0  0
 20 21  1  0  0  0  0
 20 43  1  0  0  0  0
 20 44  1  0  0  0  0
 21 22  1  0  0  0  0
 21 23  1  0  0  0  0
 21 45  1  0  0  0  0
 22 46  1  0  0  0  0
 22 47  1  0  0  0  0
 22 48  1  0  0  0  0
M  CHG  1   4   1
M  END
> <s_m_source_file>
AV-unprocessed.smi

> <i_m_source_file_index>
1703

> <i_lp_mmshare_version>
43012

> <i_f3d_flags>
0

> <s_epik_input>
W0NIM11bQ0BASF0xW0NIMl1OKFtDSDJdW0NASF0oTzEpW0NIM10pW0NIMl1bQ0BIXShbT0hdKVtDSDJdbihjKG4yKVtDSDJdW09IXSljKGMyMylbY0hdW2NIXVtjSF1bY0hdMw==

> <s_epik_cmdline>
J2VwaWtfcHl0aG9uJywgJy1waCcsICc3LjAnLCAnLXRuJywgJzgnLCAnLW1hJywgJzIwMCcsICctbWV0YWxfYmluZGluZycsICctaW1hZScsICc8aW5maWxlLm1hZT4nLCAnLW9tYWUnLCAnPG91dGZpbGUubWFlPic=

> <r_epik_Ionization_Penalty>
0.655661

> <r_epik_Ionization_Penalty_Charging>
0.608065

> <r_epik_Ionization_Penalty_Neutral>
0.0475963

> <r_epik_State_Penalty>
0.695267

> <r_epik_Charging_Adjusted_Penalty>
1.30333

> <i_epik_Tot_Q>
1

> <i_epik_Tot_abs_Q>
1

> <r_epik_Metal_State_Penalty>
0.653591

> <b_epik_Metal_Only>
0

> <s_lp_Force_Field>
OPLS_2005

> <r_lp_Energy>
24.2834

> <b_lp_Chiralities_Consistent>
1

> <s_lp_Variant>
AV-unprocessed.smi:1703-14

> <Gold.Version>
5.8.1

> <Gold.Id.Protein>
6NUR|6NUR_protein|mol2

> <Gold.PLP.Fitness>
51.5599

> <Gold.PLP.PLP>
-39.5852

> <Gold.PLP.part.hbond>
-5.7077

> <Gold.PLP.part.metal>
0.0000

> <Gold.PLP.part.buried>
1.4086

> <Gold.PLP.part.nonpolar>
-36.1460

> <Gold.PLP.part.repulsive>
1.2523

> <Gold.PLP.ligand.clash>
0.0000

> <Gold.PLP.ligand.torsion>
1.1952

> <Gold.PLP.Chemscore.Hbond>
4.7780

> <Gold.PLP.Chemscore.CHOScore>
0.0000

> <Gold.PLP.Chemscore.Metal>
0.0000

> <Gold.Chemscore.Hbonds>
donor molecule, donor type, donor heavy atom, donor atom, acceptor molecule, acceptor atom, score
      L1  H     4    49       P1  7948  2.00
      L1  H     7    33       P1  7957  0.91
      L1  H    12    38       P1 10175  1.00
      P1  H  7954  7966       L1     7  0.90

> <Gold.PLP.Chemscore.Internal.Correction>
0.0310

> <Gold.Rescore>
     Score         DG    S(hbond)    S(metal)    S(lipo)     H(rot)  DE(clash)    DE(int)     intcor
     12.29     -15.93       2.16        0.00      92.40       2.96       1.52       2.11       ----

> <Gold.Chemscore.Fitness>
12.2920

> <Gold.Chemscore.DG>
-15.9254

> <Gold.Chemscore.ZeroCoef>
-5.4800

> <Gold.Chemscore.Hbond>
2.1600

> <Gold.Chemscore.Metal>
0.0000

> <Gold.Chemscore.Lipo>
92.4041

> <Gold.Chemscore.Internal_Hbond>
0.0000

> <Gold.Chemscore.DEClash>
1.5242

> <Gold.Chemscore.DEInternal>
2.1092

> <Gold.Chemscore.Rot>
2.9611

> <Gold.Chemscore.Internal.Correction>
   9.000000E+99

> <Gold.Chemscore.Hbonds>
donor molecule, donor type, donor heavy atom, donor atom, acceptor molecule, acceptor atom, score
      L1  H     4    49       P1  7948  1.00
      L1  H     7    33       P1  7957  0.83
      L1  H    12    38       P1 10175  0.25
      P1  H  7954  7966       L1     7  0.18

> <Gold.Chemscore.Hbond.Weighted>
-7.2145

> <Gold.Chemscore.Metal.Weighted>
-0.0000

> <Gold.Chemscore.Lipo.Weighted>
-10.8113

> <Gold.Chemscore.Internal_Hbond.Weighted>
0.0000

> <Gold.Chemscore.DEClash.Weighted>
1.5242

> <Gold.Chemscore.DEInternal.Weighted>
2.1092

> <Gold.Chemscore.Rot.Weighted>
7.5803

> <Gold.Chemscore.Internal.Correction.Weighted>
   9.000000E+99

> <Gold.Protein.RotatedTorsions>
[ 6907 6896 6895 6894 ] final -137.69 input  -60.11 | X-H torsion
[ 7974 7965 7964 7962 ] final  -41.57 input  175.53 | X-H torsion
[ 8008 7997 7996 7995 ] final   57.19 input   59.86 | X-H torsion
[ 10167 10162 10161 10158 ] final  -88.05 input  -65.29 | X-H torsion
[ 10718 10713 10712 10709 ] final   16.83 input   66.30 | X-H torsion
[ 10763 10752 10751 10750 ] final  -20.74 input  -60.55 | X-H torsion
[ 11005 11000 10999 10996 ] final  176.99 input  -57.11 | X-H torsion

> <Gold.Protein.ActiveResidues>
 VAL166  LYS551  ARG553  GLY616  TRP617  ASP618  TYR619  PRO620  LYS621  CYS622 
 ASP623  PHE694  ASN695  SER759  ASP760  ASP761  ALA762  ILE779  LEU786  VAL792 
 PHE793  MET794  SER795  GLU796  ALA797  LYS798  CYS799  TRP800  GLU811  SER814 

> <Gold.Protein.RotatedAtoms>
  151.0256  133.5837  159.2666 H   0  0  0  0  0  0  0  0  0  0  0  0  # atno 6907 bound_to 6896
  151.2938  135.0748  159.9223 H   0  0  0  0  0  0  0  0  0  0  0  0  # atno 6908 bound_to 6896
  152.5333  133.9949  159.7922 H   0  0  0  0  0  0  0  0  0  0  0  0  # atno 6909 bound_to 6896
  146.0198  140.6863  142.9183 H   0  0  0  0  0  0  0  0  0  0  0  0  # atno 7974 bound_to 7965
  155.5297  140.3482  155.4424 H   0  0  0  0  0  0  0  0  0  0  0  0  # atno 8008 bound_to 7997
  156.0727  140.1367  156.9836 H   0  0  0  0  0  0  0  0  0  0  0  0  # atno 8009 bound_to 7997
  154.4536  140.0962  156.6668 H   0  0  0  0  0  0  0  0  0  0  0  0  # atno 8010 bound_to 7997
  140.3784  143.2760  151.9414 H   0  0  0  0  0  0  0  0  0  0  0  0  # atno 10167 bound_to 10162
  157.0734  130.6357  149.5810 H   0  0  0  0  0  0  0  0  0  0  0  0  # atno 10718 bound_to 10713
  153.6252  135.6991  153.5296 H   0  0  0  0  0  0  0  0  0  0  0  0  # atno 10763 bound_to 10752
  153.2905  135.4158  155.1162 H   0  0  0  0  0  0  0  0  0  0  0  0  # atno 10764 bound_to 10752
  154.8534  135.3624  154.5794 H   0  0  0  0  0  0  0  0  0  0  0  0  # atno 10765 bound_to 10752
  140.3791  134.6962  157.4440 H   0  0  0  0  0  0  0  0  0  0  0  0  # atno 11005 bound_to 11000
  144.6985  140.3546  143.7175 LP  0  0  0  0  0  0  0  0  0  0  0  0  # atno 17320 bound_to 7965
  145.7210  139.1710  143.2484 LP  0  0  0  0  0  0  0  0  0  0  0  0  # atno 17321 bound_to 7965
  139.4797  144.5841  151.7883 LP  0  0  0  0  0  0  0  0  0  0  0  0  # atno 17342 bound_to 10162
  140.4962  144.1237  150.5961 LP  0  0  0  0  0  0  0  0  0  0  0  0  # atno 17343 bound_to 10162
  155.9944  130.5008  150.7418 LP  0  0  0  0  0  0  0  0  0  0  0  0  # atno 17370 bound_to 10713
  157.4859  131.0906  151.0482 LP  0  0  0  0  0  0  0  0  0  0  0  0  # atno 17371 bound_to 10713
  140.0492  134.6155  155.8883 LP  0  0  0  0  0  0  0  0  0  0  0  0  # atno 17394 bound_to 11000
  141.1929  133.6577  156.5524 LP  0  0  0  0  0  0  0  0  0  0  0  0  # atno 17395 bound_to 11000

$$$$
