AV-unprocessed.smi:1565|AV-procd|sdf|6297|dock5
  -GOLD-   22720 6493D 1   1.00000     0.00000
 Structure written by MMmdl.
 40 41  0  0  0  0  0  0  0  0  1 V2000
  145.8378  131.2075  150.7166 C   0  0  0  0  0  0  0  0  0  0  0  0
  145.5868  130.8367  152.1891 C   0  0  2  0  0  0  0  0  0  0  0  0
  146.2658  131.7959  153.1866 C   0  0  0  0  0  0  0  0  0  0  0  0
  147.7033  131.5488  153.2553 N   0  0  0  0  0  0  0  0  0  0  0  0
  148.4631  132.5474  153.9008 C   0  0  0  0  0  0  0  0  0  0  0  0
  148.0061  133.8859  153.9190 C   0  0  0  0  0  0  0  0  0  0  0  0
  148.7767  134.8667  154.5724 C   0  0  0  0  0  0  0  0  0  0  0  0
  149.9826  134.4890  155.1991 C   0  0  0  0  0  0  0  0  0  0  0  0
  150.8401  135.5111  155.8878 C   0  0  0  0  0  0  0  0  0  0  0  0
  151.9022  135.1876  156.4195 O   0  0  0  0  0  0  0  0  0  0  0  0
  150.3973  136.7768  155.8245 N   0  0  0  0  0  0  0  0  0  0  0  0
  151.0906  137.9386  156.3711 C   0  0  0  0  0  0  0  0  0  0  0  0
  151.5200  138.9239  155.2709 C   0  0  0  0  0  0  0  0  0  0  0  0
  150.5046  139.1058  154.4277 F   0  0  0  0  0  0  0  0  0  0  0  0
  151.8561  140.1039  155.7919 F   0  0  0  0  0  0  0  0  0  0  0  0
  152.5564  138.4329  154.5908 F   0  0  0  0  0  0  0  0  0  0  0  0
  150.3667  133.1324  155.1125 C   0  0  0  0  0  0  0  0  0  0  0  0
  149.6319  132.1892  154.4868 N   0  0  0  0  0  0  0  0  0  0  0  0
  148.0344  130.1519  153.5218 C   0  0  0  0  0  0  0  0  0  0  0  0
  147.3568  129.2345  152.4888 C   0  0  1  0  0  0  0  0  0  0  0  0
  147.5727  127.7525  152.8123 C   0  0  0  0  0  0  0  0  0  0  0  0
  145.9518  129.4847  152.4764 O   0  0  0  0  0  0  0  0  0  0  0  0
  145.4265  132.1917  150.4917 H   0  0  0  0  0  0  0  0  0  0  0  0
  145.3609  130.4905  150.0482 H   0  0  0  0  0  0  0  0  0  0  0  0
  146.8993  131.2388  150.4725 H   0  0  0  0  0  0  0  0  0  0  0  0
  144.5103  130.9003  152.3500 H   0  0  0  0  0  0  0  0  0  0  0  0
  146.0391  132.8249  152.9106 H   0  0  0  0  0  0  0  0  0  0  0  0
  145.8480  131.6423  154.1824 H   0  0  0  0  0  0  0  0  0  0  0  0
  147.0870  134.1724  153.4298 H   0  0  0  0  0  0  0  0  0  0  0  0
  148.4385  135.8928  154.5892 H   0  0  0  0  0  0  0  0  0  0  0  0
  149.5271  136.9522  155.3434 H   0  0  0  0  0  0  0  0  0  0  0  0
  150.4100  138.4364  157.0624 H   0  0  0  0  0  0  0  0  0  0  0  0
  151.9535  137.6278  156.9625 H   0  0  0  0  0  0  0  0  0  0  0  0
  151.2900  132.7836  155.5515 H   0  0  0  0  0  0  0  0  0  0  0  0
  149.1145  130.0051  153.4802 H   0  0  0  0  0  0  0  0  0  0  0  0
  147.7080  129.8922  154.5299 H   0  0  0  0  0  0  0  0  0  0  0  0
  147.7733  129.4271  151.4999 H   0  0  0  0  0  0  0  0  0  0  0  0
  148.6342  127.5033  152.8202 H   0  0  0  0  0  0  0  0  0  0  0  0
  147.0880  127.1173  152.0707 H   0  0  0  0  0  0  0  0  0  0  0  0
  147.1612  127.4975  153.7894 H   0  0  0  0  0  0  0  0  0  0  0  0
  1  2  1  0  0  0  0
  1 23  1  0  0  0  0
  1 24  1  0  0  0  0
  1 25  1  0  0  0  0
  2 22  1  0  0  0  0
  2  3  1  0  0  0  0
  2 26  1  0  0  0  0
  3  4  1  0  0  0  0
  3 27  1  0  0  0  0
  3 28  1  0  0  0  0
  4  5  1  0  0  0  0
  4 19  1  0  0  0  0
  5 18  1  0  0  0  0
  5  6  2  0  0  0  0
  6  7  1  0  0  0  0
  6 29  1  0  0  0  0
  7  8  2  0  0  0  0
  7 30  1  0  0  0  0
  8  9  1  0  0  0  0
  8 17  1  0  0  0  0
  9 10  2  0  0  0  0
  9 11  1  0  0  0  0
 11 12  1  0  0  0  0
 11 31  1  0  0  0  0
 12 13  1  0  0  0  0
 12 32  1  0  0  0  0
 12 33  1  0  0  0  0
 13 14  1  0  0  0  0
 13 15  1  0  0  0  0
 13 16  1  0  0  0  0
 17 18  2  0  0  0  0
 17 34  1  0  0  0  0
 19 20  1  0  0  0  0
 19 35  1  0  0  0  0
 19 36  1  0  0  0  0
 20 21  1  0  0  0  0
 20 22  1  0  0  0  0
 20 37  1  0  0  0  0
 21 38  1  0  0  0  0
 21 39  1  0  0  0  0
 21 40  1  0  0  0  0
M  END
> <s_m_source_file>
AV-unprocessed.smi

> <i_m_source_file_index>
1565

> <i_lp_mmshare_version>
43012

> <i_f3d_flags>
0

> <s_epik_input>
W0NIM11bQ0BASF0xW0NIMl1OKFtDSDJdW0NASF0oTzEpW0NIM10pYzJbY0hdW2NIXWMoW2NIXW4yKUMoPU8pW05IXVtDSDJdQyhGKShGKUY=

> <s_epik_cmdline>
J2VwaWtfcHl0aG9uJywgJy1waCcsICc3LjAnLCAnLXRuJywgJzgnLCAnLW1hJywgJzIwMCcsICctbWV0YWxfYmluZGluZycsICctaW1hZScsICc8aW5maWxlLm1hZT4nLCAnLW9tYWUnLCAnPG91dGZpbGUubWFlPic=

> <r_lp_tautomer_probability>
1

> <r_epik_Ionization_Penalty>
1.48031e-05

> <r_epik_Ionization_Penalty_Charging>
0

> <r_epik_Ionization_Penalty_Neutral>
1.48031e-05

> <r_epik_State_Penalty>
-0

> <r_epik_Charging_Adjusted_Penalty>
0

> <i_epik_Tot_Q>
0

> <i_epik_Tot_abs_Q>
0

> <r_epik_Metal_State_Penalty>
0.00620302

> <b_epik_Metal_Only>
0

> <s_lp_Force_Field>
OPLS_2005

> <r_lp_Energy>
19.6517

> <b_lp_Chiralities_Consistent>
1

> <s_lp_Variant>
AV-unprocessed.smi:1565-1

> <Gold.Version>
5.8.1

> <Gold.Id.Protein>
6NUR|6NUR_protein|mol2

> <Gold.PLP.Fitness>
37.1878

> <Gold.PLP.PLP>
-35.2552

> <Gold.PLP.part.hbond>
-1.0000

> <Gold.PLP.part.metal>
0.0000

> <Gold.PLP.part.buried>
-2.8994

> <Gold.PLP.part.nonpolar>
-30.8875

> <Gold.PLP.part.repulsive>
0.3229

> <Gold.PLP.ligand.clash>
0.0000

> <Gold.PLP.ligand.torsion>
0.7033

> <Gold.PLP.Chemscore.Hbond>
1.0000

> <Gold.PLP.Chemscore.CHOScore>
0.0000

> <Gold.PLP.Chemscore.Metal>
0.0000

> <Gold.Chemscore.Hbonds>
donor molecule, donor type, donor heavy atom, donor atom, acceptor molecule, acceptor atom, score
      P1  H 10752 10765       L1    10  1.00

> <Gold.PLP.Chemscore.Internal.Correction>
0.3392

> <Gold.Rescore>
     Score         DG    S(hbond)    S(metal)    S(lipo)     H(rot)  DE(clash)    DE(int)     intcor
     12.97     -13.70       0.97        0.00      71.17       1.31       0.10       0.63       ----

> <Gold.Chemscore.Fitness>
12.9703

> <Gold.Chemscore.DG>
-13.7028

> <Gold.Chemscore.ZeroCoef>
-5.4800

> <Gold.Chemscore.Hbond>
0.9693

> <Gold.Chemscore.Metal>
0.0000

> <Gold.Chemscore.Lipo>
71.1686

> <Gold.Chemscore.Internal_Hbond>
0.0000

> <Gold.Chemscore.DEClash>
0.1037

> <Gold.Chemscore.DEInternal>
0.6288

> <Gold.Chemscore.Rot>
1.3052

> <Gold.Chemscore.Internal.Correction>
   9.000000E+99

> <Gold.Chemscore.Hbonds>
donor molecule, donor type, donor heavy atom, donor atom, acceptor molecule, acceptor atom, score
      P1  H 10752 10765       L1    10  0.69

> <Gold.Chemscore.Hbond.Weighted>
-3.2375

> <Gold.Chemscore.Metal.Weighted>
-0.0000

> <Gold.Chemscore.Lipo.Weighted>
-8.3267

> <Gold.Chemscore.Internal_Hbond.Weighted>
0.0000

> <Gold.Chemscore.DEClash.Weighted>
0.1037

> <Gold.Chemscore.DEInternal.Weighted>
0.6288

> <Gold.Chemscore.Rot.Weighted>
3.3414

> <Gold.Chemscore.Internal.Correction.Weighted>
   9.000000E+99

> <Gold.Protein.RotatedTorsions>
[ 6907 6896 6895 6894 ] final  137.74 input  -60.11 | X-H torsion
[ 7974 7965 7964 7962 ] final  115.63 input  175.53 | X-H torsion
[ 8008 7997 7996 7995 ] final  -64.11 input   59.86 | X-H torsion
[ 10167 10162 10161 10158 ] final -130.41 input  -65.29 | X-H torsion
[ 10718 10713 10712 10709 ] final  -80.33 input   66.30 | X-H torsion
[ 10763 10752 10751 10750 ] final -138.11 input  -60.55 | X-H torsion
[ 11005 11000 10999 10996 ] final -116.34 input  -57.11 | X-H torsion

> <Gold.Protein.ActiveResidues>
 VAL166  LYS551  ARG553  GLY616  TRP617  ASP618  TYR619  PRO620  LYS621  CYS622 
 ASP623  PHE694  ASN695  SER759  ASP760  ASP761  ALA762  ILE779  LEU786  VAL792 
 PHE793  MET794  SER795  GLU796  ALA797  LYS798  CYS799  TRP800  GLU811  SER814 

> <Gold.Protein.RotatedAtoms>
  152.2746  133.5413  159.5459 H   0  0  0  0  0  0  0  0  0  0  0  0  # atno 6907 bound_to 6896
  150.7172  134.0650  159.3853 H   0  0  0  0  0  0  0  0  0  0  0  0  # atno 6908 bound_to 6896
  151.8563  135.0540  160.0515 H   0  0  0  0  0  0  0  0  0  0  0  0  # atno 6909 bound_to 6896
  145.1896  139.3007  143.4375 H   0  0  0  0  0  0  0  0  0  0  0  0  # atno 7974 bound_to 7965
  154.4592  140.0961  156.6846 H   0  0  0  0  0  0  0  0  0  0  0  0  # atno 8008 bound_to 7997
  155.5044  140.3474  155.4358 H   0  0  0  0  0  0  0  0  0  0  0  0  # atno 8009 bound_to 7997
  156.0838  140.1380  156.9668 H   0  0  0  0  0  0  0  0  0  0  0  0  # atno 8010 bound_to 7997
  139.9296  143.6287  152.2533 H   0  0  0  0  0  0  0  0  0  0  0  0  # atno 10167 bound_to 10162
  156.0072  130.4571  150.3785 H   0  0  0  0  0  0  0  0  0  0  0  0  # atno 10718 bound_to 10713
  154.8645  135.3622  154.5332 H   0  0  0  0  0  0  0  0  0  0  0  0  # atno 10763 bound_to 10752
  153.5957  135.7014  153.5410 H   0  0  0  0  0  0  0  0  0  0  0  0  # atno 10764 bound_to 10752
  153.3334  135.4118  155.1476 H   0  0  0  0  0  0  0  0  0  0  0  0  # atno 10765 bound_to 10752
  141.0428  133.9809  157.2966 H   0  0  0  0  0  0  0  0  0  0  0  0  # atno 11005 bound_to 11000
  146.3438  140.2104  142.8590 LP  0  0  0  0  0  0  0  0  0  0  0  0  # atno 17320 bound_to 7965
  145.0055  140.8669  143.5256 LP  0  0  0  0  0  0  0  0  0  0  0  0  # atno 17321 bound_to 7965
  139.6793  144.7656  151.1637 LP  0  0  0  0  0  0  0  0  0  0  0  0  # atno 17342 bound_to 10162
  140.7641  143.5748  150.8957 LP  0  0  0  0  0  0  0  0  0  0  0  0  # atno 17343 bound_to 10162
  157.1866  131.0405  151.2722 LP  0  0  0  0  0  0  0  0  0  0  0  0  # atno 17370 bound_to 10713
  157.4099  130.7379  149.6831 LP  0  0  0  0  0  0  0  0  0  0  0  0  # atno 17371 bound_to 10713
  139.9289  135.0201  156.8331 LP  0  0  0  0  0  0  0  0  0  0  0  0  # atno 17394 bound_to 11000
  140.6202  134.0001  155.7615 LP  0  0  0  0  0  0  0  0  0  0  0  0  # atno 17395 bound_to 11000

$$$$
