AV-unprocessed.smi:2063|AV-procd|sdf|8414|dock3
  -GOLD-   2272011103D 1   1.00000     0.00000
 Structure written by MMmdl.
 38 39  0  0  0  0  0  0  0  0  2 V2000
  154.2819  141.3099  161.2240 C   0  0  0  0  0  0  0  0  0  0  0  0
  153.4878  142.5532  160.7980 C   0  0  0  0  0  0  0  0  0  0  0  0
  152.6277  143.1361  161.9284 C   0  0  0  0  0  0  0  0  0  0  0  0
  152.6943  142.3162  159.5511 C   0  0  0  0  0  0  0  0  0  0  0  0
  152.5720  141.1138  158.9800 N   0  0  0  0  0  0  0  0  0  0  0  0
  151.7858  141.1528  157.8379 N   0  0  0  0  0  0  0  0  0  0  0  0
  151.3162  142.3779  157.5646 C   0  0  0  0  0  0  0  0  0  0  0  0
  150.5375  142.6295  156.4994 N   0  5  0  0  0  0  0  0  0  0  0  0
  149.9641  141.6076  155.8239 C   0  0  0  0  0  0  0  0  0  0  0  0
  150.5113  140.5535  155.4915 O   0  0  0  0  0  0  0  0  0  0  0  0
  148.6769  141.8215  155.5148 N   0  0  0  0  0  0  0  0  0  0  0  0
  147.7930  140.9009  154.8028 C   0  0  2  0  0  0  0  0  0  0  0  0
  148.2758  140.7370  153.3503 C   0  0  0  0  0  0  0  0  0  0  0  0
  146.3489  141.4326  154.8787 C   0  0  1  0  0  0  0  0  0  0  0  0
  145.8720  141.8028  156.2849 C   0  0  0  0  0  0  0  0  0  0  0  0
  144.8108  142.8661  156.0438 C   0  0  0  0  0  0  0  0  0  0  0  0
  144.9885  143.2454  154.5717 C   0  0  0  0  0  0  0  0  0  0  0  0
  146.2314  142.6720  154.1957 O   0  0  0  0  0  0  0  0  0  0  0  0
  151.8429  143.6053  158.7156 S   0  0  0  0  0  0  0  0  0  0  0  0
  154.9426  140.9743  160.4241 H   0  0  0  0  0  0  0  0  0  0  0  0
  153.6181  140.4826  161.4773 H   0  0  0  0  0  0  0  0  0  0  0  0
  154.8999  141.5190  162.0974 H   0  0  0  0  0  0  0  0  0  0  0  0
  154.2263  143.3170  160.5510 H   0  0  0  0  0  0  0  0  0  0  0  0
  152.1464  144.0633  161.6161 H   0  0  0  0  0  0  0  0  0  0  0  0
  153.2327  143.3575  162.8080 H   0  0  0  0  0  0  0  0  0  0  0  0
  151.8449  142.4396  162.2303 H   0  0  0  0  0  0  0  0  0  0  0  0
  148.2725  142.6969  155.8126 H   0  0  0  0  0  0  0  0  0  0  0  0
  147.8237  139.9268  155.2942 H   0  0  0  0  0  0  0  0  0  0  0  0
  147.6597  140.0226  152.8046 H   0  0  0  0  0  0  0  0  0  0  0  0
  149.3021  140.3704  153.3135 H   0  0  0  0  0  0  0  0  0  0  0  0
  148.2427  141.6853  152.8128 H   0  0  0  0  0  0  0  0  0  0  0  0
  145.6559  140.7178  154.4302 H   0  0  0  0  0  0  0  0  0  0  0  0
  145.4893  140.9435  156.8361 H   0  0  0  0  0  0  0  0  0  0  0  0
  146.6922  142.2330  156.8614 H   0  0  0  0  0  0  0  0  0  0  0  0
  143.8059  142.4839  156.2266 H   0  0  0  0  0  0  0  0  0  0  0  0
  144.9694  143.7230  156.6991 H   0  0  0  0  0  0  0  0  0  0  0  0
  144.1949  142.8085  153.9640 H   0  0  0  0  0  0  0  0  0  0  0  0
  144.9860  144.3236  154.4115 H   0  0  0  0  0  0  0  0  0  0  0  0
  1  2  1  0  0  0  0
  1 20  1  0  0  0  0
  1 21  1  0  0  0  0
  1 22  1  0  0  0  0
  2  3  1  0  0  0  0
  2  4  1  0  0  0  0
  2 23  1  0  0  0  0
  3 24  1  0  0  0  0
  3 25  1  0  0  0  0
  3 26  1  0  0  0  0
  4 19  1  0  0  0  0
  4  5  2  0  0  0  0
  5  6  1  0  0  0  0
  6  7  2  0  0  0  0
  7  8  1  0  0  0  0
  7 19  1  0  0  0  0
  8  9  1  0  0  0  0
  9 10  2  0  0  0  0
  9 11  1  0  0  0  0
 11 12  1  0  0  0  0
 11 27  1  0  0  0  0
 12 13  1  0  0  0  0
 12 14  1  0  0  0  0
 12 28  1  0  0  0  0
 13 29  1  0  0  0  0
 13 30  1  0  0  0  0
 13 31  1  0  0  0  0
 14 18  1  0  0  0  0
 14 15  1  0  0  0  0
 14 32  1  0  0  0  0
 15 16  1  0  0  0  0
 15 33  1  0  0  0  0
 15 34  1  0  0  0  0
 16 17  1  0  0  0  0
 16 35  1  0  0  0  0
 16 36  1  0  0  0  0
 17 18  1  0  0  0  0
 17 37  1  0  0  0  0
 17 38  1  0  0  0  0
M  CHG  1   8  -1
M  END
> <s_m_source_file>
AV-unprocessed.smi

> <i_m_source_file_index>
2063

> <i_lp_mmshare_version>
43012

> <i_f3d_flags>
0

> <s_epik_input>
W0NIM11bQ0hdKFtDSDNdKWMxbm5jKHMxKVtOSF1DKD1PKVtOSF1bQ0BIXShbQ0gzXSlbQ0BASF0yW0NIMl1bQ0gyXVtDSDJdTzI=

> <s_epik_cmdline>
J2VwaWtfcHl0aG9uJywgJy1waCcsICc3LjAnLCAnLXRuJywgJzgnLCAnLW1hJywgJzIwMCcsICctbWV0YWxfYmluZGluZycsICctaW1hZScsICc8aW5maWxlLm1hZT4nLCAnLW9tYWUnLCAnPG91dGZpbGUubWFlPic=

> <r_lp_tautomer_probability>
1

> <r_epik_Ionization_Penalty>
4.37022

> <r_epik_Ionization_Penalty_Charging>
4.21437

> <r_epik_Ionization_Penalty_Neutral>
0.15585

> <r_epik_State_Penalty>
4.21389

> <r_epik_Charging_Adjusted_Penalty>
8.42826

> <i_epik_Tot_Q>
-1

> <i_epik_Tot_abs_Q>
1

> <r_epik_Metal_State_Penalty>
0.693772

> <b_epik_Metal_Only>
1

> <s_lp_Force_Field>
OPLS_2005

> <r_lp_Energy>
10.221

> <b_lp_Chiralities_Consistent>
1

> <s_lp_Variant>
AV-unprocessed.smi:2063-7

> <Gold.Version>
5.8.1

> <Gold.Id.Protein>
6NUR|6NUR_protein|mol2

> <Gold.PLP.Fitness>
38.5049

> <Gold.PLP.PLP>
-36.5338

> <Gold.PLP.part.hbond>
-1.3696

> <Gold.PLP.part.metal>
0.0000

> <Gold.PLP.part.buried>
-3.5708

> <Gold.PLP.part.nonpolar>
-33.5857

> <Gold.PLP.part.repulsive>
2.2245

> <Gold.PLP.ligand.clash>
0.0000

> <Gold.PLP.ligand.torsion>
0.5807

> <Gold.PLP.Chemscore.Hbond>
1.0000

> <Gold.PLP.Chemscore.CHOScore>
0.0000

> <Gold.PLP.Chemscore.Metal>
0.0000

> <Gold.Chemscore.Hbonds>
donor molecule, donor type, donor heavy atom, donor atom, acceptor molecule, acceptor atom, score
      L1  H    11    27       P1  8028  0.56
      P1  H  7989  7998       L1    10  0.31

> <Gold.PLP.Chemscore.Internal.Correction>
0.1326

> <Gold.Rescore>
     Score         DG    S(hbond)    S(metal)    S(lipo)     H(rot)  DE(clash)    DE(int)     intcor
     12.48     -14.99       0.95        0.00      84.54       1.39       0.04       2.47       ----

> <Gold.Chemscore.Fitness>
12.4816

> <Gold.Chemscore.DG>
-14.9943

> <Gold.Chemscore.ZeroCoef>
-5.4800

> <Gold.Chemscore.Hbond>
0.9519

> <Gold.Chemscore.Metal>
0.0000

> <Gold.Chemscore.Lipo>
84.5444

> <Gold.Chemscore.Internal_Hbond>
0.0000

> <Gold.Chemscore.DEClash>
0.0442

> <Gold.Chemscore.DEInternal>
2.4684

> <Gold.Chemscore.Rot>
1.3893

> <Gold.Chemscore.Internal.Correction>
   9.000000E+99

> <Gold.Chemscore.Hbonds>
donor molecule, donor type, donor heavy atom, donor atom, acceptor molecule, acceptor atom, score
      L1  H    11    27       P1  8028  0.52
      P1  H  7989  7998       L1    10  0.20

> <Gold.Chemscore.Hbond.Weighted>
-3.1793

> <Gold.Chemscore.Metal.Weighted>
-0.0000

> <Gold.Chemscore.Lipo.Weighted>
-9.8917

> <Gold.Chemscore.Internal_Hbond.Weighted>
0.0000

> <Gold.Chemscore.DEClash.Weighted>
0.0442

> <Gold.Chemscore.DEInternal.Weighted>
2.4684

> <Gold.Chemscore.Rot.Weighted>
3.5567

> <Gold.Chemscore.Internal.Correction.Weighted>
   9.000000E+99

> <Gold.Protein.RotatedTorsions>
[ 6907 6896 6895 6894 ] final -155.22 input  -60.11 | X-H torsion
[ 7974 7965 7964 7962 ] final  -10.33 input  175.53 | X-H torsion
[ 8008 7997 7996 7995 ] final  120.09 input   59.86 | X-H torsion
[ 10167 10162 10161 10158 ] final -152.21 input  -65.29 | X-H torsion
[ 10718 10713 10712 10709 ] final -164.84 input   66.30 | X-H torsion
[ 10763 10752 10751 10750 ] final -141.57 input  -60.55 | X-H torsion
[ 11005 11000 10999 10996 ] final  144.68 input  -57.11 | X-H torsion

> <Gold.Protein.ActiveResidues>
 VAL166  LYS551  ARG553  GLY616  TRP617  ASP618  TYR619  PRO620  LYS621  CYS622 
 ASP623  PHE694  ASN695  SER759  ASP760  ASP761  ALA762  ILE779  LEU786  VAL792 
 PHE793  MET794  SER795  GLU796  ALA797  LYS798  CYS799  TRP800  GLU811  SER814 

> <Gold.Protein.RotatedAtoms>
  151.2692  133.4264  159.2620 H   0  0  0  0  0  0  0  0  0  0  0  0  # atno 6907 bound_to 6896
  151.0461  134.9641  159.8197 H   0  0  0  0  0  0  0  0  0  0  0  0  # atno 6908 bound_to 6896
  152.5374  134.2648  159.9001 H   0  0  0  0  0  0  0  0  0  0  0  0  # atno 6909 bound_to 6896
  146.2224  140.2748  142.8359 H   0  0  0  0  0  0  0  0  0  0  0  0  # atno 7974 bound_to 7965
  156.2626  140.2838  156.1095 H   0  0  0  0  0  0  0  0  0  0  0  0  # atno 8008 bound_to 7997
  155.1273  140.0393  157.2783 H   0  0  0  0  0  0  0  0  0  0  0  0  # atno 8009 bound_to 7997
  154.6626  140.2570  155.7099 H   0  0  0  0  0  0  0  0  0  0  0  0  # atno 8010 bound_to 7997
  139.7201  143.8971  152.2500 H   0  0  0  0  0  0  0  0  0  0  0  0  # atno 10167 bound_to 10162
  156.6448  130.8983  151.3002 H   0  0  0  0  0  0  0  0  0  0  0  0  # atno 10718 bound_to 10713
  154.8540  135.3520  154.5890 H   0  0  0  0  0  0  0  0  0  0  0  0  # atno 10763 bound_to 10752
  153.6499  135.6994  153.5217 H   0  0  0  0  0  0  0  0  0  0  0  0  # atno 10764 bound_to 10752
  153.2902  135.4237  155.1118 H   0  0  0  0  0  0  0  0  0  0  0  0  # atno 10765 bound_to 10752
  140.0651  134.9183  157.1251 H   0  0  0  0  0  0  0  0  0  0  0  0  # atno 11005 bound_to 11000
  144.9241  140.7901  143.5730 LP  0  0  0  0  0  0  0  0  0  0  0  0  # atno 17320 bound_to 7965
  145.2687  139.1963  143.4853 LP  0  0  0  0  0  0  0  0  0  0  0  0  # atno 17321 bound_to 7965
  139.8864  144.6989  150.8819 LP  0  0  0  0  0  0  0  0  0  0  0  0  # atno 17342 bound_to 10162
  140.7752  143.3620  151.1810 LP  0  0  0  0  0  0  0  0  0  0  0  0  # atno 17343 bound_to 10162
  157.7160  130.9497  150.1256 LP  0  0  0  0  0  0  0  0  0  0  0  0  # atno 17370 bound_to 10713
  156.2131  130.3668  149.8646 LP  0  0  0  0  0  0  0  0  0  0  0  0  # atno 17371 bound_to 10713
  140.3711  134.2389  155.7178 LP  0  0  0  0  0  0  0  0  0  0  0  0  # atno 17394 bound_to 11000
  141.1989  133.8023  157.0559 LP  0  0  0  0  0  0  0  0  0  0  0  0  # atno 17395 bound_to 11000

$$$$
