AV-unprocessed.smi:3277|AV-procd|sdf|12536|dock6
  -GOLD-   2272018453D 1   1.00000     0.00000
 Structure written by MMmdl.
 35 37  0  0  0  0  0  0  0  0  1 V2000
  149.8148  136.3179  156.4810 C   0  0  0  0  0  0  0  0  0  0  0  0
  150.7224  137.4546  156.4821 N   0  0  0  0  0  0  0  0  0  0  0  0
  151.4796  137.8178  155.4363 C   0  0  0  0  0  0  0  0  0  0  0  0
  151.4762  137.2212  154.3597 O   0  0  0  0  0  0  0  0  0  0  0  0
  152.3739  139.0438  155.6294 C   0  0  0  0  0  0  0  0  0  0  0  0
  151.5228  140.1654  156.1322 C   0  0  0  0  0  0  0  0  0  0  0  0
  151.8355  140.9099  157.1962 N   0  0  0  0  0  0  0  0  0  0  0  0
  150.8842  141.8998  157.4685 C   0  0  0  0  0  0  0  0  0  0  0  0
  151.0541  142.8397  158.6335 C   0  0  2  0  0  0  0  0  0  0  0  0
  150.9276  144.3393  158.2881 C   0  0  0  0  0  0  0  0  0  0  0  0
  152.1755  144.9433  158.9615 C   0  0  1  0  0  0  0  0  0  0  0  0
  152.0492  144.8399  160.4947 C   0  0  0  0  0  0  0  0  0  0  0  0
  152.2795  143.3376  160.7584 C   0  0  0  0  0  0  0  0  0  0  0  0
  152.4309  142.7668  159.3349 C   0  0  2  0  0  0  0  0  0  0  0  0
  153.2279  143.8831  158.6629 C   0  0  0  0  0  0  0  0  0  0  0  0
  149.8391  141.8946  156.5780 C   0  0  0  0  0  0  0  0  0  0  0  0
  150.0127  140.6518  155.3701 S   0  0  0  0  0  0  0  0  0  0  0  0
  149.3610  136.2032  157.4652 H   0  0  0  0  0  0  0  0  0  0  0  0
  150.3449  135.3957  156.2406 H   0  0  0  0  0  0  0  0  0  0  0  0
  149.0166  136.4620  155.7523 H   0  0  0  0  0  0  0  0  0  0  0  0
  150.7823  137.9975  157.3313 H   0  0  0  0  0  0  0  0  0  0  0  0
  153.1661  138.8272  156.3474 H   0  0  0  0  0  0  0  0  0  0  0  0
  152.8467  139.3311  154.6896 H   0  0  0  0  0  0  0  0  0  0  0  0
  150.2827  142.5938  159.3651 H   0  0  0  0  0  0  0  0  0  0  0  0
  150.9721  144.5067  157.2110 H   0  0  0  0  0  0  0  0  0  0  0  0
  149.9965  144.7752  158.6515 H   0  0  0  0  0  0  0  0  0  0  0  0
  152.4193  145.9454  158.6080 H   0  0  0  0  0  0  0  0  0  0  0  0
  152.8143  145.4375  160.9918 H   0  0  0  0  0  0  0  0  0  0  0  0
  151.0753  145.1797  160.8489 H   0  0  0  0  0  0  0  0  0  0  0  0
  153.1947  143.1865  161.3323 H   0  0  0  0  0  0  0  0  0  0  0  0
  151.4614  142.8791  161.3149 H   0  0  0  0  0  0  0  0  0  0  0  0
  152.8921  141.7788  159.3163 H   0  0  0  0  0  0  0  0  0  0  0  0
  153.3939  143.7273  157.5965 H   0  0  0  0  0  0  0  0  0  0  0  0
  154.1881  144.0794  159.1434 H   0  0  0  0  0  0  0  0  0  0  0  0
  148.9788  142.5473  156.5592 H   0  0  0  0  0  0  0  0  0  0  0  0
  1  2  1  0  0  0  0
  1 18  1  0  0  0  0
  1 19  1  0  0  0  0
  1 20  1  0  0  0  0
  2  3  1  0  0  0  0
  2 21  1  0  0  0  0
  3  4  2  0  0  0  0
  3  5  1  0  0  0  0
  5  6  1  0  0  0  0
  5 22  1  0  0  0  0
  5 23  1  0  0  0  0
  6 17  1  0  0  0  0
  6  7  2  0  0  0  0
  7  8  1  0  0  0  0
  8  9  1  0  0  0  0
  8 16  2  0  0  0  0
  9 14  1  0  0  0  0
  9 10  1  0  0  0  0
  9 24  1  0  0  0  0
 10 11  1  0  0  0  0
 10 25  1  0  0  0  0
 10 26  1  0  0  0  0
 11 15  1  0  0  0  0
 11 12  1  0  0  0  0
 11 27  1  0  0  0  0
 12 13  1  0  0  0  0
 12 28  1  0  0  0  0
 12 29  1  0  0  0  0
 13 14  1  0  0  0  0
 13 30  1  0  0  0  0
 13 31  1  0  0  0  0
 14 15  1  0  0  0  0
 14 32  1  0  0  0  0
 15 33  1  0  0  0  0
 15 34  1  0  0  0  0
 16 17  1  0  0  0  0
 16 35  1  0  0  0  0
M  END
> <s_m_source_file>
AV-unprocessed.smi

> <i_m_source_file_index>
3277

> <i_lp_mmshare_version>
43012

> <i_f3d_flags>
0

> <s_epik_input>
W0NIM11bTkhdQyg9TylbQ0gyXWMxbmMoW2NIXXMxKVtDQEhdKFtDSDJdW0NAQEhdMjMpW0NAQEhdKFtDSDJdMylbQ0gyXVtDSDJdMg==

> <s_epik_cmdline>
J2VwaWtfcHl0aG9uJywgJy1waCcsICc3LjAnLCAnLXRuJywgJzgnLCAnLW1hJywgJzIwMCcsICctbWV0YWxfYmluZGluZycsICctaW1hZScsICc8aW5maWxlLm1hZT4nLCAnLW9tYWUnLCAnPG91dGZpbGUubWFlPic=

> <r_lp_tautomer_probability>
1

> <r_epik_Ionization_Penalty>
8.50008e-05

> <r_epik_Ionization_Penalty_Charging>
0

> <r_epik_Ionization_Penalty_Neutral>
8.50008e-05

> <r_epik_State_Penalty>
-0

> <r_epik_Charging_Adjusted_Penalty>
0

> <i_epik_Tot_Q>
0

> <i_epik_Tot_abs_Q>
0

> <r_epik_Metal_State_Penalty>
-0

> <b_epik_Metal_Only>
0

> <s_lp_Force_Field>
OPLS_2005

> <r_lp_Energy>
44.9061

> <b_lp_Chiralities_Consistent>
1

> <s_lp_Variant>
AV-unprocessed.smi:3277-1

> <Gold.Version>
5.8.1

> <Gold.Id.Protein>
6NUR|6NUR_protein|mol2

> <Gold.PLP.Fitness>
44.4751

> <Gold.PLP.PLP>
-39.0756

> <Gold.PLP.part.hbond>
-1.0000

> <Gold.PLP.part.metal>
0.0000

> <Gold.PLP.part.buried>
-3.2827

> <Gold.PLP.part.nonpolar>
-35.7520

> <Gold.PLP.part.repulsive>
0.5574

> <Gold.PLP.ligand.clash>
0.0000

> <Gold.PLP.ligand.torsion>
0.2961

> <Gold.PLP.Chemscore.Hbond>
1.0000

> <Gold.PLP.Chemscore.CHOScore>
0.9964

> <Gold.PLP.Chemscore.Metal>
0.0000

> <Gold.Chemscore.Hbonds>
donor molecule, donor type, donor heavy atom, donor atom, acceptor molecule, acceptor atom, score
      P1  H 10752 10764       L1     4  0.70
      L1  C    16    35       P1  8028  0.94

> <Gold.PLP.Chemscore.Internal.Correction>
0.0026

> <Gold.Rescore>
     Score         DG    S(hbond)    S(metal)    S(lipo)     H(rot)  DE(clash)    DE(int)     intcor
     18.86     -19.07       0.94        0.00     120.08       1.41       0.13       0.07       ----

> <Gold.Chemscore.Fitness>
18.8593

> <Gold.Chemscore.DG>
-19.0654

> <Gold.Chemscore.ZeroCoef>
-5.4800

> <Gold.Chemscore.Hbond>
0.9436

> <Gold.Chemscore.Metal>
0.0000

> <Gold.Chemscore.Lipo>
120.0756

> <Gold.Chemscore.Internal_Hbond>
0.0000

> <Gold.Chemscore.DEClash>
0.1339

> <Gold.Chemscore.DEInternal>
0.0722

> <Gold.Chemscore.Rot>
1.4122

> <Gold.Chemscore.Internal.Correction>
   9.000000E+99

> <Gold.Chemscore.Hbonds>
donor molecule, donor type, donor heavy atom, donor atom, acceptor molecule, acceptor atom, score
      P1  H 10752 10764       L1     4  0.61

> <Gold.Chemscore.Hbond.Weighted>
-3.1516

> <Gold.Chemscore.Metal.Weighted>
-0.0000

> <Gold.Chemscore.Lipo.Weighted>
-14.0488

> <Gold.Chemscore.Internal_Hbond.Weighted>
0.0000

> <Gold.Chemscore.DEClash.Weighted>
0.1339

> <Gold.Chemscore.DEInternal.Weighted>
0.0722

> <Gold.Chemscore.Rot.Weighted>
3.6151

> <Gold.Chemscore.Internal.Correction.Weighted>
   9.000000E+99

> <Gold.Protein.RotatedTorsions>
[ 6907 6896 6895 6894 ] final -146.98 input  -60.11 | X-H torsion
[ 7974 7965 7964 7962 ] final -176.34 input  175.53 | X-H torsion
[ 8008 7997 7996 7995 ] final  119.86 input   59.86 | X-H torsion
[ 10167 10162 10161 10158 ] final -133.47 input  -65.29 | X-H torsion
[ 10718 10713 10712 10709 ] final -104.19 input   66.30 | X-H torsion
[ 10763 10752 10751 10750 ] final  -86.46 input  -60.55 | X-H torsion
[ 11005 11000 10999 10996 ] final  -80.14 input  -57.11 | X-H torsion

> <Gold.Protein.ActiveResidues>
 VAL166  LYS551  ARG553  GLY616  TRP617  ASP618  TYR619  PRO620  LYS621  CYS622 
 ASP623  PHE694  ASN695  SER759  ASP760  ASP761  ALA762  ILE779  LEU786  VAL792 
 PHE793  MET794  SER795  GLU796  ALA797  LYS798  CYS799  TRP800  GLU811  SER814 

> <Gold.Protein.RotatedAtoms>
  151.1492  133.4919  159.2595 H   0  0  0  0  0  0  0  0  0  0  0  0  # atno 6907 bound_to 6896
  151.1572  135.0256  159.8704 H   0  0  0  0  0  0  0  0  0  0  0  0  # atno 6908 bound_to 6896
  152.5463  134.1369  159.8516 H   0  0  0  0  0  0  0  0  0  0  0  0  # atno 6909 bound_to 6896
  144.7127  140.1185  143.6406 H   0  0  0  0  0  0  0  0  0  0  0  0  # atno 7974 bound_to 7965
  156.2616  140.2843  156.1058 H   0  0  0  0  0  0  0  0  0  0  0  0  # atno 8008 bound_to 7997
  155.1311  140.0394  157.2792 H   0  0  0  0  0  0  0  0  0  0  0  0  # atno 8009 bound_to 7997
  154.6599  140.2564  155.7126 H   0  0  0  0  0  0  0  0  0  0  0  0  # atno 8010 bound_to 7997
  139.8979  143.6643  152.2600 H   0  0  0  0  0  0  0  0  0  0  0  0  # atno 10167 bound_to 10162
  156.0295  130.5503  150.7361 H   0  0  0  0  0  0  0  0  0  0  0  0  # atno 10718 bound_to 10713
  154.6227  135.5448  153.7592 H   0  0  0  0  0  0  0  0  0  0  0  0  # atno 10763 bound_to 10752
  153.0246  135.6416  154.1417 H   0  0  0  0  0  0  0  0  0  0  0  0  # atno 10764 bound_to 10752
  154.1351  135.2912  155.3155 H   0  0  0  0  0  0  0  0  0  0  0  0  # atno 10765 bound_to 10752
  141.1668  133.7137  156.8228 H   0  0  0  0  0  0  0  0  0  0  0  0  # atno 11005 bound_to 11000
  145.9392  139.2657  143.1279 LP  0  0  0  0  0  0  0  0  0  0  0  0  # atno 17320 bound_to 7965
  145.9441  140.8957  143.0292 LP  0  0  0  0  0  0  0  0  0  0  0  0  # atno 17321 bound_to 7965
  139.7051  144.7629  151.1207 LP  0  0  0  0  0  0  0  0  0  0  0  0  # atno 17342 bound_to 10162
  140.7713  143.5405  150.9318 LP  0  0  0  0  0  0  0  0  0  0  0  0  # atno 17343 bound_to 10162
  157.4942  131.0913  151.0392 LP  0  0  0  0  0  0  0  0  0  0  0  0  # atno 17370 bound_to 10713
  157.0790  130.5895  149.5417 LP  0  0  0  0  0  0  0  0  0  0  0  0  # atno 17371 bound_to 10713
  140.2107  134.8830  157.3271 LP  0  0  0  0  0  0  0  0  0  0  0  0  # atno 17394 bound_to 11000
  140.2090  134.4162  155.7622 LP  0  0  0  0  0  0  0  0  0  0  0  0  # atno 17395 bound_to 11000

$$$$
