AV-unprocessed.smi:114|AV-procd|sdf|1109|dock4
  -GOLD-   2262018223D 1   1.00000     0.00000
 Structure written by MMmdl.
 32 34  0  0  0  0  0  0  0  0  1 V2000
  154.2134  137.4592  156.5811 N   0  0  0  0  0  0  0  0  0  0  0  0
  153.1307  138.2469  156.6428 C   0  0  0  0  0  0  0  0  0  0  0  0
  153.1664  139.3275  157.4563 N   0  0  0  0  0  0  0  0  0  0  0  0
  152.1065  140.1398  157.5468 C   0  0  0  0  0  0  0  0  0  0  0  0
  152.2279  141.1957  158.3851 F   0  0  0  0  0  0  0  0  0  0  0  0
  150.9406  140.0245  156.9026 N   0  0  0  0  0  0  0  0  0  0  0  0
  150.8985  138.9363  156.0806 C   0  0  0  0  0  0  0  0  0  0  0  0
  151.9519  138.0003  155.8976 C   0  0  0  0  0  0  0  0  0  0  0  0
  151.5649  137.0204  154.9942 N   0  0  0  0  0  0  0  0  0  0  0  0
  150.3483  137.3618  154.6647 C   0  0  0  0  0  0  0  0  0  0  0  0
  149.8648  138.4993  155.2738 N   0  0  0  0  0  0  0  0  0  0  0  0
  148.5116  139.1184  155.0855 C   0  0  2  0  0  0  0  0  0  0  0  0
  147.6755  138.2182  154.4213 O   0  0  0  0  0  0  0  0  0  0  0  0
  147.2247  138.7671  153.1841 C   0  0  1  0  0  0  0  0  0  0  0  0
  145.8326  138.2248  152.8154 C   0  0  0  0  0  0  0  0  0  0  0  0
  145.5261  138.5449  151.4753 O   0  0  0  0  0  0  0  0  0  0  0  0
  147.3107  140.2857  153.3956 C   0  0  1  0  0  0  0  0  0  0  0  0
  146.1651  140.7795  154.0666 O   0  0  0  0  0  0  0  0  0  0  0  0
  148.5421  140.4306  154.2756 C   0  0  2  0  0  0  0  0  0  0  0  0
  149.7060  140.5954  153.4846 O   0  0  0  0  0  0  0  0  0  0  0  0
  148.1317  139.2609  156.0980 H   0  0  0  0  0  0  0  0  0  0  0  0
  147.9391  138.5037  152.4033 H   0  0  0  0  0  0  0  0  0  0  0  0
  147.4054  140.8237  152.4513 H   0  0  0  0  0  0  0  0  0  0  0  0
  148.4742  141.2820  154.9542 H   0  0  0  0  0  0  0  0  0  0  0  0
  154.2099  136.6466  155.9815 H   0  0  0  0  0  0  0  0  0  0  0  0
  155.0319  137.6833  157.1284 H   0  0  0  0  0  0  0  0  0  0  0  0
  149.7631  136.7858  153.9625 H   0  0  0  0  0  0  0  0  0  0  0  0
  145.7713  137.1470  152.9697 H   0  0  0  0  0  0  0  0  0  0  0  0
  145.0707  138.6890  153.4421 H   0  0  0  0  0  0  0  0  0  0  0  0
  144.8158  139.1683  151.4692 H   0  0  0  0  0  0  0  0  0  0  0  0
  145.4449  140.8007  153.4550 H   0  0  0  0  0  0  0  0  0  0  0  0
  149.6043  140.0875  152.6943 H   0  0  0  0  0  0  0  0  0  0  0  0
  1  2  1  0  0  0  0
  1 25  1  0  0  0  0
  1 26  1  0  0  0  0
  2  8  1  0  0  0  0
  2  3  2  0  0  0  0
  3  4  1  0  0  0  0
  4  5  1  0  0  0  0
  4  6  2  0  0  0  0
  6  7  1  0  0  0  0
  7 11  1  0  0  0  0
  7  8  2  0  0  0  0
  8  9  1  0  0  0  0
  9 10  2  0  0  0  0
 10 11  1  0  0  0  0
 10 27  1  0  0  0  0
 11 12  1  0  0  0  0
 12 21  1  0  0  0  0
 12 19  1  0  0  0  0
 12 13  1  0  0  0  0
 13 14  1  0  0  0  0
 14 22  1  0  0  0  0
 14 15  1  0  0  0  0
 14 17  1  0  0  0  0
 15 16  1  0  0  0  0
 15 28  1  0  0  0  0
 15 29  1  0  0  0  0
 16 30  1  0  0  0  0
 17 23  1  0  0  0  0
 17 18  1  0  0  0  0
 17 19  1  0  0  0  0
 18 31  1  0  0  0  0
 19 24  1  0  0  0  0
 19 20  1  0  0  0  0
 20 32  1  0  0  0  0
M  END
> <s_m_source_file>
AV-unprocessed.smi

> <i_m_source_file_index>
114

> <i_lp_mmshare_version>
43012

> <i_f3d_flags>
0

> <s_epik_input>
RmMobjEpbmMoW05IMl0pYyhjMTIpbltjSF1uMltDQEBIXTNPW0NASF0oW0NIMl1bT0hdKVtDQEBIXShbT0hdKVtDQEBIXTNbT0hd

> <s_epik_cmdline>
J2VwaWtfcHl0aG9uJywgJy1waCcsICc3LjAnLCAnLXRuJywgJzgnLCAnLW1hJywgJzIwMCcsICctbWV0YWxfYmluZGluZycsICctaW1hZScsICc8aW5maWxlLm1hZT4nLCAnLW9tYWUnLCAnPG91dGZpbGUubWFlPic=

> <r_lp_tautomer_probability>
1

> <r_epik_Ionization_Penalty>
1.13199e-05

> <r_epik_Ionization_Penalty_Charging>
0

> <r_epik_Ionization_Penalty_Neutral>
1.13199e-05

> <r_epik_State_Penalty>
-0

> <r_epik_Charging_Adjusted_Penalty>
0

> <i_epik_Tot_Q>
0

> <i_epik_Tot_abs_Q>
0

> <r_epik_Metal_State_Penalty>
-0

> <b_epik_Metal_Only>
0

> <s_epik_Chemistry_Notes>
This compound contains an acetal/aminal-like group ( X-CH(R)-Y where X, Y are N, S, or O) that may be acid/base labile, releasing an aldehyde.

> <s_lp_Force_Field>
OPLS_2005

> <r_lp_Energy>
40.543

> <b_lp_Chiralities_Consistent>
1

> <s_lp_Variant>
AV-unprocessed.smi:114-3

> <Gold.Version>
5.8.1

> <Gold.Id.Protein>
6NUR|6NUR_protein|mol2

> <Gold.PLP.Fitness>
43.9283

> <Gold.PLP.PLP>
-24.5878

> <Gold.PLP.part.hbond>
-6.6164

> <Gold.PLP.part.metal>
0.0000

> <Gold.PLP.part.buried>
-3.4386

> <Gold.PLP.part.nonpolar>
-17.0272

> <Gold.PLP.part.repulsive>
0.4419

> <Gold.PLP.ligand.clash>
0.0000

> <Gold.PLP.ligand.torsion>
0.3710

> <Gold.PLP.Chemscore.Hbond>
5.6935

> <Gold.PLP.Chemscore.CHOScore>
1.0000

> <Gold.PLP.Chemscore.Metal>
0.0000

> <Gold.Chemscore.Hbonds>
donor molecule, donor type, donor heavy atom, donor atom, acceptor molecule, acceptor atom, score
      L1  H    16    30       P1 10175  1.00
      L1  H    18    31       P1 10175  0.99
      L1  H    20    32       P1  7957  0.96
      P1  H  7989  7998       L1    20  0.42
      P1  H  7997  8010       L1     3  1.00
      P1  H  8011  8017       L1    20  0.35
      P1  H 10752 10764       L1     9  1.00
      L1  C    10    27       P1  7948  1.00

> <Gold.PLP.Chemscore.Internal.Correction>
0.0020

> <Gold.Rescore>
     Score         DG    S(hbond)    S(metal)    S(lipo)     H(rot)  DE(clash)    DE(int)     intcor
     13.19     -13.51       4.45        0.00      29.54       4.03       0.09       0.22       ----

> <Gold.Chemscore.Fitness>
13.1936

> <Gold.Chemscore.DG>
-13.5054

> <Gold.Chemscore.ZeroCoef>
-5.4800

> <Gold.Chemscore.Hbond>
4.4550

> <Gold.Chemscore.Metal>
0.0000

> <Gold.Chemscore.Lipo>
29.5440

> <Gold.Chemscore.Internal_Hbond>
0.0000

> <Gold.Chemscore.DEClash>
0.0910

> <Gold.Chemscore.DEInternal>
0.2208

> <Gold.Chemscore.Rot>
4.0277

> <Gold.Chemscore.Internal.Correction>
   9.000000E+99

> <Gold.Chemscore.Hbonds>
donor molecule, donor type, donor heavy atom, donor atom, acceptor molecule, acceptor atom, score
      L1  H    16    30       P1 10175  0.76
      L1  H    18    31       P1 10175  0.76
      L1  H    20    32       P1  7957  0.86
      P1  H  7989  7998       L1    20  0.11
      P1  H  7997  8010       L1     3  0.32
      P1  H  8011  8017       L1    20  0.01
      P1  H 10752 10764       L1     9  0.89

> <Gold.Chemscore.Hbond.Weighted>
-14.8797

> <Gold.Chemscore.Metal.Weighted>
-0.0000

> <Gold.Chemscore.Lipo.Weighted>
-3.4567

> <Gold.Chemscore.Internal_Hbond.Weighted>
0.0000

> <Gold.Chemscore.DEClash.Weighted>
0.0910

> <Gold.Chemscore.DEInternal.Weighted>
0.2208

> <Gold.Chemscore.Rot.Weighted>
10.3110

> <Gold.Chemscore.Internal.Correction.Weighted>
   9.000000E+99

> <Gold.Protein.RotatedTorsions>
[ 6907 6896 6895 6894 ] final    2.02 input  -60.11 | X-H torsion
[ 7974 7965 7964 7962 ] final  139.80 input  175.53 | X-H torsion
[ 8008 7997 7996 7995 ] final   31.50 input   59.86 | X-H torsion
[ 10167 10162 10161 10158 ] final -102.36 input  -65.29 | X-H torsion
[ 10718 10713 10712 10709 ] final  158.98 input   66.30 | X-H torsion
[ 10763 10752 10751 10750 ] final  -68.01 input  -60.55 | X-H torsion
[ 11005 11000 10999 10996 ] final   57.34 input  -57.11 | X-H torsion

> <Gold.Protein.ActiveResidues>
 VAL166  LYS551  ARG553  GLY616  TRP617  ASP618  TYR619  PRO620  LYS621  CYS622 
 ASP623  PHE694  ASN695  SER759  ASP760  ASP761  ALA762  ILE779  LEU786  VAL792 
 PHE793  MET794  SER795  GLU796  ALA797  LYS798  CYS799  TRP800  GLU811  SER814 

> <Gold.Protein.RotatedAtoms>
  151.6021  135.1046  160.0062 H   0  0  0  0  0  0  0  0  0  0  0  0  # atno 6907 bound_to 6896
  152.4252  133.7179  159.6527 H   0  0  0  0  0  0  0  0  0  0  0  0  # atno 6908 bound_to 6896
  150.8141  133.8296  159.3191 H   0  0  0  0  0  0  0  0  0  0  0  0  # atno 6909 bound_to 6896
  144.9245  139.5125  143.5647 H   0  0  0  0  0  0  0  0  0  0  0  0  # atno 7974 bound_to 7965
  155.1074  140.3235  155.4530 H   0  0  0  0  0  0  0  0  0  0  0  0  # atno 8008 bound_to 7997
  156.2700  140.2050  156.6147 H   0  0  0  0  0  0  0  0  0  0  0  0  # atno 8009 bound_to 7997
  154.6782  140.0529  157.0225 H   0  0  0  0  0  0  0  0  0  0  0  0  # atno 8010 bound_to 7997
  140.2315  143.3603  152.0882 H   0  0  0  0  0  0  0  0  0  0  0  0  # atno 10167 bound_to 10162
  157.1705  131.0609  151.2185 H   0  0  0  0  0  0  0  0  0  0  0  0  # atno 10718 bound_to 10713
  154.3828  135.6070  153.5800 H   0  0  0  0  0  0  0  0  0  0  0  0  # atno 10763 bound_to 10752
  152.9788  135.5865  154.4390 H   0  0  0  0  0  0  0  0  0  0  0  0  # atno 10764 bound_to 10752
  154.4161  135.2845  155.1983 H   0  0  0  0  0  0  0  0  0  0  0  0  # atno 10765 bound_to 10752
  140.0460  134.5805  155.9322 H   0  0  0  0  0  0  0  0  0  0  0  0  # atno 11005 bound_to 11000
  146.3220  139.8149  142.8938 LP  0  0  0  0  0  0  0  0  0  0  0  0  # atno 17320 bound_to 7965
  145.3242  141.0251  143.3483 LP  0  0  0  0  0  0  0  0  0  0  0  0  # atno 17321 bound_to 7965
  139.5108  144.6890  151.5810 LP  0  0  0  0  0  0  0  0  0  0  0  0  # atno 17342 bound_to 10162
  140.6181  143.9310  150.6504 LP  0  0  0  0  0  0  0  0  0  0  0  0  # atno 17343 bound_to 10162
  157.4047  130.7352  149.6794 LP  0  0  0  0  0  0  0  0  0  0  0  0  # atno 17370 bound_to 10713
  155.9739  130.4111  150.3965 LP  0  0  0  0  0  0  0  0  0  0  0  0  # atno 17371 bound_to 10713
  141.1907  133.6569  156.5423 LP  0  0  0  0  0  0  0  0  0  0  0  0  # atno 17394 bound_to 11000
  140.3993  134.7370  157.4770 LP  0  0  0  0  0  0  0  0  0  0  0  0  # atno 17395 bound_to 11000

$$$$
