AV-unprocessed.smi:556|AV-procd|sdf|2912|dock7
  -GOLD-   2262023403D 1   1.00000     0.00000
 Structure written by MMmdl.
 38 39  0  0  0  0  0  0  0  0  1 V2000
  153.1566  143.8219  159.5425 C   0  0  0  0  0  0  0  0  0  0  0  0
  152.6410  142.5326  160.2041 C   0  0  2  0  0  0  0  0  0  0  0  0
  152.7444  142.5508  161.7442 C   0  0  0  0  0  0  0  0  0  0  0  0
  154.0859  142.3760  162.1742 O   0  0  0  0  0  0  0  0  0  0  0  0
  154.6156  141.1321  161.7437 C   0  0  0  0  0  0  0  0  0  0  0  0
  154.6568  141.1087  160.2098 C   0  0  0  0  0  0  0  0  0  0  0  0
  153.3169  141.3395  159.6441 N   0  0  0  0  0  0  0  0  0  0  0  0
  152.8049  140.5135  158.6940 C   0  0  0  0  0  0  0  0  0  0  0  0
  153.4009  139.5263  158.2603 O   0  0  0  0  0  0  0  0  0  0  0  0
  151.6051  140.8802  158.2139 N   0  0  0  0  0  0  0  0  0  0  0  0
  150.8723  140.1677  157.1769 C   0  0  0  0  0  0  0  0  0  0  0  0
  150.8355  140.9903  155.8824 C   0  0  0  0  0  0  0  0  0  0  0  0
  149.7128  140.5543  154.9832 C   0  0  0  0  0  0  0  0  0  0  0  0
  149.4276  139.2388  154.5178 C   0  0  0  0  0  0  0  0  0  0  0  0
  148.3623  139.1889  153.7349 N   0  0  0  0  0  0  0  0  0  0  0  0
  147.9309  140.4654  153.6738 N   0  0  0  0  0  0  0  0  0  0  0  0
  146.7586  140.7845  152.8879 C   0  0  0  0  0  0  0  0  0  0  0  0
  148.7266  141.3114  154.4161 C   0  0  0  0  0  0  0  0  0  0  0  0
  152.6090  144.6920  159.9057 H   0  0  0  0  0  0  0  0  0  0  0  0
  153.0336  143.7853  158.4598 H   0  0  0  0  0  0  0  0  0  0  0  0
  154.2131  143.9889  159.7534 H   0  0  0  0  0  0  0  0  0  0  0  0
  151.5689  142.4988  160.0086 H   0  0  0  0  0  0  0  0  0  0  0  0
  152.3646  143.4930  162.1400 H   0  0  0  0  0  0  0  0  0  0  0  0
  152.1231  141.7634  162.1742 H   0  0  0  0  0  0  0  0  0  0  0  0
  155.6219  141.0194  162.1474 H   0  0  0  0  0  0  0  0  0  0  0  0
  154.0204  140.3050  162.1345 H   0  0  0  0  0  0  0  0  0  0  0  0
  155.3301  141.8855  159.8463 H   0  0  0  0  0  0  0  0  0  0  0  0
  155.0975  140.1635  159.8907 H   0  0  0  0  0  0  0  0  0  0  0  0
  151.1736  141.7100  158.5940 H   0  0  0  0  0  0  0  0  0  0  0  0
  151.3465  139.2022  156.9935 H   0  0  0  0  0  0  0  0  0  0  0  0
  149.8578  139.9702  157.5269 H   0  0  0  0  0  0  0  0  0  0  0  0
  150.7335  142.0477  156.1298 H   0  0  0  0  0  0  0  0  0  0  0  0
  151.7939  140.8973  155.3698 H   0  0  0  0  0  0  0  0  0  0  0  0
  149.9623  138.3235  154.7250 H   0  0  0  0  0  0  0  0  0  0  0  0
  146.5051  141.8386  153.0046 H   0  0  0  0  0  0  0  0  0  0  0  0
  145.9145  140.1789  153.2198 H   0  0  0  0  0  0  0  0  0  0  0  0
  146.9541  140.5807  151.8347 H   0  0  0  0  0  0  0  0  0  0  0  0
  148.5279  142.3713  154.4793 H   0  0  0  0  0  0  0  0  0  0  0  0
  1  2  1  0  0  0  0
  1 19  1  0  0  0  0
  1 20  1  0  0  0  0
  1 21  1  0  0  0  0
  2  7  1  0  0  0  0
  2  3  1  0  0  0  0
  2 22  1  0  0  0  0
  3  4  1  0  0  0  0
  3 23  1  0  0  0  0
  3 24  1  0  0  0  0
  4  5  1  0  0  0  0
  5  6  1  0  0  0  0
  5 25  1  0  0  0  0
  5 26  1  0  0  0  0
  6  7  1  0  0  0  0
  6 27  1  0  0  0  0
  6 28  1  0  0  0  0
  7  8  1  0  0  0  0
  8  9  2  0  0  0  0
  8 10  1  0  0  0  0
 10 11  1  0  0  0  0
 10 29  1  0  0  0  0
 11 12  1  0  0  0  0
 11 30  1  0  0  0  0
 11 31  1  0  0  0  0
 12 13  1  0  0  0  0
 12 32  1  0  0  0  0
 12 33  1  0  0  0  0
 13 18  2  0  0  0  0
 13 14  1  0  0  0  0
 14 15  2  0  0  0  0
 14 34  1  0  0  0  0
 15 16  1  0  0  0  0
 16 17  1  0  0  0  0
 16 18  1  0  0  0  0
 17 35  1  0  0  0  0
 17 36  1  0  0  0  0
 17 37  1  0  0  0  0
 18 38  1  0  0  0  0
M  END
> <s_m_source_file>
AV-unprocessed.smi

> <i_m_source_file_index>
556

> <i_lp_mmshare_version>
43012

> <i_f3d_flags>
0

> <s_epik_input>
W0NIM11bQ0BASF0xW0NIMl1PW0NIMl1bQ0gyXU4xQyg9TylbTkhdW0NIMl1bQ0gyXWMyW2NIXW5uKFtDSDNdKVtjSF0y

> <s_epik_cmdline>
J2VwaWtfcHl0aG9uJywgJy1waCcsICc3LjAnLCAnLXRuJywgJzgnLCAnLW1hJywgJzIwMCcsICctbWV0YWxfYmluZGluZycsICctaW1hZScsICc8aW5maWxlLm1hZT4nLCAnLW9tYWUnLCAnPG91dGZpbGUubWFlPic=

> <r_lp_tautomer_probability>
1

> <r_epik_Ionization_Penalty>
0.000536334

> <r_epik_Ionization_Penalty_Charging>
0

> <r_epik_Ionization_Penalty_Neutral>
0.000536334

> <r_epik_State_Penalty>
-0

> <r_epik_Charging_Adjusted_Penalty>
0

> <i_epik_Tot_Q>
0

> <i_epik_Tot_abs_Q>
0

> <r_epik_Metal_State_Penalty>
-0

> <b_epik_Metal_Only>
0

> <s_lp_Force_Field>
OPLS_2005

> <r_lp_Energy>
29.3296

> <b_lp_Chiralities_Consistent>
1

> <s_lp_Variant>
AV-unprocessed.smi:556-1

> <Gold.Version>
5.8.1

> <Gold.Id.Protein>
6NUR|6NUR_protein|mol2

> <Gold.PLP.Fitness>
43.2903

> <Gold.PLP.PLP>
-37.6582

> <Gold.PLP.part.hbond>
-2.0000

> <Gold.PLP.part.metal>
0.0000

> <Gold.PLP.part.buried>
-1.9201

> <Gold.PLP.part.nonpolar>
-34.0089

> <Gold.PLP.part.repulsive>
1.4381

> <Gold.PLP.ligand.clash>
0.0000

> <Gold.PLP.ligand.torsion>
0.1885

> <Gold.PLP.Chemscore.Hbond>
1.0000

> <Gold.PLP.Chemscore.CHOScore>
1.0000

> <Gold.PLP.Chemscore.Metal>
0.0000

> <Gold.Chemscore.Hbonds>
donor molecule, donor type, donor heavy atom, donor atom, acceptor molecule, acceptor atom, score
      P1  H  7997  8009       L1     9  1.00
      L1  C    18    38       P1  8028  0.75

> <Gold.PLP.Chemscore.Internal.Correction>
0.0091

> <Gold.Rescore>
     Score         DG    S(hbond)    S(metal)    S(lipo)     H(rot)  DE(clash)    DE(int)     intcor
     15.63     -16.15       0.98        0.00      93.96       1.40       0.28       0.24       ----

> <Gold.Chemscore.Fitness>
15.6279

> <Gold.Chemscore.DG>
-16.1509

> <Gold.Chemscore.ZeroCoef>
-5.4800

> <Gold.Chemscore.Hbond>
0.9765

> <Gold.Chemscore.Metal>
0.0000

> <Gold.Chemscore.Lipo>
93.9614

> <Gold.Chemscore.Internal_Hbond>
0.0000

> <Gold.Chemscore.DEClash>
0.2797

> <Gold.Chemscore.DEInternal>
0.2432

> <Gold.Chemscore.Rot>
1.4001

> <Gold.Chemscore.Internal.Correction>
   9.000000E+99

> <Gold.Chemscore.Hbonds>
donor molecule, donor type, donor heavy atom, donor atom, acceptor molecule, acceptor atom, score
      P1  H  7997  8009       L1     9  0.70

> <Gold.Chemscore.Hbond.Weighted>
-3.2616

> <Gold.Chemscore.Metal.Weighted>
-0.0000

> <Gold.Chemscore.Lipo.Weighted>
-10.9935

> <Gold.Chemscore.Internal_Hbond.Weighted>
0.0000

> <Gold.Chemscore.DEClash.Weighted>
0.2797

> <Gold.Chemscore.DEInternal.Weighted>
0.2432

> <Gold.Chemscore.Rot.Weighted>
3.5842

> <Gold.Chemscore.Internal.Correction.Weighted>
   9.000000E+99

> <Gold.Protein.RotatedTorsions>
[ 6907 6896 6895 6894 ] final  150.80 input  -60.11 | X-H torsion
[ 7974 7965 7964 7962 ] final  101.09 input  175.53 | X-H torsion
[ 8008 7997 7996 7995 ] final  162.37 input   59.86 | X-H torsion
[ 10167 10162 10161 10158 ] final  127.23 input  -65.29 | X-H torsion
[ 10718 10713 10712 10709 ] final   74.40 input   66.30 | X-H torsion
[ 10763 10752 10751 10750 ] final   11.55 input  -60.55 | X-H torsion
[ 11005 11000 10999 10996 ] final  -96.16 input  -57.11 | X-H torsion

> <Gold.Protein.ActiveResidues>
 VAL166  LYS551  ARG553  GLY616  TRP617  ASP618  TYR619  PRO620  LYS621  CYS622 
 ASP623  PHE694  ASN695  SER759  ASP760  ASP761  ALA762  ILE779  LEU786  VAL792 
 PHE793  MET794  SER795  GLU796  ALA797  LYS798  CYS799  TRP800  GLU811  SER814 

> <Gold.Protein.RotatedAtoms>
  152.1094  133.4292  159.4623 H   0  0  0  0  0  0  0  0  0  0  0  0  # atno 6907 bound_to 6896
  150.6866  134.2666  159.4580 H   0  0  0  0  0  0  0  0  0  0  0  0  # atno 6908 bound_to 6896
  152.0533  134.9639  160.0625 H   0  0  0  0  0  0  0  0  0  0  0  0  # atno 6909 bound_to 6896
  145.3770  139.2387  143.3424 H   0  0  0  0  0  0  0  0  0  0  0  0  # atno 7974 bound_to 7965
  156.2036  140.1752  156.7847 H   0  0  0  0  0  0  0  0  0  0  0  0  # atno 8008 bound_to 7997
  154.5625  140.0697  156.8871 H   0  0  0  0  0  0  0  0  0  0  0  0  # atno 8009 bound_to 7997
  155.2822  140.3349  155.4260 H   0  0  0  0  0  0  0  0  0  0  0  0  # atno 8010 bound_to 7997
  139.5589  144.6868  151.4100 H   0  0  0  0  0  0  0  0  0  0  0  0  # atno 10167 bound_to 10162
  157.6590  130.9676  150.1206 H   0  0  0  0  0  0  0  0  0  0  0  0  # atno 10718 bound_to 10713
  153.1915  135.6843  153.8347 H   0  0  0  0  0  0  0  0  0  0  0  0  # atno 10763 bound_to 10752
  153.7644  135.3205  155.3343 H   0  0  0  0  0  0  0  0  0  0  0  0  # atno 10764 bound_to 10752
  154.8120  135.4711  154.0639 H   0  0  0  0  0  0  0  0  0  0  0  0  # atno 10765 bound_to 10752
  141.1420  133.8078  157.0534 H   0  0  0  0  0  0  0  0  0  0  0  0  # atno 11005 bound_to 11000
  146.2860  140.4430  142.8758 LP  0  0  0  0  0  0  0  0  0  0  0  0  # atno 17320 bound_to 7965
  144.8535  140.7036  143.6153 LP  0  0  0  0  0  0  0  0  0  0  0  0  # atno 17321 bound_to 7965
  140.6866  143.7958  150.7195 LP  0  0  0  0  0  0  0  0  0  0  0  0  # atno 17342 bound_to 10162
  140.1428  143.4426  152.2182 LP  0  0  0  0  0  0  0  0  0  0  0  0  # atno 17343 bound_to 10162
  156.2078  130.3664  149.8707 LP  0  0  0  0  0  0  0  0  0  0  0  0  # atno 17370 bound_to 10713
  156.6594  130.8776  151.3545 LP  0  0  0  0  0  0  0  0  0  0  0  0  # atno 17371 bound_to 10713
  140.0617  134.9751  157.1316 LP  0  0  0  0  0  0  0  0  0  0  0  0  # atno 17394 bound_to 11000
  140.3838  134.2258  155.7169 LP  0  0  0  0  0  0  0  0  0  0  0  0  # atno 17395 bound_to 11000

$$$$
