AV-unprocessed.smi:213|AV-procd|sdf|1644|dock5
  -GOLD-   2262020 13D 1   1.00000     0.00000
 Structure written by MMmdl.
 58 61  0  0  0  0  0  0  0  0  1 V2000
  153.2588  138.5288  158.5305 C   0  0  0  0  0  0  0  0  0  0  0  0
  151.7880  138.9476  158.7290 C   0  0  1  0  0  0  0  0  0  0  0  0
  151.4226  140.2314  157.9450 C   0  0  0  0  0  0  0  0  0  0  0  0
  152.1639  141.4391  158.3131 N   0  0  0  0  0  0  0  0  0  0  0  0
  152.5335  141.4081  159.7243 C   0  0  0  0  0  0  0  0  0  0  0  0
  153.3315  142.6550  160.1408 C   0  0  0  0  0  0  0  0  0  0  0  0
  152.5720  143.8224  159.8469 O   0  0  0  0  0  0  0  0  0  0  0  0
  152.2348  143.9206  158.4674 C   0  0  0  0  0  0  0  0  0  0  0  0
  151.4406  142.6759  158.0330 C   0  0  0  0  0  0  0  0  0  0  0  0
  150.9040  137.8395  158.3561 N   0  0  0  0  0  0  0  0  0  0  0  0
  150.1704  137.0863  159.3711 C   0  0  0  0  0  0  0  0  0  0  0  0
  150.8737  137.3726  157.0796 C   0  0  0  0  0  0  0  0  0  0  0  0
  151.3603  138.1800  156.0999 N   0  0  0  0  0  0  0  0  0  0  0  0
  151.3698  137.7755  154.8269 C   0  0  0  0  0  0  0  0  0  0  0  0
  150.9413  136.6209  154.3159 N   0  0  0  0  0  0  0  0  0  0  0  0
  150.4357  135.8097  155.2875 C   0  0  0  0  0  0  0  0  0  0  0  0
  150.3624  136.1005  156.6807 C   0  0  0  0  0  0  0  0  0  0  0  0
  149.7661  135.0330  157.3443 N   0  0  0  0  0  0  0  0  0  0  0  0
  149.5132  134.1636  156.4062 C   0  0  0  0  0  0  0  0  0  0  0  0
  149.8775  134.5525  155.1384 N   0  0  0  0  0  0  0  0  0  0  0  0
  149.7037  133.7950  153.9123 C   0  0  0  0  0  0  0  0  0  0  0  0
  148.2225  133.5382  153.5609 C   0  0  1  0  0  0  0  0  0  0  0  0
  147.7047  134.7386  153.0231 O   0  0  0  0  0  0  0  0  0  0  0  0
  147.9928  132.3921  152.5504 C   0  0  2  0  0  0  0  0  0  0  0  0
  146.6077  132.3908  151.8989 C   0  0  0  0  0  0  0  0  0  0  0  0
  146.3953  130.9403  151.4946 C   0  0  0  0  0  0  0  0  0  0  0  0
  147.4614  130.1764  152.2827 C   0  0  0  0  0  0  0  0  0  0  0  0
  147.9918  131.1265  153.1941 O   0  0  0  0  0  0  0  0  0  0  0  0
  153.9544  139.2888  158.8808 H   0  0  0  0  0  0  0  0  0  0  0  0
  153.4901  138.3426  157.4817 H   0  0  0  0  0  0  0  0  0  0  0  0
  153.4786  137.6152  159.0840 H   0  0  0  0  0  0  0  0  0  0  0  0
  151.6670  139.1367  159.7953 H   0  0  0  0  0  0  0  0  0  0  0  0
  151.5053  140.0503  156.8723 H   0  0  0  0  0  0  0  0  0  0  0  0
  150.3648  140.4358  158.1189 H   0  0  0  0  0  0  0  0  0  0  0  0
  151.6355  141.3345  160.3395 H   0  0  0  0  0  0  0  0  0  0  0  0
  153.1273  140.5172  159.9320 H   0  0  0  0  0  0  0  0  0  0  0  0
  153.5466  142.6283  161.2090 H   0  0  0  0  0  0  0  0  0  0  0  0
  154.2899  142.6928  159.6206 H   0  0  0  0  0  0  0  0  0  0  0  0
  151.6434  144.8223  158.3074 H   0  0  0  0  0  0  0  0  0  0  0  0
  153.1432  144.0243  157.8720 H   0  0  0  0  0  0  0  0  0  0  0  0
  151.2447  142.7593  156.9654 H   0  0  0  0  0  0  0  0  0  0  0  0
  150.4737  142.6645  158.5378 H   0  0  0  0  0  0  0  0  0  0  0  0
  150.2356  136.0134  159.1855 H   0  0  0  0  0  0  0  0  0  0  0  0
  149.1189  137.3741  159.3702 H   0  0  0  0  0  0  0  0  0  0  0  0
  150.5720  137.2709  160.3674 H   0  0  0  0  0  0  0  0  0  0  0  0
  151.7797  138.4779  154.1163 H   0  0  0  0  0  0  0  0  0  0  0  0
  149.0403  133.2150  156.6147 H   0  0  0  0  0  0  0  0  0  0  0  0
  150.1938  134.3418  153.1056 H   0  0  0  0  0  0  0  0  0  0  0  0
  150.2360  132.8482  154.0155 H   0  0  0  0  0  0  0  0  0  0  0  0
  147.6655  133.3253  154.4740 H   0  0  0  0  0  0  0  0  0  0  0  0
  148.3386  135.0953  152.4201 H   0  0  0  0  0  0  0  0  0  0  0  0
  148.7663  132.4015  151.7799 H   0  0  0  0  0  0  0  0  0  0  0  0
  145.8500  132.6789  152.6291 H   0  0  0  0  0  0  0  0  0  0  0  0
  146.5385  133.0784  151.0556 H   0  0  0  0  0  0  0  0  0  0  0  0
  145.3882  130.6089  151.7496 H   0  0  0  0  0  0  0  0  0  0  0  0
  146.5351  130.7990  150.4226 H   0  0  0  0  0  0  0  0  0  0  0  0
  147.0565  129.3121  152.8094 H   0  0  0  0  0  0  0  0  0  0  0  0
  148.2568  129.8311  151.6204 H   0  0  0  0  0  0  0  0  0  0  0  0
  1  2  1  0  0  0  0
  1 29  1  0  0  0  0
  1 30  1  0  0  0  0
  1 31  1  0  0  0  0
  2  3  1  0  0  0  0
  2 10  1  0  0  0  0
  2 32  1  0  0  0  0
  3  4  1  0  0  0  0
  3 33  1  0  0  0  0
  3 34  1  0  0  0  0
  4  9  1  0  0  0  0
  4  5  1  0  0  0  0
  5  6  1  0  0  0  0
  5 35  1  0  0  0  0
  5 36  1  0  0  0  0
  6  7  1  0  0  0  0
  6 37  1  0  0  0  0
  6 38  1  0  0  0  0
  7  8  1  0  0  0  0
  8  9  1  0  0  0  0
  8 39  1  0  0  0  0
  8 40  1  0  0  0  0
  9 41  1  0  0  0  0
  9 42  1  0  0  0  0
 10 11  1  0  0  0  0
 10 12  1  0  0  0  0
 11 43  1  0  0  0  0
 11 44  1  0  0  0  0
 11 45  1  0  0  0  0
 12 17  1  0  0  0  0
 12 13  2  0  0  0  0
 13 14  1  0  0  0  0
 14 15  2  0  0  0  0
 14 46  1  0  0  0  0
 15 16  1  0  0  0  0
 16 20  1  0  0  0  0
 16 17  2  0  0  0  0
 17 18  1  0  0  0  0
 18 19  2  0  0  0  0
 19 20  1  0  0  0  0
 19 47  1  0  0  0  0
 20 21  1  0  0  0  0
 21 22  1  0  0  0  0
 21 48  1  0  0  0  0
 21 49  1  0  0  0  0
 22 23  1  0  0  0  0
 22 24  1  0  0  0  0
 22 50  1  0  0  0  0
 23 51  1  0  0  0  0
 24 28  1  0  0  0  0
 24 25  1  0  0  0  0
 24 52  1  0  0  0  0
 25 26  1  0  0  0  0
 25 53  1  0  0  0  0
 25 54  1  0  0  0  0
 26 27  1  0  0  0  0
 26 55  1  0  0  0  0
 26 56  1  0  0  0  0
 27 28  1  0  0  0  0
 27 57  1  0  0  0  0
 27 58  1  0  0  0  0
M  END
> <s_m_source_file>
AV-unprocessed.smi

> <i_m_source_file_index>
213

> <i_lp_mmshare_version>
43012

> <i_f3d_flags>
0

> <s_epik_input>
W0NIMl0xW0NIMl1PW0NIMl1bQ0gyXU4xW0NIMl1bQ0BASF0oW0NIM10pTihbQ0gzXSljKG5bY0hdbjIpYyhjMjMpbltjSF1uM1tDSDJdW0NASF0oW09IXSlbQ0BASF00W0NIMl1bQ0gyXVtDSDJdTzQ=

> <s_epik_cmdline>
J2VwaWtfcHl0aG9uJywgJy1waCcsICc3LjAnLCAnLXRuJywgJzgnLCAnLW1hJywgJzIwMCcsICctbWV0YWxfYmluZGluZycsICctaW1hZScsICc8aW5maWxlLm1hZT4nLCAnLW9tYWUnLCAnPG91dGZpbGUubWFlPic=

> <r_lp_tautomer_probability>
1

> <r_epik_Ionization_Penalty>
0.423322

> <r_epik_Ionization_Penalty_Charging>
0

> <r_epik_Ionization_Penalty_Neutral>
0.423322

> <r_epik_State_Penalty>
0.569486

> <r_epik_Charging_Adjusted_Penalty>
0.569486

> <i_epik_Tot_Q>
0

> <i_epik_Tot_abs_Q>
0

> <r_epik_Metal_State_Penalty>
0.568671

> <b_epik_Metal_Only>
0

> <s_lp_Force_Field>
OPLS_2005

> <r_lp_Energy>
52.699

> <b_lp_Chiralities_Consistent>
1

> <s_lp_Variant>
AV-unprocessed.smi:213-12

> <Gold.Version>
5.8.1

> <Gold.Id.Protein>
6NUR|6NUR_protein|mol2

> <Gold.PLP.Fitness>
49.2410

> <Gold.PLP.PLP>
-43.5879

> <Gold.PLP.part.hbond>
-2.8686

> <Gold.PLP.part.metal>
0.0000

> <Gold.PLP.part.buried>
-5.8362

> <Gold.PLP.part.nonpolar>
-36.2764

> <Gold.PLP.part.repulsive>
0.2472

> <Gold.PLP.ligand.clash>
0.0000

> <Gold.PLP.ligand.torsion>
1.0576

> <Gold.PLP.Chemscore.Hbond>
2.5044

> <Gold.PLP.Chemscore.CHOScore>
0.0000

> <Gold.PLP.Chemscore.Metal>
0.0000

> <Gold.Chemscore.Hbonds>
donor molecule, donor type, donor heavy atom, donor atom, acceptor molecule, acceptor atom, score
      L1  H    23    51       P1  7948  0.59
      P1  H  6896  6909       L1    18  0.14
      P1  H 10752 10764       L1    15  0.21

> <Gold.PLP.Chemscore.Internal.Correction>
0.2553

> <Gold.Rescore>
     Score         DG    S(hbond)    S(metal)    S(lipo)     H(rot)  DE(clash)    DE(int)     intcor
     11.20     -15.43       1.47        0.00     102.88       2.74       0.44       3.79       ----

> <Gold.Chemscore.Fitness>
11.1979

> <Gold.Chemscore.DG>
-15.4268

> <Gold.Chemscore.ZeroCoef>
-5.4800

> <Gold.Chemscore.Hbond>
1.4727

> <Gold.Chemscore.Metal>
0.0000

> <Gold.Chemscore.Lipo>
102.8778

> <Gold.Chemscore.Internal_Hbond>
0.0000

> <Gold.Chemscore.DEClash>
0.4383

> <Gold.Chemscore.DEInternal>
3.7907

> <Gold.Chemscore.Rot>
2.7378

> <Gold.Chemscore.Internal.Correction>
   9.000000E+99

> <Gold.Chemscore.Hbonds>
donor molecule, donor type, donor heavy atom, donor atom, acceptor molecule, acceptor atom, score
      L1  H    23    51       P1  7948  0.34
      P1  H  6896  6909       L1    18  0.14

> <Gold.Chemscore.Hbond.Weighted>
-4.9188

> <Gold.Chemscore.Metal.Weighted>
-0.0000

> <Gold.Chemscore.Lipo.Weighted>
-12.0367

> <Gold.Chemscore.Internal_Hbond.Weighted>
0.0000

> <Gold.Chemscore.DEClash.Weighted>
0.4383

> <Gold.Chemscore.DEInternal.Weighted>
3.7907

> <Gold.Chemscore.Rot.Weighted>
7.0087

> <Gold.Chemscore.Internal.Correction.Weighted>
   9.000000E+99

> <Gold.Protein.RotatedTorsions>
[ 6907 6896 6895 6894 ] final   35.65 input  -60.11 | X-H torsion
[ 7974 7965 7964 7962 ] final   47.98 input  175.53 | X-H torsion
[ 8008 7997 7996 7995 ] final   78.98 input   59.86 | X-H torsion
[ 10167 10162 10161 10158 ] final  124.27 input  -65.29 | X-H torsion
[ 10718 10713 10712 10709 ] final   87.80 input   66.30 | X-H torsion
[ 10763 10752 10751 10750 ] final  -65.97 input  -60.55 | X-H torsion
[ 11005 11000 10999 10996 ] final -161.79 input  -57.11 | X-H torsion

> <Gold.Protein.ActiveResidues>
 VAL166  LYS551  ARG553  GLY616  TRP617  ASP618  TYR619  PRO620  LYS621  CYS622 
 ASP623  PHE694  ASN695  SER759  ASP760  ASP761  ALA762  ILE779  LEU786  VAL792 
 PHE793  MET794  SER795  GLU796  ALA797  LYS798  CYS799  TRP800  GLU811  SER814 

> <Gold.Protein.RotatedAtoms>
  152.1190  134.9219  160.0563 H   0  0  0  0  0  0  0  0  0  0  0  0  # atno 6907 bound_to 6896
  152.0367  133.3955  159.4328 H   0  0  0  0  0  0  0  0  0  0  0  0  # atno 6908 bound_to 6896
  150.6848  134.3381  159.4900 H   0  0  0  0  0  0  0  0  0  0  0  0  # atno 6909 bound_to 6896
  146.0247  139.4693  142.9875 H   0  0  0  0  0  0  0  0  0  0  0  0  # atno 7974 bound_to 7965
  155.8633  140.3452  155.5771 H   0  0  0  0  0  0  0  0  0  0  0  0  # atno 8008 bound_to 7997
  155.7909  140.0871  157.2029 H   0  0  0  0  0  0  0  0  0  0  0  0  # atno 8009 bound_to 7997
  154.4013  140.1483  156.3149 H   0  0  0  0  0  0  0  0  0  0  0  0  # atno 8010 bound_to 7997
  139.5751  144.6959  151.3674 H   0  0  0  0  0  0  0  0  0  0  0  0  # atno 10167 bound_to 10162
  157.6943  131.0270  150.3178 H   0  0  0  0  0  0  0  0  0  0  0  0  # atno 10718 bound_to 10713
  154.3529  135.6132  153.5651 H   0  0  0  0  0  0  0  0  0  0  0  0  # atno 10763 bound_to 10752
  152.9797  135.5796  154.4723 H   0  0  0  0  0  0  0  0  0  0  0  0  # atno 10764 bound_to 10752
  154.4447  135.2851  155.1800 H   0  0  0  0  0  0  0  0  0  0  0  0  # atno 10765 bound_to 10752
  140.6164  134.4796  157.5220 H   0  0  0  0  0  0  0  0  0  0  0  0  # atno 11005 bound_to 11000
  145.7136  141.0098  143.1440 LP  0  0  0  0  0  0  0  0  0  0  0  0  # atno 17320 bound_to 7965
  144.7005  139.8787  143.7445 LP  0  0  0  0  0  0  0  0  0  0  0  0  # atno 17321 bound_to 7965
  140.7034  143.7574  150.7441 LP  0  0  0  0  0  0  0  0  0  0  0  0  # atno 17342 bound_to 10162
  140.1092  143.4715  152.2380 LP  0  0  0  0  0  0  0  0  0  0  0  0  # atno 17343 bound_to 10162
  156.3669  130.3857  149.7206 LP  0  0  0  0  0  0  0  0  0  0  0  0  # atno 17370 bound_to 10713
  156.4633  130.7962  151.2982 LP  0  0  0  0  0  0  0  0  0  0  0  0  # atno 17371 bound_to 10713
  139.9171  134.8224  156.1331 LP  0  0  0  0  0  0  0  0  0  0  0  0  # atno 17394 bound_to 11000
  141.0772  133.6770  156.2262 LP  0  0  0  0  0  0  0  0  0  0  0  0  # atno 17395 bound_to 11000

$$$$
