AV-unprocessed.smi:583|AV-procd|sdf|2997|dock3
  -GOLD-   2262023503D 1   1.00000     0.00000
 Structure written by MMmdl.
 35 36  0  0  0  0  0  0  0  0  1 V2000
  149.2223  140.0334  156.9499 O   0  0  0  0  0  0  0  0  0  0  0  0
  149.7808  140.8513  156.2200 C   0  0  0  0  0  0  0  0  0  0  0  0
  151.3099  141.0009  156.3019 C   0  0  0  0  0  0  0  0  0  0  0  0
  151.8273  141.4149  157.6190 N   0  0  0  0  0  0  0  0  0  0  0  0
  151.4359  142.6839  158.0899 C   0  0  0  0  0  0  0  0  0  0  0  0
  151.8266  143.1762  159.2812 C   0  0  0  0  0  0  0  0  0  0  0  0
  151.4285  144.5702  159.7406 C   0  0  0  0  0  0  0  0  0  0  0  0
  151.8812  144.7851  160.9750 F   0  0  0  0  0  0  0  0  0  0  0  0
  151.9423  145.5046  158.9403 F   0  0  0  0  0  0  0  0  0  0  0  0
  150.1022  144.7125  159.7543 F   0  0  0  0  0  0  0  0  0  0  0  0
  152.7173  142.3415  160.0633 C   0  0  0  0  0  0  0  0  0  0  0  0
  153.1046  141.1274  159.6260 C   0  0  0  0  0  0  0  0  0  0  0  0
  152.6477  140.5937  158.3410 C   0  0  0  0  0  0  0  0  0  0  0  0
  152.9771  139.4772  157.9408 O   0  0  0  0  0  0  0  0  0  0  0  0
  149.1094  141.6226  155.3478 N   0  0  0  0  0  0  0  0  0  0  0  0
  147.6644  141.6097  155.1498 C   0  0  2  0  0  0  0  0  0  0  0  0
  147.2187  142.6001  154.0545 C   0  0  0  0  0  0  0  0  0  0  0  0
  145.7035  142.8073  154.1661 C   0  0  0  0  0  0  0  0  0  0  0  0
  145.2902  142.6006  155.9397 S   0  0  0  0  0  0  0  0  0  0  0  0
  145.0623  143.9192  156.5501 O   0  0  0  0  0  0  0  0  0  0  0  0
  144.2998  141.5217  156.0753 O   0  0  0  0  0  0  0  0  0  0  0  0
  146.9386  141.9835  156.4492 C   0  0  0  0  0  0  0  0  0  0  0  0
  151.7648  140.0573  155.9951 H   0  0  0  0  0  0  0  0  0  0  0  0
  151.6175  141.7172  155.5388 H   0  0  0  0  0  0  0  0  0  0  0  0
  150.7906  143.2320  157.4183 H   0  0  0  0  0  0  0  0  0  0  0  0
  153.0774  142.6931  161.0191 H   0  0  0  0  0  0  0  0  0  0  0  0
  153.7670  140.5316  160.2367 H   0  0  0  0  0  0  0  0  0  0  0  0
  149.6408  142.2692  154.7831 H   0  0  0  0  0  0  0  0  0  0  0  0
  147.3436  140.6066  154.8623 H   0  0  0  0  0  0  0  0  0  0  0  0
  147.7144  143.5587  154.2153 H   0  0  0  0  0  0  0  0  0  0  0  0
  147.5007  142.2604  153.0573 H   0  0  0  0  0  0  0  0  0  0  0  0
  145.3804  143.7871  153.8143 H   0  0  0  0  0  0  0  0  0  0  0  0
  145.1673  142.0414  153.6052 H   0  0  0  0  0  0  0  0  0  0  0  0
  146.8307  141.1437  157.1358 H   0  0  0  0  0  0  0  0  0  0  0  0
  147.4484  142.7954  156.9691 H   0  0  0  0  0  0  0  0  0  0  0  0
  1  2  2  0  0  0  0
  2  3  1  0  0  0  0
  2 15  1  0  0  0  0
  3  4  1  0  0  0  0
  3 23  1  0  0  0  0
  3 24  1  0  0  0  0
  4 13  1  0  0  0  0
  4  5  1  0  0  0  0
  5  6  2  0  0  0  0
  5 25  1  0  0  0  0
  6  7  1  0  0  0  0
  6 11  1  0  0  0  0
  7  8  1  0  0  0  0
  7  9  1  0  0  0  0
  7 10  1  0  0  0  0
 11 12  2  0  0  0  0
 11 26  1  0  0  0  0
 12 13  1  0  0  0  0
 12 27  1  0  0  0  0
 13 14  2  0  0  0  0
 15 16  1  0  0  0  0
 15 28  1  0  0  0  0
 16 22  1  0  0  0  0
 16 17  1  0  0  0  0
 16 29  1  0  0  0  0
 17 18  1  0  0  0  0
 17 30  1  0  0  0  0
 17 31  1  0  0  0  0
 18 19  1  0  0  0  0
 18 32  1  0  0  0  0
 18 33  1  0  0  0  0
 19 20  2  0  0  0  0
 19 21  2  0  0  0  0
 19 22  1  0  0  0  0
 22 34  1  0  0  0  0
 22 35  1  0  0  0  0
M  END
> <s_m_source_file>
AV-unprocessed.smi

> <i_m_source_file_index>
583

> <i_lp_mmshare_version>
43012

> <i_f3d_flags>
0

> <s_epik_input>
Tz1TMSg9TylbQ0gyXVtDSDJdW0NASF0oW0NIMl0xKVtOSF1DKD1PKVtDSDJdbjJbY0hdYyhDKEYpKEYpRilbY0hdW2NIXWMyPU8=

> <s_epik_cmdline>
J2VwaWtfcHl0aG9uJywgJy1waCcsICc3LjAnLCAnLXRuJywgJzgnLCAnLW1hJywgJzIwMCcsICctbWV0YWxfYmluZGluZycsICctaW1hZScsICc8aW5maWxlLm1hZT4nLCAnLW9tYWUnLCAnPG91dGZpbGUubWFlPic=

> <r_lp_tautomer_probability>
1

> <r_epik_Ionization_Penalty>
1.22016e-07

> <r_epik_Ionization_Penalty_Charging>
1.48237e-08

> <r_epik_Ionization_Penalty_Neutral>
1.07193e-07

> <r_epik_State_Penalty>
-0

> <r_epik_Charging_Adjusted_Penalty>
1.48237e-08

> <i_epik_Tot_Q>
0

> <i_epik_Tot_abs_Q>
0

> <r_epik_Metal_State_Penalty>
-0

> <b_epik_Metal_Only>
0

> <s_lp_Force_Field>
OPLS_2005

> <r_lp_Energy>
16.6381

> <b_lp_Chiralities_Consistent>
1

> <s_lp_Variant>
AV-unprocessed.smi:583-1

> <Gold.Version>
5.8.1

> <Gold.Id.Protein>
6NUR|6NUR_protein|mol2

> <Gold.PLP.Fitness>
45.4090

> <Gold.PLP.PLP>
-43.4429

> <Gold.PLP.part.hbond>
-1.7839

> <Gold.PLP.part.metal>
0.0000

> <Gold.PLP.part.buried>
-4.0800

> <Gold.PLP.part.nonpolar>
-37.8188

> <Gold.PLP.part.repulsive>
0.3757

> <Gold.PLP.ligand.clash>
0.4046

> <Gold.PLP.ligand.torsion>
0.1080

> <Gold.PLP.Chemscore.Hbond>
0.8500

> <Gold.PLP.Chemscore.CHOScore>
0.0000

> <Gold.PLP.Chemscore.Metal>
0.0000

> <Gold.Chemscore.Hbonds>
donor molecule, donor type, donor heavy atom, donor atom, acceptor molecule, acceptor atom, score
      P1  H  7997  8008       L1    14  0.85

> <Gold.PLP.Chemscore.Internal.Correction>
0.0367

> <Gold.Rescore>
     Score         DG    S(hbond)    S(metal)    S(lipo)     H(rot)  DE(clash)    DE(int)     intcor
     11.55     -12.74       0.73        0.00      79.24       1.73       1.15       0.05       ----

> <Gold.Chemscore.Fitness>
11.5464

> <Gold.Chemscore.DG>
-12.7426

> <Gold.Chemscore.ZeroCoef>
-5.4800

> <Gold.Chemscore.Hbond>
0.7259

> <Gold.Chemscore.Metal>
0.0000

> <Gold.Chemscore.Lipo>
79.2358

> <Gold.Chemscore.Internal_Hbond>
0.0000

> <Gold.Chemscore.DEClash>
1.1454

> <Gold.Chemscore.DEInternal>
0.0508

> <Gold.Chemscore.Rot>
1.7314

> <Gold.Chemscore.Internal.Correction>
   9.000000E+99

> <Gold.Chemscore.Hbonds>
donor molecule, donor type, donor heavy atom, donor atom, acceptor molecule, acceptor atom, score
      P1  H  7997  8008       L1    14  0.14

> <Gold.Chemscore.Hbond.Weighted>
-2.4244

> <Gold.Chemscore.Metal.Weighted>
-0.0000

> <Gold.Chemscore.Lipo.Weighted>
-9.2706

> <Gold.Chemscore.Internal_Hbond.Weighted>
0.0000

> <Gold.Chemscore.DEClash.Weighted>
1.1454

> <Gold.Chemscore.DEInternal.Weighted>
0.0508

> <Gold.Chemscore.Rot.Weighted>
4.4324

> <Gold.Chemscore.Internal.Correction.Weighted>
   9.000000E+99

> <Gold.Protein.RotatedTorsions>
[ 6907 6896 6895 6894 ] final  128.42 input  -60.11 | X-H torsion
[ 7974 7965 7964 7962 ] final   90.48 input  175.53 | X-H torsion
[ 8008 7997 7996 7995 ] final  -66.94 input   59.86 | X-H torsion
[ 10167 10162 10161 10158 ] final -177.65 input  -65.29 | X-H torsion
[ 10718 10713 10712 10709 ] final  -92.69 input   66.30 | X-H torsion
[ 10763 10752 10751 10750 ] final  -83.37 input  -60.55 | X-H torsion
[ 11005 11000 10999 10996 ] final  -68.80 input  -57.11 | X-H torsion

> <Gold.Protein.ActiveResidues>
 VAL166  LYS551  ARG553  GLY616  TRP617  ASP618  TYR619  PRO620  LYS621  CYS622 
 ASP623  PHE694  ASN695  SER759  ASP760  ASP761  ALA762  ILE779  LEU786  VAL792 
 PHE793  MET794  SER795  GLU796  ALA797  LYS798  CYS799  TRP800  GLU811  SER814 

> <Gold.Protein.RotatedAtoms>
  152.3721  133.6433  159.6095 H   0  0  0  0  0  0  0  0  0  0  0  0  # atno 6907 bound_to 6896
  150.7676  133.9253  159.3419 H   0  0  0  0  0  0  0  0  0  0  0  0  # atno 6908 bound_to 6896
  151.7073  135.0920  160.0313 H   0  0  0  0  0  0  0  0  0  0  0  0  # atno 6909 bound_to 6896
  145.5184  139.2278  143.2685 H   0  0  0  0  0  0  0  0  0  0  0  0  # atno 7974 bound_to 7965
  154.4767  140.0902  156.7279 H   0  0  0  0  0  0  0  0  0  0  0  0  # atno 8008 bound_to 7997
  155.4577  140.3460  155.4290 H   0  0  0  0  0  0  0  0  0  0  0  0  # atno 8009 bound_to 7997
  156.1128  140.1452  156.9303 H   0  0  0  0  0  0  0  0  0  0  0  0  # atno 8010 bound_to 7997
  139.5470  144.2210  152.1006 H   0  0  0  0  0  0  0  0  0  0  0  0  # atno 10167 bound_to 10162
  156.0005  130.4997  150.5663 H   0  0  0  0  0  0  0  0  0  0  0  0  # atno 10718 bound_to 10713
  154.5869  135.5558  153.7239 H   0  0  0  0  0  0  0  0  0  0  0  0  # atno 10763 bound_to 10752
  153.0102  135.6333  154.1904 H   0  0  0  0  0  0  0  0  0  0  0  0  # atno 10764 bound_to 10752
  154.1845  135.2885  155.3021 H   0  0  0  0  0  0  0  0  0  0  0  0  # atno 10765 bound_to 10752
  141.1540  133.6749  156.6501 H   0  0  0  0  0  0  0  0  0  0  0  0  # atno 11005 bound_to 11000
  146.2122  140.5994  142.9054 LP  0  0  0  0  0  0  0  0  0  0  0  0  # atno 17320 bound_to 7965
  144.7689  140.5594  143.6683 LP  0  0  0  0  0  0  0  0  0  0  0  0  # atno 17321 bound_to 7965
  140.1698  144.4946  150.6585 LP  0  0  0  0  0  0  0  0  0  0  0  0  # atno 17342 bound_to 10162
  140.6721  143.2290  151.5600 LP  0  0  0  0  0  0  0  0  0  0  0  0  # atno 17343 bound_to 10162
  157.3565  131.0742  151.1671 LP  0  0  0  0  0  0  0  0  0  0  0  0  # atno 17370 bound_to 10713
  157.2470  130.6596  149.5914 LP  0  0  0  0  0  0  0  0  0  0  0  0  # atno 17371 bound_to 10713
  140.3326  134.7916  157.4338 LP  0  0  0  0  0  0  0  0  0  0  0  0  # atno 17394 bound_to 11000
  140.1004  134.5481  155.8359 LP  0  0  0  0  0  0  0  0  0  0  0  0  # atno 17395 bound_to 11000

$$$$
