AV-unprocessed.smi:3175|AV-procd|sdf|12123|dock3
  -GOLD-   2272017563D 1   1.00000     0.00000
 Structure written by MMmdl.
 38 39  0  0  0  0  0  0  0  0  2 V2000
  153.0824  139.7185  159.7461 O   0  0  0  0  0  0  0  0  0  0  0  0
  152.1306  140.4812  159.5807 C   0  0  0  0  0  0  0  0  0  0  0  0
  152.1291  141.8683  160.2307 C   0  0  0  0  0  0  0  0  0  0  0  0
  152.4193  143.0082  159.2326 C   0  0  0  0  0  0  0  0  0  0  0  0
  152.1545  144.4013  159.8066 C   0  0  0  0  0  0  0  0  0  0  0  0
  152.0563  145.3135  158.5809 C   0  0  0  0  0  0  0  0  0  0  0  0
  151.5863  144.4210  157.4223 C   0  0  0  0  0  0  0  0  0  0  0  0
  151.5569  142.9861  157.9641 C   0  0  0  0  0  0  0  0  0  0  0  0
  151.0497  140.1608  158.8533 N   0  0  0  0  0  0  0  0  0  0  0  0
  150.8540  138.8946  158.1530 C   0  0  0  0  0  0  0  0  0  0  0  0
  151.1247  138.9942  156.6385 C   0  0  0  0  0  0  0  0  0  0  0  0
  150.0570  139.7635  155.8801 C   0  0  0  0  0  0  0  0  0  0  0  0
  149.1047  139.0811  155.0914 C   0  0  0  0  0  0  0  0  0  0  0  0
  148.1277  139.8206  154.3928 C   0  0  0  0  0  0  0  0  0  0  0  0
  148.1249  141.2266  154.4989 C   0  0  0  0  0  0  0  0  0  0  0  0
  149.0515  141.8451  155.2635 N   0  3  0  0  0  0  0  0  0  0  0  0
  150.0024  141.1730  155.9486 C   0  0  0  0  0  0  0  0  0  0  0  0
  151.1724  142.0434  160.7254 H   0  0  0  0  0  0  0  0  0  0  0  0
  152.8854  141.8699  161.0162 H   0  0  0  0  0  0  0  0  0  0  0  0
  153.4685  142.9687  158.9337 H   0  0  0  0  0  0  0  0  0  0  0  0
  151.2045  144.4103  160.3430 H   0  0  0  0  0  0  0  0  0  0  0  0
  152.9304  144.7220  160.5024 H   0  0  0  0  0  0  0  0  0  0  0  0
  151.3825  146.1530  158.7546 H   0  0  0  0  0  0  0  0  0  0  0  0
  153.0390  145.7261  158.3482 H   0  0  0  0  0  0  0  0  0  0  0  0
  150.6024  144.7194  157.0589 H   0  0  0  0  0  0  0  0  0  0  0  0
  152.2800  144.5006  156.5846 H   0  0  0  0  0  0  0  0  0  0  0  0
  151.9121  142.2613  157.2306 H   0  0  0  0  0  0  0  0  0  0  0  0
  150.5301  142.7185  158.2183 H   0  0  0  0  0  0  0  0  0  0  0  0
  150.3155  140.8487  158.7670 H   0  0  0  0  0  0  0  0  0  0  0  0
  151.5362  138.1692  158.5967 H   0  0  0  0  0  0  0  0  0  0  0  0
  149.8460  138.5178  158.3342 H   0  0  0  0  0  0  0  0  0  0  0  0
  152.0903  139.4728  156.4706 H   0  0  0  0  0  0  0  0  0  0  0  0
  151.2098  137.9941  156.2117 H   0  0  0  0  0  0  0  0  0  0  0  0
  149.1232  138.0031  155.0205 H   0  0  0  0  0  0  0  0  0  0  0  0
  147.3913  139.3161  153.7846 H   0  0  0  0  0  0  0  0  0  0  0  0
  147.4151  141.8698  153.9994 H   0  0  0  0  0  0  0  0  0  0  0  0
  150.6892  141.7791  156.5218 H   0  0  0  0  0  0  0  0  0  0  0  0
  149.0324  142.8634  155.3266 H   0  0  0  0  0  0  0  0  0  0  0  0
  1  2  2  0  0  0  0
  2  3  1  0  0  0  0
  2  9  1  0  0  0  0
  3  4  1  0  0  0  0
  3 18  1  0  0  0  0
  3 19  1  0  0  0  0
  4  8  1  0  0  0  0
  4  5  1  0  0  0  0
  4 20  1  0  0  0  0
  5  6  1  0  0  0  0
  5 21  1  0  0  0  0
  5 22  1  0  0  0  0
  6  7  1  0  0  0  0
  6 23  1  0  0  0  0
  6 24  1  0  0  0  0
  7  8  1  0  0  0  0
  7 25  1  0  0  0  0
  7 26  1  0  0  0  0
  8 27  1  0  0  0  0
  8 28  1  0  0  0  0
  9 10  1  0  0  0  0
  9 29  1  0  0  0  0
 10 11  1  0  0  0  0
 10 30  1  0  0  0  0
 10 31  1  0  0  0  0
 11 12  1  0  0  0  0
 11 32  1  0  0  0  0
 11 33  1  0  0  0  0
 12 17  1  0  0  0  0
 12 13  2  0  0  0  0
 13 14  1  0  0  0  0
 13 34  1  0  0  0  0
 14 15  2  0  0  0  0
 14 35  1  0  0  0  0
 15 16  1  0  0  0  0
 15 36  1  0  0  0  0
 16 17  2  0  0  0  0
 16 38  1  0  0  0  0
 17 37  1  0  0  0  0
M  CHG  1  16   1
M  END
> <s_m_source_file>
AV-unprocessed.smi

> <i_m_source_file_index>
3175

> <i_lp_mmshare_version>
43012

> <i_f3d_flags>
0

> <s_epik_input>
W0NIMl0xW0NIMl1bQ0gyXVtDSDJdW0NIXTFbQ0gyXUMoPU8pW05IXVtDSDJdW0NIMl1jMltjSF1bY0hdW2NIXW5bY0hdMg==

> <s_epik_cmdline>
J2VwaWtfcHl0aG9uJywgJy1waCcsICc3LjAnLCAnLXRuJywgJzgnLCAnLW1hJywgJzIwMCcsICctbWV0YWxfYmluZGluZycsICctaW1hZScsICc8aW5maWxlLm1hZT4nLCAnLW9tYWUnLCAnPG91dGZpbGUubWFlPic=

> <r_epik_Ionization_Penalty>
2.25127

> <r_epik_Ionization_Penalty_Charging>
2.25127

> <r_epik_Ionization_Penalty_Neutral>
2.03742e-08

> <r_epik_State_Penalty>
2.39841

> <r_epik_Charging_Adjusted_Penalty>
4.64968

> <i_epik_Tot_Q>
1

> <i_epik_Tot_abs_Q>
1

> <r_epik_Metal_State_Penalty>
2.41158

> <b_epik_Metal_Only>
0

> <s_lp_Force_Field>
OPLS_2005

> <r_lp_Energy>
27.035

> <b_lp_Chiralities_Consistent>
1

> <s_lp_Variant>
AV-unprocessed.smi:3175-2

> <Gold.Version>
5.8.1

> <Gold.Id.Protein>
6NUR|6NUR_protein|mol2

> <Gold.PLP.Fitness>
51.4977

> <Gold.PLP.PLP>
-43.7224

> <Gold.PLP.part.hbond>
-1.9783

> <Gold.PLP.part.metal>
0.0000

> <Gold.PLP.part.buried>
-3.0460

> <Gold.PLP.part.nonpolar>
-37.7490

> <Gold.PLP.part.repulsive>
0.2872

> <Gold.PLP.ligand.clash>
0.0000

> <Gold.PLP.ligand.torsion>
0.6182

> <Gold.PLP.Chemscore.Hbond>
3.0000

> <Gold.PLP.Chemscore.CHOScore>
0.0000

> <Gold.PLP.Chemscore.Metal>
0.0000

> <Gold.Chemscore.Hbonds>
donor molecule, donor type, donor heavy atom, donor atom, acceptor molecule, acceptor atom, score
      L1  H    16    38       P1  8028  2.00

> <Gold.PLP.Chemscore.Internal.Correction>
0.0117

> <Gold.Rescore>
     Score         DG    S(hbond)    S(metal)    S(lipo)     H(rot)  DE(clash)    DE(int)     intcor
     19.98     -20.82       1.93        0.00     110.99       1.59       0.01       0.83       ----

> <Gold.Chemscore.Fitness>
19.9828

> <Gold.Chemscore.DG>
-20.8233

> <Gold.Chemscore.ZeroCoef>
-5.4800

> <Gold.Chemscore.Hbond>
1.9269

> <Gold.Chemscore.Metal>
0.0000

> <Gold.Chemscore.Lipo>
110.9942

> <Gold.Chemscore.Internal_Hbond>
0.0000

> <Gold.Chemscore.DEClash>
0.0060

> <Gold.Chemscore.DEInternal>
0.8345

> <Gold.Chemscore.Rot>
1.5933

> <Gold.Chemscore.Internal.Correction>
   9.000000E+99

> <Gold.Chemscore.Hbonds>
donor molecule, donor type, donor heavy atom, donor atom, acceptor molecule, acceptor atom, score
      L1  H    16    38       P1  8028  1.00

> <Gold.Chemscore.Hbond.Weighted>
-6.4359

> <Gold.Chemscore.Metal.Weighted>
-0.0000

> <Gold.Chemscore.Lipo.Weighted>
-12.9863

> <Gold.Chemscore.Internal_Hbond.Weighted>
0.0000

> <Gold.Chemscore.DEClash.Weighted>
0.0060

> <Gold.Chemscore.DEInternal.Weighted>
0.8345

> <Gold.Chemscore.Rot.Weighted>
4.0789

> <Gold.Chemscore.Internal.Correction.Weighted>
   9.000000E+99

> <Gold.Protein.RotatedTorsions>
[ 6907 6896 6895 6894 ] final -126.71 input  -60.11 | X-H torsion
[ 7974 7965 7964 7962 ] final  171.20 input  175.53 | X-H torsion
[ 8008 7997 7996 7995 ] final  -93.28 input   59.86 | X-H torsion
[ 10167 10162 10161 10158 ] final  141.22 input  -65.29 | X-H torsion
[ 10718 10713 10712 10709 ] final -167.99 input   66.30 | X-H torsion
[ 10763 10752 10751 10750 ] final   94.12 input  -60.55 | X-H torsion
[ 11005 11000 10999 10996 ] final  151.83 input  -57.11 | X-H torsion

> <Gold.Protein.ActiveResidues>
 VAL166  LYS551  ARG553  GLY616  TRP617  ASP618  TYR619  PRO620  LYS621  CYS622 
 ASP623  PHE694  ASN695  SER759  ASP760  ASP761  ALA762  ILE779  LEU786  VAL792 
 PHE793  MET794  SER795  GLU796  ALA797  LYS798  CYS799  TRP800  GLU811  SER814 

> <Gold.Protein.RotatedAtoms>
  150.8997  133.7134  159.2881 H   0  0  0  0  0  0  0  0  0  0  0  0  # atno 6907 bound_to 6896
  151.4656  135.1040  159.9747 H   0  0  0  0  0  0  0  0  0  0  0  0  # atno 6908 bound_to 6896
  152.4870  133.8350  159.7178 H   0  0  0  0  0  0  0  0  0  0  0  0  # atno 6909 bound_to 6896
  144.7302  139.9314  143.6425 H   0  0  0  0  0  0  0  0  0  0  0  0  # atno 7974 bound_to 7965
  154.7336  140.0500  157.0749 H   0  0  0  0  0  0  0  0  0  0  0  0  # atno 8008 bound_to 7997
  155.0269  140.3153  155.4753 H   0  0  0  0  0  0  0  0  0  0  0  0  # atno 8009 bound_to 7997
  156.2847  140.2157  156.5389 H   0  0  0  0  0  0  0  0  0  0  0  0  # atno 8010 bound_to 7997
  139.5027  144.6185  151.6107 H   0  0  0  0  0  0  0  0  0  0  0  0  # atno 10167 bound_to 10162
  156.6904  130.9157  151.3068 H   0  0  0  0  0  0  0  0  0  0  0  0  # atno 10718 bound_to 10713
  153.2380  135.4301  155.0667 H   0  0  0  0  0  0  0  0  0  0  0  0  # atno 10763 bound_to 10752
  154.8327  135.3395  154.6691 H   0  0  0  0  0  0  0  0  0  0  0  0  # atno 10764 bound_to 10752
  153.7115  135.7022  153.5092 H   0  0  0  0  0  0  0  0  0  0  0  0  # atno 10765 bound_to 10752
  140.1253  134.8837  157.2129 H   0  0  0  0  0  0  0  0  0  0  0  0  # atno 11005 bound_to 11000
  146.0854  139.3843  143.0438 LP  0  0  0  0  0  0  0  0  0  0  0  0  # atno 17320 bound_to 7965
  145.7784  140.9867  143.1112 LP  0  0  0  0  0  0  0  0  0  0  0  0  # atno 17321 bound_to 7965
  140.5880  143.9829  150.6307 LP  0  0  0  0  0  0  0  0  0  0  0  0  # atno 17342 bound_to 10162
  140.3000  143.3266  152.0980 LP  0  0  0  0  0  0  0  0  0  0  0  0  # atno 17343 bound_to 10162
  157.7011  130.9334  150.0788 LP  0  0  0  0  0  0  0  0  0  0  0  0  # atno 17370 bound_to 10713
  156.1802  130.3650  149.9046 LP  0  0  0  0  0  0  0  0  0  0  0  0  # atno 17371 bound_to 10713
  140.2911  134.3239  155.7315 LP  0  0  0  0  0  0  0  0  0  0  0  0  # atno 17394 bound_to 11000
  141.2160  133.7535  156.9505 LP  0  0  0  0  0  0  0  0  0  0  0  0  # atno 17395 bound_to 11000

$$$$
