AV-unprocessed.smi:1701|AV-procd|sdf|6834|dock4
  -GOLD-   22720 8 13D 1   1.00000     0.00000
 Structure written by MMmdl.
 54 56  0  0  0  0  0  0  0  0  2 V2000
  150.9880  144.9901  159.4705 C   0  0  0  0  0  0  0  0  0  0  0  0
  152.2839  144.2736  159.0735 C   0  0  0  0  0  0  0  0  0  0  0  0
  152.1924  142.8302  159.2827 N   0  0  0  0  0  0  0  0  0  0  0  0
  153.1494  142.2068  160.1979 C   0  0  0  0  0  0  0  0  0  0  0  0
  152.5975  142.0499  161.6232 C   0  0  0  0  0  0  0  0  0  0  0  0
  151.6203  142.0692  158.2395 C   0  0  0  0  0  0  0  0  0  0  0  0
  151.9912  140.7162  158.0567 C   0  0  0  0  0  0  0  0  0  0  0  0
  151.4040  139.9737  157.0142 C   0  0  0  0  0  0  0  0  0  0  0  0
  150.4584  140.6054  156.1722 C   0  0  0  0  0  0  0  0  0  0  0  0
  149.7759  139.9797  155.0931 N   0  0  0  0  0  0  0  0  0  0  0  0
  148.5139  140.1556  154.6537 C   0  0  0  0  0  0  0  0  0  0  0  0
  147.6835  140.8998  155.1684 O   0  0  0  0  0  0  0  0  0  0  0  0
  148.2039  139.4168  153.5733 N   0  0  0  0  0  0  0  0  0  0  0  0
  146.9318  139.3695  152.8509 C   0  0  1  0  0  0  0  0  0  0  0  0
  147.0825  139.2742  151.3195 C   0  0  0  0  0  0  0  0  0  0  0  0
  145.9769  138.3039  150.8582 C   0  0  0  0  0  0  0  0  0  0  0  0
  145.1953  138.0003  152.0717 N   0  3  1  0  0  0  0  0  0  0  0  0
  144.4298  136.7348  152.0846 C   0  0  0  0  0  0  0  0  0  0  0  0
  143.6238  136.6432  153.3963 C   0  0  0  0  0  0  0  0  0  0  0  0
  144.5220  136.8337  154.6363 C   0  0  0  0  0  0  0  0  0  0  0  0
  145.3648  138.1188  154.5215 C   0  0  0  0  0  0  0  0  0  0  0  0
  146.1398  138.1084  153.1939 C   0  0  2  0  0  0  0  0  0  0  0  0
  150.1536  141.9558  156.4350 C   0  0  0  0  0  0  0  0  0  0  0  0
  150.7134  142.6704  157.4325 N   0  0  0  0  0  0  0  0  0  0  0  0
  151.0805  146.0655  159.3187 H   0  0  0  0  0  0  0  0  0  0  0  0
  150.7452  144.8232  160.5203 H   0  0  0  0  0  0  0  0  0  0  0  0
  150.1466  144.6402  158.8719 H   0  0  0  0  0  0  0  0  0  0  0  0
  152.5389  144.5159  158.0417 H   0  0  0  0  0  0  0  0  0  0  0  0
  153.1074  144.6585  159.6757 H   0  0  0  0  0  0  0  0  0  0  0  0
  153.4587  141.2383  159.8036 H   0  0  0  0  0  0  0  0  0  0  0  0
  154.0528  142.8163  160.2370 H   0  0  0  0  0  0  0  0  0  0  0  0
  153.3543  141.6257  162.2828 H   0  0  0  0  0  0  0  0  0  0  0  0
  151.7292  141.3922  161.6573 H   0  0  0  0  0  0  0  0  0  0  0  0
  152.3023  143.0145  162.0367 H   0  0  0  0  0  0  0  0  0  0  0  0
  152.7219  140.2462  158.6990 H   0  0  0  0  0  0  0  0  0  0  0  0
  151.6916  138.9415  156.8954 H   0  0  0  0  0  0  0  0  0  0  0  0
  150.3199  139.2960  154.5881 H   0  0  0  0  0  0  0  0  0  0  0  0
  148.9336  138.8131  153.2218 H   0  0  0  0  0  0  0  0  0  0  0  0
  146.3215  140.2398  153.1014 H   0  0  0  0  0  0  0  0  0  0  0  0
  146.9788  140.2557  150.8556 H   0  0  0  0  0  0  0  0  0  0  0  0
  148.0606  138.8815  151.0373 H   0  0  0  0  0  0  0  0  0  0  0  0
  145.3408  138.7334  150.0840 H   0  0  0  0  0  0  0  0  0  0  0  0
  146.4232  137.3901  150.4624 H   0  0  0  0  0  0  0  0  0  0  0  0
  143.7575  136.7038  151.2266 H   0  0  0  0  0  0  0  0  0  0  0  0
  145.1100  135.8865  151.9935 H   0  0  0  0  0  0  0  0  0  0  0  0
  142.8478  137.4100  153.3955 H   0  0  0  0  0  0  0  0  0  0  0  0
  143.1074  135.6845  153.4519 H   0  0  0  0  0  0  0  0  0  0  0  0
  143.9126  136.8642  155.5400 H   0  0  0  0  0  0  0  0  0  0  0  0
  145.1847  135.9734  154.7391 H   0  0  0  0  0  0  0  0  0  0  0  0
  144.7148  138.9934  154.5717 H   0  0  0  0  0  0  0  0  0  0  0  0
  146.0546  138.1916  155.3630 H   0  0  0  0  0  0  0  0  0  0  0  0
  146.8087  137.2447  153.1687 H   0  0  0  0  0  0  0  0  0  0  0  0
  149.4352  142.4838  155.8250 H   0  0  0  0  0  0  0  0  0  0  0  0
  144.5320  138.7541  152.1823 H   0  0  0  0  0  0  0  0  0  0  0  0
  1  2  1  0  0  0  0
  1 25  1  0  0  0  0
  1 26  1  0  0  0  0
  1 27  1  0  0  0  0
  2  3  1  0  0  0  0
  2 28  1  0  0  0  0
  2 29  1  0  0  0  0
  3  4  1  0  0  0  0
  3  6  1  0  0  0  0
  4  5  1  0  0  0  0
  4 30  1  0  0  0  0
  4 31  1  0  0  0  0
  5 32  1  0  0  0  0
  5 33  1  0  0  0  0
  5 34  1  0  0  0  0
  6 24  1  0  0  0  0
  6  7  2  0  0  0  0
  7  8  1  0  0  0  0
  7 35  1  0  0  0  0
  8  9  2  0  0  0  0
  8 36  1  0  0  0  0
  9 10  1  0  0  0  0
  9 23  1  0  0  0  0
 10 11  1  0  0  0  0
 10 37  1  0  0  0  0
 11 12  2  0  0  0  0
 11 13  1  0  0  0  0
 13 14  1  0  0  0  0
 13 38  1  0  0  0  0
 14 22  1  0  0  0  0
 14 15  1  0  0  0  0
 14 39  1  0  0  0  0
 15 16  1  0  0  0  0
 15 40  1  0  0  0  0
 15 41  1  0  0  0  0
 16 17  1  0  0  0  0
 16 42  1  0  0  0  0
 16 43  1  0  0  0  0
 17 22  1  0  0  0  0
 17 18  1  0  0  0  0
 17 54  1  0  0  0  0
 18 19  1  0  0  0  0
 18 44  1  0  0  0  0
 18 45  1  0  0  0  0
 19 20  1  0  0  0  0
 19 46  1  0  0  0  0
 19 47  1  0  0  0  0
 20 21  1  0  0  0  0
 20 48  1  0  0  0  0
 20 49  1  0  0  0  0
 21 22  1  0  0  0  0
 21 50  1  0  0  0  0
 21 51  1  0  0  0  0
 22 52  1  0  0  0  0
 23 24  2  0  0  0  0
 23 53  1  0  0  0  0
M  CHG  1  17   1
M  END
> <s_m_source_file>
AV-unprocessed.smi

> <i_m_source_file_index>
1701

> <i_lp_mmshare_version>
43012

> <i_f3d_flags>
0

> <s_epik_input>
W0NIM11bQ0gyXU4oW0NIMl1bQ0gzXSljMVtjSF1bY0hdYyhbY0hdbjEpW05IXUMoPU8pW05IXVtDQEhdKFtDSDJdW0NIMl0yKVtDQEBIXShOMjMpW0NIMl1bQ0gyXVtDSDJdW0NIMl0z

> <s_epik_cmdline>
J2VwaWtfcHl0aG9uJywgJy1waCcsICc3LjAnLCAnLXRuJywgJzgnLCAnLW1hJywgJzIwMCcsICctbWV0YWxfYmluZGluZycsICctaW1hZScsICc8aW5maWxlLm1hZT4nLCAnLW9tYWUnLCAnPG91dGZpbGUubWFlPic=

> <r_lp_tautomer_probability>
1

> <r_epik_Ionization_Penalty>
0.56662

> <r_epik_Ionization_Penalty_Charging>
0.000974069

> <r_epik_Ionization_Penalty_Neutral>
0.565646

> <r_epik_State_Penalty>
2.0247

> <r_epik_Charging_Adjusted_Penalty>
2.02568

> <i_epik_Tot_Q>
1

> <i_epik_Tot_abs_Q>
1

> <r_epik_Metal_State_Penalty>
1.51504

> <b_epik_Metal_Only>
0

> <s_lp_Force_Field>
OPLS_2005

> <r_lp_Energy>
54.5744

> <b_lp_Chiralities_Consistent>
1

> <s_lp_Variant>
AV-unprocessed.smi:1701-14

> <Gold.Version>
5.8.1

> <Gold.Id.Protein>
6NUR|6NUR_protein|mol2

> <Gold.PLP.Fitness>
51.8044

> <Gold.PLP.PLP>
-44.1125

> <Gold.PLP.part.hbond>
-3.0000

> <Gold.PLP.part.metal>
0.0000

> <Gold.PLP.part.buried>
4.4067

> <Gold.PLP.part.nonpolar>
-44.6279

> <Gold.PLP.part.repulsive>
0.3687

> <Gold.PLP.ligand.clash>
0.0000

> <Gold.PLP.ligand.torsion>
1.0571

> <Gold.PLP.Chemscore.Hbond>
2.0000

> <Gold.PLP.Chemscore.CHOScore>
0.9951

> <Gold.PLP.Chemscore.Metal>
0.0000

> <Gold.Chemscore.Hbonds>
donor molecule, donor type, donor heavy atom, donor atom, acceptor molecule, acceptor atom, score
      L1  H    17    54       P1 10175  2.00
      L1  C    23    53       P1  8028  1.00

> <Gold.PLP.Chemscore.Internal.Correction>
0.8208

> <Gold.Rescore>
     Score         DG    S(hbond)    S(metal)    S(lipo)     H(rot)  DE(clash)    DE(int)     intcor
     15.38     -19.74       1.59        0.00     104.64       1.28       2.13       2.24       ----

> <Gold.Chemscore.Fitness>
15.3776

> <Gold.Chemscore.DG>
-19.7434

> <Gold.Chemscore.ZeroCoef>
-5.4800

> <Gold.Chemscore.Hbond>
1.5890

> <Gold.Chemscore.Metal>
0.0000

> <Gold.Chemscore.Lipo>
104.6384

> <Gold.Chemscore.Internal_Hbond>
0.0000

> <Gold.Chemscore.DEClash>
2.1271

> <Gold.Chemscore.DEInternal>
2.2387

> <Gold.Chemscore.Rot>
1.2838

> <Gold.Chemscore.Internal.Correction>
   9.000000E+99

> <Gold.Chemscore.Hbonds>
donor molecule, donor type, donor heavy atom, donor atom, acceptor molecule, acceptor atom, score
      L1  H    17    54       P1 10175  1.00

> <Gold.Chemscore.Hbond.Weighted>
-5.3072

> <Gold.Chemscore.Metal.Weighted>
-0.0000

> <Gold.Chemscore.Lipo.Weighted>
-12.2427

> <Gold.Chemscore.Internal_Hbond.Weighted>
0.0000

> <Gold.Chemscore.DEClash.Weighted>
2.1271

> <Gold.Chemscore.DEInternal.Weighted>
2.2387

> <Gold.Chemscore.Rot.Weighted>
3.2865

> <Gold.Chemscore.Internal.Correction.Weighted>
   9.000000E+99

> <Gold.Protein.RotatedTorsions>
[ 6907 6896 6895 6894 ] final  114.15 input  -60.11 | X-H torsion
[ 7974 7965 7964 7962 ] final -171.80 input  175.53 | X-H torsion
[ 8008 7997 7996 7995 ] final  -30.78 input   59.86 | X-H torsion
[ 10167 10162 10161 10158 ] final  176.96 input  -65.29 | X-H torsion
[ 10718 10713 10712 10709 ] final -175.01 input   66.30 | X-H torsion
[ 10763 10752 10751 10750 ] final   53.92 input  -60.55 | X-H torsion
[ 11005 11000 10999 10996 ] final   71.48 input  -57.11 | X-H torsion

> <Gold.Protein.ActiveResidues>
 VAL166  LYS551  ARG553  GLY616  TRP617  ASP618  TYR619  PRO620  LYS621  CYS622 
 ASP623  PHE694  ASN695  SER759  ASP760  ASP761  ALA762  ILE779  LEU786  VAL792 
 PHE793  MET794  SER795  GLU796  ALA797  LYS798  CYS799  TRP800  GLU811  SER814 

> <Gold.Protein.RotatedAtoms>
  152.4819  133.8277  159.7086 H   0  0  0  0  0  0  0  0  0  0  0  0  # atno 6907 bound_to 6896
  150.8876  133.7277  159.2920 H   0  0  0  0  0  0  0  0  0  0  0  0  # atno 6908 bound_to 6896
  151.4761  135.1053  159.9817 H   0  0  0  0  0  0  0  0  0  0  0  0  # atno 6909 bound_to 6896
  144.7153  140.1868  143.6352 H   0  0  0  0  0  0  0  0  0  0  0  0  # atno 7974 bound_to 7965
  154.4238  140.1782  156.1461 H   0  0  0  0  0  0  0  0  0  0  0  0  # atno 8008 bound_to 7997
  155.9953  140.3365  155.6768 H   0  0  0  0  0  0  0  0  0  0  0  0  # atno 8009 bound_to 7997
  155.6317  140.0670  157.2637 H   0  0  0  0  0  0  0  0  0  0  0  0  # atno 8010 bound_to 7997
  139.5234  144.2854  152.0510 H   0  0  0  0  0  0  0  0  0  0  0  0  # atno 10167 bound_to 10162
  156.7935  130.9526  151.3120 H   0  0  0  0  0  0  0  0  0  0  0  0  # atno 10718 bound_to 10713
  152.9799  135.5762  154.4819 H   0  0  0  0  0  0  0  0  0  0  0  0  # atno 10763 bound_to 10752
  154.4367  135.2775  155.1878 H   0  0  0  0  0  0  0  0  0  0  0  0  # atno 10764 bound_to 10752
  154.3563  135.6198  153.5721 H   0  0  0  0  0  0  0  0  0  0  0  0  # atno 10765 bound_to 10752
  139.9541  134.7175  156.0794 H   0  0  0  0  0  0  0  0  0  0  0  0  # atno 11005 bound_to 11000
  145.8805  139.2320  143.1608 LP  0  0  0  0  0  0  0  0  0  0  0  0  # atno 17320 bound_to 7965
  145.9999  140.8529  143.0024 LP  0  0  0  0  0  0  0  0  0  0  0  0  # atno 17321 bound_to 7965
  140.2308  144.4371  150.6301 LP  0  0  0  0  0  0  0  0  0  0  0  0  # atno 17342 bound_to 10162
  140.6357  143.2194  151.6401 LP  0  0  0  0  0  0  0  0  0  0  0  0  # atno 17343 bound_to 10162
  157.6589  130.8948  149.9787 LP  0  0  0  0  0  0  0  0  0  0  0  0  # atno 17370 bound_to 10713
  156.1145  130.3648  149.9992 LP  0  0  0  0  0  0  0  0  0  0  0  0  # atno 17371 bound_to 10713
  141.1209  133.6613  156.3213 LP  0  0  0  0  0  0  0  0  0  0  0  0  # atno 17394 bound_to 11000
  140.5650  134.5897  157.5443 LP  0  0  0  0  0  0  0  0  0  0  0  0  # atno 17395 bound_to 11000

$$$$
