AV-unprocessed.smi:2471|AV-procd|sdf|9739|dock4
  -GOLD-   2272013383D 1   1.00000     0.00000
 Structure written by MMmdl.
 40 41  0  0  0  0  0  0  0  0  1 V2000
  153.5646  141.0089  160.0970 C   0  0  0  0  0  0  0  0  0  0  0  0
  152.7815  142.1850  159.5520 C   0  0  0  0  0  0  0  0  0  0  0  0
  152.9131  143.4684  160.1181 C   0  0  0  0  0  0  0  0  0  0  0  0
  152.1620  144.5187  159.5608 C   0  0  0  0  0  0  0  0  0  0  0  0
  151.3162  144.2444  158.4688 C   0  0  0  0  0  0  0  0  0  0  0  0
  151.2399  142.9276  157.9620 C   0  0  0  0  0  0  0  0  0  0  0  0
  150.3571  142.7574  156.8629 N   0  0  0  0  0  0  0  0  0  0  0  0
  150.2880  141.7265  156.0023 C   0  0  0  0  0  0  0  0  0  0  0  0
  151.0028  140.7242  156.0303 O   0  0  0  0  0  0  0  0  0  0  0  0
  149.3269  141.9237  155.0886 N   0  0  0  0  0  0  0  0  0  0  0  0
  148.9883  140.9992  154.0109 C   0  0  0  0  0  0  0  0  0  0  0  0
  148.1843  139.7732  154.5023 C   0  0  2  0  0  0  0  0  0  0  0  0
  149.0803  138.5793  154.9049 C   0  0  0  0  0  0  0  0  0  0  0  0
  148.2465  137.3997  155.4305 C   0  0  0  0  0  0  0  0  0  0  0  0
  147.1868  136.9601  154.4094 C   0  0  0  0  0  0  0  0  0  0  0  0
  146.2878  138.1381  153.9955 C   0  0  0  0  0  0  0  0  0  0  0  0
  147.1052  139.3388  153.4804 C   0  0  2  0  0  0  0  0  0  0  0  0
  147.6873  139.0032  152.2345 O   0  0  0  0  0  0  0  0  0  0  0  0
  151.9697  141.9217  158.5053 N   0  0  0  0  0  0  0  0  0  0  0  0
  154.0874  141.2742  161.0163 H   0  0  0  0  0  0  0  0  0  0  0  0
  154.3043  140.6776  159.3677 H   0  0  0  0  0  0  0  0  0  0  0  0
  152.8981  140.1738  160.3147 H   0  0  0  0  0  0  0  0  0  0  0  0
  153.5712  143.6462  160.9560 H   0  0  0  0  0  0  0  0  0  0  0  0
  152.2323  145.5185  159.9629 H   0  0  0  0  0  0  0  0  0  0  0  0
  150.7325  145.0401  158.0292 H   0  0  0  0  0  0  0  0  0  0  0  0
  149.6981  143.5076  156.7168 H   0  0  0  0  0  0  0  0  0  0  0  0
  148.7879  142.7757  155.1405 H   0  0  0  0  0  0  0  0  0  0  0  0
  148.4319  141.5311  153.2372 H   0  0  0  0  0  0  0  0  0  0  0  0
  149.9217  140.6772  153.5490 H   0  0  0  0  0  0  0  0  0  0  0  0
  147.6484  140.0832  155.4009 H   0  0  0  0  0  0  0  0  0  0  0  0
  149.6768  138.2567  154.0506 H   0  0  0  0  0  0  0  0  0  0  0  0
  149.7893  138.8797  155.6767 H   0  0  0  0  0  0  0  0  0  0  0  0
  148.9009  136.5611  155.6707 H   0  0  0  0  0  0  0  0  0  0  0  0
  147.7576  137.6860  156.3626 H   0  0  0  0  0  0  0  0  0  0  0  0
  147.6778  136.5425  153.5296 H   0  0  0  0  0  0  0  0  0  0  0  0
  146.5774  136.1592  154.8289 H   0  0  0  0  0  0  0  0  0  0  0  0
  145.5711  137.8155  153.2393 H   0  0  0  0  0  0  0  0  0  0  0  0
  145.6977  138.4529  154.8572 H   0  0  0  0  0  0  0  0  0  0  0  0
  146.4260  140.1731  153.3008 H   0  0  0  0  0  0  0  0  0  0  0  0
  148.3917  139.6091  152.0615 H   0  0  0  0  0  0  0  0  0  0  0  0
  1  2  1  0  0  0  0
  1 20  1  0  0  0  0
  1 21  1  0  0  0  0
  1 22  1  0  0  0  0
  2 19  1  0  0  0  0
  2  3  2  0  0  0  0
  3  4  1  0  0  0  0
  3 23  1  0  0  0  0
  4  5  2  0  0  0  0
  4 24  1  0  0  0  0
  5  6  1  0  0  0  0
  5 25  1  0  0  0  0
  6  7  1  0  0  0  0
  6 19  2  0  0  0  0
  7  8  1  0  0  0  0
  7 26  1  0  0  0  0
  8  9  2  0  0  0  0
  8 10  1  0  0  0  0
 10 11  1  0  0  0  0
 10 27  1  0  0  0  0
 11 12  1  0  0  0  0
 11 28  1  0  0  0  0
 11 29  1  0  0  0  0
 12 17  1  0  0  0  0
 12 13  1  0  0  0  0
 12 30  1  0  0  0  0
 13 14  1  0  0  0  0
 13 31  1  0  0  0  0
 13 32  1  0  0  0  0
 14 15  1  0  0  0  0
 14 33  1  0  0  0  0
 14 34  1  0  0  0  0
 15 16  1  0  0  0  0
 15 35  1  0  0  0  0
 15 36  1  0  0  0  0
 16 17  1  0  0  0  0
 16 37  1  0  0  0  0
 16 38  1  0  0  0  0
 17 18  1  0  0  0  0
 17 39  1  0  0  0  0
 18 40  1  0  0  0  0
M  END
> <s_m_source_file>
AV-unprocessed.smi

> <i_m_source_file_index>
2471

> <i_lp_mmshare_version>
43012

> <i_f3d_flags>
0

> <s_epik_input>
W0NIM11jMVtjSF1bY0hdW2NIXWMobjEpW05IXUMoPU8pW05IXVtDSDJdW0NAQEhdMltDSDJdW0NIMl1bQ0gyXVtDSDJdW0NASF0yW09IXQ==

> <s_epik_cmdline>
J2VwaWtfcHl0aG9uJywgJy1waCcsICc3LjAnLCAnLXRuJywgJzgnLCAnLW1hJywgJzIwMCcsICctbWV0YWxfYmluZGluZycsICctaW1hZScsICc8aW5maWxlLm1hZT4nLCAnLW9tYWUnLCAnPG91dGZpbGUubWFlPic=

> <r_lp_tautomer_probability>
1

> <r_epik_Ionization_Penalty>
8.52237e-05

> <r_epik_Ionization_Penalty_Charging>
0

> <r_epik_Ionization_Penalty_Neutral>
8.52237e-05

> <r_epik_State_Penalty>
-0

> <r_epik_Charging_Adjusted_Penalty>
0

> <i_epik_Tot_Q>
0

> <i_epik_Tot_abs_Q>
0

> <r_epik_Metal_State_Penalty>
-0

> <b_epik_Metal_Only>
0

> <s_lp_Force_Field>
OPLS_2005

> <r_lp_Energy>
16.1084

> <b_lp_Chiralities_Consistent>
1

> <s_lp_Variant>
AV-unprocessed.smi:2471-3

> <Gold.Version>
5.8.1

> <Gold.Id.Protein>
6NUR|6NUR_protein|mol2

> <Gold.PLP.Fitness>
44.9804

> <Gold.PLP.PLP>
-37.3523

> <Gold.PLP.part.hbond>
-3.6696

> <Gold.PLP.part.metal>
0.0000

> <Gold.PLP.part.buried>
-4.6978

> <Gold.PLP.part.nonpolar>
-29.4840

> <Gold.PLP.part.repulsive>
0.2649

> <Gold.PLP.ligand.clash>
0.0000

> <Gold.PLP.ligand.torsion>
0.6078

> <Gold.PLP.Chemscore.Hbond>
2.9440

> <Gold.PLP.Chemscore.CHOScore>
0.0000

> <Gold.PLP.Chemscore.Metal>
0.0000

> <Gold.Chemscore.Hbonds>
donor molecule, donor type, donor heavy atom, donor atom, acceptor molecule, acceptor atom, score
      L1  H     7    26       P1  8028  1.00
      L1  H    10    27       P1  8028  0.88
      L1  H    18    40       P1  7957  0.94

> <Gold.PLP.Chemscore.Internal.Correction>
0.0117

> <Gold.Rescore>
     Score         DG    S(hbond)    S(metal)    S(lipo)     H(rot)  DE(clash)    DE(int)     intcor
     18.76     -21.02       2.92        0.00      87.50       1.73       0.36       1.89       ----

> <Gold.Chemscore.Fitness>
18.7640

> <Gold.Chemscore.DG>
-21.0169

> <Gold.Chemscore.ZeroCoef>
-5.4800

> <Gold.Chemscore.Hbond>
2.9157

> <Gold.Chemscore.Metal>
0.0000

> <Gold.Chemscore.Lipo>
87.4962

> <Gold.Chemscore.Internal_Hbond>
0.0000

> <Gold.Chemscore.DEClash>
0.3597

> <Gold.Chemscore.DEInternal>
1.8932

> <Gold.Chemscore.Rot>
1.7339

> <Gold.Chemscore.Internal.Correction>
   9.000000E+99

> <Gold.Chemscore.Hbonds>
donor molecule, donor type, donor heavy atom, donor atom, acceptor molecule, acceptor atom, score
      L1  H     7    26       P1  8028  0.96
      L1  H    10    27       P1  8028  0.83
      L1  H    18    40       P1  7957  0.89

> <Gold.Chemscore.Hbond.Weighted>
-9.7385

> <Gold.Chemscore.Metal.Weighted>
-0.0000

> <Gold.Chemscore.Lipo.Weighted>
-10.2371

> <Gold.Chemscore.Internal_Hbond.Weighted>
0.0000

> <Gold.Chemscore.DEClash.Weighted>
0.3597

> <Gold.Chemscore.DEInternal.Weighted>
1.8932

> <Gold.Chemscore.Rot.Weighted>
4.4387

> <Gold.Chemscore.Internal.Correction.Weighted>
   9.000000E+99

> <Gold.Protein.RotatedTorsions>
[ 6907 6896 6895 6894 ] final -109.57 input  -60.11 | X-H torsion
[ 7974 7965 7964 7962 ] final -132.64 input  175.53 | X-H torsion
[ 8008 7997 7996 7995 ] final  -40.46 input   59.86 | X-H torsion
[ 10167 10162 10161 10158 ] final  -94.51 input  -65.29 | X-H torsion
[ 10718 10713 10712 10709 ] final  157.24 input   66.30 | X-H torsion
[ 10763 10752 10751 10750 ] final  149.39 input  -60.55 | X-H torsion
[ 11005 11000 10999 10996 ] final   86.99 input  -57.11 | X-H torsion

> <Gold.Protein.ActiveResidues>
 VAL166  LYS551  ARG553  GLY616  TRP617  ASP618  TYR619  PRO620  LYS621  CYS622 
 ASP623  PHE694  ASN695  SER759  ASP760  ASP761  ALA762  ILE779  LEU786  VAL792 
 PHE793  MET794  SER795  GLU796  ALA797  LYS798  CYS799  TRP800  GLU811  SER814 

> <Gold.Protein.RotatedAtoms>
  150.7570  133.9510  159.3485 H   0  0  0  0  0  0  0  0  0  0  0  0  # atno 6907 bound_to 6896
  151.7427  135.0848  160.0327 H   0  0  0  0  0  0  0  0  0  0  0  0  # atno 6908 bound_to 6896
  152.3518  133.6151  159.5986 H   0  0  0  0  0  0  0  0  0  0  0  0  # atno 6909 bound_to 6896
  144.9267  140.7079  143.4932 H   0  0  0  0  0  0  0  0  0  0  0  0  # atno 7974 bound_to 7965
  154.4012  140.1525  156.3031 H   0  0  0  0  0  0  0  0  0  0  0  0  # atno 8008 bound_to 7997
  155.8683  140.3450  155.5782 H   0  0  0  0  0  0  0  0  0  0  0  0  # atno 8009 bound_to 7997
  155.7803  140.0842  157.2053 H   0  0  0  0  0  0  0  0  0  0  0  0  # atno 8010 bound_to 7997
  140.3136  143.3090  152.0121 H   0  0  0  0  0  0  0  0  0  0  0  0  # atno 10167 bound_to 10162
  157.1942  131.0661  151.2062 H   0  0  0  0  0  0  0  0  0  0  0  0  # atno 10718 bound_to 10713
  154.0703  135.2867  155.3309 H   0  0  0  0  0  0  0  0  0  0  0  0  # atno 10763 bound_to 10752
  154.6750  135.5285  153.8191 H   0  0  0  0  0  0  0  0  0  0  0  0  # atno 10764 bound_to 10752
  153.0488  135.6567  154.0885 H   0  0  0  0  0  0  0  0  0  0  0  0  # atno 10765 bound_to 10752
  139.8930  134.8392  156.2798 H   0  0  0  0  0  0  0  0  0  0  0  0  # atno 11005 bound_to 11000
  145.3208  139.1789  143.4588 LP  0  0  0  0  0  0  0  0  0  0  0  0  # atno 17320 bound_to 7965
  146.3229  140.3226  142.8634 LP  0  0  0  0  0  0  0  0  0  0  0  0  # atno 17321 bound_to 7965
  139.4888  144.6365  151.6964 LP  0  0  0  0  0  0  0  0  0  0  0  0  # atno 17342 bound_to 10162
  140.5546  144.0369  150.6142 LP  0  0  0  0  0  0  0  0  0  0  0  0  # atno 17343 bound_to 10162
  157.3831  130.7242  149.6644 LP  0  0  0  0  0  0  0  0  0  0  0  0  # atno 17370 bound_to 10713
  155.9708  130.4167  150.4243 LP  0  0  0  0  0  0  0  0  0  0  0  0  # atno 17371 bound_to 10713
  141.0046  133.7131  156.1014 LP  0  0  0  0  0  0  0  0  0  0  0  0  # atno 17394 bound_to 11000
  140.7451  134.4107  157.5549 LP  0  0  0  0  0  0  0  0  0  0  0  0  # atno 17395 bound_to 11000

$$$$
