AV-unprocessed.smi:739|AV-procd|sdf|3542|dock1
  -GOLD-   22720 0533D 1   1.00000     0.00000
 Structure written by MMmdl.
 32 34  0  0  0  0  0  0  0  0  1 V2000
  149.6224  142.5561  155.7885 O   0  0  0  0  0  0  0  0  0  0  0  0
  150.3619  141.7334  156.6673 C   0  0  2  0  0  0  0  0  0  0  0  0
  151.7015  142.4330  156.9713 C   0  0  0  0  0  0  0  0  0  0  0  0
  151.6371  143.2408  158.1762 N   0  0  0  0  0  0  0  0  0  0  0  0
  150.9952  144.4147  158.3301 C   0  0  0  0  0  0  0  0  0  0  0  0
  151.0482  144.9855  159.5300 N   0  0  0  0  0  0  0  0  0  0  0  0
  151.8165  144.0774  160.2382 C   0  0  0  0  0  0  0  0  0  0  0  0
  152.2425  144.0909  161.5855 C   0  0  0  0  0  0  0  0  0  0  0  0
  153.0291  143.0380  162.0974 C   0  0  0  0  0  0  0  0  0  0  0  0
  153.4278  143.0664  163.3913 F   0  0  0  0  0  0  0  0  0  0  0  0
  153.4018  141.9576  161.2702 C   0  0  0  0  0  0  0  0  0  0  0  0
  154.1559  140.9497  161.7694 F   0  0  0  0  0  0  0  0  0  0  0  0
  152.9907  141.9235  159.9243 C   0  0  0  0  0  0  0  0  0  0  0  0
  152.2048  142.9753  159.4183 C   0  0  0  0  0  0  0  0  0  0  0  0
  150.5559  140.3281  156.1137 C   0  0  0  0  0  0  0  0  0  0  0  0
  150.0691  140.0037  154.8287 C   0  0  0  0  0  0  0  0  0  0  0  0
  150.2160  138.6977  154.3223 C   0  0  0  0  0  0  0  0  0  0  0  0
  150.8520  137.7089  155.0966 C   0  0  0  0  0  0  0  0  0  0  0  0
  150.9925  136.4532  154.6098 F   0  0  0  0  0  0  0  0  0  0  0  0
  151.3412  138.0263  156.3781 C   0  0  0  0  0  0  0  0  0  0  0  0
  151.1933  139.3316  156.8859 C   0  0  0  0  0  0  0  0  0  0  0  0
  149.5947  143.4298  156.1482 H   0  0  0  0  0  0  0  0  0  0  0  0
  149.7807  141.6682  157.5883 H   0  0  0  0  0  0  0  0  0  0  0  0
  152.5072  141.7049  157.0744 H   0  0  0  0  0  0  0  0  0  0  0  0
  151.9788  143.0883  156.1442 H   0  0  0  0  0  0  0  0  0  0  0  0
  150.4532  144.8733  157.5158 H   0  0  0  0  0  0  0  0  0  0  0  0
  151.9627  144.9124  162.2282 H   0  0  0  0  0  0  0  0  0  0  0  0
  153.2728  141.0960  159.2907 H   0  0  0  0  0  0  0  0  0  0  0  0
  149.5714  140.7530  154.2308 H   0  0  0  0  0  0  0  0  0  0  0  0
  149.8377  138.4537  153.3404 H   0  0  0  0  0  0  0  0  0  0  0  0
  151.8271  137.2676  156.9735 H   0  0  0  0  0  0  0  0  0  0  0  0
  151.5622  139.5625  157.8746 H   0  0  0  0  0  0  0  0  0  0  0  0
  1  2  1  0  0  0  0
  1 22  1  0  0  0  0
  2  3  1  0  0  0  0
  2 15  1  0  0  0  0
  2 23  1  0  0  0  0
  3  4  1  0  0  0  0
  3 24  1  0  0  0  0
  3 25  1  0  0  0  0
  4 14  1  0  0  0  0
  4  5  1  0  0  0  0
  5  6  2  0  0  0  0
  5 26  1  0  0  0  0
  6  7  1  0  0  0  0
  7 14  2  0  0  0  0
  7  8  1  0  0  0  0
  8  9  2  0  0  0  0
  8 27  1  0  0  0  0
  9 10  1  0  0  0  0
  9 11  1  0  0  0  0
 11 12  1  0  0  0  0
 11 13  2  0  0  0  0
 13 14  1  0  0  0  0
 13 28  1  0  0  0  0
 15 21  1  0  0  0  0
 15 16  2  0  0  0  0
 16 17  1  0  0  0  0
 16 29  1  0  0  0  0
 17 18  2  0  0  0  0
 17 30  1  0  0  0  0
 18 19  1  0  0  0  0
 18 20  1  0  0  0  0
 20 21  2  0  0  0  0
 20 31  1  0  0  0  0
 21 32  1  0  0  0  0
M  END
> <s_m_source_file>
AV-unprocessed.smi

> <i_m_source_file_index>
739

> <i_lp_mmshare_version>
43012

> <i_f3d_flags>
0

> <s_epik_input>
W2NIXTFbY0hdYyhGKVtjSF1bY0hdYzFbQ0BIXShbT0hdKVtDSDJdbihbY0hdbjIpYyhjMjMpW2NIXWMoRiljKEYpW2NIXTM=

> <s_epik_cmdline>
J2VwaWtfcHl0aG9uJywgJy1waCcsICc3LjAnLCAnLXRuJywgJzgnLCAnLW1hJywgJzIwMCcsICctbWV0YWxfYmluZGluZycsICctaW1hZScsICc8aW5maWxlLm1hZT4nLCAnLW9tYWUnLCAnPG91dGZpbGUubWFlPic=

> <r_epik_Ionization_Penalty>
0.0156356

> <r_epik_Ionization_Penalty_Charging>
0

> <r_epik_Ionization_Penalty_Neutral>
0.0156356

> <r_epik_State_Penalty>
0.0122974

> <r_epik_Charging_Adjusted_Penalty>
0.0122974

> <i_epik_Tot_Q>
0

> <i_epik_Tot_abs_Q>
0

> <r_epik_Metal_State_Penalty>
1.24258e-05

> <b_epik_Metal_Only>
0

> <s_lp_Force_Field>
OPLS_2005

> <r_lp_Energy>
11.0566

> <b_lp_Chiralities_Consistent>
1

> <s_lp_Variant>
AV-unprocessed.smi:739-1

> <Gold.Version>
5.8.1

> <Gold.Id.Protein>
6NUR|6NUR_protein|mol2

> <Gold.PLP.Fitness>
53.8084

> <Gold.PLP.PLP>
-50.0453

> <Gold.PLP.part.hbond>
-0.2680

> <Gold.PLP.part.metal>
0.0000

> <Gold.PLP.part.buried>
-5.7979

> <Gold.PLP.part.nonpolar>
-43.7224

> <Gold.PLP.part.repulsive>
0.1304

> <Gold.PLP.ligand.clash>
0.0000

> <Gold.PLP.ligand.torsion>
0.6425

> <Gold.PLP.Chemscore.Hbond>
0.6560

> <Gold.PLP.Chemscore.CHOScore>
1.0120

> <Gold.PLP.Chemscore.Metal>
0.0000

> <Gold.Chemscore.Hbonds>
donor molecule, donor type, donor heavy atom, donor atom, acceptor molecule, acceptor atom, score
      L1  H     1    22       P1  8028  0.64
      L1  C     5    26       P1  8028  0.94
      L1  C     5    26       P1  8029  0.04

> <Gold.PLP.Chemscore.Internal.Correction>
0.0441

> <Gold.Rescore>
     Score         DG    S(hbond)    S(metal)    S(lipo)     H(rot)  DE(clash)    DE(int)     intcor
     14.86     -17.03       0.97        0.00     116.26       2.07       1.38       0.79       ----

> <Gold.Chemscore.Fitness>
14.8623

> <Gold.Chemscore.DG>
-17.0304

> <Gold.Chemscore.ZeroCoef>
-5.4800

> <Gold.Chemscore.Hbond>
0.9721

> <Gold.Chemscore.Metal>
0.0000

> <Gold.Chemscore.Lipo>
116.2628

> <Gold.Chemscore.Internal_Hbond>
0.0000

> <Gold.Chemscore.DEClash>
1.3821

> <Gold.Chemscore.DEInternal>
0.7861

> <Gold.Chemscore.Rot>
2.0700

> <Gold.Chemscore.Internal.Correction>
   9.000000E+99

> <Gold.Chemscore.Hbonds>
donor molecule, donor type, donor heavy atom, donor atom, acceptor molecule, acceptor atom, score
      L1  H     1    22       P1  8028  0.61

> <Gold.Chemscore.Hbond.Weighted>
-3.2469

> <Gold.Chemscore.Metal.Weighted>
-0.0000

> <Gold.Chemscore.Lipo.Weighted>
-13.6028

> <Gold.Chemscore.Internal_Hbond.Weighted>
0.0000

> <Gold.Chemscore.DEClash.Weighted>
1.3821

> <Gold.Chemscore.DEInternal.Weighted>
0.7861

> <Gold.Chemscore.Rot.Weighted>
5.2992

> <Gold.Chemscore.Internal.Correction.Weighted>
   9.000000E+99

> <Gold.Protein.RotatedTorsions>
[ 6907 6896 6895 6894 ] final   30.02 input  -60.11 | X-H torsion
[ 7974 7965 7964 7962 ] final  -76.59 input  175.53 | X-H torsion
[ 8008 7997 7996 7995 ] final  165.01 input   59.86 | X-H torsion
[ 10167 10162 10161 10158 ] final   38.83 input  -65.29 | X-H torsion
[ 10718 10713 10712 10709 ] final -145.40 input   66.30 | X-H torsion
[ 10763 10752 10751 10750 ] final -170.74 input  -60.55 | X-H torsion
[ 11005 11000 10999 10996 ] final  141.75 input  -57.11 | X-H torsion

> <Gold.Protein.ActiveResidues>
 VAL166  LYS551  ARG553  GLY616  TRP617  ASP618  TYR619  PRO620  LYS621  CYS622 
 ASP623  PHE694  ASN695  SER759  ASP760  ASP761  ALA762  ILE779  LEU786  VAL792 
 PHE793  MET794  SER795  GLU796  ALA797  LYS798  CYS799  TRP800  GLU811  SER814 

> <Gold.Protein.RotatedAtoms>
  152.0400  134.9717  160.0573 H   0  0  0  0  0  0  0  0  0  0  0  0  # atno 6907 bound_to 6896
  152.1160  133.4322  159.4661 H   0  0  0  0  0  0  0  0  0  0  0  0  # atno 6908 bound_to 6896
  150.6846  134.2511  159.4554 H   0  0  0  0  0  0  0  0  0  0  0  0  # atno 6909 bound_to 6896
  145.6109  140.9387  143.1190 H   0  0  0  0  0  0  0  0  0  0  0  0  # atno 7974 bound_to 7965
  156.1835  140.1681  156.8230 H   0  0  0  0  0  0  0  0  0  0  0  0  # atno 8008 bound_to 7997
  154.5387  140.0741  156.8505 H   0  0  0  0  0  0  0  0  0  0  0  0  # atno 8009 bound_to 7997
  155.3259  140.3376  155.4242 H   0  0  0  0  0  0  0  0  0  0  0  0  # atno 8010 bound_to 7997
  140.3898  144.1867  150.6131 H   0  0  0  0  0  0  0  0  0  0  0  0  # atno 10167 bound_to 10162
  156.3820  130.7842  151.2035 H   0  0  0  0  0  0  0  0  0  0  0  0  # atno 10718 bound_to 10713
  154.6382  135.2895  155.0135 H   0  0  0  0  0  0  0  0  0  0  0  0  # atno 10763 bound_to 10752
  154.1271  135.6539  153.4918 H   0  0  0  0  0  0  0  0  0  0  0  0  # atno 10764 bound_to 10752
  153.0313  135.5301  154.7238 H   0  0  0  0  0  0  0  0  0  0  0  0  # atno 10765 bound_to 10752
  140.0425  134.9298  157.0868 H   0  0  0  0  0  0  0  0  0  0  0  0  # atno 11005 bound_to 11000
  144.7270  139.7844  143.7361 LP  0  0  0  0  0  0  0  0  0  0  0  0  # atno 17320 bound_to 7965
  146.1505  139.4586  143.0052 LP  0  0  0  0  0  0  0  0  0  0  0  0  # atno 17321 bound_to 7965
  140.4851  143.2366  151.8899 LP  0  0  0  0  0  0  0  0  0  0  0  0  # atno 17342 bound_to 10162
  139.4789  144.5227  151.8778 LP  0  0  0  0  0  0  0  0  0  0  0  0  # atno 17343 bound_to 10162
  157.7493  131.0341  150.4302 LP  0  0  0  0  0  0  0  0  0  0  0  0  # atno 17370 bound_to 10713
  156.4548  130.4019  149.6613 LP  0  0  0  0  0  0  0  0  0  0  0  0  # atno 17371 bound_to 10713
  140.4047  134.2045  155.7163 LP  0  0  0  0  0  0  0  0  0  0  0  0  # atno 17394 bound_to 11000
  141.1890  133.8248  157.0973 LP  0  0  0  0  0  0  0  0  0  0  0  0  # atno 17395 bound_to 11000

$$$$
