AV-unprocessed.smi:3340|AV-procd|sdf|12879|dock5
  -GOLD-   2272019283D 1   1.00000     0.00000
 Structure written by MMmdl.
 42 43  0  0  0  0  0  0  0  0  2 V2000
  145.9101  130.8545  150.6324 C   0  0  0  0  0  0  0  0  0  0  0  0
  144.6911  131.7562  150.8398 C   0  0  0  0  0  0  0  0  0  0  0  0
  143.6246  131.4103  150.3313 O   0  0  0  0  0  0  0  0  0  0  0  0
  144.8208  132.8910  151.5683 N   0  0  0  0  0  0  0  0  0  0  0  0
  146.1068  133.3377  152.1234 C   0  0  0  0  0  0  0  0  0  0  0  0
  146.5107  134.6624  151.4452 C   0  0  0  0  0  0  0  0  0  0  0  0
  145.4487  135.6617  151.6740 N   0  0  0  0  0  0  0  0  0  0  0  0
  145.5474  136.7679  152.4530 C   0  0  0  0  0  0  0  0  0  0  0  0
  144.5709  137.4018  152.8557 O   0  0  0  0  0  0  0  0  0  0  0  0
  146.8070  137.1613  152.7092 N   0  0  0  0  0  0  0  0  0  0  0  0
  147.1900  138.3378  153.4839 C   0  0  2  0  0  0  0  0  0  0  0  0
  146.6296  138.2055  154.9094 C   0  0  0  0  0  0  0  0  0  0  0  0
  146.7239  139.6211  152.7631 C   0  0  0  0  0  0  0  0  0  0  0  0
  146.9339  140.8320  153.5617 N   0  0  0  0  0  0  0  0  0  0  0  0
  145.9767  141.5792  154.1985 C   0  0  0  0  0  0  0  0  0  0  0  0
  146.6342  142.6112  154.8173 C   0  0  0  0  0  0  0  0  0  0  0  0
  147.9641  142.4488  154.5344 N   0  3  0  0  0  0  0  0  0  0  0  0
  148.1447  141.3642  153.7736 C   0  0  0  0  0  0  0  0  0  0  0  0
  144.1619  135.2076  151.1241 C   0  0  0  0  0  0  0  0  0  0  0  0
  143.7596  133.8823  151.8010 C   0  0  0  0  0  0  0  0  0  0  0  0
  146.2925  130.4958  151.5885 H   0  0  0  0  0  0  0  0  0  0  0  0
  146.7031  131.3900  150.1098 H   0  0  0  0  0  0  0  0  0  0  0  0
  145.6458  129.9829  150.0328 H   0  0  0  0  0  0  0  0  0  0  0  0
  146.0050  133.4792  153.2005 H   0  0  0  0  0  0  0  0  0  0  0  0
  146.9020  132.6030  151.9921 H   0  0  0  0  0  0  0  0  0  0  0  0
  147.4914  134.9637  151.8124 H   0  0  0  0  0  0  0  0  0  0  0  0
  146.6324  134.5121  150.3714 H   0  0  0  0  0  0  0  0  0  0  0  0
  147.5575  136.6045  152.3268 H   0  0  0  0  0  0  0  0  0  0  0  0
  148.2783  138.3595  153.5651 H   0  0  0  0  0  0  0  0  0  0  0  0
  146.9738  139.0161  155.5517 H   0  0  0  0  0  0  0  0  0  0  0  0
  146.9515  137.2713  155.3708 H   0  0  0  0  0  0  0  0  0  0  0  0
  145.5392  138.2182  154.9101 H   0  0  0  0  0  0  0  0  0  0  0  0
  147.2656  139.7550  151.8256 H   0  0  0  0  0  0  0  0  0  0  0  0
  145.6646  139.5558  152.5085 H   0  0  0  0  0  0  0  0  0  0  0  0
  144.9264  141.3274  154.1631 H   0  0  0  0  0  0  0  0  0  0  0  0
  146.2650  143.4271  155.4218 H   0  0  0  0  0  0  0  0  0  0  0  0
  149.0833  140.9955  153.3998 H   0  0  0  0  0  0  0  0  0  0  0  0
  143.3663  135.9428  151.2515 H   0  0  0  0  0  0  0  0  0  0  0  0
  144.2631  135.0652  150.0471 H   0  0  0  0  0  0  0  0  0  0  0  0
  142.7821  133.5716  151.4360 H   0  0  0  0  0  0  0  0  0  0  0  0
  143.6389  134.0309  152.8750 H   0  0  0  0  0  0  0  0  0  0  0  0
  148.7057  143.0594  154.8537 H   0  0  0  0  0  0  0  0  0  0  0  0
  1  2  1  0  0  0  0
  1 21  1  0  0  0  0
  1 22  1  0  0  0  0
  1 23  1  0  0  0  0
  2  3  2  0  0  0  0
  2  4  1  0  0  0  0
  4 20  1  0  0  0  0
  4  5  1  0  0  0  0
  5  6  1  0  0  0  0
  5 24  1  0  0  0  0
  5 25  1  0  0  0  0
  6  7  1  0  0  0  0
  6 26  1  0  0  0  0
  6 27  1  0  0  0  0
  7  8  1  0  0  0  0
  7 19  1  0  0  0  0
  8  9  2  0  0  0  0
  8 10  1  0  0  0  0
 10 11  1  0  0  0  0
 10 28  1  0  0  0  0
 11 12  1  0  0  0  0
 11 13  1  0  0  0  0
 11 29  1  0  0  0  0
 12 30  1  0  0  0  0
 12 31  1  0  0  0  0
 12 32  1  0  0  0  0
 13 14  1  0  0  0  0
 13 33  1  0  0  0  0
 13 34  1  0  0  0  0
 14 18  1  0  0  0  0
 14 15  1  0  0  0  0
 15 16  2  0  0  0  0
 15 35  1  0  0  0  0
 16 17  1  0  0  0  0
 16 36  1  0  0  0  0
 17 18  2  0  0  0  0
 17 42  1  0  0  0  0
 18 37  1  0  0  0  0
 19 20  1  0  0  0  0
 19 38  1  0  0  0  0
 19 39  1  0  0  0  0
 20 40  1  0  0  0  0
 20 41  1  0  0  0  0
M  CHG  1  17   1
M  END
> <s_m_source_file>
AV-unprocessed.smi

> <i_m_source_file_index>
3340

> <i_lp_mmshare_version>
43012

> <i_f3d_flags>
0

> <s_epik_input>
W0NIM11DKD1PKU4xW0NIMl1bQ0gyXU4oW0NIMl1bQ0gyXTEpQyg9TylbTkhdW0NASF0oW0NIM10pW0NIMl1uMltjSF1bY0hdbltjSF0y

> <s_epik_cmdline>
J2VwaWtfcHl0aG9uJywgJy1waCcsICc3LjAnLCAnLXRuJywgJzgnLCAnLW1hJywgJzIwMCcsICctbWV0YWxfYmluZGluZycsICctaW1hZScsICc8aW5maWxlLm1hZT4nLCAnLW9tYWUnLCAnPG91dGZpbGUubWFlPic=

> <r_lp_tautomer_probability>
1

> <r_epik_Ionization_Penalty>
0.254791

> <r_epik_Ionization_Penalty_Charging>
0

> <r_epik_Ionization_Penalty_Neutral>
0.254791

> <r_epik_State_Penalty>
0.246235

> <r_epik_Charging_Adjusted_Penalty>
0.246235

> <i_epik_Tot_Q>
1

> <i_epik_Tot_abs_Q>
1

> <r_epik_Metal_State_Penalty>
0.536161

> <b_epik_Metal_Only>
0

> <s_lp_Force_Field>
OPLS_2005

> <r_lp_Energy>
50.8971

> <b_lp_Chiralities_Consistent>
1

> <s_lp_Variant>
AV-unprocessed.smi:3340-1

> <Gold.Version>
5.8.1

> <Gold.Id.Protein>
6NUR|6NUR_protein|mol2

> <Gold.PLP.Fitness>
46.3037

> <Gold.PLP.PLP>
-30.4328

> <Gold.PLP.part.hbond>
-3.0000

> <Gold.PLP.part.metal>
0.0000

> <Gold.PLP.part.buried>
-0.8147

> <Gold.PLP.part.nonpolar>
-29.3309

> <Gold.PLP.part.repulsive>
1.6496

> <Gold.PLP.ligand.clash>
0.0000

> <Gold.PLP.ligand.torsion>
0.2870

> <Gold.PLP.Chemscore.Hbond>
3.4960

> <Gold.PLP.Chemscore.CHOScore>
1.9630

> <Gold.PLP.Chemscore.Metal>
0.0000

> <Gold.Chemscore.Hbonds>
donor molecule, donor type, donor heavy atom, donor atom, acceptor molecule, acceptor atom, score
      L1  H    10    28       P1  7948  0.94
      L1  H    17    42       P1  8028  1.50
      P1  H 10785 10796       L1     3  0.76
      L1  C    15    35       P1 10175  1.00
      L1  C    18    37       P1  7957  0.98

> <Gold.PLP.Chemscore.Internal.Correction>
0.0679

> <Gold.Rescore>
     Score         DG    S(hbond)    S(metal)    S(lipo)     H(rot)  DE(clash)    DE(int)     intcor
     12.29     -16.37       2.56        0.00      57.10       1.70       2.90       1.18       ----

> <Gold.Chemscore.Fitness>
12.2895

> <Gold.Chemscore.DG>
-16.3728

> <Gold.Chemscore.ZeroCoef>
-5.4800

> <Gold.Chemscore.Hbond>
2.5621

> <Gold.Chemscore.Metal>
0.0000

> <Gold.Chemscore.Lipo>
57.1018

> <Gold.Chemscore.Internal_Hbond>
0.0000

> <Gold.Chemscore.DEClash>
2.9035

> <Gold.Chemscore.DEInternal>
1.1798

> <Gold.Chemscore.Rot>
1.6975

> <Gold.Chemscore.Internal.Correction>
   9.000000E+99

> <Gold.Chemscore.Hbonds>
donor molecule, donor type, donor heavy atom, donor atom, acceptor molecule, acceptor atom, score
      L1  H    10    28       P1  7948  0.90
      L1  H    17    42       P1  8028  0.76
      P1  H 10785 10796       L1     3  0.71

> <Gold.Chemscore.Hbond.Weighted>
-8.5574

> <Gold.Chemscore.Metal.Weighted>
-0.0000

> <Gold.Chemscore.Lipo.Weighted>
-6.6809

> <Gold.Chemscore.Internal_Hbond.Weighted>
0.0000

> <Gold.Chemscore.DEClash.Weighted>
2.9035

> <Gold.Chemscore.DEInternal.Weighted>
1.1798

> <Gold.Chemscore.Rot.Weighted>
4.3455

> <Gold.Chemscore.Internal.Correction.Weighted>
   9.000000E+99

> <Gold.Protein.RotatedTorsions>
[ 6907 6896 6895 6894 ] final -155.46 input  -60.11 | X-H torsion
[ 7974 7965 7964 7962 ] final  176.01 input  175.53 | X-H torsion
[ 8008 7997 7996 7995 ] final  -45.23 input   59.86 | X-H torsion
[ 10167 10162 10161 10158 ] final  -68.15 input  -65.29 | X-H torsion
[ 10718 10713 10712 10709 ] final  -18.01 input   66.30 | X-H torsion
[ 10763 10752 10751 10750 ] final   60.65 input  -60.55 | X-H torsion
[ 11005 11000 10999 10996 ] final   18.60 input  -57.11 | X-H torsion

> <Gold.Protein.ActiveResidues>
 VAL166  LYS551  ARG553  GLY616  TRP617  ASP618  TYR619  PRO620  LYS621  CYS622 
 ASP623  PHE694  ASN695  SER759  ASP760  ASP761  ALA762  ILE779  LEU786  VAL792 
 PHE793  MET794  SER795  GLU796  ALA797  LYS798  CYS799  TRP800  GLU811  SER814 

> <Gold.Protein.RotatedAtoms>
  151.2729  133.4246  159.2622 H   0  0  0  0  0  0  0  0  0  0  0  0  # atno 6907 bound_to 6896
  151.0429  134.9620  159.8181 H   0  0  0  0  0  0  0  0  0  0  0  0  # atno 6908 bound_to 6896
  152.5368  134.2686  159.9015 H   0  0  0  0  0  0  0  0  0  0  0  0  # atno 6909 bound_to 6896
  144.7191  140.0032  143.6440 H   0  0  0  0  0  0  0  0  0  0  0  0  # atno 7974 bound_to 7965
  154.4000  140.1402  156.3813 H   0  0  0  0  0  0  0  0  0  0  0  0  # atno 8008 bound_to 7997
  155.8001  140.3476  155.5377 H   0  0  0  0  0  0  0  0  0  0  0  0  # atno 8009 bound_to 7997
  155.8492  140.0939  157.1676 H   0  0  0  0  0  0  0  0  0  0  0  0  # atno 8010 bound_to 7997
  140.5529  143.2312  151.6877 H   0  0  0  0  0  0  0  0  0  0  0  0  # atno 10167 bound_to 10162
  156.5655  130.4736  149.6386 H   0  0  0  0  0  0  0  0  0  0  0  0  # atno 10718 bound_to 10713
  152.9927  135.5529  154.5908 H   0  0  0  0  0  0  0  0  0  0  0  0  # atno 10763 bound_to 10752
  154.5270  135.2811  155.1216 H   0  0  0  0  0  0  0  0  0  0  0  0  # atno 10764 bound_to 10752
  154.2546  135.6392  153.5305 H   0  0  0  0  0  0  0  0  0  0  0  0  # atno 10765 bound_to 10752
  140.4230  134.1498  155.7674 H   0  0  0  0  0  0  0  0  0  0  0  0  # atno 11005 bound_to 11000
  146.0318  139.3342  143.0750 LP  0  0  0  0  0  0  0  0  0  0  0  0  # atno 17320 bound_to 7965
  145.8443  140.9563  143.0783 LP  0  0  0  0  0  0  0  0  0  0  0  0  # atno 17321 bound_to 7965
  139.5035  144.3788  152.0396 LP  0  0  0  0  0  0  0  0  0  0  0  0  # atno 17342 bound_to 10162
  140.2907  144.3757  150.6089 LP  0  0  0  0  0  0  0  0  0  0  0  0  # atno 17343 bound_to 10162
  156.2760  130.7044  151.1855 LP  0  0  0  0  0  0  0  0  0  0  0  0  # atno 17370 bound_to 10713
  157.7359  131.0567  150.5442 LP  0  0  0  0  0  0  0  0  0  0  0  0  # atno 17371 bound_to 10713
  141.1776  133.8481  157.1368 LP  0  0  0  0  0  0  0  0  0  0  0  0  # atno 17394 bound_to 11000
  140.0187  134.9956  157.0546 LP  0  0  0  0  0  0  0  0  0  0  0  0  # atno 17395 bound_to 11000

$$$$
