AV-unprocessed.smi:2504|AV-procd|sdf|9850|dock2
  -GOLD-   2272013483D 1   1.00000     0.00000
 Structure written by MMmdl.
 47 49  0  0  0  0  0  0  0  0  2 V2000
  146.3665  136.1052  159.4408 O   0  0  0  0  0  0  0  0  0  0  0  0
  147.0840  135.1044  159.4627 C   0  0  0  0  0  0  0  0  0  0  0  0
  148.0768  134.8693  160.6204 C   0  0  0  0  0  0  0  0  0  0  0  0
  147.6764  133.6818  161.5125 C   0  0  0  0  0  0  0  0  0  0  0  0
  146.8439  134.2547  162.6705 C   0  0  0  0  0  0  0  0  0  0  0  0
  147.0077  135.7799  162.6197 C   0  0  0  0  0  0  0  0  0  0  0  0
  148.1163  136.0523  161.5988 C   0  0  0  0  0  0  0  0  0  0  0  0
  147.0883  134.1896  158.4055 N   0  0  0  0  0  0  0  0  0  0  0  0
  146.6641  134.5837  157.0703 C   0  0  0  0  0  0  0  0  0  0  0  0
  147.6201  133.4956  156.5686 C   0  0  0  0  0  0  0  0  0  0  0  0
  148.6611  134.0561  155.1491 S   0  0  0  0  0  0  0  0  0  0  0  0
  149.0369  135.4597  155.3774 O   0  0  0  0  0  0  0  0  0  0  0  0
  149.7024  133.0577  154.8630 O   0  0  0  0  0  0  0  0  0  0  0  0
  147.5394  134.0177  153.8375 N   0  0  0  0  0  0  0  0  0  0  0  0
  146.2428  134.6824  153.9899 C   0  0  0  0  0  0  0  0  0  0  0  0
  145.7678  135.2953  152.6610 C   0  0  0  0  0  0  0  0  0  0  0  0
  145.0944  134.2922  151.7427 C   0  0  0  0  0  0  0  0  0  0  0  0
  145.7810  133.1312  151.3235 C   0  0  0  0  0  0  0  0  0  0  0  0
  145.1397  132.2240  150.4547 C   0  0  0  0  0  0  0  0  0  0  0  0
  143.8260  132.4988  150.0237 C   0  0  0  0  0  0  0  0  0  0  0  0
  143.1997  133.6187  150.4469 N   0  3  0  0  0  0  0  0  0  0  0  0
  143.7781  134.5106  151.2808 C   0  0  0  0  0  0  0  0  0  0  0  0
  148.3128  133.5580  157.9366 C   0  0  0  0  0  0  0  0  0  0  0  0
  149.0675  134.6862  160.2026 H   0  0  0  0  0  0  0  0  0  0  0  0
  147.1349  132.9049  160.9705 H   0  0  0  0  0  0  0  0  0  0  0  0
  148.5772  133.2142  161.9115 H   0  0  0  0  0  0  0  0  0  0  0  0
  145.7926  133.9841  162.5656 H   0  0  0  0  0  0  0  0  0  0  0  0
  147.1887  133.8524  163.6236 H   0  0  0  0  0  0  0  0  0  0  0  0
  146.0764  136.2347  162.2797 H   0  0  0  0  0  0  0  0  0  0  0  0
  147.2386  136.2048  163.5969 H   0  0  0  0  0  0  0  0  0  0  0  0
  149.0836  136.0700  162.1027 H   0  0  0  0  0  0  0  0  0  0  0  0
  147.9892  137.0208  161.1135 H   0  0  0  0  0  0  0  0  0  0  0  0
  145.6103  134.3935  156.8655 H   0  0  0  0  0  0  0  0  0  0  0  0
  146.9708  135.5958  156.7976 H   0  0  0  0  0  0  0  0  0  0  0  0
  147.1190  132.5493  156.3584 H   0  0  0  0  0  0  0  0  0  0  0  0
  147.9891  134.2837  152.9612 H   0  0  0  0  0  0  0  0  0  0  0  0
  145.5051  133.9789  154.3784 H   0  0  0  0  0  0  0  0  0  0  0  0
  146.3487  135.4680  154.7384 H   0  0  0  0  0  0  0  0  0  0  0  0
  145.0640  136.1028  152.8663 H   0  0  0  0  0  0  0  0  0  0  0  0
  146.6090  135.7546  152.1397 H   0  0  0  0  0  0  0  0  0  0  0  0
  146.7904  132.9400  151.6580 H   0  0  0  0  0  0  0  0  0  0  0  0
  145.6501  131.3323  150.1212 H   0  0  0  0  0  0  0  0  0  0  0  0
  143.2619  131.8623  149.3577 H   0  0  0  0  0  0  0  0  0  0  0  0
  143.1794  135.3711  151.5412 H   0  0  0  0  0  0  0  0  0  0  0  0
  149.1815  134.2161  157.9741 H   0  0  0  0  0  0  0  0  0  0  0  0
  148.5075  132.5842  158.3864 H   0  0  0  0  0  0  0  0  0  0  0  0
  142.2498  133.7991  150.1214 H   0  0  0  0  0  0  0  0  0  0  0  0
  1  2  2  0  0  0  0
  2  3  1  0  0  0  0
  2  8  1  0  0  0  0
  3  7  1  0  0  0  0
  3  4  1  0  0  0  0
  3 24  1  0  0  0  0
  4  5  1  0  0  0  0
  4 25  1  0  0  0  0
  4 26  1  0  0  0  0
  5  6  1  0  0  0  0
  5 27  1  0  0  0  0
  5 28  1  0  0  0  0
  6  7  1  0  0  0  0
  6 29  1  0  0  0  0
  6 30  1  0  0  0  0
  7 31  1  0  0  0  0
  7 32  1  0  0  0  0
  8 23  1  0  0  0  0
  8  9  1  0  0  0  0
  9 10  1  0  0  0  0
  9 33  1  0  0  0  0
  9 34  1  0  0  0  0
 10 11  1  0  0  0  0
 10 23  1  0  0  0  0
 10 35  1  0  0  0  0
 11 12  2  0  0  0  0
 11 13  2  0  0  0  0
 11 14  1  0  0  0  0
 14 15  1  0  0  0  0
 14 36  1  0  0  0  0
 15 16  1  0  0  0  0
 15 37  1  0  0  0  0
 15 38  1  0  0  0  0
 16 17  1  0  0  0  0
 16 39  1  0  0  0  0
 16 40  1  0  0  0  0
 17 22  1  0  0  0  0
 17 18  2  0  0  0  0
 18 19  1  0  0  0  0
 18 41  1  0  0  0  0
 19 20  2  0  0  0  0
 19 42  1  0  0  0  0
 20 21  1  0  0  0  0
 20 43  1  0  0  0  0
 21 22  2  0  0  0  0
 21 47  1  0  0  0  0
 22 44  1  0  0  0  0
 23 45  1  0  0  0  0
 23 46  1  0  0  0  0
M  CHG  1  21   1
M  END
> <s_m_source_file>
AV-unprocessed.smi

> <i_m_source_file_index>
2504

> <i_lp_mmshare_version>
43012

> <i_f3d_flags>
0

> <s_epik_input>
W0NIMl0xW0NIMl1bQ0gyXVtDSDJdW0NIXTFDKD1PKU4yW0NIMl1bQ0hdKFtDSDJdMilTKD1PKSg9TylbTkhdW0NIMl1bQ0gyXWMzW2NIXVtjSF1bY0hdbltjSF0z

> <s_epik_cmdline>
J2VwaWtfcHl0aG9uJywgJy1waCcsICc3LjAnLCAnLXRuJywgJzgnLCAnLW1hJywgJzIwMCcsICctbWV0YWxfYmluZGluZycsICctaW1hZScsICc8aW5maWxlLm1hZT4nLCAnLW9tYWUnLCAnPG91dGZpbGUubWFlPic=

> <r_epik_Ionization_Penalty>
2.38216

> <r_epik_Ionization_Penalty_Charging>
2.38209

> <r_epik_Ionization_Penalty_Neutral>
6.7549e-05

> <r_epik_State_Penalty>
2.53866

> <r_epik_Charging_Adjusted_Penalty>
4.92075

> <i_epik_Tot_Q>
1

> <i_epik_Tot_abs_Q>
1

> <r_epik_Metal_State_Penalty>
2.64273

> <b_epik_Metal_Only>
0

> <s_lp_Force_Field>
OPLS_2005

> <r_lp_Energy>
40.9078

> <b_lp_Chiralities_Consistent>
1

> <s_lp_Variant>
AV-unprocessed.smi:2504-2

> <Gold.Version>
5.8.1

> <Gold.Id.Protein>
6NUR|6NUR_protein|mol2

> <Gold.PLP.Fitness>
43.5504

> <Gold.PLP.PLP>
-35.7806

> <Gold.PLP.part.hbond>
-2.0000

> <Gold.PLP.part.metal>
0.0000

> <Gold.PLP.part.buried>
-5.3605

> <Gold.PLP.part.nonpolar>
-28.6408

> <Gold.PLP.part.repulsive>
0.2414

> <Gold.PLP.ligand.clash>
0.0000

> <Gold.PLP.ligand.torsion>
1.4325

> <Gold.PLP.Chemscore.Hbond>
2.9920

> <Gold.PLP.Chemscore.CHOScore>
0.0000

> <Gold.PLP.Chemscore.Metal>
0.0000

> <Gold.Chemscore.Hbonds>
donor molecule, donor type, donor heavy atom, donor atom, acceptor molecule, acceptor atom, score
      L1  H    14    36       P1  7948  0.07
      L1  H    21    47       P1 10186  1.85

> <Gold.PLP.Chemscore.Internal.Correction>
1.6588

> <Gold.Rescore>
     Score         DG    S(hbond)    S(metal)    S(lipo)     H(rot)  DE(clash)    DE(int)     intcor
     15.47     -16.84       1.96        0.00      84.40       1.97       0.00       1.37       ----

> <Gold.Chemscore.Fitness>
15.4708

> <Gold.Chemscore.DG>
-16.8402

> <Gold.Chemscore.ZeroCoef>
-5.4800

> <Gold.Chemscore.Hbond>
1.9584

> <Gold.Chemscore.Metal>
0.0000

> <Gold.Chemscore.Lipo>
84.3988

> <Gold.Chemscore.Internal_Hbond>
0.0000

> <Gold.Chemscore.DEClash>
0.0000

> <Gold.Chemscore.DEInternal>
1.3695

> <Gold.Chemscore.Rot>
1.9749

> <Gold.Chemscore.Internal.Correction>
   9.000000E+99

> <Gold.Chemscore.Hbonds>
donor molecule, donor type, donor heavy atom, donor atom, acceptor molecule, acceptor atom, score
      L1  H    14    36       P1  7948  0.06
      L1  H    21    47       P1 10186  0.88

> <Gold.Chemscore.Hbond.Weighted>
-6.5412

> <Gold.Chemscore.Metal.Weighted>
-0.0000

> <Gold.Chemscore.Lipo.Weighted>
-9.8747

> <Gold.Chemscore.Internal_Hbond.Weighted>
0.0000

> <Gold.Chemscore.DEClash.Weighted>
0.0000

> <Gold.Chemscore.DEInternal.Weighted>
1.3695

> <Gold.Chemscore.Rot.Weighted>
5.0556

> <Gold.Chemscore.Internal.Correction.Weighted>
   9.000000E+99

> <Gold.Protein.RotatedTorsions>
[ 6907 6896 6895 6894 ] final  -38.54 input  -60.11 | X-H torsion
[ 7974 7965 7964 7962 ] final  162.87 input  175.53 | X-H torsion
[ 8008 7997 7996 7995 ] final  -91.99 input   59.86 | X-H torsion
[ 10167 10162 10161 10158 ] final   79.53 input  -65.29 | X-H torsion
[ 10718 10713 10712 10709 ] final   47.64 input   66.30 | X-H torsion
[ 10763 10752 10751 10750 ] final -151.60 input  -60.55 | X-H torsion
[ 11005 11000 10999 10996 ] final  -96.75 input  -57.11 | X-H torsion

> <Gold.Protein.ActiveResidues>
 VAL166  LYS551  ARG553  GLY616  TRP617  ASP618  TYR619  PRO620  LYS621  CYS622 
 ASP623  PHE694  ASN695  SER759  ASP760  ASP761  ALA762  ILE779  LEU786  VAL792 
 PHE793  MET794  SER795  GLU796  ALA797  LYS798  CYS799  TRP800  GLU811  SER814 

> <Gold.Protein.RotatedAtoms>
  151.0012  134.9323  159.7954 H   0  0  0  0  0  0  0  0  0  0  0  0  # atno 6907 bound_to 6896
  152.5278  134.3152  159.9138 H   0  0  0  0  0  0  0  0  0  0  0  0  # atno 6908 bound_to 6896
  151.3158  133.4019  159.2685 H   0  0  0  0  0  0  0  0  0  0  0  0  # atno 6909 bound_to 6896
  144.7616  139.8101  143.6330 H   0  0  0  0  0  0  0  0  0  0  0  0  # atno 7974 bound_to 7965
  154.7175  140.0513  157.0608 H   0  0  0  0  0  0  0  0  0  0  0  0  # atno 8008 bound_to 7997
  155.0471  140.3175  155.4685 H   0  0  0  0  0  0  0  0  0  0  0  0  # atno 8009 bound_to 7997
  156.2807  140.2122  156.5596 H   0  0  0  0  0  0  0  0  0  0  0  0  # atno 8010 bound_to 7997
  139.9593  144.5972  150.8087 H   0  0  0  0  0  0  0  0  0  0  0  0  # atno 10167 bound_to 10162
  157.4605  130.8193  149.7881 H   0  0  0  0  0  0  0  0  0  0  0  0  # atno 10718 bound_to 10713
  154.8047  135.3256  154.7461 H   0  0  0  0  0  0  0  0  0  0  0  0  # atno 10763 bound_to 10752
  153.8122  135.6894  153.4843 H   0  0  0  0  0  0  0  0  0  0  0  0  # atno 10764 bound_to 10752
  153.1785  135.4595  154.9942 H   0  0  0  0  0  0  0  0  0  0  0  0  # atno 10765 bound_to 10752
  141.1401  133.8120  157.0613 H   0  0  0  0  0  0  0  0  0  0  0  0  # atno 11005 bound_to 11000
  146.1685  139.4826  142.9943 LP  0  0  0  0  0  0  0  0  0  0  0  0  # atno 17320 bound_to 7965
  145.6601  141.0242  143.1714 LP  0  0  0  0  0  0  0  0  0  0  0  0  # atno 17321 bound_to 7965
  140.7558  143.3054  151.2976 LP  0  0  0  0  0  0  0  0  0  0  0  0  # atno 17342 bound_to 10162
  139.6567  144.0264  152.2664 LP  0  0  0  0  0  0  0  0  0  0  0  0  # atno 17343 bound_to 10162
  156.0026  130.3872  150.2547 LP  0  0  0  0  0  0  0  0  0  0  0  0  # atno 17370 bound_to 10713
  157.0724  131.0120  151.3185 LP  0  0  0  0  0  0  0  0  0  0  0  0  # atno 17371 bound_to 10713
  140.0569  134.9775  157.1236 LP  0  0  0  0  0  0  0  0  0  0  0  0  # atno 17394 bound_to 11000
  140.3906  134.2189  155.7166 LP  0  0  0  0  0  0  0  0  0  0  0  0  # atno 17395 bound_to 11000

$$$$
