AV-unprocessed.smi:2137|AV-procd|sdf|8707|dock7
  -GOLD-   2272011473D 1   1.00000     0.00000
 Structure written by MMmdl.
 50 51  0  0  0  0  0  0  0  0  2 V2000
  146.1680  132.0127  149.5547 C   0  0  0  0  0  0  0  0  0  0  0  0
  145.5398  132.1221  150.9551 C   0  0  1  0  0  0  0  0  0  0  0  0
  144.9497  130.7893  151.4514 C   0  0  0  0  0  0  0  0  0  0  0  0
  146.0567  129.8102  151.8672 C   0  0  0  0  0  0  0  0  0  0  0  0
  147.0136  130.4568  152.8813 C   0  0  0  0  0  0  0  0  0  0  0  0
  147.5902  131.7163  152.3447 N   0  3  2  0  0  0  0  0  0  0  0  0
  148.6363  132.2819  153.2339 C   0  0  0  0  0  0  0  0  0  0  0  0
  149.5557  131.1960  153.8176 C   0  0  0  0  0  0  0  0  0  0  0  0
  150.0913  131.5692  155.2100 C   0  0  0  0  0  0  0  0  0  0  0  0
  149.0060  131.7919  156.1580 N   0  0  0  0  0  0  0  0  0  0  0  0
  149.1659  132.0195  157.4704 C   0  0  0  0  0  0  0  0  0  0  0  0
  150.2698  132.0923  158.0123 O   0  0  0  0  0  0  0  0  0  0  0  0
  147.8792  132.2046  158.2862 C   0  0  0  0  0  0  0  0  0  0  0  0
  147.9220  133.3815  159.1640 N   0  0  0  0  0  0  0  0  0  0  0  0
  148.1217  134.6368  158.6183 C   0  0  0  0  0  0  0  0  0  0  0  0
  148.1888  135.7672  159.3549 C   0  0  0  0  0  0  0  0  0  0  0  0
  148.0469  135.7241  160.8051 C   0  0  0  0  0  0  0  0  0  0  0  0
  148.1241  136.7240  161.5201 O   0  0  0  0  0  0  0  0  0  0  0  0
  147.8258  134.4315  161.3364 N   0  0  0  0  0  0  0  0  0  0  0  0
  147.6963  134.3126  162.7741 C   0  0  0  0  0  0  0  0  0  0  0  0
  147.7754  133.2495  160.5623 C   0  0  0  0  0  0  0  0  0  0  0  0
  147.6197  132.1367  161.0713 O   0  0  0  0  0  0  0  0  0  0  0  0
  146.5267  132.6966  151.9923 C   0  0  0  0  0  0  0  0  0  0  0  0
  147.0292  131.3447  149.5444 H   0  0  0  0  0  0  0  0  0  0  0  0
  146.5052  132.9877  149.2016 H   0  0  0  0  0  0  0  0  0  0  0  0
  145.4462  131.6351  148.8300 H   0  0  0  0  0  0  0  0  0  0  0  0
  144.7132  132.8280  150.8651 H   0  0  0  0  0  0  0  0  0  0  0  0
  144.3043  130.9806  152.3097 H   0  0  0  0  0  0  0  0  0  0  0  0
  144.3142  130.3415  150.6864 H   0  0  0  0  0  0  0  0  0  0  0  0
  145.6132  128.9115  152.2968 H   0  0  0  0  0  0  0  0  0  0  0  0
  146.6155  129.4842  150.9894 H   0  0  0  0  0  0  0  0  0  0  0  0
  146.4904  130.6641  153.8164 H   0  0  0  0  0  0  0  0  0  0  0  0
  147.8126  129.7514  153.1137 H   0  0  0  0  0  0  0  0  0  0  0  0
  149.2144  133.0348  152.6963 H   0  0  0  0  0  0  0  0  0  0  0  0
  148.1592  132.7988  154.0678 H   0  0  0  0  0  0  0  0  0  0  0  0
  149.0097  130.2538  153.8807 H   0  0  0  0  0  0  0  0  0  0  0  0
  150.3974  131.0188  153.1490 H   0  0  0  0  0  0  0  0  0  0  0  0
  150.7596  130.7922  155.5850 H   0  0  0  0  0  0  0  0  0  0  0  0
  150.6810  132.4843  155.1503 H   0  0  0  0  0  0  0  0  0  0  0  0
  148.0645  131.7569  155.7937 H   0  0  0  0  0  0  0  0  0  0  0  0
  147.0446  132.2869  157.5889 H   0  0  0  0  0  0  0  0  0  0  0  0
  147.6816  131.3092  158.8787 H   0  0  0  0  0  0  0  0  0  0  0  0
  148.2372  134.7213  157.5474 H   0  0  0  0  0  0  0  0  0  0  0  0
  148.3534  136.7158  158.8650 H   0  0  0  0  0  0  0  0  0  0  0  0
  147.1010  133.4334  163.0234 H   0  0  0  0  0  0  0  0  0  0  0  0
  147.1760  135.1902  163.1608 H   0  0  0  0  0  0  0  0  0  0  0  0
  148.7070  134.2369  163.1774 H   0  0  0  0  0  0  0  0  0  0  0  0
  146.9621  133.6155  151.6016 H   0  0  0  0  0  0  0  0  0  0  0  0
  145.9867  132.9745  152.8990 H   0  0  0  0  0  0  0  0  0  0  0  0
  148.0550  131.4659  151.4835 H   0  0  0  0  0  0  0  0  0  0  0  0
  1  2  1  0  0  0  0
  1 24  1  0  0  0  0
  1 25  1  0  0  0  0
  1 26  1  0  0  0  0
  2 23  1  0  0  0  0
  2  3  1  0  0  0  0
  2 27  1  0  0  0  0
  3  4  1  0  0  0  0
  3 28  1  0  0  0  0
  3 29  1  0  0  0  0
  4  5  1  0  0  0  0
  4 30  1  0  0  0  0
  4 31  1  0  0  0  0
  5  6  1  0  0  0  0
  5 32  1  0  0  0  0
  5 33  1  0  0  0  0
  6  7  1  0  0  0  0
  6 23  1  0  0  0  0
  6 50  1  0  0  0  0
  7  8  1  0  0  0  0
  7 34  1  0  0  0  0
  7 35  1  0  0  0  0
  8  9  1  0  0  0  0
  8 36  1  0  0  0  0
  8 37  1  0  0  0  0
  9 10  1  0  0  0  0
  9 38  1  0  0  0  0
  9 39  1  0  0  0  0
 10 11  1  0  0  0  0
 10 40  1  0  0  0  0
 11 12  2  0  0  0  0
 11 13  1  0  0  0  0
 13 14  1  0  0  0  0
 13 41  1  0  0  0  0
 13 42  1  0  0  0  0
 14 21  1  0  0  0  0
 14 15  1  0  0  0  0
 15 16  2  0  0  0  0
 15 43  1  0  0  0  0
 16 17  1  0  0  0  0
 16 44  1  0  0  0  0
 17 18  2  0  0  0  0
 17 19  1  0  0  0  0
 19 20  1  0  0  0  0
 19 21  1  0  0  0  0
 20 45  1  0  0  0  0
 20 46  1  0  0  0  0
 20 47  1  0  0  0  0
 21 22  2  0  0  0  0
 23 48  1  0  0  0  0
 23 49  1  0  0  0  0
M  CHG  1   6   1
M  END
> <s_m_source_file>
AV-unprocessed.smi

> <i_m_source_file_index>
2137

> <i_lp_mmshare_version>
43012

> <i_f3d_flags>
0

> <s_epik_input>
W0NIM11bQ0BASF0xW0NIMl1bQ0gyXVtDSDJdTihbQ0gyXTEpW0NIMl1bQ0gyXVtDSDJdW05IXUMoPU8pW0NIMl1uMltjSF1bY0hdYyg9TyluKFtDSDNdKWMyPU8=

> <s_epik_cmdline>
J2VwaWtfcHl0aG9uJywgJy1waCcsICc3LjAnLCAnLXRuJywgJzgnLCAnLW1hJywgJzIwMCcsICctbWV0YWxfYmluZGluZycsICctaW1hZScsICc8aW5maWxlLm1hZT4nLCAnLW9tYWUnLCAnPG91dGZpbGUubWFlPic=

> <r_lp_tautomer_probability>
1

> <r_epik_Ionization_Penalty>
0.000384839

> <r_epik_Ionization_Penalty_Charging>
0.000384812

> <r_epik_Ionization_Penalty_Neutral>
2.6907e-08

> <r_epik_State_Penalty>
0.000235226

> <r_epik_Charging_Adjusted_Penalty>
0.000620038

> <i_epik_Tot_Q>
1

> <i_epik_Tot_abs_Q>
1

> <r_epik_Metal_State_Penalty>
-0

> <b_epik_Metal_Only>
0

> <s_lp_Force_Field>
OPLS_2005

> <r_lp_Energy>
27.4749

> <b_lp_Chiralities_Consistent>
1

> <s_lp_Variant>
AV-unprocessed.smi:2137-2

> <Gold.Version>
5.8.1

> <Gold.Id.Protein>
6NUR|6NUR_protein|mol2

> <Gold.PLP.Fitness>
52.2194

> <Gold.PLP.PLP>
-41.6782

> <Gold.PLP.part.hbond>
-4.0000

> <Gold.PLP.part.metal>
0.0000

> <Gold.PLP.part.buried>
-3.9407

> <Gold.PLP.part.nonpolar>
-31.9699

> <Gold.PLP.part.repulsive>
0.0000

> <Gold.PLP.ligand.clash>
0.0000

> <Gold.PLP.ligand.torsion>
0.4695

> <Gold.PLP.Chemscore.Hbond>
3.8000

> <Gold.PLP.Chemscore.CHOScore>
0.0000

> <Gold.PLP.Chemscore.Metal>
0.0000

> <Gold.Chemscore.Hbonds>
donor molecule, donor type, donor heavy atom, donor atom, acceptor molecule, acceptor atom, score
      L1  H     6    50       P1 10747  1.00
      P1  H  6896  6907       L1    12  0.99
      P1  H  6931  6943       L1    18  1.00

> <Gold.PLP.Chemscore.Internal.Correction>
0.0802

> <Gold.Rescore>
     Score         DG    S(hbond)    S(metal)    S(lipo)     H(rot)  DE(clash)    DE(int)     intcor
     21.72     -22.29       3.77        0.00      85.81       2.27       0.02       0.55       ----

> <Gold.Chemscore.Fitness>
21.7247

> <Gold.Chemscore.DG>
-22.2912

> <Gold.Chemscore.ZeroCoef>
-5.4800

> <Gold.Chemscore.Hbond>
3.7709

> <Gold.Chemscore.Metal>
0.0000

> <Gold.Chemscore.Lipo>
85.8085

> <Gold.Chemscore.Internal_Hbond>
0.0000

> <Gold.Chemscore.DEClash>
0.0158

> <Gold.Chemscore.DEInternal>
0.5507

> <Gold.Chemscore.Rot>
2.2748

> <Gold.Chemscore.Internal.Correction>
   9.000000E+99

> <Gold.Chemscore.Hbonds>
donor molecule, donor type, donor heavy atom, donor atom, acceptor molecule, acceptor atom, score
      L1  H     6    50       P1 10747  1.00
      P1  H  6896  6907       L1    12  0.92
      P1  H  6931  6943       L1    18  1.00

> <Gold.Chemscore.Hbond.Weighted>
-12.5950

> <Gold.Chemscore.Metal.Weighted>
-0.0000

> <Gold.Chemscore.Lipo.Weighted>
-10.0396

> <Gold.Chemscore.Internal_Hbond.Weighted>
0.0000

> <Gold.Chemscore.DEClash.Weighted>
0.0158

> <Gold.Chemscore.DEInternal.Weighted>
0.5507

> <Gold.Chemscore.Rot.Weighted>
5.8234

> <Gold.Chemscore.Internal.Correction.Weighted>
   9.000000E+99

> <Gold.Protein.RotatedTorsions>
[ 6907 6896 6895 6894 ] final -135.08 input  -60.11 | X-H torsion
[ 7974 7965 7964 7962 ] final   22.46 input  175.53 | X-H torsion
[ 8008 7997 7996 7995 ] final  -85.06 input   59.86 | X-H torsion
[ 10167 10162 10161 10158 ] final  -77.56 input  -65.29 | X-H torsion
[ 10718 10713 10712 10709 ] final  -24.94 input   66.30 | X-H torsion
[ 10763 10752 10751 10750 ] final  151.86 input  -60.55 | X-H torsion
[ 11005 11000 10999 10996 ] final  109.08 input  -57.11 | X-H torsion

> <Gold.Protein.ActiveResidues>
 VAL166  LYS551  ARG553  GLY616  TRP617  ASP618  TYR619  PRO620  LYS621  CYS622 
 ASP623  PHE694  ASN695  SER759  ASP760  ASP761  ALA762  ILE779  LEU786  VAL792 
 PHE793  MET794  SER795  GLU796  ALA797  LYS798  CYS799  TRP800  GLU811  SER814 

> <Gold.Protein.RotatedAtoms>
  150.9935  133.6126  159.2704 H   0  0  0  0  0  0  0  0  0  0  0  0  # atno 6907 bound_to 6896
  151.3338  135.0847  159.9357 H   0  0  0  0  0  0  0  0  0  0  0  0  # atno 6908 bound_to 6896
  152.5253  133.9560  159.7748 H   0  0  0  0  0  0  0  0  0  0  0  0  # atno 6909 bound_to 6896
  146.2028  139.7882  142.8749 H   0  0  0  0  0  0  0  0  0  0  0  0  # atno 7974 bound_to 7965
  154.6366  140.0596  156.9796 H   0  0  0  0  0  0  0  0  0  0  0  0  # atno 8008 bound_to 7997
  155.1582  140.3280  155.4398 H   0  0  0  0  0  0  0  0  0  0  0  0  # atno 8009 bound_to 7997
  156.2510  140.1935  156.6691 H   0  0  0  0  0  0  0  0  0  0  0  0  # atno 8010 bound_to 7997
  140.4759  143.2414  151.8133 H   0  0  0  0  0  0  0  0  0  0  0  0  # atno 10167 bound_to 10162
  156.4709  130.4524  149.6870 H   0  0  0  0  0  0  0  0  0  0  0  0  # atno 10718 bound_to 10713
  154.1107  135.2839  155.3231 H   0  0  0  0  0  0  0  0  0  0  0  0  # atno 10763 bound_to 10752
  154.6492  135.5375  153.7884 H   0  0  0  0  0  0  0  0  0  0  0  0  # atno 10764 bound_to 10752
  153.0346  135.6505  154.1266 H   0  0  0  0  0  0  0  0  0  0  0  0  # atno 10765 bound_to 10752
  139.8855  134.9448  156.6071 H   0  0  0  0  0  0  0  0  0  0  0  0  # atno 11005 bound_to 11000
  145.3426  141.0291  143.3384 LP  0  0  0  0  0  0  0  0  0  0  0  0  # atno 17320 bound_to 7965
  144.8722  139.5022  143.6762 LP  0  0  0  0  0  0  0  0  0  0  0  0  # atno 17321 bound_to 7965
  139.4825  144.4833  151.9278 LP  0  0  0  0  0  0  0  0  0  0  0  0  # atno 17342 bound_to 10162
  140.3919  144.2605  150.5899 LP  0  0  0  0  0  0  0  0  0  0  0  0  # atno 17343 bound_to 10162
  156.3619  130.7486  151.2459 LP  0  0  0  0  0  0  0  0  0  0  0  0  # atno 17370 bound_to 10713
  157.7491  131.0348  150.4332 LP  0  0  0  0  0  0  0  0  0  0  0  0  # atno 17371 bound_to 10713
  140.7839  133.8637  155.8590 LP  0  0  0  0  0  0  0  0  0  0  0  0  # atno 17394 bound_to 11000
  140.9736  134.1499  157.4555 LP  0  0  0  0  0  0  0  0  0  0  0  0  # atno 17395 bound_to 11000

$$$$
