AV-unprocessed.smi:1356|AV-procd|sdf|5541|dock4
  -GOLD-   22720 5133D 1   1.00000     0.00000
 Structure written by MMmdl.
 41 42  0  0  0  0  0  0  0  0  1 V2000
  149.7431  131.2822  155.1108 C   0  0  0  0  0  0  0  0  0  0  0  0
  149.1274  132.0676  153.9658 C   0  0  1  0  0  0  0  0  0  0  0  0
  147.9218  132.9395  154.2178 C   0  0  0  0  0  0  0  0  0  0  0  0
  149.2327  133.5795  153.8083 C   0  0  1  0  0  0  0  0  0  0  0  0
  149.9895  134.3591  154.8301 C   0  0  0  0  0  0  0  0  0  0  0  0
  150.4765  133.8338  155.8311 O   0  0  0  0  0  0  0  0  0  0  0  0
  150.1380  135.6598  154.5347 N   0  0  0  0  0  0  0  0  0  0  0  0
  150.8491  136.6286  155.3610 C   0  0  0  0  0  0  0  0  0  0  0  0
  151.3422  137.8258  154.5241 C   0  0  0  0  0  0  0  0  0  0  0  0
  151.9017  138.9754  155.3685 C   0  0  0  0  0  0  0  0  0  0  0  0
  152.7891  139.7098  154.9326 O   0  0  0  0  0  0  0  0  0  0  0  0
  151.3645  139.1185  156.5896 N   0  0  0  0  0  0  0  0  0  0  0  0
  151.7572  140.1267  157.5673 C   0  0  0  0  0  0  0  0  0  0  0  0
  151.3570  141.5434  157.1220 C   0  0  0  0  0  0  0  0  0  0  0  0
  151.6153  142.5759  158.2027 C   0  0  0  0  0  0  0  0  0  0  0  0
  152.1302  142.1902  159.4588 C   0  0  0  0  0  0  0  0  0  0  0  0
  152.3401  143.1860  160.4323 C   0  0  0  0  0  0  0  0  0  0  0  0
  152.0283  144.5219  160.1141 C   0  0  0  0  0  0  0  0  0  0  0  0
  151.5174  144.8035  158.8314 C   0  0  0  0  0  0  0  0  0  0  0  0
  151.3112  143.8561  157.8910 N   0  0  0  0  0  0  0  0  0  0  0  0
  149.6235  131.8046  156.0605 H   0  0  0  0  0  0  0  0  0  0  0  0
  150.8065  131.1259  154.9291 H   0  0  0  0  0  0  0  0  0  0  0  0
  149.2600  130.3089  155.1949 H   0  0  0  0  0  0  0  0  0  0  0  0
  149.1398  131.5164  153.0275 H   0  0  0  0  0  0  0  0  0  0  0  0
  147.1230  132.9316  153.4792 H   0  0  0  0  0  0  0  0  0  0  0  0
  147.5919  133.0569  155.2487 H   0  0  0  0  0  0  0  0  0  0  0  0
  149.3305  133.9367  152.7849 H   0  0  0  0  0  0  0  0  0  0  0  0
  149.7226  136.0031  153.6808 H   0  0  0  0  0  0  0  0  0  0  0  0
  150.2058  136.9625  156.1774 H   0  0  0  0  0  0  0  0  0  0  0  0
  151.6959  136.1182  155.8213 H   0  0  0  0  0  0  0  0  0  0  0  0
  152.1152  137.4979  153.8281 H   0  0  0  0  0  0  0  0  0  0  0  0
  150.5215  138.2158  153.9198 H   0  0  0  0  0  0  0  0  0  0  0  0
  150.6400  138.4725  156.8673 H   0  0  0  0  0  0  0  0  0  0  0  0
  151.2706  139.8829  158.5121 H   0  0  0  0  0  0  0  0  0  0  0  0
  152.8321  140.0721  157.7484 H   0  0  0  0  0  0  0  0  0  0  0  0
  151.9062  141.8270  156.2232 H   0  0  0  0  0  0  0  0  0  0  0  0
  150.2995  141.5674  156.8546 H   0  0  0  0  0  0  0  0  0  0  0  0
  152.3562  141.1561  159.6739 H   0  0  0  0  0  0  0  0  0  0  0  0
  152.7318  142.9303  161.4054 H   0  0  0  0  0  0  0  0  0  0  0  0
  152.1758  145.3117  160.8357 H   0  0  0  0  0  0  0  0  0  0  0  0
  151.2665  145.8166  158.5540 H   0  0  0  0  0  0  0  0  0  0  0  0
  1  2  1  0  0  0  0
  1 21  1  0  0  0  0
  1 22  1  0  0  0  0
  1 23  1  0  0  0  0
  2  4  1  0  0  0  0
  2  3  1  0  0  0  0
  2 24  1  0  0  0  0
  3  4  1  0  0  0  0
  3 25  1  0  0  0  0
  3 26  1  0  0  0  0
  4  5  1  0  0  0  0
  4 27  1  0  0  0  0
  5  6  2  0  0  0  0
  5  7  1  0  0  0  0
  7  8  1  0  0  0  0
  7 28  1  0  0  0  0
  8  9  1  0  0  0  0
  8 29  1  0  0  0  0
  8 30  1  0  0  0  0
  9 10  1  0  0  0  0
  9 31  1  0  0  0  0
  9 32  1  0  0  0  0
 10 11  2  0  0  0  0
 10 12  1  0  0  0  0
 12 13  1  0  0  0  0
 12 33  1  0  0  0  0
 13 14  1  0  0  0  0
 13 34  1  0  0  0  0
 13 35  1  0  0  0  0
 14 15  1  0  0  0  0
 14 36  1  0  0  0  0
 14 37  1  0  0  0  0
 15 20  1  0  0  0  0
 15 16  2  0  0  0  0
 16 17  1  0  0  0  0
 16 38  1  0  0  0  0
 17 18  2  0  0  0  0
 17 39  1  0  0  0  0
 18 19  1  0  0  0  0
 18 40  1  0  0  0  0
 19 20  2  0  0  0  0
 19 41  1  0  0  0  0
M  END
> <s_m_source_file>
AV-unprocessed.smi

> <i_m_source_file_index>
1356

> <i_lp_mmshare_version>
43012

> <i_f3d_flags>
0

> <s_epik_input>
W0NIM11bQ0BASF0xW0NIMl1bQ0BIXTFDKD1PKVtOSF1bQ0gyXVtDSDJdQyg9TylbTkhdW0NIMl1bQ0gyXWMyW2NIXVtjSF1bY0hdW2NIXW4y

> <s_epik_cmdline>
J2VwaWtfcHl0aG9uJywgJy1waCcsICc3LjAnLCAnLXRuJywgJzgnLCAnLW1hJywgJzIwMCcsICctbWV0YWxfYmluZGluZycsICctaW1hZScsICc8aW5maWxlLm1hZT4nLCAnLW9tYWUnLCAnPG91dGZpbGUubWFlPic=

> <r_epik_Ionization_Penalty>
0.0258005

> <r_epik_Ionization_Penalty_Charging>
0

> <r_epik_Ionization_Penalty_Neutral>
0.0258005

> <r_epik_State_Penalty>
0.0210245

> <r_epik_Charging_Adjusted_Penalty>
0.0210245

> <i_epik_Tot_Q>
0

> <i_epik_Tot_abs_Q>
0

> <r_epik_Metal_State_Penalty>
0.0201445

> <b_epik_Metal_Only>
0

> <s_lp_Force_Field>
OPLS_2005

> <r_lp_Energy>
8.2515

> <b_lp_Chiralities_Consistent>
1

> <s_lp_Variant>
AV-unprocessed.smi:1356-2

> <Gold.Version>
5.8.1

> <Gold.Id.Protein>
6NUR|6NUR_protein|mol2

> <Gold.PLP.Fitness>
50.8280

> <Gold.PLP.PLP>
-44.6033

> <Gold.PLP.part.hbond>
-3.5742

> <Gold.PLP.part.metal>
0.0000

> <Gold.PLP.part.buried>
-5.8703

> <Gold.PLP.part.nonpolar>
-36.1211

> <Gold.PLP.part.repulsive>
0.3318

> <Gold.PLP.ligand.clash>
0.0000

> <Gold.PLP.ligand.torsion>
0.6562

> <Gold.PLP.Chemscore.Hbond>
2.4640

> <Gold.PLP.Chemscore.CHOScore>
0.0000

> <Gold.PLP.Chemscore.Metal>
0.0000

> <Gold.Chemscore.Hbonds>
donor molecule, donor type, donor heavy atom, donor atom, acceptor molecule, acceptor atom, score
      L1  H     7    28       P1  7948  0.95
      P1  H  7989  7998       L1    11  0.35
      P1  H  7997  8008       L1    11  1.00

> <Gold.PLP.Chemscore.Internal.Correction>
0.1451

> <Gold.Rescore>
     Score         DG    S(hbond)    S(metal)    S(lipo)     H(rot)  DE(clash)    DE(int)     intcor
     15.76     -17.89       1.83        0.00     101.42       2.18       0.00       2.13       ----

> <Gold.Chemscore.Fitness>
15.7582

> <Gold.Chemscore.DG>
-17.8894

> <Gold.Chemscore.ZeroCoef>
-5.4800

> <Gold.Chemscore.Hbond>
1.8300

> <Gold.Chemscore.Metal>
0.0000

> <Gold.Chemscore.Lipo>
101.4166

> <Gold.Chemscore.Internal_Hbond>
0.0000

> <Gold.Chemscore.DEClash>
0.0015

> <Gold.Chemscore.DEInternal>
2.1298

> <Gold.Chemscore.Rot>
2.1753

> <Gold.Chemscore.Internal.Correction>
   9.000000E+99

> <Gold.Chemscore.Hbonds>
donor molecule, donor type, donor heavy atom, donor atom, acceptor molecule, acceptor atom, score
      L1  H     7    28       P1  7948  0.21
      P1  H  7989  7998       L1    11  0.11
      P1  H  7997  8008       L1    11  0.97

> <Gold.Chemscore.Hbond.Weighted>
-6.1123

> <Gold.Chemscore.Metal.Weighted>
-0.0000

> <Gold.Chemscore.Lipo.Weighted>
-11.8657

> <Gold.Chemscore.Internal_Hbond.Weighted>
0.0000

> <Gold.Chemscore.DEClash.Weighted>
0.0015

> <Gold.Chemscore.DEInternal.Weighted>
2.1298

> <Gold.Chemscore.Rot.Weighted>
5.5687

> <Gold.Chemscore.Internal.Correction.Weighted>
   9.000000E+99

> <Gold.Protein.RotatedTorsions>
[ 6907 6896 6895 6894 ] final   37.96 input  -60.11 | X-H torsion
[ 7974 7965 7964 7962 ] final   42.49 input  175.53 | X-H torsion
[ 8008 7997 7996 7995 ] final   -9.46 input   59.86 | X-H torsion
[ 10167 10162 10161 10158 ] final  113.05 input  -65.29 | X-H torsion
[ 10718 10713 10712 10709 ] final  124.01 input   66.30 | X-H torsion
[ 10763 10752 10751 10750 ] final   43.24 input  -60.55 | X-H torsion
[ 11005 11000 10999 10996 ] final -141.14 input  -57.11 | X-H torsion

> <Gold.Protein.ActiveResidues>
 VAL166  LYS551  ARG553  GLY616  TRP617  ASP618  TYR619  PRO620  LYS621  CYS622 
 ASP623  PHE694  ASN695  SER759  ASP760  ASP761  ALA762  ILE779  LEU786  VAL792 
 PHE793  MET794  SER795  GLU796  ALA797  LYS798  CYS799  TRP800  GLU811  SER814 

> <Gold.Protein.RotatedAtoms>
  152.1501  134.8995  160.0548 H   0  0  0  0  0  0  0  0  0  0  0  0  # atno 6907 bound_to 6896
  152.0030  133.3827  159.4197 H   0  0  0  0  0  0  0  0  0  0  0  0  # atno 6908 bound_to 6896
  150.6874  134.3735  159.5046 H   0  0  0  0  0  0  0  0  0  0  0  0  # atno 6909 bound_to 6896
  146.0736  139.5294  142.9582 H   0  0  0  0  0  0  0  0  0  0  0  0  # atno 7974 bound_to 7965
  154.5645  140.2354  155.8285 H   0  0  0  0  0  0  0  0  0  0  0  0  # atno 8008 bound_to 7997
  156.2057  140.3040  155.9580 H   0  0  0  0  0  0  0  0  0  0  0  0  # atno 8009 bound_to 7997
  155.2827  140.0423  157.3007 H   0  0  0  0  0  0  0  0  0  0  0  0  # atno 8010 bound_to 7997
  139.6490  144.7127  151.2086 H   0  0  0  0  0  0  0  0  0  0  0  0  # atno 10167 bound_to 10162
  157.5619  131.1089  150.8523 H   0  0  0  0  0  0  0  0  0  0  0  0  # atno 10718 bound_to 10713
  152.9865  135.6107  154.3079 H   0  0  0  0  0  0  0  0  0  0  0  0  # atno 10763 bound_to 10752
  154.2796  135.2777  155.2705 H   0  0  0  0  0  0  0  0  0  0  0  0  # atno 10764 bound_to 10752
  154.5050  135.5856  153.6617 H   0  0  0  0  0  0  0  0  0  0  0  0  # atno 10765 bound_to 10752
  140.8354  134.2467  157.4836 H   0  0  0  0  0  0  0  0  0  0  0  0  # atno 11005 bound_to 11000
  145.6347  141.0297  143.1844 LP  0  0  0  0  0  0  0  0  0  0  0  0  # atno 17320 bound_to 7965
  144.7247  139.7914  143.7369 LP  0  0  0  0  0  0  0  0  0  0  0  0  # atno 17321 bound_to 7965
  140.7528  143.6182  150.8539 LP  0  0  0  0  0  0  0  0  0  0  0  0  # atno 17342 bound_to 10162
  139.9828  143.5932  152.2937 LP  0  0  0  0  0  0  0  0  0  0  0  0  # atno 17343 bound_to 10162
  156.9019  130.5249  149.5282 LP  0  0  0  0  0  0  0  0  0  0  0  0  # atno 17370 bound_to 10713
  156.0671  130.5712  150.9309 LP  0  0  0  0  0  0  0  0  0  0  0  0  # atno 17371 bound_to 10713
  139.8704  134.9608  156.4375 LP  0  0  0  0  0  0  0  0  0  0  0  0  # atno 17394 bound_to 11000
  140.8953  133.7818  155.9618 LP  0  0  0  0  0  0  0  0  0  0  0  0  # atno 17395 bound_to 11000

$$$$
