AV-unprocessed.smi:2579|AV-procd|sdf|10125|dock3
  -GOLD-   2272014143D 1   1.00000     0.00000
 Structure written by MMmdl.
 38 40  0  0  0  0  0  0  0  0  1 V2000
  153.1358  136.6880  160.0098 O   0  0  0  0  0  0  0  0  0  0  0  0
  153.6263  137.5337  161.0281 C   0  0  0  0  0  0  0  0  0  0  0  0
  154.1777  138.8289  160.4183 C   0  0  0  0  0  0  0  0  0  0  0  0
  153.1849  139.5039  159.6043 N   0  0  0  0  0  0  0  0  0  0  0  0
  152.7488  140.8220  159.5701 C   0  0  0  0  0  0  0  0  0  0  0  0
  153.2192  141.7824  160.3638 N   0  0  0  0  0  0  0  0  0  0  0  0
  152.4827  142.8810  159.9611 C   0  0  0  0  0  0  0  0  0  0  0  0
  152.5038  144.2178  160.4197 C   0  0  0  0  0  0  0  0  0  0  0  0
  151.6451  145.1815  159.8511 C   0  0  0  0  0  0  0  0  0  0  0  0
  150.7537  144.8237  158.8189 C   0  0  0  0  0  0  0  0  0  0  0  0
  150.7161  143.4979  158.3462 C   0  0  0  0  0  0  0  0  0  0  0  0
  151.5764  142.5396  158.9150 C   0  0  0  0  0  0  0  0  0  0  0  0
  151.7869  141.1827  158.6886 N   0  0  0  0  0  0  0  0  0  0  0  0
  151.0984  140.3481  157.7150 C   0  0  0  0  0  0  0  0  0  0  0  0
  151.9817  140.0522  156.4927 C   0  0  2  0  0  0  0  0  0  0  0  0
  151.2308  139.4057  155.3285 C   0  0  0  0  0  0  0  0  0  0  0  0
  152.3297  138.6215  154.6486 C   0  0  0  0  0  0  0  0  0  0  0  0
  153.1246  138.1148  155.8465 C   0  0  0  0  0  0  0  0  0  0  0  0
  153.0293  139.1423  156.8277 O   0  0  0  0  0  0  0  0  0  0  0  0
  152.5483  137.1858  159.4620 H   0  0  0  0  0  0  0  0  0  0  0  0
  152.7933  137.7677  161.6914 H   0  0  0  0  0  0  0  0  0  0  0  0
  154.3778  137.0166  161.6262 H   0  0  0  0  0  0  0  0  0  0  0  0
  154.5522  139.5019  161.1903 H   0  0  0  0  0  0  0  0  0  0  0  0
  155.0221  138.5910  159.7707 H   0  0  0  0  0  0  0  0  0  0  0  0
  152.7083  138.8883  158.9616 H   0  0  0  0  0  0  0  0  0  0  0  0
  153.1813  144.5016  161.2113 H   0  0  0  0  0  0  0  0  0  0  0  0
  151.6692  146.1999  160.2102 H   0  0  0  0  0  0  0  0  0  0  0  0
  150.0976  145.5676  158.3910 H   0  0  0  0  0  0  0  0  0  0  0  0
  150.0319  143.2200  157.5582 H   0  0  0  0  0  0  0  0  0  0  0  0
  150.8059  139.4183  158.2037 H   0  0  0  0  0  0  0  0  0  0  0  0
  150.1727  140.8378  157.4104 H   0  0  0  0  0  0  0  0  0  0  0  0
  152.4525  140.9721  156.1425 H   0  0  0  0  0  0  0  0  0  0  0  0
  150.4627  138.7228  155.6946 H   0  0  0  0  0  0  0  0  0  0  0  0
  150.7546  140.1345  154.6723 H   0  0  0  0  0  0  0  0  0  0  0  0
  151.9563  137.8182  154.0129 H   0  0  0  0  0  0  0  0  0  0  0  0
  152.9459  139.2852  154.0404 H   0  0  0  0  0  0  0  0  0  0  0  0
  152.6692  137.2089  156.2486 H   0  0  0  0  0  0  0  0  0  0  0  0
  154.1627  137.8928  155.5988 H   0  0  0  0  0  0  0  0  0  0  0  0
  1  2  1  0  0  0  0
  1 20  1  0  0  0  0
  2  3  1  0  0  0  0
  2 21  1  0  0  0  0
  2 22  1  0  0  0  0
  3  4  1  0  0  0  0
  3 23  1  0  0  0  0
  3 24  1  0  0  0  0
  4  5  1  0  0  0  0
  4 25  1  0  0  0  0
  5 13  1  0  0  0  0
  5  6  2  0  0  0  0
  6  7  1  0  0  0  0
  7 12  2  0  0  0  0
  7  8  1  0  0  0  0
  8  9  2  0  0  0  0
  8 26  1  0  0  0  0
  9 10  1  0  0  0  0
  9 27  1  0  0  0  0
 10 11  2  0  0  0  0
 10 28  1  0  0  0  0
 11 12  1  0  0  0  0
 11 29  1  0  0  0  0
 12 13  1  0  0  0  0
 13 14  1  0  0  0  0
 14 15  1  0  0  0  0
 14 30  1  0  0  0  0
 14 31  1  0  0  0  0
 15 19  1  0  0  0  0
 15 16  1  0  0  0  0
 15 32  1  0  0  0  0
 16 17  1  0  0  0  0
 16 33  1  0  0  0  0
 16 34  1  0  0  0  0
 17 18  1  0  0  0  0
 17 35  1  0  0  0  0
 17 36  1  0  0  0  0
 18 19  1  0  0  0  0
 18 37  1  0  0  0  0
 18 38  1  0  0  0  0
M  END
> <s_m_source_file>
AV-unprocessed.smi

> <i_m_source_file_index>
2579

> <i_lp_mmshare_version>
43012

> <i_f3d_flags>
0

> <s_epik_input>
W09IXVtDSDJdW0NIMl1bTkhdYyhuMSluKGMoYzEyKVtjSF1bY0hdW2NIXVtjSF0yKVtDSDJdW0NAQEhdM1tDSDJdW0NIMl1bQ0gyXU8z

> <s_epik_cmdline>
J2VwaWtfcHl0aG9uJywgJy1waCcsICc3LjAnLCAnLXRuJywgJzgnLCAnLW1hJywgJzIwMCcsICctbWV0YWxfYmluZGluZycsICctaW1hZScsICc8aW5maWxlLm1hZT4nLCAnLW9tYWUnLCAnPG91dGZpbGUubWFlPic=

> <r_epik_Ionization_Penalty>
1.27244

> <r_epik_Ionization_Penalty_Charging>
0

> <r_epik_Ionization_Penalty_Neutral>
1.27244

> <r_epik_State_Penalty>
1.34401

> <r_epik_Charging_Adjusted_Penalty>
1.34401

> <i_epik_Tot_Q>
0

> <i_epik_Tot_abs_Q>
0

> <r_epik_Metal_State_Penalty>
0.00511131

> <b_epik_Metal_Only>
0

> <s_lp_Force_Field>
OPLS_2005

> <r_lp_Energy>
20.4938

> <b_lp_Chiralities_Consistent>
1

> <s_lp_Variant>
AV-unprocessed.smi:2579-3

> <Gold.Version>
5.8.1

> <Gold.Id.Protein>
6NUR|6NUR_protein|mol2

> <Gold.PLP.Fitness>
46.9011

> <Gold.PLP.PLP>
-41.5408

> <Gold.PLP.part.hbond>
-2.0000

> <Gold.PLP.part.metal>
0.0000

> <Gold.PLP.part.buried>
-6.8245

> <Gold.PLP.part.nonpolar>
-33.5832

> <Gold.PLP.part.repulsive>
0.0876

> <Gold.PLP.ligand.clash>
0.0000

> <Gold.PLP.ligand.torsion>
0.3317

> <Gold.PLP.Chemscore.Hbond>
2.0000

> <Gold.PLP.Chemscore.CHOScore>
0.0000

> <Gold.PLP.Chemscore.Metal>
0.0000

> <Gold.Chemscore.Hbonds>
donor molecule, donor type, donor heavy atom, donor atom, acceptor molecule, acceptor atom, score
      P1  H  6896  6907       L1     1  1.00
      P1  H  7997  8009       L1    19  1.00

> <Gold.PLP.Chemscore.Internal.Correction>
0.0237

> <Gold.Rescore>
     Score         DG    S(hbond)    S(metal)    S(lipo)     H(rot)  DE(clash)    DE(int)     intcor
     16.70     -18.56       1.74        0.00     109.68       2.17       0.19       1.67       ----

> <Gold.Chemscore.Fitness>
16.7027

> <Gold.Chemscore.DG>
-18.5603

> <Gold.Chemscore.ZeroCoef>
-5.4800

> <Gold.Chemscore.Hbond>
1.7367

> <Gold.Chemscore.Metal>
0.0000

> <Gold.Chemscore.Lipo>
109.6752

> <Gold.Chemscore.Internal_Hbond>
0.0000

> <Gold.Chemscore.DEClash>
0.1866

> <Gold.Chemscore.DEInternal>
1.6711

> <Gold.Chemscore.Rot>
2.1688

> <Gold.Chemscore.Internal.Correction>
   9.000000E+99

> <Gold.Chemscore.Hbonds>
donor molecule, donor type, donor heavy atom, donor atom, acceptor molecule, acceptor atom, score
      P1  H  6896  6907       L1     1  0.25
      P1  H  7997  8009       L1    19  0.13

> <Gold.Chemscore.Hbond.Weighted>
-5.8005

> <Gold.Chemscore.Metal.Weighted>
-0.0000

> <Gold.Chemscore.Lipo.Weighted>
-12.8320

> <Gold.Chemscore.Internal_Hbond.Weighted>
0.0000

> <Gold.Chemscore.DEClash.Weighted>
0.1866

> <Gold.Chemscore.DEInternal.Weighted>
1.6711

> <Gold.Chemscore.Rot.Weighted>
5.5522

> <Gold.Chemscore.Internal.Correction.Weighted>
   9.000000E+99

> <Gold.Protein.RotatedTorsions>
[ 6907 6896 6895 6894 ] final   38.21 input  -60.11 | X-H torsion
[ 7974 7965 7964 7962 ] final   10.14 input  175.53 | X-H torsion
[ 8008 7997 7996 7995 ] final -173.92 input   59.86 | X-H torsion
[ 10167 10162 10161 10158 ] final  108.78 input  -65.29 | X-H torsion
[ 10718 10713 10712 10709 ] final   36.54 input   66.30 | X-H torsion
[ 10763 10752 10751 10750 ] final  156.29 input  -60.55 | X-H torsion
[ 11005 11000 10999 10996 ] final  -41.45 input  -57.11 | X-H torsion

> <Gold.Protein.ActiveResidues>
 VAL166  LYS551  ARG553  GLY616  TRP617  ASP618  TYR619  PRO620  LYS621  CYS622 
 ASP623  PHE694  ASN695  SER759  ASP760  ASP761  ALA762  ILE779  LEU786  VAL792 
 PHE793  MET794  SER795  GLU796  ALA797  LYS798  CYS799  TRP800  GLU811  SER814 

> <Gold.Protein.RotatedAtoms>
  152.1534  134.8970  160.0546 H   0  0  0  0  0  0  0  0  0  0  0  0  # atno 6907 bound_to 6896
  151.9993  133.3814  159.4183 H   0  0  0  0  0  0  0  0  0  0  0  0  # atno 6908 bound_to 6896
  150.6878  134.3774  159.5062 H   0  0  0  0  0  0  0  0  0  0  0  0  # atno 6909 bound_to 6896
  146.2393  139.9679  142.8450 H   0  0  0  0  0  0  0  0  0  0  0  0  # atno 7974 bound_to 7965
  155.9635  140.1149  157.0875 H   0  0  0  0  0  0  0  0  0  0  0  0  # atno 8008 bound_to 7997
  154.4138  140.1177  156.5278 H   0  0  0  0  0  0  0  0  0  0  0  0  # atno 8009 bound_to 7997
  155.6689  140.3473  155.4813 H   0  0  0  0  0  0  0  0  0  0  0  0  # atno 8010 bound_to 7997
  139.6819  144.7117  151.1501 H   0  0  0  0  0  0  0  0  0  0  0  0  # atno 10167 bound_to 10162
  157.3361  130.7523  149.6880 H   0  0  0  0  0  0  0  0  0  0  0  0  # atno 10718 bound_to 10713
  154.1821  135.2799  155.3049 H   0  0  0  0  0  0  0  0  0  0  0  0  # atno 10763 bound_to 10752
  154.5995  135.5534  153.7363 H   0  0  0  0  0  0  0  0  0  0  0  0  # atno 10764 bound_to 10752
  153.0135  135.6388  154.1960 H   0  0  0  0  0  0  0  0  0  0  0  0  # atno 10765 bound_to 10752
  141.0246  133.6847  156.2459 H   0  0  0  0  0  0  0  0  0  0  0  0  # atno 11005 bound_to 11000
  145.1709  140.9720  143.4322 LP  0  0  0  0  0  0  0  0  0  0  0  0  # atno 17320 bound_to 7965
  145.0029  139.3581  143.6158 LP  0  0  0  0  0  0  0  0  0  0  0  0  # atno 17321 bound_to 7965
  140.7655  143.5687  150.9020 LP  0  0  0  0  0  0  0  0  0  0  0  0  # atno 17342 bound_to 10162
  139.9359  143.6438  152.3065 LP  0  0  0  0  0  0  0  0  0  0  0  0  # atno 17343 bound_to 10162
  155.9701  130.4181  150.4311 LP  0  0  0  0  0  0  0  0  0  0  0  0  # atno 17370 bound_to 10713
  157.2351  131.0513  151.2469 LP  0  0  0  0  0  0  0  0  0  0  0  0  # atno 17371 bound_to 10713
  140.6513  134.5064  157.5577 LP  0  0  0  0  0  0  0  0  0  0  0  0  # atno 17394 bound_to 11000
  139.9168  134.8230  156.1340 LP  0  0  0  0  0  0  0  0  0  0  0  0  # atno 17395 bound_to 11000

$$$$
