AV-unprocessed.smi:283|AV-procd|sdf|2133|dock7
  -GOLD-   2262021453D 1   1.00000     0.00000
 Structure written by MMmdl.
 48 51  0  0  0  0  0  0  0  0  1 V2000
  149.5449  141.3927  157.0368 C   0  0  0  0  0  0  0  0  0  0  0  0
  150.9975  141.7983  156.7534 C   0  0  2  0  0  0  0  0  0  0  0  0
  151.7922  140.6124  156.4377 N   0  0  0  0  0  0  0  0  0  0  0  0
  151.2246  139.5219  155.8747 C   0  0  0  0  0  0  0  0  0  0  0  0
  150.8988  139.4996  154.5559 N   0  0  0  0  0  0  0  0  0  0  0  0
  150.3347  138.4104  154.0265 C   0  0  0  0  0  0  0  0  0  0  0  0
  150.0143  137.2628  154.6266 N   0  0  0  0  0  0  0  0  0  0  0  0
  150.3344  137.2795  155.9528 C   0  0  0  0  0  0  0  0  0  0  0  0
  150.9395  138.3654  156.6456 C   0  0  0  0  0  0  0  0  0  0  0  0
  151.1228  138.0301  157.9804 N   0  0  0  0  0  0  0  0  0  0  0  0
  150.6501  136.8160  158.0677 C   0  0  0  0  0  0  0  0  0  0  0  0
  150.1526  136.2875  156.8971 N   0  0  0  0  0  0  0  0  0  0  0  0
  149.5381  134.9378  156.7042 C   0  0  2  0  0  0  0  0  0  0  0  0
  150.1457  134.3225  155.6090 O   0  0  0  0  0  0  0  0  0  0  0  0
  149.1450  133.6741  154.8410 C   0  0  2  0  0  0  0  0  0  0  0  0
  149.6291  133.2502  153.4379 C   0  0  0  0  0  0  0  0  0  0  0  0
  148.6167  132.6801  152.6352 O   0  0  0  0  0  0  0  0  0  0  0  0
  147.8776  134.5279  155.0006 C   0  0  2  0  0  0  0  0  0  0  0  0
  147.8092  135.6062  154.0891 O   0  0  0  0  0  0  0  0  0  0  0  0
  148.0255  135.0645  156.4220 C   0  0  1  0  0  0  0  0  0  0  0  0
  147.2753  134.2636  157.3139 O   0  0  0  0  0  0  0  0  0  0  0  0
  151.5509  142.6429  157.9036 C   0  0  0  0  0  0  0  0  0  0  0  0
  151.3607  144.0445  157.9026 C   0  0  0  0  0  0  0  0  0  0  0  0
  151.8667  144.8387  158.9485 C   0  0  0  0  0  0  0  0  0  0  0  0
  152.5763  144.2404  160.0050 C   0  0  0  0  0  0  0  0  0  0  0  0
  152.7810  142.8484  160.0112 C   0  0  0  0  0  0  0  0  0  0  0  0
  152.2752  142.0480  158.9673 C   0  0  0  0  0  0  0  0  0  0  0  0
  152.5681  140.3448  159.0211 Cl  0  0  0  0  0  0  0  0  0  0  0  0
  149.7692  134.3967  157.6230 H   0  0  0  0  0  0  0  0  0  0  0  0
  148.9526  132.7437  155.3791 H   0  0  0  0  0  0  0  0  0  0  0  0
  146.9764  133.9278  154.8668 H   0  0  0  0  0  0  0  0  0  0  0  0
  147.6897  136.0989  156.5180 H   0  0  0  0  0  0  0  0  0  0  0  0
  148.9165  142.2701  157.1925 H   0  0  0  0  0  0  0  0  0  0  0  0
  149.4729  140.7695  157.9289 H   0  0  0  0  0  0  0  0  0  0  0  0
  149.1229  140.8315  156.2025 H   0  0  0  0  0  0  0  0  0  0  0  0
  150.9903  142.4032  155.8472 H   0  0  0  0  0  0  0  0  0  0  0  0
  152.7919  140.7181  156.5326 H   0  0  0  0  0  0  0  0  0  0  0  0
  150.1066  138.4658  152.9724 H   0  0  0  0  0  0  0  0  0  0  0  0
  150.6457  136.2692  158.9994 H   0  0  0  0  0  0  0  0  0  0  0  0
  150.0510  134.1085  152.9142 H   0  0  0  0  0  0  0  0  0  0  0  0
  150.4293  132.5161  153.5351 H   0  0  0  0  0  0  0  0  0  0  0  0
  149.0255  132.1978  151.9328 H   0  0  0  0  0  0  0  0  0  0  0  0
  148.3505  135.4012  153.3418 H   0  0  0  0  0  0  0  0  0  0  0  0
  146.6270  134.8087  157.7328 H   0  0  0  0  0  0  0  0  0  0  0  0
  150.8231  144.5214  157.0963 H   0  0  0  0  0  0  0  0  0  0  0  0
  151.7112  145.9074  158.9389 H   0  0  0  0  0  0  0  0  0  0  0  0
  152.9662  144.8485  160.8079 H   0  0  0  0  0  0  0  0  0  0  0  0
  153.3310  142.3927  160.8216 H   0  0  0  0  0  0  0  0  0  0  0  0
  1  2  1  0  0  0  0
  1 33  1  0  0  0  0
  1 34  1  0  0  0  0
  1 35  1  0  0  0  0
  2  3  1  0  0  0  0
  2 22  1  0  0  0  0
  2 36  1  0  0  0  0
  3  4  1  0  0  0  0
  3 37  1  0  0  0  0
  4  9  1  0  0  0  0
  4  5  2  0  0  0  0
  5  6  1  0  0  0  0
  6  7  2  0  0  0  0
  6 38  1  0  0  0  0
  7  8  1  0  0  0  0
  8 12  1  0  0  0  0
  8  9  2  0  0  0  0
  9 10  1  0  0  0  0
 10 11  2  0  0  0  0
 11 12  1  0  0  0  0
 11 39  1  0  0  0  0
 12 13  1  0  0  0  0
 13 29  1  0  0  0  0
 13 20  1  0  0  0  0
 13 14  1  0  0  0  0
 14 15  1  0  0  0  0
 15 30  1  0  0  0  0
 15 16  1  0  0  0  0
 15 18  1  0  0  0  0
 16 17  1  0  0  0  0
 16 40  1  0  0  0  0
 16 41  1  0  0  0  0
 17 42  1  0  0  0  0
 18 31  1  0  0  0  0
 18 19  1  0  0  0  0
 18 20  1  0  0  0  0
 19 43  1  0  0  0  0
 20 32  1  0  0  0  0
 20 21  1  0  0  0  0
 21 44  1  0  0  0  0
 22 27  1  0  0  0  0
 22 23  2  0  0  0  0
 23 24  1  0  0  0  0
 23 45  1  0  0  0  0
 24 25  2  0  0  0  0
 24 46  1  0  0  0  0
 25 26  1  0  0  0  0
 25 47  1  0  0  0  0
 26 27  2  0  0  0  0
 26 48  1  0  0  0  0
 27 28  1  0  0  0  0
M  END
> <s_m_source_file>
AV-unprocessed.smi

> <i_m_source_file_index>
283

> <i_lp_mmshare_version>
43012

> <i_f3d_flags>
0

> <s_epik_input>
Q2xjMVtjSF1bY0hdW2NIXVtjSF1jMVtDQEhdKFtDSDNdKVtOSF1jKG5bY0hdbjIpYyhjMjMpbltjSF1uM1tDQEBIXTRPW0NASF0oW0NIMl1bT0hdKVtDQEBIXShbT0hdKVtDQEhdNFtPSF0=

> <s_epik_cmdline>
J2VwaWtfcHl0aG9uJywgJy1waCcsICc3LjAnLCAnLXRuJywgJzgnLCAnLW1hJywgJzIwMCcsICctbWV0YWxfYmluZGluZycsICctaW1hZScsICc8aW5maWxlLm1hZT4nLCAnLW9tYWUnLCAnPG91dGZpbGUubWFlPic=

> <r_lp_tautomer_probability>
1

> <r_epik_Ionization_Penalty>
0.000266407

> <r_epik_Ionization_Penalty_Charging>
0

> <r_epik_Ionization_Penalty_Neutral>
0.000266407

> <r_epik_State_Penalty>
-0

> <r_epik_Charging_Adjusted_Penalty>
0

> <i_epik_Tot_Q>
0

> <i_epik_Tot_abs_Q>
0

> <r_epik_Metal_State_Penalty>
-0

> <b_epik_Metal_Only>
0

> <s_epik_Chemistry_Notes>
This compound contains an acetal/aminal-like group ( X-CH(R)-Y where X, Y are N, S, or O) that may be acid/base labile, releasing an aldehyde.

> <s_lp_Force_Field>
OPLS_2005

> <r_lp_Energy>
46.8878

> <b_lp_Chiralities_Consistent>
1

> <s_lp_Variant>
AV-unprocessed.smi:283-9

> <Gold.Version>
5.8.1

> <Gold.Id.Protein>
6NUR|6NUR_protein|mol2

> <Gold.PLP.Fitness>
50.4528

> <Gold.PLP.PLP>
-42.6187

> <Gold.PLP.part.hbond>
-2.9268

> <Gold.PLP.part.metal>
0.0000

> <Gold.PLP.part.buried>
-7.6501

> <Gold.PLP.part.nonpolar>
-33.3265

> <Gold.PLP.part.repulsive>
0.8583

> <Gold.PLP.ligand.clash>
0.0000

> <Gold.PLP.ligand.torsion>
2.0098

> <Gold.PLP.Chemscore.Hbond>
2.4993

> <Gold.PLP.Chemscore.CHOScore>
1.4290

> <Gold.PLP.Chemscore.Metal>
0.0000

> <Gold.Chemscore.Hbonds>
donor molecule, donor type, donor heavy atom, donor atom, acceptor molecule, acceptor atom, score
      L1  H    17    42       P1 10747  0.81
      L1  H    19    43       P1  7948  0.78
      P1  H  7989  7998       L1     5  1.00
      L1  C     6    38       P1  7948  0.43
      L1  C     6    38       P1  7957  1.00

> <Gold.PLP.Chemscore.Internal.Correction>
0.0691

> <Gold.Rescore>
     Score         DG    S(hbond)    S(metal)    S(lipo)     H(rot)  DE(clash)    DE(int)     intcor
     11.70     -15.36       2.35        0.00     107.09       4.10       0.17       3.49       ----

> <Gold.Chemscore.Fitness>
11.7032

> <Gold.Chemscore.DG>
-15.3625

> <Gold.Chemscore.ZeroCoef>
-5.4800

> <Gold.Chemscore.Hbond>
2.3474

> <Gold.Chemscore.Metal>
0.0000

> <Gold.Chemscore.Lipo>
107.0939

> <Gold.Chemscore.Internal_Hbond>
0.0000

> <Gold.Chemscore.DEClash>
0.1675

> <Gold.Chemscore.DEInternal>
3.4918

> <Gold.Chemscore.Rot>
4.0968

> <Gold.Chemscore.Internal.Correction>
   9.000000E+99

> <Gold.Chemscore.Hbonds>
donor molecule, donor type, donor heavy atom, donor atom, acceptor molecule, acceptor atom, score
      L1  H    17    42       P1 10747  0.67
      L1  H    19    43       P1  7948  0.77
      P1  H  7989  7998       L1     5  0.93

> <Gold.Chemscore.Hbond.Weighted>
-7.8404

> <Gold.Chemscore.Metal.Weighted>
-0.0000

> <Gold.Chemscore.Lipo.Weighted>
-12.5300

> <Gold.Chemscore.Internal_Hbond.Weighted>
0.0000

> <Gold.Chemscore.DEClash.Weighted>
0.1675

> <Gold.Chemscore.DEInternal.Weighted>
3.4918

> <Gold.Chemscore.Rot.Weighted>
10.4879

> <Gold.Chemscore.Internal.Correction.Weighted>
   9.000000E+99

> <Gold.Protein.RotatedTorsions>
[ 6907 6896 6895 6894 ] final  106.61 input  -60.11 | X-H torsion
[ 7974 7965 7964 7962 ] final   97.16 input  175.53 | X-H torsion
[ 8008 7997 7996 7995 ] final  -83.81 input   59.86 | X-H torsion
[ 10167 10162 10161 10158 ] final -174.60 input  -65.29 | X-H torsion
[ 10718 10713 10712 10709 ] final  105.60 input   66.30 | X-H torsion
[ 10763 10752 10751 10750 ] final -117.61 input  -60.55 | X-H torsion
[ 11005 11000 10999 10996 ] final -131.27 input  -57.11 | X-H torsion

> <Gold.Protein.ActiveResidues>
 VAL166  LYS551  ARG553  GLY616  TRP617  ASP618  TYR619  PRO620  LYS621  CYS622 
 ASP623  PHE694  ASN695  SER759  ASP760  ASP761  ALA762  ILE779  LEU786  VAL792 
 PHE793  MET794  SER795  GLU796  ALA797  LYS798  CYS799  TRP800  GLU811  SER814 

> <Gold.Protein.RotatedAtoms>
  152.5187  133.9355  159.7601 H   0  0  0  0  0  0  0  0  0  0  0  0  # atno 6907 bound_to 6896
  150.9696  133.6349  159.2747 H   0  0  0  0  0  0  0  0  0  0  0  0  # atno 6908 bound_to 6896
  151.3565  135.0901  159.9473 H   0  0  0  0  0  0  0  0  0  0  0  0  # atno 6909 bound_to 6896
  145.4292  139.2312  143.3153 H   0  0  0  0  0  0  0  0  0  0  0  0  # atno 7974 bound_to 7965
  154.6231  140.0613  156.9639 H   0  0  0  0  0  0  0  0  0  0  0  0  # atno 8008 bound_to 7997
  155.1786  140.3297  155.4361 H   0  0  0  0  0  0  0  0  0  0  0  0  # atno 8009 bound_to 7997
  156.2442  140.1901  156.6884 H   0  0  0  0  0  0  0  0  0  0  0  0  # atno 8010 bound_to 7997
  139.5625  144.1834  152.1261 H   0  0  0  0  0  0  0  0  0  0  0  0  # atno 10167 bound_to 10162
  157.6699  131.0831  150.5881 H   0  0  0  0  0  0  0  0  0  0  0  0  # atno 10718 bound_to 10713
  154.8560  135.4303  154.2007 H   0  0  0  0  0  0  0  0  0  0  0  0  # atno 10763 bound_to 10752
  153.3054  135.6972  153.7170 H   0  0  0  0  0  0  0  0  0  0  0  0  # atno 10764 bound_to 10752
  153.6284  135.3489  155.3008 H   0  0  0  0  0  0  0  0  0  0  0  0  # atno 10765 bound_to 10752
  140.9273  134.1365  157.4264 H   0  0  0  0  0  0  0  0  0  0  0  0  # atno 11005 bound_to 11000
  146.2616  140.5026  142.8851 LP  0  0  0  0  0  0  0  0  0  0  0  0  # atno 17320 bound_to 7965
  144.8194  140.6524  143.6363 LP  0  0  0  0  0  0  0  0  0  0  0  0  # atno 17321 bound_to 7965
  140.1351  144.5253  150.6778 LP  0  0  0  0  0  0  0  0  0  0  0  0  # atno 17342 bound_to 10162
  140.6906  143.2374  151.5140 LP  0  0  0  0  0  0  0  0  0  0  0  0  # atno 17343 bound_to 10162
  156.6181  130.4398  149.5832 LP  0  0  0  0  0  0  0  0  0  0  0  0  # atno 17370 bound_to 10713
  156.2377  130.6832  151.1525 LP  0  0  0  0  0  0  0  0  0  0  0  0  # atno 17371 bound_to 10713
  139.8788  134.9993  156.5945 LP  0  0  0  0  0  0  0  0  0  0  0  0  # atno 17394 bound_to 11000
  140.7909  133.8583  155.8645 LP  0  0  0  0  0  0  0  0  0  0  0  0  # atno 17395 bound_to 11000

$$$$
