AV-unprocessed.smi:632|AV-procd|sdf|3126|dock7
  -GOLD-   22720 0 53D 1   1.00000     0.00000
 Structure written by MMmdl.
 42 43  0  0  0  0  0  0  0  0  1 V2000
  151.5320  130.8451  157.9705 C   0  0  0  0  0  0  0  0  0  0  0  0
  152.3698  131.5548  156.8889 C   0  0  0  0  0  0  0  0  0  0  0  0
  153.4893  132.3390  157.6078 C   0  0  0  0  0  0  0  0  0  0  0  0
  153.0470  130.5243  155.9646 C   0  0  0  0  0  0  0  0  0  0  0  0
  151.4864  132.4717  156.0745 C   0  0  0  0  0  0  0  0  0  0  0  0
  151.6188  133.8062  156.1191 N   0  0  0  0  0  0  0  0  0  0  0  0
  150.7157  134.4650  155.2984 N   0  0  0  0  0  0  0  0  0  0  0  0
  149.9149  133.6112  154.6488 C   0  0  0  0  0  0  0  0  0  0  0  0
  148.9000  134.0159  153.7414 N   0  0  0  0  0  0  0  0  0  0  0  0
  147.7955  133.3422  153.3740 C   0  0  0  0  0  0  0  0  0  0  0  0
  147.4836  132.2182  153.7679 O   0  0  0  0  0  0  0  0  0  0  0  0
  147.0592  134.0515  152.5058 N   0  0  0  0  0  0  0  0  0  0  0  0
  145.8018  133.6074  151.9109 C   0  0  2  0  0  0  0  0  0  0  0  0
  145.9210  132.1540  151.4058 C   0  0  0  0  0  0  0  0  0  0  0  0
  144.6286  131.6930  150.7125 C   0  0  0  0  0  0  0  0  0  0  0  0
  144.2414  132.6458  149.5686 C   0  0  1  0  0  0  0  0  0  0  0  0
  143.0142  132.2323  149.0060 O   0  0  0  0  0  0  0  0  0  0  0  0
  144.1132  134.0929  150.0747 C   0  0  0  0  0  0  0  0  0  0  0  0
  145.4081  134.5548  150.7622 C   0  0  0  0  0  0  0  0  0  0  0  0
  150.2048  131.9159  154.9903 S   0  0  0  0  0  0  0  0  0  0  0  0
  152.1482  130.1861  158.5830 H   0  0  0  0  0  0  0  0  0  0  0  0
  150.7447  130.2328  157.5294 H   0  0  0  0  0  0  0  0  0  0  0  0
  151.0539  131.5635  158.6376 H   0  0  0  0  0  0  0  0  0  0  0  0
  153.0838  133.0822  158.2954 H   0  0  0  0  0  0  0  0  0  0  0  0
  154.1368  132.8574  156.8996 H   0  0  0  0  0  0  0  0  0  0  0  0
  154.1245  131.6740  158.1942 H   0  0  0  0  0  0  0  0  0  0  0  0
  153.7045  129.8585  156.5250 H   0  0  0  0  0  0  0  0  0  0  0  0
  153.6491  131.0139  155.1984 H   0  0  0  0  0  0  0  0  0  0  0  0
  152.3125  129.8995  155.4551 H   0  0  0  0  0  0  0  0  0  0  0  0
  149.0293  134.9262  153.3253 H   0  0  0  0  0  0  0  0  0  0  0  0
  147.3895  134.9669  152.2378 H   0  0  0  0  0  0  0  0  0  0  0  0
  145.0159  133.6533  152.6675 H   0  0  0  0  0  0  0  0  0  0  0  0
  146.7551  132.0724  150.7072 H   0  0  0  0  0  0  0  0  0  0  0  0
  146.1473  131.4831  152.2354 H   0  0  0  0  0  0  0  0  0  0  0  0
  144.7565  130.6797  150.3299 H   0  0  0  0  0  0  0  0  0  0  0  0
  143.8225  131.6476  151.4464 H   0  0  0  0  0  0  0  0  0  0  0  0
  145.0016  132.6002  148.7878 H   0  0  0  0  0  0  0  0  0  0  0  0
  142.3679  132.9024  149.1682 H   0  0  0  0  0  0  0  0  0  0  0  0
  143.8778  134.7617  149.2460 H   0  0  0  0  0  0  0  0  0  0  0  0
  143.2835  134.1681  150.7795 H   0  0  0  0  0  0  0  0  0  0  0  0
  145.2795  135.5695  151.1409 H   0  0  0  0  0  0  0  0  0  0  0  0
  146.2118  134.5988  150.0255 H   0  0  0  0  0  0  0  0  0  0  0  0
  1  2  1  0  0  0  0
  1 21  1  0  0  0  0
  1 22  1  0  0  0  0
  1 23  1  0  0  0  0
  2  3  1  0  0  0  0
  2  4  1  0  0  0  0
  2  5  1  0  0  0  0
  3 24  1  0  0  0  0
  3 25  1  0  0  0  0
  3 26  1  0  0  0  0
  4 27  1  0  0  0  0
  4 28  1  0  0  0  0
  4 29  1  0  0  0  0
  5 20  1  0  0  0  0
  5  6  2  0  0  0  0
  6  7  1  0  0  0  0
  7  8  2  0  0  0  0
  8  9  1  0  0  0  0
  8 20  1  0  0  0  0
  9 10  1  0  0  0  0
  9 30  1  0  0  0  0
 10 11  2  0  0  0  0
 10 12  1  0  0  0  0
 12 13  1  0  0  0  0
 12 31  1  0  0  0  0
 13 19  1  0  0  0  0
 13 14  1  0  0  0  0
 13 32  1  0  0  0  0
 14 15  1  0  0  0  0
 14 33  1  0  0  0  0
 14 34  1  0  0  0  0
 15 16  1  0  0  0  0
 15 35  1  0  0  0  0
 15 36  1  0  0  0  0
 16 17  1  0  0  0  0
 16 18  1  0  0  0  0
 16 37  1  0  0  0  0
 17 38  1  0  0  0  0
 18 19  1  0  0  0  0
 18 39  1  0  0  0  0
 18 40  1  0  0  0  0
 19 41  1  0  0  0  0
 19 42  1  0  0  0  0
M  END
> <s_m_source_file>
AV-unprocessed.smi

> <i_m_source_file_index>
632

> <i_lp_mmshare_version>
43012

> <i_f3d_flags>
0

> <s_epik_input>
W0NIM11DKFtDSDNdKShbQ0gzXSljMW5uYyhzMSlbTkhdQyg9TylbTkhdW0NAQEhdMltDSDJdW0NIMl1bQ0BASF0oW09IXSlbQ0gyXVtDSDJdMg==

> <s_epik_cmdline>
J2VwaWtfcHl0aG9uJywgJy1waCcsICc3LjAnLCAnLXRuJywgJzgnLCAnLW1hJywgJzIwMCcsICctbWV0YWxfYmluZGluZycsICctaW1hZScsICc8aW5maWxlLm1hZT4nLCAnLW9tYWUnLCAnPG91dGZpbGUubWFlPic=

> <r_lp_tautomer_probability>
1

> <r_epik_Ionization_Penalty>
0.000349475

> <r_epik_Ionization_Penalty_Charging>
0

> <r_epik_Ionization_Penalty_Neutral>
0.000349475

> <r_epik_State_Penalty>
-0

> <r_epik_Charging_Adjusted_Penalty>
0

> <i_epik_Tot_Q>
0

> <i_epik_Tot_abs_Q>
0

> <r_epik_Metal_State_Penalty>
0.179207

> <b_epik_Metal_Only>
0

> <s_lp_Force_Field>
OPLS_2005

> <r_lp_Energy>
2.50478

> <b_lp_Chiralities_Consistent>
1

> <s_lp_Variant>
AV-unprocessed.smi:632-1

> <Gold.Version>
5.8.1

> <Gold.Id.Protein>
6NUR|6NUR_protein|mol2

> <Gold.PLP.Fitness>
43.1464

> <Gold.PLP.PLP>
-33.1695

> <Gold.PLP.part.hbond>
-5.0332

> <Gold.PLP.part.metal>
0.0000

> <Gold.PLP.part.buried>
-3.3438

> <Gold.PLP.part.nonpolar>
-25.0315

> <Gold.PLP.part.repulsive>
0.1501

> <Gold.PLP.ligand.clash>
0.0000

> <Gold.PLP.ligand.torsion>
0.3823

> <Gold.PLP.Chemscore.Hbond>
3.5779

> <Gold.PLP.Chemscore.CHOScore>
0.0000

> <Gold.PLP.Chemscore.Metal>
0.0000

> <Gold.Chemscore.Hbonds>
donor molecule, donor type, donor heavy atom, donor atom, acceptor molecule, acceptor atom, score
      L1  H     9    30       P1  7948  0.90
      L1  H    12    31       P1  7948  0.98
      L1  H    17    38       P1 10186  0.91
      P1  H 10785 10796       L1    17  0.80

> <Gold.PLP.Chemscore.Internal.Correction>
0.0077

> <Gold.Rescore>
     Score         DG    S(hbond)    S(metal)    S(lipo)     H(rot)  DE(clash)    DE(int)     intcor
     15.36     -18.62       2.67        0.00      73.29       1.70       0.31       2.96       ----

> <Gold.Chemscore.Fitness>
15.3552

> <Gold.Chemscore.DG>
-18.6206

> <Gold.Chemscore.ZeroCoef>
-5.4800

> <Gold.Chemscore.Hbond>
2.6675

> <Gold.Chemscore.Metal>
0.0000

> <Gold.Chemscore.Lipo>
73.2899

> <Gold.Chemscore.Internal_Hbond>
0.0000

> <Gold.Chemscore.DEClash>
0.3063

> <Gold.Chemscore.DEInternal>
2.9591

> <Gold.Chemscore.Rot>
1.6968

> <Gold.Chemscore.Internal.Correction>
   9.000000E+99

> <Gold.Chemscore.Hbonds>
donor molecule, donor type, donor heavy atom, donor atom, acceptor molecule, acceptor atom, score
      L1  H     9    30       P1  7948  0.17
      L1  H    12    31       P1  7948  0.85
      L1  H    17    38       P1 10186  0.89
      P1  H 10785 10796       L1    17  0.42

> <Gold.Chemscore.Hbond.Weighted>
-8.9095

> <Gold.Chemscore.Metal.Weighted>
-0.0000

> <Gold.Chemscore.Lipo.Weighted>
-8.5749

> <Gold.Chemscore.Internal_Hbond.Weighted>
0.0000

> <Gold.Chemscore.DEClash.Weighted>
0.3063

> <Gold.Chemscore.DEInternal.Weighted>
2.9591

> <Gold.Chemscore.Rot.Weighted>
4.3438

> <Gold.Chemscore.Internal.Correction.Weighted>
   9.000000E+99

> <Gold.Protein.RotatedTorsions>
[ 6907 6896 6895 6894 ] final  158.32 input  -60.11 | X-H torsion
[ 7974 7965 7964 7962 ] final    6.75 input  175.53 | X-H torsion
[ 8008 7997 7996 7995 ] final   14.88 input   59.86 | X-H torsion
[ 10167 10162 10161 10158 ] final  -49.25 input  -65.29 | X-H torsion
[ 10718 10713 10712 10709 ] final   45.07 input   66.30 | X-H torsion
[ 10763 10752 10751 10750 ] final  -19.01 input  -60.55 | X-H torsion
[ 11005 11000 10999 10996 ] final  113.61 input  -57.11 | X-H torsion

> <Gold.Protein.ActiveResidues>
 VAL166  LYS551  ARG553  GLY616  TRP617  ASP618  TYR619  PRO620  LYS621  CYS622 
 ASP623  PHE694  ASN695  SER759  ASP760  ASP761  ALA762  ILE779  LEU786  VAL792 
 PHE793  MET794  SER795  GLU796  ALA797  LYS798  CYS799  TRP800  GLU811  SER814 

> <Gold.Protein.RotatedAtoms>
  152.0021  133.3829  159.4185 H   0  0  0  0  0  0  0  0  0  0  0  0  # atno 6907 bound_to 6896
  150.6909  134.3823  159.5048 H   0  0  0  0  0  0  0  0  0  0  0  0  # atno 6908 bound_to 6896
  152.1571  134.8941  160.0595 H   0  0  0  0  0  0  0  0  0  0  0  0  # atno 6909 bound_to 6896
  146.2432  140.0186  142.8400 H   0  0  0  0  0  0  0  0  0  0  0  0  # atno 7974 bound_to 7965
  154.8548  140.2935  155.5576 H   0  0  0  0  0  0  0  0  0  0  0  0  # atno 8008 bound_to 7997
  156.3018  140.2489  156.3445 H   0  0  0  0  0  0  0  0  0  0  0  0  # atno 8009 bound_to 7997
  154.8982  140.0392  157.1867 H   0  0  0  0  0  0  0  0  0  0  0  0  # atno 8010 bound_to 7997
  140.6694  143.2706  151.4187 H   0  0  0  0  0  0  0  0  0  0  0  0  # atno 10167 bound_to 10162
  157.4336  130.8039  149.7626 H   0  0  0  0  0  0  0  0  0  0  0  0  # atno 10718 bound_to 10713
  153.5982  135.7000  153.5395 H   0  0  0  0  0  0  0  0  0  0  0  0  # atno 10763 bound_to 10752
  153.3120  135.4098  155.1343 H   0  0  0  0  0  0  0  0  0  0  0  0  # atno 10764 bound_to 10752
  154.8588  135.3674  154.5516 H   0  0  0  0  0  0  0  0  0  0  0  0  # atno 10765 bound_to 10752
  139.8957  134.9553  156.6765 H   0  0  0  0  0  0  0  0  0  0  0  0  # atno 11005 bound_to 11000
  145.1261  140.9491  143.4571 LP  0  0  0  0  0  0  0  0  0  0  0  0  # atno 17320 bound_to 7965
  145.0433  139.3242  143.5966 LP  0  0  0  0  0  0  0  0  0  0  0  0  # atno 17321 bound_to 7965
  139.5956  144.1406  152.2139 LP  0  0  0  0  0  0  0  0  0  0  0  0  # atno 17342 bound_to 10162
  140.0773  144.5729  150.7147 LP  0  0  0  0  0  0  0  0  0  0  0  0  # atno 17343 bound_to 10162
  155.9922  130.3932  150.2952 LP  0  0  0  0  0  0  0  0  0  0  0  0  # atno 17370 bound_to 10713
  157.1111  131.0221  151.3048 LP  0  0  0  0  0  0  0  0  0  0  0  0  # atno 17371 bound_to 10713
  140.7333  133.9040  155.8226 LP  0  0  0  0  0  0  0  0  0  0  0  0  # atno 17394 bound_to 11000
  141.0136  134.0986  157.4195 LP  0  0  0  0  0  0  0  0  0  0  0  0  # atno 17395 bound_to 11000

$$$$
