AV-unprocessed.smi:35|AV-procd|sdf|272|dock5
  -GOLD-   2262016 43D 1   1.00000     0.00000
 Structure written by MMmdl.
 28 29  0  0  0  0  0  0  0  0  2 V2000
  153.0119  138.6561  156.8789 O   0  0  0  0  0  0  0  0  0  0  0  0
  152.0997  139.3583  156.4470 C   0  0  0  0  0  0  0  0  0  0  0  0
  151.6606  140.4799  157.0868 N   0  5  0  0  0  0  0  0  0  0  0  0
  150.6331  141.2449  156.6138 C   0  0  0  0  0  0  0  0  0  0  0  0
  150.2729  142.2876  157.1597 O   0  0  0  0  0  0  0  0  0  0  0  0
  149.9494  140.8342  155.4336 N   0  0  0  0  0  0  0  0  0  0  0  0
  148.8161  141.6925  154.8908 C   0  0  1  0  0  0  0  0  0  0  0  0
  148.5869  141.3661  153.5464 O   0  0  0  0  0  0  0  0  0  0  0  0
  147.3936  140.5997  153.3836 C   0  0  1  0  0  0  0  0  0  0  0  0
  147.6840  139.0859  153.5120 C   0  0  0  0  0  0  0  0  0  0  0  0
  147.8584  138.5167  152.2321 O   0  0  0  0  0  0  0  0  0  0  0  0
  146.5068  141.1861  154.4872 C   0  0  1  0  0  0  0  0  0  0  0  0
  145.4564  140.3240  154.8792 O   0  0  0  0  0  0  0  0  0  0  0  0
  147.4793  141.4466  155.6296 C   0  0  2  0  0  0  0  0  0  0  0  0
  147.0579  142.5869  156.3505 O   0  0  0  0  0  0  0  0  0  0  0  0
  150.4240  139.7381  154.7279 C   0  0  0  0  0  0  0  0  0  0  0  0
  151.4503  138.9970  155.1912 C   0  0  0  0  0  0  0  0  0  0  0  0
  151.9991  137.4482  154.0841 Br  0  0  0  0  0  0  0  0  0  0  0  0
  149.1885  142.7159  154.9627 H   0  0  0  0  0  0  0  0  0  0  0  0
  146.9520  140.8005  152.4067 H   0  0  0  0  0  0  0  0  0  0  0  0
  148.5429  138.8757  154.1472 H   0  0  0  0  0  0  0  0  0  0  0  0
  146.8346  138.5709  153.9600 H   0  0  0  0  0  0  0  0  0  0  0  0
  148.6899  138.8043  151.8875 H   0  0  0  0  0  0  0  0  0  0  0  0
  146.0837  142.1266  154.1292 H   0  0  0  0  0  0  0  0  0  0  0  0
  144.8258  140.2881  154.1759 H   0  0  0  0  0  0  0  0  0  0  0  0
  147.5610  140.5737  156.2799 H   0  0  0  0  0  0  0  0  0  0  0  0
  147.7786  143.1995  156.3734 H   0  0  0  0  0  0  0  0  0  0  0  0
  149.9771  139.4540  153.7879 H   0  0  0  0  0  0  0  0  0  0  0  0
  1  2  2  0  0  0  0
  2 17  1  0  0  0  0
  2  3  1  0  0  0  0
  3  4  1  0  0  0  0
  4  5  2  0  0  0  0
  4  6  1  0  0  0  0
  6  7  1  0  0  0  0
  6 16  1  0  0  0  0
  7 14  1  0  0  0  0
  7  8  1  0  0  0  0
  7 19  1  0  0  0  0
  8  9  1  0  0  0  0
  9 10  1  0  0  0  0
  9 12  1  0  0  0  0
  9 20  1  0  0  0  0
 10 11  1  0  0  0  0
 10 21  1  0  0  0  0
 10 22  1  0  0  0  0
 11 23  1  0  0  0  0
 12 13  1  0  0  0  0
 12 14  1  0  0  0  0
 12 24  1  0  0  0  0
 13 25  1  0  0  0  0
 14 15  1  0  0  0  0
 14 26  1  0  0  0  0
 15 27  1  0  0  0  0
 16 17  2  0  0  0  0
 16 28  1  0  0  0  0
 17 18  1  0  0  0  0
M  CHG  1   3  -1
M  END
> <s_m_source_file>
AV-unprocessed.smi

> <i_m_source_file_index>
35

> <i_lp_mmshare_version>
43012

> <i_f3d_flags>
0

> <s_epik_input>
Tz1jMVtuSF1jKD1PKW4oW2NIXWMxQnIpW0NAQEhdMk9bQ0BASF0oW0NIMl1bT0hdKVtDQEBIXShbT0hdKVtDQEhdMltPSF0=

> <s_epik_cmdline>
J2VwaWtfcHl0aG9uJywgJy1waCcsICc3LjAnLCAnLXRuJywgJzgnLCAnLW1hJywgJzIwMCcsICctbWV0YWxfYmluZGluZycsICctaW1hZScsICc8aW5maWxlLm1hZT4nLCAnLW9tYWUnLCAnPG91dGZpbGUubWFlPic=

> <r_epik_Ionization_Penalty>
1.06112

> <r_epik_Ionization_Penalty_Charging>
2.1796e-09

> <r_epik_Ionization_Penalty_Neutral>
1.06112

> <r_epik_State_Penalty>
1.11484

> <r_epik_Charging_Adjusted_Penalty>
1.11484

> <i_epik_Tot_Q>
-1

> <i_epik_Tot_abs_Q>
1

> <r_epik_Metal_State_Penalty>
0.0032876

> <b_epik_Metal_Only>
0

> <s_epik_Chemistry_Notes>
This compound contains an acetal/aminal-like group ( X-CH(R)-Y where X, Y are N, S, or O) that may be acid/base labile, releasing an aldehyde.

> <s_lp_Force_Field>
OPLS_2005

> <r_lp_Energy>
39.1744

> <b_lp_Chiralities_Consistent>
1

> <s_lp_Variant>
AV-unprocessed.smi:35-26

> <Gold.Version>
5.8.1

> <Gold.Id.Protein>
6NUR|6NUR_protein|mol2

> <Gold.PLP.Fitness>
41.3974

> <Gold.PLP.PLP>
-26.1335

> <Gold.PLP.part.hbond>
-6.2159

> <Gold.PLP.part.metal>
0.0000

> <Gold.PLP.part.buried>
5.7635

> <Gold.PLP.part.nonpolar>
-26.2321

> <Gold.PLP.part.repulsive>
2.4943

> <Gold.PLP.ligand.clash>
0.0000

> <Gold.PLP.ligand.torsion>
0.8742

> <Gold.PLP.Chemscore.Hbond>
4.6573

> <Gold.PLP.Chemscore.CHOScore>
0.9930

> <Gold.PLP.Chemscore.Metal>
0.0000

> <Gold.Chemscore.Hbonds>
donor molecule, donor type, donor heavy atom, donor atom, acceptor molecule, acceptor atom, score
      L1  H    11    23       P1  7957  0.98
      L1  H    13    25       P1 10175  0.94
      L1  H    15    27       P1  8028  0.75
      P1  H  7997  8008       L1     1  0.85
      P1  H  8011  8017       L1     8  0.80
      L1  C    16    28       P1  7957  0.55

> <Gold.PLP.Chemscore.Internal.Correction>
0.0615

> <Gold.Rescore>
     Score         DG    S(hbond)    S(metal)    S(lipo)     H(rot)  DE(clash)    DE(int)     intcor
      7.86     -10.60       2.66        0.00      47.19       3.63       2.16       0.58       ----

> <Gold.Chemscore.Fitness>
7.8607

> <Gold.Chemscore.DG>
-10.6003

> <Gold.Chemscore.ZeroCoef>
-5.4800

> <Gold.Chemscore.Hbond>
2.6592

> <Gold.Chemscore.Metal>
0.0000

> <Gold.Chemscore.Lipo>
47.1897

> <Gold.Chemscore.Internal_Hbond>
0.0000

> <Gold.Chemscore.DEClash>
2.1619

> <Gold.Chemscore.DEInternal>
0.5777

> <Gold.Chemscore.Rot>
3.6261

> <Gold.Chemscore.Internal.Correction>
   9.000000E+99

> <Gold.Chemscore.Hbonds>
donor molecule, donor type, donor heavy atom, donor atom, acceptor molecule, acceptor atom, score
      L1  H    11    23       P1  7957  0.69
      L1  H    13    25       P1 10175  0.90
      L1  H    15    27       P1  8028  0.09
      P1  H  7997  8008       L1     1  0.14
      P1  H  8011  8017       L1     8  0.60

> <Gold.Chemscore.Hbond.Weighted>
-8.8819

> <Gold.Chemscore.Metal.Weighted>
-0.0000

> <Gold.Chemscore.Lipo.Weighted>
-5.5212

> <Gold.Chemscore.Internal_Hbond.Weighted>
0.0000

> <Gold.Chemscore.DEClash.Weighted>
2.1619

> <Gold.Chemscore.DEInternal.Weighted>
0.5777

> <Gold.Chemscore.Rot.Weighted>
9.2828

> <Gold.Chemscore.Internal.Correction.Weighted>
   9.000000E+99

> <Gold.Protein.RotatedTorsions>
[ 6907 6896 6895 6894 ] final  -18.21 input  -60.11 | X-H torsion
[ 7974 7965 7964 7962 ] final   70.01 input  175.53 | X-H torsion
[ 8008 7997 7996 7995 ] final  -69.30 input   59.86 | X-H torsion
[ 10167 10162 10161 10158 ] final -111.92 input  -65.29 | X-H torsion
[ 10718 10713 10712 10709 ] final   54.68 input   66.30 | X-H torsion
[ 10763 10752 10751 10750 ] final   95.95 input  -60.55 | X-H torsion
[ 11005 11000 10999 10996 ] final    0.88 input  -57.11 | X-H torsion

> <Gold.Protein.ActiveResidues>
 VAL166  LYS551  ARG553  GLY616  TRP617  ASP618  TYR619  PRO620  LYS621  CYS622 
 ASP623  PHE694  ASN695  SER759  ASP760  ASP761  ALA762  ILE779  LEU786  VAL792 
 PHE793  MET794  SER795  GLU796  ALA797  LYS798  CYS799  TRP800  GLU811  SER814 

> <Gold.Protein.RotatedAtoms>
  151.2816  135.0715  159.9171 H   0  0  0  0  0  0  0  0  0  0  0  0  # atno 6907 bound_to 6896
  152.5333  134.0025  159.7911 H   0  0  0  0  0  0  0  0  0  0  0  0  # atno 6908 bound_to 6896
  151.0279  133.5766  159.2694 H   0  0  0  0  0  0  0  0  0  0  0  0  # atno 6909 bound_to 6896
  145.7834  139.2899  143.1252 H   0  0  0  0  0  0  0  0  0  0  0  0  # atno 7974 bound_to 7965
  154.4929  140.0856  156.7633 H   0  0  0  0  0  0  0  0  0  0  0  0  # atno 8008 bound_to 7997
  155.4188  140.3445  155.4251 H   0  0  0  0  0  0  0  0  0  0  0  0  # atno 8009 bound_to 7997
  156.1354  140.1513  156.8990 H   0  0  0  0  0  0  0  0  0  0  0  0  # atno 8010 bound_to 7997
  140.1283  143.4383  152.1645 H   0  0  0  0  0  0  0  0  0  0  0  0  # atno 10167 bound_to 10162
  157.5279  130.8610  149.8646 H   0  0  0  0  0  0  0  0  0  0  0  0  # atno 10718 bound_to 10713
  153.2592  135.4236  155.0876 H   0  0  0  0  0  0  0  0  0  0  0  0  # atno 10763 bound_to 10752
  154.8413  135.3445  154.6402 H   0  0  0  0  0  0  0  0  0  0  0  0  # atno 10764 bound_to 10752
  153.6822  135.7038  153.5171 H   0  0  0  0  0  0  0  0  0  0  0  0  # atno 10765 bound_to 10752
  140.6216  133.9656  155.8228 H   0  0  0  0  0  0  0  0  0  0  0  0  # atno 11005 bound_to 11000
  146.0051  140.8486  142.9999 LP  0  0  0  0  0  0  0  0  0  0  0  0  # atno 17320 bound_to 7965
  144.6793  140.2408  143.7344 LP  0  0  0  0  0  0  0  0  0  0  0  0  # atno 17321 bound_to 7965
  139.5533  144.7354  151.4370 LP  0  0  0  0  0  0  0  0  0  0  0  0  # atno 17342 bound_to 10162
  140.6832  143.8034  150.7150 LP  0  0  0  0  0  0  0  0  0  0  0  0  # atno 17343 bound_to 10162
  156.0400  130.3741  150.1459 LP  0  0  0  0  0  0  0  0  0  0  0  0  # atno 17370 bound_to 10713
  156.9645  130.9815  151.3472 LP  0  0  0  0  0  0  0  0  0  0  0  0  # atno 17371 bound_to 10713
  141.0738  134.0165  157.3487 LP  0  0  0  0  0  0  0  0  0  0  0  0  # atno 17394 bound_to 11000
  139.9151  135.0196  156.7849 LP  0  0  0  0  0  0  0  0  0  0  0  0  # atno 17395 bound_to 11000

$$$$
