AV-unprocessed.smi:2636|AV-procd|sdf|10257|dock3
  -GOLD-   2272014263D 1   1.00000     0.00000
 Structure written by MMmdl.
 36 37  0  0  0  0  0  0  0  0  1 V2000
  149.0620  141.4303  154.6935 C   0  0  0  0  0  0  0  0  0  0  0  0
  149.7200  140.0606  154.6770 C   0  0  0  0  0  0  0  0  0  0  0  0
  150.9230  139.8241  155.2605 C   0  0  0  0  0  0  0  0  0  0  0  0
  151.5418  138.5848  155.2597 N   0  0  0  0  0  0  0  0  0  0  0  0
  152.8545  138.3614  155.8386 C   0  0  0  0  0  0  0  0  0  0  0  0
  153.0808  139.3134  156.8274 O   0  0  0  0  0  0  0  0  0  0  0  0
  152.3807  139.0470  158.0311 C   0  0  0  0  0  0  0  0  0  0  0  0
  152.1478  140.3300  158.7978 C   0  0  0  0  0  0  0  0  0  0  0  0
  152.2996  141.5602  158.2749 C   0  0  0  0  0  0  0  0  0  0  0  0
  152.0875  142.8428  158.9693 C   0  0  0  0  0  0  0  0  0  0  0  0
  151.9107  144.0648  158.2778 C   0  0  0  0  0  0  0  0  0  0  0  0
  151.7083  145.2655  158.9864 C   0  0  0  0  0  0  0  0  0  0  0  0
  151.6799  145.2595  160.3932 C   0  0  0  0  0  0  0  0  0  0  0  0
  151.8543  144.0500  161.0907 C   0  0  0  0  0  0  0  0  0  0  0  0
  152.0566  142.8503  160.3811 C   0  0  0  0  0  0  0  0  0  0  0  0
  150.9305  137.4950  154.6052 C   0  0  0  0  0  0  0  0  0  0  0  0
  151.4365  136.3741  154.5473 O   0  0  0  0  0  0  0  0  0  0  0  0
  149.6941  137.7376  154.0088 N   0  0  0  0  0  0  0  0  0  0  0  0
  149.0234  138.9641  153.9964 C   0  0  0  0  0  0  0  0  0  0  0  0
  147.9320  139.0530  153.4364 O   0  0  0  0  0  0  0  0  0  0  0  0
  149.2464  136.9623  153.5424 H   0  0  0  0  0  0  0  0  0  0  0  0
  149.6621  142.1602  155.2374 H   0  0  0  0  0  0  0  0  0  0  0  0
  148.0837  141.3781  155.1728 H   0  0  0  0  0  0  0  0  0  0  0  0
  148.9264  141.7997  153.6765 H   0  0  0  0  0  0  0  0  0  0  0  0
  151.4270  140.6437  155.7528 H   0  0  0  0  0  0  0  0  0  0  0  0
  152.8860  137.3597  156.2712 H   0  0  0  0  0  0  0  0  0  0  0  0
  153.6077  138.4144  155.0483 H   0  0  0  0  0  0  0  0  0  0  0  0
  151.4263  138.5637  157.8148 H   0  0  0  0  0  0  0  0  0  0  0  0
  152.9593  138.3692  158.6604 H   0  0  0  0  0  0  0  0  0  0  0  0
  151.8427  140.1990  159.8244 H   0  0  0  0  0  0  0  0  0  0  0  0
  152.6074  141.6339  157.2417 H   0  0  0  0  0  0  0  0  0  0  0  0
  151.9274  144.1031  157.1997 H   0  0  0  0  0  0  0  0  0  0  0  0
  151.5743  146.1924  158.4485 H   0  0  0  0  0  0  0  0  0  0  0  0
  151.5244  146.1803  160.9359 H   0  0  0  0  0  0  0  0  0  0  0  0
  151.8326  144.0413  162.1704 H   0  0  0  0  0  0  0  0  0  0  0  0
  152.1879  141.9297  160.9310 H   0  0  0  0  0  0  0  0  0  0  0  0
  1  2  1  0  0  0  0
  1 22  1  0  0  0  0
  1 23  1  0  0  0  0
  1 24  1  0  0  0  0
  2 19  1  0  0  0  0
  2  3  2  0  0  0  0
  3  4  1  0  0  0  0
  3 25  1  0  0  0  0
  4  5  1  0  0  0  0
  4 16  1  0  0  0  0
  5  6  1  0  0  0  0
  5 26  1  0  0  0  0
  5 27  1  0  0  0  0
  6  7  1  0  0  0  0
  7  8  1  0  0  0  0
  7 28  1  0  0  0  0
  7 29  1  0  0  0  0
  8  9  2  0  0  0  0
  8 30  1  0  0  0  0
  9 10  1  0  0  0  0
  9 31  1  0  0  0  0
 10 15  1  0  0  0  0
 10 11  2  0  0  0  0
 11 12  1  0  0  0  0
 11 32  1  0  0  0  0
 12 13  2  0  0  0  0
 12 33  1  0  0  0  0
 13 14  1  0  0  0  0
 13 34  1  0  0  0  0
 14 15  2  0  0  0  0
 14 35  1  0  0  0  0
 15 36  1  0  0  0  0
 16 17  2  0  0  0  0
 16 18  1  0  0  0  0
 18 21  1  0  0  0  0
 18 19  1  0  0  0  0
 19 20  2  0  0  0  0
M  END
> <s_m_source_file>
AV-unprocessed.smi

> <i_m_source_file_index>
2636

> <i_lp_mmshare_version>
43012

> <i_f3d_flags>
0

> <s_epik_input>
Tz1jMVtuSF1jKD1PKW4oW2NIXWMxW0NIM10pW0NIMl1PW0NIMl0vW0NIXT1bQ0hdL2MyW2NIXVtjSF1bY0hdW2NIXVtjSF0y

> <s_epik_cmdline>
J2VwaWtfcHl0aG9uJywgJy1waCcsICc3LjAnLCAnLXRuJywgJzgnLCAnLW1hJywgJzIwMCcsICctbWV0YWxfYmluZGluZycsICctaW1hZScsICc8aW5maWxlLm1hZT4nLCAnLW9tYWUnLCAnPG91dGZpbGUubWFlPic=

> <r_lp_tautomer_probability>
0.999537

> <r_epik_Ionization_Penalty>
0.00179702

> <r_epik_Ionization_Penalty_Charging>
0.00179702

> <r_epik_Ionization_Penalty_Neutral>
9.83266e-13

> <r_epik_State_Penalty>
0.00121868

> <r_epik_Charging_Adjusted_Penalty>
0.0030157

> <i_epik_Tot_Q>
0

> <i_epik_Tot_abs_Q>
0

> <r_epik_Metal_State_Penalty>
0.826903

> <b_epik_Metal_Only>
0

> <s_epik_Chemistry_Notes>
This compound contains an acetal/aminal-like group ( X-CH(R)-Y where X, Y are N, S, or O) that may be acid/base labile, releasing an aldehyde.

> <s_lp_Force_Field>
OPLS_2005

> <r_lp_Energy>
1.95272

> <b_lp_Chiralities_Consistent>
1

> <s_lp_Variant>
AV-unprocessed.smi:2636-1

> <Gold.Version>
5.8.1

> <Gold.Id.Protein>
6NUR|6NUR_protein|mol2

> <Gold.PLP.Fitness>
56.8581

> <Gold.PLP.PLP>
-49.8106

> <Gold.PLP.part.hbond>
-3.0000

> <Gold.PLP.part.metal>
0.0000

> <Gold.PLP.part.buried>
-4.8154

> <Gold.PLP.part.nonpolar>
-42.6267

> <Gold.PLP.part.repulsive>
1.3456

> <Gold.PLP.ligand.clash>
0.0000

> <Gold.PLP.ligand.torsion>
0.6943

> <Gold.PLP.Chemscore.Hbond>
2.8000

> <Gold.PLP.Chemscore.CHOScore>
0.0000

> <Gold.PLP.Chemscore.Metal>
0.0000

> <Gold.Chemscore.Hbonds>
donor molecule, donor type, donor heavy atom, donor atom, acceptor molecule, acceptor atom, score
      L1  H    18    21       P1  7948  0.83
      P1  H  7997  8008       L1     6  0.99
      P1  H 10752 10765       L1    17  1.00

> <Gold.PLP.Chemscore.Internal.Correction>
0.0360

> <Gold.Rescore>
     Score         DG    S(hbond)    S(metal)    S(lipo)     H(rot)  DE(clash)    DE(int)     intcor
     22.50     -23.33       2.78        0.00     115.31       1.92       0.17       0.66       ----

> <Gold.Chemscore.Fitness>
22.4979

> <Gold.Chemscore.DG>
-23.3279

> <Gold.Chemscore.ZeroCoef>
-5.4800

> <Gold.Chemscore.Hbond>
2.7772

> <Gold.Chemscore.Metal>
0.0000

> <Gold.Chemscore.Lipo>
115.3096

> <Gold.Chemscore.Internal_Hbond>
0.0000

> <Gold.Chemscore.DEClash>
0.1674

> <Gold.Chemscore.DEInternal>
0.6626

> <Gold.Chemscore.Rot>
1.9216

> <Gold.Chemscore.Internal.Correction>
   9.000000E+99

> <Gold.Chemscore.Hbonds>
donor molecule, donor type, donor heavy atom, donor atom, acceptor molecule, acceptor atom, score
      L1  H    18    21       P1  7948  0.80
      P1  H  7997  8008       L1     6  0.83
      P1  H 10752 10765       L1    17  1.00

> <Gold.Chemscore.Hbond.Weighted>
-9.2760

> <Gold.Chemscore.Metal.Weighted>
-0.0000

> <Gold.Chemscore.Lipo.Weighted>
-13.4912

> <Gold.Chemscore.Internal_Hbond.Weighted>
0.0000

> <Gold.Chemscore.DEClash.Weighted>
0.1674

> <Gold.Chemscore.DEInternal.Weighted>
0.6626

> <Gold.Chemscore.Rot.Weighted>
4.9193

> <Gold.Chemscore.Internal.Correction.Weighted>
   9.000000E+99

> <Gold.Protein.RotatedTorsions>
[ 6907 6896 6895 6894 ] final  -34.53 input  -60.11 | X-H torsion
[ 7974 7965 7964 7962 ] final  -25.44 input  175.53 | X-H torsion
[ 8008 7997 7996 7995 ] final  -66.43 input   59.86 | X-H torsion
[ 10167 10162 10161 10158 ] final   76.23 input  -65.29 | X-H torsion
[ 10718 10713 10712 10709 ] final  135.30 input   66.30 | X-H torsion
[ 10763 10752 10751 10750 ] final  159.61 input  -60.55 | X-H torsion
[ 11005 11000 10999 10996 ] final  139.05 input  -57.11 | X-H torsion

> <Gold.Protein.ActiveResidues>
 VAL166  LYS551  ARG553  GLY616  TRP617  ASP618  TYR619  PRO620  LYS621  CYS622 
 ASP623  PHE694  ASN695  SER759  ASP760  ASP761  ALA762  ILE779  LEU786  VAL792 
 PHE793  MET794  SER795  GLU796  ALA797  LYS798  CYS799  TRP800  GLU811  SER814 

> <Gold.Protein.RotatedAtoms>
  151.0514  134.9675  159.8213 H   0  0  0  0  0  0  0  0  0  0  0  0  # atno 6907 bound_to 6896
  152.5381  134.2532  159.8917 H   0  0  0  0  0  0  0  0  0  0  0  0  # atno 6908 bound_to 6896
  151.2548  133.4289  159.2647 H   0  0  0  0  0  0  0  0  0  0  0  0  # atno 6909 bound_to 6896
  146.1491  140.4887  142.8619 H   0  0  0  0  0  0  0  0  0  0  0  0  # atno 7974 bound_to 7965
  154.4734  140.0913  156.7201 H   0  0  0  0  0  0  0  0  0  0  0  0  # atno 8008 bound_to 7997
  155.4662  140.3463  155.4301 H   0  0  0  0  0  0  0  0  0  0  0  0  # atno 8009 bound_to 7997
  156.1077  140.1439  156.9370 H   0  0  0  0  0  0  0  0  0  0  0  0  # atno 8010 bound_to 7997
  139.9945  144.5732  150.7790 H   0  0  0  0  0  0  0  0  0  0  0  0  # atno 10167 bound_to 10162
  157.4585  131.1071  150.9948 H   0  0  0  0  0  0  0  0  0  0  0  0  # atno 10718 bound_to 10713
  154.2345  135.2777  155.2877 H   0  0  0  0  0  0  0  0  0  0  0  0  # atno 10763 bound_to 10752
  154.5596  135.5651  153.6999 H   0  0  0  0  0  0  0  0  0  0  0  0  # atno 10764 bound_to 10752
  153.0013  135.6294  154.2488 H   0  0  0  0  0  0  0  0  0  0  0  0  # atno 10765 bound_to 10752
  140.0227  134.9389  157.0506 H   0  0  0  0  0  0  0  0  0  0  0  0  # atno 11005 bound_to 11000
  144.7882  140.5978  143.6560 LP  0  0  0  0  0  0  0  0  0  0  0  0  # atno 17320 bound_to 7965
  145.4867  139.1491  143.3732 LP  0  0  0  0  0  0  0  0  0  0  0  0  # atno 17321 bound_to 7965
  140.7442  143.2858  151.3469 LP  0  0  0  0  0  0  0  0  0  0  0  0  # atno 17342 bound_to 10162
  139.6316  144.0710  152.2481 LP  0  0  0  0  0  0  0  0  0  0  0  0  # atno 17343 bound_to 10162
  157.0754  130.5881  149.5410 LP  0  0  0  0  0  0  0  0  0  0  0  0  # atno 17370 bound_to 10713
  156.0018  130.5098  150.7690 LP  0  0  0  0  0  0  0  0  0  0  0  0  # atno 17371 bound_to 10713
  140.4359  134.1731  155.7171 LP  0  0  0  0  0  0  0  0  0  0  0  0  # atno 17394 bound_to 11000
  141.1784  133.8466  157.1344 LP  0  0  0  0  0  0  0  0  0  0  0  0  # atno 17395 bound_to 11000

$$$$
