AV-unprocessed.smi:1587|AV-procd|sdf|6388|dock9
  -GOLD-   22720 7 23D 1   1.00000     0.00000
 Structure written by MMmdl.
 37 38  0  0  0  0  0  0  0  0  2 V2000
  152.8278  140.2779  158.2020 O   0  0  0  0  0  0  0  0  0  0  0  0
  153.0245  140.4406  159.4067 C   0  0  0  0  0  0  0  0  0  0  0  0
  153.5214  139.4843  160.2049 N   0  0  0  0  0  0  0  0  0  0  0  0
  153.8956  138.1458  159.7627 C   0  0  0  0  0  0  0  0  0  0  0  0
  153.4989  137.0769  160.7994 C   0  0  0  0  0  0  0  0  0  0  0  0
  153.8738  137.4628  162.1824 N   0  3  0  0  0  0  0  0  0  0  0  0
  153.7809  136.3257  163.1294 C   0  0  0  0  0  0  0  0  0  0  0  0
  154.1334  136.7804  164.5555 C   0  0  0  0  0  0  0  0  0  0  0  0
  155.4355  137.3513  164.5653 O   0  0  0  0  0  0  0  0  0  0  0  0
  155.5187  138.4988  163.7297 C   0  0  0  0  0  0  0  0  0  0  0  0
  155.2090  138.1048  162.2755 C   0  0  0  0  0  0  0  0  0  0  0  0
  152.7765  141.5709  160.0918 N   0  0  0  0  0  0  0  0  0  0  0  0
  152.2418  142.7929  159.6030 C   0  0  0  0  0  0  0  0  0  0  0  0
  152.2800  143.8714  160.5155 C   0  0  0  0  0  0  0  0  0  0  0  0
  151.7715  145.1261  160.1271 C   0  0  0  0  0  0  0  0  0  0  0  0
  151.2373  145.2700  158.8343 C   0  0  0  0  0  0  0  0  0  0  0  0
  151.2375  144.1461  157.9878 C   0  0  0  0  0  0  0  0  0  0  0  0
  151.7239  142.9428  158.3581 N   0  0  0  0  0  0  0  0  0  0  0  0
  153.6547  139.6985  161.1827 H   0  0  0  0  0  0  0  0  0  0  0  0
  153.4390  137.9510  158.7920 H   0  0  0  0  0  0  0  0  0  0  0  0
  154.9746  138.1295  159.6068 H   0  0  0  0  0  0  0  0  0  0  0  0
  152.4176  136.9408  160.7470 H   0  0  0  0  0  0  0  0  0  0  0  0
  153.9416  136.1090  160.5592 H   0  0  0  0  0  0  0  0  0  0  0  0
  152.7711  135.9133  163.1172 H   0  0  0  0  0  0  0  0  0  0  0  0
  154.4568  135.5293  162.8134 H   0  0  0  0  0  0  0  0  0  0  0  0
  153.4034  137.5012  164.9274 H   0  0  0  0  0  0  0  0  0  0  0  0
  154.1158  135.9292  165.2362 H   0  0  0  0  0  0  0  0  0  0  0  0
  154.8309  139.2702  164.0801 H   0  0  0  0  0  0  0  0  0  0  0  0
  156.5245  138.9138  163.8000 H   0  0  0  0  0  0  0  0  0  0  0  0
  155.9725  137.4174  161.9077 H   0  0  0  0  0  0  0  0  0  0  0  0
  155.2515  138.9938  161.6472 H   0  0  0  0  0  0  0  0  0  0  0  0
  152.9933  141.5570  161.0773 H   0  0  0  0  0  0  0  0  0  0  0  0
  152.6943  143.7442  161.5051 H   0  0  0  0  0  0  0  0  0  0  0  0
  151.7914  145.9626  160.8098 H   0  0  0  0  0  0  0  0  0  0  0  0
  150.8382  146.2162  158.5000 H   0  0  0  0  0  0  0  0  0  0  0  0
  150.8362  144.2141  156.9874 H   0  0  0  0  0  0  0  0  0  0  0  0
  153.1935  138.1436  162.4891 H   0  0  0  0  0  0  0  0  0  0  0  0
  1  2  2  0  0  0  0
  2  3  1  0  0  0  0
  2 12  1  0  0  0  0
  3  4  1  0  0  0  0
  3 19  1  0  0  0  0
  4  5  1  0  0  0  0
  4 20  1  0  0  0  0
  4 21  1  0  0  0  0
  5  6  1  0  0  0  0
  5 22  1  0  0  0  0
  5 23  1  0  0  0  0
  6 11  1  0  0  0  0
  6  7  1  0  0  0  0
  6 37  1  0  0  0  0
  7  8  1  0  0  0  0
  7 24  1  0  0  0  0
  7 25  1  0  0  0  0
  8  9  1  0  0  0  0
  8 26  1  0  0  0  0
  8 27  1  0  0  0  0
  9 10  1  0  0  0  0
 10 11  1  0  0  0  0
 10 28  1  0  0  0  0
 10 29  1  0  0  0  0
 11 30  1  0  0  0  0
 11 31  1  0  0  0  0
 12 13  1  0  0  0  0
 12 32  1  0  0  0  0
 13 18  1  0  0  0  0
 13 14  2  0  0  0  0
 14 15  1  0  0  0  0
 14 33  1  0  0  0  0
 15 16  2  0  0  0  0
 15 34  1  0  0  0  0
 16 17  1  0  0  0  0
 16 35  1  0  0  0  0
 17 18  2  0  0  0  0
 17 36  1  0  0  0  0
M  CHG  1   6   1
M  END
> <s_m_source_file>
AV-unprocessed.smi

> <i_m_source_file_index>
1587

> <i_lp_mmshare_version>
43012

> <i_f3d_flags>
0

> <s_epik_input>
bjFbY0hdW2NIXVtjSF1bY0hdYzFbTkhdQyg9TylbTkhdW0NIMl1bQ0gyXU4yW0NIMl1bQ0gyXU9bQ0gyXVtDSDJdMg==

> <s_epik_cmdline>
J2VwaWtfcHl0aG9uJywgJy1waCcsICc3LjAnLCAnLXRuJywgJzgnLCAnLW1hJywgJzIwMCcsICctbWV0YWxfYmluZGluZycsICctaW1hZScsICc8aW5maWxlLm1hZT4nLCAnLW9tYWUnLCAnPG91dGZpbGUubWFlPic=

> <r_epik_Ionization_Penalty>
0.602565

> <r_epik_Ionization_Penalty_Charging>
0.602531

> <r_epik_Ionization_Penalty_Neutral>
3.41998e-05

> <r_epik_State_Penalty>
0.617039

> <r_epik_Charging_Adjusted_Penalty>
1.21957

> <i_epik_Tot_Q>
1

> <i_epik_Tot_abs_Q>
1

> <r_epik_Metal_State_Penalty>
0.617041

> <b_epik_Metal_Only>
0

> <s_lp_Force_Field>
OPLS_2005

> <r_lp_Energy>
15.9912

> <b_lp_Chiralities_Consistent>
1

> <s_lp_Variant>
AV-unprocessed.smi:1587-2

> <Gold.Version>
5.8.1

> <Gold.Id.Protein>
6NUR|6NUR_protein|mol2

> <Gold.PLP.Fitness>
42.7685

> <Gold.PLP.PLP>
-37.6949

> <Gold.PLP.part.hbond>
-1.0000

> <Gold.PLP.part.metal>
0.0000

> <Gold.PLP.part.buried>
-4.4289

> <Gold.PLP.part.nonpolar>
-31.6709

> <Gold.PLP.part.repulsive>
0.2596

> <Gold.PLP.ligand.clash>
0.0000

> <Gold.PLP.ligand.torsion>
0.3397

> <Gold.PLP.Chemscore.Hbond>
0.9120

> <Gold.PLP.Chemscore.CHOScore>
1.0000

> <Gold.PLP.Chemscore.Metal>
0.0000

> <Gold.Chemscore.Hbonds>
donor molecule, donor type, donor heavy atom, donor atom, acceptor molecule, acceptor atom, score
      P1  H  7997  8008       L1     1  0.71
      L1  C    17    36       P1  8028  1.00

> <Gold.PLP.Chemscore.Internal.Correction>
0.0171

> <Gold.Rescore>
     Score         DG    S(hbond)    S(metal)    S(lipo)     H(rot)  DE(clash)    DE(int)     intcor
     13.34     -14.89       0.92        0.00      89.19       1.60       0.07       1.48       ----

> <Gold.Chemscore.Fitness>
13.3376

> <Gold.Chemscore.DG>
-14.8875

> <Gold.Chemscore.ZeroCoef>
-5.4800

> <Gold.Chemscore.Hbond>
0.9172

> <Gold.Chemscore.Metal>
0.0000

> <Gold.Chemscore.Lipo>
89.1881

> <Gold.Chemscore.Internal_Hbond>
0.0000

> <Gold.Chemscore.DEClash>
0.0740

> <Gold.Chemscore.DEInternal>
1.4759

> <Gold.Chemscore.Rot>
1.5981

> <Gold.Chemscore.Internal.Correction>
   9.000000E+99

> <Gold.Chemscore.Hbonds>
donor molecule, donor type, donor heavy atom, donor atom, acceptor molecule, acceptor atom, score
      P1  H  7997  8008       L1     1  0.65

> <Gold.Chemscore.Hbond.Weighted>
-3.0636

> <Gold.Chemscore.Metal.Weighted>
-0.0000

> <Gold.Chemscore.Lipo.Weighted>
-10.4350

> <Gold.Chemscore.Internal_Hbond.Weighted>
0.0000

> <Gold.Chemscore.DEClash.Weighted>
0.0740

> <Gold.Chemscore.DEInternal.Weighted>
1.4759

> <Gold.Chemscore.Rot.Weighted>
4.0911

> <Gold.Chemscore.Internal.Correction.Weighted>
   9.000000E+99

> <Gold.Protein.RotatedTorsions>
[ 6907 6896 6895 6894 ] final  -26.10 input  -60.11 | X-H torsion
[ 7974 7965 7964 7962 ] final   97.21 input  175.53 | X-H torsion
[ 8008 7997 7996 7995 ] final  -84.04 input   59.86 | X-H torsion
[ 10167 10162 10161 10158 ] final -149.75 input  -65.29 | X-H torsion
[ 10718 10713 10712 10709 ] final   48.69 input   66.30 | X-H torsion
[ 10763 10752 10751 10750 ] final  -81.07 input  -60.55 | X-H torsion
[ 11005 11000 10999 10996 ] final  -52.26 input  -57.11 | X-H torsion

> <Gold.Protein.ActiveResidues>
 VAL166  LYS551  ARG553  GLY616  TRP617  ASP618  TYR619  PRO620  LYS621  CYS622 
 ASP623  PHE694  ASN695  SER759  ASP760  ASP761  ALA762  ILE779  LEU786  VAL792 
 PHE793  MET794  SER795  GLU796  ALA797  LYS798  CYS799  TRP800  GLU811  SER814 

> <Gold.Protein.RotatedAtoms>
  151.1658  135.0295  159.8729 H   0  0  0  0  0  0  0  0  0  0  0  0  # atno 6907 bound_to 6896
  152.5450  134.1227  159.8416 H   0  0  0  0  0  0  0  0  0  0  0  0  # atno 6908 bound_to 6896
  151.1327  133.4979  159.2631 H   0  0  0  0  0  0  0  0  0  0  0  0  # atno 6909 bound_to 6896
  145.4285  139.2313  143.3157 H   0  0  0  0  0  0  0  0  0  0  0  0  # atno 7974 bound_to 7965
  154.6255  140.0610  156.9668 H   0  0  0  0  0  0  0  0  0  0  0  0  # atno 8008 bound_to 7997
  155.1749  140.3294  155.4367 H   0  0  0  0  0  0  0  0  0  0  0  0  # atno 8009 bound_to 7997
  156.2455  140.1907  156.6849 H   0  0  0  0  0  0  0  0  0  0  0  0  # atno 8010 bound_to 7997
  139.7415  143.8655  152.2563 H   0  0  0  0  0  0  0  0  0  0  0  0  # atno 10167 bound_to 10162
  157.4712  130.8256  149.7990 H   0  0  0  0  0  0  0  0  0  0  0  0  # atno 10718 bound_to 10713
  154.5590  135.5639  153.6990 H   0  0  0  0  0  0  0  0  0  0  0  0  # atno 10763 bound_to 10752
  153.0012  135.6269  154.2270 H   0  0  0  0  0  0  0  0  0  0  0  0  # atno 10764 bound_to 10752
  154.2207  135.2870  155.2905 H   0  0  0  0  0  0  0  0  0  0  0  0  # atno 10765 bound_to 10752
  141.0915  133.6632  156.3998 H   0  0  0  0  0  0  0  0  0  0  0  0  # atno 11005 bound_to 11000
  146.2619  140.5019  142.8850 LP  0  0  0  0  0  0  0  0  0  0  0  0  # atno 17320 bound_to 7965
  144.8198  140.6530  143.6360 LP  0  0  0  0  0  0  0  0  0  0  0  0  # atno 17321 bound_to 7965
  139.8607  144.7118  150.9103 LP  0  0  0  0  0  0  0  0  0  0  0  0  # atno 17342 bound_to 10162
  140.7786  143.3820  151.1460 LP  0  0  0  0  0  0  0  0  0  0  0  0  # atno 17343 bound_to 10162
  156.0074  130.3849  150.2382 LP  0  0  0  0  0  0  0  0  0  0  0  0  # atno 17370 bound_to 10713
  157.0564  131.0077  151.3237 LP  0  0  0  0  0  0  0  0  0  0  0  0  # atno 17371 bound_to 10713
  140.5241  134.6276  157.5328 LP  0  0  0  0  0  0  0  0  0  0  0  0  # atno 17394 bound_to 11000
  139.9742  134.7243  155.9982 LP  0  0  0  0  0  0  0  0  0  0  0  0  # atno 17395 bound_to 11000

$$$$
