AV-unprocessed.smi:311|AV-procd|sdf|2298|dock1
  -GOLD-   2262022193D 1   1.00000     0.00000
 Structure written by MMmdl.
 44 46  0  0  0  0  0  0  0  0  2 V2000
  150.5339  131.6521  156.1108 C   0  0  0  0  0  0  0  0  0  0  0  0
  150.8284  133.1149  156.2802 C   0  0  0  0  0  0  0  0  0  0  0  0
  151.4433  133.5343  157.3729 N   0  0  0  0  0  0  0  0  0  0  0  0
  151.5628  134.9206  157.2376 O   0  0  0  0  0  0  0  0  0  0  0  0
  151.0083  135.2859  156.0543 C   0  0  0  0  0  0  0  0  0  0  0  0
  151.0231  136.7419  155.7328 C   0  0  0  0  0  0  0  0  0  0  0  0
  150.5206  134.1893  155.3971 C   0  0  0  0  0  0  0  0  0  0  0  0
  149.8076  134.1256  154.0695 C   0  0  0  0  0  0  0  0  0  0  0  0
  148.3547  133.7090  154.2971 C   0  0  0  0  0  0  0  0  0  0  0  0
  148.0963  132.6704  154.9044 O   0  0  0  0  0  0  0  0  0  0  0  0
  147.4148  134.5115  153.7741 N   0  0  0  0  0  0  0  0  0  0  0  0
  145.9844  134.2255  153.7692 C   0  0  1  0  0  0  0  0  0  0  0  0
  145.1386  135.3842  153.2575 C   0  0  0  0  0  0  0  0  0  0  0  0
  143.8136  134.7078  152.8908 C   0  0  0  0  0  0  0  0  0  0  0  0
  144.1287  133.2960  152.5603 N   0  3  1  0  0  0  0  0  0  0  0  0
  143.6677  132.8724  151.2108 C   0  0  0  0  0  0  0  0  0  0  0  0
  144.3559  131.5691  150.7788 C   0  0  0  0  0  0  0  0  0  0  0  0
  145.8824  131.7463  150.6722 C   0  0  0  0  0  0  0  0  0  0  0  0
  146.4043  132.8999  151.5495 C   0  0  0  0  0  0  0  0  0  0  0  0
  145.5724  133.0607  152.8472 C   0  0  1  0  0  0  0  0  0  0  0  0
  150.6123  131.1129  157.0558 H   0  0  0  0  0  0  0  0  0  0  0  0
  151.2301  131.1939  155.4083 H   0  0  0  0  0  0  0  0  0  0  0  0
  149.5251  131.4978  155.7279 H   0  0  0  0  0  0  0  0  0  0  0  0
  150.2422  137.2643  156.2854 H   0  0  0  0  0  0  0  0  0  0  0  0
  150.8537  136.9098  154.6693 H   0  0  0  0  0  0  0  0  0  0  0  0
  151.9823  137.1881  155.9957 H   0  0  0  0  0  0  0  0  0  0  0  0
  149.8307  135.0905  153.5616 H   0  0  0  0  0  0  0  0  0  0  0  0
  150.2791  133.4138  153.3912 H   0  0  0  0  0  0  0  0  0  0  0  0
  147.7184  135.3472  153.2952 H   0  0  0  0  0  0  0  0  0  0  0  0
  145.6622  134.0013  154.7883 H   0  0  0  0  0  0  0  0  0  0  0  0
  145.0167  136.1795  153.9936 H   0  0  0  0  0  0  0  0  0  0  0  0
  145.5912  135.8187  152.3647 H   0  0  0  0  0  0  0  0  0  0  0  0
  143.1443  134.7068  153.7520 H   0  0  0  0  0  0  0  0  0  0  0  0
  143.3028  135.2362  152.0846 H   0  0  0  0  0  0  0  0  0  0  0  0
  142.5845  132.7475  151.2292 H   0  0  0  0  0  0  0  0  0  0  0  0
  143.8835  133.6508  150.4770 H   0  0  0  0  0  0  0  0  0  0  0  0
  144.1290  130.7898  151.5079 H   0  0  0  0  0  0  0  0  0  0  0  0
  143.9544  131.2208  149.8267 H   0  0  0  0  0  0  0  0  0  0  0  0
  146.3692  130.8119  150.9545 H   0  0  0  0  0  0  0  0  0  0  0  0
  146.1672  131.9344  149.6364 H   0  0  0  0  0  0  0  0  0  0  0  0
  147.4561  132.7221  151.7716 H   0  0  0  0  0  0  0  0  0  0  0  0
  146.3695  133.8303  150.9810 H   0  0  0  0  0  0  0  0  0  0  0  0
  145.6557  132.1269  153.4052 H   0  0  0  0  0  0  0  0  0  0  0  0
  143.6225  132.7310  153.2273 H   0  0  0  0  0  0  0  0  0  0  0  0
  1  2  1  0  0  0  0
  1 21  1  0  0  0  0
  1 22  1  0  0  0  0
  1 23  1  0  0  0  0
  2  7  1  0  0  0  0
  2  3  2  0  0  0  0
  3  4  1  0  0  0  0
  4  5  1  0  0  0  0
  5  6  1  0  0  0  0
  5  7  2  0  0  0  0
  6 24  1  0  0  0  0
  6 25  1  0  0  0  0
  6 26  1  0  0  0  0
  7  8  1  0  0  0  0
  8  9  1  0  0  0  0
  8 27  1  0  0  0  0
  8 28  1  0  0  0  0
  9 10  2  0  0  0  0
  9 11  1  0  0  0  0
 11 12  1  0  0  0  0
 11 29  1  0  0  0  0
 12 20  1  0  0  0  0
 12 13  1  0  0  0  0
 12 30  1  0  0  0  0
 13 14  1  0  0  0  0
 13 31  1  0  0  0  0
 13 32  1  0  0  0  0
 14 15  1  0  0  0  0
 14 33  1  0  0  0  0
 14 34  1  0  0  0  0
 15 20  1  0  0  0  0
 15 16  1  0  0  0  0
 15 44  1  0  0  0  0
 16 17  1  0  0  0  0
 16 35  1  0  0  0  0
 16 36  1  0  0  0  0
 17 18  1  0  0  0  0
 17 37  1  0  0  0  0
 17 38  1  0  0  0  0
 18 19  1  0  0  0  0
 18 39  1  0  0  0  0
 18 40  1  0  0  0  0
 19 20  1  0  0  0  0
 19 41  1  0  0  0  0
 19 42  1  0  0  0  0
 20 43  1  0  0  0  0
M  CHG  1  15   1
M  END
> <s_m_source_file>
AV-unprocessed.smi

> <i_m_source_file_index>
311

> <i_lp_mmshare_version>
43012

> <i_f3d_flags>
0

> <s_epik_input>
W0NIM11jMW5vYyhbQ0gzXSljMVtDSDJdQyg9TylbTkhdW0NASF0oW0NIMl1bQ0gyXTIpW0NAQEhdKE4yMylbQ0gyXVtDSDJdW0NIMl1bQ0gyXTM=

> <s_epik_cmdline>
J2VwaWtfcHl0aG9uJywgJy1waCcsICc3LjAnLCAnLXRuJywgJzgnLCAnLW1hJywgJzIwMCcsICctbWV0YWxfYmluZGluZycsICctaW1hZScsICc8aW5maWxlLm1hZT4nLCAnLW9tYWUnLCAnPG91dGZpbGUubWFlPic=

> <r_epik_Ionization_Penalty>
0.00173669

> <r_epik_Ionization_Penalty_Charging>
0.0017366

> <r_epik_Ionization_Penalty_Neutral>
9.2145e-08

> <r_epik_State_Penalty>
0.00117499

> <r_epik_Charging_Adjusted_Penalty>
0.00291159

> <i_epik_Tot_Q>
1

> <i_epik_Tot_abs_Q>
1

> <r_epik_Metal_State_Penalty>
-0

> <b_epik_Metal_Only>
0

> <s_lp_Force_Field>
OPLS_2005

> <r_lp_Energy>
33.1606

> <b_lp_Chiralities_Consistent>
1

> <s_lp_Variant>
AV-unprocessed.smi:311-2

> <Gold.Version>
5.8.1

> <Gold.Id.Protein>
6NUR|6NUR_protein|mol2

> <Gold.PLP.Fitness>
40.5179

> <Gold.PLP.PLP>
-30.5605

> <Gold.PLP.part.hbond>
-3.9559

> <Gold.PLP.part.metal>
0.0000

> <Gold.PLP.part.buried>
-4.0777

> <Gold.PLP.part.nonpolar>
-21.6493

> <Gold.PLP.part.repulsive>
0.0111

> <Gold.PLP.ligand.clash>
0.0000

> <Gold.PLP.ligand.torsion>
0.1462

> <Gold.PLP.Chemscore.Hbond>
3.4147

> <Gold.PLP.Chemscore.CHOScore>
0.0000

> <Gold.PLP.Chemscore.Metal>
0.0000

> <Gold.Chemscore.Hbonds>
donor molecule, donor type, donor heavy atom, donor atom, acceptor molecule, acceptor atom, score
      L1  H    11    29       P1  7948  0.84
      L1  H    15    44       P1 10957  1.89
      P1  H  6896  6907       L1     3  0.58

> <Gold.PLP.Chemscore.Internal.Correction>
0.0059

> <Gold.Rescore>
     Score         DG    S(hbond)    S(metal)    S(lipo)     H(rot)  DE(clash)    DE(int)     intcor
     17.88     -18.23       2.20        0.00      75.85       1.36       0.11       0.23       ----

> <Gold.Chemscore.Fitness>
17.8844

> <Gold.Chemscore.DG>
-18.2299

> <Gold.Chemscore.ZeroCoef>
-5.4800

> <Gold.Chemscore.Hbond>
2.2000

> <Gold.Chemscore.Metal>
0.0000

> <Gold.Chemscore.Lipo>
75.8538

> <Gold.Chemscore.Internal_Hbond>
0.0000

> <Gold.Chemscore.DEClash>
0.1113

> <Gold.Chemscore.DEInternal>
0.2341

> <Gold.Chemscore.Rot>
1.3567

> <Gold.Chemscore.Internal.Correction>
   9.000000E+99

> <Gold.Chemscore.Hbonds>
donor molecule, donor type, donor heavy atom, donor atom, acceptor molecule, acceptor atom, score
      L1  H    11    29       P1  7948  0.78
      L1  H    15    44       P1 10957  0.36
      P1  H  6896  6907       L1     3  0.15

> <Gold.Chemscore.Hbond.Weighted>
-7.3481

> <Gold.Chemscore.Metal.Weighted>
-0.0000

> <Gold.Chemscore.Lipo.Weighted>
-8.8749

> <Gold.Chemscore.Internal_Hbond.Weighted>
0.0000

> <Gold.Chemscore.DEClash.Weighted>
0.1113

> <Gold.Chemscore.DEInternal.Weighted>
0.2341

> <Gold.Chemscore.Rot.Weighted>
3.4731

> <Gold.Chemscore.Internal.Correction.Weighted>
   9.000000E+99

> <Gold.Protein.RotatedTorsions>
[ 6907 6896 6895 6894 ] final -161.36 input  -60.11 | X-H torsion
[ 7974 7965 7964 7962 ] final  167.45 input  175.53 | X-H torsion
[ 8008 7997 7996 7995 ] final  -54.89 input   59.86 | X-H torsion
[ 10167 10162 10161 10158 ] final   72.60 input  -65.29 | X-H torsion
[ 10718 10713 10712 10709 ] final -158.67 input   66.30 | X-H torsion
[ 10763 10752 10751 10750 ] final  169.94 input  -60.55 | X-H torsion
[ 11005 11000 10999 10996 ] final  -44.71 input  -57.11 | X-H torsion

> <Gold.Protein.ActiveResidues>
 VAL166  LYS551  ARG553  GLY616  TRP617  ASP618  TYR619  PRO620  LYS621  CYS622 
 ASP623  PHE694  ASN695  SER759  ASP760  ASP761  ALA762  ILE779  LEU786  VAL792 
 PHE793  MET794  SER795  GLU796  ALA797  LYS798  CYS799  TRP800  GLU811  SER814 

> <Gold.Protein.RotatedAtoms>
  151.3634  133.3881  159.2691 H   0  0  0  0  0  0  0  0  0  0  0  0  # atno 6907 bound_to 6896
  150.9707  134.9081  159.7797 H   0  0  0  0  0  0  0  0  0  0  0  0  # atno 6908 bound_to 6896
  152.5183  134.3596  159.9332 H   0  0  0  0  0  0  0  0  0  0  0  0  # atno 6909 bound_to 6896
  144.7424  139.8762  143.6393 H   0  0  0  0  0  0  0  0  0  0  0  0  # atno 7974 bound_to 7965
  154.4177  140.1165  156.5389 H   0  0  0  0  0  0  0  0  0  0  0  0  # atno 8008 bound_to 7997
  155.6529  140.3496  155.4735 H   0  0  0  0  0  0  0  0  0  0  0  0  # atno 8009 bound_to 7997
  155.9778  140.1154  157.0744 H   0  0  0  0  0  0  0  0  0  0  0  0  # atno 8010 bound_to 7997
  140.0335  144.5446  150.7488 H   0  0  0  0  0  0  0  0  0  0  0  0  # atno 10167 bound_to 10162
  156.5574  130.8632  151.2799 H   0  0  0  0  0  0  0  0  0  0  0  0  # atno 10718 bound_to 10713
  154.3904  135.2754  155.2158 H   0  0  0  0  0  0  0  0  0  0  0  0  # atno 10763 bound_to 10752
  154.4227  135.5996  153.6023 H   0  0  0  0  0  0  0  0  0  0  0  0  # atno 10764 bound_to 10752
  152.9832  135.5976  154.4158 H   0  0  0  0  0  0  0  0  0  0  0  0  # atno 10765 bound_to 10752
  141.0468  133.6758  156.2911 H   0  0  0  0  0  0  0  0  0  0  0  0  # atno 11005 bound_to 11000
  146.1244  139.4268  143.0208 LP  0  0  0  0  0  0  0  0  0  0  0  0  # atno 17320 bound_to 7965
  145.7257  141.0060  143.1379 LP  0  0  0  0  0  0  0  0  0  0  0  0  # atno 17321 bound_to 7965
  140.7291  143.2669  151.4014 LP  0  0  0  0  0  0  0  0  0  0  0  0  # atno 17342 bound_to 10162
  139.6060  144.1196  152.2249 LP  0  0  0  0  0  0  0  0  0  0  0  0  # atno 17343 bound_to 10162
  157.7375  130.9797  150.2199 LP  0  0  0  0  0  0  0  0  0  0  0  0  # atno 17370 bound_to 10713
  156.2829  130.3736  149.7917 LP  0  0  0  0  0  0  0  0  0  0  0  0  # atno 17371 bound_to 10713
  140.6130  134.5439  157.5536 LP  0  0  0  0  0  0  0  0  0  0  0  0  # atno 17394 bound_to 11000
  139.9318  134.7948  156.0909 LP  0  0  0  0  0  0  0  0  0  0  0  0  # atno 17395 bound_to 11000

$$$$
