AV-unprocessed.smi:490|AV-procd|sdf|2706|dock7
  -GOLD-   2262023143D 1   1.00000     0.00000
 Structure written by MMmdl.
 50 52  0  0  0  0  0  0  0  0  2 V2000
  152.0048  144.2530  161.4484 C   0  0  0  0  0  0  0  0  0  0  0  0
  152.6769  142.9422  161.0768 C   0  0  0  0  0  0  0  0  0  0  0  0
  153.4203  142.2542  162.0573 C   0  0  0  0  0  0  0  0  0  0  0  0
  154.0597  141.0418  161.7455 C   0  0  0  0  0  0  0  0  0  0  0  0
  153.9567  140.4990  160.4502 C   0  0  0  0  0  0  0  0  0  0  0  0
  154.6615  139.1932  160.1315 C   0  0  0  0  0  0  0  0  0  0  0  0
  153.1997  141.1734  159.4637 C   0  0  0  0  0  0  0  0  0  0  0  0
  153.0979  140.6397  158.2047 O   0  0  0  0  0  0  0  0  0  0  0  0
  152.4052  139.4005  158.1651 C   0  0  0  0  0  0  0  0  0  0  0  0
  151.0623  139.6084  157.4498 C   0  0  1  0  0  0  0  0  0  0  0  0
  150.1923  140.3019  158.3221 O   0  0  0  0  0  0  0  0  0  0  0  0
  151.2241  140.4163  156.1472 C   0  0  0  0  0  0  0  0  0  0  0  0
  150.4132  139.8825  155.0399 N   0  0  0  0  0  0  0  0  0  0  0  0
  150.6569  138.8342  154.2004 C   0  0  0  0  0  0  0  0  0  0  0  0
  151.8482  137.9332  154.2066 C   0  0  0  0  0  0  0  0  0  0  0  0
  151.4890  136.5695  154.2217 O   0  0  0  0  0  0  0  0  0  0  0  0
  149.5973  138.7445  153.3481 N   0  3  0  0  0  0  0  0  0  0  0  0
  148.6659  139.7401  153.6446 C   0  0  0  0  0  0  0  0  0  0  0  0
  147.4406  140.0430  153.0586 C   0  0  0  0  0  0  0  0  0  0  0  0
  146.7272  141.1282  153.6082 C   0  0  0  0  0  0  0  0  0  0  0  0
  147.2359  141.8639  154.6981 C   0  0  0  0  0  0  0  0  0  0  0  0
  148.4801  141.5478  155.2831 C   0  0  0  0  0  0  0  0  0  0  0  0
  149.1815  140.4747  154.7323 C   0  0  0  0  0  0  0  0  0  0  0  0
  152.5707  142.4066  159.7689 C   0  0  0  0  0  0  0  0  0  0  0  0
  151.7819  143.1503  158.6990 C   0  0  0  0  0  0  0  0  0  0  0  0
  152.0693  144.4419  162.5205 H   0  0  0  0  0  0  0  0  0  0  0  0
  150.9487  144.2368  161.1775 H   0  0  0  0  0  0  0  0  0  0  0  0
  152.4834  145.0852  160.9318 H   0  0  0  0  0  0  0  0  0  0  0  0
  153.5082  142.6570  163.0559 H   0  0  0  0  0  0  0  0  0  0  0  0
  154.6306  140.5300  162.5064 H   0  0  0  0  0  0  0  0  0  0  0  0
  155.0645  139.2024  159.1184 H   0  0  0  0  0  0  0  0  0  0  0  0
  153.9666  138.3580  160.2187 H   0  0  0  0  0  0  0  0  0  0  0  0
  155.4911  139.0193  160.8174 H   0  0  0  0  0  0  0  0  0  0  0  0
  152.9972  138.6228  157.6797 H   0  0  0  0  0  0  0  0  0  0  0  0
  152.2252  139.0701  159.1897 H   0  0  0  0  0  0  0  0  0  0  0  0
  150.6248  138.6378  157.2135 H   0  0  0  0  0  0  0  0  0  0  0  0
  150.0076  141.1491  157.9453 H   0  0  0  0  0  0  0  0  0  0  0  0
  150.9844  141.4686  156.3009 H   0  0  0  0  0  0  0  0  0  0  0  0
  152.2647  140.3934  155.8232 H   0  0  0  0  0  0  0  0  0  0  0  0
  152.4555  138.1301  153.3228 H   0  0  0  0  0  0  0  0  0  0  0  0
  152.4709  138.1491  155.0747 H   0  0  0  0  0  0  0  0  0  0  0  0
  151.2886  136.3005  153.3381 H   0  0  0  0  0  0  0  0  0  0  0  0
  147.0474  139.4785  152.2258 H   0  0  0  0  0  0  0  0  0  0  0  0
  145.7697  141.4000  153.1877 H   0  0  0  0  0  0  0  0  0  0  0  0
  146.6596  142.6866  155.0959 H   0  0  0  0  0  0  0  0  0  0  0  0
  148.8547  142.1142  156.1226 H   0  0  0  0  0  0  0  0  0  0  0  0
  151.9694  142.7610  157.6986 H   0  0  0  0  0  0  0  0  0  0  0  0
  152.0500  144.2068  158.6846 H   0  0  0  0  0  0  0  0  0  0  0  0
  150.7128  143.0691  158.8966 H   0  0  0  0  0  0  0  0  0  0  0  0
  149.5173  138.0460  152.6206 H   0  0  0  0  0  0  0  0  0  0  0  0
  1  2  1  0  0  0  0
  1 26  1  0  0  0  0
  1 27  1  0  0  0  0
  1 28  1  0  0  0  0
  2 24  1  0  0  0  0
  2  3  2  0  0  0  0
  3  4  1  0  0  0  0
  3 29  1  0  0  0  0
  4  5  2  0  0  0  0
  4 30  1  0  0  0  0
  5  6  1  0  0  0  0
  5  7  1  0  0  0  0
  6 31  1  0  0  0  0
  6 32  1  0  0  0  0
  6 33  1  0  0  0  0
  7  8  1  0  0  0  0
  7 24  2  0  0  0  0
  8  9  1  0  0  0  0
  9 10  1  0  0  0  0
  9 34  1  0  0  0  0
  9 35  1  0  0  0  0
 10 11  1  0  0  0  0
 10 12  1  0  0  0  0
 10 36  1  0  0  0  0
 11 37  1  0  0  0  0
 12 13  1  0  0  0  0
 12 38  1  0  0  0  0
 12 39  1  0  0  0  0
 13 23  1  0  0  0  0
 13 14  1  0  0  0  0
 14 15  1  0  0  0  0
 14 17  2  0  0  0  0
 15 16  1  0  0  0  0
 15 40  1  0  0  0  0
 15 41  1  0  0  0  0
 16 42  1  0  0  0  0
 17 18  1  0  0  0  0
 17 50  1  0  0  0  0
 18 23  2  0  0  0  0
 18 19  1  0  0  0  0
 19 20  2  0  0  0  0
 19 43  1  0  0  0  0
 20 21  1  0  0  0  0
 20 44  1  0  0  0  0
 21 22  2  0  0  0  0
 21 45  1  0  0  0  0
 22 23  1  0  0  0  0
 22 46  1  0  0  0  0
 24 25  1  0  0  0  0
 25 47  1  0  0  0  0
 25 48  1  0  0  0  0
 25 49  1  0  0  0  0
M  CHG  1  17   1
M  END
> <s_m_source_file>
AV-unprocessed.smi

> <i_m_source_file_index>
490

> <i_lp_mmshare_version>
43012

> <i_f3d_flags>
0

> <s_epik_input>
W0NIM11jMVtjSF1bY0hdYyhbQ0gzXSljKGMxW0NIM10pT1tDSDJdW0NASF0oW09IXSlbQ0gyXW4oYyhuMilbQ0gyXVtPSF0pYyhjMjMpW2NIXVtjSF1bY0hdW2NIXTM=

> <s_epik_cmdline>
J2VwaWtfcHl0aG9uJywgJy1waCcsICc3LjAnLCAnLXRuJywgJzgnLCAnLW1hJywgJzIwMCcsICctbWV0YWxfYmluZGluZycsICctaW1hZScsICc8aW5maWxlLm1hZT4nLCAnLW9tYWUnLCAnPG91dGZpbGUubWFlPic=

> <r_lp_tautomer_probability>
1

> <r_epik_Ionization_Penalty>
1.43125

> <r_epik_Ionization_Penalty_Charging>
1.43039

> <r_epik_Ionization_Penalty_Neutral>
0.000858184

> <r_epik_State_Penalty>
1.51493

> <r_epik_Charging_Adjusted_Penalty>
2.94531

> <i_epik_Tot_Q>
1

> <i_epik_Tot_abs_Q>
1

> <r_epik_Metal_State_Penalty>
5.5599

> <b_epik_Metal_Only>
0

> <s_lp_Force_Field>
OPLS_2005

> <r_lp_Energy>
24.5509

> <b_lp_Chiralities_Consistent>
1

> <s_lp_Variant>
AV-unprocessed.smi:490-4

> <Gold.Version>
5.8.1

> <Gold.Id.Protein>
6NUR|6NUR_protein|mol2

> <Gold.PLP.Fitness>
68.9368

> <Gold.PLP.PLP>
-57.3983

> <Gold.PLP.part.hbond>
-5.0000

> <Gold.PLP.part.metal>
0.0000

> <Gold.PLP.part.buried>
2.2168

> <Gold.PLP.part.nonpolar>
-54.2099

> <Gold.PLP.part.repulsive>
0.0960

> <Gold.PLP.ligand.clash>
0.0000

> <Gold.PLP.ligand.torsion>
1.4360

> <Gold.PLP.Chemscore.Hbond>
4.7520

> <Gold.PLP.Chemscore.CHOScore>
0.0000

> <Gold.PLP.Chemscore.Metal>
0.0000

> <Gold.Chemscore.Hbonds>
donor molecule, donor type, donor heavy atom, donor atom, acceptor molecule, acceptor atom, score
      L1  H    16    42       P1  7949  1.00
      L1  H    17    50       P1  7948  2.00
      P1  H  7997  8009       L1     8  0.54
      P1  H 10752 10764       L1    16  0.96

> <Gold.PLP.Chemscore.Internal.Correction>
0.1545

> <Gold.Rescore>
     Score         DG    S(hbond)    S(metal)    S(lipo)     H(rot)  DE(clash)    DE(int)     intcor
     18.35     -22.15       2.28        0.00     143.36       3.02       1.52       2.29       ----

> <Gold.Chemscore.Fitness>
18.3492

> <Gold.Chemscore.DG>
-22.1546

> <Gold.Chemscore.ZeroCoef>
-5.4800

> <Gold.Chemscore.Hbond>
2.2836

> <Gold.Chemscore.Metal>
0.0000

> <Gold.Chemscore.Lipo>
143.3610

> <Gold.Chemscore.Internal_Hbond>
0.0000

> <Gold.Chemscore.DEClash>
1.5190

> <Gold.Chemscore.DEInternal>
2.2865

> <Gold.Chemscore.Rot>
3.0180

> <Gold.Chemscore.Internal.Correction>
   9.000000E+99

> <Gold.Chemscore.Hbonds>
donor molecule, donor type, donor heavy atom, donor atom, acceptor molecule, acceptor atom, score
      L1  H    16    42       P1  7949  0.60
      L1  H    17    50       P1  7948  0.66
      P1  H  7997  8009       L1     8  0.07
      P1  H 10752 10764       L1    16  0.26

> <Gold.Chemscore.Hbond.Weighted>
-7.6273

> <Gold.Chemscore.Metal.Weighted>
-0.0000

> <Gold.Chemscore.Lipo.Weighted>
-16.7732

> <Gold.Chemscore.Internal_Hbond.Weighted>
0.0000

> <Gold.Chemscore.DEClash.Weighted>
1.5190

> <Gold.Chemscore.DEInternal.Weighted>
2.2865

> <Gold.Chemscore.Rot.Weighted>
7.7260

> <Gold.Chemscore.Internal.Correction.Weighted>
   9.000000E+99

> <Gold.Protein.RotatedTorsions>
[ 6907 6896 6895 6894 ] final  -82.80 input  -60.11 | X-H torsion
[ 7974 7965 7964 7962 ] final -161.63 input  175.53 | X-H torsion
[ 8008 7997 7996 7995 ] final  158.93 input   59.86 | X-H torsion
[ 10167 10162 10161 10158 ] final -101.10 input  -65.29 | X-H torsion
[ 10718 10713 10712 10709 ] final  -10.51 input   66.30 | X-H torsion
[ 10763 10752 10751 10750 ] final  -55.43 input  -60.55 | X-H torsion
[ 11005 11000 10999 10996 ] final -104.73 input  -57.11 | X-H torsion

> <Gold.Protein.ActiveResidues>
 VAL166  LYS551  ARG553  GLY616  TRP617  ASP618  TYR619  PRO620  LYS621  CYS622 
 ASP623  PHE694  ASN695  SER759  ASP760  ASP761  ALA762  ILE779  LEU786  VAL792 
 PHE793  MET794  SER795  GLU796  ALA797  LYS798  CYS799  TRP800  GLU811  SER814 

> <Gold.Protein.RotatedAtoms>
  150.6893  134.3610  159.4950 H   0  0  0  0  0  0  0  0  0  0  0  0  # atno 6907 bound_to 6896
  152.1439  134.9039  160.0561 H   0  0  0  0  0  0  0  0  0  0  0  0  # atno 6908 bound_to 6896
  152.0162  133.3846  159.4276 H   0  0  0  0  0  0  0  0  0  0  0  0  # atno 6909 bound_to 6896
  144.7384  140.3370  143.6142 H   0  0  0  0  0  0  0  0  0  0  0  0  # atno 7974 bound_to 7965
  156.2271  140.1845  156.7335 H   0  0  0  0  0  0  0  0  0  0  0  0  # atno 8008 bound_to 7997
  154.5960  140.0643  156.9332 H   0  0  0  0  0  0  0  0  0  0  0  0  # atno 8009 bound_to 7997
  155.2255  140.3311  155.4312 H   0  0  0  0  0  0  0  0  0  0  0  0  # atno 8010 bound_to 7997
  140.2449  143.3513  152.0768 H   0  0  0  0  0  0  0  0  0  0  0  0  # atno 10167 bound_to 10162
  156.6725  130.5013  149.5996 H   0  0  0  0  0  0  0  0  0  0  0  0  # atno 10718 bound_to 10713
  154.1907  135.6428  153.5059 H   0  0  0  0  0  0  0  0  0  0  0  0  # atno 10763 bound_to 10752
  153.0036  135.5428  154.6418 H   0  0  0  0  0  0  0  0  0  0  0  0  # atno 10764 bound_to 10752
  154.5806  135.2925  155.0709 H   0  0  0  0  0  0  0  0  0  0  0  0  # atno 10765 bound_to 10752
  141.1087  133.8748  157.1647 H   0  0  0  0  0  0  0  0  0  0  0  0  # atno 11005 bound_to 11000
  145.7414  139.1765  143.2374 LP  0  0  0  0  0  0  0  0  0  0  0  0  # atno 17320 bound_to 7965
  146.1131  140.7403  142.9493 LP  0  0  0  0  0  0  0  0  0  0  0  0  # atno 17321 bound_to 7965
  139.5065  144.6815  151.5997 LP  0  0  0  0  0  0  0  0  0  0  0  0  # atno 17342 bound_to 10162
  140.6085  143.9480  150.6436 LP  0  0  0  0  0  0  0  0  0  0  0  0  # atno 17343 bound_to 10162
  156.1928  130.6570  151.1080 LP  0  0  0  0  0  0  0  0  0  0  0  0  # atno 17370 bound_to 10713
  157.7072  131.0751  150.6626 LP  0  0  0  0  0  0  0  0  0  0  0  0  # atno 17371 bound_to 10713
  139.9969  135.0043  157.0103 LP  0  0  0  0  0  0  0  0  0  0  0  0  # atno 17394 bound_to 11000
  140.4834  134.1266  155.7220 LP  0  0  0  0  0  0  0  0  0  0  0  0  # atno 17395 bound_to 11000

$$$$
