AV-unprocessed.smi:1586|AV-procd|sdf|6381|dock7
  -GOLD-   22720 7 13D 1   1.00000     0.00000
 Structure written by MMmdl.
 46 47  0  0  0  0  0  0  0  0  3 V2000
  144.3938  131.5719  150.7624 C   0  0  0  0  0  0  0  0  0  0  0  0
  144.1204  133.0753  150.9147 C   0  0  0  0  0  0  0  0  0  0  0  0
  145.2923  133.8841  150.5706 N   0  0  0  0  0  0  0  0  0  0  0  0
  145.1339  135.3287  150.7740 C   0  0  0  0  0  0  0  0  0  0  0  0
  145.0660  135.7027  152.2689 C   0  0  0  0  0  0  0  0  0  0  0  0
  146.2929  135.2343  152.9730 N   0  3  0  0  0  0  0  0  0  0  0  0
  146.4570  135.6658  154.3959 C   0  0  2  0  0  0  0  0  0  0  0  0
  145.5758  134.8547  155.3791 C   0  0  0  0  0  0  0  0  0  0  0  0
  146.2970  137.2066  154.5212 C   0  0  0  0  0  0  0  0  0  0  0  0
  147.4464  137.9058  153.9439 N   0  5  0  0  0  0  0  0  0  0  0  0
  148.5212  138.3504  154.6526 C   0  0  0  0  0  0  0  0  0  0  0  0
  148.5210  138.8303  155.7927 O   0  0  0  0  0  0  0  0  0  0  0  0
  149.6722  138.2273  153.9669 N   0  0  0  0  0  0  0  0  0  0  0  0
  150.9876  138.5816  154.3678 C   0  0  0  0  0  0  0  0  0  0  0  0
  152.0721  137.6863  154.1676 C   0  0  0  0  0  0  0  0  0  0  0  0
  153.1389  138.3755  154.6717 C   0  0  0  0  0  0  0  0  0  0  0  0
  154.5888  138.0533  154.7935 C   0  0  0  0  0  0  0  0  0  0  0  0
  152.7412  139.5899  155.1380 O   0  0  0  0  0  0  0  0  0  0  0  0
  151.3612  139.7160  154.9410 N   0  0  0  0  0  0  0  0  0  0  0  0
  146.4643  133.7735  152.7737 C   0  0  0  0  0  0  0  0  0  0  0  0
  146.5004  133.4366  151.2681 C   0  0  0  0  0  0  0  0  0  0  0  0
  143.5574  130.9920  151.1530 H   0  0  0  0  0  0  0  0  0  0  0  0
  145.2862  131.2736  151.3137 H   0  0  0  0  0  0  0  0  0  0  0  0
  144.5247  131.2827  149.7199 H   0  0  0  0  0  0  0  0  0  0  0  0
  143.2462  133.3610  150.3309 H   0  0  0  0  0  0  0  0  0  0  0  0
  143.8679  133.2650  151.9588 H   0  0  0  0  0  0  0  0  0  0  0  0
  145.9839  135.8354  150.3148 H   0  0  0  0  0  0  0  0  0  0  0  0
  144.2519  135.6950  150.2504 H   0  0  0  0  0  0  0  0  0  0  0  0
  144.9745  136.7856  152.3549 H   0  0  0  0  0  0  0  0  0  0  0  0
  144.1707  135.2805  152.7250 H   0  0  0  0  0  0  0  0  0  0  0  0
  147.4937  135.4506  154.6600 H   0  0  0  0  0  0  0  0  0  0  0  0
  145.8248  135.0724  156.4193 H   0  0  0  0  0  0  0  0  0  0  0  0
  145.7278  133.7838  155.2439 H   0  0  0  0  0  0  0  0  0  0  0  0
  144.5099  135.0526  155.2540 H   0  0  0  0  0  0  0  0  0  0  0  0
  145.3658  137.5048  154.0368 H   0  0  0  0  0  0  0  0  0  0  0  0
  146.1628  137.4644  155.5718 H   0  0  0  0  0  0  0  0  0  0  0  0
  149.5908  137.8268  153.0443 H   0  0  0  0  0  0  0  0  0  0  0  0
  152.0693  136.7003  153.7275 H   0  0  0  0  0  0  0  0  0  0  0  0
  154.7645  136.9874  154.6476 H   0  0  0  0  0  0  0  0  0  0  0  0
  154.9651  138.3252  155.7799 H   0  0  0  0  0  0  0  0  0  0  0  0
  155.1681  138.5975  154.0475 H   0  0  0  0  0  0  0  0  0  0  0  0
  147.4041  133.4496  153.2222 H   0  0  0  0  0  0  0  0  0  0  0  0
  145.6707  133.2266  153.2839 H   0  0  0  0  0  0  0  0  0  0  0  0
  146.6357  132.3644  151.1223 H   0  0  0  0  0  0  0  0  0  0  0  0
  147.3651  133.9179  150.8091 H   0  0  0  0  0  0  0  0  0  0  0  0
  147.0715  135.6571  152.4880 H   0  0  0  0  0  0  0  0  0  0  0  0
  1  2  1  0  0  0  0
  1 22  1  0  0  0  0
  1 23  1  0  0  0  0
  1 24  1  0  0  0  0
  2  3  1  0  0  0  0
  2 25  1  0  0  0  0
  2 26  1  0  0  0  0
  3 21  1  0  0  0  0
  3  4  1  0  0  0  0
  4  5  1  0  0  0  0
  4 27  1  0  0  0  0
  4 28  1  0  0  0  0
  5  6  1  0  0  0  0
  5 29  1  0  0  0  0
  5 30  1  0  0  0  0
  6  7  1  0  0  0  0
  6 20  1  0  0  0  0
  6 46  1  0  0  0  0
  7  8  1  0  0  0  0
  7  9  1  0  0  0  0
  7 31  1  0  0  0  0
  8 32  1  0  0  0  0
  8 33  1  0  0  0  0
  8 34  1  0  0  0  0
  9 10  1  0  0  0  0
  9 35  1  0  0  0  0
  9 36  1  0  0  0  0
 10 11  1  0  0  0  0
 11 12  2  0  0  0  0
 11 13  1  0  0  0  0
 13 14  1  0  0  0  0
 13 37  1  0  0  0  0
 14 19  2  0  0  0  0
 14 15  1  0  0  0  0
 15 16  2  0  0  0  0
 15 38  1  0  0  0  0
 16 17  1  0  0  0  0
 16 18  1  0  0  0  0
 17 39  1  0  0  0  0
 17 40  1  0  0  0  0
 17 41  1  0  0  0  0
 18 19  1  0  0  0  0
 20 21  1  0  0  0  0
 20 42  1  0  0  0  0
 20 43  1  0  0  0  0
 21 44  1  0  0  0  0
 21 45  1  0  0  0  0
M  CHG  1   6   1
M  CHG  1  10  -1
M  END
> <s_m_source_file>
AV-unprocessed.smi

> <i_m_source_file_index>
1586

> <i_lp_mmshare_version>
43012

> <i_f3d_flags>
0

> <s_epik_input>
W0NIM11bQ0gyXU4xW0NIMl1bQ0gyXU4oW0NIMl1bQ0gyXTEpW0NASF0oW0NIM10pW0NIMl1bTkhdQyg9TylbTkhdYzJbY0hdYyhbQ0gzXSlvbjI=

> <s_epik_cmdline>
J2VwaWtfcHl0aG9uJywgJy1waCcsICc3LjAnLCAnLXRuJywgJzgnLCAnLW1hJywgJzIwMCcsICctbWV0YWxfYmluZGluZycsICctaW1hZScsICc8aW5maWxlLm1hZT4nLCAnLW9tYWUnLCAnPG91dGZpbGUubWFlPic=

> <r_epik_Ionization_Penalty>
6.72969

> <r_epik_Ionization_Penalty_Charging>
6.72741

> <r_epik_Ionization_Penalty_Neutral>
0.00227419

> <r_epik_State_Penalty>
7.72748

> <r_epik_Charging_Adjusted_Penalty>
14.4549

> <i_epik_Tot_Q>
0

> <i_epik_Tot_abs_Q>
2

> <r_epik_Metal_State_Penalty>
3.65268

> <b_epik_Metal_Only>
1

> <s_lp_Force_Field>
OPLS_2005

> <r_lp_Energy>
18.0395

> <b_lp_Chiralities_Consistent>
1

> <s_lp_Variant>
AV-unprocessed.smi:1586-9

> <Gold.Version>
5.8.1

> <Gold.Id.Protein>
6NUR|6NUR_protein|mol2

> <Gold.PLP.Fitness>
40.1168

> <Gold.PLP.PLP>
-28.6790

> <Gold.PLP.part.hbond>
-5.2707

> <Gold.PLP.part.metal>
0.0000

> <Gold.PLP.part.buried>
-1.9722

> <Gold.PLP.part.nonpolar>
-24.4502

> <Gold.PLP.part.repulsive>
1.0048

> <Gold.PLP.ligand.clash>
0.0000

> <Gold.PLP.ligand.torsion>
1.0873

> <Gold.PLP.Chemscore.Hbond>
4.4516

> <Gold.PLP.Chemscore.CHOScore>
0.0000

> <Gold.PLP.Chemscore.Metal>
0.0000

> <Gold.Chemscore.Hbonds>
donor molecule, donor type, donor heavy atom, donor atom, acceptor molecule, acceptor atom, score
      L1  H     6    46       P1  7948  1.92
      L1  H    13    37       P1  7948  0.94
      P1  H  7989  7998       L1    19  0.55
      P1  H  7997  8010       L1    18  1.00

> <Gold.PLP.Chemscore.Internal.Correction>
0.2576

> <Gold.Rescore>
     Score         DG    S(hbond)    S(metal)    S(lipo)     H(rot)  DE(clash)    DE(int)     intcor
     13.40     -16.05       2.05        0.00      69.62       1.73       0.80       1.85       ----

> <Gold.Chemscore.Fitness>
13.4025

> <Gold.Chemscore.DG>
-16.0452

> <Gold.Chemscore.ZeroCoef>
-5.4800

> <Gold.Chemscore.Hbond>
2.0466

> <Gold.Chemscore.Metal>
0.0000

> <Gold.Chemscore.Lipo>
69.6214

> <Gold.Chemscore.Internal_Hbond>
0.0000

> <Gold.Chemscore.DEClash>
0.7950

> <Gold.Chemscore.DEInternal>
1.8477

> <Gold.Chemscore.Rot>
1.7250

> <Gold.Chemscore.Internal.Correction>
   9.000000E+99

> <Gold.Chemscore.Hbonds>
donor molecule, donor type, donor heavy atom, donor atom, acceptor molecule, acceptor atom, score
      L1  H     6    46       P1  7948  0.91
      L1  H    13    37       P1  7948  0.67
      P1  H  7989  7998       L1    19  0.01
      P1  H  7997  8010       L1    18  0.29

> <Gold.Chemscore.Hbond.Weighted>
-6.8356

> <Gold.Chemscore.Metal.Weighted>
-0.0000

> <Gold.Chemscore.Lipo.Weighted>
-8.1457

> <Gold.Chemscore.Internal_Hbond.Weighted>
0.0000

> <Gold.Chemscore.DEClash.Weighted>
0.7950

> <Gold.Chemscore.DEInternal.Weighted>
1.8477

> <Gold.Chemscore.Rot.Weighted>
4.4161

> <Gold.Chemscore.Internal.Correction.Weighted>
   9.000000E+99

> <Gold.Protein.RotatedTorsions>
[ 6907 6896 6895 6894 ] final -148.76 input  -60.11 | X-H torsion
[ 7974 7965 7964 7962 ] final   27.32 input  175.53 | X-H torsion
[ 8008 7997 7996 7995 ] final   89.90 input   59.86 | X-H torsion
[ 10167 10162 10161 10158 ] final  -21.55 input  -65.29 | X-H torsion
[ 10718 10713 10712 10709 ] final  -34.12 input   66.30 | X-H torsion
[ 10763 10752 10751 10750 ] final  -90.94 input  -60.55 | X-H torsion
[ 11005 11000 10999 10996 ] final   91.50 input  -57.11 | X-H torsion

> <Gold.Protein.ActiveResidues>
 VAL166  LYS551  ARG553  GLY616  TRP617  ASP618  TYR619  PRO620  LYS621  CYS622 
 ASP623  PHE694  ASN695  SER759  ASP760  ASP761  ALA762  ILE779  LEU786  VAL792 
 PHE793  MET794  SER795  GLU796  ALA797  LYS798  CYS799  TRP800  GLU811  SER814 

> <Gold.Protein.RotatedAtoms>
  151.1745  133.4763  159.2593 H   0  0  0  0  0  0  0  0  0  0  0  0  # atno 6907 bound_to 6896
  151.1322  135.0136  159.8597 H   0  0  0  0  0  0  0  0  0  0  0  0  # atno 6908 bound_to 6896
  152.5460  134.1647  159.8625 H   0  0  0  0  0  0  0  0  0  0  0  0  # atno 6909 bound_to 6896
  146.1791  139.7208  142.8913 H   0  0  0  0  0  0  0  0  0  0  0  0  # atno 7974 bound_to 7965
  156.0056  140.3355  155.6889 H   0  0  0  0  0  0  0  0  0  0  0  0  # atno 8008 bound_to 7997
  155.6230  140.0677  157.2690 H   0  0  0  0  0  0  0  0  0  0  0  0  # atno 8009 bound_to 7997
  154.4263  140.1773  156.1379 H   0  0  0  0  0  0  0  0  0  0  0  0  # atno 8010 bound_to 7997
  140.7282  143.4618  151.0369 H   0  0  0  0  0  0  0  0  0  0  0  0  # atno 10167 bound_to 10162
  156.3544  130.4313  149.7676 H   0  0  0  0  0  0  0  0  0  0  0  0  # atno 10718 bound_to 10713
  154.6709  135.5286  153.8138 H   0  0  0  0  0  0  0  0  0  0  0  0  # atno 10763 bound_to 10752
  153.0501  135.6529  154.0725 H   0  0  0  0  0  0  0  0  0  0  0  0  # atno 10764 bound_to 10752
  154.0624  135.2960  155.3302 H   0  0  0  0  0  0  0  0  0  0  0  0  # atno 10765 bound_to 10752
  139.8838  134.8678  156.3437 H   0  0  0  0  0  0  0  0  0  0  0  0  # atno 11005 bound_to 11000
  145.4128  141.0398  143.3007 LP  0  0  0  0  0  0  0  0  0  0  0  0  # atno 17320 bound_to 7965
  144.8284  139.5670  143.6955 LP  0  0  0  0  0  0  0  0  0  0  0  0  # atno 17321 bound_to 7965
  139.8303  143.7700  152.3179 LP  0  0  0  0  0  0  0  0  0  0  0  0  # atno 17342 bound_to 10162
  139.7813  144.7443  151.0084 LP  0  0  0  0  0  0  0  0  0  0  0  0  # atno 17343 bound_to 10162
  156.4864  130.8065  151.3077 LP  0  0  0  0  0  0  0  0  0  0  0  0  # atno 17370 bound_to 10713
  157.7465  130.9989  150.2870 LP  0  0  0  0  0  0  0  0  0  0  0  0  # atno 17371 bound_to 10713
  140.9641  133.7369  156.0442 LP  0  0  0  0  0  0  0  0  0  0  0  0  # atno 17394 bound_to 11000
  140.7953  134.3571  157.5454 LP  0  0  0  0  0  0  0  0  0  0  0  0  # atno 17395 bound_to 11000

$$$$
