AV-unprocessed.smi:2780|AV-procd|sdf|10716|dock10
  -GOLD-   2272015153D 1   1.00000     0.00000
 Structure written by MMmdl.
 47 49  0  0  0  0  0  0  0  0  2 V2000
  153.7819  140.5191  160.2896 C   0  0  0  0  0  0  0  0  0  0  0  0
  153.1207  141.8854  160.3556 C   0  0  0  0  0  0  0  0  0  0  0  0
  152.8427  142.4706  161.5371 C   0  0  0  0  0  0  0  0  0  0  0  0
  152.2240  143.8471  161.6947 C   0  0  0  0  0  0  0  0  0  0  0  0
  151.7319  144.4376  160.3639 C   0  0  0  0  0  0  0  0  0  0  0  0
  152.6931  144.1046  159.2086 C   0  0  2  0  0  0  0  0  0  0  0  0
  152.3500  144.8985  157.9366 C   0  0  0  0  0  0  0  0  0  0  0  0
  152.8337  142.5636  159.0129 C   0  0  2  0  0  0  0  0  0  0  0  0
  151.6208  141.8862  158.3247 C   0  0  0  0  0  0  0  0  0  0  0  0
  152.0080  140.6858  157.5569 N   0  3  0  0  0  0  0  0  0  0  0  0
  151.3050  140.5415  156.2682 C   0  0  0  0  0  0  0  0  0  0  0  0
  149.7838  140.5705  156.4676 C   0  0  0  0  0  0  0  0  0  0  0  0
  149.0806  140.1017  155.2877 N   0  0  0  0  0  0  0  0  0  0  0  0
  149.2431  138.9471  154.6235 C   0  0  0  0  0  0  0  0  0  0  0  0
  148.4334  138.7790  153.5792 N   0  0  0  0  0  0  0  0  0  0  0  0
  147.6648  139.9253  153.5472 N   0  0  0  0  0  0  0  0  0  0  0  0
  148.0973  140.6781  154.5654 C   0  0  0  0  0  0  0  0  0  0  0  0
  147.5107  142.0084  154.9185 C   0  0  0  0  0  0  0  0  0  0  0  0
  146.0913  142.1248  155.4290 C   0  0  0  0  0  0  0  0  0  0  0  0
  146.4406  142.6475  154.0604 C   0  0  0  0  0  0  0  0  0  0  0  0
  154.7196  140.5793  159.7366 H   0  0  0  0  0  0  0  0  0  0  0  0
  153.1400  139.7893  159.7976 H   0  0  0  0  0  0  0  0  0  0  0  0
  154.0074  140.1398  161.2869 H   0  0  0  0  0  0  0  0  0  0  0  0
  153.0891  141.9604  162.4572 H   0  0  0  0  0  0  0  0  0  0  0  0
  151.4028  143.7974  162.4102 H   0  0  0  0  0  0  0  0  0  0  0  0
  152.9823  144.4987  162.1298 H   0  0  0  0  0  0  0  0  0  0  0  0
  150.7355  144.0562  160.1403 H   0  0  0  0  0  0  0  0  0  0  0  0
  151.6219  145.5175  160.4704 H   0  0  0  0  0  0  0  0  0  0  0  0
  153.6776  144.4633  159.5149 H   0  0  0  0  0  0  0  0  0  0  0  0
  151.3267  144.7158  157.6081 H   0  0  0  0  0  0  0  0  0  0  0  0
  153.0250  144.6470  157.1182 H   0  0  0  0  0  0  0  0  0  0  0  0
  152.4423  145.9704  158.1146 H   0  0  0  0  0  0  0  0  0  0  0  0
  153.7142  142.3933  158.3911 H   0  0  0  0  0  0  0  0  0  0  0  0
  150.8877  141.5632  159.0628 H   0  0  0  0  0  0  0  0  0  0  0  0
  151.1053  142.5924  157.6739 H   0  0  0  0  0  0  0  0  0  0  0  0
  153.0000  140.7361  157.3730 H   0  0  0  0  0  0  0  0  0  0  0  0
  151.6117  141.3440  155.5962 H   0  0  0  0  0  0  0  0  0  0  0  0
  151.6050  139.6006  155.8055 H   0  0  0  0  0  0  0  0  0  0  0  0
  149.4943  139.9536  157.3182 H   0  0  0  0  0  0  0  0  0  0  0  0
  149.4503  141.5851  156.6896 H   0  0  0  0  0  0  0  0  0  0  0  0
  149.9691  138.2029  154.9166 H   0  0  0  0  0  0  0  0  0  0  0  0
  148.2631  142.6545  155.3664 H   0  0  0  0  0  0  0  0  0  0  0  0
  145.4923  141.2173  155.4801 H   0  0  0  0  0  0  0  0  0  0  0  0
  145.8984  142.8551  156.2120 H   0  0  0  0  0  0  0  0  0  0  0  0
  146.4826  143.7267  153.9283 H   0  0  0  0  0  0  0  0  0  0  0  0
  146.0705  142.0863  153.2044 H   0  0  0  0  0  0  0  0  0  0  0  0
  151.8256  139.8688  158.1220 H   0  0  0  0  0  0  0  0  0  0  0  0
  1  2  1  0  0  0  0
  1 21  1  0  0  0  0
  1 22  1  0  0  0  0
  1 23  1  0  0  0  0
  2  8  1  0  0  0  0
  2  3  2  0  0  0  0
  3  4  1  0  0  0  0
  3 24  1  0  0  0  0
  4  5  1  0  0  0  0
  4 25  1  0  0  0  0
  4 26  1  0  0  0  0
  5  6  1  0  0  0  0
  5 27  1  0  0  0  0
  5 28  1  0  0  0  0
  6  7  1  0  0  0  0
  6  8  1  0  0  0  0
  6 29  1  0  0  0  0
  7 30  1  0  0  0  0
  7 31  1  0  0  0  0
  7 32  1  0  0  0  0
  8  9  1  0  0  0  0
  8 33  1  0  0  0  0
  9 10  1  0  0  0  0
  9 34  1  0  0  0  0
  9 35  1  0  0  0  0
 10 11  1  0  0  0  0
 10 36  1  0  0  0  0
 10 47  1  0  0  0  0
 11 12  1  0  0  0  0
 11 37  1  0  0  0  0
 11 38  1  0  0  0  0
 12 13  1  0  0  0  0
 12 39  1  0  0  0  0
 12 40  1  0  0  0  0
 13 17  1  0  0  0  0
 13 14  1  0  0  0  0
 14 15  2  0  0  0  0
 14 41  1  0  0  0  0
 15 16  1  0  0  0  0
 16 17  2  0  0  0  0
 17 18  1  0  0  0  0
 18 20  1  0  0  0  0
 18 19  1  0  0  0  0
 18 42  1  0  0  0  0
 19 20  1  0  0  0  0
 19 43  1  0  0  0  0
 19 44  1  0  0  0  0
 20 45  1  0  0  0  0
 20 46  1  0  0  0  0
M  CHG  1  10   1
M  END
> <s_m_source_file>
AV-unprocessed.smi

> <i_m_source_file_index>
2780

> <i_lp_mmshare_version>
43012

> <i_f3d_flags>
0

> <s_epik_input>
W0NIM11DMT1bQ0hdW0NIMl1bQ0gyXVtDQEBIXShbQ0gzXSlbQ0BIXTFbQ0gyXVtOSF1bQ0gyXVtDSDJdbjJbY0hdbm5jMltDSF0zW0NIMl1bQ0gyXTM=

> <s_epik_cmdline>
J2VwaWtfcHl0aG9uJywgJy1waCcsICc3LjAnLCAnLXRuJywgJzgnLCAnLW1hJywgJzIwMCcsICctbWV0YWxfYmluZGluZycsICctaW1hZScsICc8aW5maWxlLm1hZT4nLCAnLW9tYWUnLCAnPG91dGZpbGUubWFlPic=

> <r_lp_tautomer_probability>
1

> <r_epik_Ionization_Penalty>
0.00176214

> <r_epik_Ionization_Penalty_Charging>
0.00175191

> <r_epik_Ionization_Penalty_Neutral>
1.02377e-05

> <r_epik_State_Penalty>
-0

> <r_epik_Charging_Adjusted_Penalty>
0.00175191

> <i_epik_Tot_Q>
1

> <i_epik_Tot_abs_Q>
1

> <r_epik_Metal_State_Penalty>
-0

> <b_epik_Metal_Only>
0

> <s_lp_Force_Field>
OPLS_2005

> <r_lp_Energy>
23.8201

> <b_lp_Chiralities_Consistent>
1

> <s_lp_Variant>
AV-unprocessed.smi:2780-4

> <Gold.Version>
5.8.1

> <Gold.Id.Protein>
6NUR|6NUR_protein|mol2

> <Gold.PLP.Fitness>
46.9183

> <Gold.PLP.PLP>
-48.2154

> <Gold.PLP.part.hbond>
0.0000

> <Gold.PLP.part.metal>
0.0000

> <Gold.PLP.part.buried>
-6.7978

> <Gold.PLP.part.nonpolar>
-43.1716

> <Gold.PLP.part.repulsive>
2.2038

> <Gold.PLP.ligand.clash>
0.0000

> <Gold.PLP.ligand.torsion>
0.7632

> <Gold.PLP.Chemscore.Hbond>
0.0000

> <Gold.PLP.Chemscore.CHOScore>
0.0000

> <Gold.PLP.Chemscore.Metal>
0.0000

> <Gold.PLP.Chemscore.Internal.Correction>
0.2293

> <Gold.Rescore>
     Score         DG    S(hbond)    S(metal)    S(lipo)     H(rot)  DE(clash)    DE(int)     intcor
     15.10     -15.82       0.00        0.00     131.70       1.98       0.02       0.70       ----

> <Gold.Chemscore.Fitness>
15.1000

> <Gold.Chemscore.DG>
-15.8209

> <Gold.Chemscore.ZeroCoef>
-5.4800

> <Gold.Chemscore.Hbond>
0.0000

> <Gold.Chemscore.Metal>
0.0000

> <Gold.Chemscore.Lipo>
131.7044

> <Gold.Chemscore.Internal_Hbond>
0.0000

> <Gold.Chemscore.DEClash>
0.0221

> <Gold.Chemscore.DEInternal>
0.6988

> <Gold.Chemscore.Rot>
1.9799

> <Gold.Chemscore.Internal.Correction>
   9.000000E+99

> <Gold.Chemscore.Hbond.Weighted>
-0.0000

> <Gold.Chemscore.Metal.Weighted>
-0.0000

> <Gold.Chemscore.Lipo.Weighted>
-15.4094

> <Gold.Chemscore.Internal_Hbond.Weighted>
0.0000

> <Gold.Chemscore.DEClash.Weighted>
0.0221

> <Gold.Chemscore.DEInternal.Weighted>
0.6988

> <Gold.Chemscore.Rot.Weighted>
5.0685

> <Gold.Chemscore.Internal.Correction.Weighted>
   9.000000E+99

> <Gold.Protein.RotatedTorsions>
[ 6907 6896 6895 6894 ] final   54.45 input  -60.11 | X-H torsion
[ 7974 7965 7964 7962 ] final   89.48 input  175.53 | X-H torsion
[ 8008 7997 7996 7995 ] final  -96.62 input   59.86 | X-H torsion
[ 10167 10162 10161 10158 ] final -141.07 input  -65.29 | X-H torsion
[ 10718 10713 10712 10709 ] final   12.13 input   66.30 | X-H torsion
[ 10763 10752 10751 10750 ] final   36.90 input  -60.55 | X-H torsion
[ 11005 11000 10999 10996 ] final    4.20 input  -57.11 | X-H torsion

> <Gold.Protein.ActiveResidues>
 VAL166  LYS551  ARG553  GLY616  TRP617  ASP618  TYR619  PRO620  LYS621  CYS622 
 ASP623  PHE694  ASN695  SER759  ASP760  ASP761  ALA762  ILE779  LEU786  VAL792 
 PHE793  MET794  SER795  GLU796  ALA797  LYS798  CYS799  TRP800  GLU811  SER814 

> <Gold.Protein.RotatedAtoms>
  152.3440  134.7097  160.0255 H   0  0  0  0  0  0  0  0  0  0  0  0  # atno 6907 bound_to 6896
  151.7472  133.3320  159.3390 H   0  0  0  0  0  0  0  0  0  0  0  0  # atno 6908 bound_to 6896
  150.7497  134.6157  159.6154 H   0  0  0  0  0  0  0  0  0  0  0  0  # atno 6909 bound_to 6896
  145.5318  139.2283  143.2614 H   0  0  0  0  0  0  0  0  0  0  0  0  # atno 7974 bound_to 7965
  154.7769  140.0470  157.1096 H   0  0  0  0  0  0  0  0  0  0  0  0  # atno 8008 bound_to 7997
  154.9752  140.3094  155.4951 H   0  0  0  0  0  0  0  0  0  0  0  0  # atno 8009 bound_to 7997
  156.2930  140.2246  156.4847 H   0  0  0  0  0  0  0  0  0  0  0  0  # atno 8010 bound_to 7997
  139.8221  143.7560  152.2666 H   0  0  0  0  0  0  0  0  0  0  0  0  # atno 10167 bound_to 10162
  157.0056  130.6097  149.5701 H   0  0  0  0  0  0  0  0  0  0  0  0  # atno 10718 bound_to 10713
  153.0058  135.6293  154.2060 H   0  0  0  0  0  0  0  0  0  0  0  0  # atno 10763 bound_to 10752
  154.1803  135.2814  155.3056 H   0  0  0  0  0  0  0  0  0  0  0  0  # atno 10764 bound_to 10752
  154.5840  135.5638  153.7272 H   0  0  0  0  0  0  0  0  0  0  0  0  # atno 10765 bound_to 10752
  140.5845  133.9981  155.8062 H   0  0  0  0  0  0  0  0  0  0  0  0  # atno 11005 bound_to 11000
  146.2039  140.6134  142.9090 LP  0  0  0  0  0  0  0  0  0  0  0  0  # atno 17320 bound_to 7965
  144.7622  140.5448  143.6728 LP  0  0  0  0  0  0  0  0  0  0  0  0  # atno 17321 bound_to 7965
  139.7742  144.7466  151.0181 LP  0  0  0  0  0  0  0  0  0  0  0  0  # atno 17342 bound_to 10162
  140.7812  143.4612  151.0275 LP  0  0  0  0  0  0  0  0  0  0  0  0  # atno 17343 bound_to 10162
  156.0155  130.5249  150.8120 LP  0  0  0  0  0  0  0  0  0  0  0  0  # atno 17370 bound_to 10713
  157.5358  131.0938  150.9894 LP  0  0  0  0  0  0  0  0  0  0  0  0  # atno 17371 bound_to 10713
  141.0974  133.9821  157.3136 LP  0  0  0  0  0  0  0  0  0  0  0  0  # atno 17394 bound_to 11000
  139.9302  135.0200  156.8373 LP  0  0  0  0  0  0  0  0  0  0  0  0  # atno 17395 bound_to 11000

$$$$
