AV-unprocessed.smi:153|AV-procd|sdf|1260|dock4
  -GOLD-   2262018503D 1   1.00000     0.00000
 Structure written by MMmdl.
 59 62  0  0  0  0  0  0  0  0  1 V2000
  148.0760  136.7367  163.6332 C   0  0  0  0  0  0  0  0  0  0  0  0
  147.8508  136.5474  162.1202 C   0  0  2  0  0  0  0  0  0  0  0  0
  146.9115  137.5314  161.7006 O   0  0  0  0  0  0  0  0  0  0  0  0
  145.5886  137.0025  161.7330 C   0  0  0  0  0  0  0  0  0  0  0  0
  145.7268  135.4915  161.9379 C   0  0  0  0  0  0  0  0  0  0  0  0
  147.2078  135.2077  161.7035 C   0  0  2  0  0  0  0  0  0  0  0  0
  147.6227  134.1432  162.5393 O   0  0  0  0  0  0  0  0  0  0  0  0
  147.5478  134.7741  160.2505 C   0  0  0  0  0  0  0  0  0  0  0  0
  147.5781  135.8561  159.2782 N   0  0  0  0  0  0  0  0  0  0  0  0
  146.5357  136.2846  158.4914 C   0  0  0  0  0  0  0  0  0  0  0  0
  146.8211  137.2677  157.6854 N   0  0  0  0  0  0  0  0  0  0  0  0
  148.1586  137.5592  157.9370 C   0  0  0  0  0  0  0  0  0  0  0  0
  149.1032  138.5017  157.4179 C   0  0  0  0  0  0  0  0  0  0  0  0
  148.8557  139.4045  156.4205 N   0  0  0  0  0  0  0  0  0  0  0  0
  147.7939  139.1125  155.4588 C   0  0  0  0  0  0  0  0  0  0  0  0
  149.2271  140.8094  156.5846 C   0  0  0  0  0  0  0  0  0  0  0  0
  150.6824  141.1032  156.1512 C   0  0  2  0  0  0  0  0  0  0  0  0
  151.1046  140.1638  155.1838 O   0  0  0  0  0  0  0  0  0  0  0  0
  151.6946  141.1240  157.3186 C   0  0  0  0  0  0  0  0  0  0  0  0
  151.5654  142.2145  158.2889 N   0  0  0  0  0  0  0  0  0  0  0  0
  151.6346  143.5111  157.6233 C   0  0  0  0  0  0  0  0  0  0  0  0
  151.4926  144.6779  158.6157 C   0  0  0  0  0  0  0  0  0  0  0  0
  152.4968  144.5730  159.6194 O   0  0  0  0  0  0  0  0  0  0  0  0
  152.4372  143.3393  160.3271 C   0  0  0  0  0  0  0  0  0  0  0  0
  152.5796  142.1677  159.3398 C   0  0  0  0  0  0  0  0  0  0  0  0
  150.3474  138.4787  157.9706 N   0  0  0  0  0  0  0  0  0  0  0  0
  150.6613  137.6073  158.9313 C   0  0  0  0  0  0  0  0  0  0  0  0
  149.8937  136.6730  159.4893 N   0  0  0  0  0  0  0  0  0  0  0  0
  148.6394  136.6851  158.9573 C   0  0  0  0  0  0  0  0  0  0  0  0
  148.8200  136.0373  164.0148 H   0  0  0  0  0  0  0  0  0  0  0  0
  147.1579  136.5925  164.2029 H   0  0  0  0  0  0  0  0  0  0  0  0
  148.4392  137.7426  163.8440 H   0  0  0  0  0  0  0  0  0  0  0  0
  148.8025  136.7035  161.6121 H   0  0  0  0  0  0  0  0  0  0  0  0
  145.0176  137.4587  162.5418 H   0  0  0  0  0  0  0  0  0  0  0  0
  145.0856  137.2369  160.7946 H   0  0  0  0  0  0  0  0  0  0  0  0
  145.4533  135.2552  162.9675 H   0  0  0  0  0  0  0  0  0  0  0  0
  145.0669  134.9111  161.2937 H   0  0  0  0  0  0  0  0  0  0  0  0
  148.1830  133.5696  162.0389 H   0  0  0  0  0  0  0  0  0  0  0  0
  148.5204  134.2803  160.2292 H   0  0  0  0  0  0  0  0  0  0  0  0
  146.8276  134.0312  159.9050 H   0  0  0  0  0  0  0  0  0  0  0  0
  145.5535  135.8365  158.5247 H   0  0  0  0  0  0  0  0  0  0  0  0
  147.9852  138.1710  154.9428 H   0  0  0  0  0  0  0  0  0  0  0  0
  147.7237  139.8923  154.7005 H   0  0  0  0  0  0  0  0  0  0  0  0
  146.8274  139.0475  155.9599 H   0  0  0  0  0  0  0  0  0  0  0  0
  148.5202  141.4322  156.0417 H   0  0  0  0  0  0  0  0  0  0  0  0
  149.0866  141.1039  157.6253 H   0  0  0  0  0  0  0  0  0  0  0  0
  150.7379  142.0816  155.6728 H   0  0  0  0  0  0  0  0  0  0  0  0
  150.6669  139.3440  155.3539 H   0  0  0  0  0  0  0  0  0  0  0  0
  151.6967  140.1603  157.8305 H   0  0  0  0  0  0  0  0  0  0  0  0
  152.6818  141.2055  156.8612 H   0  0  0  0  0  0  0  0  0  0  0  0
  152.5835  143.6042  157.0926 H   0  0  0  0  0  0  0  0  0  0  0  0
  150.8486  143.5835  156.8708 H   0  0  0  0  0  0  0  0  0  0  0  0
  151.6034  145.6311  158.0987 H   0  0  0  0  0  0  0  0  0  0  0  0
  150.5039  144.6753  159.0770 H   0  0  0  0  0  0  0  0  0  0  0  0
  153.2384  143.3122  161.0657 H   0  0  0  0  0  0  0  0  0  0  0  0
  151.4949  143.2711  160.8732 H   0  0  0  0  0  0  0  0  0  0  0  0
  152.5027  141.2363  159.8990 H   0  0  0  0  0  0  0  0  0  0  0  0
  153.5758  142.1870  158.8952 H   0  0  0  0  0  0  0  0  0  0  0  0
  151.6739  137.6650  159.3022 H   0  0  0  0  0  0  0  0  0  0  0  0
  1  2  1  0  0  0  0
  1 30  1  0  0  0  0
  1 31  1  0  0  0  0
  1 32  1  0  0  0  0
  2  6  1  0  0  0  0
  2  3  1  0  0  0  0
  2 33  1  0  0  0  0
  3  4  1  0  0  0  0
  4  5  1  0  0  0  0
  4 34  1  0  0  0  0
  4 35  1  0  0  0  0
  5  6  1  0  0  0  0
  5 36  1  0  0  0  0
  5 37  1  0  0  0  0
  6  7  1  0  0  0  0
  6  8  1  0  0  0  0
  7 38  1  0  0  0  0
  8  9  1  0  0  0  0
  8 39  1  0  0  0  0
  8 40  1  0  0  0  0
  9 29  1  0  0  0  0
  9 10  1  0  0  0  0
 10 11  2  0  0  0  0
 10 41  1  0  0  0  0
 11 12  1  0  0  0  0
 12 29  2  0  0  0  0
 12 13  1  0  0  0  0
 13 14  1  0  0  0  0
 13 26  2  0  0  0  0
 14 15  1  0  0  0  0
 14 16  1  0  0  0  0
 15 42  1  0  0  0  0
 15 43  1  0  0  0  0
 15 44  1  0  0  0  0
 16 17  1  0  0  0  0
 16 45  1  0  0  0  0
 16 46  1  0  0  0  0
 17 18  1  0  0  0  0
 17 19  1  0  0  0  0
 17 47  1  0  0  0  0
 18 48  1  0  0  0  0
 19 20  1  0  0  0  0
 19 49  1  0  0  0  0
 19 50  1  0  0  0  0
 20 25  1  0  0  0  0
 20 21  1  0  0  0  0
 21 22  1  0  0  0  0
 21 51  1  0  0  0  0
 21 52  1  0  0  0  0
 22 23  1  0  0  0  0
 22 53  1  0  0  0  0
 22 54  1  0  0  0  0
 23 24  1  0  0  0  0
 24 25  1  0  0  0  0
 24 55  1  0  0  0  0
 24 56  1  0  0  0  0
 25 57  1  0  0  0  0
 25 58  1  0  0  0  0
 26 27  1  0  0  0  0
 27 28  2  0  0  0  0
 27 59  1  0  0  0  0
 28 29  1  0  0  0  0
M  END
> <s_m_source_file>
AV-unprocessed.smi

> <i_m_source_file_index>
153

> <i_lp_mmshare_version>
43012

> <i_f3d_flags>
0

> <s_epik_input>
W0NIMl0xW0NIMl1PW0NAQEhdKFtDSDNdKVtDQEBdMShbT0hdKVtDSDJdbihbY0hdbjIpYyhjMjMpbltjSF1uYzNOKFtDSDNdKVtDSDJdW0NASF0oW09IXSlbQ0gyXU40W0NIMl1bQ0gyXU9bQ0gyXVtDSDJdNA==

> <s_epik_cmdline>
J2VwaWtfcHl0aG9uJywgJy1waCcsICc3LjAnLCAnLXRuJywgJzgnLCAnLW1hJywgJzIwMCcsICctbWV0YWxfYmluZGluZycsICctaW1hZScsICc8aW5maWxlLm1hZT4nLCAnLW9tYWUnLCAnPG91dGZpbGUubWFlPic=

> <r_lp_tautomer_probability>
1

> <r_epik_Ionization_Penalty>
0.424123

> <r_epik_Ionization_Penalty_Charging>
0

> <r_epik_Ionization_Penalty_Neutral>
0.424123

> <r_epik_State_Penalty>
0.421495

> <r_epik_Charging_Adjusted_Penalty>
0.421495

> <i_epik_Tot_Q>
0

> <i_epik_Tot_abs_Q>
0

> <r_epik_Metal_State_Penalty>
0.421223

> <b_epik_Metal_Only>
0

> <s_lp_Force_Field>
OPLS_2005

> <r_lp_Energy>
59.2369

> <b_lp_Chiralities_Consistent>
1

> <s_lp_Variant>
AV-unprocessed.smi:153-11

> <Gold.Version>
5.8.1

> <Gold.Id.Protein>
6NUR|6NUR_protein|mol2

> <Gold.PLP.Fitness>
49.7359

> <Gold.PLP.PLP>
-44.1722

> <Gold.PLP.part.hbond>
-3.7971

> <Gold.PLP.part.metal>
0.0000

> <Gold.PLP.part.buried>
-7.7340

> <Gold.PLP.part.nonpolar>
-33.1902

> <Gold.PLP.part.repulsive>
0.0493

> <Gold.PLP.ligand.clash>
0.0000

> <Gold.PLP.ligand.torsion>
1.8904

> <Gold.PLP.Chemscore.Hbond>
2.9440

> <Gold.PLP.Chemscore.CHOScore>
0.0000

> <Gold.PLP.Chemscore.Metal>
0.0000

> <Gold.Chemscore.Hbonds>
donor molecule, donor type, donor heavy atom, donor atom, acceptor molecule, acceptor atom, score
      P1  H  6896  6907       L1    28  0.94
      P1  H  6934  6947       L1     3  0.91
      P1  H  7989  7998       L1    18  1.00

> <Gold.PLP.Chemscore.Internal.Correction>
0.5125

> <Gold.Rescore>
     Score         DG    S(hbond)    S(metal)    S(lipo)     H(rot)  DE(clash)    DE(int)     intcor
     14.29     -18.36       2.71        0.00     109.67       3.52       0.14       3.93       ----

> <Gold.Chemscore.Fitness>
14.2933

> <Gold.Chemscore.DG>
-18.3560

> <Gold.Chemscore.ZeroCoef>
-5.4800

> <Gold.Chemscore.Hbond>
2.7092

> <Gold.Chemscore.Metal>
0.0000

> <Gold.Chemscore.Lipo>
109.6653

> <Gold.Chemscore.Internal_Hbond>
0.0000

> <Gold.Chemscore.DEClash>
0.1368

> <Gold.Chemscore.DEInternal>
3.9258

> <Gold.Chemscore.Rot>
3.5170

> <Gold.Chemscore.Internal.Correction>
   9.000000E+99

> <Gold.Chemscore.Hbonds>
donor molecule, donor type, donor heavy atom, donor atom, acceptor molecule, acceptor atom, score
      P1  H  6896  6907       L1    28  0.76
      P1  H  6934  6947       L1     3  0.85
      P1  H  7989  7998       L1    18  0.91

> <Gold.Chemscore.Hbond.Weighted>
-9.0488

> <Gold.Chemscore.Metal.Weighted>
-0.0000

> <Gold.Chemscore.Lipo.Weighted>
-12.8308

> <Gold.Chemscore.Internal_Hbond.Weighted>
0.0000

> <Gold.Chemscore.DEClash.Weighted>
0.1368

> <Gold.Chemscore.DEInternal.Weighted>
3.9258

> <Gold.Chemscore.Rot.Weighted>
9.0036

> <Gold.Chemscore.Internal.Correction.Weighted>
   9.000000E+99

> <Gold.Protein.RotatedTorsions>
[ 6907 6896 6895 6894 ] final  -51.62 input  -60.11 | X-H torsion
[ 7974 7965 7964 7962 ] final -171.23 input  175.53 | X-H torsion
[ 8008 7997 7996 7995 ] final   29.66 input   59.86 | X-H torsion
[ 10167 10162 10161 10158 ] final   24.20 input  -65.29 | X-H torsion
[ 10718 10713 10712 10709 ] final   97.05 input   66.30 | X-H torsion
[ 10763 10752 10751 10750 ] final -131.73 input  -60.55 | X-H torsion
[ 11005 11000 10999 10996 ] final  105.63 input  -57.11 | X-H torsion

> <Gold.Protein.ActiveResidues>
 VAL166  LYS551  ARG553  GLY616  TRP617  ASP618  TYR619  PRO620  LYS621  CYS622 
 ASP623  PHE694  ASN695  SER759  ASP760  ASP761  ALA762  ILE779  LEU786  VAL792 
 PHE793  MET794  SER795  GLU796  ALA797  LYS798  CYS799  TRP800  GLU811  SER814 

> <Gold.Protein.RotatedAtoms>
  150.8594  134.7942  159.7070 H   0  0  0  0  0  0  0  0  0  0  0  0  # atno 6907 bound_to 6896
  152.4636  134.5124  159.9768 H   0  0  0  0  0  0  0  0  0  0  0  0  # atno 6908 bound_to 6896
  151.5231  133.3424  159.2940 H   0  0  0  0  0  0  0  0  0  0  0  0  # atno 6909 bound_to 6896
  144.7159  140.1953  143.6344 H   0  0  0  0  0  0  0  0  0  0  0  0  # atno 7974 bound_to 7965
  155.0780  140.3207  155.4610 H   0  0  0  0  0  0  0  0  0  0  0  0  # atno 8008 bound_to 7997
  156.2774  140.2100  156.5853 H   0  0  0  0  0  0  0  0  0  0  0  0  # atno 8009 bound_to 7997
  154.7001  140.0508  157.0437 H   0  0  0  0  0  0  0  0  0  0  0  0  # atno 8010 bound_to 7997
  140.5207  144.0007  150.6415 H   0  0  0  0  0  0  0  0  0  0  0  0  # atno 10167 bound_to 10162
  157.6918  131.0597  150.4585 H   0  0  0  0  0  0  0  0  0  0  0  0  # atno 10718 bound_to 10713
  154.8748  135.3820  154.4295 H   0  0  0  0  0  0  0  0  0  0  0  0  # atno 10763 bound_to 10752
  153.4990  135.7030  153.5847 H   0  0  0  0  0  0  0  0  0  0  0  0  # atno 10764 bound_to 10752
  153.4187  135.3907  155.2064 H   0  0  0  0  0  0  0  0  0  0  0  0  # atno 10765 bound_to 10752
  139.8804  134.9342  156.5543 H   0  0  0  0  0  0  0  0  0  0  0  0  # atno 11005 bound_to 11000
  145.8730  139.2282  143.1650 LP  0  0  0  0  0  0  0  0  0  0  0  0  # atno 17320 bound_to 7965
  146.0067  140.8472  142.9991 LP  0  0  0  0  0  0  0  0  0  0  0  0  # atno 17321 bound_to 7965
  140.3355  143.3051  152.0643 LP  0  0  0  0  0  0  0  0  0  0  0  0  # atno 17342 bound_to 10162
  139.4922  144.6479  151.6738 LP  0  0  0  0  0  0  0  0  0  0  0  0  # atno 17343 bound_to 10162
  156.4931  130.4100  149.6395 LP  0  0  0  0  0  0  0  0  0  0  0  0  # atno 17370 bound_to 10713
  156.3398  130.7376  151.2319 LP  0  0  0  0  0  0  0  0  0  0  0  0  # atno 17371 bound_to 10713
  140.8217  133.8348  155.8901 LP  0  0  0  0  0  0  0  0  0  0  0  0  # atno 17394 bound_to 11000
  140.9412  134.1898  157.4796 LP  0  0  0  0  0  0  0  0  0  0  0  0  # atno 17395 bound_to 11000

$$$$
