AV-unprocessed.smi:1106|AV-procd|sdf|4779|dock1
  -GOLD-   22720 3323D 1   1.00000     0.00000
 Structure written by MMmdl.
 48 49  0  0  0  0  0  0  0  0  2 V2000
  151.9848  127.2962  155.2059 C   0  0  0  0  0  0  0  0  0  0  0  0
  151.7149  128.7041  155.7578 C   0  0  0  0  0  0  0  0  0  0  0  0
  150.4946  129.2806  155.2556 N   0  0  0  0  0  0  0  0  0  0  0  0
  149.6214  128.5577  154.4661 C   0  0  0  0  0  0  0  0  0  0  0  0
  148.4732  129.0762  153.9795 C   0  0  0  0  0  0  0  0  0  0  0  0
  147.5863  128.3077  153.1699 C   0  0  0  0  0  0  0  0  0  0  0  0
  146.8493  127.6900  152.5262 N   0  0  0  0  0  0  0  0  0  0  0  0
  148.0871  130.4562  154.2639 C   0  0  0  0  0  0  0  0  0  0  0  0
  147.0425  130.9710  153.8604 O   0  0  0  0  0  0  0  0  0  0  0  0
  149.0133  131.1752  155.0609 N   0  0  0  0  0  0  0  0  0  0  0  0
  148.6896  132.5598  155.3741 C   0  0  0  0  0  0  0  0  0  0  0  0
  148.6323  133.4898  154.1414 C   0  0  2  0  0  0  0  0  0  0  0  0
  149.7821  134.3102  154.1773 O   0  0  0  0  0  0  0  0  0  0  0  0
  147.3842  134.3974  154.1076 C   0  0  0  0  0  0  0  0  0  0  0  0
  146.8443  134.5706  152.7351 N   0  3  2  0  0  0  0  0  0  0  0  0
  145.6146  135.4035  152.7146 C   0  0  0  0  0  0  0  0  0  0  0  0
  145.1559  135.6858  151.2726 C   0  0  0  0  0  0  0  0  0  0  0  0
  144.9471  134.3932  150.4629 C   0  0  2  0  0  0  0  0  0  0  0  0
  143.6690  133.6370  150.8662 C   0  0  0  0  0  0  0  0  0  0  0  0
  146.2110  133.5198  150.5596 C   0  0  0  0  0  0  0  0  0  0  0  0
  146.6460  133.2834  152.0170 C   0  0  0  0  0  0  0  0  0  0  0  0
  150.2138  130.6290  155.5783 C   0  0  0  0  0  0  0  0  0  0  0  0
  150.9776  131.2898  156.2874 O   0  0  0  0  0  0  0  0  0  0  0  0
  152.8948  126.8810  155.6392 H   0  0  0  0  0  0  0  0  0  0  0  0
  152.1102  127.3050  154.1229 H   0  0  0  0  0  0  0  0  0  0  0  0
  151.1653  126.6171  155.4429 H   0  0  0  0  0  0  0  0  0  0  0  0
  151.6093  128.6774  156.8433 H   0  0  0  0  0  0  0  0  0  0  0  0
  152.5244  129.4032  155.5399 H   0  0  0  0  0  0  0  0  0  0  0  0
  149.8657  127.5324  154.2273 H   0  0  0  0  0  0  0  0  0  0  0  0
  147.7568  132.5845  155.9392 H   0  0  0  0  0  0  0  0  0  0  0  0
  149.4453  132.8964  156.0868 H   0  0  0  0  0  0  0  0  0  0  0  0
  148.6912  132.8852  153.2375 H   0  0  0  0  0  0  0  0  0  0  0  0
  149.6432  135.0485  153.6027 H   0  0  0  0  0  0  0  0  0  0  0  0
  146.5924  134.0002  154.7430 H   0  0  0  0  0  0  0  0  0  0  0  0
  147.6534  135.3672  154.5296 H   0  0  0  0  0  0  0  0  0  0  0  0
  144.8247  134.9061  153.2792 H   0  0  0  0  0  0  0  0  0  0  0  0
  145.8075  136.3531  153.2153 H   0  0  0  0  0  0  0  0  0  0  0  0
  144.2413  136.2796  151.2798 H   0  0  0  0  0  0  0  0  0  0  0  0
  145.9096  136.2993  150.7771 H   0  0  0  0  0  0  0  0  0  0  0  0
  144.8205  134.6755  149.4166 H   0  0  0  0  0  0  0  0  0  0  0  0
  143.6942  133.3092  151.9050 H   0  0  0  0  0  0  0  0  0  0  0  0
  143.5276  132.7519  150.2454 H   0  0  0  0  0  0  0  0  0  0  0  0
  142.7873  134.2661  150.7412 H   0  0  0  0  0  0  0  0  0  0  0  0
  146.0498  132.5653  150.0573 H   0  0  0  0  0  0  0  0  0  0  0  0
  147.0254  134.0089  150.0232 H   0  0  0  0  0  0  0  0  0  0  0  0
  147.5683  132.7040  152.0161 H   0  0  0  0  0  0  0  0  0  0  0  0
  145.9036  132.6810  152.5422 H   0  0  0  0  0  0  0  0  0  0  0  0
  147.5432  135.0917  152.2244 H   0  0  0  0  0  0  0  0  0  0  0  0
  1  2  1  0  0  0  0
  1 24  1  0  0  0  0
  1 25  1  0  0  0  0
  1 26  1  0  0  0  0
  2  3  1  0  0  0  0
  2 27  1  0  0  0  0
  2 28  1  0  0  0  0
  3 22  1  0  0  0  0
  3  4  1  0  0  0  0
  4  5  2  0  0  0  0
  4 29  1  0  0  0  0
  5  6  1  0  0  0  0
  5  8  1  0  0  0  0
  6  7  3  0  0  0  0
  8  9  2  0  0  0  0
  8 10  1  0  0  0  0
 10 11  1  0  0  0  0
 10 22  1  0  0  0  0
 11 12  1  0  0  0  0
 11 30  1  0  0  0  0
 11 31  1  0  0  0  0
 12 13  1  0  0  0  0
 12 14  1  0  0  0  0
 12 32  1  0  0  0  0
 13 33  1  0  0  0  0
 14 15  1  0  0  0  0
 14 34  1  0  0  0  0
 14 35  1  0  0  0  0
 15 21  1  0  0  0  0
 15 16  1  0  0  0  0
 15 48  1  0  0  0  0
 16 17  1  0  0  0  0
 16 36  1  0  0  0  0
 16 37  1  0  0  0  0
 17 18  1  0  0  0  0
 17 38  1  0  0  0  0
 17 39  1  0  0  0  0
 18 19  1  0  0  0  0
 18 20  1  0  0  0  0
 18 40  1  0  0  0  0
 19 41  1  0  0  0  0
 19 42  1  0  0  0  0
 19 43  1  0  0  0  0
 20 21  1  0  0  0  0
 20 44  1  0  0  0  0
 20 45  1  0  0  0  0
 21 46  1  0  0  0  0
 21 47  1  0  0  0  0
 22 23  2  0  0  0  0
M  CHG  1  15   1
M  END
> <s_m_source_file>
AV-unprocessed.smi

> <i_m_source_file_index>
1106

> <i_lp_mmshare_version>
43012

> <i_f3d_flags>
0

> <s_epik_input>
W0NIM11bQ0gyXW4xW2NIXWMoQyNOKWMoPU8pbihjMT1PKVtDSDJdW0NASF0oW09IXSlbQ0gyXU4yW0NIMl1bQ0gyXVtDSF0oW0NIM10pW0NIMl1bQ0gyXTI=

> <s_epik_cmdline>
J2VwaWtfcHl0aG9uJywgJy1waCcsICc3LjAnLCAnLXRuJywgJzgnLCAnLW1hJywgJzIwMCcsICctbWV0YWxfYmluZGluZycsICctaW1hZScsICc8aW5maWxlLm1hZT4nLCAnLW9tYWUnLCAnPG91dGZpbGUubWFlPic=

> <r_epik_Ionization_Penalty>
0.00136816

> <r_epik_Ionization_Penalty_Charging>
0.00136813

> <r_epik_Ionization_Penalty_Neutral>
3.19882e-08

> <r_epik_State_Penalty>
0.000910892

> <r_epik_Charging_Adjusted_Penalty>
0.00227902

> <i_epik_Tot_Q>
1

> <i_epik_Tot_abs_Q>
1

> <r_epik_Metal_State_Penalty>
-0

> <b_epik_Metal_Only>
0

> <s_lp_Force_Field>
OPLS_2005

> <r_lp_Energy>
29.5745

> <b_lp_Chiralities_Consistent>
1

> <s_lp_Variant>
AV-unprocessed.smi:1106-3

> <Gold.Version>
5.8.1

> <Gold.Id.Protein>
6NUR|6NUR_protein|mol2

> <Gold.PLP.Fitness>
47.8385

> <Gold.PLP.PLP>
-38.6855

> <Gold.PLP.part.hbond>
-2.4570

> <Gold.PLP.part.metal>
0.0000

> <Gold.PLP.part.buried>
-2.9952

> <Gold.PLP.part.nonpolar>
-33.0715

> <Gold.PLP.part.repulsive>
0.2010

> <Gold.PLP.ligand.clash>
0.0000

> <Gold.PLP.ligand.torsion>
1.2775

> <Gold.PLP.Chemscore.Hbond>
3.0000

> <Gold.PLP.Chemscore.CHOScore>
0.8334

> <Gold.PLP.Chemscore.Metal>
0.0000

> <Gold.Chemscore.Hbonds>
donor molecule, donor type, donor heavy atom, donor atom, acceptor molecule, acceptor atom, score
      L1  H    13    33       P1  7948  0.33
      L1  H    15    48       P1  7948  2.00

> <Gold.PLP.Chemscore.Internal.Correction>
0.2078

> <Gold.Rescore>
     Score         DG    S(hbond)    S(metal)    S(lipo)     H(rot)  DE(clash)    DE(int)     intcor
     10.25     -11.63       1.48        0.00      64.59       2.48       0.10       1.28       ----

> <Gold.Chemscore.Fitness>
10.2481

> <Gold.Chemscore.DG>
-11.6327

> <Gold.Chemscore.ZeroCoef>
-5.4800

> <Gold.Chemscore.Hbond>
1.4831

> <Gold.Chemscore.Metal>
0.0000

> <Gold.Chemscore.Lipo>
64.5945

> <Gold.Chemscore.Internal_Hbond>
0.0000

> <Gold.Chemscore.DEClash>
0.0997

> <Gold.Chemscore.DEInternal>
1.2849

> <Gold.Chemscore.Rot>
2.4838

> <Gold.Chemscore.Internal.Correction>
   9.000000E+99

> <Gold.Chemscore.Hbonds>
donor molecule, donor type, donor heavy atom, donor atom, acceptor molecule, acceptor atom, score
      L1  H    13    33       P1  7948  0.01
      L1  H    15    48       P1  7948  0.98

> <Gold.Chemscore.Hbond.Weighted>
-4.9536

> <Gold.Chemscore.Metal.Weighted>
-0.0000

> <Gold.Chemscore.Lipo.Weighted>
-7.5576

> <Gold.Chemscore.Internal_Hbond.Weighted>
0.0000

> <Gold.Chemscore.DEClash.Weighted>
0.0997

> <Gold.Chemscore.DEInternal.Weighted>
1.2849

> <Gold.Chemscore.Rot.Weighted>
6.3585

> <Gold.Chemscore.Internal.Correction.Weighted>
   9.000000E+99

> <Gold.Protein.RotatedTorsions>
[ 6907 6896 6895 6894 ] final    9.88 input  -60.11 | X-H torsion
[ 7974 7965 7964 7962 ] final   58.09 input  175.53 | X-H torsion
[ 8008 7997 7996 7995 ] final   68.04 input   59.86 | X-H torsion
[ 10167 10162 10161 10158 ] final   35.30 input  -65.29 | X-H torsion
[ 10718 10713 10712 10709 ] final   16.13 input   66.30 | X-H torsion
[ 10763 10752 10751 10750 ] final  136.79 input  -60.55 | X-H torsion
[ 11005 11000 10999 10996 ] final   30.40 input  -57.11 | X-H torsion

> <Gold.Protein.ActiveResidues>
 VAL166  LYS551  ARG553  GLY616  TRP617  ASP618  TYR619  PRO620  LYS621  CYS622 
 ASP623  PHE694  ASN695  SER759  ASP760  ASP761  ALA762  ILE779  LEU786  VAL792 
 PHE793  MET794  SER795  GLU796  ALA797  LYS798  CYS799  TRP800  GLU811  SER814 

> <Gold.Protein.RotatedAtoms>
  151.7292  135.0878  160.0297 H   0  0  0  0  0  0  0  0  0  0  0  0  # atno 6907 bound_to 6896
  152.3552  133.6224  159.5982 H   0  0  0  0  0  0  0  0  0  0  0  0  # atno 6908 bound_to 6896
  150.7566  133.9428  159.3503 H   0  0  0  0  0  0  0  0  0  0  0  0  # atno 6909 bound_to 6896
  145.9220  139.3737  143.0473 H   0  0  0  0  0  0  0  0  0  0  0  0  # atno 7974 bound_to 7965
  155.7021  140.3495  155.4937 H   0  0  0  0  0  0  0  0  0  0  0  0  # atno 8008 bound_to 7997
  155.9431  140.1105  157.1061 H   0  0  0  0  0  0  0  0  0  0  0  0  # atno 8009 bound_to 7997
  154.4106  140.1209  156.4939 H   0  0  0  0  0  0  0  0  0  0  0  0  # atno 8010 bound_to 7997
  140.4235  144.1426  150.6150 H   0  0  0  0  0  0  0  0  0  0  0  0  # atno 10167 bound_to 10162
  157.0634  130.6318  149.5790 H   0  0  0  0  0  0  0  0  0  0  0  0  # atno 10718 bound_to 10713
  153.8624  135.3066  155.3438 H   0  0  0  0  0  0  0  0  0  0  0  0  # atno 10763 bound_to 10752
  154.7843  135.4818  153.9914 H   0  0  0  0  0  0  0  0  0  0  0  0  # atno 10764 bound_to 10752
  153.1454  135.6832  153.9057 H   0  0  0  0  0  0  0  0  0  0  0  0  # atno 10765 bound_to 10752
  140.2948  134.2824  155.7767 H   0  0  0  0  0  0  0  0  0  0  0  0  # atno 11005 bound_to 11000
  145.8538  140.9514  143.0736 LP  0  0  0  0  0  0  0  0  0  0  0  0  # atno 17320 bound_to 7965
  144.6754  140.0441  143.7480 LP  0  0  0  0  0  0  0  0  0  0  0  0  # atno 17321 bound_to 7965
  140.4507  143.2488  151.9351 LP  0  0  0  0  0  0  0  0  0  0  0  0  # atno 17342 bound_to 10162
  139.4783  144.5565  151.8306 LP  0  0  0  0  0  0  0  0  0  0  0  0  # atno 17343 bound_to 10162
  155.9972  130.5042  150.7524 LP  0  0  0  0  0  0  0  0  0  0  0  0  # atno 17370 bound_to 10713
  157.4936  131.0913  151.0397 LP  0  0  0  0  0  0  0  0  0  0  0  0  # atno 17371 bound_to 10713
  141.2139  133.7608  156.9678 LP  0  0  0  0  0  0  0  0  0  0  0  0  # atno 17394 bound_to 11000
  140.1163  134.9445  157.2138 LP  0  0  0  0  0  0  0  0  0  0  0  0  # atno 17395 bound_to 11000

$$$$
