AV-unprocessed.smi:81|AV-procd|sdf|792|dock1
  -GOLD-   2262017163D 1   1.00000     0.00000
 Structure written by MMmdl.
 64 67  0  0  0  0  0  0  0  0  2 V2000
  151.0597  140.5478  157.3665 C   0  0  0  0  0  0  0  0  0  0  0  0
  149.9508  141.5244  156.9410 C   0  0  0  0  0  0  0  0  0  0  0  0
  148.7019  141.3311  157.8121 C   0  0  0  0  0  0  0  0  0  0  0  0
  149.5911  141.3688  155.4452 C   0  0  0  0  0  0  0  0  0  0  0  0
  149.0517  140.0532  155.0829 N   0  0  0  0  0  0  0  0  0  0  0  0
  149.9654  139.0641  154.9293 C   0  0  0  0  0  0  0  0  0  0  0  0
  151.2482  139.4352  154.6907 N   0  0  0  0  0  0  0  0  0  0  0  0
  152.1896  138.5086  154.4916 C   0  0  0  0  0  0  0  0  0  0  0  0
  152.0639  137.1805  154.4842 N   0  0  0  0  0  0  0  0  0  0  0  0
  150.7739  136.8021  154.7124 C   0  0  0  0  0  0  0  0  0  0  0  0
  149.6693  137.6707  154.9397 C   0  0  0  0  0  0  0  0  0  0  0  0
  148.5136  136.9231  155.1317 N   0  0  0  0  0  0  0  0  0  0  0  0
  148.9114  135.6853  155.0232 C   0  0  0  0  0  0  0  0  0  0  0  0
  150.2561  135.5206  154.7804 N   0  0  0  0  0  0  0  0  0  0  0  0
  150.9604  134.2579  154.6208 C   0  0  0  0  0  0  0  0  0  0  0  0
  150.4523  133.1417  155.5650 C   0  0  1  0  0  0  0  0  0  0  0  0
  149.2194  132.6490  155.0634 O   0  0  0  0  0  0  0  0  0  0  0  0
  151.4254  131.9763  155.6601 C   0  0  0  0  0  0  0  0  0  0  0  0
  151.0680  131.3550  157.0040 C   0  0  0  0  0  0  0  0  0  0  0  0
  150.7743  132.4673  157.8367 O   0  0  0  0  0  0  0  0  0  0  0  0
  150.3177  133.5655  157.0484 C   0  0  2  0  0  0  0  0  0  0  0  0
  148.9242  134.0130  157.5206 C   0  0  0  0  0  0  0  0  0  0  0  0
  147.8555  140.0410  154.2242 C   0  0  2  0  0  0  0  0  0  0  0  0
  147.5627  141.3575  153.4647 C   0  0  0  0  0  0  0  0  0  0  0  0
  146.6628  142.3446  154.2329 C   0  0  0  0  0  0  0  0  0  0  0  0
  145.4242  141.6793  154.6978 N   0  3  2  0  0  0  0  0  0  0  0  0
  144.4547  142.6319  155.2793 C   0  0  0  0  0  0  0  0  0  0  0  0
  145.7252  140.5488  155.6064 C   0  0  0  0  0  0  0  0  0  0  0  0
  146.5779  139.4815  154.8959 C   0  0  0  0  0  0  0  0  0  0  0  0
  150.7581  139.5121  157.2065 H   0  0  0  0  0  0  0  0  0  0  0  0
  151.3007  140.6646  158.4235 H   0  0  0  0  0  0  0  0  0  0  0  0
  151.9783  140.7170  156.8046 H   0  0  0  0  0  0  0  0  0  0  0  0
  150.3062  142.5385  157.1253 H   0  0  0  0  0  0  0  0  0  0  0  0
  148.2819  140.3325  157.6872 H   0  0  0  0  0  0  0  0  0  0  0  0
  147.9267  142.0530  157.5533 H   0  0  0  0  0  0  0  0  0  0  0  0
  148.9343  141.4646  158.8691 H   0  0  0  0  0  0  0  0  0  0  0  0
  148.8579  142.1322  155.1826 H   0  0  0  0  0  0  0  0  0  0  0  0
  150.4664  141.5828  154.8331 H   0  0  0  0  0  0  0  0  0  0  0  0
  153.1853  138.8853  154.3096 H   0  0  0  0  0  0  0  0  0  0  0  0
  148.2321  134.8510  155.1237 H   0  0  0  0  0  0  0  0  0  0  0  0
  150.8622  133.9434  153.5807 H   0  0  0  0  0  0  0  0  0  0  0  0
  152.0239  134.4370  154.7842 H   0  0  0  0  0  0  0  0  0  0  0  0
  148.8130  132.1225  155.7351 H   0  0  0  0  0  0  0  0  0  0  0  0
  151.3526  131.2732  154.8289 H   0  0  0  0  0  0  0  0  0  0  0  0
  152.4526  132.3424  155.6979 H   0  0  0  0  0  0  0  0  0  0  0  0
  150.1780  130.7303  156.9167 H   0  0  0  0  0  0  0  0  0  0  0  0
  151.8730  130.7462  157.4162 H   0  0  0  0  0  0  0  0  0  0  0  0
  151.0238  134.3715  157.2489 H   0  0  0  0  0  0  0  0  0  0  0  0
  148.5478  134.8420  156.9223 H   0  0  0  0  0  0  0  0  0  0  0  0
  148.9614  134.3451  158.5584 H   0  0  0  0  0  0  0  0  0  0  0  0
  148.1999  133.2002  157.4639 H   0  0  0  0  0  0  0  0  0  0  0  0
  148.1200  139.3237  153.4461 H   0  0  0  0  0  0  0  0  0  0  0  0
  148.4898  141.8399  153.1537 H   0  0  0  0  0  0  0  0  0  0  0  0
  147.0468  141.0993  152.5392 H   0  0  0  0  0  0  0  0  0  0  0  0
  147.1812  142.7782  155.0876 H   0  0  0  0  0  0  0  0  0  0  0  0
  146.4046  143.1753  153.5750 H   0  0  0  0  0  0  0  0  0  0  0  0
  144.8619  143.1098  156.1699 H   0  0  0  0  0  0  0  0  0  0  0  0
  143.5308  142.1226  155.5553 H   0  0  0  0  0  0  0  0  0  0  0  0
  144.2015  143.4112  154.5596 H   0  0  0  0  0  0  0  0  0  0  0  0
  146.2226  140.9242  156.4987 H   0  0  0  0  0  0  0  0  0  0  0  0
  144.7924  140.0939  155.9415 H   0  0  0  0  0  0  0  0  0  0  0  0
  145.9601  139.0319  154.1177 H   0  0  0  0  0  0  0  0  0  0  0  0
  146.8150  138.6691  155.5827 H   0  0  0  0  0  0  0  0  0  0  0  0
  144.9808  141.2853  153.8802 H   0  0  0  0  0  0  0  0  0  0  0  0
  1  2  1  0  0  0  0
  1 30  1  0  0  0  0
  1 31  1  0  0  0  0
  1 32  1  0  0  0  0
  2  3  1  0  0  0  0
  2  4  1  0  0  0  0
  2 33  1  0  0  0  0
  3 34  1  0  0  0  0
  3 35  1  0  0  0  0
  3 36  1  0  0  0  0
  4  5  1  0  0  0  0
  4 37  1  0  0  0  0
  4 38  1  0  0  0  0
  5  6  1  0  0  0  0
  5 23  1  0  0  0  0
  6 11  1  0  0  0  0
  6  7  2  0  0  0  0
  7  8  1  0  0  0  0
  8  9  2  0  0  0  0
  8 39  1  0  0  0  0
  9 10  1  0  0  0  0
 10 14  1  0  0  0  0
 10 11  2  0  0  0  0
 11 12  1  0  0  0  0
 12 13  2  0  0  0  0
 13 14  1  0  0  0  0
 13 40  1  0  0  0  0
 14 15  1  0  0  0  0
 15 16  1  0  0  0  0
 15 41  1  0  0  0  0
 15 42  1  0  0  0  0
 16 21  1  0  0  0  0
 16 17  1  0  0  0  0
 16 18  1  0  0  0  0
 17 43  1  0  0  0  0
 18 19  1  0  0  0  0
 18 44  1  0  0  0  0
 18 45  1  0  0  0  0
 19 20  1  0  0  0  0
 19 46  1  0  0  0  0
 19 47  1  0  0  0  0
 20 21  1  0  0  0  0
 21 22  1  0  0  0  0
 21 48  1  0  0  0  0
 22 49  1  0  0  0  0
 22 50  1  0  0  0  0
 22 51  1  0  0  0  0
 23 29  1  0  0  0  0
 23 24  1  0  0  0  0
 23 52  1  0  0  0  0
 24 25  1  0  0  0  0
 24 53  1  0  0  0  0
 24 54  1  0  0  0  0
 25 26  1  0  0  0  0
 25 55  1  0  0  0  0
 25 56  1  0  0  0  0
 26 27  1  0  0  0  0
 26 28  1  0  0  0  0
 26 64  1  0  0  0  0
 27 57  1  0  0  0  0
 27 58  1  0  0  0  0
 27 59  1  0  0  0  0
 28 29  1  0  0  0  0
 28 60  1  0  0  0  0
 28 61  1  0  0  0  0
 29 62  1  0  0  0  0
 29 63  1  0  0  0  0
M  CHG  1  26   1
M  END
> <s_m_source_file>
AV-unprocessed.smi

> <i_m_source_file_index>
81

> <i_lp_mmshare_version>
43012

> <i_f3d_flags>
0

> <s_epik_input>
W0NIMl0xW0NIMl1OKFtDSDNdKVtDSDJdW0NIMl1bQ0hdMU4oW0NIMl1bQ0hdKFtDSDNdKVtDSDNdKWMobltjSF1uMiljKGMyMyluW2NIXW4zW0NIMl1bQ0BAXTQoW09IXSlbQ0gyXVtDSDJdT1tDQEhdNFtDSDNd

> <s_epik_cmdline>
J2VwaWtfcHl0aG9uJywgJy1waCcsICc3LjAnLCAnLXRuJywgJzgnLCAnLW1hJywgJzIwMCcsICctbWV0YWxfYmluZGluZycsICctaW1hZScsICc8aW5maWxlLm1hZT4nLCAnLW9tYWUnLCAnPG91dGZpbGUubWFlPic=

> <r_lp_tautomer_probability>
1

> <r_epik_Ionization_Penalty>
0.00272708

> <r_epik_Ionization_Penalty_Charging>
0.00158983

> <r_epik_Ionization_Penalty_Neutral>
0.00113725

> <r_epik_State_Penalty>
-0

> <r_epik_Charging_Adjusted_Penalty>
0.00158983

> <i_epik_Tot_Q>
1

> <i_epik_Tot_abs_Q>
1

> <r_epik_Metal_State_Penalty>
-0

> <b_epik_Metal_Only>
0

> <s_lp_Force_Field>
OPLS_2005

> <r_lp_Energy>
48.65

> <b_lp_Chiralities_Consistent>
1

> <s_lp_Variant>
AV-unprocessed.smi:81-7

> <Gold.Version>
5.8.1

> <Gold.Id.Protein>
6NUR|6NUR_protein|mol2

> <Gold.PLP.Fitness>
50.5054

> <Gold.PLP.PLP>
-37.2211

> <Gold.PLP.part.hbond>
-3.9989

> <Gold.PLP.part.metal>
0.0000

> <Gold.PLP.part.buried>
-6.9213

> <Gold.PLP.part.nonpolar>
-28.1935

> <Gold.PLP.part.repulsive>
0.3566

> <Gold.PLP.ligand.clash>
0.0000

> <Gold.PLP.ligand.torsion>
1.5646

> <Gold.PLP.Chemscore.Hbond>
5.0000

> <Gold.PLP.Chemscore.CHOScore>
0.0000

> <Gold.PLP.Chemscore.Metal>
0.0000

> <Gold.Chemscore.Hbonds>
donor molecule, donor type, donor heavy atom, donor atom, acceptor molecule, acceptor atom, score
      L1  H    26    64       P1 10175  1.85
      P1  H  6896  6908       L1    20  0.90
      P1  H  7989  7998       L1     7  1.00
      P1  H 10752 10764       L1     9  0.91

> <Gold.PLP.Chemscore.Internal.Correction>
1.4136

> <Gold.Rescore>
     Score         DG    S(hbond)    S(metal)    S(lipo)     H(rot)  DE(clash)    DE(int)     intcor
     13.16     -16.89       2.51        0.00      76.61       2.32       0.71       3.02       ----

> <Gold.Chemscore.Fitness>
13.1597

> <Gold.Chemscore.DG>
-16.8932

> <Gold.Chemscore.ZeroCoef>
-5.4800

> <Gold.Chemscore.Hbond>
2.5087

> <Gold.Chemscore.Metal>
0.0000

> <Gold.Chemscore.Lipo>
76.6144

> <Gold.Chemscore.Internal_Hbond>
0.0000

> <Gold.Chemscore.DEClash>
0.7093

> <Gold.Chemscore.DEInternal>
3.0242

> <Gold.Chemscore.Rot>
2.3163

> <Gold.Chemscore.Internal.Correction>
   9.000000E+99

> <Gold.Chemscore.Hbonds>
donor molecule, donor type, donor heavy atom, donor atom, acceptor molecule, acceptor atom, score
      L1  H    26    64       P1 10175  0.44
      P1  H  6896  6908       L1    20  0.18
      P1  H  7989  7998       L1     7  0.54
      P1  H 10752 10764       L1     9  0.45

> <Gold.Chemscore.Hbond.Weighted>
-8.3791

> <Gold.Chemscore.Metal.Weighted>
-0.0000

> <Gold.Chemscore.Lipo.Weighted>
-8.9639

> <Gold.Chemscore.Internal_Hbond.Weighted>
0.0000

> <Gold.Chemscore.DEClash.Weighted>
0.7093

> <Gold.Chemscore.DEInternal.Weighted>
3.0242

> <Gold.Chemscore.Rot.Weighted>
5.9297

> <Gold.Chemscore.Internal.Correction.Weighted>
   9.000000E+99

> <Gold.Protein.RotatedTorsions>
[ 6907 6896 6895 6894 ] final   81.19 input  -60.11 | X-H torsion
[ 7974 7965 7964 7962 ] final  -89.96 input  175.53 | X-H torsion
[ 8008 7997 7996 7995 ] final  119.32 input   59.86 | X-H torsion
[ 10167 10162 10161 10158 ] final  -31.27 input  -65.29 | X-H torsion
[ 10718 10713 10712 10709 ] final  -25.91 input   66.30 | X-H torsion
[ 10763 10752 10751 10750 ] final  -75.95 input  -60.55 | X-H torsion
[ 11005 11000 10999 10996 ] final  134.51 input  -57.11 | X-H torsion

> <Gold.Protein.ActiveResidues>
 VAL166  LYS551  ARG553  GLY616  TRP617  ASP618  TYR619  PRO620  LYS621  CYS622 
 ASP623  PHE694  ASN695  SER759  ASP760  ASP761  ALA762  ILE779  LEU786  VAL792 
 PHE793  MET794  SER795  GLU796  ALA797  LYS798  CYS799  TRP800  GLU811  SER814 

> <Gold.Protein.RotatedAtoms>
  152.5260  134.3242  159.9159 H   0  0  0  0  0  0  0  0  0  0  0  0  # atno 6907 bound_to 6896
  151.3191  133.4041  159.2661 H   0  0  0  0  0  0  0  0  0  0  0  0  # atno 6908 bound_to 6896
  150.9974  134.9311  159.7991 H   0  0  0  0  0  0  0  0  0  0  0  0  # atno 6909 bound_to 6896
  145.4328  140.9556  143.2118 H   0  0  0  0  0  0  0  0  0  0  0  0  # atno 7974 bound_to 7965
  156.2590  140.2855  156.0973 H   0  0  0  0  0  0  0  0  0  0  0  0  # atno 8008 bound_to 7997
  155.1398  140.0395  157.2813 H   0  0  0  0  0  0  0  0  0  0  0  0  # atno 8009 bound_to 7997
  154.6538  140.2551  155.7190 H   0  0  0  0  0  0  0  0  0  0  0  0  # atno 8010 bound_to 7997
  140.7238  143.3783  151.1647 H   0  0  0  0  0  0  0  0  0  0  0  0  # atno 10167 bound_to 10162
  156.4581  130.4498  149.6946 H   0  0  0  0  0  0  0  0  0  0  0  0  # atno 10718 bound_to 10713
  154.4934  135.5814  153.6476 H   0  0  0  0  0  0  0  0  0  0  0  0  # atno 10763 bound_to 10752
  152.9866  135.6118  154.3096 H   0  0  0  0  0  0  0  0  0  0  0  0  # atno 10764 bound_to 10752
  154.2997  135.2847  155.2596 H   0  0  0  0  0  0  0  0  0  0  0  0  # atno 10765 bound_to 10752
  139.9919  134.9511  156.9877 H   0  0  0  0  0  0  0  0  0  0  0  0  # atno 11005 bound_to 11000
  144.8172  139.5856  143.7003 LP  0  0  0  0  0  0  0  0  0  0  0  0  # atno 17320 bound_to 7965
  146.2598  139.6384  142.9370 LP  0  0  0  0  0  0  0  0  0  0  0  0  # atno 17321 bound_to 7965
  139.7368  143.8987  152.3037 LP  0  0  0  0  0  0  0  0  0  0  0  0  # atno 17342 bound_to 10162
  139.8794  144.7025  150.8895 LP  0  0  0  0  0  0  0  0  0  0  0  0  # atno 17343 bound_to 10162
  156.3745  130.7547  151.2534 LP  0  0  0  0  0  0  0  0  0  0  0  0  # atno 17370 bound_to 10713
  157.7499  131.0313  150.4177 LP  0  0  0  0  0  0  0  0  0  0  0  0  # atno 17371 bound_to 10713
  140.4891  134.1211  155.7229 LP  0  0  0  0  0  0  0  0  0  0  0  0  # atno 17394 bound_to 11000
  141.1573  133.8858  157.1942 LP  0  0  0  0  0  0  0  0  0  0  0  0  # atno 17395 bound_to 11000

$$$$
