AV-unprocessed.smi:2521|AV-procd|sdf|9915|dock8
  -GOLD-   2272013553D 1   1.00000     0.00000
 Structure written by MMmdl.
 36 37  0  0  0  0  0  0  0  0  1 V2000
  153.9988  140.3403  160.4871 C   0  0  0  0  0  0  0  0  0  0  0  0
  153.7887  141.8503  160.6711 C   0  0  0  0  0  0  0  0  0  0  0  0
  153.4163  142.2359  162.1099 C   0  0  0  0  0  0  0  0  0  0  0  0
  152.8287  142.4120  159.6691 C   0  0  0  0  0  0  0  0  0  0  0  0
  152.6070  143.7261  159.5282 N   0  0  0  0  0  0  0  0  0  0  0  0
  151.6732  144.0015  158.5397 N   0  0  0  0  0  0  0  0  0  0  0  0
  151.2134  142.8837  157.9614 C   0  0  0  0  0  0  0  0  0  0  0  0
  150.2420  142.8729  156.9258 N   0  0  0  0  0  0  0  0  0  0  0  0
  149.7180  141.8130  156.2856 C   0  0  0  0  0  0  0  0  0  0  0  0
  149.9817  140.6346  156.5260 O   0  0  0  0  0  0  0  0  0  0  0  0
  148.8560  142.1996  155.3337 N   0  0  0  0  0  0  0  0  0  0  0  0
  148.1155  141.3066  154.4473 C   0  0  0  0  0  0  0  0  0  0  0  0
  146.6606  141.7714  154.2463 C   0  0  2  0  0  0  0  0  0  0  0  0
  146.5385  143.1608  153.6549 C   0  0  0  0  0  0  0  0  0  0  0  0
  145.0976  143.5294  153.9974 C   0  0  0  0  0  0  0  0  0  0  0  0
  144.7924  142.8385  155.2054 O   0  0  0  0  0  0  0  0  0  0  0  0
  145.8439  141.9346  155.5299 C   0  0  0  0  0  0  0  0  0  0  0  0
  151.8931  141.3899  158.5829 S   0  0  0  0  0  0  0  0  0  0  0  0
  154.3440  140.1127  159.4781 H   0  0  0  0  0  0  0  0  0  0  0  0
  153.0743  139.7873  160.6560 H   0  0  0  0  0  0  0  0  0  0  0  0
  154.7452  139.9597  161.1849 H   0  0  0  0  0  0  0  0  0  0  0  0
  154.7523  142.3195  160.4692 H   0  0  0  0  0  0  0  0  0  0  0  0
  153.3577  143.3188  162.2233 H   0  0  0  0  0  0  0  0  0  0  0  0
  154.1584  141.8692  162.8194 H   0  0  0  0  0  0  0  0  0  0  0  0
  152.4502  141.8183  162.3952 H   0  0  0  0  0  0  0  0  0  0  0  0
  149.9161  143.7810  156.6295 H   0  0  0  0  0  0  0  0  0  0  0  0
  148.7015  143.1892  155.2087 H   0  0  0  0  0  0  0  0  0  0  0  0
  148.6240  141.2013  153.4874 H   0  0  0  0  0  0  0  0  0  0  0  0
  148.1193  140.3157  154.9022 H   0  0  0  0  0  0  0  0  0  0  0  0
  146.1432  141.0710  153.5883 H   0  0  0  0  0  0  0  0  0  0  0  0
  147.2266  143.8476  154.1503 H   0  0  0  0  0  0  0  0  0  0  0  0
  146.7395  143.1907  152.5836 H   0  0  0  0  0  0  0  0  0  0  0  0
  144.9599  144.6052  154.1077 H   0  0  0  0  0  0  0  0  0  0  0  0
  144.4193  143.1792  153.2186 H   0  0  0  0  0  0  0  0  0  0  0  0
  145.4523  140.9873  155.9013 H   0  0  0  0  0  0  0  0  0  0  0  0
  146.4501  142.3825  156.3185 H   0  0  0  0  0  0  0  0  0  0  0  0
  1  2  1  0  0  0  0
  1 19  1  0  0  0  0
  1 20  1  0  0  0  0
  1 21  1  0  0  0  0
  2  3  1  0  0  0  0
  2  4  1  0  0  0  0
  2 22  1  0  0  0  0
  3 23  1  0  0  0  0
  3 24  1  0  0  0  0
  3 25  1  0  0  0  0
  4 18  1  0  0  0  0
  4  5  2  0  0  0  0
  5  6  1  0  0  0  0
  6  7  2  0  0  0  0
  7  8  1  0  0  0  0
  7 18  1  0  0  0  0
  8  9  1  0  0  0  0
  8 26  1  0  0  0  0
  9 10  2  0  0  0  0
  9 11  1  0  0  0  0
 11 12  1  0  0  0  0
 11 27  1  0  0  0  0
 12 13  1  0  0  0  0
 12 28  1  0  0  0  0
 12 29  1  0  0  0  0
 13 17  1  0  0  0  0
 13 14  1  0  0  0  0
 13 30  1  0  0  0  0
 14 15  1  0  0  0  0
 14 31  1  0  0  0  0
 14 32  1  0  0  0  0
 15 16  1  0  0  0  0
 15 33  1  0  0  0  0
 15 34  1  0  0  0  0
 16 17  1  0  0  0  0
 17 35  1  0  0  0  0
 17 36  1  0  0  0  0
M  END
> <s_m_source_file>
AV-unprocessed.smi

> <i_m_source_file_index>
2521

> <i_lp_mmshare_version>
43012

> <i_f3d_flags>
0

> <s_epik_input>
W0NIM11bQ0hdKFtDSDNdKWMxbm5jKHMxKVtOSF1DKD1PKVtOSF1bQ0gyXVtDQEBIXTJbQ0gyXVtDSDJdT1tDSDJdMg==

> <s_epik_cmdline>
J2VwaWtfcHl0aG9uJywgJy1waCcsICc3LjAnLCAnLXRuJywgJzgnLCAnLW1hJywgJzIwMCcsICctbWV0YWxfYmluZGluZycsICctaW1hZScsICc8aW5maWxlLm1hZT4nLCAnLW9tYWUnLCAnPG91dGZpbGUubWFlPic=

> <r_lp_tautomer_probability>
1

> <r_epik_Ionization_Penalty>
0.000452582

> <r_epik_Ionization_Penalty_Charging>
0

> <r_epik_Ionization_Penalty_Neutral>
0.000452582

> <r_epik_State_Penalty>
-0

> <r_epik_Charging_Adjusted_Penalty>
0

> <i_epik_Tot_Q>
0

> <i_epik_Tot_abs_Q>
0

> <r_epik_Metal_State_Penalty>
0.207746

> <b_epik_Metal_Only>
0

> <s_lp_Force_Field>
OPLS_2005

> <r_lp_Energy>
11.692

> <b_lp_Chiralities_Consistent>
1

> <s_lp_Variant>
AV-unprocessed.smi:2521-1

> <Gold.Version>
5.8.1

> <Gold.Id.Protein>
6NUR|6NUR_protein|mol2

> <Gold.PLP.Fitness>
42.4810

> <Gold.PLP.PLP>
-36.8008

> <Gold.PLP.part.hbond>
-1.9962

> <Gold.PLP.part.metal>
0.0000

> <Gold.PLP.part.buried>
-5.8370

> <Gold.PLP.part.nonpolar>
-29.1828

> <Gold.PLP.part.repulsive>
0.4162

> <Gold.PLP.ligand.clash>
0.0000

> <Gold.PLP.ligand.torsion>
0.2008

> <Gold.PLP.Chemscore.Hbond>
2.0000

> <Gold.PLP.Chemscore.CHOScore>
0.0000

> <Gold.PLP.Chemscore.Metal>
0.0000

> <Gold.Chemscore.Hbonds>
donor molecule, donor type, donor heavy atom, donor atom, acceptor molecule, acceptor atom, score
      L1  H     8    26       P1  8028  1.00
      L1  H    11    27       P1  8028  1.00

> <Gold.PLP.Chemscore.Internal.Correction>
0.0818

> <Gold.Rescore>
     Score         DG    S(hbond)    S(metal)    S(lipo)     H(rot)  DE(clash)    DE(int)     intcor
     15.74     -17.28       1.93        0.00      77.47       1.45       0.08       1.46       ----

> <Gold.Chemscore.Fitness>
15.7436

> <Gold.Chemscore.DG>
-17.2803

> <Gold.Chemscore.ZeroCoef>
-5.4800

> <Gold.Chemscore.Hbond>
1.9277

> <Gold.Chemscore.Metal>
0.0000

> <Gold.Chemscore.Lipo>
77.4683

> <Gold.Chemscore.Internal_Hbond>
0.0000

> <Gold.Chemscore.DEClash>
0.0808

> <Gold.Chemscore.DEInternal>
1.4560

> <Gold.Chemscore.Rot>
1.4461

> <Gold.Chemscore.Internal.Correction>
   9.000000E+99

> <Gold.Chemscore.Hbonds>
donor molecule, donor type, donor heavy atom, donor atom, acceptor molecule, acceptor atom, score
      L1  H     8    26       P1  8028  0.95
      L1  H    11    27       P1  8028  0.95

> <Gold.Chemscore.Hbond.Weighted>
-6.4385

> <Gold.Chemscore.Metal.Weighted>
-0.0000

> <Gold.Chemscore.Lipo.Weighted>
-9.0638

> <Gold.Chemscore.Internal_Hbond.Weighted>
0.0000

> <Gold.Chemscore.DEClash.Weighted>
0.0808

> <Gold.Chemscore.DEInternal.Weighted>
1.4560

> <Gold.Chemscore.Rot.Weighted>
3.7019

> <Gold.Chemscore.Internal.Correction.Weighted>
   9.000000E+99

> <Gold.Protein.RotatedTorsions>
[ 6907 6896 6895 6894 ] final   35.01 input  -60.11 | X-H torsion
[ 7974 7965 7964 7962 ] final -156.93 input  175.53 | X-H torsion
[ 8008 7997 7996 7995 ] final  119.82 input   59.86 | X-H torsion
[ 10167 10162 10161 10158 ] final -116.83 input  -65.29 | X-H torsion
[ 10718 10713 10712 10709 ] final  150.56 input   66.30 | X-H torsion
[ 10763 10752 10751 10750 ] final -166.82 input  -60.55 | X-H torsion
[ 11005 11000 10999 10996 ] final   -6.44 input  -57.11 | X-H torsion

> <Gold.Protein.ActiveResidues>
 VAL166  LYS551  ARG553  GLY616  TRP617  ASP618  TYR619  PRO620  LYS621  CYS622 
 ASP623  PHE694  ASN695  SER759  ASP760  ASP761  ALA762  ILE779  LEU786  VAL792 
 PHE793  MET794  SER795  GLU796  ALA797  LYS798  CYS799  TRP800  GLU811  SER814 

> <Gold.Protein.RotatedAtoms>
  152.1103  134.9279  160.0566 H   0  0  0  0  0  0  0  0  0  0  0  0  # atno 6907 bound_to 6896
  152.0459  133.3993  159.4365 H   0  0  0  0  0  0  0  0  0  0  0  0  # atno 6908 bound_to 6896
  150.6843  134.3283  159.4859 H   0  0  0  0  0  0  0  0  0  0  0  0  # atno 6909 bound_to 6896
  144.7571  140.4041  143.6004 H   0  0  0  0  0  0  0  0  0  0  0  0  # atno 7974 bound_to 7965
  156.2614  140.2844  156.1052 H   0  0  0  0  0  0  0  0  0  0  0  0  # atno 8008 bound_to 7997
  155.1317  140.0394  157.2794 H   0  0  0  0  0  0  0  0  0  0  0  0  # atno 8009 bound_to 7997
  154.6595  140.2563  155.7131 H   0  0  0  0  0  0  0  0  0  0  0  0  # atno 8010 bound_to 7997
  140.0750  143.4841  152.1958 H   0  0  0  0  0  0  0  0  0  0  0  0  # atno 10167 bound_to 10162
  157.2819  131.0837  151.1526 H   0  0  0  0  0  0  0  0  0  0  0  0  # atno 10718 bound_to 10713
  154.6795  135.2952  154.9633 H   0  0  0  0  0  0  0  0  0  0  0  0  # atno 10763 bound_to 10752
  154.0632  135.6628  153.4818 H   0  0  0  0  0  0  0  0  0  0  0  0  # atno 10764 bound_to 10752
  153.0538  135.5157  154.7831 H   0  0  0  0  0  0  0  0  0  0  0  0  # atno 10765 bound_to 10752
  140.7020  133.8981  155.8690 H   0  0  0  0  0  0  0  0  0  0  0  0  # atno 11005 bound_to 11000
  145.6743  139.1605  143.2737 LP  0  0  0  0  0  0  0  0  0  0  0  0  # atno 17320 bound_to 7965
  146.1593  140.6811  142.9285 LP  0  0  0  0  0  0  0  0  0  0  0  0  # atno 17321 bound_to 7965
  139.5813  144.7512  151.3632 LP  0  0  0  0  0  0  0  0  0  0  0  0  # atno 17342 bound_to 10162
  140.7107  143.7399  150.7561 LP  0  0  0  0  0  0  0  0  0  0  0  0  # atno 17343 bound_to 10162
  157.2956  130.6818  149.6137 LP  0  0  0  0  0  0  0  0  0  0  0  0  # atno 17370 bound_to 10713
  155.9664  130.4407  150.5312 LP  0  0  0  0  0  0  0  0  0  0  0  0  # atno 17371 bound_to 10713
  141.0156  134.0961  157.4176 LP  0  0  0  0  0  0  0  0  0  0  0  0  # atno 17394 bound_to 11000
  139.8894  135.0105  156.6677 LP  0  0  0  0  0  0  0  0  0  0  0  0  # atno 17395 bound_to 11000

$$$$
