AV-unprocessed.smi:2249|AV-procd|sdf|9098|dock4
  -GOLD-   2272012293D 1   1.00000     0.00000
 Structure written by MMmdl.
 38 39  0  0  0  0  0  0  0  0  1 V2000
  152.3395  138.4254  154.1550 C   0  0  0  0  0  0  0  0  0  0  0  0
  151.1877  138.0085  155.0885 C   0  0  2  0  0  0  0  0  0  0  0  0
  150.5351  136.8256  154.5277 N   0  0  0  0  0  0  0  0  0  0  0  0
  150.7599  135.5574  154.9014 C   0  0  0  0  0  0  0  0  0  0  0  0
  151.5682  135.2386  155.7738 O   0  0  0  0  0  0  0  0  0  0  0  0
  149.9943  134.7044  154.1985 N   0  0  0  0  0  0  0  0  0  0  0  0
  149.9247  133.3498  154.2916 C   0  0  0  0  0  0  0  0  0  0  0  0
  150.6163  132.5072  155.1186 C   0  0  0  0  0  0  0  0  0  0  0  0
  150.1103  131.2284  154.7481 C   0  0  0  0  0  0  0  0  0  0  0  0
  149.1968  131.2888  153.7871 N   0  0  0  0  0  0  0  0  0  0  0  0
  149.0774  132.6037  153.5015 N   0  0  0  0  0  0  0  0  0  0  0  0
  148.1498  133.0425  152.4770 C   0  0  0  0  0  0  0  0  0  0  0  0
  150.1443  139.1333  155.3180 C   0  0  0  0  0  0  0  0  0  0  0  0
  149.2458  139.3728  154.0876 C   0  0  0  0  0  0  0  0  0  0  0  0
  148.2791  140.5452  154.3214 C   0  0  0  0  0  0  0  0  0  0  0  0
  149.0086  141.7222  154.6447 O   0  0  0  0  0  0  0  0  0  0  0  0
  149.7540  141.5912  155.8485 C   0  0  0  0  0  0  0  0  0  0  0  0
  150.8024  140.4773  155.6990 C   0  0  0  0  0  0  0  0  0  0  0  0
  152.9437  139.2214  154.5889 H   0  0  0  0  0  0  0  0  0  0  0  0
  151.9646  138.7740  153.1922 H   0  0  0  0  0  0  0  0  0  0  0  0
  153.0133  137.5893  153.9644 H   0  0  0  0  0  0  0  0  0  0  0  0
  151.6154  137.7496  156.0589 H   0  0  0  0  0  0  0  0  0  0  0  0
  149.8546  136.9900  153.8003 H   0  0  0  0  0  0  0  0  0  0  0  0
  149.3868  135.1192  153.5072 H   0  0  0  0  0  0  0  0  0  0  0  0
  151.3591  132.7422  155.8658 H   0  0  0  0  0  0  0  0  0  0  0  0
  150.3779  130.2612  155.1473 H   0  0  0  0  0  0  0  0  0  0  0  0
  148.7047  133.4645  151.6392 H   0  0  0  0  0  0  0  0  0  0  0  0
  147.4848  133.8039  152.8852 H   0  0  0  0  0  0  0  0  0  0  0  0
  147.5490  132.2054  152.1181 H   0  0  0  0  0  0  0  0  0  0  0  0
  149.5007  138.8324  156.1462 H   0  0  0  0  0  0  0  0  0  0  0  0
  149.8629  139.5824  153.2129 H   0  0  0  0  0  0  0  0  0  0  0  0
  148.6635  138.4823  153.8538 H   0  0  0  0  0  0  0  0  0  0  0  0
  147.6930  140.7316  153.4213 H   0  0  0  0  0  0  0  0  0  0  0  0
  147.5709  140.3123  155.1183 H   0  0  0  0  0  0  0  0  0  0  0  0
  150.2454  142.5406  156.0615 H   0  0  0  0  0  0  0  0  0  0  0  0
  149.0841  141.3855  156.6849 H   0  0  0  0  0  0  0  0  0  0  0  0
  151.3583  140.3882  156.6325 H   0  0  0  0  0  0  0  0  0  0  0  0
  151.5253  140.7633  154.9338 H   0  0  0  0  0  0  0  0  0  0  0  0
  1  2  1  0  0  0  0
  1 19  1  0  0  0  0
  1 20  1  0  0  0  0
  1 21  1  0  0  0  0
  2  3  1  0  0  0  0
  2 13  1  0  0  0  0
  2 22  1  0  0  0  0
  3  4  1  0  0  0  0
  3 23  1  0  0  0  0
  4  5  2  0  0  0  0
  4  6  1  0  0  0  0
  6  7  1  0  0  0  0
  6 24  1  0  0  0  0
  7 11  1  0  0  0  0
  7  8  2  0  0  0  0
  8  9  1  0  0  0  0
  8 25  1  0  0  0  0
  9 10  2  0  0  0  0
  9 26  1  0  0  0  0
 10 11  1  0  0  0  0
 11 12  1  0  0  0  0
 12 27  1  0  0  0  0
 12 28  1  0  0  0  0
 12 29  1  0  0  0  0
 13 18  1  0  0  0  0
 13 14  1  0  0  0  0
 13 30  1  0  0  0  0
 14 15  1  0  0  0  0
 14 31  1  0  0  0  0
 14 32  1  0  0  0  0
 15 16  1  0  0  0  0
 15 33  1  0  0  0  0
 15 34  1  0  0  0  0
 16 17  1  0  0  0  0
 17 18  1  0  0  0  0
 17 35  1  0  0  0  0
 17 36  1  0  0  0  0
 18 37  1  0  0  0  0
 18 38  1  0  0  0  0
M  END
> <s_m_source_file>
AV-unprocessed.smi

> <i_m_source_file_index>
2249

> <i_lp_mmshare_version>
43012

> <i_f3d_flags>
0

> <s_epik_input>
W0NIMl0xW0NIMl1PW0NIMl1bQ0gyXVtDSF0xW0NASF0oW0NIM10pW05IXUMoPU8pW05IXWMyW2NIXVtjSF1ubjJbQ0gzXQ==

> <s_epik_cmdline>
J2VwaWtfcHl0aG9uJywgJy1waCcsICc3LjAnLCAnLXRuJywgJzgnLCAnLW1hJywgJzIwMCcsICctbWV0YWxfYmluZGluZycsICctaW1hZScsICc8aW5maWxlLm1hZT4nLCAnLW9tYWUnLCAnPG91dGZpbGUubWFlPic=

> <r_lp_tautomer_probability>
1

> <r_epik_Ionization_Penalty>
4.67687e-05

> <r_epik_Ionization_Penalty_Charging>
0

> <r_epik_Ionization_Penalty_Neutral>
4.67687e-05

> <r_epik_State_Penalty>
-0

> <r_epik_Charging_Adjusted_Penalty>
0

> <i_epik_Tot_Q>
0

> <i_epik_Tot_abs_Q>
0

> <r_epik_Metal_State_Penalty>
-0

> <b_epik_Metal_Only>
0

> <s_lp_Force_Field>
OPLS_2005

> <r_lp_Energy>
12.7763

> <b_lp_Chiralities_Consistent>
1

> <s_lp_Variant>
AV-unprocessed.smi:2249-1

> <Gold.Version>
5.8.1

> <Gold.Id.Protein>
6NUR|6NUR_protein|mol2

> <Gold.PLP.Fitness>
41.4169

> <Gold.PLP.PLP>
-34.1062

> <Gold.PLP.part.hbond>
-4.7112

> <Gold.PLP.part.metal>
0.0000

> <Gold.PLP.part.buried>
0.7593

> <Gold.PLP.part.nonpolar>
-29.6734

> <Gold.PLP.part.repulsive>
0.4097

> <Gold.PLP.ligand.clash>
0.0000

> <Gold.PLP.ligand.torsion>
0.3909

> <Gold.PLP.Chemscore.Hbond>
2.6902

> <Gold.PLP.Chemscore.CHOScore>
0.0000

> <Gold.PLP.Chemscore.Metal>
0.0000

> <Gold.Chemscore.Hbonds>
donor molecule, donor type, donor heavy atom, donor atom, acceptor molecule, acceptor atom, score
      L1  H     3    23       P1  7948  0.44
      L1  H     6    24       P1  7948  0.75
      P1  H 10752 10763       L1     5  1.00

> <Gold.PLP.Chemscore.Internal.Correction>
0.0219

> <Gold.Rescore>
     Score         DG    S(hbond)    S(metal)    S(lipo)     H(rot)  DE(clash)    DE(int)     intcor
     11.71     -14.21       1.26        0.00      66.14       1.26       0.46       2.05       ----

> <Gold.Chemscore.Fitness>
11.7087

> <Gold.Chemscore.DG>
-14.2145

> <Gold.Chemscore.ZeroCoef>
-5.4800

> <Gold.Chemscore.Hbond>
1.2630

> <Gold.Chemscore.Metal>
0.0000

> <Gold.Chemscore.Lipo>
66.1405

> <Gold.Chemscore.Internal_Hbond>
0.0000

> <Gold.Chemscore.DEClash>
0.4590

> <Gold.Chemscore.DEInternal>
2.0467

> <Gold.Chemscore.Rot>
1.2588

> <Gold.Chemscore.Internal.Correction>
   9.000000E+99

> <Gold.Chemscore.Hbonds>
donor molecule, donor type, donor heavy atom, donor atom, acceptor molecule, acceptor atom, score
      L1  H     3    23       P1  7948  0.24
      L1  H     6    24       P1  7948  0.09
      P1  H 10752 10763       L1     5  0.48

> <Gold.Chemscore.Hbond.Weighted>
-4.2185

> <Gold.Chemscore.Metal.Weighted>
-0.0000

> <Gold.Chemscore.Lipo.Weighted>
-7.7384

> <Gold.Chemscore.Internal_Hbond.Weighted>
0.0000

> <Gold.Chemscore.DEClash.Weighted>
0.4590

> <Gold.Chemscore.DEInternal.Weighted>
2.0467

> <Gold.Chemscore.Rot.Weighted>
3.2224

> <Gold.Chemscore.Internal.Correction.Weighted>
   9.000000E+99

> <Gold.Protein.RotatedTorsions>
[ 6907 6896 6895 6894 ] final   -9.40 input  -60.11 | X-H torsion
[ 7974 7965 7964 7962 ] final   57.83 input  175.53 | X-H torsion
[ 8008 7997 7996 7995 ] final  121.98 input   59.86 | X-H torsion
[ 10167 10162 10161 10158 ] final   13.30 input  -65.29 | X-H torsion
[ 10718 10713 10712 10709 ] final   40.39 input   66.30 | X-H torsion
[ 10763 10752 10751 10750 ] final   89.96 input  -60.55 | X-H torsion
[ 11005 11000 10999 10996 ] final   89.01 input  -57.11 | X-H torsion

> <Gold.Protein.ActiveResidues>
 VAL166  LYS551  ARG553  GLY616  TRP617  ASP618  TYR619  PRO620  LYS621  CYS622 
 ASP623  PHE694  ASN695  SER759  ASP760  ASP761  ALA762  ILE779  LEU786  VAL792 
 PHE793  MET794  SER795  GLU796  ALA797  LYS798  CYS799  TRP800  GLU811  SER814 

> <Gold.Protein.RotatedAtoms>
  151.4183  135.0994  159.9605 H   0  0  0  0  0  0  0  0  0  0  0  0  # atno 6907 bound_to 6896
  152.4997  133.8731  159.7319 H   0  0  0  0  0  0  0  0  0  0  0  0  # atno 6908 bound_to 6896
  150.9241  133.6787  159.2853 H   0  0  0  0  0  0  0  0  0  0  0  0  # atno 6909 bound_to 6896
  145.9248  139.3759  143.0456 H   0  0  0  0  0  0  0  0  0  0  0  0  # atno 7974 bound_to 7965
  156.2709  140.2796  156.1395 H   0  0  0  0  0  0  0  0  0  0  0  0  # atno 8008 bound_to 7997
  155.0968  140.0389  157.2703 H   0  0  0  0  0  0  0  0  0  0  0  0  # atno 8009 bound_to 7997
  154.6846  140.2616  155.6879 H   0  0  0  0  0  0  0  0  0  0  0  0  # atno 8010 bound_to 7997
  140.6012  143.8601  150.6967 H   0  0  0  0  0  0  0  0  0  0  0  0  # atno 10167 bound_to 10162
  157.3816  130.7757  149.7197 H   0  0  0  0  0  0  0  0  0  0  0  0  # atno 10718 bound_to 10713
  153.1926  135.4451  155.0168 H   0  0  0  0  0  0  0  0  0  0  0  0  # atno 10763 bound_to 10752
  154.8099  135.3290  154.7335 H   0  0  0  0  0  0  0  0  0  0  0  0  # atno 10764 bound_to 10752
  153.7787  135.6979  153.4948 H   0  0  0  0  0  0  0  0  0  0  0  0  # atno 10765 bound_to 10752
  139.8884  134.8524  156.3081 H   0  0  0  0  0  0  0  0  0  0  0  0  # atno 11005 bound_to 11000
  145.8503  140.9532  143.0753 LP  0  0  0  0  0  0  0  0  0  0  0  0  # atno 17320 bound_to 7965
  144.6757  140.0398  143.7481 LP  0  0  0  0  0  0  0  0  0  0  0  0  # atno 17321 bound_to 7965
  140.2147  143.3855  152.1690 LP  0  0  0  0  0  0  0  0  0  0  0  0  # atno 17342 bound_to 10162
  139.5292  144.7139  151.5117 LP  0  0  0  0  0  0  0  0  0  0  0  0  # atno 17343 bound_to 10162
  155.9777  130.4060  150.3695 LP  0  0  0  0  0  0  0  0  0  0  0  0  # atno 17370 bound_to 10713
  157.1800  131.0390  151.2753 LP  0  0  0  0  0  0  0  0  0  0  0  0  # atno 17371 bound_to 10713
  140.9868  133.7233  156.0754 LP  0  0  0  0  0  0  0  0  0  0  0  0  # atno 17394 bound_to 11000
  140.7677  134.3868  157.5514 LP  0  0  0  0  0  0  0  0  0  0  0  0  # atno 17395 bound_to 11000

$$$$
