AV-unprocessed.smi:2146|AV-procd|sdf|8738|dock1
  -GOLD-   2272011513D 1   1.00000     0.00000
 Structure written by MMmdl.
 44 45  0  0  0  0  0  0  0  0  1 V2000
  147.6676  142.0696  153.9354 C   0  0  0  0  0  0  0  0  0  0  0  0
  148.1522  141.2888  155.1835 C   0  0  2  0  0  0  0  0  0  0  0  0
  149.7017  141.1500  155.1196 C   0  0  0  0  0  0  0  0  0  0  0  0
  150.2860  140.5606  156.3212 N   0  0  0  0  0  0  0  0  0  0  0  0
  151.5291  140.0644  156.4121 C   0  0  0  0  0  0  0  0  0  0  0  0
  152.3189  140.0484  155.4667 O   0  0  0  0  0  0  0  0  0  0  0  0
  151.9196  139.4833  157.7786 C   0  0  0  0  0  0  0  0  0  0  0  0
  152.3828  140.5007  158.7372 N   0  0  0  0  0  0  0  0  0  0  0  0
  152.0011  141.8345  158.4919 C   0  0  0  0  0  0  0  0  0  0  0  0
  152.3445  142.8556  159.2999 C   0  0  0  0  0  0  0  0  0  0  0  0
  151.9559  144.2904  158.9795 C   0  0  0  0  0  0  0  0  0  0  0  0
  152.5065  144.6615  157.8246 F   0  0  0  0  0  0  0  0  0  0  0  0
  150.6335  144.4199  158.8710 F   0  0  0  0  0  0  0  0  0  0  0  0
  152.3819  145.1246  159.9286 F   0  0  0  0  0  0  0  0  0  0  0  0
  153.1714  142.5237  160.4436 C   0  0  0  0  0  0  0  0  0  0  0  0
  153.5495  141.2542  160.6897 C   0  0  0  0  0  0  0  0  0  0  0  0
  153.1474  140.1507  159.8146 C   0  0  0  0  0  0  0  0  0  0  0  0
  153.4781  138.9854  160.0354 O   0  0  0  0  0  0  0  0  0  0  0  0
  147.4552  139.9923  155.3545 N   0  0  0  0  0  0  0  0  0  0  0  0
  146.0124  140.1479  155.5734 C   0  0  0  0  0  0  0  0  0  0  0  0
  145.2809  138.8024  155.7196 C   0  0  0  0  0  0  0  0  0  0  0  0
  145.5162  138.0006  154.5705 O   0  0  0  0  0  0  0  0  0  0  0  0
  146.9007  137.7586  154.3642 C   0  0  0  0  0  0  0  0  0  0  0  0
  147.6426  139.0971  154.2068 C   0  0  0  0  0  0  0  0  0  0  0  0
  148.2146  142.9999  153.7880 H   0  0  0  0  0  0  0  0  0  0  0  0
  146.6229  142.3671  154.0134 H   0  0  0  0  0  0  0  0  0  0  0  0
  147.7832  141.4746  153.0289 H   0  0  0  0  0  0  0  0  0  0  0  0
  147.9203  141.9068  156.0523 H   0  0  0  0  0  0  0  0  0  0  0  0
  150.0235  140.5326  154.2823 H   0  0  0  0  0  0  0  0  0  0  0  0
  150.1550  142.1304  154.9701 H   0  0  0  0  0  0  0  0  0  0  0  0
  149.7009  140.5292  157.1436 H   0  0  0  0  0  0  0  0  0  0  0  0
  151.0707  138.9363  158.1927 H   0  0  0  0  0  0  0  0  0  0  0  0
  152.6916  138.7298  157.6180 H   0  0  0  0  0  0  0  0  0  0  0  0
  151.4036  141.9753  157.6029 H   0  0  0  0  0  0  0  0  0  0  0  0
  153.4899  143.3047  161.1183 H   0  0  0  0  0  0  0  0  0  0  0  0
  154.1631  141.0432  161.5532 H   0  0  0  0  0  0  0  0  0  0  0  0
  145.8177  140.7104  156.4838 H   0  0  0  0  0  0  0  0  0  0  0  0
  145.5723  140.7122  154.7498 H   0  0  0  0  0  0  0  0  0  0  0  0
  145.6151  138.2762  156.6153 H   0  0  0  0  0  0  0  0  0  0  0  0
  144.2085  138.9646  155.8262 H   0  0  0  0  0  0  0  0  0  0  0  0
  147.3077  137.1863  155.1994 H   0  0  0  0  0  0  0  0  0  0  0  0
  147.0254  137.1499  153.4686 H   0  0  0  0  0  0  0  0  0  0  0  0
  147.3067  139.5911  153.2936 H   0  0  0  0  0  0  0  0  0  0  0  0
  148.6963  138.8618  154.0702 H   0  0  0  0  0  0  0  0  0  0  0  0
  1  2  1  0  0  0  0
  1 25  1  0  0  0  0
  1 26  1  0  0  0  0
  1 27  1  0  0  0  0
  2  3  1  0  0  0  0
  2 19  1  0  0  0  0
  2 28  1  0  0  0  0
  3  4  1  0  0  0  0
  3 29  1  0  0  0  0
  3 30  1  0  0  0  0
  4  5  1  0  0  0  0
  4 31  1  0  0  0  0
  5  6  2  0  0  0  0
  5  7  1  0  0  0  0
  7  8  1  0  0  0  0
  7 32  1  0  0  0  0
  7 33  1  0  0  0  0
  8 17  1  0  0  0  0
  8  9  1  0  0  0  0
  9 10  2  0  0  0  0
  9 34  1  0  0  0  0
 10 11  1  0  0  0  0
 10 15  1  0  0  0  0
 11 12  1  0  0  0  0
 11 13  1  0  0  0  0
 11 14  1  0  0  0  0
 15 16  2  0  0  0  0
 15 35  1  0  0  0  0
 16 17  1  0  0  0  0
 16 36  1  0  0  0  0
 17 18  2  0  0  0  0
 19 24  1  0  0  0  0
 19 20  1  0  0  0  0
 20 21  1  0  0  0  0
 20 37  1  0  0  0  0
 20 38  1  0  0  0  0
 21 22  1  0  0  0  0
 21 39  1  0  0  0  0
 21 40  1  0  0  0  0
 22 23  1  0  0  0  0
 23 24  1  0  0  0  0
 23 41  1  0  0  0  0
 23 42  1  0  0  0  0
 24 43  1  0  0  0  0
 24 44  1  0  0  0  0
M  END
> <s_m_source_file>
AV-unprocessed.smi

> <i_m_source_file_index>
2146

> <i_lp_mmshare_version>
43012

> <i_f3d_flags>
0

> <s_epik_input>
W0NIMl0xW0NIMl1PW0NIMl1bQ0gyXU4xW0NASF0oW0NIM10pW0NIMl1bTkhdQyg9TylbQ0gyXW4yW2NIXWMoQyhGKShGKUYpW2NIXVtjSF1jMj1P

> <s_epik_cmdline>
J2VwaWtfcHl0aG9uJywgJy1waCcsICc3LjAnLCAnLXRuJywgJzgnLCAnLW1hJywgJzIwMCcsICctbWV0YWxfYmluZGluZycsICctaW1hZScsICc8aW5maWxlLm1hZT4nLCAnLW9tYWUnLCAnPG91dGZpbGUubWFlPic=

> <r_lp_tautomer_probability>
1

> <r_epik_Ionization_Penalty>
0.237382

> <r_epik_Ionization_Penalty_Charging>
1.80451e-08

> <r_epik_Ionization_Penalty_Neutral>
0.237382

> <r_epik_State_Penalty>
0.228245

> <r_epik_Charging_Adjusted_Penalty>
0.228245

> <i_epik_Tot_Q>
0

> <i_epik_Tot_abs_Q>
0

> <r_epik_Metal_State_Penalty>
0.22822

> <b_epik_Metal_Only>
0

> <s_lp_Force_Field>
OPLS_2005

> <r_lp_Energy>
40.571

> <b_lp_Chiralities_Consistent>
1

> <s_lp_Variant>
AV-unprocessed.smi:2146-1

> <Gold.Version>
5.8.1

> <Gold.Id.Protein>
6NUR|6NUR_protein|mol2

> <Gold.PLP.Fitness>
49.3559

> <Gold.PLP.PLP>
-46.7045

> <Gold.PLP.part.hbond>
-1.9024

> <Gold.PLP.part.metal>
0.0000

> <Gold.PLP.part.buried>
-3.4231

> <Gold.PLP.part.nonpolar>
-39.7164

> <Gold.PLP.part.repulsive>
0.1930

> <Gold.PLP.ligand.clash>
0.0000

> <Gold.PLP.ligand.torsion>
0.7971

> <Gold.PLP.Chemscore.Hbond>
1.3519

> <Gold.PLP.Chemscore.CHOScore>
0.0000

> <Gold.PLP.Chemscore.Metal>
0.0000

> <Gold.Chemscore.Hbonds>
donor molecule, donor type, donor heavy atom, donor atom, acceptor molecule, acceptor atom, score
      P1  H  7989  7998       L1     6  0.35
      P1  H  7997  8010       L1     6  0.70

> <Gold.PLP.Chemscore.Internal.Correction>
0.1901

> <Gold.Rescore>
     Score         DG    S(hbond)    S(metal)    S(lipo)     H(rot)  DE(clash)    DE(int)     intcor
     12.56     -14.29       1.13        0.00      89.13       2.10       0.17       1.56       ----

> <Gold.Chemscore.Fitness>
12.5584

> <Gold.Chemscore.DG>
-14.2856

> <Gold.Chemscore.ZeroCoef>
-5.4800

> <Gold.Chemscore.Hbond>
1.1269

> <Gold.Chemscore.Metal>
0.0000

> <Gold.Chemscore.Lipo>
89.1263

> <Gold.Chemscore.Internal_Hbond>
0.0000

> <Gold.Chemscore.DEClash>
0.1700

> <Gold.Chemscore.DEInternal>
1.5572

> <Gold.Chemscore.Rot>
2.1039

> <Gold.Chemscore.Internal.Correction>
   9.000000E+99

> <Gold.Chemscore.Hbonds>
donor molecule, donor type, donor heavy atom, donor atom, acceptor molecule, acceptor atom, score
      P1  H  7989  7998       L1     6  0.33
      P1  H  7997  8010       L1     6  0.64

> <Gold.Chemscore.Hbond.Weighted>
-3.7637

> <Gold.Chemscore.Metal.Weighted>
-0.0000

> <Gold.Chemscore.Lipo.Weighted>
-10.4278

> <Gold.Chemscore.Internal_Hbond.Weighted>
0.0000

> <Gold.Chemscore.DEClash.Weighted>
0.1700

> <Gold.Chemscore.DEInternal.Weighted>
1.5572

> <Gold.Chemscore.Rot.Weighted>
5.3860

> <Gold.Chemscore.Internal.Correction.Weighted>
   9.000000E+99

> <Gold.Protein.RotatedTorsions>
[ 6907 6896 6895 6894 ] final  -75.51 input  -60.11 | X-H torsion
[ 7974 7965 7964 7962 ] final -171.64 input  175.53 | X-H torsion
[ 8008 7997 7996 7995 ] final   96.39 input   59.86 | X-H torsion
[ 10167 10162 10161 10158 ] final  165.86 input  -65.29 | X-H torsion
[ 10718 10713 10712 10709 ] final   91.25 input   66.30 | X-H torsion
[ 10763 10752 10751 10750 ] final  108.79 input  -60.55 | X-H torsion
[ 11005 11000 10999 10996 ] final  153.16 input  -57.11 | X-H torsion

> <Gold.Protein.ActiveResidues>
 VAL166  LYS551  ARG553  GLY616  TRP617  ASP618  TYR619  PRO620  LYS621  CYS622 
 ASP623  PHE694  ASN695  SER759  ASP760  ASP761  ALA762  ILE779  LEU786  VAL792 
 PHE793  MET794  SER795  GLU796  ALA797  LYS798  CYS799  TRP800  GLU811  SER814 

> <Gold.Protein.RotatedAtoms>
  150.7056  134.4710  159.5424 H   0  0  0  0  0  0  0  0  0  0  0  0  # atno 6907 bound_to 6896
  152.2366  134.8267  160.0475 H   0  0  0  0  0  0  0  0  0  0  0  0  # atno 6908 bound_to 6896
  151.9064  133.3515  159.3885 H   0  0  0  0  0  0  0  0  0  0  0  0  # atno 6909 bound_to 6896
  144.7155  140.1892  143.6350 H   0  0  0  0  0  0  0  0  0  0  0  0  # atno 7974 bound_to 7965
  156.0791  140.3273  155.7671 H   0  0  0  0  0  0  0  0  0  0  0  0  # atno 8008 bound_to 7997
  155.5181  140.0583  157.2929 H   0  0  0  0  0  0  0  0  0  0  0  0  # atno 8009 bound_to 7997
  154.4572  140.1948  156.0363 H   0  0  0  0  0  0  0  0  0  0  0  0  # atno 8010 bound_to 7997
  139.4913  144.4088  151.9324 H   0  0  0  0  0  0  0  0  0  0  0  0  # atno 10167 bound_to 10162
  157.6960  131.0400  150.3702 H   0  0  0  0  0  0  0  0  0  0  0  0  # atno 10718 bound_to 10713
  153.4255  135.3801  155.2138 H   0  0  0  0  0  0  0  0  0  0  0  0  # atno 10763 bound_to 10752
  154.8747  135.3827  154.4331 H   0  0  0  0  0  0  0  0  0  0  0  0  # atno 10764 bound_to 10752
  153.4857  135.7088  153.5975 H   0  0  0  0  0  0  0  0  0  0  0  0  # atno 10765 bound_to 10752
  140.1373  134.8762  157.2284 H   0  0  0  0  0  0  0  0  0  0  0  0  # atno 11005 bound_to 11000
  145.8784  139.2309  143.1620 LP  0  0  0  0  0  0  0  0  0  0  0  0  # atno 17320 bound_to 7965
  146.0018  140.8513  143.0014 LP  0  0  0  0  0  0  0  0  0  0  0  0  # atno 17321 bound_to 7965
  140.3529  144.3067  150.5946 LP  0  0  0  0  0  0  0  0  0  0  0  0  # atno 17342 bound_to 10162
  140.5470  143.2213  151.7991 LP  0  0  0  0  0  0  0  0  0  0  0  0  # atno 17343 bound_to 10162
  156.4127  130.3937  149.6880 LP  0  0  0  0  0  0  0  0  0  0  0  0  # atno 17370 bound_to 10713
  156.4158  130.7744  151.2759 LP  0  0  0  0  0  0  0  0  0  0  0  0  # atno 17371 bound_to 10713
  140.2766  134.3398  155.7356 LP  0  0  0  0  0  0  0  0  0  0  0  0  # atno 17394 bound_to 11000
  141.2180  133.7454  156.9302 LP  0  0  0  0  0  0  0  0  0  0  0  0  # atno 17395 bound_to 11000

$$$$
