AV-unprocessed.smi:2855|AV-procd|sdf|10984|dock7
  -GOLD-   2272015433D 1   1.00000     0.00000
 Structure written by MMmdl.
 47 48  0  0  0  0  0  0  0  0  1 V2000
  149.3283  132.7727  154.9021 C   0  0  0  0  0  0  0  0  0  0  0  0
  148.4690  133.7513  154.0890 C   0  0  1  0  0  0  0  0  0  0  0  0
  147.8848  133.0819  152.8356 C   0  0  0  0  0  0  0  0  0  0  0  0
  147.0194  134.0558  152.0208 C   0  0  0  0  0  0  0  0  0  0  0  0
  145.8671  134.6721  152.8548 C   0  0  2  0  0  0  0  0  0  0  0  0
  144.9819  135.6387  152.0065 C   0  0  0  0  0  0  0  0  0  0  0  0
  143.8556  136.2974  152.8264 C   0  0  0  0  0  0  0  0  0  0  0  0
  144.3615  134.9463  150.7779 C   0  0  0  0  0  0  0  0  0  0  0  0
  146.4410  135.3202  154.1478 C   0  0  2  0  0  0  0  0  0  0  0  0
  147.1567  136.5514  153.8233 N   0  0  0  0  0  0  0  0  0  0  0  0
  146.8053  137.7990  154.1733 C   0  0  0  0  0  0  0  0  0  0  0  0
  145.8407  138.0466  154.8957 O   0  0  0  0  0  0  0  0  0  0  0  0
  147.6491  138.9563  153.6121 C   0  0  0  0  0  0  0  0  0  0  0  0
  148.9495  139.1309  154.2822 N   0  0  0  0  0  0  0  0  0  0  0  0
  149.8861  138.1069  154.2750 C   0  0  0  0  0  0  0  0  0  0  0  0
  151.1142  138.2163  154.8349 C   0  0  0  0  0  0  0  0  0  0  0  0
  151.5197  139.4547  155.4913 C   0  0  0  0  0  0  0  0  0  0  0  0
  152.6098  139.6516  156.0233 O   0  0  0  0  0  0  0  0  0  0  0  0
  150.5494  140.4601  155.4800 N   0  0  0  0  0  0  0  0  0  0  0  0
  149.2825  140.3544  154.9049 C   0  0  0  0  0  0  0  0  0  0  0  0
  148.5074  141.3091  154.9389 O   0  0  0  0  0  0  0  0  0  0  0  0
  147.3328  134.3416  154.9416 C   0  0  0  0  0  0  0  0  0  0  0  0
  150.7852  141.3367  155.9219 H   0  0  0  0  0  0  0  0  0  0  0  0
  148.7372  131.9294  155.2604 H   0  0  0  0  0  0  0  0  0  0  0  0
  149.7665  133.2650  155.7707 H   0  0  0  0  0  0  0  0  0  0  0  0
  150.1468  132.3756  154.3012 H   0  0  0  0  0  0  0  0  0  0  0  0
  149.1184  134.5670  153.7676 H   0  0  0  0  0  0  0  0  0  0  0  0
  148.6913  132.7009  152.2082 H   0  0  0  0  0  0  0  0  0  0  0  0
  147.2848  132.2172  153.1231 H   0  0  0  0  0  0  0  0  0  0  0  0
  147.6484  134.8489  151.6143 H   0  0  0  0  0  0  0  0  0  0  0  0
  146.6268  133.5098  151.1647 H   0  0  0  0  0  0  0  0  0  0  0  0
  145.2274  133.8483  153.1752 H   0  0  0  0  0  0  0  0  0  0  0  0
  145.6136  136.4436  151.6289 H   0  0  0  0  0  0  0  0  0  0  0  0
  143.2267  135.5495  153.3100 H   0  0  0  0  0  0  0  0  0  0  0  0
  143.2142  136.9097  152.1921 H   0  0  0  0  0  0  0  0  0  0  0  0
  144.2469  136.9606  153.5975 H   0  0  0  0  0  0  0  0  0  0  0  0
  143.7861  134.0663  151.0666 H   0  0  0  0  0  0  0  0  0  0  0  0
  145.1169  134.6355  150.0574 H   0  0  0  0  0  0  0  0  0  0  0  0
  143.6886  135.6198  150.2461 H   0  0  0  0  0  0  0  0  0  0  0  0
  145.6069  135.5804  154.8006 H   0  0  0  0  0  0  0  0  0  0  0  0
  147.9668  136.4509  153.2294 H   0  0  0  0  0  0  0  0  0  0  0  0
  147.7933  138.8033  152.5408 H   0  0  0  0  0  0  0  0  0  0  0  0
  147.0597  139.8707  153.6932 H   0  0  0  0  0  0  0  0  0  0  0  0
  149.6316  137.1734  153.7934 H   0  0  0  0  0  0  0  0  0  0  0  0
  151.8015  137.3839  154.7943 H   0  0  0  0  0  0  0  0  0  0  0  0
  146.7113  133.5296  155.3218 H   0  0  0  0  0  0  0  0  0  0  0  0
  147.7453  134.8370  155.8215 H   0  0  0  0  0  0  0  0  0  0  0  0
  1  2  1  0  0  0  0
  1 24  1  0  0  0  0
  1 25  1  0  0  0  0
  1 26  1  0  0  0  0
  2 22  1  0  0  0  0
  2  3  1  0  0  0  0
  2 27  1  0  0  0  0
  3  4  1  0  0  0  0
  3 28  1  0  0  0  0
  3 29  1  0  0  0  0
  4  5  1  0  0  0  0
  4 30  1  0  0  0  0
  4 31  1  0  0  0  0
  5  6  1  0  0  0  0
  5  9  1  0  0  0  0
  5 32  1  0  0  0  0
  6  7  1  0  0  0  0
  6  8  1  0  0  0  0
  6 33  1  0  0  0  0
  7 34  1  0  0  0  0
  7 35  1  0  0  0  0
  7 36  1  0  0  0  0
  8 37  1  0  0  0  0
  8 38  1  0  0  0  0
  8 39  1  0  0  0  0
  9 10  1  0  0  0  0
  9 22  1  0  0  0  0
  9 40  1  0  0  0  0
 10 11  1  0  0  0  0
 10 41  1  0  0  0  0
 11 12  2  0  0  0  0
 11 13  1  0  0  0  0
 13 14  1  0  0  0  0
 13 42  1  0  0  0  0
 13 43  1  0  0  0  0
 14 20  1  0  0  0  0
 14 15  1  0  0  0  0
 15 16  2  0  0  0  0
 15 44  1  0  0  0  0
 16 17  1  0  0  0  0
 16 45  1  0  0  0  0
 17 18  2  0  0  0  0
 17 19  1  0  0  0  0
 19 23  1  0  0  0  0
 19 20  1  0  0  0  0
 20 21  2  0  0  0  0
 22 46  1  0  0  0  0
 22 47  1  0  0  0  0
M  END
> <s_m_source_file>
AV-unprocessed.smi

> <i_m_source_file_index>
2855

> <i_lp_mmshare_version>
43012

> <i_f3d_flags>
0

> <s_epik_input>
W0NIM11bQ0BASF0xW0NIMl1bQ0gyXVtDQEBIXShbQ0hdKFtDSDNdKVtDSDNdKVtDQEhdKFtDSDJdMSlbTkhdQyg9TylbQ0gyXW4yW2NIXVtjSF1jKD1PKVtuSF1jMj1P

> <s_epik_cmdline>
J2VwaWtfcHl0aG9uJywgJy1waCcsICc3LjAnLCAnLXRuJywgJzgnLCAnLW1hJywgJzIwMCcsICctbWV0YWxfYmluZGluZycsICctaW1hZScsICc8aW5maWxlLm1hZT4nLCAnLW9tYWUnLCAnPG91dGZpbGUubWFlPic=

> <r_lp_tautomer_probability>
0.999537

> <r_epik_Ionization_Penalty>
0.00306256

> <r_epik_Ionization_Penalty_Charging>
0.00306254

> <r_epik_Ionization_Penalty_Neutral>
2.0223e-08

> <r_epik_State_Penalty>
0.0021533

> <r_epik_Charging_Adjusted_Penalty>
0.00521583

> <i_epik_Tot_Q>
0

> <i_epik_Tot_abs_Q>
0

> <r_epik_Metal_State_Penalty>
0.362116

> <b_epik_Metal_Only>
0

> <s_lp_Force_Field>
OPLS_2005

> <r_lp_Energy>
12.2647

> <b_lp_Chiralities_Consistent>
1

> <s_lp_Variant>
AV-unprocessed.smi:2855-8

> <Gold.Version>
5.8.1

> <Gold.Id.Protein>
6NUR|6NUR_protein|mol2

> <Gold.PLP.Fitness>
41.3165

> <Gold.PLP.PLP>
-32.7736

> <Gold.PLP.part.hbond>
-1.9730

> <Gold.PLP.part.metal>
0.0000

> <Gold.PLP.part.buried>
0.2601

> <Gold.PLP.part.nonpolar>
-31.4621

> <Gold.PLP.part.repulsive>
1.1492

> <Gold.PLP.ligand.clash>
0.0000

> <Gold.PLP.ligand.torsion>
0.2481

> <Gold.PLP.Chemscore.Hbond>
2.0000

> <Gold.PLP.Chemscore.CHOScore>
1.0000

> <Gold.PLP.Chemscore.Metal>
0.0000

> <Gold.Chemscore.Hbonds>
donor molecule, donor type, donor heavy atom, donor atom, acceptor molecule, acceptor atom, score
      L1  H    10    41       P1  7948  1.00
      P1  H  7997  8008       L1    18  1.00
      L1  C    15    44       P1  7948  1.00

> <Gold.PLP.Chemscore.Internal.Correction>
0.0390

> <Gold.Rescore>
     Score         DG    S(hbond)    S(metal)    S(lipo)     H(rot)  DE(clash)    DE(int)     intcor
     13.95     -14.61       1.99        0.00      61.74       1.85       0.38       0.28       ----

> <Gold.Chemscore.Fitness>
13.9517

> <Gold.Chemscore.DG>
-14.6117

> <Gold.Chemscore.ZeroCoef>
-5.4800

> <Gold.Chemscore.Hbond>
1.9923

> <Gold.Chemscore.Metal>
0.0000

> <Gold.Chemscore.Lipo>
61.7396

> <Gold.Chemscore.Internal_Hbond>
0.0000

> <Gold.Chemscore.DEClash>
0.3821

> <Gold.Chemscore.DEInternal>
0.2779

> <Gold.Chemscore.Rot>
1.8539

> <Gold.Chemscore.Internal.Correction>
   9.000000E+99

> <Gold.Chemscore.Hbonds>
donor molecule, donor type, donor heavy atom, donor atom, acceptor molecule, acceptor atom, score
      L1  H    10    41       P1  7948  1.00
      P1  H  7997  8008       L1    18  1.00

> <Gold.Chemscore.Hbond.Weighted>
-6.6542

> <Gold.Chemscore.Metal.Weighted>
-0.0000

> <Gold.Chemscore.Lipo.Weighted>
-7.2235

> <Gold.Chemscore.Internal_Hbond.Weighted>
0.0000

> <Gold.Chemscore.DEClash.Weighted>
0.3821

> <Gold.Chemscore.DEInternal.Weighted>
0.2779

> <Gold.Chemscore.Rot.Weighted>
4.7460

> <Gold.Chemscore.Internal.Correction.Weighted>
   9.000000E+99

> <Gold.Protein.RotatedTorsions>
[ 6907 6896 6895 6894 ] final  126.48 input  -60.11 | X-H torsion
[ 7974 7965 7964 7962 ] final -178.51 input  175.53 | X-H torsion
[ 8008 7997 7996 7995 ] final  -35.14 input   59.86 | X-H torsion
[ 10167 10162 10161 10158 ] final   29.89 input  -65.29 | X-H torsion
[ 10718 10713 10712 10709 ] final    7.02 input   66.30 | X-H torsion
[ 10763 10752 10751 10750 ] final  105.23 input  -60.55 | X-H torsion
[ 11005 11000 10999 10996 ] final  159.85 input  -57.11 | X-H torsion

> <Gold.Protein.ActiveResidues>
 VAL166  LYS551  ARG553  GLY616  TRP617  ASP618  TYR619  PRO620  LYS621  CYS622 
 ASP623  PHE694  ASN695  SER759  ASP760  ASP761  ALA762  ILE779  LEU786  VAL792 
 PHE793  MET794  SER795  GLU796  ALA797  LYS798  CYS799  TRP800  GLU811  SER814 

> <Gold.Protein.RotatedAtoms>
  152.3900  133.6665  159.6229 H   0  0  0  0  0  0  0  0  0  0  0  0  # atno 6907 bound_to 6896
  150.7810  133.8971  159.3339 H   0  0  0  0  0  0  0  0  0  0  0  0  # atno 6908 bound_to 6896
  151.6759  135.0970  160.0258 H   0  0  0  0  0  0  0  0  0  0  0  0  # atno 6909 bound_to 6896
  144.7131  140.0858  143.6423 H   0  0  0  0  0  0  0  0  0  0  0  0  # atno 7974 bound_to 7965
  154.4103  140.1665  156.2163 H   0  0  0  0  0  0  0  0  0  0  0  0  # atno 8008 bound_to 7997
  155.9401  140.3408  155.6297 H   0  0  0  0  0  0  0  0  0  0  0  0  # atno 8009 bound_to 7997
  155.6999  140.0744  157.2405 H   0  0  0  0  0  0  0  0  0  0  0  0  # atno 8010 bound_to 7997
  140.4726  144.0739  150.6241 H   0  0  0  0  0  0  0  0  0  0  0  0  # atno 10167 bound_to 10162
  156.9308  130.5825  149.5649 H   0  0  0  0  0  0  0  0  0  0  0  0  # atno 10718 bound_to 10713
  153.3765  135.3917  155.1826 H   0  0  0  0  0  0  0  0  0  0  0  0  # atno 10763 bound_to 10752
  154.8702  135.3715  154.4911 H   0  0  0  0  0  0  0  0  0  0  0  0  # atno 10764 bound_to 10752
  153.5384  135.7085  153.5709 H   0  0  0  0  0  0  0  0  0  0  0  0  # atno 10765 bound_to 10752
  140.2002  134.8343  157.3009 H   0  0  0  0  0  0  0  0  0  0  0  0  # atno 11005 bound_to 11000
  145.9663  139.2837  143.1125 LP  0  0  0  0  0  0  0  0  0  0  0  0  # atno 17320 bound_to 7965
  145.9166  140.9144  143.0427 LP  0  0  0  0  0  0  0  0  0  0  0  0  # atno 17321 bound_to 7965
  140.3958  143.2729  152.0006 LP  0  0  0  0  0  0  0  0  0  0  0  0  # atno 17342 bound_to 10162
  139.4821  144.6039  151.7556 LP  0  0  0  0  0  0  0  0  0  0  0  0  # atno 17343 bound_to 10162
  156.0448  130.5526  150.8855 LP  0  0  0  0  0  0  0  0  0  0  0  0  # atno 17370 bound_to 10713
  157.5848  131.0945  150.9214 LP  0  0  0  0  0  0  0  0  0  0  0  0  # atno 17371 bound_to 10713
  140.2062  134.4194  155.7636 LP  0  0  0  0  0  0  0  0  0  0  0  0  # atno 17394 bound_to 11000
  141.2227  133.7096  156.8265 LP  0  0  0  0  0  0  0  0  0  0  0  0  # atno 17395 bound_to 11000

$$$$
