AV-unprocessed.smi:3017|AV-procd|sdf|11477|dock4
  -GOLD-   2272016413D 1   1.00000     0.00000
 Structure written by MMmdl.
 37 38  0  0  0  0  0  0  0  0  1 V2000
  153.4958  142.4726  161.8523 C   0  0  0  0  0  0  0  0  0  0  0  0
  152.9944  143.3437  160.6918 C   0  0  2  0  0  0  0  0  0  0  0  0
  152.0189  144.4299  161.1844 C   0  0  0  0  0  0  0  0  0  0  0  0
  151.5116  145.2994  160.0234 C   0  0  0  0  0  0  0  0  0  0  0  0
  150.8635  144.4383  158.9292 C   0  0  0  0  0  0  0  0  0  0  0  0
  151.8332  143.3599  158.4178 C   0  0  2  0  0  0  0  0  0  0  0  0
  151.1241  142.5725  157.4708 O   0  0  0  0  0  0  0  0  0  0  0  0
  151.9080  141.5784  156.8229 C   0  0  0  0  0  0  0  0  0  0  0  0
  151.0717  140.9112  155.7309 C   0  0  0  0  0  0  0  0  0  0  0  0
  151.6267  140.1869  154.9047 O   0  0  0  0  0  0  0  0  0  0  0  0
  149.7542  141.1884  155.7426 N   0  0  0  0  0  0  0  0  0  0  0  0
  148.7463  140.7030  154.8693 C   0  0  0  0  0  0  0  0  0  0  0  0
  147.6078  141.5308  154.7255 C   0  0  0  0  0  0  0  0  0  0  0  0
  146.5633  141.2034  153.9326 N   0  0  0  0  0  0  0  0  0  0  0  0
  146.6526  140.0305  153.2702 C   0  0  0  0  0  0  0  0  0  0  0  0
  147.7789  139.1937  153.4005 C   0  0  0  0  0  0  0  0  0  0  0  0
  148.8197  139.5270  154.1947 N   0  0  0  0  0  0  0  0  0  0  0  0
  152.3407  142.4898  159.5869 C   0  0  0  0  0  0  0  0  0  0  0  0
  152.6749  141.9365  162.3294 H   0  0  0  0  0  0  0  0  0  0  0  0
  153.9852  143.0790  162.6150 H   0  0  0  0  0  0  0  0  0  0  0  0
  154.2189  141.7341  161.5053 H   0  0  0  0  0  0  0  0  0  0  0  0
  153.8622  143.8441  160.2595 H   0  0  0  0  0  0  0  0  0  0  0  0
  151.1702  143.9635  161.6868 H   0  0  0  0  0  0  0  0  0  0  0  0
  152.5070  145.0619  161.9272 H   0  0  0  0  0  0  0  0  0  0  0  0
  150.7936  146.0317  160.3937 H   0  0  0  0  0  0  0  0  0  0  0  0
  152.3417  145.8662  159.5999 H   0  0  0  0  0  0  0  0  0  0  0  0
  149.9630  143.9657  159.3241 H   0  0  0  0  0  0  0  0  0  0  0  0
  150.5424  145.0719  158.1017 H   0  0  0  0  0  0  0  0  0  0  0  0
  152.6753  143.8577  157.9331 H   0  0  0  0  0  0  0  0  0  0  0  0
  152.7913  142.0268  156.3657 H   0  0  0  0  0  0  0  0  0  0  0  0
  152.2454  140.8221  157.5322 H   0  0  0  0  0  0  0  0  0  0  0  0
  149.4371  141.8061  156.4758 H   0  0  0  0  0  0  0  0  0  0  0  0
  147.5311  142.4699  155.2544 H   0  0  0  0  0  0  0  0  0  0  0  0
  145.8231  139.7585  152.6344 H   0  0  0  0  0  0  0  0  0  0  0  0
  147.8450  138.2568  152.8679 H   0  0  0  0  0  0  0  0  0  0  0  0
  153.0610  141.7557  159.2264 H   0  0  0  0  0  0  0  0  0  0  0  0
  151.5076  141.9235  160.0057 H   0  0  0  0  0  0  0  0  0  0  0  0
  1  2  1  0  0  0  0
  1 19  1  0  0  0  0
  1 20  1  0  0  0  0
  1 21  1  0  0  0  0
  2 18  1  0  0  0  0
  2  3  1  0  0  0  0
  2 22  1  0  0  0  0
  3  4  1  0  0  0  0
  3 23  1  0  0  0  0
  3 24  1  0  0  0  0
  4  5  1  0  0  0  0
  4 25  1  0  0  0  0
  4 26  1  0  0  0  0
  5  6  1  0  0  0  0
  5 27  1  0  0  0  0
  5 28  1  0  0  0  0
  6  7  1  0  0  0  0
  6 18  1  0  0  0  0
  6 29  1  0  0  0  0
  7  8  1  0  0  0  0
  8  9  1  0  0  0  0
  8 30  1  0  0  0  0
  8 31  1  0  0  0  0
  9 10  2  0  0  0  0
  9 11  1  0  0  0  0
 11 12  1  0  0  0  0
 11 32  1  0  0  0  0
 12 17  1  0  0  0  0
 12 13  2  0  0  0  0
 13 14  1  0  0  0  0
 13 33  1  0  0  0  0
 14 15  2  0  0  0  0
 15 16  1  0  0  0  0
 15 34  1  0  0  0  0
 16 17  2  0  0  0  0
 16 35  1  0  0  0  0
 18 36  1  0  0  0  0
 18 37  1  0  0  0  0
M  END
> <s_m_source_file>
AV-unprocessed.smi

> <i_m_source_file_index>
3017

> <i_lp_mmshare_version>
43012

> <i_f3d_flags>
0

> <s_epik_input>
W0NIM11bQ0BASF0xW0NIMl1bQ0gyXVtDSDJdW0NASF0oW0NIMl0xKU9bQ0gyXUMoPU8pW05IXWMyW2NIXW5bY0hdW2NIXW4y

> <s_epik_cmdline>
J2VwaWtfcHl0aG9uJywgJy1waCcsICc3LjAnLCAnLXRuJywgJzgnLCAnLW1hJywgJzIwMCcsICctbWV0YWxfYmluZGluZycsICctaW1hZScsICc8aW5maWxlLm1hZT4nLCAnLW9tYWUnLCAnPG91dGZpbGUubWFlPic=

> <r_lp_tautomer_probability>
1

> <r_epik_Ionization_Penalty>
2.89243e-06

> <r_epik_Ionization_Penalty_Charging>
0

> <r_epik_Ionization_Penalty_Neutral>
2.89243e-06

> <r_epik_State_Penalty>
-0

> <r_epik_Charging_Adjusted_Penalty>
0

> <i_epik_Tot_Q>
0

> <i_epik_Tot_abs_Q>
0

> <r_epik_Metal_State_Penalty>
-0

> <b_epik_Metal_Only>
0

> <s_lp_Force_Field>
OPLS_2005

> <r_lp_Energy>
19.9912

> <b_lp_Chiralities_Consistent>
1

> <s_lp_Variant>
AV-unprocessed.smi:3017-3

> <Gold.Version>
5.8.1

> <Gold.Id.Protein>
6NUR|6NUR_protein|mol2

> <Gold.PLP.Fitness>
49.8797

> <Gold.PLP.PLP>
-38.5430

> <Gold.PLP.part.hbond>
-1.0000

> <Gold.PLP.part.metal>
0.0000

> <Gold.PLP.part.buried>
-4.0059

> <Gold.PLP.part.nonpolar>
-34.4064

> <Gold.PLP.part.repulsive>
0.5668

> <Gold.PLP.ligand.clash>
0.0000

> <Gold.PLP.ligand.torsion>
0.2831

> <Gold.PLP.Chemscore.Hbond>
1.0000

> <Gold.PLP.Chemscore.CHOScore>
2.9605

> <Gold.PLP.Chemscore.Metal>
0.0000

> <Gold.Chemscore.Hbonds>
donor molecule, donor type, donor heavy atom, donor atom, acceptor molecule, acceptor atom, score
      P1  H  7989  7998       L1    10  1.00
      L1  C    13    33       P1  8028  0.75
      L1  C    15    34       P1 10175  1.00
      L1  C    16    35       P1  7948  1.00

> <Gold.PLP.Chemscore.Internal.Correction>
0.0216

> <Gold.Rescore>
     Score         DG    S(hbond)    S(metal)    S(lipo)     H(rot)  DE(clash)    DE(int)     intcor
     14.08     -16.21       0.72        0.00     104.30       1.51       0.82       1.31       ----

> <Gold.Chemscore.Fitness>
14.0788

> <Gold.Chemscore.DG>
-16.2066

> <Gold.Chemscore.ZeroCoef>
-5.4800

> <Gold.Chemscore.Hbond>
0.7167

> <Gold.Chemscore.Metal>
0.0000

> <Gold.Chemscore.Lipo>
104.3011

> <Gold.Chemscore.Internal_Hbond>
0.0000

> <Gold.Chemscore.DEClash>
0.8151

> <Gold.Chemscore.DEInternal>
1.3128

> <Gold.Chemscore.Rot>
1.5119

> <Gold.Chemscore.Internal.Correction>
   9.000000E+99

> <Gold.Chemscore.Hbonds>
donor molecule, donor type, donor heavy atom, donor atom, acceptor molecule, acceptor atom, score
      P1  H  7989  7998       L1    10  0.71

> <Gold.Chemscore.Hbond.Weighted>
-2.3939

> <Gold.Chemscore.Metal.Weighted>
-0.0000

> <Gold.Chemscore.Lipo.Weighted>
-12.2032

> <Gold.Chemscore.Internal_Hbond.Weighted>
0.0000

> <Gold.Chemscore.DEClash.Weighted>
0.8151

> <Gold.Chemscore.DEInternal.Weighted>
1.3128

> <Gold.Chemscore.Rot.Weighted>
3.8706

> <Gold.Chemscore.Internal.Correction.Weighted>
   9.000000E+99

> <Gold.Protein.RotatedTorsions>
[ 6907 6896 6895 6894 ] final -129.34 input  -60.11 | X-H torsion
[ 7974 7965 7964 7962 ] final   71.23 input  175.53 | X-H torsion
[ 8008 7997 7996 7995 ] final  -80.80 input   59.86 | X-H torsion
[ 10167 10162 10161 10158 ] final  -79.53 input  -65.29 | X-H torsion
[ 10718 10713 10712 10709 ] final   49.02 input   66.30 | X-H torsion
[ 10763 10752 10751 10750 ] final  -18.35 input  -60.55 | X-H torsion
[ 11005 11000 10999 10996 ] final  -11.06 input  -57.11 | X-H torsion

> <Gold.Protein.ActiveResidues>
 VAL166  LYS551  ARG553  GLY616  TRP617  ASP618  TYR619  PRO620  LYS621  CYS622 
 ASP623  PHE694  ASN695  SER759  ASP760  ASP761  ALA762  ILE779  LEU786  VAL792 
 PHE793  MET794  SER795  GLU796  ALA797  LYS798  CYS799  TRP800  GLU811  SER814 

> <Gold.Protein.RotatedAtoms>
  150.9276  133.6805  159.2817 H   0  0  0  0  0  0  0  0  0  0  0  0  # atno 6907 bound_to 6896
  151.4238  135.1000  159.9631 H   0  0  0  0  0  0  0  0  0  0  0  0  # atno 6908 bound_to 6896
  152.5010  133.8722  159.7359 H   0  0  0  0  0  0  0  0  0  0  0  0  # atno 6909 bound_to 6896
  145.7684  139.2832  143.1335 H   0  0  0  0  0  0  0  0  0  0  0  0  # atno 7974 bound_to 7965
  154.5919  140.0657  156.9251 H   0  0  0  0  0  0  0  0  0  0  0  0  # atno 8008 bound_to 7997
  155.2280  140.3335  155.4289 H   0  0  0  0  0  0  0  0  0  0  0  0  # atno 8009 bound_to 7997
  156.2262  140.1820  156.7342 H   0  0  0  0  0  0  0  0  0  0  0  0  # atno 8010 bound_to 7997
  140.4585  143.2461  151.8384 H   0  0  0  0  0  0  0  0  0  0  0  0  # atno 10167 bound_to 10162
  157.4745  130.8276  149.8024 H   0  0  0  0  0  0  0  0  0  0  0  0  # atno 10718 bound_to 10713
  153.5879  135.7003  153.5435 H   0  0  0  0  0  0  0  0  0  0  0  0  # atno 10763 bound_to 10752
  153.3204  135.4076  155.1411 H   0  0  0  0  0  0  0  0  0  0  0  0  # atno 10764 bound_to 10752
  154.8606  135.3694  154.5409 H   0  0  0  0  0  0  0  0  0  0  0  0  # atno 10765 bound_to 10752
  140.7513  133.8590  155.9047 H   0  0  0  0  0  0  0  0  0  0  0  0  # atno 11005 bound_to 11000
  146.0194  140.8362  142.9931 LP  0  0  0  0  0  0  0  0  0  0  0  0  # atno 17320 bound_to 7965
  144.6817  140.2607  143.7319 LP  0  0  0  0  0  0  0  0  0  0  0  0  # atno 17321 bound_to 7965
  139.4803  144.5036  151.9027 LP  0  0  0  0  0  0  0  0  0  0  0  0  # atno 17342 bound_to 10162
  140.4122  144.2354  150.5888 LP  0  0  0  0  0  0  0  0  0  0  0  0  # atno 17343 bound_to 10162
  156.0090  130.3842  150.2331 LP  0  0  0  0  0  0  0  0  0  0  0  0  # atno 17370 bound_to 10713
  157.0515  131.0064  151.3252 LP  0  0  0  0  0  0  0  0  0  0  0  0  # atno 17371 bound_to 10713
  140.9748  134.1483  157.4545 LP  0  0  0  0  0  0  0  0  0  0  0  0  # atno 17394 bound_to 11000
  139.8787  134.9991  156.5935 LP  0  0  0  0  0  0  0  0  0  0  0  0  # atno 17395 bound_to 11000

$$$$
