AV-unprocessed.smi:1235|AV-procd|sdf|5177|dock7
  -GOLD-   22720 4253D 1   1.00000     0.00000
 Structure written by MMmdl.
 50 51  0  0  0  0  0  0  0  0  2 V2000
  150.4242  134.6380  155.8667 C   0  0  0  0  0  0  0  0  0  0  0  0
  151.5871  135.4326  156.0216 O   0  0  0  0  0  0  0  0  0  0  0  0
  151.2975  136.8196  156.0538 C   0  0  0  0  0  0  0  0  0  0  0  0
  151.1501  137.3290  154.6120 C   0  0  0  0  0  0  0  0  0  0  0  0
  150.0513  138.2925  154.4918 N   0  0  0  0  0  0  0  0  0  0  0  0
  148.8183  137.7131  154.2424 N   0  0  0  0  0  0  0  0  0  0  0  0
  147.7684  138.4556  154.0991 C   0  0  0  0  0  0  0  0  0  0  0  0
  146.4255  137.8720  153.8253 C   0  0  0  0  0  0  0  0  0  0  0  0
  145.3904  138.3963  154.2397 O   0  0  0  0  0  0  0  0  0  0  0  0
  146.4248  136.7404  153.0975 N   0  0  0  0  0  0  0  0  0  0  0  0
  145.2344  136.0050  152.6879 C   0  0  0  0  0  0  0  0  0  0  0  0
  144.9976  136.1029  151.1672 C   0  0  0  0  0  0  0  0  0  0  0  0
  144.6920  134.7921  150.5326 N   0  3  2  0  0  0  0  0  0  0  0  0
  143.5166  134.1295  151.1607 C   0  0  0  0  0  0  0  0  0  0  0  0
  143.0753  132.8924  150.3624 C   0  0  0  0  0  0  0  0  0  0  0  0
  144.2333  131.9033  150.1925 C   0  0  0  0  0  0  0  0  0  0  0  0
  145.4372  132.6149  149.5607 C   0  0  0  0  0  0  0  0  0  0  0  0
  145.8581  133.8694  150.3558 C   0  0  2  0  0  0  0  0  0  0  0  0
  146.5691  133.5093  151.6781 C   0  0  0  0  0  0  0  0  0  0  0  0
  147.8602  139.9023  154.1999 C   0  0  0  0  0  0  0  0  0  0  0  0
  149.0700  140.4528  154.4424 C   0  0  0  0  0  0  0  0  0  0  0  0
  150.2747  139.6367  154.6025 C   0  0  0  0  0  0  0  0  0  0  0  0
  151.3888  140.1150  154.8128 O   0  0  0  0  0  0  0  0  0  0  0  0
  150.7005  133.5838  155.8545 H   0  0  0  0  0  0  0  0  0  0  0  0
  149.9151  134.8631  154.9286 H   0  0  0  0  0  0  0  0  0  0  0  0
  149.7262  134.7938  156.6903 H   0  0  0  0  0  0  0  0  0  0  0  0
  150.3783  136.9953  156.6149 H   0  0  0  0  0  0  0  0  0  0  0  0
  152.1015  137.3550  156.5614 H   0  0  0  0  0  0  0  0  0  0  0  0
  152.0859  137.7928  154.2946 H   0  0  0  0  0  0  0  0  0  0  0  0
  150.9986  136.4890  153.9318 H   0  0  0  0  0  0  0  0  0  0  0  0
  147.3166  136.3749  152.7945 H   0  0  0  0  0  0  0  0  0  0  0  0
  145.3162  134.9624  152.9998 H   0  0  0  0  0  0  0  0  0  0  0  0
  144.3985  136.4344  153.2390 H   0  0  0  0  0  0  0  0  0  0  0  0
  144.2151  136.8280  150.9434 H   0  0  0  0  0  0  0  0  0  0  0  0
  145.9044  136.4949  150.7047 H   0  0  0  0  0  0  0  0  0  0  0  0
  143.7462  133.8562  152.1912 H   0  0  0  0  0  0  0  0  0  0  0  0
  142.6821  134.8302  151.2060 H   0  0  0  0  0  0  0  0  0  0  0  0
  142.2387  132.4044  150.8634 H   0  0  0  0  0  0  0  0  0  0  0  0
  142.7106  133.2012  149.3818 H   0  0  0  0  0  0  0  0  0  0  0  0
  144.5087  131.4820  151.1597 H   0  0  0  0  0  0  0  0  0  0  0  0
  143.9224  131.0656  149.5674 H   0  0  0  0  0  0  0  0  0  0  0  0
  146.2753  131.9227  149.4716 H   0  0  0  0  0  0  0  0  0  0  0  0
  145.1797  132.9073  148.5416 H   0  0  0  0  0  0  0  0  0  0  0  0
  146.5923  134.3766  149.7310 H   0  0  0  0  0  0  0  0  0  0  0  0
  147.3896  132.8148  151.4960 H   0  0  0  0  0  0  0  0  0  0  0  0
  145.8992  133.0364  152.3957 H   0  0  0  0  0  0  0  0  0  0  0  0
  147.0043  134.3864  152.1562 H   0  0  0  0  0  0  0  0  0  0  0  0
  146.9879  140.5293  154.0854 H   0  0  0  0  0  0  0  0  0  0  0  0
  149.1526  141.5270  154.5200 H   0  0  0  0  0  0  0  0  0  0  0  0
  144.3895  135.0187  149.5958 H   0  0  0  0  0  0  0  0  0  0  0  0
  1  2  1  0  0  0  0
  1 24  1  0  0  0  0
  1 25  1  0  0  0  0
  1 26  1  0  0  0  0
  2  3  1  0  0  0  0
  3  4  1  0  0  0  0
  3 27  1  0  0  0  0
  3 28  1  0  0  0  0
  4  5  1  0  0  0  0
  4 29  1  0  0  0  0
  4 30  1  0  0  0  0
  5 22  1  0  0  0  0
  5  6  1  0  0  0  0
  6  7  2  0  0  0  0
  7  8  1  0  0  0  0
  7 20  1  0  0  0  0
  8  9  2  0  0  0  0
  8 10  1  0  0  0  0
 10 11  1  0  0  0  0
 10 31  1  0  0  0  0
 11 12  1  0  0  0  0
 11 32  1  0  0  0  0
 11 33  1  0  0  0  0
 12 13  1  0  0  0  0
 12 34  1  0  0  0  0
 12 35  1  0  0  0  0
 13 18  1  0  0  0  0
 13 14  1  0  0  0  0
 13 50  1  0  0  0  0
 14 15  1  0  0  0  0
 14 36  1  0  0  0  0
 14 37  1  0  0  0  0
 15 16  1  0  0  0  0
 15 38  1  0  0  0  0
 15 39  1  0  0  0  0
 16 17  1  0  0  0  0
 16 40  1  0  0  0  0
 16 41  1  0  0  0  0
 17 18  1  0  0  0  0
 17 42  1  0  0  0  0
 17 43  1  0  0  0  0
 18 19  1  0  0  0  0
 18 44  1  0  0  0  0
 19 45  1  0  0  0  0
 19 46  1  0  0  0  0
 19 47  1  0  0  0  0
 20 21  2  0  0  0  0
 20 48  1  0  0  0  0
 21 22  1  0  0  0  0
 21 49  1  0  0  0  0
 22 23  2  0  0  0  0
M  CHG  1  13   1
M  END
> <s_m_source_file>
AV-unprocessed.smi

> <i_m_source_file_index>
1235

> <i_lp_mmshare_version>
43012

> <i_f3d_flags>
0

> <s_epik_input>
W0NIM11PW0NIMl1bQ0gyXW4xbmMoW2NIXVtjSF1jMT1PKUMoPU8pW05IXVtDSDJdW0NIMl1OMltDSDJdW0NIMl1bQ0gyXVtDSDJdW0NASF0yW0NIM10=

> <s_epik_cmdline>
J2VwaWtfcHl0aG9uJywgJy1waCcsICc3LjAnLCAnLXRuJywgJzgnLCAnLW1hJywgJzIwMCcsICctbWV0YWxfYmluZGluZycsICctaW1hZScsICc8aW5maWxlLm1hZT4nLCAnLW9tYWUnLCAnPG91dGZpbGUubWFlPic=

> <r_lp_tautomer_probability>
1

> <r_epik_Ionization_Penalty>
0.00271975

> <r_epik_Ionization_Penalty_Charging>
0.00271407

> <r_epik_Ionization_Penalty_Neutral>
5.6803e-06

> <r_epik_State_Penalty>
0.00189271

> <r_epik_Charging_Adjusted_Penalty>
0.00460678

> <i_epik_Tot_Q>
1

> <i_epik_Tot_abs_Q>
1

> <r_epik_Metal_State_Penalty>
-0

> <b_epik_Metal_Only>
0

> <s_lp_Force_Field>
OPLS_2005

> <r_lp_Energy>
40.192

> <b_lp_Chiralities_Consistent>
1

> <s_lp_Variant>
AV-unprocessed.smi:1235-3

> <Gold.Version>
5.8.1

> <Gold.Id.Protein>
6NUR|6NUR_protein|mol2

> <Gold.PLP.Fitness>
44.7479

> <Gold.PLP.PLP>
-38.7680

> <Gold.PLP.part.hbond>
-2.9211

> <Gold.PLP.part.metal>
0.0000

> <Gold.PLP.part.buried>
-6.3010

> <Gold.PLP.part.nonpolar>
-32.4006

> <Gold.PLP.part.repulsive>
1.9099

> <Gold.PLP.ligand.clash>
0.0000

> <Gold.PLP.ligand.torsion>
1.6184

> <Gold.PLP.Chemscore.Hbond>
3.0000

> <Gold.PLP.Chemscore.CHOScore>
0.0000

> <Gold.PLP.Chemscore.Metal>
0.0000

> <Gold.Chemscore.Hbonds>
donor molecule, donor type, donor heavy atom, donor atom, acceptor molecule, acceptor atom, score
      L1  H    10    31       P1  7948  1.00
      P1  H  7989  7998       L1    23  1.00
      P1  H 10752 10765       L1     2  0.85

> <Gold.PLP.Chemscore.Internal.Correction>
0.2168

> <Gold.Rescore>
     Score         DG    S(hbond)    S(metal)    S(lipo)     H(rot)  DE(clash)    DE(int)     intcor
     16.33     -18.43       2.33        0.00      88.15       2.00       0.44       1.66       ----

> <Gold.Chemscore.Fitness>
16.3328

> <Gold.Chemscore.DG>
-18.4349

> <Gold.Chemscore.ZeroCoef>
-5.4800

> <Gold.Chemscore.Hbond>
2.3253

> <Gold.Chemscore.Metal>
0.0000

> <Gold.Chemscore.Lipo>
88.1491

> <Gold.Chemscore.Internal_Hbond>
0.0000

> <Gold.Chemscore.DEClash>
0.4397

> <Gold.Chemscore.DEInternal>
1.6624

> <Gold.Chemscore.Rot>
2.0020

> <Gold.Chemscore.Internal.Correction>
   9.000000E+99

> <Gold.Chemscore.Hbonds>
donor molecule, donor type, donor heavy atom, donor atom, acceptor molecule, acceptor atom, score
      L1  H    10    31       P1  7948  0.99
      P1  H  7989  7998       L1    23  0.32
      P1  H 10752 10765       L1     2  0.29

> <Gold.Chemscore.Hbond.Weighted>
-7.7666

> <Gold.Chemscore.Metal.Weighted>
-0.0000

> <Gold.Chemscore.Lipo.Weighted>
-10.3134

> <Gold.Chemscore.Internal_Hbond.Weighted>
0.0000

> <Gold.Chemscore.DEClash.Weighted>
0.4397

> <Gold.Chemscore.DEInternal.Weighted>
1.6624

> <Gold.Chemscore.Rot.Weighted>
5.1252

> <Gold.Chemscore.Internal.Correction.Weighted>
   9.000000E+99

> <Gold.Protein.RotatedTorsions>
[ 6907 6896 6895 6894 ] final  131.36 input  -60.11 | X-H torsion
[ 7974 7965 7964 7962 ] final  -41.00 input  175.53 | X-H torsion
[ 8008 7997 7996 7995 ] final   64.32 input   59.86 | X-H torsion
[ 10167 10162 10161 10158 ] final   73.12 input  -65.29 | X-H torsion
[ 10718 10713 10712 10709 ] final   -2.55 input   66.30 | X-H torsion
[ 10763 10752 10751 10750 ] final -132.98 input  -60.55 | X-H torsion
[ 11005 11000 10999 10996 ] final  -25.68 input  -57.11 | X-H torsion

> <Gold.Protein.ActiveResidues>
 VAL166  LYS551  ARG553  GLY616  TRP617  ASP618  TYR619  PRO620  LYS621  CYS622 
 ASP623  PHE694  ASN695  SER759  ASP760  ASP761  ALA762  ILE779  LEU786  VAL792 
 PHE793  MET794  SER795  GLU796  ALA797  LYS798  CYS799  TRP800  GLU811  SER814 

> <Gold.Protein.RotatedAtoms>
  152.3434  133.6094  159.5892 H   0  0  0  0  0  0  0  0  0  0  0  0  # atno 6907 bound_to 6896
  150.7492  133.9687  159.3547 H   0  0  0  0  0  0  0  0  0  0  0  0  # atno 6908 bound_to 6896
  151.7548  135.0825  160.0387 H   0  0  0  0  0  0  0  0  0  0  0  0  # atno 6909 bound_to 6896
  146.0252  140.6800  142.9159 H   0  0  0  0  0  0  0  0  0  0  0  0  # atno 7974 bound_to 7965
  155.6442  140.3497  155.4725 H   0  0  0  0  0  0  0  0  0  0  0  0  # atno 8008 bound_to 7997
  155.9901  140.1192  157.0669 H   0  0  0  0  0  0  0  0  0  0  0  0  # atno 8009 bound_to 7997
  154.4216  140.1121  156.5540 H   0  0  0  0  0  0  0  0  0  0  0  0  # atno 8010 bound_to 7997
  140.0279  144.5489  150.7530 H   0  0  0  0  0  0  0  0  0  0  0  0  # atno 10167 bound_to 10162
  156.7892  130.5356  149.5738 H   0  0  0  0  0  0  0  0  0  0  0  0  # atno 10718 bound_to 10713
  154.8737  135.3780  154.4498 H   0  0  0  0  0  0  0  0  0  0  0  0  # atno 10763 bound_to 10752
  153.5175  135.7029  153.5753 H   0  0  0  0  0  0  0  0  0  0  0  0  # atno 10764 bound_to 10752
  153.4015  135.3947  155.1957 H   0  0  0  0  0  0  0  0  0  0  0  0  # atno 10765 bound_to 10752
  140.8959  133.7556  156.0481 H   0  0  0  0  0  0  0  0  0  0  0  0  # atno 11005 bound_to 11000
  144.7007  140.3638  143.7159 LP  0  0  0  0  0  0  0  0  0  0  0  0  # atno 17320 bound_to 7965
  145.7129  139.1689  143.2528 LP  0  0  0  0  0  0  0  0  0  0  0  0  # atno 17321 bound_to 7965
  140.7315  143.2694  151.3936 LP  0  0  0  0  0  0  0  0  0  0  0  0  # atno 17342 bound_to 10162
  139.6096  144.1127  152.2284 LP  0  0  0  0  0  0  0  0  0  0  0  0  # atno 17343 bound_to 10162
  156.1170  130.6082  151.0135 LP  0  0  0  0  0  0  0  0  0  0  0  0  # atno 17370 bound_to 10713
  157.6609  131.0881  150.7841 LP  0  0  0  0  0  0  0  0  0  0  0  0  # atno 17371 bound_to 10713
  140.8289  134.3201  157.5356 LP  0  0  0  0  0  0  0  0  0  0  0  0  # atno 17394 bound_to 11000
  139.8735  134.9352  156.3627 LP  0  0  0  0  0  0  0  0  0  0  0  0  # atno 17395 bound_to 11000

$$$$
