AV-unprocessed.smi:1240|AV-procd|sdf|5214|dock8
  -GOLD-   22720 4313D 1   1.00000     0.00000
 Structure written by MMmdl.
 48 50  0  0  0  0  0  0  0  0  4 V2000
  147.3038  132.1701  153.5043 O   0  0  0  0  0  0  0  0  0  0  0  0
  147.9834  133.1145  153.0865 C   0  0  0  0  0  0  0  0  0  0  0  0
  149.2824  133.3939  153.3760 N   0  5  0  0  0  0  0  0  0  0  0  0
  149.7587  134.0016  154.6201 C   0  0  0  0  0  0  0  0  0  0  0  0
  148.8785  135.2400  155.0158 C   0  0  1  0  0  0  0  0  0  0  0  0
  148.4454  135.2799  156.5189 C   0  0  1  0  0  0  0  0  0  0  0  0
  147.9418  133.9457  157.0513 C   0  0  0  0  0  0  0  0  0  0  0  0
  147.9999  134.1510  158.5595 C   0  0  0  0  0  0  0  0  0  0  0  0
  149.1286  134.9855  158.7807 O   0  0  0  0  0  0  0  0  0  0  0  0
  149.5531  135.5638  157.5502 C   0  0  0  0  0  0  0  0  0  0  0  0
  149.4716  136.5692  154.6291 N   0  3  0  0  0  0  0  0  0  0  0  0
  148.7143  137.8050  154.9772 C   0  0  0  0  0  0  0  0  0  0  0  0
  149.3234  139.0116  154.2454 C   0  0  0  0  0  0  0  0  0  0  0  0
  150.7018  139.1286  154.5789 O   0  0  0  0  0  0  0  0  0  0  0  0
  151.4507  137.9874  154.1771 C   0  0  0  0  0  0  0  0  0  0  0  0
  150.9240  136.7377  154.9015 C   0  0  0  0  0  0  0  0  0  0  0  0
  147.4432  134.0263  152.2581 N   0  0  0  0  0  0  0  0  0  0  0  0
  146.1129  134.1062  151.7656 C   0  0  0  0  0  0  0  0  0  0  0  0
  145.7603  135.2456  151.0093 C   0  0  0  0  0  0  0  0  0  0  0  0
  144.4543  135.3586  150.4915 C   0  0  0  0  0  0  0  0  0  0  0  0
  143.5568  134.3734  150.7095 N   0  3  0  0  0  0  0  0  0  0  0  0
  143.8540  133.2563  151.4080 C   0  0  0  0  0  0  0  0  0  0  0  0
  145.1442  133.0876  151.9504 C   0  0  0  0  0  0  0  0  0  0  0  0
  149.7522  133.2862  155.4424 H   0  0  0  0  0  0  0  0  0  0  0  0
  150.7970  134.3240  154.5393 H   0  0  0  0  0  0  0  0  0  0  0  0
  147.9549  135.1720  154.4379 H   0  0  0  0  0  0  0  0  0  0  0  0
  147.6515  136.0151  156.6666 H   0  0  0  0  0  0  0  0  0  0  0  0
  146.9381  133.6936  156.7081 H   0  0  0  0  0  0  0  0  0  0  0  0
  148.6155  133.1391  156.7581 H   0  0  0  0  0  0  0  0  0  0  0  0
  147.1077  134.6732  158.9068 H   0  0  0  0  0  0  0  0  0  0  0  0
  148.0803  133.2123  159.1082 H   0  0  0  0  0  0  0  0  0  0  0  0
  150.4884  135.0846  157.2576 H   0  0  0  0  0  0  0  0  0  0  0  0
  149.7456  136.6298  157.6744 H   0  0  0  0  0  0  0  0  0  0  0  0
  147.6658  137.7056  154.6983 H   0  0  0  0  0  0  0  0  0  0  0  0
  148.7461  137.9863  156.0524 H   0  0  0  0  0  0  0  0  0  0  0  0
  149.2044  138.9123  153.1651 H   0  0  0  0  0  0  0  0  0  0  0  0
  148.8099  139.9273  154.5388 H   0  0  0  0  0  0  0  0  0  0  0  0
  151.3921  137.8630  153.0944 H   0  0  0  0  0  0  0  0  0  0  0  0
  152.5003  138.1493  154.4226 H   0  0  0  0  0  0  0  0  0  0  0  0
  151.1037  136.8350  155.9728 H   0  0  0  0  0  0  0  0  0  0  0  0
  151.4748  135.8602  154.5612 H   0  0  0  0  0  0  0  0  0  0  0  0
  148.0381  134.8114  152.0368 H   0  0  0  0  0  0  0  0  0  0  0  0
  146.4807  136.0320  150.8353 H   0  0  0  0  0  0  0  0  0  0  0  0
  144.1041  136.2006  149.9130 H   0  0  0  0  0  0  0  0  0  0  0  0
  143.0582  132.5326  151.5072 H   0  0  0  0  0  0  0  0  0  0  0  0
  145.3728  132.1799  152.4882 H   0  0  0  0  0  0  0  0  0  0  0  0
  149.4290  136.5380  153.6210 H   0  0  0  0  0  0  0  0  0  0  0  0
  142.6167  134.4746  150.3266 H   0  0  0  0  0  0  0  0  0  0  0  0
  1  2  2  0  0  0  0
  2  3  1  0  0  0  0
  2 17  1  0  0  0  0
  3  4  1  0  0  0  0
  4  5  1  0  0  0  0
  4 24  1  0  0  0  0
  4 25  1  0  0  0  0
  5  6  1  0  0  0  0
  5 11  1  0  0  0  0
  5 26  1  0  0  0  0
  6 10  1  0  0  0  0
  6  7  1  0  0  0  0
  6 27  1  0  0  0  0
  7  8  1  0  0  0  0
  7 28  1  0  0  0  0
  7 29  1  0  0  0  0
  8  9  1  0  0  0  0
  8 30  1  0  0  0  0
  8 31  1  0  0  0  0
  9 10  1  0  0  0  0
 10 32  1  0  0  0  0
 10 33  1  0  0  0  0
 11 16  1  0  0  0  0
 11 12  1  0  0  0  0
 11 47  1  0  0  0  0
 12 13  1  0  0  0  0
 12 34  1  0  0  0  0
 12 35  1  0  0  0  0
 13 14  1  0  0  0  0
 13 36  1  0  0  0  0
 13 37  1  0  0  0  0
 14 15  1  0  0  0  0
 15 16  1  0  0  0  0
 15 38  1  0  0  0  0
 15 39  1  0  0  0  0
 16 40  1  0  0  0  0
 16 41  1  0  0  0  0
 17 18  1  0  0  0  0
 17 42  1  0  0  0  0
 18 23  1  0  0  0  0
 18 19  2  0  0  0  0
 19 20  1  0  0  0  0
 19 43  1  0  0  0  0
 20 21  2  0  0  0  0
 20 44  1  0  0  0  0
 21 22  1  0  0  0  0
 21 48  1  0  0  0  0
 22 23  2  0  0  0  0
 22 45  1  0  0  0  0
 23 46  1  0  0  0  0
M  CHG  1   3  -1
M  CHG  1  11   1
M  CHG  1  21   1
M  END
> <s_m_source_file>
AV-unprocessed.smi

> <i_m_source_file_index>
1240

> <i_lp_mmshare_version>
43012

> <i_f3d_flags>
0

> <s_epik_input>
W2NIXTFbY0hdbltjSF1bY0hdYzFbTkhdQyg9TylbTkhdW0NIMl1bQ0BIXShbQ0BASF0yW0NIMl1bQ0gyXU9bQ0gyXTIpTjNbQ0gyXVtDSDJdT1tDSDJdW0NIMl0z

> <s_epik_cmdline>
J2VwaWtfcHl0aG9uJywgJy1waCcsICc3LjAnLCAnLXRuJywgJzgnLCAnLW1hJywgJzIwMCcsICctbWV0YWxfYmluZGluZycsICctaW1hZScsICc8aW5maWxlLm1hZT4nLCAnLW9tYWUnLCAnPG91dGZpbGUubWFlPic=

> <r_epik_Ionization_Penalty>
8.41087

> <r_epik_Ionization_Penalty_Charging>
8.41087

> <r_epik_Ionization_Penalty_Neutral>
3.12936e-06

> <r_epik_State_Penalty>
8.81894

> <r_epik_Charging_Adjusted_Penalty>
17.2298

> <i_epik_Tot_Q>
1

> <i_epik_Tot_abs_Q>
3

> <r_epik_Metal_State_Penalty>
4.82983

> <b_epik_Metal_Only>
1

> <s_lp_Force_Field>
OPLS_2005

> <r_lp_Energy>
49.5446

> <b_lp_Chiralities_Consistent>
1

> <s_lp_Variant>
AV-unprocessed.smi:1240-20

> <Gold.Version>
5.8.1

> <Gold.Id.Protein>
6NUR|6NUR_protein|mol2

> <Gold.PLP.Fitness>
50.7110

> <Gold.PLP.PLP>
-33.2180

> <Gold.PLP.part.hbond>
-4.7868

> <Gold.PLP.part.metal>
0.0000

> <Gold.PLP.part.buried>
-5.7124

> <Gold.PLP.part.nonpolar>
-23.0249

> <Gold.PLP.part.repulsive>
0.4532

> <Gold.PLP.ligand.clash>
0.0000

> <Gold.PLP.ligand.torsion>
1.7359

> <Gold.PLP.Chemscore.Hbond>
6.8288

> <Gold.PLP.Chemscore.CHOScore>
0.0000

> <Gold.PLP.Chemscore.Metal>
0.0000

> <Gold.Chemscore.Hbonds>
donor molecule, donor type, donor heavy atom, donor atom, acceptor molecule, acceptor atom, score
      L1  H    11    47       P1  7948  2.00
      L1  H    17    42       P1  7948  1.00
      L1  H    21    48       P1 10186  2.00
      P1  H  6896  6909       L1     9  1.00
      P1  H  7989  7998       L1    14  0.46

> <Gold.PLP.Chemscore.Internal.Correction>
0.4785

> <Gold.Rescore>
     Score         DG    S(hbond)    S(metal)    S(lipo)     H(rot)  DE(clash)    DE(int)     intcor
     16.83     -20.01       3.24        0.00      68.98       1.70       0.04       3.14       ----

> <Gold.Chemscore.Fitness>
16.8262

> <Gold.Chemscore.DG>
-20.0070

> <Gold.Chemscore.ZeroCoef>
-5.4800

> <Gold.Chemscore.Hbond>
3.2378

> <Gold.Chemscore.Metal>
0.0000

> <Gold.Chemscore.Lipo>
68.9757

> <Gold.Chemscore.Internal_Hbond>
0.0000

> <Gold.Chemscore.DEClash>
0.0359

> <Gold.Chemscore.DEInternal>
3.1449

> <Gold.Chemscore.Rot>
1.7021

> <Gold.Chemscore.Internal.Correction>
   9.000000E+99

> <Gold.Chemscore.Hbonds>
donor molecule, donor type, donor heavy atom, donor atom, acceptor molecule, acceptor atom, score
      L1  H    11    47       P1  7948  0.82
      L1  H    17    42       P1  7948  0.35
      L1  H    21    48       P1 10186  0.55
      P1  H  6896  6909       L1     9  0.39
      P1  H  7989  7998       L1    14  0.18

> <Gold.Chemscore.Hbond.Weighted>
-10.8143

> <Gold.Chemscore.Metal.Weighted>
-0.0000

> <Gold.Chemscore.Lipo.Weighted>
-8.0702

> <Gold.Chemscore.Internal_Hbond.Weighted>
0.0000

> <Gold.Chemscore.DEClash.Weighted>
0.0359

> <Gold.Chemscore.DEInternal.Weighted>
3.1449

> <Gold.Chemscore.Rot.Weighted>
4.3575

> <Gold.Chemscore.Internal.Correction.Weighted>
   9.000000E+99

> <Gold.Protein.RotatedTorsions>
[ 6907 6896 6895 6894 ] final   37.99 input  -60.11 | X-H torsion
[ 7974 7965 7964 7962 ] final   35.33 input  175.53 | X-H torsion
[ 8008 7997 7996 7995 ] final   69.66 input   59.86 | X-H torsion
[ 10167 10162 10161 10158 ] final -106.18 input  -65.29 | X-H torsion
[ 10718 10713 10712 10709 ] final  151.18 input   66.30 | X-H torsion
[ 10763 10752 10751 10750 ] final  -67.16 input  -60.55 | X-H torsion
[ 11005 11000 10999 10996 ] final   38.26 input  -57.11 | X-H torsion

> <Gold.Protein.ActiveResidues>
 VAL166  LYS551  ARG553  GLY616  TRP617  ASP618  TYR619  PRO620  LYS621  CYS622 
 ASP623  PHE694  ASN695  SER759  ASP760  ASP761  ALA762  ILE779  LEU786  VAL792 
 PHE793  MET794  SER795  GLU796  ALA797  LYS798  CYS799  TRP800  GLU811  SER814 

> <Gold.Protein.RotatedAtoms>
  152.1505  134.8992  160.0548 H   0  0  0  0  0  0  0  0  0  0  0  0  # atno 6907 bound_to 6896
  152.0026  133.3826  159.4196 H   0  0  0  0  0  0  0  0  0  0  0  0  # atno 6908 bound_to 6896
  150.6875  134.3739  159.5048 H   0  0  0  0  0  0  0  0  0  0  0  0  # atno 6909 bound_to 6896
  146.1290  139.6156  142.9239 H   0  0  0  0  0  0  0  0  0  0  0  0  # atno 7974 bound_to 7965
  155.7270  140.3492  155.5042 H   0  0  0  0  0  0  0  0  0  0  0  0  # atno 8008 bound_to 7997
  155.9218  140.1068  157.1223 H   0  0  0  0  0  0  0  0  0  0  0  0  # atno 8009 bound_to 7997
  154.4071  140.1248  156.4675 H   0  0  0  0  0  0  0  0  0  0  0  0  # atno 8010 bound_to 7997
  140.1905  143.3895  152.1210 H   0  0  0  0  0  0  0  0  0  0  0  0  # atno 10167 bound_to 10162
  157.2740  131.0822  151.1579 H   0  0  0  0  0  0  0  0  0  0  0  0  # atno 10718 bound_to 10713
  154.3703  135.6096  153.5737 H   0  0  0  0  0  0  0  0  0  0  0  0  # atno 10763 bound_to 10752
  152.9790  135.5836  154.4529 H   0  0  0  0  0  0  0  0  0  0  0  0  # atno 10764 bound_to 10752
  154.4282  135.2847  155.1908 H   0  0  0  0  0  0  0  0  0  0  0  0  # atno 10765 bound_to 10752
  140.2144  134.3716  155.8034 H   0  0  0  0  0  0  0  0  0  0  0  0  # atno 11005 bound_to 11000
  145.5302  141.0427  143.2387 LP  0  0  0  0  0  0  0  0  0  0  0  0  # atno 17320 bound_to 7965
  144.7671  139.6819  143.7210 LP  0  0  0  0  0  0  0  0  0  0  0  0  # atno 17321 bound_to 7965
  139.5258  144.7100  151.5236 LP  0  0  0  0  0  0  0  0  0  0  0  0  # atno 17342 bound_to 10162
  140.6459  143.8796  150.6736 LP  0  0  0  0  0  0  0  0  0  0  0  0  # atno 17343 bound_to 10162
  157.3040  130.6857  149.6179 LP  0  0  0  0  0  0  0  0  0  0  0  0  # atno 17370 bound_to 10713
  155.9663  130.4383  150.5213 LP  0  0  0  0  0  0  0  0  0  0  0  0  # atno 17371 bound_to 10713
  141.2225  133.7160  156.8472 LP  0  0  0  0  0  0  0  0  0  0  0  0  # atno 17394 bound_to 11000
  140.1916  134.8961  157.3067 LP  0  0  0  0  0  0  0  0  0  0  0  0  # atno 17395 bound_to 11000

$$$$
