AV-unprocessed.smi:500|AV-procd|sdf|2737|dock9
  -GOLD-   2262023193D 1   1.00000     0.00000
 Structure written by MMmdl.
 46 48  0  0  0  0  0  0  0  0  2 V2000
  147.5794  139.3273  153.4565 C   0  0  0  0  0  0  0  0  0  0  0  0
  147.1884  140.7105  153.9820 C   0  0  0  0  0  0  0  0  0  0  0  0
  148.3662  141.4470  154.2653 O   0  0  0  0  0  0  0  0  0  0  0  0
  149.0072  141.0179  155.4541 C   0  0  0  0  0  0  0  0  0  0  0  0
  150.3210  141.7925  155.6115 C   0  0  0  0  0  0  0  0  0  0  0  0
  151.0620  141.3769  156.8096 N   0  0  0  0  0  0  0  0  0  0  0  0
  151.3813  140.1304  157.2650 C   0  0  0  0  0  0  0  0  0  0  0  0
  151.0037  138.8234  156.6247 C   0  0  1  0  0  0  0  0  0  0  0  0
  152.2010  138.1156  155.9618 C   0  0  0  0  0  0  0  0  0  0  0  0
  150.2927  137.9317  157.5415 N   0  0  0  0  0  0  0  0  0  0  0  0
  149.2074  138.2275  158.2777 C   0  0  0  0  0  0  0  0  0  0  0  0
  148.6678  139.3339  158.2827 O   0  0  0  0  0  0  0  0  0  0  0  0
  148.6709  137.1250  159.0976 C   0  0  0  0  0  0  0  0  0  0  0  0
  148.7117  135.7658  158.9276 C   0  0  0  0  0  0  0  0  0  0  0  0
  148.0272  135.1961  160.0365 C   0  0  0  0  0  0  0  0  0  0  0  0
  147.6171  136.2470  160.8052 C   0  0  0  0  0  0  0  0  0  0  0  0
  148.0017  137.4274  160.2481 O   0  0  0  0  0  0  0  0  0  0  0  0
  152.0629  140.2969  158.4358 N   0  3  0  0  0  0  0  0  0  0  0  0
  152.1961  141.6561  158.7196 C   0  0  0  0  0  0  0  0  0  0  0  0
  152.8101  142.3102  159.7832 C   0  0  0  0  0  0  0  0  0  0  0  0
  152.7656  143.7201  159.7696 C   0  0  0  0  0  0  0  0  0  0  0  0
  152.1282  144.4245  158.7274 C   0  0  0  0  0  0  0  0  0  0  0  0
  151.5082  143.7498  157.6551 C   0  0  0  0  0  0  0  0  0  0  0  0
  151.5566  142.3563  157.6771 C   0  0  0  0  0  0  0  0  0  0  0  0
  146.6939  138.7332  153.2295 H   0  0  0  0  0  0  0  0  0  0  0  0
  148.1687  138.7807  154.1932 H   0  0  0  0  0  0  0  0  0  0  0  0
  148.1718  139.4066  152.5447 H   0  0  0  0  0  0  0  0  0  0  0  0
  146.5869  141.2347  153.2379 H   0  0  0  0  0  0  0  0  0  0  0  0
  146.5828  140.6069  154.8834 H   0  0  0  0  0  0  0  0  0  0  0  0
  148.3609  141.1984  156.3147 H   0  0  0  0  0  0  0  0  0  0  0  0
  149.2023  139.9454  155.4061 H   0  0  0  0  0  0  0  0  0  0  0  0
  150.9614  141.6663  154.7379 H   0  0  0  0  0  0  0  0  0  0  0  0
  150.1193  142.8606  155.6935 H   0  0  0  0  0  0  0  0  0  0  0  0
  150.2934  139.0558  155.8307 H   0  0  0  0  0  0  0  0  0  0  0  0
  152.6611  138.7517  155.2052 H   0  0  0  0  0  0  0  0  0  0  0  0
  151.8852  137.1968  155.4667 H   0  0  0  0  0  0  0  0  0  0  0  0
  152.9729  137.8505  156.6849 H   0  0  0  0  0  0  0  0  0  0  0  0
  150.6528  136.9910  157.6141 H   0  0  0  0  0  0  0  0  0  0  0  0
  149.1764  135.2417  158.1054 H   0  0  0  0  0  0  0  0  0  0  0  0
  147.8559  134.1504  160.2452 H   0  0  0  0  0  0  0  0  0  0  0  0
  147.0692  136.3303  161.7323 H   0  0  0  0  0  0  0  0  0  0  0  0
  153.2981  141.7727  160.5830 H   0  0  0  0  0  0  0  0  0  0  0  0
  153.2292  144.2721  160.5743 H   0  0  0  0  0  0  0  0  0  0  0  0
  152.1137  145.5046  158.7509 H   0  0  0  0  0  0  0  0  0  0  0  0
  151.0230  144.2981  156.8610 H   0  0  0  0  0  0  0  0  0  0  0  0
  152.4039  139.5300  159.0012 H   0  0  0  0  0  0  0  0  0  0  0  0
  1  2  1  0  0  0  0
  1 25  1  0  0  0  0
  1 26  1  0  0  0  0
  1 27  1  0  0  0  0
  2  3  1  0  0  0  0
  2 28  1  0  0  0  0
  2 29  1  0  0  0  0
  3  4  1  0  0  0  0
  4  5  1  0  0  0  0
  4 30  1  0  0  0  0
  4 31  1  0  0  0  0
  5  6  1  0  0  0  0
  5 32  1  0  0  0  0
  5 33  1  0  0  0  0
  6 24  1  0  0  0  0
  6  7  1  0  0  0  0
  7  8  1  0  0  0  0
  7 18  2  0  0  0  0
  8  9  1  0  0  0  0
  8 10  1  0  0  0  0
  8 34  1  0  0  0  0
  9 35  1  0  0  0  0
  9 36  1  0  0  0  0
  9 37  1  0  0  0  0
 10 11  1  0  0  0  0
 10 38  1  0  0  0  0
 11 12  2  0  0  0  0
 11 13  1  0  0  0  0
 13 17  1  0  0  0  0
 13 14  2  0  0  0  0
 14 15  1  0  0  0  0
 14 39  1  0  0  0  0
 15 16  2  0  0  0  0
 15 40  1  0  0  0  0
 16 17  1  0  0  0  0
 16 41  1  0  0  0  0
 18 19  1  0  0  0  0
 18 46  1  0  0  0  0
 19 24  2  0  0  0  0
 19 20  1  0  0  0  0
 20 21  2  0  0  0  0
 20 42  1  0  0  0  0
 21 22  1  0  0  0  0
 21 43  1  0  0  0  0
 22 23  2  0  0  0  0
 22 44  1  0  0  0  0
 23 24  1  0  0  0  0
 23 45  1  0  0  0  0
M  CHG  1  18   1
M  END
> <s_m_source_file>
AV-unprocessed.smi

> <i_m_source_file_index>
500

> <i_lp_mmshare_version>
43012

> <i_f3d_flags>
0

> <s_epik_input>
W0NIM11bQ0gyXU9bQ0gyXVtDSDJdbihjKGMxMilbY0hdW2NIXVtjSF1bY0hdMiljKG4xKVtDQEhdKFtDSDNdKVtOSF1DKD1PKWMzW2NIXVtjSF1bY0hdbzM=

> <s_epik_cmdline>
J2VwaWtfcHl0aG9uJywgJy1waCcsICc3LjAnLCAnLXRuJywgJzgnLCAnLW1hJywgJzIwMCcsICctbWV0YWxfYmluZGluZycsICctaW1hZScsICc8aW5maWxlLm1hZT4nLCAnLW9tYWUnLCAnPG91dGZpbGUubWFlPic=

> <r_epik_Ionization_Penalty>
1.05286

> <r_epik_Ionization_Penalty_Charging>
1.05283

> <r_epik_Ionization_Penalty_Neutral>
2.09263e-05

> <r_epik_State_Penalty>
1.10586

> <r_epik_Charging_Adjusted_Penalty>
2.15869

> <i_epik_Tot_Q>
1

> <i_epik_Tot_abs_Q>
1

> <r_epik_Metal_State_Penalty>
1.22833

> <b_epik_Metal_Only>
0

> <s_lp_Force_Field>
OPLS_2005

> <r_lp_Energy>
11.8725

> <b_lp_Chiralities_Consistent>
1

> <s_lp_Variant>
AV-unprocessed.smi:500-4

> <Gold.Version>
5.8.1

> <Gold.Id.Protein>
6NUR|6NUR_protein|mol2

> <Gold.PLP.Fitness>
45.3480

> <Gold.PLP.PLP>
-43.0149

> <Gold.PLP.part.hbond>
-3.0000

> <Gold.PLP.part.metal>
0.0000

> <Gold.PLP.part.buried>
-4.6191

> <Gold.PLP.part.nonpolar>
-35.6991

> <Gold.PLP.part.repulsive>
0.2901

> <Gold.PLP.ligand.clash>
0.0000

> <Gold.PLP.ligand.torsion>
0.7469

> <Gold.PLP.Chemscore.Hbond>
1.2267

> <Gold.PLP.Chemscore.CHOScore>
0.0000

> <Gold.PLP.Chemscore.Metal>
0.0000

> <Gold.Chemscore.Hbonds>
donor molecule, donor type, donor heavy atom, donor atom, acceptor molecule, acceptor atom, score
      P1  H  6931  6943       L1    17  0.47
      P1  H  6934  6947       L1    17  0.69

> <Gold.PLP.Chemscore.Internal.Correction>
0.1469

> <Gold.Rescore>
     Score         DG    S(hbond)    S(metal)    S(lipo)     H(rot)  DE(clash)    DE(int)     intcor
     16.91     -17.69       0.89        0.00     122.18       1.97       0.03       0.75       ----

> <Gold.Chemscore.Fitness>
16.9111

> <Gold.Chemscore.DG>
-17.6869

> <Gold.Chemscore.ZeroCoef>
-5.4800

> <Gold.Chemscore.Hbond>
0.8882

> <Gold.Chemscore.Metal>
0.0000

> <Gold.Chemscore.Lipo>
122.1836

> <Gold.Chemscore.Internal_Hbond>
0.0000

> <Gold.Chemscore.DEClash>
0.0256

> <Gold.Chemscore.DEInternal>
0.7502

> <Gold.Chemscore.Rot>
1.9746

> <Gold.Chemscore.Internal.Correction>
   9.000000E+99

> <Gold.Chemscore.Hbonds>
donor molecule, donor type, donor heavy atom, donor atom, acceptor molecule, acceptor atom, score
      P1  H  6931  6943       L1    17  0.12
      P1  H  6934  6947       L1    17  0.65

> <Gold.Chemscore.Hbond.Weighted>
-2.9665

> <Gold.Chemscore.Metal.Weighted>
-0.0000

> <Gold.Chemscore.Lipo.Weighted>
-14.2955

> <Gold.Chemscore.Internal_Hbond.Weighted>
0.0000

> <Gold.Chemscore.DEClash.Weighted>
0.0256

> <Gold.Chemscore.DEInternal.Weighted>
0.7502

> <Gold.Chemscore.Rot.Weighted>
5.0550

> <Gold.Chemscore.Internal.Correction.Weighted>
   9.000000E+99

> <Gold.Protein.RotatedTorsions>
[ 6907 6896 6895 6894 ] final   22.20 input  -60.11 | X-H torsion
[ 7974 7965 7964 7962 ] final  132.47 input  175.53 | X-H torsion
[ 8008 7997 7996 7995 ] final  102.79 input   59.86 | X-H torsion
[ 10167 10162 10161 10158 ] final  -83.43 input  -65.29 | X-H torsion
[ 10718 10713 10712 10709 ] final   20.04 input   66.30 | X-H torsion
[ 10763 10752 10751 10750 ] final -154.09 input  -60.55 | X-H torsion
[ 11005 11000 10999 10996 ] final  -18.95 input  -57.11 | X-H torsion

> <Gold.Protein.ActiveResidues>
 VAL166  LYS551  ARG553  GLY616  TRP617  ASP618  TYR619  PRO620  LYS621  CYS622 
 ASP623  PHE694  ASN695  SER759  ASP760  ASP761  ALA762  ILE779  LEU786  VAL792 
 PHE793  MET794  SER795  GLU796  ALA797  LYS798  CYS799  TRP800  GLU811  SER814 

> <Gold.Protein.RotatedAtoms>
  151.9235  135.0288  160.0523 H   0  0  0  0  0  0  0  0  0  0  0  0  # atno 6907 bound_to 6896
  152.2179  133.4956  159.5154 H   0  0  0  0  0  0  0  0  0  0  0  0  # atno 6908 bound_to 6896
  150.6992  134.1298  159.4108 H   0  0  0  0  0  0  0  0  0  0  0  0  # atno 6909 bound_to 6896
  144.9965  139.4355  143.5313 H   0  0  0  0  0  0  0  0  0  0  0  0  # atno 7974 bound_to 7965
  156.1426  140.3175  155.8519 H   0  0  0  0  0  0  0  0  0  0  0  0  # atno 8008 bound_to 7997
  155.4126  140.0507  157.3048 H   0  0  0  0  0  0  0  0  0  0  0  0  # atno 8009 bound_to 7997
  154.4989  140.2121  155.9401 H   0  0  0  0  0  0  0  0  0  0  0  0  # atno 8010 bound_to 7997
  140.4228  143.2578  151.8867 H   0  0  0  0  0  0  0  0  0  0  0  0  # atno 10167 bound_to 10162
  157.1189  130.6541  149.5918 H   0  0  0  0  0  0  0  0  0  0  0  0  # atno 10718 bound_to 10713
  154.7883  135.3198  154.7836 H   0  0  0  0  0  0  0  0  0  0  0  0  # atno 10763 bound_to 10752
  153.8531  135.6860  153.4794 H   0  0  0  0  0  0  0  0  0  0  0  0  # atno 10764 bound_to 10752
  153.1543  135.4687  154.9621 H   0  0  0  0  0  0  0  0  0  0  0  0  # atno 10765 bound_to 10752
  140.8319  133.7990  155.9767 H   0  0  0  0  0  0  0  0  0  0  0  0  # atno 11005 bound_to 11000
  146.3443  139.9327  142.8751 LP  0  0  0  0  0  0  0  0  0  0  0  0  # atno 17320 bound_to 7965
  145.2213  140.9936  143.4044 LP  0  0  0  0  0  0  0  0  0  0  0  0  # atno 17321 bound_to 7965
  139.4783  144.5419  151.8515 LP  0  0  0  0  0  0  0  0  0  0  0  0  # atno 17342 bound_to 10162
  140.4515  144.1848  150.5898 LP  0  0  0  0  0  0  0  0  0  0  0  0  # atno 17343 bound_to 10162
  155.9833  130.4852  150.6926 LP  0  0  0  0  0  0  0  0  0  0  0  0  # atno 17370 bound_to 10713
  157.4494  131.0871  151.0862 LP  0  0  0  0  0  0  0  0  0  0  0  0  # atno 17371 bound_to 10713
  140.8989  134.2403  157.5053 LP  0  0  0  0  0  0  0  0  0  0  0  0  # atno 17394 bound_to 11000
  139.8705  134.9697  156.4675 LP  0  0  0  0  0  0  0  0  0  0  0  0  # atno 17395 bound_to 11000

$$$$
