AV-unprocessed.smi:2664|AV-procd|sdf|10326|dock7
  -GOLD-   2272014343D 1   1.00000     0.00000
 Structure written by MMmdl.
 43 44  0  0  0  0  0  0  0  0  1 V2000
  144.4307  136.0483  152.6831 O   0  0  0  0  0  0  0  0  0  0  0  0
  145.6186  136.0262  152.3621 C   0  0  0  0  0  0  0  0  0  0  0  0
  146.2029  135.0797  151.6073 N   0  0  0  0  0  0  0  0  0  0  0  0
  145.6094  133.9567  150.9689 C   0  0  0  0  0  0  0  0  0  0  0  0
  146.4678  132.9434  150.4942 C   0  0  0  0  0  0  0  0  0  0  0  0
  145.9071  131.8279  149.8406 C   0  0  0  0  0  0  0  0  0  0  0  0
  144.5818  131.6785  149.6341 N   0  0  0  0  0  0  0  0  0  0  0  0
  143.7623  132.6554  150.0773 C   0  0  0  0  0  0  0  0  0  0  0  0
  144.2193  133.8106  150.7425 C   0  0  0  0  0  0  0  0  0  0  0  0
  146.5107  136.9517  152.7474 N   0  0  0  0  0  0  0  0  0  0  0  0
  146.2302  138.1291  153.5740 C   0  0  2  0  0  0  0  0  0  0  0  0
  147.0652  139.3234  153.0451 C   0  0  0  0  0  0  0  0  0  0  0  0
  146.7891  139.7191  151.5821 C   0  0  0  0  0  0  0  0  0  0  0  0
  146.5299  138.5738  150.7982 O   0  0  0  0  0  0  0  0  0  0  0  0
  146.4915  137.8013  155.0732 C   0  0  0  0  0  0  0  0  0  0  0  0
  146.1872  139.0076  155.9993 C   0  0  0  0  0  0  0  0  0  0  0  0
  146.4492  138.6925  157.4805 C   0  0  0  0  0  0  0  0  0  0  0  0
  147.8901  138.2169  157.7011 C   0  0  0  0  0  0  0  0  0  0  0  0
  148.2020  137.0066  156.8128 C   0  0  0  0  0  0  0  0  0  0  0  0
  147.9397  137.3161  155.3299 C   0  0  0  0  0  0  0  0  0  0  0  0
  147.2044  135.1530  151.5051 H   0  0  0  0  0  0  0  0  0  0  0  0
  147.5372  133.0128  150.6301 H   0  0  0  0  0  0  0  0  0  0  0  0
  146.5413  131.0356  149.4713 H   0  0  0  0  0  0  0  0  0  0  0  0
  142.7079  132.5159  149.8895 H   0  0  0  0  0  0  0  0  0  0  0  0
  143.5019  134.5560  151.0490 H   0  0  0  0  0  0  0  0  0  0  0  0
  147.4657  136.8396  152.4401 H   0  0  0  0  0  0  0  0  0  0  0  0
  145.1769  138.3994  153.4823 H   0  0  0  0  0  0  0  0  0  0  0  0
  146.8937  140.2071  153.6577 H   0  0  0  0  0  0  0  0  0  0  0  0
  148.1252  139.0881  153.1479 H   0  0  0  0  0  0  0  0  0  0  0  0
  145.9158  140.3700  151.5344 H   0  0  0  0  0  0  0  0  0  0  0  0
  147.6195  140.2776  151.1501 H   0  0  0  0  0  0  0  0  0  0  0  0
  145.6516  138.6359  150.4544 H   0  0  0  0  0  0  0  0  0  0  0  0
  145.8168  136.9924  155.3584 H   0  0  0  0  0  0  0  0  0  0  0  0
  146.7943  139.8623  155.6969 H   0  0  0  0  0  0  0  0  0  0  0  0
  145.1482  139.3211  155.9010 H   0  0  0  0  0  0  0  0  0  0  0  0
  146.2542  139.5766  158.0879 H   0  0  0  0  0  0  0  0  0  0  0  0
  145.7527  137.9248  157.8199 H   0  0  0  0  0  0  0  0  0  0  0  0
  148.5838  139.0275  157.4750 H   0  0  0  0  0  0  0  0  0  0  0  0
  148.0427  137.9600  158.7498 H   0  0  0  0  0  0  0  0  0  0  0  0
  149.2408  136.7053  156.9498 H   0  0  0  0  0  0  0  0  0  0  0  0
  147.5910  136.1577  157.1222 H   0  0  0  0  0  0  0  0  0  0  0  0
  148.1532  136.4129  154.7608 H   0  0  0  0  0  0  0  0  0  0  0  0
  148.6465  138.0729  154.9869 H   0  0  0  0  0  0  0  0  0  0  0  0
  1  2  2  0  0  0  0
  2  3  1  0  0  0  0
  2 10  1  0  0  0  0
  3  4  1  0  0  0  0
  3 21  1  0  0  0  0
  4  9  1  0  0  0  0
  4  5  2  0  0  0  0
  5  6  1  0  0  0  0
  5 22  1  0  0  0  0
  6  7  2  0  0  0  0
  6 23  1  0  0  0  0
  7  8  1  0  0  0  0
  8  9  2  0  0  0  0
  8 24  1  0  0  0  0
  9 25  1  0  0  0  0
 10 11  1  0  0  0  0
 10 26  1  0  0  0  0
 11 12  1  0  0  0  0
 11 15  1  0  0  0  0
 11 27  1  0  0  0  0
 12 13  1  0  0  0  0
 12 28  1  0  0  0  0
 12 29  1  0  0  0  0
 13 14  1  0  0  0  0
 13 30  1  0  0  0  0
 13 31  1  0  0  0  0
 14 32  1  0  0  0  0
 15 20  1  0  0  0  0
 15 16  1  0  0  0  0
 15 33  1  0  0  0  0
 16 17  1  0  0  0  0
 16 34  1  0  0  0  0
 16 35  1  0  0  0  0
 17 18  1  0  0  0  0
 17 36  1  0  0  0  0
 17 37  1  0  0  0  0
 18 19  1  0  0  0  0
 18 38  1  0  0  0  0
 18 39  1  0  0  0  0
 19 20  1  0  0  0  0
 19 40  1  0  0  0  0
 19 41  1  0  0  0  0
 20 42  1  0  0  0  0
 20 43  1  0  0  0  0
M  END
> <s_m_source_file>
AV-unprocessed.smi

> <i_m_source_file_index>
2664

> <i_lp_mmshare_version>
43012

> <i_f3d_flags>
0

> <s_epik_input>
W2NIXTFbY0hdbltjSF1bY0hdYzFbTkhdQyg9TylbTkhdW0NASF0oW0NIMl1bQ0gyXVtPSF0pW0NIXTJbQ0gyXVtDSDJdW0NIMl1bQ0gyXVtDSDJdMg==

> <s_epik_cmdline>
J2VwaWtfcHl0aG9uJywgJy1waCcsICc3LjAnLCAnLXRuJywgJzgnLCAnLW1hJywgJzIwMCcsICctbWV0YWxfYmluZGluZycsICctaW1hZScsICc8aW5maWxlLm1hZT4nLCAnLW9tYWUnLCAnPG91dGZpbGUubWFlPic=

> <r_epik_Ionization_Penalty>
0.119281

> <r_epik_Ionization_Penalty_Charging>
0

> <r_epik_Ionization_Penalty_Neutral>
0.119281

> <r_epik_State_Penalty>
0.108806

> <r_epik_Charging_Adjusted_Penalty>
0.108806

> <i_epik_Tot_Q>
0

> <i_epik_Tot_abs_Q>
0

> <r_epik_Metal_State_Penalty>
0.0904205

> <b_epik_Metal_Only>
0

> <s_lp_Force_Field>
OPLS_2005

> <r_lp_Energy>
21.6864

> <b_lp_Chiralities_Consistent>
1

> <s_lp_Variant>
AV-unprocessed.smi:2664-1

> <Gold.Version>
5.8.1

> <Gold.Id.Protein>
6NUR|6NUR_protein|mol2

> <Gold.PLP.Fitness>
45.5498

> <Gold.PLP.PLP>
-28.9565

> <Gold.PLP.part.hbond>
-5.0000

> <Gold.PLP.part.metal>
0.0000

> <Gold.PLP.part.buried>
-1.9294

> <Gold.PLP.part.nonpolar>
-23.1749

> <Gold.PLP.part.repulsive>
0.3477

> <Gold.PLP.ligand.clash>
0.0000

> <Gold.PLP.ligand.torsion>
0.5278

> <Gold.PLP.Chemscore.Hbond>
4.1132

> <Gold.PLP.Chemscore.CHOScore>
1.7455

> <Gold.PLP.Chemscore.Metal>
0.0000

> <Gold.Chemscore.Hbonds>
donor molecule, donor type, donor heavy atom, donor atom, acceptor molecule, acceptor atom, score
      L1  H     3    21       P1  7948  0.99
      L1  H    10    26       P1  7948  1.00
      L1  H    14    32       P1 10171  1.00
      P1  H  7954  7966       L1    14  0.91
      P1  H 10785 10796       L1     7  0.22
      L1  C     6    23       P1 10747  0.79
      L1  C     8    24       P1 10186  0.82
      L1  C     8    24       P1 10952  0.11

> <Gold.PLP.Chemscore.Internal.Correction>
0.0727

> <Gold.Rescore>
     Score         DG    S(hbond)    S(metal)    S(lipo)     H(rot)  DE(clash)    DE(int)     intcor
     15.76     -20.36       3.75        0.00      68.89       2.23       1.29       3.31       ----

> <Gold.Chemscore.Fitness>
15.7576

> <Gold.Chemscore.DG>
-20.3633

> <Gold.Chemscore.ZeroCoef>
-5.4800

> <Gold.Chemscore.Hbond>
3.7481

> <Gold.Chemscore.Metal>
0.0000

> <Gold.Chemscore.Lipo>
68.8949

> <Gold.Chemscore.Internal_Hbond>
0.0000

> <Gold.Chemscore.DEClash>
1.2919

> <Gold.Chemscore.DEInternal>
3.3138

> <Gold.Chemscore.Rot>
2.2251

> <Gold.Chemscore.Internal.Correction>
   9.000000E+99

> <Gold.Chemscore.Hbonds>
donor molecule, donor type, donor heavy atom, donor atom, acceptor molecule, acceptor atom, score
      L1  H     3    21       P1  7948  0.77
      L1  H    10    26       P1  7948  1.00
      L1  H    14    32       P1 10171  1.00
      P1  H  7954  7966       L1    14  0.73
      P1  H 10785 10796       L1     7  0.12

> <Gold.Chemscore.Hbond.Weighted>
-12.5187

> <Gold.Chemscore.Metal.Weighted>
-0.0000

> <Gold.Chemscore.Lipo.Weighted>
-8.0607

> <Gold.Chemscore.Internal_Hbond.Weighted>
0.0000

> <Gold.Chemscore.DEClash.Weighted>
1.2919

> <Gold.Chemscore.DEInternal.Weighted>
3.3138

> <Gold.Chemscore.Rot.Weighted>
5.6962

> <Gold.Chemscore.Internal.Correction.Weighted>
   9.000000E+99

> <Gold.Protein.RotatedTorsions>
[ 6907 6896 6895 6894 ] final  -43.65 input  -60.11 | X-H torsion
[ 7974 7965 7964 7962 ] final  -95.36 input  175.53 | X-H torsion
[ 8008 7997 7996 7995 ] final  141.91 input   59.86 | X-H torsion
[ 10167 10162 10161 10158 ] final   69.96 input  -65.29 | X-H torsion
[ 10718 10713 10712 10709 ] final   -1.75 input   66.30 | X-H torsion
[ 10763 10752 10751 10750 ] final  -62.48 input  -60.55 | X-H torsion
[ 11005 11000 10999 10996 ] final    2.17 input  -57.11 | X-H torsion

> <Gold.Protein.ActiveResidues>
 VAL166  LYS551  ARG553  GLY616  TRP617  ASP618  TYR619  PRO620  LYS621  CYS622 
 ASP623  PHE694  ASN695  SER759  ASP760  ASP761  ALA762  ILE779  LEU786  VAL792 
 PHE793  MET794  SER795  GLU796  ALA797  LYS798  CYS799  TRP800  GLU811  SER814 

> <Gold.Protein.RotatedAtoms>
  150.9416  134.8824  159.7615 H   0  0  0  0  0  0  0  0  0  0  0  0  # atno 6907 bound_to 6896
  152.5082  134.3934  159.9401 H   0  0  0  0  0  0  0  0  0  0  0  0  # atno 6908 bound_to 6896
  151.3955  133.3735  159.2761 H   0  0  0  0  0  0  0  0  0  0  0  0  # atno 6909 bound_to 6896
  145.3610  140.9492  143.2500 H   0  0  0  0  0  0  0  0  0  0  0  0  # atno 7974 bound_to 7965
  156.2958  140.2303  156.4641 H   0  0  0  0  0  0  0  0  0  0  0  0  # atno 8008 bound_to 7997
  154.7992  140.0449  157.1281 H   0  0  0  0  0  0  0  0  0  0  0  0  # atno 8009 bound_to 7997
  154.9553  140.3047  155.5059 H   0  0  0  0  0  0  0  0  0  0  0  0  # atno 8010 bound_to 7997
  140.0622  144.5223  150.7286 H   0  0  0  0  0  0  0  0  0  0  0  0  # atno 10167 bound_to 10162
  156.8009  130.5392  149.5722 H   0  0  0  0  0  0  0  0  0  0  0  0  # atno 10718 bound_to 10713
  154.3005  135.6235  153.5423 H   0  0  0  0  0  0  0  0  0  0  0  0  # atno 10763 bound_to 10752
  152.9841  135.5677  154.5289 H   0  0  0  0  0  0  0  0  0  0  0  0  # atno 10764 bound_to 10752
  154.4919  135.2868  155.1466 H   0  0  0  0  0  0  0  0  0  0  0  0  # atno 10765 bound_to 10752
  140.6073  133.9781  155.8160 H   0  0  0  0  0  0  0  0  0  0  0  0  # atno 11005 bound_to 11000
  144.8646  139.5127  143.6796 LP  0  0  0  0  0  0  0  0  0  0  0  0  # atno 17320 bound_to 7965
  146.2927  139.7186  142.9149 LP  0  0  0  0  0  0  0  0  0  0  0  0  # atno 17321 bound_to 7965
  140.7166  143.2550  151.4413 LP  0  0  0  0  0  0  0  0  0  0  0  0  # atno 17342 bound_to 10162
  139.5887  144.1547  152.2061 LP  0  0  0  0  0  0  0  0  0  0  0  0  # atno 17343 bound_to 10162
  156.1102  130.6034  151.0034 LP  0  0  0  0  0  0  0  0  0  0  0  0  # atno 17370 bound_to 10713
  157.6554  131.0890  150.7959 LP  0  0  0  0  0  0  0  0  0  0  0  0  # atno 17371 bound_to 10713
  141.0832  134.0030  157.3354 LP  0  0  0  0  0  0  0  0  0  0  0  0  # atno 17394 bound_to 11000
  139.9207  135.0200  156.8053 LP  0  0  0  0  0  0  0  0  0  0  0  0  # atno 17395 bound_to 11000

$$$$
