AV-unprocessed.smi:2807|AV-procd|sdf|10818|dock8
  -GOLD-   2272015253D 1   1.00000     0.00000
 Structure written by MMmdl.
 32 33  0  0  0  0  0  0  0  0  1 V2000
  148.3001  142.1646  157.9659 O   0  0  0  0  0  0  0  0  0  0  0  0
  149.2033  141.7644  157.2303 C   0  0  0  0  0  0  0  0  0  0  0  0
  149.0156  141.4614  155.9347 N   0  0  0  0  0  0  0  0  0  0  0  0
  147.7481  141.5522  155.2084 C   0  0  2  0  0  0  0  0  0  0  0  0
  146.6972  140.6157  155.8377 C   0  0  0  0  0  0  0  0  0  0  0  0
  146.0988  139.8035  154.6863 C   0  0  0  0  0  0  0  0  0  0  0  0
  147.2132  139.7398  153.6472 C   0  0  0  0  0  0  0  0  0  0  0  0
  147.8640  141.1220  153.7249 C   0  0  2  0  0  0  0  0  0  0  0  0
  149.1788  141.0919  153.2020 O   0  0  0  0  0  0  0  0  0  0  0  0
  150.6263  141.5853  157.7804 C   0  0  0  0  0  0  0  0  0  0  0  0
  150.6276  140.5986  158.6805 F   0  0  0  0  0  0  0  0  0  0  0  0
  151.4327  141.2239  156.7795 F   0  0  0  0  0  0  0  0  0  0  0  0
  151.1182  142.8833  158.4153 C   0  0  0  0  0  0  0  0  0  0  0  0
  152.3769  142.9485  159.0551 C   0  0  0  0  0  0  0  0  0  0  0  0
  152.7882  144.1735  159.6143 C   0  0  0  0  0  0  0  0  0  0  0  0
  151.9332  145.2870  159.5131 C   0  0  0  0  0  0  0  0  0  0  0  0
  150.6998  145.1254  158.8526 C   0  0  0  0  0  0  0  0  0  0  0  0
  150.2957  143.9555  158.3131 N   0  0  0  0  0  0  0  0  0  0  0  0
  149.8146  141.1322  155.4118 H   0  0  0  0  0  0  0  0  0  0  0  0
  147.3723  142.5764  155.2469 H   0  0  0  0  0  0  0  0  0  0  0  0
  147.1656  139.9325  156.5483 H   0  0  0  0  0  0  0  0  0  0  0  0
  145.9311  141.1673  156.3836 H   0  0  0  0  0  0  0  0  0  0  0  0
  145.7600  138.8160  155.0010 H   0  0  0  0  0  0  0  0  0  0  0  0
  145.2406  140.3328  154.2698 H   0  0  0  0  0  0  0  0  0  0  0  0
  147.9289  138.9666  153.9317 H   0  0  0  0  0  0  0  0  0  0  0  0
  146.8452  139.5034  152.6482 H   0  0  0  0  0  0  0  0  0  0  0  0
  147.2783  141.8139  153.1177 H   0  0  0  0  0  0  0  0  0  0  0  0
  149.2360  140.3864  152.5758 H   0  0  0  0  0  0  0  0  0  0  0  0
  153.0185  142.0816  159.1146 H   0  0  0  0  0  0  0  0  0  0  0  0
  153.7439  144.2576  160.1106 H   0  0  0  0  0  0  0  0  0  0  0  0
  152.2167  146.2421  159.9298 H   0  0  0  0  0  0  0  0  0  0  0  0
  150.0191  145.9582  158.7545 H   0  0  0  0  0  0  0  0  0  0  0  0
  1  2  2  0  0  0  0
  2  3  1  0  0  0  0
  2 10  1  0  0  0  0
  3  4  1  0  0  0  0
  3 19  1  0  0  0  0
  4  8  1  0  0  0  0
  4  5  1  0  0  0  0
  4 20  1  0  0  0  0
  5  6  1  0  0  0  0
  5 21  1  0  0  0  0
  5 22  1  0  0  0  0
  6  7  1  0  0  0  0
  6 23  1  0  0  0  0
  6 24  1  0  0  0  0
  7  8  1  0  0  0  0
  7 25  1  0  0  0  0
  7 26  1  0  0  0  0
  8  9  1  0  0  0  0
  8 27  1  0  0  0  0
  9 28  1  0  0  0  0
 10 11  1  0  0  0  0
 10 12  1  0  0  0  0
 10 13  1  0  0  0  0
 13 18  1  0  0  0  0
 13 14  2  0  0  0  0
 14 15  1  0  0  0  0
 14 29  1  0  0  0  0
 15 16  2  0  0  0  0
 15 30  1  0  0  0  0
 16 17  1  0  0  0  0
 16 31  1  0  0  0  0
 17 18  2  0  0  0  0
 17 32  1  0  0  0  0
M  END
> <s_m_source_file>
AV-unprocessed.smi

> <i_m_source_file_index>
2807

> <i_lp_mmshare_version>
43012

> <i_f3d_flags>
0

> <s_epik_input>
bjFbY0hdW2NIXVtjSF1bY0hdYzFDKEYpKEYpQyg9TylbTkhdW0NAQEhdMltDSDJdW0NIMl1bQ0gyXVtDQEhdMltPSF0=

> <s_epik_cmdline>
J2VwaWtfcHl0aG9uJywgJy1waCcsICc3LjAnLCAnLXRuJywgJzgnLCAnLW1hJywgJzIwMCcsICctbWV0YWxfYmluZGluZycsICctaW1hZScsICc8aW5maWxlLm1hZT4nLCAnLW9tYWUnLCAnPG91dGZpbGUubWFlPic=

> <r_lp_tautomer_probability>
1

> <r_epik_Ionization_Penalty>
4.08325e-05

> <r_epik_Ionization_Penalty_Charging>
0

> <r_epik_Ionization_Penalty_Neutral>
4.08325e-05

> <r_epik_State_Penalty>
-0

> <r_epik_Charging_Adjusted_Penalty>
0

> <i_epik_Tot_Q>
0

> <i_epik_Tot_abs_Q>
0

> <r_epik_Metal_State_Penalty>
0.034564

> <b_epik_Metal_Only>
0

> <s_lp_Force_Field>
OPLS_2005

> <r_lp_Energy>
28.2651

> <b_lp_Chiralities_Consistent>
1

> <s_lp_Variant>
AV-unprocessed.smi:2807-3

> <Gold.Version>
5.8.1

> <Gold.Id.Protein>
6NUR|6NUR_protein|mol2

> <Gold.PLP.Fitness>
40.3239

> <Gold.PLP.PLP>
-32.5980

> <Gold.PLP.part.hbond>
-2.6344

> <Gold.PLP.part.metal>
0.0000

> <Gold.PLP.part.buried>
-5.7594

> <Gold.PLP.part.nonpolar>
-25.5117

> <Gold.PLP.part.repulsive>
0.6321

> <Gold.PLP.ligand.clash>
0.0000

> <Gold.PLP.ligand.torsion>
0.1295

> <Gold.PLP.Chemscore.Hbond>
1.8705

> <Gold.PLP.Chemscore.CHOScore>
0.7871

> <Gold.PLP.Chemscore.Metal>
0.0000

> <Gold.Chemscore.Hbonds>
donor molecule, donor type, donor heavy atom, donor atom, acceptor molecule, acceptor atom, score
      L1  H     9    28       P1  7957  0.80
      P1  H  8011  8017       L1     9  1.00
      L1  C    17    32       P1  8029  0.82

> <Gold.PLP.Chemscore.Internal.Correction>
0.0122

> <Gold.Rescore>
     Score         DG    S(hbond)    S(metal)    S(lipo)     H(rot)  DE(clash)    DE(int)     intcor
     12.71     -15.12       1.39        0.00      87.47       2.05       0.03       2.37       ----

> <Gold.Chemscore.Fitness>
12.7100

> <Gold.Chemscore.DG>
-15.1152

> <Gold.Chemscore.ZeroCoef>
-5.4800

> <Gold.Chemscore.Hbond>
1.3885

> <Gold.Chemscore.Metal>
0.0000

> <Gold.Chemscore.Lipo>
87.4745

> <Gold.Chemscore.Internal_Hbond>
0.0000

> <Gold.Chemscore.DEClash>
0.0332

> <Gold.Chemscore.DEInternal>
2.3720

> <Gold.Chemscore.Rot>
2.0457

> <Gold.Chemscore.Internal.Correction>
   9.000000E+99

> <Gold.Chemscore.Hbonds>
donor molecule, donor type, donor heavy atom, donor atom, acceptor molecule, acceptor atom, score
      L1  H     9    28       P1  7957  0.77
      P1  H  8011  8017       L1     9  0.34

> <Gold.Chemscore.Hbond.Weighted>
-4.6378

> <Gold.Chemscore.Metal.Weighted>
-0.0000

> <Gold.Chemscore.Lipo.Weighted>
-10.2345

> <Gold.Chemscore.Internal_Hbond.Weighted>
0.0000

> <Gold.Chemscore.DEClash.Weighted>
0.0332

> <Gold.Chemscore.DEInternal.Weighted>
2.3720

> <Gold.Chemscore.Rot.Weighted>
5.2371

> <Gold.Chemscore.Internal.Correction.Weighted>
   9.000000E+99

> <Gold.Protein.RotatedTorsions>
[ 6907 6896 6895 6894 ] final -121.65 input  -60.11 | X-H torsion
[ 7974 7965 7964 7962 ] final -132.09 input  175.53 | X-H torsion
[ 8008 7997 7996 7995 ] final  -61.04 input   59.86 | X-H torsion
[ 10167 10162 10161 10158 ] final  178.08 input  -65.29 | X-H torsion
[ 10718 10713 10712 10709 ] final -133.06 input   66.30 | X-H torsion
[ 10763 10752 10751 10750 ] final  -20.94 input  -60.55 | X-H torsion
[ 11005 11000 10999 10996 ] final  111.01 input  -57.11 | X-H torsion

> <Gold.Protein.ActiveResidues>
 VAL166  LYS551  ARG553  GLY616  TRP617  ASP618  TYR619  PRO620  LYS621  CYS622 
 ASP623  PHE694  ASN695  SER759  ASP760  ASP761  ALA762  ILE779  LEU786  VAL792 
 PHE793  MET794  SER795  GLU796  ALA797  LYS798  CYS799  TRP800  GLU811  SER814 

> <Gold.Protein.RotatedAtoms>
  150.8503  133.7798  159.3027 H   0  0  0  0  0  0  0  0  0  0  0  0  # atno 6907 bound_to 6896
  151.5472  135.1066  159.9950 H   0  0  0  0  0  0  0  0  0  0  0  0  # atno 6908 bound_to 6896
  152.4547  133.7655  159.6826 H   0  0  0  0  0  0  0  0  0  0  0  0  # atno 6909 bound_to 6896
  144.9318  140.7137  143.4901 H   0  0  0  0  0  0  0  0  0  0  0  0  # atno 7974 bound_to 7965
  154.4428  140.1026  156.6368 H   0  0  0  0  0  0  0  0  0  0  0  0  # atno 8008 bound_to 7997
  155.5545  140.3486  155.4458 H   0  0  0  0  0  0  0  0  0  0  0  0  # atno 8009 bound_to 7997
  156.0505  140.1303  157.0045 H   0  0  0  0  0  0  0  0  0  0  0  0  # atno 8010 bound_to 7997
  139.5279  144.2722  152.0618 H   0  0  0  0  0  0  0  0  0  0  0  0  # atno 10167 bound_to 10162
  156.2409  130.7095  151.0956 H   0  0  0  0  0  0  0  0  0  0  0  0  # atno 10718 bound_to 10713
  153.6283  135.6990  153.5285 H   0  0  0  0  0  0  0  0  0  0  0  0  # atno 10763 bound_to 10752
  153.2880  135.4165  155.1140 H   0  0  0  0  0  0  0  0  0  0  0  0  # atno 10764 bound_to 10752
  154.8528  135.3618  154.5825 H   0  0  0  0  0  0  0  0  0  0  0  0  # atno 10765 bound_to 10752
  139.8894  134.9498  156.6366 H   0  0  0  0  0  0  0  0  0  0  0  0  # atno 11005 bound_to 11000
  145.3130  139.1812  143.4628 LP  0  0  0  0  0  0  0  0  0  0  0  0  # atno 17320 bound_to 7965
  146.3250  140.3137  142.8628 LP  0  0  0  0  0  0  0  0  0  0  0  0  # atno 17321 bound_to 7965
  140.2182  144.4494  150.6354 LP  0  0  0  0  0  0  0  0  0  0  0  0  # atno 17342 bound_to 10162
  140.6436  143.2208  151.6235 LP  0  0  0  0  0  0  0  0  0  0  0  0  # atno 17343 bound_to 10162
  157.7175  131.0701  150.6270 LP  0  0  0  0  0  0  0  0  0  0  0  0  # atno 17370 bound_to 10713
  156.6343  130.4440  149.5775 LP  0  0  0  0  0  0  0  0  0  0  0  0  # atno 17371 bound_to 10713
  140.7625  133.8805  155.8429 LP  0  0  0  0  0  0  0  0  0  0  0  0  # atno 17394 bound_to 11000
  140.9910  134.1279  157.4408 LP  0  0  0  0  0  0  0  0  0  0  0  0  # atno 17395 bound_to 11000

$$$$
