AV-unprocessed.smi:1326|AV-procd|sdf|5476|dock2
  -GOLD-   22720 5 43D 1   1.00000     0.00000
 Structure written by MMmdl.
 38 38  0  0  0  0  0  0  0  0  2 V2000
  153.5824  138.5565  154.9717 C   0  0  0  0  0  0  0  0  0  0  0  0
  152.5615  139.4422  155.6534 C   0  0  0  0  0  0  0  0  0  0  0  0
  151.5996  139.9311  154.9674 N   0  0  0  0  0  0  0  0  0  0  0  0
  150.6485  140.7524  155.5966 C   0  0  0  0  0  0  0  0  0  0  0  0
  149.5388  141.2857  154.7074 C   0  0  0  0  0  0  0  0  0  0  0  0
  150.7332  141.0378  156.9275 C   0  0  0  0  0  0  0  0  0  0  0  0
  149.7237  141.9216  157.6605 C   0  0  0  0  0  0  0  0  0  0  0  0
  148.2546  141.5185  157.5172 C   0  0  0  0  0  0  0  0  0  0  0  0
  147.8229  140.5387  158.1249 O   0  0  0  0  0  0  0  0  0  0  0  0
  147.4934  142.2929  156.7286 N   0  0  0  0  0  0  0  0  0  0  0  0
  146.0661  142.1127  156.4950 C   0  0  0  0  0  0  0  0  0  0  0  0
  145.4473  143.3680  155.8534 C   0  0  0  0  0  0  0  0  0  0  0  0
  145.0569  143.1942  154.3716 C   0  0  0  0  0  0  0  0  0  0  0  0
  146.2714  142.9112  153.4712 C   0  0  0  0  0  0  0  0  0  0  0  0
  144.2932  144.4274  153.8653 C   0  0  0  0  0  0  0  0  0  0  0  0
  151.8621  140.4615  157.6803 C   0  0  0  0  0  0  0  0  0  0  0  0
  151.9970  140.7048  158.8789 O   0  0  0  0  0  0  0  0  0  0  0  0
  152.7402  139.6721  156.9990 N   0  5  0  0  0  0  0  0  0  0  0  0
  153.2707  138.3059  153.9567 H   0  0  0  0  0  0  0  0  0  0  0  0
  153.7111  137.6267  155.5269 H   0  0  0  0  0  0  0  0  0  0  0  0
  154.5457  139.0645  154.9191 H   0  0  0  0  0  0  0  0  0  0  0  0
  149.4961  142.3740  154.7559 H   0  0  0  0  0  0  0  0  0  0  0  0
  148.5742  140.8857  155.0204 H   0  0  0  0  0  0  0  0  0  0  0  0
  149.6965  141.0037  153.6658 H   0  0  0  0  0  0  0  0  0  0  0  0
  149.9746  141.9296  158.7214 H   0  0  0  0  0  0  0  0  0  0  0  0
  149.8266  142.9617  157.3496 H   0  0  0  0  0  0  0  0  0  0  0  0
  147.9361  143.0767  156.2695 H   0  0  0  0  0  0  0  0  0  0  0  0
  145.9497  141.2505  155.8392 H   0  0  0  0  0  0  0  0  0  0  0  0
  145.5573  141.8658  157.4282 H   0  0  0  0  0  0  0  0  0  0  0  0
  144.5545  143.6386  156.4195 H   0  0  0  0  0  0  0  0  0  0  0  0
  146.1342  144.2095  155.9562 H   0  0  0  0  0  0  0  0  0  0  0  0
  144.3796  142.3424  154.2981 H   0  0  0  0  0  0  0  0  0  0  0  0
  147.0112  143.7090  153.5417 H   0  0  0  0  0  0  0  0  0  0  0  0
  145.9726  142.8290  152.4258 H   0  0  0  0  0  0  0  0  0  0  0  0
  146.7616  141.9755  153.7379 H   0  0  0  0  0  0  0  0  0  0  0  0
  144.9107  145.3249  153.9176 H   0  0  0  0  0  0  0  0  0  0  0  0
  143.3955  144.6062  154.4579 H   0  0  0  0  0  0  0  0  0  0  0  0
  143.9800  144.2990  152.8290 H   0  0  0  0  0  0  0  0  0  0  0  0
  1  2  1  0  0  0  0
  1 19  1  0  0  0  0
  1 20  1  0  0  0  0
  1 21  1  0  0  0  0
  2 18  1  0  0  0  0
  2  3  2  0  0  0  0
  3  4  1  0  0  0  0
  4  5  1  0  0  0  0
  4  6  2  0  0  0  0
  5 22  1  0  0  0  0
  5 23  1  0  0  0  0
  5 24  1  0  0  0  0
  6  7  1  0  0  0  0
  6 16  1  0  0  0  0
  7  8  1  0  0  0  0
  7 25  1  0  0  0  0
  7 26  1  0  0  0  0
  8  9  2  0  0  0  0
  8 10  1  0  0  0  0
 10 11  1  0  0  0  0
 10 27  1  0  0  0  0
 11 12  1  0  0  0  0
 11 28  1  0  0  0  0
 11 29  1  0  0  0  0
 12 13  1  0  0  0  0
 12 30  1  0  0  0  0
 12 31  1  0  0  0  0
 13 14  1  0  0  0  0
 13 15  1  0  0  0  0
 13 32  1  0  0  0  0
 14 33  1  0  0  0  0
 14 34  1  0  0  0  0
 14 35  1  0  0  0  0
 15 36  1  0  0  0  0
 15 37  1  0  0  0  0
 15 38  1  0  0  0  0
 16 17  2  0  0  0  0
 16 18  1  0  0  0  0
M  CHG  1  18  -1
M  END
> <s_m_source_file>
AV-unprocessed.smi

> <i_m_source_file_index>
1326

> <i_lp_mmshare_version>
43012

> <i_f3d_flags>
0

> <s_epik_input>
W0NIM11jMW5jKFtDSDNdKWMoYyg9TylbbkhdMSlbQ0gyXUMoPU8pW05IXVtDSDJdW0NIMl1bQ0hdKFtDSDNdKVtDSDNd

> <s_epik_cmdline>
J2VwaWtfcHl0aG9uJywgJy1waCcsICc3LjAnLCAnLXRuJywgJzgnLCAnLW1hJywgJzIwMCcsICctbWV0YWxfYmluZGluZycsICctaW1hZScsICc8aW5maWxlLm1hZT4nLCAnLW9tYWUnLCAnPG91dGZpbGUubWFlPic=

> <r_lp_tautomer_probability>
0.839158

> <r_epik_Ionization_Penalty>
6.68288

> <r_epik_Ionization_Penalty_Charging>
7.3825e-08

> <r_epik_Ionization_Penalty_Neutral>
6.68288

> <r_epik_State_Penalty>
4.52336

> <r_epik_Charging_Adjusted_Penalty>
4.52336

> <i_epik_Tot_Q>
-1

> <i_epik_Tot_abs_Q>
1

> <r_epik_Metal_State_Penalty>
0.854958

> <b_epik_Metal_Only>
1

> <s_lp_Force_Field>
OPLS_2005

> <r_lp_Energy>
8.11969

> <b_lp_Chiralities_Consistent>
1

> <s_lp_Variant>
AV-unprocessed.smi:1326-3

> <Gold.Version>
5.8.1

> <Gold.Id.Protein>
6NUR|6NUR_protein|mol2

> <Gold.PLP.Fitness>
43.9345

> <Gold.PLP.PLP>
-33.3516

> <Gold.PLP.part.hbond>
-3.9839

> <Gold.PLP.part.metal>
0.0000

> <Gold.PLP.part.buried>
-4.9970

> <Gold.PLP.part.nonpolar>
-25.9245

> <Gold.PLP.part.repulsive>
0.0811

> <Gold.PLP.ligand.clash>
0.0000

> <Gold.PLP.ligand.torsion>
0.6528

> <Gold.PLP.Chemscore.Hbond>
3.9500

> <Gold.PLP.Chemscore.CHOScore>
0.0000

> <Gold.PLP.Chemscore.Metal>
0.0000

> <Gold.Chemscore.Hbonds>
donor molecule, donor type, donor heavy atom, donor atom, acceptor molecule, acceptor atom, score
      L1  H    10    27       P1  8028  1.00
      P1  H  7989  7998       L1     3  0.75
      P1  H  7997  8009       L1    18  1.20

> <Gold.PLP.Chemscore.Internal.Correction>
0.0385

> <Gold.Rescore>
     Score         DG    S(hbond)    S(metal)    S(lipo)     H(rot)  DE(clash)    DE(int)     intcor
     10.03     -12.04       1.33        0.00      58.04       1.83       0.05       1.96       ----

> <Gold.Chemscore.Fitness>
10.0335

> <Gold.Chemscore.DG>
-12.0415

> <Gold.Chemscore.ZeroCoef>
-5.4800

> <Gold.Chemscore.Hbond>
1.3343

> <Gold.Chemscore.Metal>
0.0000

> <Gold.Chemscore.Lipo>
58.0360

> <Gold.Chemscore.Internal_Hbond>
0.0000

> <Gold.Chemscore.DEClash>
0.0474

> <Gold.Chemscore.DEInternal>
1.9606

> <Gold.Chemscore.Rot>
1.8302

> <Gold.Chemscore.Internal.Correction>
   9.000000E+99

> <Gold.Chemscore.Hbonds>
donor molecule, donor type, donor heavy atom, donor atom, acceptor molecule, acceptor atom, score
      L1  H    10    27       P1  8028  0.29
      P1  H  7989  7998       L1     3  0.09
      P1  H  7997  8009       L1    18  0.04

> <Gold.Chemscore.Hbond.Weighted>
-4.4567

> <Gold.Chemscore.Metal.Weighted>
-0.0000

> <Gold.Chemscore.Lipo.Weighted>
-6.7902

> <Gold.Chemscore.Internal_Hbond.Weighted>
0.0000

> <Gold.Chemscore.DEClash.Weighted>
0.0474

> <Gold.Chemscore.DEInternal.Weighted>
1.9606

> <Gold.Chemscore.Rot.Weighted>
4.6854

> <Gold.Chemscore.Internal.Correction.Weighted>
   9.000000E+99

> <Gold.Protein.RotatedTorsions>
[ 6907 6896 6895 6894 ] final -121.24 input  -60.11 | X-H torsion
[ 7974 7965 7964 7962 ] final  175.28 input  175.53 | X-H torsion
[ 8008 7997 7996 7995 ] final  172.19 input   59.86 | X-H torsion
[ 10167 10162 10161 10158 ] final  -31.60 input  -65.29 | X-H torsion
[ 10718 10713 10712 10709 ] final  -52.17 input   66.30 | X-H torsion
[ 10763 10752 10751 10750 ] final  -55.77 input  -60.55 | X-H torsion
[ 11005 11000 10999 10996 ] final  -19.25 input  -57.11 | X-H torsion

> <Gold.Protein.ActiveResidues>
 VAL166  LYS551  ARG553  GLY616  TRP617  ASP618  TYR619  PRO620  LYS621  CYS622 
 ASP623  PHE694  ASN695  SER759  ASP760  ASP761  ALA762  ILE779  LEU786  VAL792 
 PHE793  MET794  SER795  GLU796  ALA797  LYS798  CYS799  TRP800  GLU811  SER814 

> <Gold.Protein.RotatedAtoms>
  150.8466  133.7852  159.3040 H   0  0  0  0  0  0  0  0  0  0  0  0  # atno 6907 bound_to 6896
  151.5537  135.1065  159.9965 H   0  0  0  0  0  0  0  0  0  0  0  0  # atno 6908 bound_to 6896
  152.4518  133.7602  159.6798 H   0  0  0  0  0  0  0  0  0  0  0  0  # atno 6909 bound_to 6896
  144.7205  139.9923  143.6440 H   0  0  0  0  0  0  0  0  0  0  0  0  # atno 7974 bound_to 7965
  156.1199  140.1492  156.9219 H   0  0  0  0  0  0  0  0  0  0  0  0  # atno 8008 bound_to 7997
  154.4828  140.0874  156.7458 H   0  0  0  0  0  0  0  0  0  0  0  0  # atno 8009 bound_to 7997
  155.4447  140.3432  155.4296 H   0  0  0  0  0  0  0  0  0  0  0  0  # atno 8010 bound_to 7997
  140.7234  143.3758  151.1692 H   0  0  0  0  0  0  0  0  0  0  0  0  # atno 10167 bound_to 10162
  156.1645  130.4149  149.9741 H   0  0  0  0  0  0  0  0  0  0  0  0  # atno 10718 bound_to 10713
  154.1961  135.6419  153.5073 H   0  0  0  0  0  0  0  0  0  0  0  0  # atno 10763 bound_to 10752
  153.0023  135.5440  154.6365 H   0  0  0  0  0  0  0  0  0  0  0  0  # atno 10764 bound_to 10752
  154.5766  135.2921  155.0748 H   0  0  0  0  0  0  0  0  0  0  0  0  # atno 10765 bound_to 10752
  140.8348  133.7970  155.9797 H   0  0  0  0  0  0  0  0  0  0  0  0  # atno 11005 bound_to 11000
  146.0402  139.3414  143.0702 LP  0  0  0  0  0  0  0  0  0  0  0  0  # atno 17320 bound_to 7965
  145.8345  140.9613  143.0832 LP  0  0  0  0  0  0  0  0  0  0  0  0  # atno 17321 bound_to 7965
  139.7338  143.9030  152.3028 LP  0  0  0  0  0  0  0  0  0  0  0  0  # atno 17342 bound_to 10162
  139.8828  144.7008  150.8858 LP  0  0  0  0  0  0  0  0  0  0  0  0  # atno 17343 bound_to 10162
  156.7560  130.9133  151.3639 LP  0  0  0  0  0  0  0  0  0  0  0  0  # atno 17370 bound_to 10713
  157.6757  130.9093  150.0146 LP  0  0  0  0  0  0  0  0  0  0  0  0  # atno 17371 bound_to 10713
  140.8959  134.2438  157.5069 LP  0  0  0  0  0  0  0  0  0  0  0  0  # atno 17394 bound_to 11000
  139.8704  134.9684  156.4629 LP  0  0  0  0  0  0  0  0  0  0  0  0  # atno 17395 bound_to 11000

$$$$
