AV-unprocessed.smi:438|AV-procd|sdf|2569|dock1
  -GOLD-   2262022543D 1   1.00000     0.00000
 Structure written by MMmdl.
 48 49  0  0  0  0  0  0  0  0  1 V2000
  147.3592  132.8606  161.1203 C   0  0  0  0  0  0  0  0  0  0  0  0
  147.3440  134.3782  161.1781 C   0  0  0  0  0  0  0  0  0  0  0  0
  148.2551  134.9923  160.3376 N   0  0  0  0  0  0  0  0  0  0  0  0
  148.3301  136.3767  160.3246 C   0  0  0  0  0  0  0  0  0  0  0  0
  149.6101  136.9214  159.1566 S   0  0  0  0  0  0  0  0  0  0  0  0
  148.8496  136.5013  157.5624 C   0  0  0  0  0  0  0  0  0  0  0  0
  149.6803  136.9948  156.3828 C   0  0  0  0  0  0  0  0  0  0  0  0
  150.5999  136.3063  155.9415 O   0  0  0  0  0  0  0  0  0  0  0  0
  149.3432  138.1938  155.8848 N   0  0  0  0  0  0  0  0  0  0  0  0
  149.9885  138.8650  154.7571 C   0  0  2  0  0  0  0  0  0  0  0  0
  151.3807  139.3983  155.1583 C   0  0  0  0  0  0  0  0  0  0  0  0
  151.2881  140.5740  156.1459 C   0  0  0  0  0  0  0  0  0  0  0  0
  150.4065  141.7004  155.5860 C   0  0  0  0  0  0  0  0  0  0  0  0
  149.0115  141.1817  155.2014 C   0  0  0  0  0  0  0  0  0  0  0  0
  149.0963  140.0052  154.2063 C   0  0  2  0  0  0  0  0  0  0  0  0
  147.6982  139.5197  153.7856 C   0  0  0  0  0  0  0  0  0  0  0  0
  147.5772  137.1454  161.0545 N   0  0  0  0  0  0  0  0  0  0  0  0
  146.6235  136.5824  161.9152 C   0  0  0  0  0  0  0  0  0  0  0  0
  145.8944  137.3043  162.5940 O   0  0  0  0  0  0  0  0  0  0  0  0
  146.5280  135.1080  161.9775 C   0  0  0  0  0  0  0  0  0  0  0  0
  145.4982  134.4851  162.9202 C   0  0  0  0  0  0  0  0  0  0  0  0
  144.1811  134.1068  162.2203 C   0  0  0  0  0  0  0  0  0  0  0  0
  144.0583  132.7048  162.1042 O   0  0  0  0  0  0  0  0  0  0  0  0
  147.5519  132.4436  162.1091 H   0  0  0  0  0  0  0  0  0  0  0  0
  148.1318  132.4903  160.4453 H   0  0  0  0  0  0  0  0  0  0  0  0
  146.3991  132.4836  160.7669 H   0  0  0  0  0  0  0  0  0  0  0  0
  147.8505  136.9360  157.5147 H   0  0  0  0  0  0  0  0  0  0  0  0
  148.7333  135.4191  157.4891 H   0  0  0  0  0  0  0  0  0  0  0  0
  148.5733  138.6824  156.3184 H   0  0  0  0  0  0  0  0  0  0  0  0
  150.1213  138.1323  153.9587 H   0  0  0  0  0  0  0  0  0  0  0  0
  151.9877  138.5993  155.5856 H   0  0  0  0  0  0  0  0  0  0  0  0
  151.9076  139.7280  154.2621 H   0  0  0  0  0  0  0  0  0  0  0  0
  150.8813  140.2276  157.0969 H   0  0  0  0  0  0  0  0  0  0  0  0
  152.2862  140.9566  156.3609 H   0  0  0  0  0  0  0  0  0  0  0  0
  150.3154  142.5008  156.3206 H   0  0  0  0  0  0  0  0  0  0  0  0
  150.8869  142.1385  154.7104 H   0  0  0  0  0  0  0  0  0  0  0  0
  148.4769  140.8723  156.1006 H   0  0  0  0  0  0  0  0  0  0  0  0
  148.4304  141.9956  154.7664 H   0  0  0  0  0  0  0  0  0  0  0  0
  149.5808  140.3818  153.3041 H   0  0  0  0  0  0  0  0  0  0  0  0
  147.1161  139.1702  154.6388 H   0  0  0  0  0  0  0  0  0  0  0  0
  147.7670  138.6995  153.0706 H   0  0  0  0  0  0  0  0  0  0  0  0
  147.1337  140.3224  153.3103 H   0  0  0  0  0  0  0  0  0  0  0  0
  148.8459  134.4056  159.7660 H   0  0  0  0  0  0  0  0  0  0  0  0
  145.2843  135.1519  163.7547 H   0  0  0  0  0  0  0  0  0  0  0  0
  145.9358  133.5955  163.3751 H   0  0  0  0  0  0  0  0  0  0  0  0
  143.3197  134.4982  162.7616 H   0  0  0  0  0  0  0  0  0  0  0  0
  144.1525  134.5410  161.2209 H   0  0  0  0  0  0  0  0  0  0  0  0
  144.2761  132.3146  162.9370 H   0  0  0  0  0  0  0  0  0  0  0  0
  1 24  1  0  0  0  0
  1 25  1  0  0  0  0
  1 26  1  0  0  0  0
  1  2  1  0  0  0  0
  2 20  2  0  0  0  0
  2  3  1  0  0  0  0
  3  4  1  0  0  0  0
  3 43  1  0  0  0  0
  4  5  1  0  0  0  0
  4 17  2  0  0  0  0
  5  6  1  0  0  0  0
  6  7  1  0  0  0  0
  6 27  1  0  0  0  0
  6 28  1  0  0  0  0
  7  8  2  0  0  0  0
  7  9  1  0  0  0  0
  9 10  1  0  0  0  0
  9 29  1  0  0  0  0
 10 15  1  0  0  0  0
 10 11  1  0  0  0  0
 10 30  1  0  0  0  0
 11 12  1  0  0  0  0
 11 31  1  0  0  0  0
 11 32  1  0  0  0  0
 12 13  1  0  0  0  0
 12 33  1  0  0  0  0
 12 34  1  0  0  0  0
 13 14  1  0  0  0  0
 13 35  1  0  0  0  0
 13 36  1  0  0  0  0
 14 15  1  0  0  0  0
 14 37  1  0  0  0  0
 14 38  1  0  0  0  0
 15 16  1  0  0  0  0
 15 39  1  0  0  0  0
 16 40  1  0  0  0  0
 16 41  1  0  0  0  0
 16 42  1  0  0  0  0
 17 18  1  0  0  0  0
 18 19  2  0  0  0  0
 18 20  1  0  0  0  0
 20 21  1  0  0  0  0
 21 22  1  0  0  0  0
 21 44  1  0  0  0  0
 21 45  1  0  0  0  0
 22 23  1  0  0  0  0
 22 46  1  0  0  0  0
 22 47  1  0  0  0  0
 23 48  1  0  0  0  0
M  END
> <s_m_source_file>
AV-unprocessed.smi

> <i_m_source_file_index>
438

> <i_lp_mmshare_version>
43012

> <i_f3d_flags>
0

> <s_epik_input>
W09IXVtDSDJdW0NIMl1jMWMoW09IXSluYyhuYzFbQ0gzXSlTW0NIMl1DKD1PKVtOSF1bQ0BASF0yW0NIMl1bQ0gyXVtDSDJdW0NIMl1bQ0BIXTJbQ0gzXQ==

> <s_epik_cmdline>
J2VwaWtfcHl0aG9uJywgJy1waCcsICc3LjAnLCAnLXRuJywgJzgnLCAnLW1hJywgJzIwMCcsICctbWV0YWxfYmluZGluZycsICctaW1hZScsICc8aW5maWxlLm1hZT4nLCAnLW9tYWUnLCAnPG91dGZpbGUubWFlPic=

> <r_lp_tautomer_probability>
0.273662

> <r_epik_Ionization_Penalty>
0.0875285

> <r_epik_Ionization_Penalty_Charging>
0.0875254

> <r_epik_Ionization_Penalty_Neutral>
3.01536e-06

> <r_epik_State_Penalty>
0.985796

> <r_epik_Charging_Adjusted_Penalty>
1.07332

> <i_epik_Tot_Q>
0

> <i_epik_Tot_abs_Q>
0

> <r_epik_Metal_State_Penalty>
1.58101

> <b_epik_Metal_Only>
0

> <s_lp_Force_Field>
OPLS_2005

> <r_lp_Energy>
19.296

> <b_lp_Chiralities_Consistent>
1

> <s_lp_Variant>
AV-unprocessed.smi:438-7

> <Gold.Version>
5.8.1

> <Gold.Id.Protein>
6NUR|6NUR_protein|mol2

> <Gold.PLP.Fitness>
40.3076

> <Gold.PLP.PLP>
-37.5811

> <Gold.PLP.part.hbond>
-3.0000

> <Gold.PLP.part.metal>
0.0000

> <Gold.PLP.part.buried>
-2.9130

> <Gold.PLP.part.nonpolar>
-31.7337

> <Gold.PLP.part.repulsive>
0.1558

> <Gold.PLP.ligand.clash>
0.0000

> <Gold.PLP.ligand.torsion>
1.3123

> <Gold.PLP.Chemscore.Hbond>
1.7664

> <Gold.PLP.Chemscore.CHOScore>
0.0000

> <Gold.PLP.Chemscore.Metal>
0.0000

> <Gold.Chemscore.Hbonds>
donor molecule, donor type, donor heavy atom, donor atom, acceptor molecule, acceptor atom, score
      P1  H  6931  6943       L1    17  0.82
      P1  H  6934  6947       L1    17  0.94

> <Gold.PLP.Chemscore.Internal.Correction>
0.0520

> <Gold.Rescore>
     Score         DG    S(hbond)    S(metal)    S(lipo)     H(rot)  DE(clash)    DE(int)     intcor
      9.94     -11.30       0.91        0.00      86.57       2.86       0.03       1.33       ----

> <Gold.Chemscore.Fitness>
9.9443

> <Gold.Chemscore.DG>
-11.3025

> <Gold.Chemscore.ZeroCoef>
-5.4800

> <Gold.Chemscore.Hbond>
0.9064

> <Gold.Chemscore.Metal>
0.0000

> <Gold.Chemscore.Lipo>
86.5655

> <Gold.Chemscore.Internal_Hbond>
0.0000

> <Gold.Chemscore.DEClash>
0.0291

> <Gold.Chemscore.DEInternal>
1.3291

> <Gold.Chemscore.Rot>
2.8645

> <Gold.Chemscore.Internal.Correction>
   9.000000E+99

> <Gold.Chemscore.Hbonds>
donor molecule, donor type, donor heavy atom, donor atom, acceptor molecule, acceptor atom, score
      P1  H  6931  6943       L1    17  0.14
      P1  H  6934  6947       L1    17  0.55

> <Gold.Chemscore.Hbond.Weighted>
-3.0274

> <Gold.Chemscore.Metal.Weighted>
-0.0000

> <Gold.Chemscore.Lipo.Weighted>
-10.1282

> <Gold.Chemscore.Internal_Hbond.Weighted>
0.0000

> <Gold.Chemscore.DEClash.Weighted>
0.0291

> <Gold.Chemscore.DEInternal.Weighted>
1.3291

> <Gold.Chemscore.Rot.Weighted>
7.3331

> <Gold.Chemscore.Internal.Correction.Weighted>
   9.000000E+99

> <Gold.Protein.RotatedTorsions>
[ 6907 6896 6895 6894 ] final  -61.28 input  -60.11 | X-H torsion
[ 7974 7965 7964 7962 ] final  115.68 input  175.53 | X-H torsion
[ 8008 7997 7996 7995 ] final  146.96 input   59.86 | X-H torsion
[ 10167 10162 10161 10158 ] final  152.17 input  -65.29 | X-H torsion
[ 10718 10713 10712 10709 ] final  -63.40 input   66.30 | X-H torsion
[ 10763 10752 10751 10750 ] final   82.58 input  -60.55 | X-H torsion
[ 11005 11000 10999 10996 ] final   -0.76 input  -57.11 | X-H torsion

> <Gold.Protein.ActiveResidues>
 VAL166  LYS551  ARG553  GLY616  TRP617  ASP618  TYR619  PRO620  LYS621  CYS622 
 ASP623  PHE694  ASN695  SER759  ASP760  ASP761  ALA762  ILE779  LEU786  VAL792 
 PHE793  MET794  SER795  GLU796  ALA797  LYS798  CYS799  TRP800  GLU811  SER814 

> <Gold.Protein.RotatedAtoms>
  150.7795  134.6725  159.6398 H   0  0  0  0  0  0  0  0  0  0  0  0  # atno 6907 bound_to 6896
  152.3876  134.6490  160.0129 H   0  0  0  0  0  0  0  0  0  0  0  0  # atno 6908 bound_to 6896
  151.6800  133.3275  159.3253 H   0  0  0  0  0  0  0  0  0  0  0  0  # atno 6909 bound_to 6896
  145.1889  139.3010  143.4378 H   0  0  0  0  0  0  0  0  0  0  0  0  # atno 7974 bound_to 7965
  156.2839  140.2168  156.5461 H   0  0  0  0  0  0  0  0  0  0  0  0  # atno 8008 bound_to 7997
  154.7329  140.0494  157.0765 H   0  0  0  0  0  0  0  0  0  0  0  0  # atno 8009 bound_to 7997
  155.0330  140.3137  155.4754 H   0  0  0  0  0  0  0  0  0  0  0  0  # atno 8010 bound_to 7997
  139.4835  144.5380  151.7612 H   0  0  0  0  0  0  0  0  0  0  0  0  # atno 10167 bound_to 10162
  156.0793  130.4220  150.1272 H   0  0  0  0  0  0  0  0  0  0  0  0  # atno 10718 bound_to 10713
  153.1215  135.4723  154.9204 H   0  0  0  0  0  0  0  0  0  0  0  0  # atno 10763 bound_to 10752
  154.7580  135.3123  154.8435 H   0  0  0  0  0  0  0  0  0  0  0  0  # atno 10764 bound_to 10752
  153.8998  135.6876  153.4809 H   0  0  0  0  0  0  0  0  0  0  0  0  # atno 10765 bound_to 10752
  140.6399  133.9499  155.8320 H   0  0  0  0  0  0  0  0  0  0  0  0  # atno 11005 bound_to 11000
  146.3440  140.2095  142.8590 LP  0  0  0  0  0  0  0  0  0  0  0  0  # atno 17320 bound_to 7965
  145.0061  140.8674  143.5252 LP  0  0  0  0  0  0  0  0  0  0  0  0  # atno 17321 bound_to 7965
  140.4915  144.1303  150.5951 LP  0  0  0  0  0  0  0  0  0  0  0  0  # atno 17342 bound_to 10162
  140.4165  143.2632  151.9768 LP  0  0  0  0  0  0  0  0  0  0  0  0  # atno 17343 bound_to 10162
  156.9307  130.9713  151.3533 LP  0  0  0  0  0  0  0  0  0  0  0  0  # atno 17370 bound_to 10713
  157.5903  130.8439  149.8649 LP  0  0  0  0  0  0  0  0  0  0  0  0  # atno 17371 bound_to 10713
  141.0615  134.0340  157.3652 LP  0  0  0  0  0  0  0  0  0  0  0  0  # atno 17394 bound_to 11000
  139.9084  135.0185  156.7587 LP  0  0  0  0  0  0  0  0  0  0  0  0  # atno 17395 bound_to 11000

$$$$
