AV-unprocessed.smi:2473|AV-procd|sdf|9746|dock8
  -GOLD-   2272013383D 1   1.00000     0.00000
 Structure written by MMmdl.
 48 49  0  0  0  0  0  0  0  0  2 V2000
  153.5756  137.2700  157.6265 C   0  0  0  0  0  0  0  0  0  0  0  0
  152.3231  137.6164  156.8086 C   0  0  1  0  0  0  0  0  0  0  0  0
  152.7002  138.0985  155.3933 C   0  0  0  0  0  0  0  0  0  0  0  0
  151.4764  138.4277  154.5076 C   0  0  2  0  0  0  0  0  0  0  0  0
  150.8501  139.8077  154.7839 C   0  0  0  0  0  0  0  0  0  0  0  0
  149.8182  140.1675  154.2167 O   0  0  0  0  0  0  0  0  0  0  0  0
  151.4733  140.5656  155.6983 N   0  0  0  0  0  0  0  0  0  0  0  0
  151.0335  141.8932  156.1028 C   0  0  0  0  0  0  0  0  0  0  0  0
  150.8010  141.9467  157.6179 C   0  0  0  0  0  0  0  0  0  0  0  0
  151.3229  143.2053  158.2377 C   0  0  0  0  0  0  0  0  0  0  0  0
  151.0457  144.4472  157.8233 N   0  3  0  0  0  0  0  0  0  0  0  0
  151.6727  145.3671  158.6191 C   0  0  0  0  0  0  0  0  0  0  0  0
  152.3588  144.6544  159.5675 C   0  0  0  0  0  0  0  0  0  0  0  0
  152.1224  143.3281  159.3105 N   0  0  0  0  0  0  0  0  0  0  0  0
  152.6454  142.1867  160.0645 C   0  0  0  0  0  0  0  0  0  0  0  0
  150.4493  137.2667  154.5210 C   0  0  0  0  0  0  0  0  0  0  0  0
  150.0735  136.6977  155.9169 C   0  0  0  0  0  0  0  0  0  0  0  0
  149.1235  137.6363  156.6935 C   0  0  0  0  0  0  0  0  0  0  0  0
  149.3230  135.3663  155.7096 C   0  0  0  0  0  0  0  0  0  0  0  0
  151.3613  136.4144  156.7280 C   0  0  0  0  0  0  0  0  0  0  0  0
  154.1444  136.4641  157.1616 H   0  0  0  0  0  0  0  0  0  0  0  0
  153.3101  136.9511  158.6349 H   0  0  0  0  0  0  0  0  0  0  0  0
  154.2347  138.1335  157.7181 H   0  0  0  0  0  0  0  0  0  0  0  0
  151.8224  138.4264  157.3367 H   0  0  0  0  0  0  0  0  0  0  0  0
  153.3599  138.9650  155.4606 H   0  0  0  0  0  0  0  0  0  0  0  0
  153.2869  137.3225  154.8997 H   0  0  0  0  0  0  0  0  0  0  0  0
  151.8531  138.5020  153.4862 H   0  0  0  0  0  0  0  0  0  0  0  0
  152.3081  140.1998  156.1336 H   0  0  0  0  0  0  0  0  0  0  0  0
  151.7889  142.6249  155.8115 H   0  0  0  0  0  0  0  0  0  0  0  0
  150.1150  142.1497  155.5731 H   0  0  0  0  0  0  0  0  0  0  0  0
  149.7396  141.8760  157.8577 H   0  0  0  0  0  0  0  0  0  0  0  0
  151.3011  141.1154  158.1170 H   0  0  0  0  0  0  0  0  0  0  0  0
  151.5845  146.4316  158.4564 H   0  0  0  0  0  0  0  0  0  0  0  0
  152.9809  144.9855  160.3867 H   0  0  0  0  0  0  0  0  0  0  0  0
  153.1966  142.5448  160.9345 H   0  0  0  0  0  0  0  0  0  0  0  0
  153.3151  141.6100  159.4265 H   0  0  0  0  0  0  0  0  0  0  0  0
  151.8185  141.5590  160.3974 H   0  0  0  0  0  0  0  0  0  0  0  0
  149.5434  137.5549  153.9856 H   0  0  0  0  0  0  0  0  0  0  0  0
  150.8795  136.4594  153.9263 H   0  0  0  0  0  0  0  0  0  0  0  0
  148.7924  137.1755  157.6247 H   0  0  0  0  0  0  0  0  0  0  0  0
  148.2317  137.8670  156.1101 H   0  0  0  0  0  0  0  0  0  0  0  0
  149.5865  138.5816  156.9648 H   0  0  0  0  0  0  0  0  0  0  0  0
  149.0455  134.9129  156.6620 H   0  0  0  0  0  0  0  0  0  0  0  0
  149.9327  134.6400  155.1711 H   0  0  0  0  0  0  0  0  0  0  0  0
  148.4067  135.5113  155.1361 H   0  0  0  0  0  0  0  0  0  0  0  0
  151.8947  135.5777  156.2736 H   0  0  0  0  0  0  0  0  0  0  0  0
  151.0972  136.0864  157.7344 H   0  0  0  0  0  0  0  0  0  0  0  0
  150.4547  144.6713  157.0325 H   0  0  0  0  0  0  0  0  0  0  0  0
  1  2  1  0  0  0  0
  1 21  1  0  0  0  0
  1 22  1  0  0  0  0
  1 23  1  0  0  0  0
  2 20  1  0  0  0  0
  2  3  1  0  0  0  0
  2 24  1  0  0  0  0
  3  4  1  0  0  0  0
  3 25  1  0  0  0  0
  3 26  1  0  0  0  0
  4  5  1  0  0  0  0
  4 16  1  0  0  0  0
  4 27  1  0  0  0  0
  5  6  2  0  0  0  0
  5  7  1  0  0  0  0
  7  8  1  0  0  0  0
  7 28  1  0  0  0  0
  8  9  1  0  0  0  0
  8 29  1  0  0  0  0
  8 30  1  0  0  0  0
  9 10  1  0  0  0  0
  9 31  1  0  0  0  0
  9 32  1  0  0  0  0
 10 14  1  0  0  0  0
 10 11  2  0  0  0  0
 11 12  1  0  0  0  0
 11 48  1  0  0  0  0
 12 13  2  0  0  0  0
 12 33  1  0  0  0  0
 13 14  1  0  0  0  0
 13 34  1  0  0  0  0
 14 15  1  0  0  0  0
 15 35  1  0  0  0  0
 15 36  1  0  0  0  0
 15 37  1  0  0  0  0
 16 17  1  0  0  0  0
 16 38  1  0  0  0  0
 16 39  1  0  0  0  0
 17 18  1  0  0  0  0
 17 19  1  0  0  0  0
 17 20  1  0  0  0  0
 18 40  1  0  0  0  0
 18 41  1  0  0  0  0
 18 42  1  0  0  0  0
 19 43  1  0  0  0  0
 19 44  1  0  0  0  0
 19 45  1  0  0  0  0
 20 46  1  0  0  0  0
 20 47  1  0  0  0  0
M  CHG  1  11   1
M  END
> <s_m_source_file>
AV-unprocessed.smi

> <i_m_source_file_index>
2473

> <i_lp_mmshare_version>
43012

> <i_f3d_flags>
0

> <s_epik_input>
W0NIM11bQ0BASF0oW0NIMl0xKVtDSDJdW0NASF0oW0NIMl1DMShbQ0gzXSlbQ0gzXSlDKD1PKVtOSF1bQ0gyXVtDSDJdYzJuW2NIXVtjSF1uMltDSDNd

> <s_epik_cmdline>
J2VwaWtfcHl0aG9uJywgJy1waCcsICc3LjAnLCAnLXRuJywgJzgnLCAnLW1hJywgJzIwMCcsICctbWV0YWxfYmluZGluZycsICctaW1hZScsICc8aW5maWxlLm1hZT4nLCAnLW9tYWUnLCAnPG91dGZpbGUubWFlPic=

> <r_lp_tautomer_probability>
1

> <r_epik_Ionization_Penalty>
0.0796112

> <r_epik_Ionization_Penalty_Charging>
0

> <r_epik_Ionization_Penalty_Neutral>
0.0796112

> <r_epik_State_Penalty>
0.0704541

> <r_epik_Charging_Adjusted_Penalty>
0.0704541

> <i_epik_Tot_Q>
1

> <i_epik_Tot_abs_Q>
1

> <r_epik_Metal_State_Penalty>
0.409899

> <b_epik_Metal_Only>
0

> <s_lp_Force_Field>
OPLS_2005

> <r_lp_Energy>
17.0115

> <b_lp_Chiralities_Consistent>
1

> <s_lp_Variant>
AV-unprocessed.smi:2473-4

> <Gold.Version>
5.8.1

> <Gold.Id.Protein>
6NUR|6NUR_protein|mol2

> <Gold.PLP.Fitness>
44.4304

> <Gold.PLP.PLP>
-39.4183

> <Gold.PLP.part.hbond>
-1.1431

> <Gold.PLP.part.metal>
0.0000

> <Gold.PLP.part.buried>
-3.3153

> <Gold.PLP.part.nonpolar>
-35.0441

> <Gold.PLP.part.repulsive>
0.6402

> <Gold.PLP.ligand.clash>
0.0000

> <Gold.PLP.ligand.torsion>
0.5408

> <Gold.PLP.Chemscore.Hbond>
2.0000

> <Gold.PLP.Chemscore.CHOScore>
0.0000

> <Gold.PLP.Chemscore.Metal>
0.0000

> <Gold.Chemscore.Hbonds>
donor molecule, donor type, donor heavy atom, donor atom, acceptor molecule, acceptor atom, score
      L1  H    11    48       P1  8028  1.92

> <Gold.PLP.Chemscore.Internal.Correction>
0.0936

> <Gold.Rescore>
     Score         DG    S(hbond)    S(metal)    S(lipo)     H(rot)  DE(clash)    DE(int)     intcor
     14.55     -15.39       0.80        0.00      96.49       1.58       0.04       0.80       ----

> <Gold.Chemscore.Fitness>
14.5534

> <Gold.Chemscore.DG>
-15.3895

> <Gold.Chemscore.ZeroCoef>
-5.4800

> <Gold.Chemscore.Hbond>
0.7993

> <Gold.Chemscore.Metal>
0.0000

> <Gold.Chemscore.Lipo>
96.4903

> <Gold.Chemscore.Internal_Hbond>
0.0000

> <Gold.Chemscore.DEClash>
0.0377

> <Gold.Chemscore.DEInternal>
0.7985

> <Gold.Chemscore.Rot>
1.5818

> <Gold.Chemscore.Internal.Correction>
   9.000000E+99

> <Gold.Chemscore.Hbonds>
donor molecule, donor type, donor heavy atom, donor atom, acceptor molecule, acceptor atom, score
      L1  H    11    48       P1  8028  0.60

> <Gold.Chemscore.Hbond.Weighted>
-2.6696

> <Gold.Chemscore.Metal.Weighted>
-0.0000

> <Gold.Chemscore.Lipo.Weighted>
-11.2894

> <Gold.Chemscore.Internal_Hbond.Weighted>
0.0000

> <Gold.Chemscore.DEClash.Weighted>
0.0377

> <Gold.Chemscore.DEInternal.Weighted>
0.7985

> <Gold.Chemscore.Rot.Weighted>
4.0495

> <Gold.Chemscore.Internal.Correction.Weighted>
   9.000000E+99

> <Gold.Protein.RotatedTorsions>
[ 6907 6896 6895 6894 ] final   20.71 input  -60.11 | X-H torsion
[ 7974 7965 7964 7962 ] final  -28.13 input  175.53 | X-H torsion
[ 8008 7997 7996 7995 ] final  117.06 input   59.86 | X-H torsion
[ 10167 10162 10161 10158 ] final  171.73 input  -65.29 | X-H torsion
[ 10718 10713 10712 10709 ] final  -87.68 input   66.30 | X-H torsion
[ 10763 10752 10751 10750 ] final  -85.55 input  -60.55 | X-H torsion
[ 11005 11000 10999 10996 ] final  -51.72 input  -57.11 | X-H torsion

> <Gold.Protein.ActiveResidues>
 VAL166  LYS551  ARG553  GLY616  TRP617  ASP618  TYR619  PRO620  LYS621  CYS622 
 ASP623  PHE694  ASN695  SER759  ASP760  ASP761  ALA762  ILE779  LEU786  VAL792 
 PHE793  MET794  SER795  GLU796  ALA797  LYS798  CYS799  TRP800  GLU811  SER814 

> <Gold.Protein.RotatedAtoms>
  151.9006  135.0380  160.0505 H   0  0  0  0  0  0  0  0  0  0  0  0  # atno 6907 bound_to 6896
  152.2361  133.5093  159.5252 H   0  0  0  0  0  0  0  0  0  0  0  0  # atno 6908 bound_to 6896
  150.7039  134.1068  159.4028 H   0  0  0  0  0  0  0  0  0  0  0  0  # atno 6909 bound_to 6896
  146.1310  140.5242  142.8693 H   0  0  0  0  0  0  0  0  0  0  0  0  # atno 7974 bound_to 7965
  156.2474  140.2904  156.0620 H   0  0  0  0  0  0  0  0  0  0  0  0  # atno 8008 bound_to 7997
  155.1765  140.0403  157.2891 H   0  0  0  0  0  0  0  0  0  0  0  0  # atno 8009 bound_to 7997
  154.6289  140.2494  155.7464 H   0  0  0  0  0  0  0  0  0  0  0  0  # atno 8010 bound_to 7997
  139.5055  144.3452  151.9978 H   0  0  0  0  0  0  0  0  0  0  0  0  # atno 10167 bound_to 10162
  155.9985  130.4808  150.4904 H   0  0  0  0  0  0  0  0  0  0  0  0  # atno 10718 bound_to 10713
  154.6124  135.5481  153.7487 H   0  0  0  0  0  0  0  0  0  0  0  0  # atno 10763 bound_to 10752
  153.0201  135.6392  154.1559 H   0  0  0  0  0  0  0  0  0  0  0  0  # atno 10764 bound_to 10752
  154.1496  135.2903  155.3119 H   0  0  0  0  0  0  0  0  0  0  0  0  # atno 10765 bound_to 10752
  141.0886  133.6637  156.3918 H   0  0  0  0  0  0  0  0  0  0  0  0  # atno 11005 bound_to 11000
  144.7690  140.5596  143.6683 LP  0  0  0  0  0  0  0  0  0  0  0  0  # atno 17320 bound_to 7965
  145.5261  139.1476  143.3525 LP  0  0  0  0  0  0  0  0  0  0  0  0  # atno 17321 bound_to 7965
  140.2890  144.3775  150.6094 LP  0  0  0  0  0  0  0  0  0  0  0  0  # atno 17342 bound_to 10162
  140.5961  143.2167  151.7162 LP  0  0  0  0  0  0  0  0  0  0  0  0  # atno 17343 bound_to 10162
  157.2899  131.0624  151.2140 LP  0  0  0  0  0  0  0  0  0  0  0  0  # atno 17370 bound_to 10713
  157.3157  130.6912  149.6240 LP  0  0  0  0  0  0  0  0  0  0  0  0  # atno 17371 bound_to 10713
  140.5305  134.6217  157.5348 LP  0  0  0  0  0  0  0  0  0  0  0  0  # atno 17394 bound_to 11000
  139.9708  134.7296  156.0046 LP  0  0  0  0  0  0  0  0  0  0  0  0  # atno 17395 bound_to 11000

$$$$
