AV-unprocessed.smi:2712|AV-procd|sdf|10474|dock8
  -GOLD-   2272014513D 1   1.00000     0.00000
 Structure written by MMmdl.
 52 53  0  0  0  0  0  0  0  0  1 V2000
  146.7332  137.5459  162.8419 C   0  0  0  0  0  0  0  0  0  0  0  0
  147.3161  136.6128  161.8221 C   0  0  0  0  0  0  0  0  0  0  0  0
  147.7288  135.2587  162.1375 C   0  0  0  0  0  0  0  0  0  0  0  0
  148.2455  134.4802  161.1629 C   0  0  0  0  0  0  0  0  0  0  0  0
  148.3979  134.9646  159.7928 C   0  0  0  0  0  0  0  0  0  0  0  0
  148.8512  134.2753  158.8798 O   0  0  0  0  0  0  0  0  0  0  0  0
  147.9758  136.2522  159.6148 N   0  0  0  0  0  0  0  0  0  0  0  0
  148.0291  136.8981  158.2926 C   0  0  0  0  0  0  0  0  0  0  0  0
  148.8932  138.1703  158.2300 C   0  0  0  0  0  0  0  0  0  0  0  0
  149.3123  138.6626  159.2769 O   0  0  0  0  0  0  0  0  0  0  0  0
  149.1604  138.6913  157.0204 N   0  0  0  0  0  0  0  0  0  0  0  0
  149.9849  139.8644  156.7477 C   0  0  2  0  0  0  0  0  0  0  0  0
  151.4648  139.5151  156.9923 C   0  0  0  0  0  0  0  0  0  0  0  0
  151.9186  139.6310  158.4552 C   0  0  0  0  0  0  0  0  0  0  0  0
  152.4286  141.0375  158.8210 C   0  0  0  0  0  0  0  0  0  0  0  0
  151.3484  142.1450  158.9728 C   0  0  1  0  0  0  0  0  0  0  0  0
  151.9408  143.5352  159.4130 C   0  0  0  0  0  0  0  0  0  0  0  0
  152.7683  144.1903  158.2855 C   0  0  0  0  0  0  0  0  0  0  0  0
  152.8485  143.3903  160.6565 C   0  0  0  0  0  0  0  0  0  0  0  0
  150.8060  144.5053  159.8209 C   0  0  0  0  0  0  0  0  0  0  0  0
  150.4403  142.2406  157.7123 C   0  0  0  0  0  0  0  0  0  0  0  0
  149.4599  141.0644  157.5641 C   0  0  0  0  0  0  0  0  0  0  0  0
  147.4492  137.0538  160.6144 N   0  0  0  0  0  0  0  0  0  0  0  0
  146.6024  137.0484  163.8032 H   0  0  0  0  0  0  0  0  0  0  0  0
  145.7578  137.9132  162.5213 H   0  0  0  0  0  0  0  0  0  0  0  0
  147.3847  138.4062  162.9967 H   0  0  0  0  0  0  0  0  0  0  0  0
  147.6219  134.8848  163.1450 H   0  0  0  0  0  0  0  0  0  0  0  0
  148.5536  133.4722  161.3996 H   0  0  0  0  0  0  0  0  0  0  0  0
  148.4162  136.1943  157.5537 H   0  0  0  0  0  0  0  0  0  0  0  0
  147.0215  137.1451  157.9531 H   0  0  0  0  0  0  0  0  0  0  0  0
  148.7706  138.2206  156.2165 H   0  0  0  0  0  0  0  0  0  0  0  0
  149.8938  140.1028  155.6864 H   0  0  0  0  0  0  0  0  0  0  0  0
  151.6515  138.5000  156.6383 H   0  0  0  0  0  0  0  0  0  0  0  0
  152.0973  140.1475  156.3682 H   0  0  0  0  0  0  0  0  0  0  0  0
  151.1360  139.3037  159.1411 H   0  0  0  0  0  0  0  0  0  0  0  0
  152.7457  138.9357  158.6015 H   0  0  0  0  0  0  0  0  0  0  0  0
  152.9559  140.9191  159.7662 H   0  0  0  0  0  0  0  0  0  0  0  0
  153.1839  141.3424  158.0969 H   0  0  0  0  0  0  0  0  0  0  0  0
  150.7107  141.8248  159.7980 H   0  0  0  0  0  0  0  0  0  0  0  0
  153.1883  145.1428  158.6106 H   0  0  0  0  0  0  0  0  0  0  0  0
  152.1632  144.3967  157.4026 H   0  0  0  0  0  0  0  0  0  0  0  0
  153.6030  143.5625  157.9747 H   0  0  0  0  0  0  0  0  0  0  0  0
  153.7767  142.8660  160.4299 H   0  0  0  0  0  0  0  0  0  0  0  0
  152.3433  142.8509  161.4587 H   0  0  0  0  0  0  0  0  0  0  0  0
  153.1402  144.3635  161.0525 H   0  0  0  0  0  0  0  0  0  0  0  0
  151.2062  145.4250  160.2494 H   0  0  0  0  0  0  0  0  0  0  0  0
  150.1517  144.0603  160.5712 H   0  0  0  0  0  0  0  0  0  0  0  0
  150.1862  144.8119  158.9799 H   0  0  0  0  0  0  0  0  0  0  0  0
  149.8242  143.1342  157.7684 H   0  0  0  0  0  0  0  0  0  0  0  0
  151.0346  142.3608  156.8060 H   0  0  0  0  0  0  0  0  0  0  0  0
  148.5552  141.4276  157.0744 H   0  0  0  0  0  0  0  0  0  0  0  0
  149.1324  140.7391  158.5526 H   0  0  0  0  0  0  0  0  0  0  0  0
  1  2  1  0  0  0  0
  1 24  1  0  0  0  0
  1 25  1  0  0  0  0
  1 26  1  0  0  0  0
  2 23  2  0  0  0  0
  2  3  1  0  0  0  0
  3  4  2  0  0  0  0
  3 27  1  0  0  0  0
  4  5  1  0  0  0  0
  4 28  1  0  0  0  0
  5  6  2  0  0  0  0
  5  7  1  0  0  0  0
  7  8  1  0  0  0  0
  7 23  1  0  0  0  0
  8  9  1  0  0  0  0
  8 29  1  0  0  0  0
  8 30  1  0  0  0  0
  9 10  2  0  0  0  0
  9 11  1  0  0  0  0
 11 12  1  0  0  0  0
 11 31  1  0  0  0  0
 12 22  1  0  0  0  0
 12 13  1  0  0  0  0
 12 32  1  0  0  0  0
 13 14  1  0  0  0  0
 13 33  1  0  0  0  0
 13 34  1  0  0  0  0
 14 15  1  0  0  0  0
 14 35  1  0  0  0  0
 14 36  1  0  0  0  0
 15 16  1  0  0  0  0
 15 37  1  0  0  0  0
 15 38  1  0  0  0  0
 16 17  1  0  0  0  0
 16 21  1  0  0  0  0
 16 39  1  0  0  0  0
 17 18  1  0  0  0  0
 17 19  1  0  0  0  0
 17 20  1  0  0  0  0
 18 40  1  0  0  0  0
 18 41  1  0  0  0  0
 18 42  1  0  0  0  0
 19 43  1  0  0  0  0
 19 44  1  0  0  0  0
 19 45  1  0  0  0  0
 20 46  1  0  0  0  0
 20 47  1  0  0  0  0
 20 48  1  0  0  0  0
 21 22  1  0  0  0  0
 21 49  1  0  0  0  0
 21 50  1  0  0  0  0
 22 51  1  0  0  0  0
 22 52  1  0  0  0  0
M  END
> <s_m_source_file>
AV-unprocessed.smi

> <i_m_source_file_index>
2712

> <i_lp_mmshare_version>
43012

> <i_f3d_flags>
0

> <s_epik_input>
W0NIM11jMVtjSF1bY0hdYyg9TyluKG4xKVtDSDJdQyg9TylbTkhdW0NAQEhdMltDSDJdW0NIMl1bQ0gyXVtDQEBIXShDKFtDSDNdKShbQ0gzXSlbQ0gzXSlbQ0gyXVtDSDJdMg==

> <s_epik_cmdline>
J2VwaWtfcHl0aG9uJywgJy1waCcsICc3LjAnLCAnLXRuJywgJzgnLCAnLW1hJywgJzIwMCcsICctbWV0YWxfYmluZGluZycsICctaW1hZScsICc8aW5maWxlLm1hZT4nLCAnLW9tYWUnLCAnPG91dGZpbGUubWFlPic=

> <r_lp_tautomer_probability>
1

> <r_epik_Ionization_Penalty>
8.71758e-07

> <r_epik_Ionization_Penalty_Charging>
8.50442e-07

> <r_epik_Ionization_Penalty_Neutral>
2.13165e-08

> <r_epik_State_Penalty>
-0

> <r_epik_Charging_Adjusted_Penalty>
8.50442e-07

> <i_epik_Tot_Q>
0

> <i_epik_Tot_abs_Q>
0

> <r_epik_Metal_State_Penalty>
-0

> <b_epik_Metal_Only>
0

> <s_lp_Force_Field>
OPLS_2005

> <r_lp_Energy>
38.8827

> <b_lp_Chiralities_Consistent>
1

> <s_lp_Variant>
AV-unprocessed.smi:2712-1

> <Gold.Version>
5.8.1

> <Gold.Id.Protein>
6NUR|6NUR_protein|mol2

> <Gold.PLP.Fitness>
44.2565

> <Gold.PLP.PLP>
-38.6817

> <Gold.PLP.part.hbond>
-4.3119

> <Gold.PLP.part.metal>
0.0000

> <Gold.PLP.part.buried>
-1.4729

> <Gold.PLP.part.nonpolar>
-33.0330

> <Gold.PLP.part.repulsive>
0.0267

> <Gold.PLP.ligand.clash>
0.0000

> <Gold.PLP.ligand.torsion>
0.2566

> <Gold.PLP.Chemscore.Hbond>
2.0000

> <Gold.PLP.Chemscore.CHOScore>
0.0000

> <Gold.PLP.Chemscore.Metal>
0.0000

> <Gold.Chemscore.Hbonds>
donor molecule, donor type, donor heavy atom, donor atom, acceptor molecule, acceptor atom, score
      P1  H  6896  6907       L1     6  0.90
      P1  H  6934  6947       L1    23  1.00

> <Gold.PLP.Chemscore.Internal.Correction>
0.0880

> <Gold.Rescore>
     Score         DG    S(hbond)    S(metal)    S(lipo)     H(rot)  DE(clash)    DE(int)     intcor
     13.82     -18.89       1.02        0.00     118.79       1.52       1.10       3.97       ----

> <Gold.Chemscore.Fitness>
13.8194

> <Gold.Chemscore.DG>
-18.8929

> <Gold.Chemscore.ZeroCoef>
-5.4800

> <Gold.Chemscore.Hbond>
1.0167

> <Gold.Chemscore.Metal>
0.0000

> <Gold.Chemscore.Lipo>
118.7911

> <Gold.Chemscore.Internal_Hbond>
0.0000

> <Gold.Chemscore.DEClash>
1.0991

> <Gold.Chemscore.DEInternal>
3.9743

> <Gold.Chemscore.Rot>
1.5162

> <Gold.Chemscore.Internal.Correction>
   9.000000E+99

> <Gold.Chemscore.Hbonds>
donor molecule, donor type, donor heavy atom, donor atom, acceptor molecule, acceptor atom, score
      P1  H  6896  6907       L1     6  0.18
      P1  H  6934  6947       L1    23  0.24

> <Gold.Chemscore.Hbond.Weighted>
-3.3957

> <Gold.Chemscore.Metal.Weighted>
-0.0000

> <Gold.Chemscore.Lipo.Weighted>
-13.8986

> <Gold.Chemscore.Internal_Hbond.Weighted>
0.0000

> <Gold.Chemscore.DEClash.Weighted>
1.0991

> <Gold.Chemscore.DEInternal.Weighted>
3.9743

> <Gold.Chemscore.Rot.Weighted>
3.8814

> <Gold.Chemscore.Internal.Correction.Weighted>
   9.000000E+99

> <Gold.Protein.RotatedTorsions>
[ 6907 6896 6895 6894 ] final  -90.42 input  -60.11 | X-H torsion
[ 7974 7965 7964 7962 ] final    5.70 input  175.53 | X-H torsion
[ 8008 7997 7996 7995 ] final   57.15 input   59.86 | X-H torsion
[ 10167 10162 10161 10158 ] final  162.62 input  -65.29 | X-H torsion
[ 10718 10713 10712 10709 ] final  -57.45 input   66.30 | X-H torsion
[ 10763 10752 10751 10750 ] final  -34.97 input  -60.55 | X-H torsion
[ 11005 11000 10999 10996 ] final  -88.91 input  -57.11 | X-H torsion

> <Gold.Protein.ActiveResidues>
 VAL166  LYS551  ARG553  GLY616  TRP617  ASP618  TYR619  PRO620  LYS621  CYS622 
 ASP623  PHE694  ASN695  SER759  ASP760  ASP761  ALA762  ILE779  LEU786  VAL792 
 PHE793  MET794  SER795  GLU796  ALA797  LYS798  CYS799  TRP800  GLU811  SER814 

> <Gold.Protein.RotatedAtoms>
  150.6881  134.2435  159.4481 H   0  0  0  0  0  0  0  0  0  0  0  0  # atno 6907 bound_to 6896
  152.0378  134.9727  160.0583 H   0  0  0  0  0  0  0  0  0  0  0  0  # atno 6908 bound_to 6896
  152.1241  133.4335  159.4726 H   0  0  0  0  0  0  0  0  0  0  0  0  # atno 6909 bound_to 6896
  146.2439  140.0345  142.8387 H   0  0  0  0  0  0  0  0  0  0  0  0  # atno 7974 bound_to 7965
  155.5291  140.3481  155.4422 H   0  0  0  0  0  0  0  0  0  0  0  0  # atno 8008 bound_to 7997
  156.0731  140.1368  156.9831 H   0  0  0  0  0  0  0  0  0  0  0  0  # atno 8009 bound_to 7997
  154.4539  140.0961  156.6674 H   0  0  0  0  0  0  0  0  0  0  0  0  # atno 8010 bound_to 7997
  139.4863  144.4419  151.8941 H   0  0  0  0  0  0  0  0  0  0  0  0  # atno 10167 bound_to 10162
  156.1210  130.4166  150.0442 H   0  0  0  0  0  0  0  0  0  0  0  0  # atno 10718 bound_to 10713
  153.8555  135.6845  153.4788 H   0  0  0  0  0  0  0  0  0  0  0  0  # atno 10763 bound_to 10752
  153.1372  135.4672  154.9439 H   0  0  0  0  0  0  0  0  0  0  0  0  # atno 10764 bound_to 10752
  154.7783  135.3260  154.7994 H   0  0  0  0  0  0  0  0  0  0  0  0  # atno 10765 bound_to 10752
  141.1594  133.7598  156.9519 H   0  0  0  0  0  0  0  0  0  0  0  0  # atno 11005 bound_to 11000
  145.1125  140.9413  143.4648 LP  0  0  0  0  0  0  0  0  0  0  0  0  # atno 17320 bound_to 7965
  145.0562  139.3142  143.5903 LP  0  0  0  0  0  0  0  0  0  0  0  0  # atno 17321 bound_to 7965
  140.3871  144.2662  150.5903 LP  0  0  0  0  0  0  0  0  0  0  0  0  # atno 17342 bound_to 10162
  140.5180  143.2273  151.8433 LP  0  0  0  0  0  0  0  0  0  0  0  0  # atno 17343 bound_to 10162
  156.8381  130.9416  151.3633 LP  0  0  0  0  0  0  0  0  0  0  0  0  # atno 17370 bound_to 10713
  157.6393  130.8792  149.9418 LP  0  0  0  0  0  0  0  0  0  0  0  0  # atno 17371 bound_to 10713
  140.1251  134.9392  157.2259 LP  0  0  0  0  0  0  0  0  0  0  0  0  # atno 17394 bound_to 11000
  140.3022  134.3118  155.7287 LP  0  0  0  0  0  0  0  0  0  0  0  0  # atno 17395 bound_to 11000

$$$$
