AV-unprocessed.smi:1053|AV-procd|sdf|4621|dock7
  -GOLD-   22720 3123D 1   1.00000     0.00000
 Structure written by MMmdl.
 37 38  0  0  0  0  0  0  0  0  1 V2000
  152.9299  138.4842  154.6790 C   0  0  0  0  0  0  0  0  0  0  0  0
  151.4089  138.5749  154.4888 C   0  0  0  0  0  0  0  0  0  0  0  0
  150.8446  139.9121  154.6642 N   0  0  0  0  0  0  0  0  0  0  0  0
  149.3934  139.9340  154.5000 C   0  0  0  0  0  0  0  0  0  0  0  0
  148.8146  141.3413  154.7225 C   0  0  0  0  0  0  0  0  0  0  0  0
  149.1920  141.8121  156.0117 O   0  0  0  0  0  0  0  0  0  0  0  0
  150.6051  141.8654  156.1938 C   0  0  1  0  0  0  0  0  0  0  0  0
  150.8935  142.3816  157.6096 C   0  0  0  0  0  0  0  0  0  0  0  0
  152.1517  141.8650  158.1272 N   0  0  0  0  0  0  0  0  0  0  0  0
  152.6576  142.1668  159.3772 C   0  0  0  0  0  0  0  0  0  0  0  0
  152.1743  143.2399  160.0140 N   0  0  0  0  0  0  0  0  0  0  0  0
  152.6837  143.5104  161.2348 C   0  0  0  0  0  0  0  0  0  0  0  0
  153.6791  142.7030  161.8193 C   0  0  0  0  0  0  0  0  0  0  0  0
  154.1140  141.5954  161.0573 C   0  0  0  0  0  0  0  0  0  0  0  0
  155.1843  140.6382  161.5599 C   0  0  0  0  0  0  0  0  0  0  0  0
  155.5951  140.9633  162.7863 F   0  0  0  0  0  0  0  0  0  0  0  0
  154.6996  139.3966  161.5925 F   0  0  0  0  0  0  0  0  0  0  0  0
  156.2348  140.6693  160.7397 F   0  0  0  0  0  0  0  0  0  0  0  0
  153.5970  141.3357  159.8336 N   0  0  0  0  0  0  0  0  0  0  0  0
  151.1798  140.4509  155.9781 C   0  0  0  0  0  0  0  0  0  0  0  0
  153.2591  137.4458  154.6411 H   0  0  0  0  0  0  0  0  0  0  0  0
  153.2301  138.8908  155.6453 H   0  0  0  0  0  0  0  0  0  0  0  0
  153.4712  139.0229  153.9017 H   0  0  0  0  0  0  0  0  0  0  0  0
  151.1407  138.1842  153.5061 H   0  0  0  0  0  0  0  0  0  0  0  0
  150.9493  137.9022  155.2140 H   0  0  0  0  0  0  0  0  0  0  0  0
  149.1196  139.5977  153.5005 H   0  0  0  0  0  0  0  0  0  0  0  0
  148.9304  139.2397  155.2028 H   0  0  0  0  0  0  0  0  0  0  0  0
  149.1698  142.0316  153.9558 H   0  0  0  0  0  0  0  0  0  0  0  0
  147.7268  141.3192  154.6550 H   0  0  0  0  0  0  0  0  0  0  0  0
  151.0423  142.5478  155.4620 H   0  0  0  0  0  0  0  0  0  0  0  0
  150.9139  143.4721  157.6189 H   0  0  0  0  0  0  0  0  0  0  0  0
  150.0933  142.0695  158.2817 H   0  0  0  0  0  0  0  0  0  0  0  0
  152.7162  141.2843  157.5243 H   0  0  0  0  0  0  0  0  0  0  0  0
  152.2948  144.3766  161.7489 H   0  0  0  0  0  0  0  0  0  0  0  0
  154.0812  142.9275  162.7961 H   0  0  0  0  0  0  0  0  0  0  0  0
  150.8036  139.7844  156.7561 H   0  0  0  0  0  0  0  0  0  0  0  0
  152.2637  140.4828  156.0952 H   0  0  0  0  0  0  0  0  0  0  0  0
  1  2  1  0  0  0  0
  1 21  1  0  0  0  0
  1 22  1  0  0  0  0
  1 23  1  0  0  0  0
  2  3  1  0  0  0  0
  2 24  1  0  0  0  0
  2 25  1  0  0  0  0
  3 20  1  0  0  0  0
  3  4  1  0  0  0  0
  4  5  1  0  0  0  0
  4 26  1  0  0  0  0
  4 27  1  0  0  0  0
  5  6  1  0  0  0  0
  5 28  1  0  0  0  0
  5 29  1  0  0  0  0
  6  7  1  0  0  0  0
  7  8  1  0  0  0  0
  7 20  1  0  0  0  0
  7 30  1  0  0  0  0
  8  9  1  0  0  0  0
  8 31  1  0  0  0  0
  8 32  1  0  0  0  0
  9 10  1  0  0  0  0
  9 33  1  0  0  0  0
 10 19  1  0  0  0  0
 10 11  2  0  0  0  0
 11 12  1  0  0  0  0
 12 13  2  0  0  0  0
 12 34  1  0  0  0  0
 13 14  1  0  0  0  0
 13 35  1  0  0  0  0
 14 15  1  0  0  0  0
 14 19  2  0  0  0  0
 15 16  1  0  0  0  0
 15 17  1  0  0  0  0
 15 18  1  0  0  0  0
 20 36  1  0  0  0  0
 20 37  1  0  0  0  0
M  END
> <s_m_source_file>
AV-unprocessed.smi

> <i_m_source_file_index>
1053

> <i_lp_mmshare_version>
43012

> <i_f3d_flags>
0

> <s_epik_input>
W0NIM11bQ0gyXU4xW0NIMl1bQ0gyXU9bQ0BIXShbQ0gyXTEpW0NIMl1bTkhdYzJuW2NIXVtjSF1jKG4yKUMoRikoRilG

> <s_epik_cmdline>
J2VwaWtfcHl0aG9uJywgJy1waCcsICc3LjAnLCAnLXRuJywgJzgnLCAnLW1hJywgJzIwMCcsICctbWV0YWxfYmluZGluZycsICctaW1hZScsICc8aW5maWxlLm1hZT4nLCAnLW9tYWUnLCAnPG91dGZpbGUubWFlPic=

> <r_lp_tautomer_probability>
1

> <r_epik_Ionization_Penalty>
0.797829

> <r_epik_Ionization_Penalty_Charging>
0

> <r_epik_Ionization_Penalty_Neutral>
0.797829

> <r_epik_State_Penalty>
0.828842

> <r_epik_Charging_Adjusted_Penalty>
0.828842

> <i_epik_Tot_Q>
0

> <i_epik_Tot_abs_Q>
0

> <r_epik_Metal_State_Penalty>
0.828842

> <b_epik_Metal_Only>
0

> <s_lp_Force_Field>
OPLS_2005

> <r_lp_Energy>
17.4925

> <b_lp_Chiralities_Consistent>
1

> <s_lp_Variant>
AV-unprocessed.smi:1053-5

> <Gold.Version>
5.8.1

> <Gold.Id.Protein>
6NUR|6NUR_protein|mol2

> <Gold.PLP.Fitness>
46.5829

> <Gold.PLP.PLP>
-44.4425

> <Gold.PLP.part.hbond>
-1.0000

> <Gold.PLP.part.metal>
0.0000

> <Gold.PLP.part.buried>
-5.4767

> <Gold.PLP.part.nonpolar>
-39.0470

> <Gold.PLP.part.repulsive>
1.6074

> <Gold.PLP.ligand.clash>
0.0000

> <Gold.PLP.ligand.torsion>
0.4363

> <Gold.PLP.Chemscore.Hbond>
1.0000

> <Gold.PLP.Chemscore.CHOScore>
0.0000

> <Gold.PLP.Chemscore.Metal>
0.0000

> <Gold.Chemscore.Hbonds>
donor molecule, donor type, donor heavy atom, donor atom, acceptor molecule, acceptor atom, score
      P1  H  7989  7998       L1     3  1.00

> <Gold.PLP.Chemscore.Internal.Correction>
0.0129

> <Gold.Rescore>
     Score         DG    S(hbond)    S(metal)    S(lipo)     H(rot)  DE(clash)    DE(int)     intcor
     12.85     -13.25       0.29        0.00      91.51       1.52       0.05       0.36       ----

> <Gold.Chemscore.Fitness>
12.8490

> <Gold.Chemscore.DG>
-13.2546

> <Gold.Chemscore.ZeroCoef>
-5.4800

> <Gold.Chemscore.Hbond>
0.2876

> <Gold.Chemscore.Metal>
0.0000

> <Gold.Chemscore.Lipo>
91.5140

> <Gold.Chemscore.Internal_Hbond>
0.0000

> <Gold.Chemscore.DEClash>
0.0504

> <Gold.Chemscore.DEInternal>
0.3553

> <Gold.Chemscore.Rot>
1.5208

> <Gold.Chemscore.Internal.Correction>
   9.000000E+99

> <Gold.Chemscore.Hbonds>
donor molecule, donor type, donor heavy atom, donor atom, acceptor molecule, acceptor atom, score
      P1  H  7989  7998       L1     3  0.27

> <Gold.Chemscore.Hbond.Weighted>
-0.9606

> <Gold.Chemscore.Metal.Weighted>
-0.0000

> <Gold.Chemscore.Lipo.Weighted>
-10.7071

> <Gold.Chemscore.Internal_Hbond.Weighted>
0.0000

> <Gold.Chemscore.DEClash.Weighted>
0.0504

> <Gold.Chemscore.DEInternal.Weighted>
0.3553

> <Gold.Chemscore.Rot.Weighted>
3.8932

> <Gold.Chemscore.Internal.Correction.Weighted>
   9.000000E+99

> <Gold.Protein.RotatedTorsions>
[ 6907 6896 6895 6894 ] final -140.75 input  -60.11 | X-H torsion
[ 7974 7965 7964 7962 ] final -176.11 input  175.53 | X-H torsion
[ 8008 7997 7996 7995 ] final  114.06 input   59.86 | X-H torsion
[ 10167 10162 10161 10158 ] final  157.58 input  -65.29 | X-H torsion
[ 10718 10713 10712 10709 ] final  146.69 input   66.30 | X-H torsion
[ 10763 10752 10751 10750 ] final  -30.08 input  -60.55 | X-H torsion
[ 11005 11000 10999 10996 ] final  -44.87 input  -57.11 | X-H torsion

> <Gold.Protein.ActiveResidues>
 VAL166  LYS551  ARG553  GLY616  TRP617  ASP618  TYR619  PRO620  LYS621  CYS622 
 ASP623  PHE694  ASN695  SER759  ASP760  ASP761  ALA762  ILE779  LEU786  VAL792 
 PHE793  MET794  SER795  GLU796  ALA797  LYS798  CYS799  TRP800  GLU811  SER814 

> <Gold.Protein.RotatedAtoms>
  151.0648  133.5514  159.2631 H   0  0  0  0  0  0  0  0  0  0  0  0  # atno 6907 bound_to 6896
  151.2476  135.0610  159.9059 H   0  0  0  0  0  0  0  0  0  0  0  0  # atno 6908 bound_to 6896
  152.5403  134.0414  159.8123 H   0  0  0  0  0  0  0  0  0  0  0  0  # atno 6909 bound_to 6896
  144.7127  140.1219  143.6404 H   0  0  0  0  0  0  0  0  0  0  0  0  # atno 7974 bound_to 7965
  156.2297  140.2967  156.0157 H   0  0  0  0  0  0  0  0  0  0  0  0  # atno 8008 bound_to 7997
  155.2259  140.0417  157.2972 H   0  0  0  0  0  0  0  0  0  0  0  0  # atno 8009 bound_to 7997
  154.5975  140.2418  155.7845 H   0  0  0  0  0  0  0  0  0  0  0  0  # atno 8010 bound_to 7997
  139.4823  144.4904  151.8316 H   0  0  0  0  0  0  0  0  0  0  0  0  # atno 10167 bound_to 10162
  157.3301  131.0919  151.1169 H   0  0  0  0  0  0  0  0  0  0  0  0  # atno 10718 bound_to 10713
  153.7752  135.6909  153.4899 H   0  0  0  0  0  0  0  0  0  0  0  0  # atno 10763 bound_to 10752
  153.1848  135.4493  155.0073 H   0  0  0  0  0  0  0  0  0  0  0  0  # atno 10764 bound_to 10752
  154.8103  135.3374  154.7259 H   0  0  0  0  0  0  0  0  0  0  0  0  # atno 10765 bound_to 10752
  141.0478  133.6754  156.2933 H   0  0  0  0  0  0  0  0  0  0  0  0  # atno 11005 bound_to 11000
  145.9363  139.2639  143.1295 LP  0  0  0  0  0  0  0  0  0  0  0  0  # atno 17320 bound_to 7965
  145.9470  140.8937  143.0278 LP  0  0  0  0  0  0  0  0  0  0  0  0  # atno 17321 bound_to 7965
  140.4388  144.2015  150.5890 LP  0  0  0  0  0  0  0  0  0  0  0  0  # atno 17342 bound_to 10162
  140.4704  143.2415  151.9096 LP  0  0  0  0  0  0  0  0  0  0  0  0  # atno 17343 bound_to 10162
  157.2421  130.6574  149.5894 LP  0  0  0  0  0  0  0  0  0  0  0  0  # atno 17370 bound_to 10713
  155.9695  130.4565  150.5927 LP  0  0  0  0  0  0  0  0  0  0  0  0  # atno 17371 bound_to 10713
  140.6112  134.5456  157.5534 LP  0  0  0  0  0  0  0  0  0  0  0  0  # atno 17394 bound_to 11000
  139.9326  134.7935  156.0889 LP  0  0  0  0  0  0  0  0  0  0  0  0  # atno 17395 bound_to 11000

$$$$
