AV-unprocessed.smi:842|AV-procd|sdf|3917|dock1
  -GOLD-   22720 1383D 1   1.00000     0.00000
 Structure written by MMmdl.
 42 43  0  0  0  0  0  0  0  0  1 V2000
  149.6332  131.1584  154.5528 C   0  0  0  0  0  0  0  0  0  0  0  0
  149.9862  132.6527  154.5141 C   0  0  0  0  0  0  0  0  0  0  0  0
  148.7704  133.5808  154.2859 C   0  0  2  0  0  0  0  0  0  0  0  0
  147.8885  133.1017  153.1119 C   0  0  0  0  0  0  0  0  0  0  0  0
  147.1472  134.1820  152.5848 O   0  0  0  0  0  0  0  0  0  0  0  0
  149.1665  134.9847  154.1281 N   0  0  0  0  0  0  0  0  0  0  0  0
  149.5761  135.8361  155.0822 C   0  0  0  0  0  0  0  0  0  0  0  0
  149.6650  135.5412  156.2736 O   0  0  0  0  0  0  0  0  0  0  0  0
  149.8502  137.0434  154.5602 N   0  0  0  0  0  0  0  0  0  0  0  0
  150.3160  138.2108  155.2225 C   0  0  0  0  0  0  0  0  0  0  0  0
  150.1740  139.5253  154.7200 C   0  0  0  0  0  0  0  0  0  0  0  0
  150.6639  140.6031  155.4823 C   0  0  0  0  0  0  0  0  0  0  0  0
  151.2748  140.3437  156.7322 C   0  0  0  0  0  0  0  0  0  0  0  0
  151.7862  141.3930  157.5210 N   0  0  0  0  0  0  0  0  0  0  0  0
  152.3441  141.1596  158.8439 C   0  0  0  0  0  0  0  0  0  0  0  0
  152.6601  142.5548  159.3799 C   0  0  0  0  0  0  0  0  0  0  0  0
  151.5721  143.4233  158.7480 C   0  0  0  0  0  0  0  0  0  0  0  0
  151.3047  142.7613  157.3912 C   0  0  0  0  0  0  0  0  0  0  0  0
  151.4019  139.0846  157.2141 N   0  0  0  0  0  0  0  0  0  0  0  0
  150.9293  138.0554  156.4811 C   0  0  0  0  0  0  0  0  0  0  0  0
  150.5333  130.5525  154.6591 H   0  0  0  0  0  0  0  0  0  0  0  0
  149.1311  130.8488  153.6359 H   0  0  0  0  0  0  0  0  0  0  0  0
  148.9785  130.9212  155.3915 H   0  0  0  0  0  0  0  0  0  0  0  0
  150.5065  132.9244  155.4330 H   0  0  0  0  0  0  0  0  0  0  0  0
  150.7066  132.8126  153.7111 H   0  0  0  0  0  0  0  0  0  0  0  0
  148.1699  133.5338  155.1958 H   0  0  0  0  0  0  0  0  0  0  0  0
  148.4662  132.6234  152.3212 H   0  0  0  0  0  0  0  0  0  0  0  0
  147.1688  132.3613  153.4626 H   0  0  0  0  0  0  0  0  0  0  0  0
  147.7385  134.7495  152.1144 H   0  0  0  0  0  0  0  0  0  0  0  0
  149.1314  135.3408  153.1842 H   0  0  0  0  0  0  0  0  0  0  0  0
  149.6498  137.1561  153.5773 H   0  0  0  0  0  0  0  0  0  0  0  0
  149.6918  139.7317  153.7774 H   0  0  0  0  0  0  0  0  0  0  0  0
  150.5679  141.6074  155.0975 H   0  0  0  0  0  0  0  0  0  0  0  0
  151.6003  140.6653  159.4706 H   0  0  0  0  0  0  0  0  0  0  0  0
  153.2352  140.5323  158.8027 H   0  0  0  0  0  0  0  0  0  0  0  0
  152.6658  142.5995  160.4692 H   0  0  0  0  0  0  0  0  0  0  0  0
  153.6401  142.8746  159.0227 H   0  0  0  0  0  0  0  0  0  0  0  0
  150.6708  143.3772  159.3610 H   0  0  0  0  0  0  0  0  0  0  0  0
  151.8622  144.4704  158.6583 H   0  0  0  0  0  0  0  0  0  0  0  0
  151.8667  143.2595  156.6006 H   0  0  0  0  0  0  0  0  0  0  0  0
  150.2447  142.8041  157.1389 H   0  0  0  0  0  0  0  0  0  0  0  0
  151.0518  137.0735  156.9143 H   0  0  0  0  0  0  0  0  0  0  0  0
  1  2  1  0  0  0  0
  1 21  1  0  0  0  0
  1 22  1  0  0  0  0
  1 23  1  0  0  0  0
  2  3  1  0  0  0  0
  2 24  1  0  0  0  0
  2 25  1  0  0  0  0
  3  4  1  0  0  0  0
  3  6  1  0  0  0  0
  3 26  1  0  0  0  0
  4  5  1  0  0  0  0
  4 27  1  0  0  0  0
  4 28  1  0  0  0  0
  5 29  1  0  0  0  0
  6  7  1  0  0  0  0
  6 30  1  0  0  0  0
  7  8  2  0  0  0  0
  7  9  1  0  0  0  0
  9 10  1  0  0  0  0
  9 31  1  0  0  0  0
 10 20  1  0  0  0  0
 10 11  2  0  0  0  0
 11 12  1  0  0  0  0
 11 32  1  0  0  0  0
 12 13  2  0  0  0  0
 12 33  1  0  0  0  0
 13 14  1  0  0  0  0
 13 19  1  0  0  0  0
 14 18  1  0  0  0  0
 14 15  1  0  0  0  0
 15 16  1  0  0  0  0
 15 34  1  0  0  0  0
 15 35  1  0  0  0  0
 16 17  1  0  0  0  0
 16 36  1  0  0  0  0
 16 37  1  0  0  0  0
 17 18  1  0  0  0  0
 17 38  1  0  0  0  0
 17 39  1  0  0  0  0
 18 40  1  0  0  0  0
 18 41  1  0  0  0  0
 19 20  2  0  0  0  0
 20 42  1  0  0  0  0
M  END
> <s_m_source_file>
AV-unprocessed.smi

> <i_m_source_file_index>
842

> <i_lp_mmshare_version>
43012

> <i_f3d_flags>
0

> <s_epik_input>
W0NIM11bQ0gyXVtDQEhdKFtDSDJdW09IXSlbTkhdQyg9TylbTkhdYzFbY0hdW2NIXWMobltjSF0xKU4yW0NIMl1bQ0gyXVtDSDJdW0NIMl0y

> <s_epik_cmdline>
J2VwaWtfcHl0aG9uJywgJy1waCcsICc3LjAnLCAnLXRuJywgJzgnLCAnLW1hJywgJzIwMCcsICctbWV0YWxfYmluZGluZycsICctaW1hZScsICc8aW5maWxlLm1hZT4nLCAnLW9tYWUnLCAnPG91dGZpbGUubWFlPic=

> <r_lp_tautomer_probability>
1

> <r_epik_Ionization_Penalty>
0.0996525

> <r_epik_Ionization_Penalty_Charging>
0

> <r_epik_Ionization_Penalty_Neutral>
0.0996525

> <r_epik_State_Penalty>
0.0891422

> <r_epik_Charging_Adjusted_Penalty>
0.0891422

> <i_epik_Tot_Q>
0

> <i_epik_Tot_abs_Q>
0

> <r_epik_Metal_State_Penalty>
0.07624

> <b_epik_Metal_Only>
0

> <s_lp_Force_Field>
OPLS_2005

> <r_lp_Energy>
30.3281

> <b_lp_Chiralities_Consistent>
1

> <s_lp_Variant>
AV-unprocessed.smi:842-1

> <Gold.Version>
5.8.1

> <Gold.Id.Protein>
6NUR|6NUR_protein|mol2

> <Gold.PLP.Fitness>
41.8010

> <Gold.PLP.PLP>
-34.3799

> <Gold.PLP.part.hbond>
-3.0000

> <Gold.PLP.part.metal>
0.0000

> <Gold.PLP.part.buried>
-2.8030

> <Gold.PLP.part.nonpolar>
-27.4474

> <Gold.PLP.part.repulsive>
0.0705

> <Gold.PLP.ligand.clash>
0.0000

> <Gold.PLP.ligand.torsion>
0.8121

> <Gold.PLP.Chemscore.Hbond>
2.9199

> <Gold.PLP.Chemscore.CHOScore>
0.0000

> <Gold.PLP.Chemscore.Metal>
0.0000

> <Gold.Chemscore.Hbonds>
donor molecule, donor type, donor heavy atom, donor atom, acceptor molecule, acceptor atom, score
      L1  H     5    29       P1  7948  1.00
      L1  H     6    30       P1  7948  1.00
      L1  H     9    31       P1  7948  0.92

> <Gold.PLP.Chemscore.Internal.Correction>
0.2857

> <Gold.Rescore>
     Score         DG    S(hbond)    S(metal)    S(lipo)     H(rot)  DE(clash)    DE(int)     intcor
     15.94     -18.18       2.39        0.00      83.82       1.99       0.03       2.20       ----

> <Gold.Chemscore.Fitness>
15.9444

> <Gold.Chemscore.DG>
-18.1761

> <Gold.Chemscore.ZeroCoef>
-5.4800

> <Gold.Chemscore.Hbond>
2.3921

> <Gold.Chemscore.Metal>
0.0000

> <Gold.Chemscore.Lipo>
83.8225

> <Gold.Chemscore.Internal_Hbond>
0.0000

> <Gold.Chemscore.DEClash>
0.0323

> <Gold.Chemscore.DEInternal>
2.1994

> <Gold.Chemscore.Rot>
1.9926

> <Gold.Chemscore.Internal.Correction>
   9.000000E+99

> <Gold.Chemscore.Hbonds>
donor molecule, donor type, donor heavy atom, donor atom, acceptor molecule, acceptor atom, score
      L1  H     5    29       P1  7948  0.65
      L1  H     6    30       P1  7948  0.25
      L1  H     9    31       P1  7948  0.65

> <Gold.Chemscore.Hbond.Weighted>
-7.9898

> <Gold.Chemscore.Metal.Weighted>
-0.0000

> <Gold.Chemscore.Lipo.Weighted>
-9.8072

> <Gold.Chemscore.Internal_Hbond.Weighted>
0.0000

> <Gold.Chemscore.DEClash.Weighted>
0.0323

> <Gold.Chemscore.DEInternal.Weighted>
2.1994

> <Gold.Chemscore.Rot.Weighted>
5.1009

> <Gold.Chemscore.Internal.Correction.Weighted>
   9.000000E+99

> <Gold.Protein.RotatedTorsions>
[ 6907 6896 6895 6894 ] final   89.43 input  -60.11 | X-H torsion
[ 7974 7965 7964 7962 ] final  -33.89 input  175.53 | X-H torsion
[ 8008 7997 7996 7995 ] final  127.38 input   59.86 | X-H torsion
[ 10167 10162 10161 10158 ] final   87.91 input  -65.29 | X-H torsion
[ 10718 10713 10712 10709 ] final   21.37 input   66.30 | X-H torsion
[ 10763 10752 10751 10750 ] final   68.88 input  -60.55 | X-H torsion
[ 11005 11000 10999 10996 ] final  -81.20 input  -57.11 | X-H torsion

> <Gold.Protein.ActiveResidues>
 VAL166  LYS551  ARG553  GLY616  TRP617  ASP618  TYR619  PRO620  LYS621  CYS622 
 ASP623  PHE694  ASN695  SER759  ASP760  ASP761  ALA762  ILE779  LEU786  VAL792 
 PHE793  MET794  SER795  GLU796  ALA797  LYS798  CYS799  TRP800  GLU811  SER814 

> <Gold.Protein.RotatedAtoms>
  152.5436  134.1967  159.8695 H   0  0  0  0  0  0  0  0  0  0  0  0  # atno 6907 bound_to 6896
  151.1958  133.4633  159.2603 H   0  0  0  0  0  0  0  0  0  0  0  0  # atno 6908 bound_to 6896
  151.1038  134.9999  159.8516 H   0  0  0  0  0  0  0  0  0  0  0  0  # atno 6909 bound_to 6896
  146.0874  140.5972  142.8880 H   0  0  0  0  0  0  0  0  0  0  0  0  # atno 7974 bound_to 7965
  156.2889  140.2670  156.2264 H   0  0  0  0  0  0  0  0  0  0  0  0  # atno 8008 bound_to 7997
  155.0116  140.0387  157.2420 H   0  0  0  0  0  0  0  0  0  0  0  0  # atno 8009 bound_to 7997
  154.7513  140.2743  155.6295 H   0  0  0  0  0  0  0  0  0  0  0  0  # atno 8010 bound_to 7997
  139.8725  144.6485  150.8933 H   0  0  0  0  0  0  0  0  0  0  0  0  # atno 10167 bound_to 10162
  157.1375  130.6618  149.5971 H   0  0  0  0  0  0  0  0  0  0  0  0  # atno 10718 bound_to 10713
  153.0258  135.5231  154.7203 H   0  0  0  0  0  0  0  0  0  0  0  0  # atno 10763 bound_to 10752
  154.6260  135.2894  155.0274 H   0  0  0  0  0  0  0  0  0  0  0  0  # atno 10764 bound_to 10752
  154.1243  135.6603  153.4961 H   0  0  0  0  0  0  0  0  0  0  0  0  # atno 10765 bound_to 10752
  141.1667  133.7185  156.8387 H   0  0  0  0  0  0  0  0  0  0  0  0  # atno 11005 bound_to 11000
  144.7335  140.4742  143.6920 LP  0  0  0  0  0  0  0  0  0  0  0  0  # atno 17320 bound_to 7965
  145.6104  139.1512  143.3079 LP  0  0  0  0  0  0  0  0  0  0  0  0  # atno 17321 bound_to 7965
  140.7758  143.3651  151.1753 LP  0  0  0  0  0  0  0  0  0  0  0  0  # atno 17342 bound_to 10162
  139.7270  143.9132  152.3006 LP  0  0  0  0  0  0  0  0  0  0  0  0  # atno 17343 bound_to 10162
  155.9795  130.4789  150.6719 LP  0  0  0  0  0  0  0  0  0  0  0  0  # atno 17370 bound_to 10713
  157.4337  131.0852  151.1013 LP  0  0  0  0  0  0  0  0  0  0  0  0  # atno 17371 bound_to 10713
  140.1999  134.8905  157.3157 LP  0  0  0  0  0  0  0  0  0  0  0  0  # atno 17394 bound_to 11000
  140.2199  134.4036  155.7571 LP  0  0  0  0  0  0  0  0  0  0  0  0  # atno 17395 bound_to 11000

$$$$
