AV-unprocessed.smi:1673|AV-procd|sdf|6711|dock4
  -GOLD-   22720 7453D 1   1.00000     0.00000
 Structure written by MMmdl.
 39 40  0  0  0  0  0  0  0  0  1 V2000
  147.8543  141.6399  154.3488 C   0  0  0  0  0  0  0  0  0  0  0  0
  149.0649  140.7611  154.5008 C   0  0  0  0  0  0  0  0  0  0  0  0
  150.1724  141.2760  155.0147 N   0  0  0  0  0  0  0  0  0  0  0  0
  151.1446  140.2646  154.9739 O   0  0  0  0  0  0  0  0  0  0  0  0
  150.5944  139.1475  154.4308 C   0  0  0  0  0  0  0  0  0  0  0  0
  151.4806  137.9570  154.2843 C   0  0  0  0  0  0  0  0  0  0  0  0
  149.2854  139.3982  154.1433 C   0  0  0  0  0  0  0  0  0  0  0  0
  148.4027  138.4701  153.5367 N   0  0  0  0  0  0  0  0  0  0  0  0
  147.0647  138.4515  153.6303 C   0  0  0  0  0  0  0  0  0  0  0  0
  146.3980  139.2181  154.3247 O   0  0  0  0  0  0  0  0  0  0  0  0
  146.5393  137.4740  152.8782 N   0  0  0  0  0  0  0  0  0  0  0  0
  145.1147  137.1675  152.7336 C   0  0  2  0  0  0  0  0  0  0  0  0
  144.4254  137.2336  154.1112 C   0  0  0  0  0  0  0  0  0  0  0  0
  144.8519  136.0771  155.0321 C   0  0  0  0  0  0  0  0  0  0  0  0
  144.6177  134.7156  154.3608 C   0  0  0  0  0  0  0  0  0  0  0  0
  145.3195  134.6350  152.9956 C   0  0  0  0  0  0  0  0  0  0  0  0
  144.8851  135.7867  152.0655 C   0  0  2  0  0  0  0  0  0  0  0  0
  145.5360  135.6680  150.6766 C   0  0  0  0  0  0  0  0  0  0  0  0
  147.2726  141.3640  153.4693 H   0  0  0  0  0  0  0  0  0  0  0  0
  148.1337  142.6879  154.2358 H   0  0  0  0  0  0  0  0  0  0  0  0
  147.2042  141.5640  155.2204 H   0  0  0  0  0  0  0  0  0  0  0  0
  150.9830  137.1633  153.7274 H   0  0  0  0  0  0  0  0  0  0  0  0
  151.7577  137.5611  155.2611 H   0  0  0  0  0  0  0  0  0  0  0  0
  152.3955  138.2193  153.7529 H   0  0  0  0  0  0  0  0  0  0  0  0
  148.8361  137.7058  153.0397 H   0  0  0  0  0  0  0  0  0  0  0  0
  147.1755  136.8967  152.3484 H   0  0  0  0  0  0  0  0  0  0  0  0
  144.6483  137.9290  152.1059 H   0  0  0  0  0  0  0  0  0  0  0  0
  144.6329  138.1904  154.5920 H   0  0  0  0  0  0  0  0  0  0  0  0
  143.3443  137.1949  153.9715 H   0  0  0  0  0  0  0  0  0  0  0  0
  145.9059  136.1801  155.2930 H   0  0  0  0  0  0  0  0  0  0  0  0
  144.2982  136.1276  155.9701 H   0  0  0  0  0  0  0  0  0  0  0  0
  144.9740  133.9155  155.0101 H   0  0  0  0  0  0  0  0  0  0  0  0
  143.5471  134.5525  154.2300 H   0  0  0  0  0  0  0  0  0  0  0  0
  146.4007  134.6587  153.1383 H   0  0  0  0  0  0  0  0  0  0  0  0
  145.0942  133.6755  152.5292 H   0  0  0  0  0  0  0  0  0  0  0  0
  143.8095  135.6853  151.9117 H   0  0  0  0  0  0  0  0  0  0  0  0
  146.6244  135.6846  150.7360 H   0  0  0  0  0  0  0  0  0  0  0  0
  145.2247  136.4861  150.0264 H   0  0  0  0  0  0  0  0  0  0  0  0
  145.2496  134.7351  150.1906 H   0  0  0  0  0  0  0  0  0  0  0  0
  1  2  1  0  0  0  0
  1 19  1  0  0  0  0
  1 20  1  0  0  0  0
  1 21  1  0  0  0  0
  2  7  1  0  0  0  0
  2  3  2  0  0  0  0
  3  4  1  0  0  0  0
  4  5  1  0  0  0  0
  5  6  1  0  0  0  0
  5  7  2  0  0  0  0
  6 22  1  0  0  0  0
  6 23  1  0  0  0  0
  6 24  1  0  0  0  0
  7  8  1  0  0  0  0
  8  9  1  0  0  0  0
  8 25  1  0  0  0  0
  9 10  2  0  0  0  0
  9 11  1  0  0  0  0
 11 12  1  0  0  0  0
 11 26  1  0  0  0  0
 12 17  1  0  0  0  0
 12 13  1  0  0  0  0
 12 27  1  0  0  0  0
 13 14  1  0  0  0  0
 13 28  1  0  0  0  0
 13 29  1  0  0  0  0
 14 15  1  0  0  0  0
 14 30  1  0  0  0  0
 14 31  1  0  0  0  0
 15 16  1  0  0  0  0
 15 32  1  0  0  0  0
 15 33  1  0  0  0  0
 16 17  1  0  0  0  0
 16 34  1  0  0  0  0
 16 35  1  0  0  0  0
 17 18  1  0  0  0  0
 17 36  1  0  0  0  0
 18 37  1  0  0  0  0
 18 38  1  0  0  0  0
 18 39  1  0  0  0  0
M  END
> <s_m_source_file>
AV-unprocessed.smi

> <i_m_source_file_index>
1673

> <i_lp_mmshare_version>
43012

> <i_f3d_flags>
0

> <s_epik_input>
W0NIM11jMW5vYyhbQ0gzXSljMVtOSF1DKD1PKVtOSF1bQ0BASF0yW0NIMl1bQ0gyXVtDSDJdW0NIMl1bQ0BIXTJbQ0gzXQ==

> <s_epik_cmdline>
J2VwaWtfcHl0aG9uJywgJy1waCcsICc3LjAnLCAnLXRuJywgJzgnLCAnLW1hJywgJzIwMCcsICctbWV0YWxfYmluZGluZycsICctaW1hZScsICc8aW5maWxlLm1hZT4nLCAnLW9tYWUnLCAnPG91dGZpbGUubWFlPic=

> <r_lp_tautomer_probability>
1

> <r_epik_Ionization_Penalty>
4.01865e-05

> <r_epik_Ionization_Penalty_Charging>
0

> <r_epik_Ionization_Penalty_Neutral>
4.01865e-05

> <r_epik_State_Penalty>
-0

> <r_epik_Charging_Adjusted_Penalty>
0

> <i_epik_Tot_Q>
0

> <i_epik_Tot_abs_Q>
0

> <r_epik_Metal_State_Penalty>
-0

> <b_epik_Metal_Only>
0

> <s_lp_Force_Field>
OPLS_2005

> <r_lp_Energy>
11.4641

> <b_lp_Chiralities_Consistent>
1

> <s_lp_Variant>
AV-unprocessed.smi:1673-3

> <Gold.Version>
5.8.1

> <Gold.Id.Protein>
6NUR|6NUR_protein|mol2

> <Gold.PLP.Fitness>
35.1076

> <Gold.PLP.PLP>
-28.8143

> <Gold.PLP.part.hbond>
-4.9177

> <Gold.PLP.part.metal>
0.0000

> <Gold.PLP.part.buried>
-2.0127

> <Gold.PLP.part.nonpolar>
-22.2803

> <Gold.PLP.part.repulsive>
0.3608

> <Gold.PLP.ligand.clash>
0.0000

> <Gold.PLP.ligand.torsion>
0.3420

> <Gold.PLP.Chemscore.Hbond>
2.2450

> <Gold.PLP.Chemscore.CHOScore>
0.0000

> <Gold.PLP.Chemscore.Metal>
0.0000

> <Gold.Chemscore.Hbonds>
donor molecule, donor type, donor heavy atom, donor atom, acceptor molecule, acceptor atom, score
      L1  H     8    25       P1  7948  1.00
      L1  H    11    26       P1  7948  1.00
      P1  H  7989  7998       L1     4  0.28

> <Gold.PLP.Chemscore.Internal.Correction>
0.2424

> <Gold.Rescore>
     Score         DG    S(hbond)    S(metal)    S(lipo)     H(rot)  DE(clash)    DE(int)     intcor
     13.99     -16.83       1.95        0.00      63.34       1.00       0.34       2.50       ----

> <Gold.Chemscore.Fitness>
13.9946

> <Gold.Chemscore.DG>
-16.8299

> <Gold.Chemscore.ZeroCoef>
-5.4800

> <Gold.Chemscore.Hbond>
1.9458

> <Gold.Chemscore.Metal>
0.0000

> <Gold.Chemscore.Lipo>
63.3407

> <Gold.Chemscore.Internal_Hbond>
0.0000

> <Gold.Chemscore.DEClash>
0.3362

> <Gold.Chemscore.DEInternal>
2.4991

> <Gold.Chemscore.Rot>
1.0000

> <Gold.Chemscore.Internal.Correction>
   9.000000E+99

> <Gold.Chemscore.Hbonds>
donor molecule, donor type, donor heavy atom, donor atom, acceptor molecule, acceptor atom, score
      L1  H     8    25       P1  7948  0.99
      L1  H    11    26       P1  7948  0.97

> <Gold.Chemscore.Hbond.Weighted>
-6.4990

> <Gold.Chemscore.Metal.Weighted>
-0.0000

> <Gold.Chemscore.Lipo.Weighted>
-7.4109

> <Gold.Chemscore.Internal_Hbond.Weighted>
0.0000

> <Gold.Chemscore.DEClash.Weighted>
0.3362

> <Gold.Chemscore.DEInternal.Weighted>
2.4991

> <Gold.Chemscore.Rot.Weighted>
2.5600

> <Gold.Chemscore.Internal.Correction.Weighted>
   9.000000E+99

> <Gold.Protein.RotatedTorsions>
[ 6907 6896 6895 6894 ] final   57.87 input  -60.11 | X-H torsion
[ 7974 7965 7964 7962 ] final -173.81 input  175.53 | X-H torsion
[ 8008 7997 7996 7995 ] final   99.73 input   59.86 | X-H torsion
[ 10167 10162 10161 10158 ] final  103.61 input  -65.29 | X-H torsion
[ 10718 10713 10712 10709 ] final -125.88 input   66.30 | X-H torsion
[ 10763 10752 10751 10750 ] final    2.31 input  -60.55 | X-H torsion
[ 11005 11000 10999 10996 ] final  101.07 input  -57.11 | X-H torsion

> <Gold.Protein.ActiveResidues>
 VAL166  LYS551  ARG553  GLY616  TRP617  ASP618  TYR619  PRO620  LYS621  CYS622 
 ASP623  PHE694  ASN695  SER759  ASP760  ASP761  ALA762  ILE779  LEU786  VAL792 
 PHE793  MET794  SER795  GLU796  ALA797  LYS798  CYS799  TRP800  GLU811  SER814 

> <Gold.Protein.RotatedAtoms>
  152.3772  134.6646  160.0155 H   0  0  0  0  0  0  0  0  0  0  0  0  # atno 6907 bound_to 6896
  151.6921  133.3305  159.3253 H   0  0  0  0  0  0  0  0  0  0  0  0  # atno 6908 bound_to 6896
  150.7718  134.6625  159.6392 H   0  0  0  0  0  0  0  0  0  0  0  0  # atno 6909 bound_to 6896
  144.7135  140.1565  143.6380 H   0  0  0  0  0  0  0  0  0  0  0  0  # atno 7974 bound_to 7965
  156.1134  140.3224  155.8105 H   0  0  0  0  0  0  0  0  0  0  0  0  # atno 8008 bound_to 7997
  155.4633  140.0541  157.3005 H   0  0  0  0  0  0  0  0  0  0  0  0  # atno 8009 bound_to 7997
  154.4776  140.2039  155.9855 H   0  0  0  0  0  0  0  0  0  0  0  0  # atno 8010 bound_to 7997
  139.7248  144.7050  151.0815 H   0  0  0  0  0  0  0  0  0  0  0  0  # atno 10167 bound_to 10162
  156.1715  130.6671  151.0186 H   0  0  0  0  0  0  0  0  0  0  0  0  # atno 10718 bound_to 10713
  153.2972  135.6953  153.7237 H   0  0  0  0  0  0  0  0  0  0  0  0  # atno 10763 bound_to 10752
  153.6166  135.3435  155.2997 H   0  0  0  0  0  0  0  0  0  0  0  0  # atno 10764 bound_to 10752
  154.8540  135.4376  154.2072 H   0  0  0  0  0  0  0  0  0  0  0  0  # atno 10765 bound_to 10752
  139.8772  134.9167  156.4851 H   0  0  0  0  0  0  0  0  0  0  0  0  # atno 11005 bound_to 11000
  145.9069  139.2463  143.1460 LP  0  0  0  0  0  0  0  0  0  0  0  0  # atno 17320 bound_to 7965
  145.9755  140.8725  143.0141 LP  0  0  0  0  0  0  0  0  0  0  0  0  # atno 17321 bound_to 7965
  140.7760  143.5119  150.9641 LP  0  0  0  0  0  0  0  0  0  0  0  0  # atno 17342 bound_to 10162
  139.8807  143.7076  152.3157 LP  0  0  0  0  0  0  0  0  0  0  0  0  # atno 17343 bound_to 10162
  157.6806  131.0839  150.7379 LP  0  0  0  0  0  0  0  0  0  0  0  0  # atno 17370 bound_to 10713
  156.7438  130.4747  149.5471 LP  0  0  0  0  0  0  0  0  0  0  0  0  # atno 17371 bound_to 10713
  140.8699  133.7996  155.9353 LP  0  0  0  0  0  0  0  0  0  0  0  0  # atno 17394 bound_to 11000
  140.8963  134.2433  157.5067 LP  0  0  0  0  0  0  0  0  0  0  0  0  # atno 17395 bound_to 11000

$$$$
