AV-unprocessed.smi:3111|AV-procd|sdf|11832|dock9
  -GOLD-   2272017203D 1   1.00000     0.00000
 Structure written by MMmdl.
 29 29  0  0  0  0  0  0  0  0  1 V2000
  149.8560  137.6448  155.1562 C   0  0  0  0  0  0  0  0  0  0  0  0
  149.3177  136.4089  154.6090 N   0  0  0  0  0  0  0  0  0  0  0  0
  148.8356  135.4019  155.3510 C   0  0  0  0  0  0  0  0  0  0  0  0
  148.7870  135.4356  156.5817 O   0  0  0  0  0  0  0  0  0  0  0  0
  148.3100  134.1854  154.5788 C   0  0  0  0  0  0  0  0  0  0  0  0
  147.5947  134.5523  153.3589 N   0  0  0  0  0  0  0  0  0  0  0  0
  146.3113  134.2563  153.0961 C   0  0  0  0  0  0  0  0  0  0  0  0
  145.5970  133.6184  153.8707 O   0  0  0  0  0  0  0  0  0  0  0  0
  145.7588  134.7566  151.7521 C   0  0  2  0  0  0  0  0  0  0  0  0
  144.6577  135.8205  151.9198 C   0  0  0  0  0  0  0  0  0  0  0  0
  145.2925  133.6391  150.9431 N   0  0  0  0  0  0  0  0  0  0  0  0
  143.9962  133.4229  150.4914 C   0  0  0  0  0  0  0  0  0  0  0  0
  144.0187  132.2522  149.7677 C   0  0  0  0  0  0  0  0  0  0  0  0
  145.3100  131.7316  149.7580 N   0  0  0  0  0  0  0  0  0  0  0  0
  146.0078  132.6043  150.4732 C   0  0  0  0  0  0  0  0  0  0  0  0
  150.2067  138.2872  154.3484 H   0  0  0  0  0  0  0  0  0  0  0  0
  150.6976  137.4418  155.8199 H   0  0  0  0  0  0  0  0  0  0  0  0
  149.0927  138.1867  155.7163 H   0  0  0  0  0  0  0  0  0  0  0  0
  149.3180  136.3090  153.6042 H   0  0  0  0  0  0  0  0  0  0  0  0
  149.1578  133.5579  154.3032 H   0  0  0  0  0  0  0  0  0  0  0  0
  147.6678  133.5794  155.2209 H   0  0  0  0  0  0  0  0  0  0  0  0
  148.1104  135.0809  152.6706 H   0  0  0  0  0  0  0  0  0  0  0  0
  146.5860  135.2266  151.2172 H   0  0  0  0  0  0  0  0  0  0  0  0
  145.0106  136.6640  152.5144 H   0  0  0  0  0  0  0  0  0  0  0  0
  143.7717  135.4153  152.4100 H   0  0  0  0  0  0  0  0  0  0  0  0
  144.3468  136.2122  150.9509 H   0  0  0  0  0  0  0  0  0  0  0  0
  143.1859  134.1006  150.7166 H   0  0  0  0  0  0  0  0  0  0  0  0
  143.2113  131.7486  149.2568 H   0  0  0  0  0  0  0  0  0  0  0  0
  147.0659  132.4893  150.6585 H   0  0  0  0  0  0  0  0  0  0  0  0
  1  2  1  0  0  0  0
  1 16  1  0  0  0  0
  1 17  1  0  0  0  0
  1 18  1  0  0  0  0
  2  3  1  0  0  0  0
  2 19  1  0  0  0  0
  3  4  2  0  0  0  0
  3  5  1  0  0  0  0
  5  6  1  0  0  0  0
  5 20  1  0  0  0  0
  5 21  1  0  0  0  0
  6  7  1  0  0  0  0
  6 22  1  0  0  0  0
  7  8  2  0  0  0  0
  7  9  1  0  0  0  0
  9 10  1  0  0  0  0
  9 11  1  0  0  0  0
  9 23  1  0  0  0  0
 10 24  1  0  0  0  0
 10 25  1  0  0  0  0
 10 26  1  0  0  0  0
 11 15  1  0  0  0  0
 11 12  1  0  0  0  0
 12 13  2  0  0  0  0
 12 27  1  0  0  0  0
 13 14  1  0  0  0  0
 13 28  1  0  0  0  0
 14 15  2  0  0  0  0
 15 29  1  0  0  0  0
M  END
> <s_m_source_file>
AV-unprocessed.smi

> <i_m_source_file_index>
3111

> <i_lp_mmshare_version>
43012

> <i_f3d_flags>
0

> <s_epik_input>
W0NIM11bTkhdQyg9TylbQ0gyXVtOSF1DKD1PKVtDQEhdKFtDSDNdKW4xW2NIXVtjSF1uW2NIXTE=

> <s_epik_cmdline>
J2VwaWtfcHl0aG9uJywgJy1waCcsICc3LjAnLCAnLXRuJywgJzgnLCAnLW1hJywgJzIwMCcsICctbWV0YWxfYmluZGluZycsICctaW1hZScsICc8aW5maWxlLm1hZT4nLCAnLW9tYWUnLCAnPG91dGZpbGUubWFlPic=

> <r_lp_tautomer_probability>
1

> <r_epik_Ionization_Penalty>
0.278299

> <r_epik_Ionization_Penalty_Charging>
0.278299

> <r_epik_Ionization_Penalty_Neutral>
1.78617e-07

> <r_epik_State_Penalty>
0.270759

> <r_epik_Charging_Adjusted_Penalty>
0.549058

> <i_epik_Tot_Q>
0

> <i_epik_Tot_abs_Q>
0

> <r_epik_Metal_State_Penalty>
0.183212

> <b_epik_Metal_Only>
0

> <s_lp_Force_Field>
OPLS_2005

> <r_lp_Energy>
5.209

> <b_lp_Chiralities_Consistent>
1

> <s_lp_Variant>
AV-unprocessed.smi:3111-1

> <Gold.Version>
5.8.1

> <Gold.Id.Protein>
6NUR|6NUR_protein|mol2

> <Gold.PLP.Fitness>
36.1272

> <Gold.PLP.PLP>
-22.0750

> <Gold.PLP.part.hbond>
-2.7597

> <Gold.PLP.part.metal>
0.0000

> <Gold.PLP.part.buried>
-3.0374

> <Gold.PLP.part.nonpolar>
-18.1566

> <Gold.PLP.part.repulsive>
0.2739

> <Gold.PLP.ligand.clash>
0.0000

> <Gold.PLP.ligand.torsion>
0.3877

> <Gold.PLP.Chemscore.Hbond>
2.0000

> <Gold.PLP.Chemscore.CHOScore>
2.9198

> <Gold.PLP.Chemscore.Metal>
0.0000

> <Gold.Chemscore.Hbonds>
donor molecule, donor type, donor heavy atom, donor atom, acceptor molecule, acceptor atom, score
      L1  H     2    19       P1  7948  1.00
      L1  H     6    22       P1  7948  1.00
      L1  C    12    27       P1 10186  1.00
      L1  C    13    28       P1 10952  0.36
      L1  C    15    29       P1 10747  0.99

> <Gold.PLP.Chemscore.Internal.Correction>
0.0682

> <Gold.Rescore>
     Score         DG    S(hbond)    S(metal)    S(lipo)     H(rot)  DE(clash)    DE(int)     intcor
      9.81     -10.24       1.85        0.00      37.58       2.27       0.07       0.36       ----

> <Gold.Chemscore.Fitness>
9.8141

> <Gold.Chemscore.DG>
-10.2431

> <Gold.Chemscore.ZeroCoef>
-5.4800

> <Gold.Chemscore.Hbond>
1.8501

> <Gold.Chemscore.Metal>
0.0000

> <Gold.Chemscore.Lipo>
37.5840

> <Gold.Chemscore.Internal_Hbond>
0.0000

> <Gold.Chemscore.DEClash>
0.0659

> <Gold.Chemscore.DEInternal>
0.3631

> <Gold.Chemscore.Rot>
2.2709

> <Gold.Chemscore.Internal.Correction>
   9.000000E+99

> <Gold.Chemscore.Hbonds>
donor molecule, donor type, donor heavy atom, donor atom, acceptor molecule, acceptor atom, score
      L1  H     2    19       P1  7948  0.85
      L1  H     6    22       P1  7948  0.90

> <Gold.Chemscore.Hbond.Weighted>
-6.1792

> <Gold.Chemscore.Metal.Weighted>
-0.0000

> <Gold.Chemscore.Lipo.Weighted>
-4.3973

> <Gold.Chemscore.Internal_Hbond.Weighted>
0.0000

> <Gold.Chemscore.DEClash.Weighted>
0.0659

> <Gold.Chemscore.DEInternal.Weighted>
0.3631

> <Gold.Chemscore.Rot.Weighted>
5.8135

> <Gold.Chemscore.Internal.Correction.Weighted>
   9.000000E+99

> <Gold.Protein.RotatedTorsions>
[ 6907 6896 6895 6894 ] final -121.29 input  -60.11 | X-H torsion
[ 7974 7965 7964 7962 ] final   88.34 input  175.53 | X-H torsion
[ 8008 7997 7996 7995 ] final    5.48 input   59.86 | X-H torsion
[ 10167 10162 10161 10158 ] final  -37.68 input  -65.29 | X-H torsion
[ 10718 10713 10712 10709 ] final   42.53 input   66.30 | X-H torsion
[ 10763 10752 10751 10750 ] final  112.66 input  -60.55 | X-H torsion
[ 11005 11000 10999 10996 ] final   86.15 input  -57.11 | X-H torsion

> <Gold.Protein.ActiveResidues>
 VAL166  LYS551  ARG553  GLY616  TRP617  ASP618  TYR619  PRO620  LYS621  CYS622 
 ASP623  PHE694  ASN695  SER759  ASP760  ASP761  ALA762  ILE779  LEU786  VAL792 
 PHE793  MET794  SER795  GLU796  ALA797  LYS798  CYS799  TRP800  GLU811  SER814 

> <Gold.Protein.RotatedAtoms>
  150.8470  133.7846  159.3039 H   0  0  0  0  0  0  0  0  0  0  0  0  # atno 6907 bound_to 6896
  151.5529  135.1065  159.9963 H   0  0  0  0  0  0  0  0  0  0  0  0  # atno 6908 bound_to 6896
  152.4522  133.7608  159.6802 H   0  0  0  0  0  0  0  0  0  0  0  0  # atno 6909 bound_to 6896
  145.5470  139.2292  143.2534 H   0  0  0  0  0  0  0  0  0  0  0  0  # atno 7974 bound_to 7965
  154.7289  140.2726  155.6474 H   0  0  0  0  0  0  0  0  0  0  0  0  # atno 8008 bound_to 7997
  156.2844  140.2719  156.1908 H   0  0  0  0  0  0  0  0  0  0  0  0  # atno 8009 bound_to 7997
  155.0408  140.0371  157.2498 H   0  0  0  0  0  0  0  0  0  0  0  0  # atno 8010 bound_to 7997
  140.7112  143.3326  151.2534 H   0  0  0  0  0  0  0  0  0  0  0  0  # atno 10167 bound_to 10162
  157.4059  130.7886  149.7388 H   0  0  0  0  0  0  0  0  0  0  0  0  # atno 10718 bound_to 10713
  153.4810  135.3679  155.2442 H   0  0  0  0  0  0  0  0  0  0  0  0  # atno 10763 bound_to 10752
  154.8755  135.3954  154.3700 H   0  0  0  0  0  0  0  0  0  0  0  0  # atno 10764 bound_to 10752
  153.4303  135.7082  153.6300 H   0  0  0  0  0  0  0  0  0  0  0  0  # atno 10765 bound_to 10752
  139.8952  134.8336  156.2681 H   0  0  0  0  0  0  0  0  0  0  0  0  # atno 11005 bound_to 11000
  146.1942  140.6292  142.9131 LP  0  0  0  0  0  0  0  0  0  0  0  0  # atno 17320 bound_to 7965
  144.7548  140.5281  143.6776 LP  0  0  0  0  0  0  0  0  0  0  0  0  # atno 17321 bound_to 7965
  139.6812  143.9850  152.2809 LP  0  0  0  0  0  0  0  0  0  0  0  0  # atno 17342 bound_to 10162
  139.9481  144.6638  150.8199 LP  0  0  0  0  0  0  0  0  0  0  0  0  # atno 17343 bound_to 10162
  155.9836  130.3999  150.3353 LP  0  0  0  0  0  0  0  0  0  0  0  0  # atno 17370 bound_to 10713
  157.1486  131.0315  151.2895 LP  0  0  0  0  0  0  0  0  0  0  0  0  # atno 17371 bound_to 10713
  141.0119  133.7091  156.1125 LP  0  0  0  0  0  0  0  0  0  0  0  0  # atno 17394 bound_to 11000
  140.7356  134.4207  157.5561 LP  0  0  0  0  0  0  0  0  0  0  0  0  # atno 17395 bound_to 11000

$$$$
