AV-unprocessed.smi:193|AV-procd|sdf|1511|dock5
  -GOLD-   2262019343D 1   1.00000     0.00000
 Structure written by MMmdl.
 62 66  0  0  0  0  0  0  0  0  2 V2000
  144.5195  132.6908  149.7864 C   0  0  0  0  0  0  0  0  0  0  0  0
  145.5900  132.3211  150.8262 C   0  0  1  0  0  0  0  0  0  0  0  0
  145.4071  133.1947  152.0841 C   0  0  0  0  0  0  0  0  0  0  0  0
  146.6153  133.3341  152.9000 N   0  0  0  0  0  0  0  0  0  0  0  0
  146.7119  134.4119  153.7223 C   0  0  0  0  0  0  0  0  0  0  0  0
  147.3267  134.2662  154.9263 N   0  0  0  0  0  0  0  0  0  0  0  0
  147.4463  135.3061  155.7565 C   0  0  0  0  0  0  0  0  0  0  0  0
  147.0266  136.5606  155.5866 N   0  0  0  0  0  0  0  0  0  0  0  0
  146.4000  136.7142  154.3854 C   0  0  0  0  0  0  0  0  0  0  0  0
  146.1992  135.7032  153.4028 C   0  0  0  0  0  0  0  0  0  0  0  0
  145.5064  136.2328  152.3194 N   0  0  0  0  0  0  0  0  0  0  0  0
  145.3219  137.4852  152.6374 C   0  0  0  0  0  0  0  0  0  0  0  0
  145.8331  137.8612  153.8584 N   0  0  0  0  0  0  0  0  0  0  0  0
  145.7707  139.1853  154.4581 C   0  0  0  0  0  0  0  0  0  0  0  0
  147.1536  139.7632  154.8488 C   0  0  0  0  0  0  0  0  0  0  0  0
  147.3533  139.5063  156.2282 O   0  0  0  0  0  0  0  0  0  0  0  0
  148.2728  139.0584  154.0562 C   0  0  0  0  0  0  0  0  0  0  0  0
  149.6472  139.7126  154.2841 C   0  0  0  0  0  0  0  0  0  0  0  0
  149.5850  141.0984  153.9702 O   0  0  0  0  0  0  0  0  0  0  0  0
  148.6847  141.8124  154.8082 C   0  0  0  0  0  0  0  0  0  0  0  0
  147.2510  141.2869  154.6159 C   0  0  0  0  0  0  0  0  0  0  0  0
  147.5818  132.2495  153.0689 C   0  0  0  0  0  0  0  0  0  0  0  0
  146.9347  130.8614  153.1701 C   0  0  0  0  0  0  0  0  0  0  0  0
  146.6990  130.2733  151.8299 N   0  3  1  0  0  0  0  0  0  0  0  0
  146.6696  128.7938  151.8802 C   0  0  1  0  0  0  0  0  0  0  0  0
  147.4163  128.1350  150.7430 C   0  0  0  0  0  0  0  0  0  0  0  0
  148.0225  128.1631  152.1294 C   0  0  2  0  0  0  0  0  0  0  0  0
  148.1441  126.8865  152.9322 C   0  0  0  0  0  0  0  0  0  0  0  0
  145.4966  130.8142  151.1500 C   0  0  0  0  0  0  0  0  0  0  0  0
  143.5145  132.5074  150.1678 H   0  0  0  0  0  0  0  0  0  0  0  0
  144.6394  132.1114  148.8703 H   0  0  0  0  0  0  0  0  0  0  0  0
  144.5835  133.7444  149.5122 H   0  0  0  0  0  0  0  0  0  0  0  0
  146.5578  132.5366  150.3705 H   0  0  0  0  0  0  0  0  0  0  0  0
  145.1110  134.1954  151.7646 H   0  0  0  0  0  0  0  0  0  0  0  0
  144.5896  132.8159  152.6988 H   0  0  0  0  0  0  0  0  0  0  0  0
  147.9510  135.1043  156.6898 H   0  0  0  0  0  0  0  0  0  0  0  0
  144.8070  138.1757  151.9850 H   0  0  0  0  0  0  0  0  0  0  0  0
  145.2647  139.8523  153.7586 H   0  0  0  0  0  0  0  0  0  0  0  0
  145.1280  139.1276  155.3374 H   0  0  0  0  0  0  0  0  0  0  0  0
  147.8883  138.7321  156.3141 H   0  0  0  0  0  0  0  0  0  0  0  0
  148.3150  137.9990  154.3126 H   0  0  0  0  0  0  0  0  0  0  0  0
  148.0433  139.1050  152.9908 H   0  0  0  0  0  0  0  0  0  0  0  0
  149.9845  139.5749  155.3125 H   0  0  0  0  0  0  0  0  0  0  0  0
  150.3927  139.2424  153.6428 H   0  0  0  0  0  0  0  0  0  0  0  0
  148.9974  141.7302  155.8501 H   0  0  0  0  0  0  0  0  0  0  0  0
  148.7305  142.8703  154.5494 H   0  0  0  0  0  0  0  0  0  0  0  0
  146.9333  141.5153  153.5976 H   0  0  0  0  0  0  0  0  0  0  0  0
  146.5722  141.8269  155.2770 H   0  0  0  0  0  0  0  0  0  0  0  0
  148.3179  132.2808  152.2649 H   0  0  0  0  0  0  0  0  0  0  0  0
  148.1363  132.4061  153.9946 H   0  0  0  0  0  0  0  0  0  0  0  0
  147.6385  130.2194  153.7020 H   0  0  0  0  0  0  0  0  0  0  0  0
  146.0243  130.8731  153.7716 H   0  0  0  0  0  0  0  0  0  0  0  0
  145.7623  128.3420  152.2780 H   0  0  0  0  0  0  0  0  0  0  0  0
  147.0342  127.1831  150.3793 H   0  0  0  0  0  0  0  0  0  0  0  0
  147.8711  128.7708  149.9855 H   0  0  0  0  0  0  0  0  0  0  0  0
  148.8619  128.8432  152.2667 H   0  0  0  0  0  0  0  0  0  0  0  0
  147.2835  126.2386  152.7627 H   0  0  0  0  0  0  0  0  0  0  0  0
  148.2009  127.1176  153.9959 H   0  0  0  0  0  0  0  0  0  0  0  0
  149.0472  126.3481  152.6441 H   0  0  0  0  0  0  0  0  0  0  0  0
  144.6053  130.6006  151.7425 H   0  0  0  0  0  0  0  0  0  0  0  0
  145.3751  130.2669  150.2142 H   0  0  0  0  0  0  0  0  0  0  0  0
  147.4966  130.5170  151.2605 H   0  0  0  0  0  0  0  0  0  0  0  0
  1  2  1  0  0  0  0
  1 30  1  0  0  0  0
  1 31  1  0  0  0  0
  1 32  1  0  0  0  0
  2 29  1  0  0  0  0
  2  3  1  0  0  0  0
  2 33  1  0  0  0  0
  3  4  1  0  0  0  0
  3 34  1  0  0  0  0
  3 35  1  0  0  0  0
  4  5  1  0  0  0  0
  4 22  1  0  0  0  0
  5 10  1  0  0  0  0
  5  6  2  0  0  0  0
  6  7  1  0  0  0  0
  7  8  2  0  0  0  0
  7 36  1  0  0  0  0
  8  9  1  0  0  0  0
  9 13  1  0  0  0  0
  9 10  2  0  0  0  0
 10 11  1  0  0  0  0
 11 12  2  0  0  0  0
 12 13  1  0  0  0  0
 12 37  1  0  0  0  0
 13 14  1  0  0  0  0
 14 15  1  0  0  0  0
 14 38  1  0  0  0  0
 14 39  1  0  0  0  0
 15 21  1  0  0  0  0
 15 16  1  0  0  0  0
 15 17  1  0  0  0  0
 16 40  1  0  0  0  0
 17 18  1  0  0  0  0
 17 41  1  0  0  0  0
 17 42  1  0  0  0  0
 18 19  1  0  0  0  0
 18 43  1  0  0  0  0
 18 44  1  0  0  0  0
 19 20  1  0  0  0  0
 20 21  1  0  0  0  0
 20 45  1  0  0  0  0
 20 46  1  0  0  0  0
 21 47  1  0  0  0  0
 21 48  1  0  0  0  0
 22 23  1  0  0  0  0
 22 49  1  0  0  0  0
 22 50  1  0  0  0  0
 23 24  1  0  0  0  0
 23 51  1  0  0  0  0
 23 52  1  0  0  0  0
 24 25  1  0  0  0  0
 24 29  1  0  0  0  0
 24 62  1  0  0  0  0
 25 27  1  0  0  0  0
 25 26  1  0  0  0  0
 25 53  1  0  0  0  0
 26 27  1  0  0  0  0
 26 54  1  0  0  0  0
 26 55  1  0  0  0  0
 27 28  1  0  0  0  0
 27 56  1  0  0  0  0
 28 57  1  0  0  0  0
 28 58  1  0  0  0  0
 28 59  1  0  0  0  0
 29 60  1  0  0  0  0
 29 61  1  0  0  0  0
M  CHG  1  24   1
M  END
> <s_m_source_file>
AV-unprocessed.smi

> <i_m_source_file_index>
193

> <i_lp_mmshare_version>
43012

> <i_f3d_flags>
0

> <s_epik_input>
W0NIM11bQ0BASF0xW0NIMl1bQ0BIXTFOKFtDSDJdMilbQ0gyXVtDSDJdTihbQ0gyXVtDQEhdMltDSDNdKWMobltjSF1uMyljKGMzNCluW2NIXW40W0NIMl1DNShbT0hdKVtDSDJdW0NIMl1PW0NIMl1bQ0gyXTU=

> <s_epik_cmdline>
J2VwaWtfcHl0aG9uJywgJy1waCcsICc3LjAnLCAnLXRuJywgJzgnLCAnLW1hJywgJzIwMCcsICctbWV0YWxfYmluZGluZycsICctaW1hZScsICc8aW5maWxlLm1hZT4nLCAnLW9tYWUnLCAnPG91dGZpbGUubWFlPic=

> <r_lp_tautomer_probability>
1

> <r_epik_Ionization_Penalty>
0.0540825

> <r_epik_Ionization_Penalty_Charging>
0.0538476

> <r_epik_Ionization_Penalty_Neutral>
0.000234891

> <r_epik_State_Penalty>
0.0200719

> <r_epik_Charging_Adjusted_Penalty>
0.0739194

> <i_epik_Tot_Q>
1

> <i_epik_Tot_abs_Q>
1

> <r_epik_Metal_State_Penalty>
0.0199414

> <b_epik_Metal_Only>
0

> <s_lp_Force_Field>
OPLS_2005

> <r_lp_Energy>
53.3477

> <b_lp_Chiralities_Consistent>
1

> <s_lp_Variant>
AV-unprocessed.smi:193-16

> <Gold.Version>
5.8.1

> <Gold.Id.Protein>
6NUR|6NUR_protein|mol2

> <Gold.PLP.Fitness>
48.5333

> <Gold.PLP.PLP>
-39.7183

> <Gold.PLP.part.hbond>
-3.0000

> <Gold.PLP.part.metal>
0.0000

> <Gold.PLP.part.buried>
-1.6077

> <Gold.PLP.part.nonpolar>
-36.2680

> <Gold.PLP.part.repulsive>
1.4544

> <Gold.PLP.ligand.clash>
0.0000

> <Gold.PLP.ligand.torsion>
1.8200

> <Gold.PLP.Chemscore.Hbond>
1.8568

> <Gold.PLP.Chemscore.CHOScore>
1.8621

> <Gold.PLP.Chemscore.Metal>
0.0000

> <Gold.Chemscore.Hbonds>
donor molecule, donor type, donor heavy atom, donor atom, acceptor molecule, acceptor atom, score
      L1  H    24    62       P1 10747  1.00
      P1  H  7989  7998       L1    19  0.10
      P1  H  8011  8017       L1    19  0.68
      L1  C    12    37       P1 10171  1.00
      L1  C    12    37       P1 10175  0.88

> <Gold.PLP.Chemscore.Internal.Correction>
1.2981

> <Gold.Rescore>
     Score         DG    S(hbond)    S(metal)    S(lipo)     H(rot)  DE(clash)    DE(int)     intcor
     16.33     -19.21       1.76        0.00     109.19       1.93       0.05       2.83       ----

> <Gold.Chemscore.Fitness>
16.3289

> <Gold.Chemscore.DG>
-19.2081

> <Gold.Chemscore.ZeroCoef>
-5.4800

> <Gold.Chemscore.Hbond>
1.7639

> <Gold.Chemscore.Metal>
0.0000

> <Gold.Chemscore.Lipo>
109.1887

> <Gold.Chemscore.Internal_Hbond>
0.0000

> <Gold.Chemscore.DEClash>
0.0482

> <Gold.Chemscore.DEInternal>
2.8310

> <Gold.Chemscore.Rot>
1.9290

> <Gold.Chemscore.Internal.Correction>
   9.000000E+99

> <Gold.Chemscore.Hbonds>
donor molecule, donor type, donor heavy atom, donor atom, acceptor molecule, acceptor atom, score
      L1  H    24    62       P1 10747  1.00
      P1  H  8011  8017       L1    19  0.23

> <Gold.Chemscore.Hbond.Weighted>
-5.8913

> <Gold.Chemscore.Metal.Weighted>
-0.0000

> <Gold.Chemscore.Lipo.Weighted>
-12.7751

> <Gold.Chemscore.Internal_Hbond.Weighted>
0.0000

> <Gold.Chemscore.DEClash.Weighted>
0.0482

> <Gold.Chemscore.DEInternal.Weighted>
2.8310

> <Gold.Chemscore.Rot.Weighted>
4.9383

> <Gold.Chemscore.Internal.Correction.Weighted>
   9.000000E+99

> <Gold.Protein.RotatedTorsions>
[ 6907 6896 6895 6894 ] final  -51.25 input  -60.11 | X-H torsion
[ 7974 7965 7964 7962 ] final  112.65 input  175.53 | X-H torsion
[ 8008 7997 7996 7995 ] final   64.52 input   59.86 | X-H torsion
[ 10167 10162 10161 10158 ] final    9.24 input  -65.29 | X-H torsion
[ 10718 10713 10712 10709 ] final  156.57 input   66.30 | X-H torsion
[ 10763 10752 10751 10750 ] final  -94.97 input  -60.55 | X-H torsion
[ 11005 11000 10999 10996 ] final -168.36 input  -57.11 | X-H torsion

> <Gold.Protein.ActiveResidues>
 VAL166  LYS551  ARG553  GLY616  TRP617  ASP618  TYR619  PRO620  LYS621  CYS622 
 ASP623  PHE694  ASN695  SER759  ASP760  ASP761  ALA762  ILE779  LEU786  VAL792 
 PHE793  MET794  SER795  GLU796  ALA797  LYS798  CYS799  TRP800  GLU811  SER814 

> <Gold.Protein.RotatedAtoms>
  150.8630  134.7986  159.7096 H   0  0  0  0  0  0  0  0  0  0  0  0  # atno 6907 bound_to 6896
  152.4660  134.5070  159.9752 H   0  0  0  0  0  0  0  0  0  0  0  0  # atno 6908 bound_to 6896
  151.5171  133.3435  159.2930 H   0  0  0  0  0  0  0  0  0  0  0  0  # atno 6909 bound_to 6896
  145.2268  139.2837  143.4189 H   0  0  0  0  0  0  0  0  0  0  0  0  # atno 7974 bound_to 7965
  155.6473  140.3497  155.4736 H   0  0  0  0  0  0  0  0  0  0  0  0  # atno 8008 bound_to 7997
  155.9876  140.1187  157.0691 H   0  0  0  0  0  0  0  0  0  0  0  0  # atno 8009 bound_to 7997
  154.4209  140.1126  156.5508 H   0  0  0  0  0  0  0  0  0  0  0  0  # atno 8010 bound_to 7997
  140.6266  143.8086  150.7242 H   0  0  0  0  0  0  0  0  0  0  0  0  # atno 10167 bound_to 10162
  157.2032  131.0681  151.2013 H   0  0  0  0  0  0  0  0  0  0  0  0  # atno 10718 bound_to 10713
  154.7105  135.5138  153.8659 H   0  0  0  0  0  0  0  0  0  0  0  0  # atno 10763 bound_to 10752
  153.0777  135.6621  154.0120 H   0  0  0  0  0  0  0  0  0  0  0  0  # atno 10764 bound_to 10752
  153.9963  135.3015  155.3386 H   0  0  0  0  0  0  0  0  0  0  0  0  # atno 10765 bound_to 10752
  140.5429  134.5505  157.5104 H   0  0  0  0  0  0  0  0  0  0  0  0  # atno 11005 bound_to 11000
  146.3363  140.2591  142.8601 LP  0  0  0  0  0  0  0  0  0  0  0  0  # atno 17320 bound_to 7965
  144.9714  140.8372  143.5453 LP  0  0  0  0  0  0  0  0  0  0  0  0  # atno 17321 bound_to 7965
  140.1688  143.4212  152.2015 LP  0  0  0  0  0  0  0  0  0  0  0  0  # atno 17342 bound_to 10162
  139.5486  144.7319  151.4506 LP  0  0  0  0  0  0  0  0  0  0  0  0  # atno 17343 bound_to 10162
  157.3746  130.7199  149.6588 LP  0  0  0  0  0  0  0  0  0  0  0  0  # atno 17370 bound_to 10713
  155.9698  130.4189  150.4350 LP  0  0  0  0  0  0  0  0  0  0  0  0  # atno 17371 bound_to 10713
  139.9495  134.7643  156.0483 LP  0  0  0  0  0  0  0  0  0  0  0  0  # atno 17394 bound_to 11000
  141.1217  133.6611  156.3231 LP  0  0  0  0  0  0  0  0  0  0  0  0  # atno 17395 bound_to 11000

$$$$
