AV-unprocessed.smi:287|AV-procd|sdf|2204|dock2
  -GOLD-   2262022 23D 1   1.00000     0.00000
 Structure written by MMmdl.
 55 58  0  0  0  0  0  0  0  0  1 V2000
  143.0692  134.4918  163.1311 C   0  0  0  0  0  0  0  0  0  0  0  0
  144.3042  134.2286  162.3399 C   0  0  0  0  0  0  0  0  0  0  0  0
  144.5386  133.7262  161.0931 C   0  0  0  0  0  0  0  0  0  0  0  0
  145.9518  133.7248  160.8925 C   0  0  0  0  0  0  0  0  0  0  0  0
  146.6815  133.2451  159.6449 C   0  0  2  0  0  0  0  0  0  0  0  0
  147.6959  132.1539  160.0252 C   0  0  0  0  0  0  0  0  0  0  0  0
  147.4408  134.2667  159.0274 O   0  0  0  0  0  0  0  0  0  0  0  0
  145.7155  132.7167  158.5597 C   0  0  0  0  0  0  0  0  0  0  0  0
  146.3642  132.5233  157.2693 N   0  0  0  0  0  0  0  0  0  0  0  0
  146.0342  133.2782  156.2004 C   0  0  0  0  0  0  0  0  0  0  0  0
  145.1541  134.2768  156.4472 N   0  0  0  0  0  0  0  0  0  0  0  0
  144.7536  135.0771  155.4571 C   0  0  0  0  0  0  0  0  0  0  0  0
  145.1076  135.0519  154.1723 N   0  0  0  0  0  0  0  0  0  0  0  0
  146.0033  134.0556  153.9087 C   0  0  0  0  0  0  0  0  0  0  0  0
  146.5098  133.1245  154.8632 C   0  0  0  0  0  0  0  0  0  0  0  0
  147.3790  132.2457  154.2282 N   0  0  0  0  0  0  0  0  0  0  0  0
  147.3774  132.6312  152.9826 C   0  0  0  0  0  0  0  0  0  0  0  0
  146.6026  133.7353  152.7017 N   0  0  0  0  0  0  0  0  0  0  0  0
  146.3910  134.3780  151.3553 C   0  0  1  0  0  0  0  0  0  0  0  0
  145.9419  133.4161  150.4513 O   0  0  0  0  0  0  0  0  0  0  0  0
  144.5206  133.3980  150.4530 C   0  0  2  0  0  0  0  0  0  0  0  0
  143.9692  132.6189  149.2463 C   0  0  0  0  0  0  0  0  0  0  0  0
  142.5612  132.5468  149.3202 O   0  0  0  0  0  0  0  0  0  0  0  0
  144.2047  134.8980  150.4840 C   0  0  2  0  0  0  0  0  0  0  0  0
  144.2946  135.4549  149.1822 O   0  0  0  0  0  0  0  0  0  0  0  0
  145.2732  135.4410  151.4363 C   0  0  2  0  0  0  0  0  0  0  0  0
  145.7117  136.7426  151.0923 O   0  0  0  0  0  0  0  0  0  0  0  0
  146.4715  134.2211  162.0637 C   0  0  0  0  0  0  0  0  0  0  0  0
  147.8576  134.4757  162.5567 C   0  0  0  0  0  0  0  0  0  0  0  0
  145.4798  134.5331  162.9439 O   0  0  0  0  0  0  0  0  0  0  0  0
  147.3734  134.7621  151.0783 H   0  0  0  0  0  0  0  0  0  0  0  0
  144.1646  132.9494  151.3830 H   0  0  0  0  0  0  0  0  0  0  0  0
  143.1996  135.0876  150.8619 H   0  0  0  0  0  0  0  0  0  0  0  0
  144.8590  135.4703  152.4445 H   0  0  0  0  0  0  0  0  0  0  0  0
  142.1834  134.4416  162.4978 H   0  0  0  0  0  0  0  0  0  0  0  0
  143.1031  135.4824  163.5852 H   0  0  0  0  0  0  0  0  0  0  0  0
  142.9581  133.7568  163.9285 H   0  0  0  0  0  0  0  0  0  0  0  0
  143.7796  133.3999  160.3977 H   0  0  0  0  0  0  0  0  0  0  0  0
  147.1999  131.2939  160.4767 H   0  0  0  0  0  0  0  0  0  0  0  0
  148.4272  132.5255  160.7445 H   0  0  0  0  0  0  0  0  0  0  0  0
  148.2440  131.7946  159.1531 H   0  0  0  0  0  0  0  0  0  0  0  0
  147.1783  135.0979  159.3922 H   0  0  0  0  0  0  0  0  0  0  0  0
  145.2356  131.7925  158.8849 H   0  0  0  0  0  0  0  0  0  0  0  0
  144.9235  133.4531  158.4166 H   0  0  0  0  0  0  0  0  0  0  0  0
  147.0686  131.7996  157.2395 H   0  0  0  0  0  0  0  0  0  0  0  0
  144.0498  135.8485  155.7328 H   0  0  0  0  0  0  0  0  0  0  0  0
  147.9532  132.1156  152.2278 H   0  0  0  0  0  0  0  0  0  0  0  0
  144.2219  133.1341  148.3194 H   0  0  0  0  0  0  0  0  0  0  0  0
  144.3956  131.6169  149.1904 H   0  0  0  0  0  0  0  0  0  0  0  0
  142.3194  131.6798  149.6079 H   0  0  0  0  0  0  0  0  0  0  0  0
  144.3057  136.3966  149.2627 H   0  0  0  0  0  0  0  0  0  0  0  0
  144.9650  137.2461  150.8062 H   0  0  0  0  0  0  0  0  0  0  0  0
  148.4684  133.5771  162.4717 H   0  0  0  0  0  0  0  0  0  0  0  0
  147.8545  134.7812  163.6033 H   0  0  0  0  0  0  0  0  0  0  0  0
  148.3335  135.2670  161.9775 H   0  0  0  0  0  0  0  0  0  0  0  0
  1  2  1  0  0  0  0
  1 35  1  0  0  0  0
  1 36  1  0  0  0  0
  1 37  1  0  0  0  0
  2 30  1  0  0  0  0
  2  3  2  0  0  0  0
  3  4  1  0  0  0  0
  3 38  1  0  0  0  0
  4  5  1  0  0  0  0
  4 28  2  0  0  0  0
  5  6  1  0  0  0  0
  5  7  1  0  0  0  0
  5  8  1  0  0  0  0
  6 39  1  0  0  0  0
  6 40  1  0  0  0  0
  6 41  1  0  0  0  0
  7 42  1  0  0  0  0
  8  9  1  0  0  0  0
  8 43  1  0  0  0  0
  8 44  1  0  0  0  0
  9 10  1  0  0  0  0
  9 45  1  0  0  0  0
 10 15  1  0  0  0  0
 10 11  2  0  0  0  0
 11 12  1  0  0  0  0
 12 13  2  0  0  0  0
 12 46  1  0  0  0  0
 13 14  1  0  0  0  0
 14 18  1  0  0  0  0
 14 15  2  0  0  0  0
 15 16  1  0  0  0  0
 16 17  2  0  0  0  0
 17 18  1  0  0  0  0
 17 47  1  0  0  0  0
 18 19  1  0  0  0  0
 19 31  1  0  0  0  0
 19 26  1  0  0  0  0
 19 20  1  0  0  0  0
 20 21  1  0  0  0  0
 21 32  1  0  0  0  0
 21 22  1  0  0  0  0
 21 24  1  0  0  0  0
 22 23  1  0  0  0  0
 22 48  1  0  0  0  0
 22 49  1  0  0  0  0
 23 50  1  0  0  0  0
 24 33  1  0  0  0  0
 24 25  1  0  0  0  0
 24 26  1  0  0  0  0
 25 51  1  0  0  0  0
 26 34  1  0  0  0  0
 26 27  1  0  0  0  0
 27 52  1  0  0  0  0
 28 29  1  0  0  0  0
 28 30  1  0  0  0  0
 29 53  1  0  0  0  0
 29 54  1  0  0  0  0
 29 55  1  0  0  0  0
M  END
> <s_m_source_file>
AV-unprocessed.smi

> <i_m_source_file_index>
287

> <i_lp_mmshare_version>
43012

> <i_f3d_flags>
0

> <s_epik_input>
W0NIM11jMVtjSF1jKGMobzEpW0NIM10pW0NAQF0oW0NIM10pKFtPSF0pW0NIMl1bTkhdYyhuW2NIXW4yKWMoYzIzKW5bY0hdbjNbQ0BASF00T1tDQEhdKFtDSDJdW09IXSlbQ0BASF0oW09IXSlbQ0BIXTRbT0hd

> <s_epik_cmdline>
J2VwaWtfcHl0aG9uJywgJy1waCcsICc3LjAnLCAnLXRuJywgJzgnLCAnLW1hJywgJzIwMCcsICctbWV0YWxfYmluZGluZycsICctaW1hZScsICc8aW5maWxlLm1hZT4nLCAnLW9tYWUnLCAnPG91dGZpbGUubWFlPic=

> <r_lp_tautomer_probability>
1

> <r_epik_Ionization_Penalty>
0.000992612

> <r_epik_Ionization_Penalty_Charging>
0

> <r_epik_Ionization_Penalty_Neutral>
0.000992612

> <r_epik_State_Penalty>
-0

> <r_epik_Charging_Adjusted_Penalty>
0

> <i_epik_Tot_Q>
0

> <i_epik_Tot_abs_Q>
0

> <r_epik_Metal_State_Penalty>
-0

> <b_epik_Metal_Only>
0

> <s_epik_Chemistry_Notes>
This compound contains an acetal/aminal-like group ( X-CH(R)-Y where X, Y are N, S, or O) that may be acid/base labile, releasing an aldehyde.

> <s_lp_Force_Field>
OPLS_2005

> <r_lp_Energy>
48.2808

> <b_lp_Chiralities_Consistent>
1

> <s_lp_Variant>
AV-unprocessed.smi:287-28

> <Gold.Version>
5.8.1

> <Gold.Id.Protein>
6NUR|6NUR_protein|mol2

> <Gold.PLP.Fitness>
50.7265

> <Gold.PLP.PLP>
-40.4008

> <Gold.PLP.part.hbond>
-4.5364

> <Gold.PLP.part.metal>
0.0000

> <Gold.PLP.part.buried>
-8.3925

> <Gold.PLP.part.nonpolar>
-28.3303

> <Gold.PLP.part.repulsive>
0.4604

> <Gold.PLP.ligand.clash>
0.0000

> <Gold.PLP.ligand.torsion>
0.2627

> <Gold.PLP.Chemscore.Hbond>
2.5691

> <Gold.PLP.Chemscore.CHOScore>
1.0000

> <Gold.PLP.Chemscore.Metal>
0.0000

> <Gold.Chemscore.Hbonds>
donor molecule, donor type, donor heavy atom, donor atom, acceptor molecule, acceptor atom, score
      L1  H    23    50       P1 10952  0.83
      L1  H    25    51       P1 10171  0.42
      L1  H    27    52       P1 10171  1.00
      L1  C    17    47       P1 10747  1.00

> <Gold.PLP.Chemscore.Internal.Correction>
0.1439

> <Gold.Rescore>
     Score         DG    S(hbond)    S(metal)    S(lipo)     H(rot)  DE(clash)    DE(int)     intcor
      8.82     -10.81       2.89        0.00      78.40       5.27       0.20       1.79       ----

> <Gold.Chemscore.Fitness>
8.8196

> <Gold.Chemscore.DG>
-10.8098

> <Gold.Chemscore.ZeroCoef>
-5.4800

> <Gold.Chemscore.Hbond>
2.8864

> <Gold.Chemscore.Metal>
0.0000

> <Gold.Chemscore.Lipo>
78.4038

> <Gold.Chemscore.Internal_Hbond>
0.0000

> <Gold.Chemscore.DEClash>
0.2033

> <Gold.Chemscore.DEInternal>
1.7868

> <Gold.Chemscore.Rot>
5.2672

> <Gold.Chemscore.Internal.Correction>
   9.000000E+99

> <Gold.Chemscore.Hbonds>
donor molecule, donor type, donor heavy atom, donor atom, acceptor molecule, acceptor atom, score
      L1  H    23    50       P1 10952  0.80
      L1  H    25    51       P1 10171  0.43
      L1  H    27    52       P1 10171  0.96

> <Gold.Chemscore.Hbond.Weighted>
-9.6405

> <Gold.Chemscore.Metal.Weighted>
-0.0000

> <Gold.Chemscore.Lipo.Weighted>
-9.1732

> <Gold.Chemscore.Internal_Hbond.Weighted>
0.0000

> <Gold.Chemscore.DEClash.Weighted>
0.2033

> <Gold.Chemscore.DEInternal.Weighted>
1.7868

> <Gold.Chemscore.Rot.Weighted>
13.4839

> <Gold.Chemscore.Internal.Correction.Weighted>
   9.000000E+99

> <Gold.Protein.RotatedTorsions>
[ 6907 6896 6895 6894 ] final  -75.00 input  -60.11 | X-H torsion
[ 7974 7965 7964 7962 ] final -103.61 input  175.53 | X-H torsion
[ 8008 7997 7996 7995 ] final  -26.87 input   59.86 | X-H torsion
[ 10167 10162 10161 10158 ] final  103.90 input  -65.29 | X-H torsion
[ 10718 10713 10712 10709 ] final   94.50 input   66.30 | X-H torsion
[ 10763 10752 10751 10750 ] final  -19.69 input  -60.55 | X-H torsion
[ 11005 11000 10999 10996 ] final  -32.60 input  -57.11 | X-H torsion

> <Gold.Protein.ActiveResidues>
 VAL166  LYS551  ARG553  GLY616  TRP617  ASP618  TYR619  PRO620  LYS621  CYS622 
 ASP623  PHE694  ASN695  SER759  ASP760  ASP761  ALA762  ILE779  LEU786  VAL792 
 PHE793  MET794  SER795  GLU796  ALA797  LYS798  CYS799  TRP800  GLU811  SER814 

> <Gold.Protein.RotatedAtoms>
  150.7073  134.4786  159.5459 H   0  0  0  0  0  0  0  0  0  0  0  0  # atno 6907 bound_to 6896
  152.2427  134.8209  160.0467 H   0  0  0  0  0  0  0  0  0  0  0  0  # atno 6908 bound_to 6896
  151.8985  133.3497  159.3859 H   0  0  0  0  0  0  0  0  0  0  0  0  # atno 6909 bound_to 6896
  145.2537  140.9246  143.3081 H   0  0  0  0  0  0  0  0  0  0  0  0  # atno 7974 bound_to 7965
  154.4404  140.1888  156.0843 H   0  0  0  0  0  0  0  0  0  0  0  0  # atno 8008 bound_to 7997
  156.0415  140.3319  155.7222 H   0  0  0  0  0  0  0  0  0  0  0  0  # atno 8009 bound_to 7997
  155.5693  140.0611  157.2801 H   0  0  0  0  0  0  0  0  0  0  0  0  # atno 8010 bound_to 7997
  139.7223  144.7055  151.0852 H   0  0  0  0  0  0  0  0  0  0  0  0  # atno 10167 bound_to 10162
  157.6947  131.0514  150.4197 H   0  0  0  0  0  0  0  0  0  0  0  0  # atno 10718 bound_to 10713
  153.6088  135.6997  153.5355 H   0  0  0  0  0  0  0  0  0  0  0  0  # atno 10763 bound_to 10752
  153.3034  135.4122  155.1272 H   0  0  0  0  0  0  0  0  0  0  0  0  # atno 10764 bound_to 10752
  154.8568  135.3654  154.5626 H   0  0  0  0  0  0  0  0  0  0  0  0  # atno 10765 bound_to 10752
  140.9565  133.7189  156.1302 H   0  0  0  0  0  0  0  0  0  0  0  0  # atno 11005 bound_to 11000
  144.9480  139.4114  143.6416 LP  0  0  0  0  0  0  0  0  0  0  0  0  # atno 17320 bound_to 7965
  146.3295  139.8473  142.8879 LP  0  0  0  0  0  0  0  0  0  0  0  0  # atno 17321 bound_to 7965
  140.7756  143.5150  150.9606 LP  0  0  0  0  0  0  0  0  0  0  0  0  # atno 17342 bound_to 10162
  139.8837  143.7040  152.3154 LP  0  0  0  0  0  0  0  0  0  0  0  0  # atno 17343 bound_to 10162
  156.4573  130.4024  149.6598 LP  0  0  0  0  0  0  0  0  0  0  0  0  # atno 17370 bound_to 10713
  156.3726  130.7538  151.2523 LP  0  0  0  0  0  0  0  0  0  0  0  0  # atno 17371 bound_to 10713
  140.7528  134.4026  157.5538 LP  0  0  0  0  0  0  0  0  0  0  0  0  # atno 17394 bound_to 11000
  139.8864  134.8911  156.2587 LP  0  0  0  0  0  0  0  0  0  0  0  0  # atno 17395 bound_to 11000

$$$$
