AV-unprocessed.smi:3265|AV-procd|sdf|12497|dock7
  -GOLD-   2272018403D 1   1.00000     0.00000
 Structure written by MMmdl.
 41 42  0  0  0  0  0  0  0  0  2 V2000
  150.7435  145.3192  159.9731 C   0  0  0  0  0  0  0  0  0  0  0  0
  152.1087  144.8503  159.4401 C   0  0  1  0  0  0  0  0  0  0  0  0
  152.8305  143.8944  160.4077 C   0  0  0  0  0  0  0  0  0  0  0  0
  152.1829  142.5026  160.4003 C   0  0  0  0  0  0  0  0  0  0  0  0
  152.0858  141.9468  158.9708 C   0  0  0  0  0  0  0  0  0  0  0  0
  151.3514  142.8810  158.0789 N   0  3  2  0  0  0  0  0  0  0  0  0
  151.1151  142.2979  156.7341 C   0  0  0  0  0  0  0  0  0  0  0  0
  150.8322  140.7845  156.7870 C   0  0  0  0  0  0  0  0  0  0  0  0
  149.7092  140.4233  155.9312 N   0  0  0  0  0  0  0  0  0  0  0  0
  149.8107  139.8007  154.7445 C   0  0  0  0  0  0  0  0  0  0  0  0
  150.8918  139.4961  154.2416 O   0  0  0  0  0  0  0  0  0  0  0  0
  148.5118  139.4881  153.9887 C   0  0  0  0  0  0  0  0  0  0  0  0
  147.5773  140.6033  153.9672 N   0  0  0  0  0  0  0  0  0  0  0  0
  147.5476  141.6784  153.1032 C   0  0  0  0  0  0  0  0  0  0  0  0
  146.4978  142.4689  153.4737 C   0  0  0  0  0  0  0  0  0  0  0  0
  145.9341  141.7833  154.5859 C   0  0  0  0  0  0  0  0  0  0  0  0
  146.5816  140.6669  154.8786 N   0  0  0  0  0  0  0  0  0  0  0  0
  152.0017  144.2195  158.0362 C   0  0  0  0  0  0  0  0  0  0  0  0
  150.0400  144.4931  160.0774 H   0  0  0  0  0  0  0  0  0  0  0  0
  150.2922  146.0510  159.3025 H   0  0  0  0  0  0  0  0  0  0  0  0
  150.8463  145.7922  160.9501 H   0  0  0  0  0  0  0  0  0  0  0  0
  152.7256  145.7454  159.3493 H   0  0  0  0  0  0  0  0  0  0  0  0
  153.8749  143.8014  160.1072 H   0  0  0  0  0  0  0  0  0  0  0  0
  152.8391  144.3041  161.4182 H   0  0  0  0  0  0  0  0  0  0  0  0
  152.7631  141.8220  161.0240 H   0  0  0  0  0  0  0  0  0  0  0  0
  151.1888  142.5504  160.8460 H   0  0  0  0  0  0  0  0  0  0  0  0
  153.0835  141.7657  158.5672 H   0  0  0  0  0  0  0  0  0  0  0  0
  151.5758  140.9832  158.9997 H   0  0  0  0  0  0  0  0  0  0  0  0
  150.3005  142.8280  156.2380 H   0  0  0  0  0  0  0  0  0  0  0  0
  152.0033  142.4573  156.1211 H   0  0  0  0  0  0  0  0  0  0  0  0
  151.7196  140.2173  156.5000 H   0  0  0  0  0  0  0  0  0  0  0  0
  150.5765  140.4694  157.7976 H   0  0  0  0  0  0  0  0  0  0  0  0
  148.7838  140.6370  156.2747 H   0  0  0  0  0  0  0  0  0  0  0  0
  148.7543  139.2117  152.9622 H   0  0  0  0  0  0  0  0  0  0  0  0
  148.0187  138.6273  154.4431 H   0  0  0  0  0  0  0  0  0  0  0  0
  148.2692  141.7916  152.3074 H   0  0  0  0  0  0  0  0  0  0  0  0
  146.1794  143.3951  153.0187 H   0  0  0  0  0  0  0  0  0  0  0  0
  145.0801  142.0622  155.1853 H   0  0  0  0  0  0  0  0  0  0  0  0
  151.4518  144.8970  157.3841 H   0  0  0  0  0  0  0  0  0  0  0  0
  152.9976  144.1153  157.6027 H   0  0  0  0  0  0  0  0  0  0  0  0
  150.4409  143.0090  158.4972 H   0  0  0  0  0  0  0  0  0  0  0  0
  1  2  1  0  0  0  0
  1 19  1  0  0  0  0
  1 20  1  0  0  0  0
  1 21  1  0  0  0  0
  2 18  1  0  0  0  0
  2  3  1  0  0  0  0
  2 22  1  0  0  0  0
  3  4  1  0  0  0  0
  3 23  1  0  0  0  0
  3 24  1  0  0  0  0
  4  5  1  0  0  0  0
  4 25  1  0  0  0  0
  4 26  1  0  0  0  0
  5  6  1  0  0  0  0
  5 27  1  0  0  0  0
  5 28  1  0  0  0  0
  6  7  1  0  0  0  0
  6 18  1  0  0  0  0
  6 41  1  0  0  0  0
  7  8  1  0  0  0  0
  7 29  1  0  0  0  0
  7 30  1  0  0  0  0
  8  9  1  0  0  0  0
  8 31  1  0  0  0  0
  8 32  1  0  0  0  0
  9 10  1  0  0  0  0
  9 33  1  0  0  0  0
 10 11  2  0  0  0  0
 10 12  1  0  0  0  0
 12 13  1  0  0  0  0
 12 34  1  0  0  0  0
 12 35  1  0  0  0  0
 13 17  1  0  0  0  0
 13 14  1  0  0  0  0
 14 15  2  0  0  0  0
 14 36  1  0  0  0  0
 15 16  1  0  0  0  0
 15 37  1  0  0  0  0
 16 17  2  0  0  0  0
 16 38  1  0  0  0  0
 18 39  1  0  0  0  0
 18 40  1  0  0  0  0
M  CHG  1   6   1
M  END
> <s_m_source_file>
AV-unprocessed.smi

> <i_m_source_file_index>
3265

> <i_lp_mmshare_version>
43012

> <i_f3d_flags>
0

> <s_epik_input>
W0NIM11bQ0BASF0xW0NIMl1bQ0gyXVtDSDJdTihbQ0gyXTEpW0NIMl1bQ0gyXVtOSF1DKD1PKVtDSDJdbjJbY0hdW2NIXVtjSF1uMg==

> <s_epik_cmdline>
J2VwaWtfcHl0aG9uJywgJy1waCcsICc3LjAnLCAnLXRuJywgJzgnLCAnLW1hJywgJzIwMCcsICctbWV0YWxfYmluZGluZycsICctaW1hZScsICc8aW5maWxlLm1hZT4nLCAnLW9tYWUnLCAnPG91dGZpbGUubWFlPic=

> <r_lp_tautomer_probability>
1

> <r_epik_Ionization_Penalty>
0.00231455

> <r_epik_Ionization_Penalty_Charging>
0.00230623

> <r_epik_Ionization_Penalty_Neutral>
8.31727e-06

> <r_epik_State_Penalty>
0.00159065

> <r_epik_Charging_Adjusted_Penalty>
0.00389688

> <i_epik_Tot_Q>
1

> <i_epik_Tot_abs_Q>
1

> <r_epik_Metal_State_Penalty>
-0

> <b_epik_Metal_Only>
0

> <s_lp_Force_Field>
OPLS_2005

> <r_lp_Energy>
19.1739

> <b_lp_Chiralities_Consistent>
1

> <s_lp_Variant>
AV-unprocessed.smi:3265-2

> <Gold.Version>
5.8.1

> <Gold.Id.Protein>
6NUR|6NUR_protein|mol2

> <Gold.PLP.Fitness>
40.7345

> <Gold.PLP.PLP>
-36.9474

> <Gold.PLP.part.hbond>
-1.0000

> <Gold.PLP.part.metal>
0.0000

> <Gold.PLP.part.buried>
-6.0788

> <Gold.PLP.part.nonpolar>
-30.1663

> <Gold.PLP.part.repulsive>
0.2978

> <Gold.PLP.ligand.clash>
0.0000

> <Gold.PLP.ligand.torsion>
1.1166

> <Gold.PLP.Chemscore.Hbond>
1.0000

> <Gold.PLP.Chemscore.CHOScore>
0.9969

> <Gold.PLP.Chemscore.Metal>
0.0000

> <Gold.Chemscore.Hbonds>
donor molecule, donor type, donor heavy atom, donor atom, acceptor molecule, acceptor atom, score
      P1  H  7989  7998       L1    11  1.00
      L1  C    14    36       P1  7957  1.00

> <Gold.PLP.Chemscore.Internal.Correction>
0.0296

> <Gold.Rescore>
     Score         DG    S(hbond)    S(metal)    S(lipo)     H(rot)  DE(clash)    DE(int)     intcor
     15.02     -16.38       0.98        0.00     105.50       1.84       0.16       1.20       ----

> <Gold.Chemscore.Fitness>
15.0158

> <Gold.Chemscore.DG>
-16.3816

> <Gold.Chemscore.ZeroCoef>
-5.4800

> <Gold.Chemscore.Hbond>
0.9774

> <Gold.Chemscore.Metal>
0.0000

> <Gold.Chemscore.Lipo>
105.5048

> <Gold.Chemscore.Internal_Hbond>
0.0000

> <Gold.Chemscore.DEClash>
0.1609

> <Gold.Chemscore.DEInternal>
1.2049

> <Gold.Chemscore.Rot>
1.8386

> <Gold.Chemscore.Internal.Correction>
   9.000000E+99

> <Gold.Chemscore.Hbonds>
donor molecule, donor type, donor heavy atom, donor atom, acceptor molecule, acceptor atom, score
      P1  H  7989  7998       L1    11  0.78

> <Gold.Chemscore.Hbond.Weighted>
-3.2644

> <Gold.Chemscore.Metal.Weighted>
-0.0000

> <Gold.Chemscore.Lipo.Weighted>
-12.3441

> <Gold.Chemscore.Internal_Hbond.Weighted>
0.0000

> <Gold.Chemscore.DEClash.Weighted>
0.1609

> <Gold.Chemscore.DEInternal.Weighted>
1.2049

> <Gold.Chemscore.Rot.Weighted>
4.7069

> <Gold.Chemscore.Internal.Correction.Weighted>
   9.000000E+99

> <Gold.Protein.RotatedTorsions>
[ 6907 6896 6895 6894 ] final   39.63 input  -60.11 | X-H torsion
[ 7974 7965 7964 7962 ] final -136.74 input  175.53 | X-H torsion
[ 8008 7997 7996 7995 ] final   -7.93 input   59.86 | X-H torsion
[ 10167 10162 10161 10158 ] final -127.91 input  -65.29 | X-H torsion
[ 10718 10713 10712 10709 ] final   42.50 input   66.30 | X-H torsion
[ 10763 10752 10751 10750 ] final -136.59 input  -60.55 | X-H torsion
[ 11005 11000 10999 10996 ] final   50.41 input  -57.11 | X-H torsion

> <Gold.Protein.ActiveResidues>
 VAL166  LYS551  ARG553  GLY616  TRP617  ASP618  TYR619  PRO620  LYS621  CYS622 
 ASP623  PHE694  ASN695  SER759  ASP760  ASP761  ALA762  ILE779  LEU786  VAL792 
 PHE793  MET794  SER795  GLU796  ALA797  LYS798  CYS799  TRP800  GLU811  SER814 

> <Gold.Protein.RotatedAtoms>
  152.1721  134.8825  160.0533 H   0  0  0  0  0  0  0  0  0  0  0  0  # atno 6907 bound_to 6896
  151.9781  133.3743  159.4105 H   0  0  0  0  0  0  0  0  0  0  0  0  # atno 6908 bound_to 6896
  150.6903  134.3991  159.5154 H   0  0  0  0  0  0  0  0  0  0  0  0  # atno 6909 bound_to 6896
  144.8901  140.6630  143.5151 H   0  0  0  0  0  0  0  0  0  0  0  0  # atno 7974 bound_to 7965
  154.5790  140.2394  155.8081 H   0  0  0  0  0  0  0  0  0  0  0  0  # atno 8008 bound_to 7997
  156.2165  140.3010  155.9808 H   0  0  0  0  0  0  0  0  0  0  0  0  # atno 8009 bound_to 7997
  155.2575  140.0413  157.2984 H   0  0  0  0  0  0  0  0  0  0  0  0  # atno 8010 bound_to 7997
  139.9559  143.6004  152.2461 H   0  0  0  0  0  0  0  0  0  0  0  0  # atno 10167 bound_to 10162
  157.4056  130.7885  149.7385 H   0  0  0  0  0  0  0  0  0  0  0  0  # atno 10718 bound_to 10713
  154.8680  135.3668  154.5086 H   0  0  0  0  0  0  0  0  0  0  0  0  # atno 10763 bound_to 10752
  153.5723  135.7020  153.5504 H   0  0  0  0  0  0  0  0  0  0  0  0  # atno 10764 bound_to 10752
  153.3531  135.4066  155.1624 H   0  0  0  0  0  0  0  0  0  0  0  0  # atno 10765 bound_to 10752
  140.1020  134.5069  155.8754 H   0  0  0  0  0  0  0  0  0  0  0  0  # atno 11005 bound_to 11000
  145.3798  139.1639  143.4287 LP  0  0  0  0  0  0  0  0  0  0  0  0  # atno 17320 bound_to 7965
  146.3048  140.3878  142.8691 LP  0  0  0  0  0  0  0  0  0  0  0  0  # atno 17321 bound_to 7965
  139.6592  144.7662  151.1996 LP  0  0  0  0  0  0  0  0  0  0  0  0  # atno 17342 bound_to 10162
  140.7568  143.6037  150.8674 LP  0  0  0  0  0  0  0  0  0  0  0  0  # atno 17343 bound_to 10162
  155.9835  130.3999  150.3358 LP  0  0  0  0  0  0  0  0  0  0  0  0  # atno 17370 bound_to 10713
  157.1490  131.0316  151.2893 LP  0  0  0  0  0  0  0  0  0  0  0  0  # atno 17371 bound_to 10713
  141.2108  133.6699  156.6536 LP  0  0  0  0  0  0  0  0  0  0  0  0  # atno 17394 bound_to 11000
  140.3207  134.8010  157.4250 LP  0  0  0  0  0  0  0  0  0  0  0  0  # atno 17395 bound_to 11000

$$$$
