AV-unprocessed.smi:1647|AV-procd|sdf|6626|dock3
  -GOLD-   22720 7323D 1   1.00000     0.00000
 Structure written by MMmdl.
 40 41  0  0  0  0  0  0  0  0  2 V2000
  144.5822  136.9529  152.6280 C   0  0  0  0  0  0  0  0  0  0  0  0
  145.8255  137.0155  152.1290 C   0  0  0  0  0  0  0  0  0  0  0  0
  146.5213  138.2993  151.7228 C   0  0  0  0  0  0  0  0  0  0  0  0
  147.7402  138.5134  152.4934 N   0  0  0  0  0  0  0  0  0  0  0  0
  147.9293  139.5107  153.3696 C   0  0  0  0  0  0  0  0  0  0  0  0
  147.0794  140.3660  153.6156 O   0  0  0  0  0  0  0  0  0  0  0  0
  149.1562  139.4508  153.9167 N   0  0  0  0  0  0  0  0  0  0  0  0
  149.7509  140.3193  154.8731 C   0  0  0  0  0  0  0  0  0  0  0  0
  150.7004  139.7635  155.7580 C   0  0  0  0  0  0  0  0  0  0  0  0
  151.3168  140.5789  156.7290 C   0  0  0  0  0  0  0  0  0  0  0  0
  150.9679  141.9463  156.8063 C   0  0  0  0  0  0  0  0  0  0  0  0
  151.5317  142.8350  157.7313 N   0  0  0  0  0  0  0  0  0  0  0  0
  150.5325  143.6196  158.4523 C   0  0  0  0  0  0  0  0  0  0  0  0
  151.2042  144.7060  159.3101 C   0  0  0  0  0  0  0  0  0  0  0  0
  152.2558  144.0931  160.2490 C   0  0  0  0  0  0  0  0  0  0  0  0
  153.2622  143.2546  159.4446 C   0  0  0  0  0  0  0  0  0  0  0  0
  152.5390  142.2056  158.5819 C   0  0  0  0  0  0  0  0  0  0  0  0
  150.0457  142.4399  155.9522 N   0  3  0  0  0  0  0  0  0  0  0  0
  149.4325  141.6937  155.0078 C   0  0  0  0  0  0  0  0  0  0  0  0
  143.9918  137.8453  152.7759 H   0  0  0  0  0  0  0  0  0  0  0  0
  144.1387  136.0053  152.8964 H   0  0  0  0  0  0  0  0  0  0  0  0
  146.3857  136.1017  151.9939 H   0  0  0  0  0  0  0  0  0  0  0  0
  146.7876  138.2311  150.6680 H   0  0  0  0  0  0  0  0  0  0  0  0
  145.8472  139.1520  151.8240 H   0  0  0  0  0  0  0  0  0  0  0  0
  148.4919  137.8557  152.3461 H   0  0  0  0  0  0  0  0  0  0  0  0
  149.7554  138.7161  153.5699 H   0  0  0  0  0  0  0  0  0  0  0  0
  150.9625  138.7174  155.6927 H   0  0  0  0  0  0  0  0  0  0  0  0
  152.0485  140.1561  157.4020 H   0  0  0  0  0  0  0  0  0  0  0  0
  149.8454  144.0820  157.7423 H   0  0  0  0  0  0  0  0  0  0  0  0
  149.9400  142.9611  159.0891 H   0  0  0  0  0  0  0  0  0  0  0  0
  151.6801  145.4415  158.6601 H   0  0  0  0  0  0  0  0  0  0  0  0
  150.4529  145.2436  159.8889 H   0  0  0  0  0  0  0  0  0  0  0  0
  152.7740  144.8789  160.7995 H   0  0  0  0  0  0  0  0  0  0  0  0
  151.7637  143.4638  160.9917 H   0  0  0  0  0  0  0  0  0  0  0  0
  153.8536  143.9099  158.8037 H   0  0  0  0  0  0  0  0  0  0  0  0
  153.9649  142.7644  160.1187 H   0  0  0  0  0  0  0  0  0  0  0  0
  152.0628  141.4647  159.2253 H   0  0  0  0  0  0  0  0  0  0  0  0
  153.2627  141.6737  157.9628 H   0  0  0  0  0  0  0  0  0  0  0  0
  148.7114  142.2308  154.4107 H   0  0  0  0  0  0  0  0  0  0  0  0
  149.7989  143.4273  156.0232 H   0  0  0  0  0  0  0  0  0  0  0  0
  1  2  2  0  0  0  0
  1 20  1  0  0  0  0
  1 21  1  0  0  0  0
  2  3  1  0  0  0  0
  2 22  1  0  0  0  0
  3  4  1  0  0  0  0
  3 23  1  0  0  0  0
  3 24  1  0  0  0  0
  4  5  1  0  0  0  0
  4 25  1  0  0  0  0
  5  6  2  0  0  0  0
  5  7  1  0  0  0  0
  7  8  1  0  0  0  0
  7 26  1  0  0  0  0
  8 19  1  0  0  0  0
  8  9  2  0  0  0  0
  9 10  1  0  0  0  0
  9 27  1  0  0  0  0
 10 11  2  0  0  0  0
 10 28  1  0  0  0  0
 11 12  1  0  0  0  0
 11 18  1  0  0  0  0
 12 17  1  0  0  0  0
 12 13  1  0  0  0  0
 13 14  1  0  0  0  0
 13 29  1  0  0  0  0
 13 30  1  0  0  0  0
 14 15  1  0  0  0  0
 14 31  1  0  0  0  0
 14 32  1  0  0  0  0
 15 16  1  0  0  0  0
 15 33  1  0  0  0  0
 15 34  1  0  0  0  0
 16 17  1  0  0  0  0
 16 35  1  0  0  0  0
 16 36  1  0  0  0  0
 17 37  1  0  0  0  0
 17 38  1  0  0  0  0
 18 19  2  0  0  0  0
 18 40  1  0  0  0  0
 19 39  1  0  0  0  0
M  CHG  1  18   1
M  END
> <s_m_source_file>
AV-unprocessed.smi

> <i_m_source_file_index>
1647

> <i_lp_mmshare_version>
43012

> <i_f3d_flags>
0

> <s_epik_input>
W0NIMl09W0NIXVtDSDJdW05IXUMoPU8pW05IXWMxW2NIXVtjSF1jKG5bY0hdMSlOMltDSDJdW0NIMl1bQ0gyXVtDSDJdW0NIMl0y

> <s_epik_cmdline>
J2VwaWtfcHl0aG9uJywgJy1waCcsICc3LjAnLCAnLXRuJywgJzgnLCAnLW1hJywgJzIwMCcsICctbWV0YWxfYmluZGluZycsICctaW1hZScsICc8aW5maWxlLm1hZT4nLCAnLW9tYWUnLCAnPG91dGZpbGUubWFlPic=

> <r_lp_tautomer_probability>
0.999994

> <r_epik_Ionization_Penalty>
0.589008

> <r_epik_Ionization_Penalty_Charging>
0.588988

> <r_epik_Ionization_Penalty_Neutral>
2.00705e-05

> <r_epik_State_Penalty>
0.602394

> <r_epik_Charging_Adjusted_Penalty>
1.19138

> <i_epik_Tot_Q>
1

> <i_epik_Tot_abs_Q>
1

> <r_epik_Metal_State_Penalty>
0.79095

> <b_epik_Metal_Only>
0

> <s_lp_Force_Field>
OPLS_2005

> <r_lp_Energy>
26.0236

> <b_lp_Chiralities_Consistent>
1

> <s_lp_Variant>
AV-unprocessed.smi:1647-2

> <Gold.Version>
5.8.1

> <Gold.Id.Protein>
6NUR|6NUR_protein|mol2

> <Gold.PLP.Fitness>
48.4972

> <Gold.PLP.PLP>
-39.9683

> <Gold.PLP.part.hbond>
-4.0000

> <Gold.PLP.part.metal>
0.0000

> <Gold.PLP.part.buried>
-0.9063

> <Gold.PLP.part.nonpolar>
-36.1700

> <Gold.PLP.part.repulsive>
0.5337

> <Gold.PLP.ligand.clash>
0.0000

> <Gold.PLP.ligand.torsion>
0.3084

> <Gold.PLP.Chemscore.Hbond>
3.0000

> <Gold.PLP.Chemscore.CHOScore>
0.0000

> <Gold.PLP.Chemscore.Metal>
0.0000

> <Gold.Chemscore.Hbonds>
donor molecule, donor type, donor heavy atom, donor atom, acceptor molecule, acceptor atom, score
      L1  H     4    25       P1  7948  0.96
      L1  H    18    40       P1  8028  2.00

> <Gold.PLP.Chemscore.Internal.Correction>
0.1458

> <Gold.Rescore>
     Score         DG    S(hbond)    S(metal)    S(lipo)     H(rot)  DE(clash)    DE(int)     intcor
     19.66     -20.28       1.98        0.00      99.37       1.35       0.24       0.38       ----

> <Gold.Chemscore.Fitness>
19.6619

> <Gold.Chemscore.DG>
-20.2778

> <Gold.Chemscore.ZeroCoef>
-5.4800

> <Gold.Chemscore.Hbond>
1.9805

> <Gold.Chemscore.Metal>
0.0000

> <Gold.Chemscore.Lipo>
99.3724

> <Gold.Chemscore.Internal_Hbond>
0.0000

> <Gold.Chemscore.DEClash>
0.2390

> <Gold.Chemscore.DEInternal>
0.3768

> <Gold.Chemscore.Rot>
1.3452

> <Gold.Chemscore.Internal.Correction>
   9.000000E+99

> <Gold.Chemscore.Hbonds>
donor molecule, donor type, donor heavy atom, donor atom, acceptor molecule, acceptor atom, score
      L1  H     4    25       P1  7948  0.92
      L1  H    18    40       P1  8028  0.96

> <Gold.Chemscore.Hbond.Weighted>
-6.6150

> <Gold.Chemscore.Metal.Weighted>
-0.0000

> <Gold.Chemscore.Lipo.Weighted>
-11.6266

> <Gold.Chemscore.Internal_Hbond.Weighted>
0.0000

> <Gold.Chemscore.DEClash.Weighted>
0.2390

> <Gold.Chemscore.DEInternal.Weighted>
0.3768

> <Gold.Chemscore.Rot.Weighted>
3.4438

> <Gold.Chemscore.Internal.Correction.Weighted>
   9.000000E+99

> <Gold.Protein.RotatedTorsions>
[ 6907 6896 6895 6894 ] final -147.01 input  -60.11 | X-H torsion
[ 7974 7965 7964 7962 ] final  -12.50 input  175.53 | X-H torsion
[ 8008 7997 7996 7995 ] final -177.66 input   59.86 | X-H torsion
[ 10167 10162 10161 10158 ] final -170.41 input  -65.29 | X-H torsion
[ 10718 10713 10712 10709 ] final  102.41 input   66.30 | X-H torsion
[ 10763 10752 10751 10750 ] final    5.96 input  -60.55 | X-H torsion
[ 11005 11000 10999 10996 ] final   41.49 input  -57.11 | X-H torsion

> <Gold.Protein.ActiveResidues>
 VAL166  LYS551  ARG553  GLY616  TRP617  ASP618  TYR619  PRO620  LYS621  CYS622 
 ASP623  PHE694  ASN695  SER759  ASP760  ASP761  ALA762  ILE779  LEU786  VAL792 
 PHE793  MET794  SER795  GLU796  ALA797  LYS798  CYS799  TRP800  GLU811  SER814 

> <Gold.Protein.RotatedAtoms>
  151.1496  133.4916  159.2595 H   0  0  0  0  0  0  0  0  0  0  0  0  # atno 6907 bound_to 6896
  151.1568  135.0253  159.8702 H   0  0  0  0  0  0  0  0  0  0  0  0  # atno 6908 bound_to 6896
  152.5463  134.1374  159.8518 H   0  0  0  0  0  0  0  0  0  0  0  0  # atno 6909 bound_to 6896
  146.2150  140.3066  142.8379 H   0  0  0  0  0  0  0  0  0  0  0  0  # atno 7974 bound_to 7965
  156.0096  140.1238  157.0467 H   0  0  0  0  0  0  0  0  0  0  0  0  # atno 8008 bound_to 7997
  154.4271  140.1090  156.5880 H   0  0  0  0  0  0  0  0  0  0  0  0  # atno 8009 bound_to 7997
  155.6099  140.3471  155.4621 H   0  0  0  0  0  0  0  0  0  0  0  0  # atno 8010 bound_to 7997
  139.5864  144.1310  152.1580 H   0  0  0  0  0  0  0  0  0  0  0  0  # atno 10167 bound_to 10162
  157.6803  131.0752  150.5399 H   0  0  0  0  0  0  0  0  0  0  0  0  # atno 10718 bound_to 10713
  153.2533  135.6916  153.7656 H   0  0  0  0  0  0  0  0  0  0  0  0  # atno 10763 bound_to 10752
  153.6742  135.3339  155.3162 H   0  0  0  0  0  0  0  0  0  0  0  0  # atno 10764 bound_to 10752
  154.8402  135.4507  154.1498 H   0  0  0  0  0  0  0  0  0  0  0  0  # atno 10765 bound_to 10752
  140.1829  134.4081  155.8190 H   0  0  0  0  0  0  0  0  0  0  0  0  # atno 11005 bound_to 11000
  144.9018  140.7652  143.5862 LP  0  0  0  0  0  0  0  0  0  0  0  0  # atno 17320 bound_to 7965
  145.2992  139.1856  143.4698 LP  0  0  0  0  0  0  0  0  0  0  0  0  # atno 17321 bound_to 7965
  140.0874  144.5649  150.7079 LP  0  0  0  0  0  0  0  0  0  0  0  0  # atno 17342 bound_to 10162
  140.7135  143.2524  151.4508 LP  0  0  0  0  0  0  0  0  0  0  0  0  # atno 17343 bound_to 10162
  156.5707  130.4279  149.6021 LP  0  0  0  0  0  0  0  0  0  0  0  0  # atno 17370 bound_to 10713
  156.2743  130.7035  151.1841 LP  0  0  0  0  0  0  0  0  0  0  0  0  # atno 17371 bound_to 10713
  141.2224  133.7009  156.7962 LP  0  0  0  0  0  0  0  0  0  0  0  0  # atno 17394 bound_to 11000
  140.2247  134.8731  157.3414 LP  0  0  0  0  0  0  0  0  0  0  0  0  # atno 17395 bound_to 11000

$$$$
