AV-unprocessed.smi:157|AV-procd|sdf|1298|dock3
  -GOLD-   2262018583D 1   1.00000     0.00000
 Structure written by MMmdl.
 35 37  0  0  0  0  0  0  0  0  1 V2000
  150.2447  144.4192  161.3633 O   0  0  0  0  0  0  0  0  0  0  0  0
  150.6828  144.3554  160.0223 C   0  0  0  0  0  0  0  0  0  0  0  0
  152.1650  143.9324  159.9479 C   0  0  2  0  0  0  0  0  0  0  0  0
  152.4304  143.5441  158.5987 O   0  0  0  0  0  0  0  0  0  0  0  0
  152.6190  142.1615  158.5070 C   0  0  2  0  0  0  0  0  0  0  0  0
  151.7479  141.6231  157.4149 N   0  0  0  0  0  0  0  0  0  0  0  0
  150.8008  142.2939  156.7451 C   0  0  0  0  0  0  0  0  0  0  0  0
  150.1613  141.5796  155.8347 N   0  0  0  0  0  0  0  0  0  0  0  0
  150.7514  140.3201  155.9207 C   0  0  0  0  0  0  0  0  0  0  0  0
  151.7387  140.3256  156.8957 C   0  0  0  0  0  0  0  0  0  0  0  0
  152.6206  139.4029  157.4252 N   0  0  0  0  0  0  0  0  0  0  0  0
  152.8648  138.3314  156.7386 C   0  0  0  0  0  0  0  0  0  0  0  0
  152.3052  137.8812  155.5514 N   0  0  0  0  0  0  0  0  0  0  0  0
  150.8727  137.8335  155.3125 C   0  0  0  0  0  0  0  0  0  0  0  0
  150.2500  139.2091  155.0441 C   0  0  2  0  0  0  0  0  0  0  0  0
  150.5119  139.5873  153.7082 O   0  0  0  0  0  0  0  0  0  0  0  0
  152.2145  141.5597  159.8496 C   0  0  0  0  0  0  0  0  0  0  0  0
  152.5584  142.6999  160.7812 C   0  0  2  0  0  0  0  0  0  0  0  0
  151.8885  142.5821  162.0200 O   0  0  0  0  0  0  0  0  0  0  0  0
  152.7994  144.7846  160.1953 H   0  0  0  0  0  0  0  0  0  0  0  0
  153.6467  141.9436  158.2141 H   0  0  0  0  0  0  0  0  0  0  0  0
  149.1672  139.1220  155.1404 H   0  0  0  0  0  0  0  0  0  0  0  0
  153.6348  142.7103  160.9588 H   0  0  0  0  0  0  0  0  0  0  0  0
  149.7450  143.6398  161.5536 H   0  0  0  0  0  0  0  0  0  0  0  0
  150.0424  143.6844  159.4497 H   0  0  0  0  0  0  0  0  0  0  0  0
  150.5618  145.3510  159.5948 H   0  0  0  0  0  0  0  0  0  0  0  0
  150.5682  143.3317  156.9312 H   0  0  0  0  0  0  0  0  0  0  0  0
  153.6169  137.6363  157.1142 H   0  0  0  0  0  0  0  0  0  0  0  0
  152.7850  137.1562  155.0378 H   0  0  0  0  0  0  0  0  0  0  0  0
  150.6551  137.1430  154.4972 H   0  0  0  0  0  0  0  0  0  0  0  0
  150.4106  137.4066  156.2039 H   0  0  0  0  0  0  0  0  0  0  0  0
  149.6876  139.6306  153.2475 H   0  0  0  0  0  0  0  0  0  0  0  0
  151.1426  141.3529  159.8569 H   0  0  0  0  0  0  0  0  0  0  0  0
  152.7602  140.6377  160.0525 H   0  0  0  0  0  0  0  0  0  0  0  0
  152.5325  142.5978  162.7117 H   0  0  0  0  0  0  0  0  0  0  0  0
  1  2  1  0  0  0  0
  1 24  1  0  0  0  0
  2  3  1  0  0  0  0
  2 25  1  0  0  0  0
  2 26  1  0  0  0  0
  3 20  1  0  0  0  0
  3 18  1  0  0  0  0
  3  4  1  0  0  0  0
  4  5  1  0  0  0  0
  5 21  1  0  0  0  0
  5  6  1  0  0  0  0
  5 17  1  0  0  0  0
  6 10  1  0  0  0  0
  6  7  1  0  0  0  0
  7  8  2  0  0  0  0
  7 27  1  0  0  0  0
  8  9  1  0  0  0  0
  9 15  1  0  0  0  0
  9 10  2  0  0  0  0
 10 11  1  0  0  0  0
 11 12  2  0  0  0  0
 12 13  1  0  0  0  0
 12 28  1  0  0  0  0
 13 14  1  0  0  0  0
 13 29  1  0  0  0  0
 14 15  1  0  0  0  0
 14 30  1  0  0  0  0
 14 31  1  0  0  0  0
 15 22  1  0  0  0  0
 15 16  1  0  0  0  0
 16 32  1  0  0  0  0
 17 18  1  0  0  0  0
 17 33  1  0  0  0  0
 17 34  1  0  0  0  0
 18 23  1  0  0  0  0
 18 19  1  0  0  0  0
 19 35  1  0  0  0  0
M  END
> <s_m_source_file>
AV-unprocessed.smi

> <i_m_source_file_index>
157

> <i_lp_mmshare_version>
43012

> <i_f3d_flags>
0

> <s_epik_input>
W09IXVtDSDJdW0NASF0xT1tDQEhdKFtDSDJdW0NAQEhdMVtPSF0pbihbY0hdbjIpYyhjMjMpTj1bQ0hdW05IXVtDSDJdW0NASF0zW09IXQ==

> <s_epik_cmdline>
J2VwaWtfcHl0aG9uJywgJy1waCcsICc3LjAnLCAnLXRuJywgJzgnLCAnLW1hJywgJzIwMCcsICctbWV0YWxfYmluZGluZycsICctaW1hZScsICc8aW5maWxlLm1hZT4nLCAnLW9tYWUnLCAnPG91dGZpbGUubWFlPic=

> <r_lp_tautomer_probability>
1

> <r_epik_Ionization_Penalty>
0.0357149

> <r_epik_Ionization_Penalty_Charging>
0.0355056

> <r_epik_Ionization_Penalty_Neutral>
0.000209255

> <r_epik_State_Penalty>
0.0296046

> <r_epik_Charging_Adjusted_Penalty>
0.0651102

> <i_epik_Tot_Q>
0

> <i_epik_Tot_abs_Q>
0

> <r_epik_Metal_State_Penalty>
3.03559e-05

> <b_epik_Metal_Only>
0

> <s_epik_Chemistry_Notes>
This compound has an imine and may undergo hydrolysis. This compound contains an acetal/aminal-like group ( X-CH(R)-Y where X, Y are N, S, or O) that may be acid/base labile, releasing an aldehyde.

> <s_lp_Force_Field>
OPLS_2005

> <r_lp_Energy>
46.5194

> <b_lp_Chiralities_Consistent>
1

> <s_lp_Variant>
AV-unprocessed.smi:157-8

> <Gold.Version>
5.8.1

> <Gold.Id.Protein>
6NUR|6NUR_protein|mol2

> <Gold.PLP.Fitness>
44.2991

> <Gold.PLP.PLP>
-34.2673

> <Gold.PLP.part.hbond>
-7.4688

> <Gold.PLP.part.metal>
0.0000

> <Gold.PLP.part.buried>
-4.2823

> <Gold.PLP.part.nonpolar>
-21.9832

> <Gold.PLP.part.repulsive>
0.2597

> <Gold.PLP.ligand.clash>
0.0000

> <Gold.PLP.ligand.torsion>
0.2613

> <Gold.PLP.Chemscore.Hbond>
2.5814

> <Gold.PLP.Chemscore.CHOScore>
0.9328

> <Gold.PLP.Chemscore.Metal>
0.0000

> <Gold.Chemscore.Hbonds>
donor molecule, donor type, donor heavy atom, donor atom, acceptor molecule, acceptor atom, score
      L1  H    16    32       P1  7957  0.32
      P1  H  6933  6945       L1    19  0.90
      P1  H  7989  7998       L1    16  0.96
      P1  H  7997  8009       L1    11  0.35
      L1  C     7    27       P1  8028  0.93

> <Gold.PLP.Chemscore.Internal.Correction>
0.0117

> <Gold.Rescore>
     Score         DG    S(hbond)    S(metal)    S(lipo)     H(rot)  DE(clash)    DE(int)     intcor
      7.15     -10.24       2.15        0.00      58.77       3.64       2.89       0.20       ----

> <Gold.Chemscore.Fitness>
7.1480

> <Gold.Chemscore.DG>
-10.2361

> <Gold.Chemscore.ZeroCoef>
-5.4800

> <Gold.Chemscore.Hbond>
2.1522

> <Gold.Chemscore.Metal>
0.0000

> <Gold.Chemscore.Lipo>
58.7736

> <Gold.Chemscore.Internal_Hbond>
0.0000

> <Gold.Chemscore.DEClash>
2.8875

> <Gold.Chemscore.DEInternal>
0.2006

> <Gold.Chemscore.Rot>
3.6362

> <Gold.Chemscore.Internal.Correction>
   9.000000E+99

> <Gold.Chemscore.Hbonds>
donor molecule, donor type, donor heavy atom, donor atom, acceptor molecule, acceptor atom, score
      L1  H    16    32       P1  7957  0.31
      P1  H  6933  6945       L1    19  0.81
      P1  H  7989  7998       L1    16  0.83
      P1  H  7997  8009       L1    11  0.01

> <Gold.Chemscore.Hbond.Weighted>
-7.1883

> <Gold.Chemscore.Metal.Weighted>
-0.0000

> <Gold.Chemscore.Lipo.Weighted>
-6.8765

> <Gold.Chemscore.Internal_Hbond.Weighted>
0.0000

> <Gold.Chemscore.DEClash.Weighted>
2.8875

> <Gold.Chemscore.DEInternal.Weighted>
0.2006

> <Gold.Chemscore.Rot.Weighted>
9.3087

> <Gold.Chemscore.Internal.Correction.Weighted>
   9.000000E+99

> <Gold.Protein.RotatedTorsions>
[ 6907 6896 6895 6894 ] final  -77.95 input  -60.11 | X-H torsion
[ 7974 7965 7964 7962 ] final   56.36 input  175.53 | X-H torsion
[ 8008 7997 7996 7995 ] final  157.49 input   59.86 | X-H torsion
[ 10167 10162 10161 10158 ] final    4.25 input  -65.29 | X-H torsion
[ 10718 10713 10712 10709 ] final    4.34 input   66.30 | X-H torsion
[ 10763 10752 10751 10750 ] final  130.93 input  -60.55 | X-H torsion
[ 11005 11000 10999 10996 ] final  151.39 input  -57.11 | X-H torsion

> <Gold.Protein.ActiveResidues>
 VAL166  LYS551  ARG553  GLY616  TRP617  ASP618  TYR619  PRO620  LYS621  CYS622 
 ASP623  PHE694  ASN695  SER759  ASP760  ASP761  ALA762  ILE779  LEU786  VAL792 
 PHE793  MET794  SER795  GLU796  ALA797  LYS798  CYS799  TRP800  GLU811  SER814 

> <Gold.Protein.RotatedAtoms>
  150.6985  134.4345  159.5263 H   0  0  0  0  0  0  0  0  0  0  0  0  # atno 6907 bound_to 6896
  152.2066  134.8537  160.0511 H   0  0  0  0  0  0  0  0  0  0  0  0  # atno 6908 bound_to 6896
  151.9438  133.3610  159.4011 H   0  0  0  0  0  0  0  0  0  0  0  0  # atno 6909 bound_to 6896
  145.9406  139.3885  143.0366 H   0  0  0  0  0  0  0  0  0  0  0  0  # atno 7974 bound_to 7965
  156.2361  140.1884  156.7116 H   0  0  0  0  0  0  0  0  0  0  0  0  # atno 8008 bound_to 7997
  154.6108  140.0622  156.9519 H   0  0  0  0  0  0  0  0  0  0  0  0  # atno 8009 bound_to 7997
  155.2019  140.3293  155.4344 H   0  0  0  0  0  0  0  0  0  0  0  0  # atno 8010 bound_to 7997
  140.6544  143.7464  150.7629 H   0  0  0  0  0  0  0  0  0  0  0  0  # atno 10167 bound_to 10162
  156.8911  130.5688  149.5650 H   0  0  0  0  0  0  0  0  0  0  0  0  # atno 10718 bound_to 10713
  153.7660  135.3189  155.3344 H   0  0  0  0  0  0  0  0  0  0  0  0  # atno 10763 bound_to 10752
  154.8213  135.4601  154.0790 H   0  0  0  0  0  0  0  0  0  0  0  0  # atno 10764 bound_to 10752
  153.2036  135.6926  153.8285 H   0  0  0  0  0  0  0  0  0  0  0  0  # atno 10765 bound_to 10752
  140.1215  134.8860  157.2078 H   0  0  0  0  0  0  0  0  0  0  0  0  # atno 11005 bound_to 11000
  145.8304  140.9633  143.0852 LP  0  0  0  0  0  0  0  0  0  0  0  0  # atno 17320 bound_to 7965
  144.6778  140.0156  143.7484 LP  0  0  0  0  0  0  0  0  0  0  0  0  # atno 17321 bound_to 7965
  140.1120  143.4690  152.2364 LP  0  0  0  0  0  0  0  0  0  0  0  0  # atno 17342 bound_to 10162
  139.5764  144.7489  151.3753 LP  0  0  0  0  0  0  0  0  0  0  0  0  # atno 17343 bound_to 10162
  156.0628  130.5678  150.9228 LP  0  0  0  0  0  0  0  0  0  0  0  0  # atno 17370 bound_to 10713
  157.6083  131.0938  150.8840 LP  0  0  0  0  0  0  0  0  0  0  0  0  # atno 17371 bound_to 10713
  140.2959  134.3187  155.7302 LP  0  0  0  0  0  0  0  0  0  0  0  0  # atno 17394 bound_to 11000
  141.2152  133.7562  156.9571 LP  0  0  0  0  0  0  0  0  0  0  0  0  # atno 17395 bound_to 11000

$$$$
