AV-unprocessed.smi:2956|AV-procd|sdf|11305|dock6
  -GOLD-   2272016203D 1   1.00000     0.00000
 Structure written by MMmdl.
 25 26  0  0  0  0  0  0  0  0  1 V2000
  150.3563  140.0836  154.1304 O   0  0  0  0  0  0  0  0  0  0  0  0
  150.1964  140.2237  155.3440 C   0  0  0  0  0  0  0  0  0  0  0  0
  151.3425  139.9479  156.3295 C   0  0  0  0  0  0  0  0  0  0  0  0
  151.6047  141.0595  157.2563 N   0  0  0  0  0  0  0  0  0  0  0  0
  150.8790  142.2055  156.9811 N   0  0  0  0  0  0  0  0  0  0  0  0
  151.0136  143.2389  157.7386 C   0  0  0  0  0  0  0  0  0  0  0  0
  151.9067  143.2494  158.8759 C   0  0  0  0  0  0  0  0  0  0  0  0
  152.0443  144.6659  159.8570 Cl  0  0  0  0  0  0  0  0  0  0  0  0
  152.6181  142.1232  159.1336 C   0  0  0  0  0  0  0  0  0  0  0  0
  153.7071  142.0596  160.4767 Cl  0  0  0  0  0  0  0  0  0  0  0  0
  152.4911  140.9261  158.2908 C   0  0  0  0  0  0  0  0  0  0  0  0
  153.1211  139.8863  158.4892 O   0  0  0  0  0  0  0  0  0  0  0  0
  149.0338  140.6025  155.8943 N   0  0  0  0  0  0  0  0  0  0  0  0
  147.8399  140.9144  155.1775 C   0  0  0  0  0  0  0  0  0  0  0  0
  147.5262  140.0882  153.9487 C   0  0  0  0  0  0  0  0  0  0  0  0
  147.9820  141.5131  153.7950 C   0  0  0  0  0  0  0  0  0  0  0  0
  151.1233  139.0376  156.8908 H   0  0  0  0  0  0  0  0  0  0  0  0
  152.2397  139.7232  155.7498 H   0  0  0  0  0  0  0  0  0  0  0  0
  150.4610  144.1618  157.5623 H   0  0  0  0  0  0  0  0  0  0  0  0
  148.9932  140.6855  156.8999 H   0  0  0  0  0  0  0  0  0  0  0  0
  146.9799  141.2454  155.7583 H   0  0  0  0  0  0  0  0  0  0  0  0
  148.2276  139.3047  153.6679 H   0  0  0  0  0  0  0  0  0  0  0  0
  146.4801  139.8712  153.7427 H   0  0  0  0  0  0  0  0  0  0  0  0
  147.2399  142.2481  153.4895 H   0  0  0  0  0  0  0  0  0  0  0  0
  148.9874  141.6813  153.4137 H   0  0  0  0  0  0  0  0  0  0  0  0
  1  2  2  0  0  0  0
  2  3  1  0  0  0  0
  2 13  1  0  0  0  0
  3  4  1  0  0  0  0
  3 17  1  0  0  0  0
  3 18  1  0  0  0  0
  4 11  1  0  0  0  0
  4  5  1  0  0  0  0
  5  6  2  0  0  0  0
  6  7  1  0  0  0  0
  6 19  1  0  0  0  0
  7  8  1  0  0  0  0
  7  9  2  0  0  0  0
  9 10  1  0  0  0  0
  9 11  1  0  0  0  0
 11 12  2  0  0  0  0
 13 14  1  0  0  0  0
 13 20  1  0  0  0  0
 14 16  1  0  0  0  0
 14 15  1  0  0  0  0
 14 21  1  0  0  0  0
 15 16  1  0  0  0  0
 15 22  1  0  0  0  0
 15 23  1  0  0  0  0
 16 24  1  0  0  0  0
 16 25  1  0  0  0  0
M  END
> <s_m_source_file>
AV-unprocessed.smi

> <i_m_source_file_index>
2956

> <i_lp_mmshare_version>
43012

> <i_f3d_flags>
0

> <s_epik_input>
W0NIMl0xW0NIMl1bQ0hdMVtOSF1DKD1PKVtDSDJdbjJuW2NIXWMoQ2wpYyhDbCljMj1P

> <s_epik_cmdline>
J2VwaWtfcHl0aG9uJywgJy1waCcsICc3LjAnLCAnLXRuJywgJzgnLCAnLW1hJywgJzIwMCcsICctbWV0YWxfYmluZGluZycsICctaW1hZScsICc8aW5maWxlLm1hZT4nLCAnLW9tYWUnLCAnPG91dGZpbGUubWFlPic=

> <r_lp_tautomer_probability>
1

> <r_epik_Ionization_Penalty>
2.06989e-08

> <r_epik_Ionization_Penalty_Charging>
2.85155e-11

> <r_epik_Ionization_Penalty_Neutral>
2.06703e-08

> <r_epik_State_Penalty>
-0

> <r_epik_Charging_Adjusted_Penalty>
2.85155e-11

> <i_epik_Tot_Q>
0

> <i_epik_Tot_abs_Q>
0

> <r_epik_Metal_State_Penalty>
-0

> <b_epik_Metal_Only>
0

> <s_lp_Force_Field>
OPLS_2005

> <r_lp_Energy>
29.5671

> <b_lp_Chiralities_Consistent>
1

> <s_lp_Variant>
AV-unprocessed.smi:2956-1

> <Gold.Version>
5.8.1

> <Gold.Id.Protein>
6NUR|6NUR_protein|mol2

> <Gold.PLP.Fitness>
40.8863

> <Gold.PLP.PLP>
-32.8760

> <Gold.PLP.part.hbond>
-1.9344

> <Gold.PLP.part.metal>
0.0000

> <Gold.PLP.part.buried>
-4.6548

> <Gold.PLP.part.nonpolar>
-26.6073

> <Gold.PLP.part.repulsive>
0.9153

> <Gold.PLP.ligand.clash>
0.0000

> <Gold.PLP.ligand.torsion>
0.4474

> <Gold.PLP.Chemscore.Hbond>
1.9913

> <Gold.PLP.Chemscore.CHOScore>
0.9653

> <Gold.PLP.Chemscore.Metal>
0.0000

> <Gold.Chemscore.Hbonds>
donor molecule, donor type, donor heavy atom, donor atom, acceptor molecule, acceptor atom, score
      P1  H  7989  7998       L1     1  1.00
      P1  H  7997  8010       L1    12  0.88
      L1  C     6    19       P1  8028  1.00

> <Gold.PLP.Chemscore.Internal.Correction>
0.0354

> <Gold.Rescore>
     Score         DG    S(hbond)    S(metal)    S(lipo)     H(rot)  DE(clash)    DE(int)     intcor
     12.78     -15.99       1.77        0.00      74.25       1.59       0.09       3.11       ----

> <Gold.Chemscore.Fitness>
12.7836

> <Gold.Chemscore.DG>
-15.9872

> <Gold.Chemscore.ZeroCoef>
-5.4800

> <Gold.Chemscore.Hbond>
1.7657

> <Gold.Chemscore.Metal>
0.0000

> <Gold.Chemscore.Lipo>
74.2511

> <Gold.Chemscore.Internal_Hbond>
0.0000

> <Gold.Chemscore.DEClash>
0.0894

> <Gold.Chemscore.DEInternal>
3.1142

> <Gold.Chemscore.Rot>
1.5928

> <Gold.Chemscore.Internal.Correction>
   9.000000E+99

> <Gold.Chemscore.Hbonds>
donor molecule, donor type, donor heavy atom, donor atom, acceptor molecule, acceptor atom, score
      P1  H  7989  7998       L1     1  0.89
      P1  H  7997  8010       L1    12  0.22

> <Gold.Chemscore.Hbond.Weighted>
-5.8973

> <Gold.Chemscore.Metal.Weighted>
-0.0000

> <Gold.Chemscore.Lipo.Weighted>
-8.6874

> <Gold.Chemscore.Internal_Hbond.Weighted>
0.0000

> <Gold.Chemscore.DEClash.Weighted>
0.0894

> <Gold.Chemscore.DEInternal.Weighted>
3.1142

> <Gold.Chemscore.Rot.Weighted>
4.0775

> <Gold.Chemscore.Internal.Correction.Weighted>
   9.000000E+99

> <Gold.Protein.RotatedTorsions>
[ 6907 6896 6895 6894 ] final  -53.82 input  -60.11 | X-H torsion
[ 7974 7965 7964 7962 ] final  -54.34 input  175.53 | X-H torsion
[ 8008 7997 7996 7995 ] final   37.49 input   59.86 | X-H torsion
[ 10167 10162 10161 10158 ] final   84.63 input  -65.29 | X-H torsion
[ 10718 10713 10712 10709 ] final   72.26 input   66.30 | X-H torsion
[ 10763 10752 10751 10750 ] final  -72.13 input  -60.55 | X-H torsion
[ 11005 11000 10999 10996 ] final  141.94 input  -57.11 | X-H torsion

> <Gold.Protein.ActiveResidues>
 VAL166  LYS551  ARG553  GLY616  TRP617  ASP618  TYR619  PRO620  LYS621  CYS622 
 ASP623  PHE694  ASN695  SER759  ASP760  ASP761  ALA762  ILE779  LEU786  VAL792 
 PHE793  MET794  SER795  GLU796  ALA797  LYS798  CYS799  TRP800  GLU811  SER814 

> <Gold.Protein.RotatedAtoms>
  150.8393  134.7679  159.6918 H   0  0  0  0  0  0  0  0  0  0  0  0  # atno 6907 bound_to 6896
  152.4483  134.5444  159.9858 H   0  0  0  0  0  0  0  0  0  0  0  0  # atno 6908 bound_to 6896
  151.5587  133.3368  159.3002 H   0  0  0  0  0  0  0  0  0  0  0  0  # atno 6909 bound_to 6896
  145.8867  140.8102  142.9812 H   0  0  0  0  0  0  0  0  0  0  0  0  # atno 7974 bound_to 7965
  155.2046  140.3318  155.4338 H   0  0  0  0  0  0  0  0  0  0  0  0  # atno 8008 bound_to 7997
  156.2394  140.1887  156.7080 H   0  0  0  0  0  0  0  0  0  0  0  0  # atno 8009 bound_to 7997
  154.6118  140.0608  156.9489 H   0  0  0  0  0  0  0  0  0  0  0  0  # atno 8010 bound_to 7997
  139.9060  144.6300  150.8587 H   0  0  0  0  0  0  0  0  0  0  0  0  # atno 10167 bound_to 10162
  157.6492  130.9569  150.0903 H   0  0  0  0  0  0  0  0  0  0  0  0  # atno 10718 bound_to 10713
  154.4414  135.5940  153.6132 H   0  0  0  0  0  0  0  0  0  0  0  0  # atno 10763 bound_to 10752
  152.9806  135.5999  154.3717 H   0  0  0  0  0  0  0  0  0  0  0  0  # atno 10764 bound_to 10752
  154.3567  135.2841  155.2321 H   0  0  0  0  0  0  0  0  0  0  0  0  # atno 10765 bound_to 10752
  140.0439  134.9290  157.0894 H   0  0  0  0  0  0  0  0  0  0  0  0  # atno 11005 bound_to 11000
  144.6729  140.1467  143.7433 LP  0  0  0  0  0  0  0  0  0  0  0  0  # atno 17320 bound_to 7965
  145.8958  139.2402  143.1523 LP  0  0  0  0  0  0  0  0  0  0  0  0  # atno 17321 bound_to 7965
  140.7696  143.3401  151.2226 LP  0  0  0  0  0  0  0  0  0  0  0  0  # atno 17342 bound_to 10162
  139.6983  143.9575  152.2893 LP  0  0  0  0  0  0  0  0  0  0  0  0  # atno 17343 bound_to 10162
  156.1854  130.3652  149.8979 LP  0  0  0  0  0  0  0  0  0  0  0  0  # atno 17370 bound_to 10713
  156.6921  130.8900  151.3589 LP  0  0  0  0  0  0  0  0  0  0  0  0  # atno 17371 bound_to 10713
  140.4024  134.2068  155.7163 LP  0  0  0  0  0  0  0  0  0  0  0  0  # atno 17394 bound_to 11000
  141.1897  133.8232  157.0946 LP  0  0  0  0  0  0  0  0  0  0  0  0  # atno 17395 bound_to 11000

$$$$
