AV-unprocessed.smi:2314|AV-procd|sdf|9267|dock7
  -GOLD-   2272012493D 1   1.00000     0.00000
 Structure written by MMmdl.
 37 38  0  0  0  0  0  0  0  0  1 V2000
  143.7748  133.4144  151.6821 C   0  0  0  0  0  0  0  0  0  0  0  0
  143.9212  134.5797  152.6771 C   0  0  0  0  0  0  0  0  0  0  0  0
  142.5586  135.0574  153.2029 C   0  0  0  0  0  0  0  0  0  0  0  0
  144.6769  135.7105  152.1196 N   0  0  0  0  0  0  0  0  0  0  0  0
  145.2449  135.6855  150.7812 C   0  0  0  0  0  0  0  0  0  0  0  0
  145.7083  137.1225  150.5228 C   0  0  0  0  0  0  0  0  0  0  0  0
  145.7411  137.8283  151.8880 C   0  0  2  0  0  0  0  0  0  0  0  0
  147.1182  137.9182  152.3683 N   0  0  0  0  0  0  0  0  0  0  0  0
  147.5830  138.8493  153.2139 C   0  0  0  0  0  0  0  0  0  0  0  0
  146.9015  139.7775  153.6491 O   0  0  0  0  0  0  0  0  0  0  0  0
  148.8789  138.6455  153.5017 N   0  0  0  0  0  0  0  0  0  0  0  0
  149.6932  139.4201  154.3674 C   0  0  0  0  0  0  0  0  0  0  0  0
  149.2578  140.7176  154.7076 C   0  0  0  0  0  0  0  0  0  0  0  0
  150.0696  141.5052  155.5482 C   0  0  0  0  0  0  0  0  0  0  0  0
  151.2566  141.0881  156.0371 N   0  0  0  0  0  0  0  0  0  0  0  0
  151.6833  139.8555  155.6882 C   0  0  0  0  0  0  0  0  0  0  0  0
  150.9517  138.9870  154.8529 C   0  0  0  0  0  0  0  0  0  0  0  0
  151.4754  137.7855  154.5103 F   0  0  0  0  0  0  0  0  0  0  0  0
  144.9498  136.8553  152.7605 C   0  0  0  0  0  0  0  0  0  0  0  0
  144.6044  137.1333  153.9087 O   0  0  0  0  0  0  0  0  0  0  0  0
  143.2889  132.5608  152.1556 H   0  0  0  0  0  0  0  0  0  0  0  0
  144.7479  133.0769  151.3245 H   0  0  0  0  0  0  0  0  0  0  0  0
  143.1729  133.6909  150.8159 H   0  0  0  0  0  0  0  0  0  0  0  0
  144.4836  134.1895  153.5273 H   0  0  0  0  0  0  0  0  0  0  0  0
  142.0042  134.2359  153.6573 H   0  0  0  0  0  0  0  0  0  0  0  0
  141.9461  135.4684  152.4000 H   0  0  0  0  0  0  0  0  0  0  0  0
  142.6763  135.8316  153.9621 H   0  0  0  0  0  0  0  0  0  0  0  0
  146.0931  134.9998  150.7562 H   0  0  0  0  0  0  0  0  0  0  0  0
  144.5145  135.3593  150.0396 H   0  0  0  0  0  0  0  0  0  0  0  0
  146.6640  137.1554  149.9973 H   0  0  0  0  0  0  0  0  0  0  0  0
  144.9805  137.6225  149.8820 H   0  0  0  0  0  0  0  0  0  0  0  0
  145.2585  138.8063  151.8432 H   0  0  0  0  0  0  0  0  0  0  0  0
  147.7537  137.1979  152.0576 H   0  0  0  0  0  0  0  0  0  0  0  0
  149.3527  137.9263  152.9755 H   0  0  0  0  0  0  0  0  0  0  0  0
  148.3168  141.1021  154.3424 H   0  0  0  0  0  0  0  0  0  0  0  0
  149.7576  142.4989  155.8333 H   0  0  0  0  0  0  0  0  0  0  0  0
  152.6463  139.5570  156.0751 H   0  0  0  0  0  0  0  0  0  0  0  0
  1  2  1  0  0  0  0
  1 21  1  0  0  0  0
  1 22  1  0  0  0  0
  1 23  1  0  0  0  0
  2  3  1  0  0  0  0
  2  4  1  0  0  0  0
  2 24  1  0  0  0  0
  3 25  1  0  0  0  0
  3 26  1  0  0  0  0
  3 27  1  0  0  0  0
  4 19  1  0  0  0  0
  4  5  1  0  0  0  0
  5  6  1  0  0  0  0
  5 28  1  0  0  0  0
  5 29  1  0  0  0  0
  6  7  1  0  0  0  0
  6 30  1  0  0  0  0
  6 31  1  0  0  0  0
  7  8  1  0  0  0  0
  7 19  1  0  0  0  0
  7 32  1  0  0  0  0
  8  9  1  0  0  0  0
  8 33  1  0  0  0  0
  9 10  2  0  0  0  0
  9 11  1  0  0  0  0
 11 12  1  0  0  0  0
 11 34  1  0  0  0  0
 12 17  1  0  0  0  0
 12 13  2  0  0  0  0
 13 14  1  0  0  0  0
 13 35  1  0  0  0  0
 14 15  2  0  0  0  0
 14 36  1  0  0  0  0
 15 16  1  0  0  0  0
 16 17  2  0  0  0  0
 16 37  1  0  0  0  0
 17 18  1  0  0  0  0
 19 20  2  0  0  0  0
M  END
> <s_m_source_file>
AV-unprocessed.smi

> <i_m_source_file_index>
2314

> <i_lp_mmshare_version>
43012

> <i_f3d_flags>
0

> <s_epik_input>
W0NIM11bQ0hdKFtDSDNdKU4xW0NIMl1bQ0gyXVtDQEhdKEMxPU8pW05IXUMoPU8pW05IXWMyW2NIXVtjSF1uW2NIXWMyRg==

> <s_epik_cmdline>
J2VwaWtfcHl0aG9uJywgJy1waCcsICc3LjAnLCAnLXRuJywgJzgnLCAnLW1hJywgJzIwMCcsICctbWV0YWxfYmluZGluZycsICctaW1hZScsICc8aW5maWxlLm1hZT4nLCAnLW9tYWUnLCAnPG91dGZpbGUubWFlPic=

> <r_epik_Ionization_Penalty>
0.00267735

> <r_epik_Ionization_Penalty_Charging>
0

> <r_epik_Ionization_Penalty_Neutral>
0.00267735

> <r_epik_State_Penalty>
0.00184148

> <r_epik_Charging_Adjusted_Penalty>
0.00184148

> <i_epik_Tot_Q>
0

> <i_epik_Tot_abs_Q>
0

> <r_epik_Metal_State_Penalty>
-0

> <b_epik_Metal_Only>
0

> <s_lp_Force_Field>
OPLS_2005

> <r_lp_Energy>
28.4638

> <b_lp_Chiralities_Consistent>
1

> <s_lp_Variant>
AV-unprocessed.smi:2314-2

> <Gold.Version>
5.8.1

> <Gold.Id.Protein>
6NUR|6NUR_protein|mol2

> <Gold.PLP.Fitness>
44.5772

> <Gold.PLP.PLP>
-36.8134

> <Gold.PLP.part.hbond>
-3.1904

> <Gold.PLP.part.metal>
0.0000

> <Gold.PLP.part.buried>
2.8026

> <Gold.PLP.part.nonpolar>
-37.7527

> <Gold.PLP.part.repulsive>
0.4404

> <Gold.PLP.ligand.clash>
0.0396

> <Gold.PLP.ligand.torsion>
0.4598

> <Gold.PLP.Chemscore.Hbond>
1.8406

> <Gold.PLP.Chemscore.CHOScore>
1.0000

> <Gold.PLP.Chemscore.Metal>
0.0000

> <Gold.Chemscore.Hbonds>
donor molecule, donor type, donor heavy atom, donor atom, acceptor molecule, acceptor atom, score
      L1  H     8    33       P1  7948  1.00
      L1  H    11    34       P1  7948  0.84
      L1  C    14    36       P1  8028  1.00

> <Gold.PLP.Chemscore.Internal.Correction>
0.2012

> <Gold.Rescore>
     Score         DG    S(hbond)    S(metal)    S(lipo)     H(rot)  DE(clash)    DE(int)     intcor
     12.30     -17.39       1.76        0.00      79.32       1.26       3.19       1.90       ----

> <Gold.Chemscore.Fitness>
12.3027

> <Gold.Chemscore.DG>
-17.3922

> <Gold.Chemscore.ZeroCoef>
-5.4800

> <Gold.Chemscore.Hbond>
1.7555

> <Gold.Chemscore.Metal>
0.0000

> <Gold.Chemscore.Lipo>
79.3237

> <Gold.Chemscore.Internal_Hbond>
0.0000

> <Gold.Chemscore.DEClash>
3.1928

> <Gold.Chemscore.DEInternal>
1.8967

> <Gold.Chemscore.Rot>
1.2626

> <Gold.Chemscore.Internal.Correction>
   9.000000E+99

> <Gold.Chemscore.Hbonds>
donor molecule, donor type, donor heavy atom, donor atom, acceptor molecule, acceptor atom, score
      L1  H     8    33       P1  7948  0.93
      L1  H    11    34       P1  7948  0.72

> <Gold.Chemscore.Hbond.Weighted>
-5.8635

> <Gold.Chemscore.Metal.Weighted>
-0.0000

> <Gold.Chemscore.Lipo.Weighted>
-9.2809

> <Gold.Chemscore.Internal_Hbond.Weighted>
0.0000

> <Gold.Chemscore.DEClash.Weighted>
3.1928

> <Gold.Chemscore.DEInternal.Weighted>
1.8967

> <Gold.Chemscore.Rot.Weighted>
3.2322

> <Gold.Chemscore.Internal.Correction.Weighted>
   9.000000E+99

> <Gold.Protein.RotatedTorsions>
[ 6907 6896 6895 6894 ] final   61.30 input  -60.11 | X-H torsion
[ 7974 7965 7964 7962 ] final -113.23 input  175.53 | X-H torsion
[ 8008 7997 7996 7995 ] final  -10.25 input   59.86 | X-H torsion
[ 10167 10162 10161 10158 ] final   70.53 input  -65.29 | X-H torsion
[ 10718 10713 10712 10709 ] final  108.98 input   66.30 | X-H torsion
[ 10763 10752 10751 10750 ] final   20.70 input  -60.55 | X-H torsion
[ 11005 11000 10999 10996 ] final   39.19 input  -57.11 | X-H torsion

> <Gold.Protein.ActiveResidues>
 VAL166  LYS551  ARG553  GLY616  TRP617  ASP618  TYR619  PRO620  LYS621  CYS622 
 ASP623  PHE694  ASN695  SER759  ASP760  ASP761  ALA762  ILE779  LEU786  VAL792 
 PHE793  MET794  SER795  GLU796  ALA797  LYS798  CYS799  TRP800  GLU811  SER814 

> <Gold.Protein.RotatedAtoms>
  152.4077  134.6179  160.0042 H   0  0  0  0  0  0  0  0  0  0  0  0  # atno 6907 bound_to 6896
  151.6365  133.3323  159.3128 H   0  0  0  0  0  0  0  0  0  0  0  0  # atno 6908 bound_to 6896
  150.7970  134.7078  159.6631 H   0  0  0  0  0  0  0  0  0  0  0  0  # atno 6909 bound_to 6896
  145.1345  140.8743  143.3738 H   0  0  0  0  0  0  0  0  0  0  0  0  # atno 7974 bound_to 7965
  154.5571  140.2333  155.8393 H   0  0  0  0  0  0  0  0  0  0  0  0  # atno 8008 bound_to 7997
  156.1998  140.3055  155.9462 H   0  0  0  0  0  0  0  0  0  0  0  0  # atno 8009 bound_to 7997
  155.2959  140.0429  157.3017 H   0  0  0  0  0  0  0  0  0  0  0  0  # atno 8010 bound_to 7997
  140.0559  144.5273  150.7329 H   0  0  0  0  0  0  0  0  0  0  0  0  # atno 10167 bound_to 10162
  157.6562  131.0905  150.6386 H   0  0  0  0  0  0  0  0  0  0  0  0  # atno 10718 bound_to 10713
  153.1056  135.6684  153.9593 H   0  0  0  0  0  0  0  0  0  0  0  0  # atno 10763 bound_to 10752
  153.9151  135.3020  155.3449 H   0  0  0  0  0  0  0  0  0  0  0  0  # atno 10764 bound_to 10752
  154.7477  135.5050  153.9309 H   0  0  0  0  0  0  0  0  0  0  0  0  # atno 10765 bound_to 10752
  140.2053  134.3821  155.8076 H   0  0  0  0  0  0  0  0  0  0  0  0  # atno 11005 bound_to 11000
  145.0599  139.3113  143.5885 LP  0  0  0  0  0  0  0  0  0  0  0  0  # atno 17320 bound_to 7965
  146.3511  140.0038  142.8673 LP  0  0  0  0  0  0  0  0  0  0  0  0  # atno 17321 bound_to 7965
  140.7195  143.2575  151.4326 LP  0  0  0  0  0  0  0  0  0  0  0  0  # atno 17342 bound_to 10162
  139.5924  144.1471  152.2104 LP  0  0  0  0  0  0  0  0  0  0  0  0  # atno 17343 bound_to 10162
  156.6693  130.4535  149.5662 LP  0  0  0  0  0  0  0  0  0  0  0  0  # atno 17370 bound_to 10713
  156.2009  130.6619  151.1166 LP  0  0  0  0  0  0  0  0  0  0  0  0  # atno 17371 bound_to 10713
  141.2227  133.7115  156.8326 LP  0  0  0  0  0  0  0  0  0  0  0  0  # atno 17394 bound_to 11000
  140.2010  134.8897  157.3169 LP  0  0  0  0  0  0  0  0  0  0  0  0  # atno 17395 bound_to 11000

$$$$
