AV-unprocessed.smi:1420|AV-procd|sdf|5788|dock5
  -GOLD-   22720 5433D 1   1.00000     0.00000
 Structure written by MMmdl.
 39 40  0  0  0  0  0  0  0  0  2 V2000
  146.3494  137.6455  154.3462 C   0  0  0  0  0  0  0  0  0  0  0  0
  146.7536  136.1537  154.3916 C   0  0  2  0  0  0  0  0  0  0  0  0
  148.1316  135.9916  155.0946 C   0  0  0  0  0  0  0  0  0  0  0  0
  149.0659  137.0694  154.7830 N   0  0  0  0  0  0  0  0  0  0  0  0
  150.4016  136.9884  154.8898 C   0  0  0  0  0  0  0  0  0  0  0  0
  150.9896  135.9791  155.2772 O   0  0  0  0  0  0  0  0  0  0  0  0
  151.1953  138.2391  154.5088 C   0  0  0  0  0  0  0  0  0  0  0  0
  150.7815  139.3863  155.2972 N   0  0  0  0  0  0  0  0  0  0  0  0
  150.7715  139.5237  156.6699 C   0  0  0  0  0  0  0  0  0  0  0  0
  150.3082  140.7774  156.9493 C   0  0  0  0  0  0  0  0  0  0  0  0
  150.0574  141.3393  155.6661 C   0  0  0  0  0  0  0  0  0  0  0  0
  150.3426  140.5051  154.6792 N   0  0  0  0  0  0  0  0  0  0  0  0
  146.7060  135.5619  153.0137 N   0  3  0  0  0  0  0  0  0  0  0  0
  146.7624  134.0750  152.9495 C   0  0  0  0  0  0  0  0  0  0  0  0
  146.7317  133.5781  151.4934 C   0  0  0  0  0  0  0  0  0  0  0  0
  145.5744  134.0718  150.8364 O   0  0  0  0  0  0  0  0  0  0  0  0
  145.5699  135.4904  150.7906 C   0  0  0  0  0  0  0  0  0  0  0  0
  145.5419  136.0481  152.2227 C   0  0  0  0  0  0  0  0  0  0  0  0
  146.3479  138.0961  155.3386 H   0  0  0  0  0  0  0  0  0  0  0  0
  145.3463  137.7980  153.9524 H   0  0  0  0  0  0  0  0  0  0  0  0
  147.0391  138.2198  153.7269 H   0  0  0  0  0  0  0  0  0  0  0  0
  146.0197  135.6199  154.9975 H   0  0  0  0  0  0  0  0  0  0  0  0
  148.0261  135.9626  156.1798 H   0  0  0  0  0  0  0  0  0  0  0  0
  148.5958  135.0504  154.7979 H   0  0  0  0  0  0  0  0  0  0  0  0
  148.6710  137.9378  154.4503 H   0  0  0  0  0  0  0  0  0  0  0  0
  152.2627  138.0617  154.6511 H   0  0  0  0  0  0  0  0  0  0  0  0
  151.0466  138.4692  153.4527 H   0  0  0  0  0  0  0  0  0  0  0  0
  151.0927  138.7270  157.3251 H   0  0  0  0  0  0  0  0  0  0  0  0
  150.1694  141.2250  157.9222 H   0  0  0  0  0  0  0  0  0  0  0  0
  149.6800  142.3219  155.4242 H   0  0  0  0  0  0  0  0  0  0  0  0
  147.6825  133.7013  153.3973 H   0  0  0  0  0  0  0  0  0  0  0  0
  145.9266  133.6516  153.5090 H   0  0  0  0  0  0  0  0  0  0  0  0
  147.6299  133.8889  150.9572 H   0  0  0  0  0  0  0  0  0  0  0  0
  146.7112  132.4883  151.4703 H   0  0  0  0  0  0  0  0  0  0  0  0
  146.4405  135.8569  150.2441 H   0  0  0  0  0  0  0  0  0  0  0  0
  144.6877  135.8215  150.2423 H   0  0  0  0  0  0  0  0  0  0  0  0
  144.6155  135.7476  152.7152 H   0  0  0  0  0  0  0  0  0  0  0  0
  145.5297  137.1347  152.1654 H   0  0  0  0  0  0  0  0  0  0  0  0
  147.5374  135.8861  152.5406 H   0  0  0  0  0  0  0  0  0  0  0  0
  1  2  1  0  0  0  0
  1 19  1  0  0  0  0
  1 20  1  0  0  0  0
  1 21  1  0  0  0  0
  2  3  1  0  0  0  0
  2 13  1  0  0  0  0
  2 22  1  0  0  0  0
  3  4  1  0  0  0  0
  3 23  1  0  0  0  0
  3 24  1  0  0  0  0
  4  5  1  0  0  0  0
  4 25  1  0  0  0  0
  5  6  2  0  0  0  0
  5  7  1  0  0  0  0
  7  8  1  0  0  0  0
  7 26  1  0  0  0  0
  7 27  1  0  0  0  0
  8 12  1  0  0  0  0
  8  9  1  0  0  0  0
  9 10  2  0  0  0  0
  9 28  1  0  0  0  0
 10 11  1  0  0  0  0
 10 29  1  0  0  0  0
 11 12  2  0  0  0  0
 11 30  1  0  0  0  0
 13 18  1  0  0  0  0
 13 14  1  0  0  0  0
 13 39  1  0  0  0  0
 14 15  1  0  0  0  0
 14 31  1  0  0  0  0
 14 32  1  0  0  0  0
 15 16  1  0  0  0  0
 15 33  1  0  0  0  0
 15 34  1  0  0  0  0
 16 17  1  0  0  0  0
 17 18  1  0  0  0  0
 17 35  1  0  0  0  0
 17 36  1  0  0  0  0
 18 37  1  0  0  0  0
 18 38  1  0  0  0  0
M  CHG  1  13   1
M  END
> <s_m_source_file>
AV-unprocessed.smi

> <i_m_source_file_index>
1420

> <i_lp_mmshare_version>
43012

> <i_f3d_flags>
0

> <s_epik_input>
W0NIMl0xW0NIMl1PW0NIMl1bQ0gyXU4xW0NASF0oW0NIM10pW0NIMl1bTkhdQyg9TylbQ0gyXW4yW2NIXVtjSF1bY0hdbjI=

> <s_epik_cmdline>
J2VwaWtfcHl0aG9uJywgJy1waCcsICc3LjAnLCAnLXRuJywgJzgnLCAnLW1hJywgJzIwMCcsICctbWV0YWxfYmluZGluZycsICctaW1hZScsICc8aW5maWxlLm1hZT4nLCAnLW9tYWUnLCAnPG91dGZpbGUubWFlPic=

> <r_lp_tautomer_probability>
1

> <r_epik_Ionization_Penalty>
0.748405

> <r_epik_Ionization_Penalty_Charging>
0.748396

> <r_epik_Ionization_Penalty_Neutral>
8.56978e-06

> <r_epik_State_Penalty>
0.775162

> <r_epik_Charging_Adjusted_Penalty>
1.52356

> <i_epik_Tot_Q>
1

> <i_epik_Tot_abs_Q>
1

> <r_epik_Metal_State_Penalty>
0.775167

> <b_epik_Metal_Only>
0

> <s_lp_Force_Field>
OPLS_2005

> <r_lp_Energy>
20.6517

> <b_lp_Chiralities_Consistent>
1

> <s_lp_Variant>
AV-unprocessed.smi:1420-3

> <Gold.Version>
5.8.1

> <Gold.Id.Protein>
6NUR|6NUR_protein|mol2

> <Gold.PLP.Fitness>
40.9038

> <Gold.PLP.PLP>
-27.3475

> <Gold.PLP.part.hbond>
-4.0000

> <Gold.PLP.part.metal>
0.0000

> <Gold.PLP.part.buried>
-3.1383

> <Gold.PLP.part.nonpolar>
-20.4802

> <Gold.PLP.part.repulsive>
0.3991

> <Gold.PLP.ligand.clash>
0.0000

> <Gold.PLP.ligand.torsion>
0.6746

> <Gold.PLP.Chemscore.Hbond>
3.9600

> <Gold.PLP.Chemscore.CHOScore>
0.9794

> <Gold.PLP.Chemscore.Metal>
0.0000

> <Gold.Chemscore.Hbonds>
donor molecule, donor type, donor heavy atom, donor atom, acceptor molecule, acceptor atom, score
      L1  H    13    39       P1  7948  2.00
      P1  H  7989  7998       L1    12  0.98
      P1  H 10752 10765       L1     6  0.70
      L1  C    11    30       P1  8028  0.99

> <Gold.PLP.Chemscore.Internal.Correction>
0.0875

> <Gold.Rescore>
     Score         DG    S(hbond)    S(metal)    S(lipo)     H(rot)  DE(clash)    DE(int)     intcor
     14.89     -15.75       2.85        0.00      49.03       1.94       0.01       0.85       ----

> <Gold.Chemscore.Fitness>
14.8905

> <Gold.Chemscore.DG>
-15.7531

> <Gold.Chemscore.ZeroCoef>
-5.4800

> <Gold.Chemscore.Hbond>
2.8478

> <Gold.Chemscore.Metal>
0.0000

> <Gold.Chemscore.Lipo>
49.0340

> <Gold.Chemscore.Internal_Hbond>
0.0000

> <Gold.Chemscore.DEClash>
0.0123

> <Gold.Chemscore.DEInternal>
0.8503

> <Gold.Chemscore.Rot>
1.9435

> <Gold.Chemscore.Internal.Correction>
   9.000000E+99

> <Gold.Chemscore.Hbonds>
donor molecule, donor type, donor heavy atom, donor atom, acceptor molecule, acceptor atom, score
      L1  H    13    39       P1  7948  0.98
      P1  H  7989  7998       L1    12  0.46
      P1  H 10752 10765       L1     6  0.62

> <Gold.Chemscore.Hbond.Weighted>
-9.5116

> <Gold.Chemscore.Metal.Weighted>
-0.0000

> <Gold.Chemscore.Lipo.Weighted>
-5.7370

> <Gold.Chemscore.Internal_Hbond.Weighted>
0.0000

> <Gold.Chemscore.DEClash.Weighted>
0.0123

> <Gold.Chemscore.DEInternal.Weighted>
0.8503

> <Gold.Chemscore.Rot.Weighted>
4.9754

> <Gold.Chemscore.Internal.Correction.Weighted>
   9.000000E+99

> <Gold.Protein.RotatedTorsions>
[ 6907 6896 6895 6894 ] final -110.26 input  -60.11 | X-H torsion
[ 7974 7965 7964 7962 ] final   86.87 input  175.53 | X-H torsion
[ 8008 7997 7996 7995 ] final  -10.37 input   59.86 | X-H torsion
[ 10167 10162 10161 10158 ] final  -39.34 input  -65.29 | X-H torsion
[ 10718 10713 10712 10709 ] final   -4.06 input   66.30 | X-H torsion
[ 10763 10752 10751 10750 ] final  167.22 input  -60.55 | X-H torsion
[ 11005 11000 10999 10996 ] final  -15.71 input  -57.11 | X-H torsion

> <Gold.Protein.ActiveResidues>
 VAL166  LYS551  ARG553  GLY616  TRP617  ASP618  TYR619  PRO620  LYS621  CYS622 
 ASP623  PHE694  ASN695  SER759  ASP760  ASP761  ALA762  ILE779  LEU786  VAL792 
 PHE793  MET794  SER795  GLU796  ALA797  LYS798  CYS799  TRP800  GLU811  SER814 

> <Gold.Protein.RotatedAtoms>
  150.7614  133.9408  159.3455 H   0  0  0  0  0  0  0  0  0  0  0  0  # atno 6907 bound_to 6896
  151.7316  135.0871  160.0310 H   0  0  0  0  0  0  0  0  0  0  0  0  # atno 6908 bound_to 6896
  152.3586  133.6231  159.6034 H   0  0  0  0  0  0  0  0  0  0  0  0  # atno 6909 bound_to 6896
  145.5666  139.2309  143.2430 H   0  0  0  0  0  0  0  0  0  0  0  0  # atno 7974 bound_to 7965
  154.5561  140.2330  155.8408 H   0  0  0  0  0  0  0  0  0  0  0  0  # atno 8008 bound_to 7997
  156.1989  140.3057  155.9446 H   0  0  0  0  0  0  0  0  0  0  0  0  # atno 8009 bound_to 7997
  155.2977  140.0429  157.3018 H   0  0  0  0  0  0  0  0  0  0  0  0  # atno 8010 bound_to 7997
  140.7067  143.3220  151.2768 H   0  0  0  0  0  0  0  0  0  0  0  0  # atno 10167 bound_to 10162
  156.7669  130.5287  149.5774 H   0  0  0  0  0  0  0  0  0  0  0  0  # atno 10718 bound_to 10713
  154.3507  135.2753  155.2373 H   0  0  0  0  0  0  0  0  0  0  0  0  # atno 10763 bound_to 10752
  154.4604  135.5908  153.6255 H   0  0  0  0  0  0  0  0  0  0  0  0  # atno 10764 bound_to 10752
  152.9850  135.6063  154.3717 H   0  0  0  0  0  0  0  0  0  0  0  0  # atno 10765 bound_to 10752
  140.7994  133.8226  155.9455 H   0  0  0  0  0  0  0  0  0  0  0  0  # atno 11005 bound_to 11000
  146.1814  140.6491  142.9187 LP  0  0  0  0  0  0  0  0  0  0  0  0  # atno 17320 bound_to 7965
  144.7457  140.5062  143.6837 LP  0  0  0  0  0  0  0  0  0  0  0  0  # atno 17321 bound_to 7965
  139.6677  144.0075  152.2733 LP  0  0  0  0  0  0  0  0  0  0  0  0  # atno 17342 bound_to 10162
  139.9663  144.6524  150.8031 LP  0  0  0  0  0  0  0  0  0  0  0  0  # atno 17343 bound_to 10162
  156.1303  130.6173  151.0323 LP  0  0  0  0  0  0  0  0  0  0  0  0  # atno 17370 bound_to 10713
  157.6709  131.0861  150.7615 LP  0  0  0  0  0  0  0  0  0  0  0  0  # atno 17371 bound_to 10713
  140.9310  134.2021  157.4863 LP  0  0  0  0  0  0  0  0  0  0  0  0  # atno 17394 bound_to 11000
  139.8723  134.9833  156.5191 LP  0  0  0  0  0  0  0  0  0  0  0  0  # atno 17395 bound_to 11000

$$$$
