AV-unprocessed.smi:1644|AV-procd|sdf|6586|dock6
  -GOLD-   22720 7283D 1   1.00000     0.00000
 Structure written by MMmdl.
 49 51  0  0  0  0  0  0  0  0  1 V2000
  144.3853  147.7983  155.5241 C   0  0  0  0  0  0  0  0  0  0  0  0
  144.1230  146.4138  154.9222 C   0  0  0  0  0  0  0  0  0  0  0  0
  144.6782  145.2762  155.8030 C   0  0  0  0  0  0  0  0  0  0  0  0
  144.6473  143.8640  155.1757 C   0  0  2  0  0  0  0  0  0  0  0  0
  145.0786  142.8227  156.0848 N   0  0  0  0  0  0  0  0  0  0  0  0
  146.1059  142.1125  155.6012 C   0  0  0  0  0  0  0  0  0  0  0  0
  146.6504  141.1759  156.1834 O   0  0  0  0  0  0  0  0  0  0  0  0
  146.4241  142.5941  154.3843 N   0  0  0  0  0  0  0  0  0  0  0  0
  147.5016  142.0627  153.5369 C   0  0  0  0  0  0  0  0  0  0  0  0
  148.6650  141.4015  154.3211 C   0  0  1  0  0  0  0  0  0  0  0  0
  149.5428  140.8232  153.3782 O   0  0  0  0  0  0  0  0  0  0  0  0
  149.5061  142.3356  155.2222 C   0  0  0  0  0  0  0  0  0  0  0  0
  150.2376  141.6536  156.2759 N   0  0  0  0  0  0  0  0  0  0  0  0
  150.4669  140.3290  156.3668 C   0  0  0  0  0  0  0  0  0  0  0  0
  151.1755  139.9026  157.4079 N   0  0  0  0  0  0  0  0  0  0  0  0
  151.4160  141.0855  158.0840 C   0  0  0  0  0  0  0  0  0  0  0  0
  152.1366  141.3280  159.2734 C   0  0  0  0  0  0  0  0  0  0  0  0
  152.2601  142.6363  159.7918 C   0  0  0  0  0  0  0  0  0  0  0  0
  153.0555  142.8538  161.0668 C   0  0  0  0  0  0  0  0  0  0  0  0
  151.6463  143.7254  159.1236 C   0  0  0  0  0  0  0  0  0  0  0  0
  151.7654  145.1406  159.6604 C   0  0  0  0  0  0  0  0  0  0  0  0
  150.9190  143.5000  157.9367 C   0  0  0  0  0  0  0  0  0  0  0  0
  150.8207  142.1967  157.4176 C   0  0  0  0  0  0  0  0  0  0  0  0
  145.6579  143.6473  154.0650 C   0  0  0  0  0  0  0  0  0  0  0  0
  145.7282  144.3449  153.0535 O   0  0  0  0  0  0  0  0  0  0  0  0
  143.9843  148.5833  154.8825 H   0  0  0  0  0  0  0  0  0  0  0  0
  145.4538  147.9798  155.6443 H   0  0  0  0  0  0  0  0  0  0  0  0
  143.9157  147.8968  156.5032 H   0  0  0  0  0  0  0  0  0  0  0  0
  143.0490  146.2906  154.7797 H   0  0  0  0  0  0  0  0  0  0  0  0
  144.5732  146.3698  153.9301 H   0  0  0  0  0  0  0  0  0  0  0  0
  145.7099  145.5110  156.0674 H   0  0  0  0  0  0  0  0  0  0  0  0
  144.1319  145.2539  156.7470 H   0  0  0  0  0  0  0  0  0  0  0  0
  143.6488  143.6298  154.8041 H   0  0  0  0  0  0  0  0  0  0  0  0
  144.6425  142.6596  156.9809 H   0  0  0  0  0  0  0  0  0  0  0  0
  147.0430  141.3219  152.8791 H   0  0  0  0  0  0  0  0  0  0  0  0
  147.9005  142.8298  152.8712 H   0  0  0  0  0  0  0  0  0  0  0  0
  148.2876  140.5705  154.9141 H   0  0  0  0  0  0  0  0  0  0  0  0
  149.0310  140.3309  152.7545 H   0  0  0  0  0  0  0  0  0  0  0  0
  150.2309  142.8818  154.6172 H   0  0  0  0  0  0  0  0  0  0  0  0
  148.8601  143.0854  155.6819 H   0  0  0  0  0  0  0  0  0  0  0  0
  150.1133  139.6404  155.6134 H   0  0  0  0  0  0  0  0  0  0  0  0
  152.5996  140.4968  159.7845 H   0  0  0  0  0  0  0  0  0  0  0  0
  152.4206  143.2770  161.8455 H   0  0  0  0  0  0  0  0  0  0  0  0
  153.8858  143.5368  160.8868 H   0  0  0  0  0  0  0  0  0  0  0  0
  153.4683  141.9178  161.4441 H   0  0  0  0  0  0  0  0  0  0  0  0
  151.2177  145.8491  159.0384 H   0  0  0  0  0  0  0  0  0  0  0  0
  152.8097  145.4528  159.6826 H   0  0  0  0  0  0  0  0  0  0  0  0
  151.3623  145.2022  160.6713 H   0  0  0  0  0  0  0  0  0  0  0  0
  150.4524  144.3245  157.4191 H   0  0  0  0  0  0  0  0  0  0  0  0
  1  2  1  0  0  0  0
  1 26  1  0  0  0  0
  1 27  1  0  0  0  0
  1 28  1  0  0  0  0
  2  3  1  0  0  0  0
  2 29  1  0  0  0  0
  2 30  1  0  0  0  0
  3  4  1  0  0  0  0
  3 31  1  0  0  0  0
  3 32  1  0  0  0  0
  4 24  1  0  0  0  0
  4  5  1  0  0  0  0
  4 33  1  0  0  0  0
  5  6  1  0  0  0  0
  5 34  1  0  0  0  0
  6  7  2  0  0  0  0
  6  8  1  0  0  0  0
  8  9  1  0  0  0  0
  8 24  1  0  0  0  0
  9 10  1  0  0  0  0
  9 35  1  0  0  0  0
  9 36  1  0  0  0  0
 10 11  1  0  0  0  0
 10 12  1  0  0  0  0
 10 37  1  0  0  0  0
 11 38  1  0  0  0  0
 12 13  1  0  0  0  0
 12 39  1  0  0  0  0
 12 40  1  0  0  0  0
 13 23  1  0  0  0  0
 13 14  1  0  0  0  0
 14 15  2  0  0  0  0
 14 41  1  0  0  0  0
 15 16  1  0  0  0  0
 16 23  2  0  0  0  0
 16 17  1  0  0  0  0
 17 18  2  0  0  0  0
 17 42  1  0  0  0  0
 18 19  1  0  0  0  0
 18 20  1  0  0  0  0
 19 43  1  0  0  0  0
 19 44  1  0  0  0  0
 19 45  1  0  0  0  0
 20 21  1  0  0  0  0
 20 22  2  0  0  0  0
 21 46  1  0  0  0  0
 21 47  1  0  0  0  0
 21 48  1  0  0  0  0
 22 23  1  0  0  0  0
 22 49  1  0  0  0  0
 24 25  2  0  0  0  0
M  END
> <s_m_source_file>
AV-unprocessed.smi

> <i_m_source_file_index>
1644

> <i_lp_mmshare_version>
43012

> <i_f3d_flags>
0

> <s_epik_input>
W0NIM11bQ0gyXVtDSDJdW0NAQEhdMVtOSF1DKD1PKU4oQzE9TylbQ0gyXVtDQEhdKFtPSF0pW0NIMl1uKFtjSF1uMiljKGMyMylbY0hdYyhbQ0gzXSljKFtjSF0zKVtDSDNd

> <s_epik_cmdline>
J2VwaWtfcHl0aG9uJywgJy1waCcsICc3LjAnLCAnLXRuJywgJzgnLCAnLW1hJywgJzIwMCcsICctbWV0YWxfYmluZGluZycsICctaW1hZScsICc8aW5maWxlLm1hZT4nLCAnLW9tYWUnLCAnPG91dGZpbGUubWFlPic=

> <r_lp_tautomer_probability>
1

> <r_epik_Ionization_Penalty>
0.10693

> <r_epik_Ionization_Penalty_Charging>
0

> <r_epik_Ionization_Penalty_Neutral>
0.10693

> <r_epik_State_Penalty>
0.096713

> <r_epik_Charging_Adjusted_Penalty>
0.096713

> <i_epik_Tot_Q>
0

> <i_epik_Tot_abs_Q>
0

> <r_epik_Metal_State_Penalty>
0.102757

> <b_epik_Metal_Only>
0

> <s_lp_Force_Field>
OPLS_2005

> <r_lp_Energy>
20.4665

> <b_lp_Chiralities_Consistent>
1

> <s_lp_Variant>
AV-unprocessed.smi:1644-3

> <Gold.Version>
5.8.1

> <Gold.Id.Protein>
6NUR|6NUR_protein|mol2

> <Gold.PLP.Fitness>
55.3764

> <Gold.PLP.PLP>
-51.9622

> <Gold.PLP.part.hbond>
-2.2988

> <Gold.PLP.part.metal>
0.0000

> <Gold.PLP.part.buried>
-4.5904

> <Gold.PLP.part.nonpolar>
-45.4581

> <Gold.PLP.part.repulsive>
0.2357

> <Gold.PLP.ligand.clash>
0.0000

> <Gold.PLP.ligand.torsion>
0.8461

> <Gold.PLP.Chemscore.Hbond>
1.6475

> <Gold.PLP.Chemscore.CHOScore>
0.0000

> <Gold.PLP.Chemscore.Metal>
0.0000

> <Gold.Chemscore.Hbonds>
donor molecule, donor type, donor heavy atom, donor atom, acceptor molecule, acceptor atom, score
      L1  H    11    38       P1  7957  0.43
      P1  H  7989  7998       L1    11  0.27
      P1  H  8011  8017       L1    11  0.76

> <Gold.PLP.Chemscore.Internal.Correction>
0.1639

> <Gold.Rescore>
     Score         DG    S(hbond)    S(metal)    S(lipo)     H(rot)  DE(clash)    DE(int)     intcor
     12.20     -16.13       0.95        0.00     123.29       2.72       1.60       2.33       ----

> <Gold.Chemscore.Fitness>
12.2019

> <Gold.Chemscore.DG>
-16.1271

> <Gold.Chemscore.ZeroCoef>
-5.4800

> <Gold.Chemscore.Hbond>
0.9546

> <Gold.Chemscore.Metal>
0.0000

> <Gold.Chemscore.Lipo>
123.2914

> <Gold.Chemscore.Internal_Hbond>
0.0000

> <Gold.Chemscore.DEClash>
1.5970

> <Gold.Chemscore.DEInternal>
2.3282

> <Gold.Chemscore.Rot>
2.7212

> <Gold.Chemscore.Internal.Correction>
   9.000000E+99

> <Gold.Chemscore.Hbonds>
donor molecule, donor type, donor heavy atom, donor atom, acceptor molecule, acceptor atom, score
      L1  H    11    38       P1  7957  0.42
      P1  H  7989  7998       L1    11  0.25
      P1  H  8011  8017       L1    11  0.03

> <Gold.Chemscore.Hbond.Weighted>
-3.1883

> <Gold.Chemscore.Metal.Weighted>
-0.0000

> <Gold.Chemscore.Lipo.Weighted>
-14.4251

> <Gold.Chemscore.Internal_Hbond.Weighted>
0.0000

> <Gold.Chemscore.DEClash.Weighted>
1.5970

> <Gold.Chemscore.DEInternal.Weighted>
2.3282

> <Gold.Chemscore.Rot.Weighted>
6.9663

> <Gold.Chemscore.Internal.Correction.Weighted>
   9.000000E+99

> <Gold.Protein.RotatedTorsions>
[ 6907 6896 6895 6894 ] final -143.59 input  -60.11 | X-H torsion
[ 7974 7965 7964 7962 ] final  146.66 input  175.53 | X-H torsion
[ 8008 7997 7996 7995 ] final   39.66 input   59.86 | X-H torsion
[ 10167 10162 10161 10158 ] final   45.32 input  -65.29 | X-H torsion
[ 10718 10713 10712 10709 ] final   36.86 input   66.30 | X-H torsion
[ 10763 10752 10751 10750 ] final   19.74 input  -60.55 | X-H torsion
[ 11005 11000 10999 10996 ] final  134.87 input  -57.11 | X-H torsion

> <Gold.Protein.ActiveResidues>
 VAL166  LYS551  ARG553  GLY616  TRP617  ASP618  TYR619  PRO620  LYS621  CYS622 
 ASP623  PHE694  ASN695  SER759  ASP760  ASP761  ALA762  ILE779  LEU786  VAL792 
 PHE793  MET794  SER795  GLU796  ALA797  LYS798  CYS799  TRP800  GLU811  SER814 

> <Gold.Protein.RotatedAtoms>
  151.1025  133.5233  159.2609 H   0  0  0  0  0  0  0  0  0  0  0  0  # atno 6907 bound_to 6896
  151.2058  135.0461  159.8901 H   0  0  0  0  0  0  0  0  0  0  0  0  # atno 6908 bound_to 6896
  152.5444  134.0847  159.8304 H   0  0  0  0  0  0  0  0  0  0  0  0  # atno 6909 bound_to 6896
  144.8653  139.5933  143.5912 H   0  0  0  0  0  0  0  0  0  0  0  0  # atno 7974 bound_to 7965
  155.2402  140.3345  155.4293 H   0  0  0  0  0  0  0  0  0  0  0  0  # atno 8008 bound_to 7997
  156.2259  140.1829  156.7410 H   0  0  0  0  0  0  0  0  0  0  0  0  # atno 8009 bound_to 7997
  154.5898  140.0640  156.9207 H   0  0  0  0  0  0  0  0  0  0  0  0  # atno 8010 bound_to 7997
  140.3253  144.2655  150.6176 H   0  0  0  0  0  0  0  0  0  0  0  0  # atno 10167 bound_to 10162
  157.3400  130.7543  149.6905 H   0  0  0  0  0  0  0  0  0  0  0  0  # atno 10718 bound_to 10713
  153.1136  135.6702  153.9457 H   0  0  0  0  0  0  0  0  0  0  0  0  # atno 10763 bound_to 10752
  153.8993  135.3038  155.3449 H   0  0  0  0  0  0  0  0  0  0  0  0  # atno 10764 bound_to 10752
  154.7554  135.5014  153.9443 H   0  0  0  0  0  0  0  0  0  0  0  0  # atno 10765 bound_to 10752
  139.9943  134.9503  156.9928 H   0  0  0  0  0  0  0  0  0  0  0  0  # atno 11005 bound_to 11000
  146.2891  139.7088  142.9174 LP  0  0  0  0  0  0  0  0  0  0  0  0  # atno 17320 bound_to 7965
  145.4234  141.0408  143.2951 LP  0  0  0  0  0  0  0  0  0  0  0  0  # atno 17321 bound_to 7965
  140.5446  143.2217  151.8028 LP  0  0  0  0  0  0  0  0  0  0  0  0  # atno 17342 bound_to 10162
  139.4866  144.4555  151.9603 LP  0  0  0  0  0  0  0  0  0  0  0  0  # atno 17343 bound_to 10162
  155.9706  130.4170  150.4260 LP  0  0  0  0  0  0  0  0  0  0  0  0  # atno 17370 bound_to 10713
  157.2306  131.0503  151.2494 LP  0  0  0  0  0  0  0  0  0  0  0  0  # atno 17371 bound_to 10713
  140.4848  134.1252  155.7223 LP  0  0  0  0  0  0  0  0  0  0  0  0  # atno 17394 bound_to 11000
  141.1591  133.8826  157.1896 LP  0  0  0  0  0  0  0  0  0  0  0  0  # atno 17395 bound_to 11000

$$$$
