AV-unprocessed.smi:249|AV-procd|sdf|1928|dock2
  -GOLD-   2262021 43D 1   1.00000     0.00000
 Structure written by MMmdl.
 64 67  0  0  0  0  0  0  0  0  2 V2000
  146.5354  142.0422  156.5417 C   0  0  0  0  0  0  0  0  0  0  0  0
  147.9432  141.5444  156.9045 C   0  0  0  0  0  0  0  0  0  0  0  0
  148.9440  141.7613  155.8183 N   0  3  2  0  0  0  0  0  0  0  0  0
  148.6397  141.0337  154.5538 C   0  0  0  0  0  0  0  0  0  0  0  0
  148.8918  139.5199  154.6863 C   0  0  0  0  0  0  0  0  0  0  0  0
  150.3403  139.2433  155.1357 C   0  0  2  0  0  0  0  0  0  0  0  0
  150.6203  137.8098  155.2747 N   0  0  0  0  0  0  0  0  0  0  0  0
  151.8135  137.2357  154.6533 C   0  0  0  0  0  0  0  0  0  0  0  0
  150.2335  137.2622  156.4554 C   0  0  0  0  0  0  0  0  0  0  0  0
  150.9230  137.5536  157.5904 N   0  0  0  0  0  0  0  0  0  0  0  0
  150.5374  137.0422  158.7626 C   0  0  0  0  0  0  0  0  0  0  0  0
  149.5135  136.2267  159.0193 N   0  0  0  0  0  0  0  0  0  0  0  0
  148.8270  135.9142  157.8831 C   0  0  0  0  0  0  0  0  0  0  0  0
  149.1116  136.3940  156.5731 C   0  0  0  0  0  0  0  0  0  0  0  0
  148.1907  135.8789  155.6692 N   0  0  0  0  0  0  0  0  0  0  0  0
  147.4029  135.1429  156.4037 C   0  0  0  0  0  0  0  0  0  0  0  0
  147.7311  135.0776  157.7400 N   0  0  0  0  0  0  0  0  0  0  0  0
  147.0123  134.3372  158.7682 C   0  0  0  0  0  0  0  0  0  0  0  0
  147.4581  134.6319  160.2304 C   0  0  1  0  0  0  0  0  0  0  0  0
  146.7091  135.8893  160.7346 C   0  0  0  0  0  0  0  0  0  0  0  0
  147.2404  137.0647  160.1576 O   0  0  0  0  0  0  0  0  0  0  0  0
  147.2452  133.4509  161.2289 C   0  0  1  0  0  0  0  0  0  0  0  0
  145.8085  133.0951  161.5865 C   0  0  0  0  0  0  0  0  0  0  0  0
  145.3467  132.2644  160.3940 C   0  0  0  0  0  0  0  0  0  0  0  0
  146.5223  131.6246  159.9103 O   0  0  0  0  0  0  0  0  0  0  0  0
  147.6572  132.0958  160.6305 C   0  0  0  0  0  0  0  0  0  0  0  0
  150.6699  140.0400  156.4137 C   0  0  0  0  0  0  0  0  0  0  0  0
  150.3691  141.5407  156.2152 C   0  0  2  0  0  0  0  0  0  0  0  0
  150.8146  142.3953  157.4154 C   0  0  0  0  0  0  0  0  0  0  0  0
  145.8836  142.0086  157.4148 H   0  0  0  0  0  0  0  0  0  0  0  0
  146.0656  141.4271  155.7747 H   0  0  0  0  0  0  0  0  0  0  0  0
  146.5579  143.0732  156.1876 H   0  0  0  0  0  0  0  0  0  0  0  0
  148.2437  142.0958  157.7933 H   0  0  0  0  0  0  0  0  0  0  0  0
  147.9034  140.4951  157.1962 H   0  0  0  0  0  0  0  0  0  0  0  0
  147.6218  141.2243  154.2185 H   0  0  0  0  0  0  0  0  0  0  0  0
  149.2796  141.4345  153.7665 H   0  0  0  0  0  0  0  0  0  0  0  0
  148.1807  139.0862  155.3890 H   0  0  0  0  0  0  0  0  0  0  0  0
  148.7028  139.0368  153.7269 H   0  0  0  0  0  0  0  0  0  0  0  0
  150.9862  139.6446  154.3549 H   0  0  0  0  0  0  0  0  0  0  0  0
  151.7913  136.1466  154.7106 H   0  0  0  0  0  0  0  0  0  0  0  0
  152.7209  137.5840  155.1474 H   0  0  0  0  0  0  0  0  0  0  0  0
  151.8769  137.4988  153.5986 H   0  0  0  0  0  0  0  0  0  0  0  0
  151.1341  137.3257  159.6171 H   0  0  0  0  0  0  0  0  0  0  0  0
  146.5644  134.6066  155.9831 H   0  0  0  0  0  0  0  0  0  0  0  0
  145.9599  134.5866  158.6322 H   0  0  0  0  0  0  0  0  0  0  0  0
  147.0919  133.2693  158.5619 H   0  0  0  0  0  0  0  0  0  0  0  0
  148.5195  134.8756  160.2369 H   0  0  0  0  0  0  0  0  0  0  0  0
  145.6455  135.8225  160.5029 H   0  0  0  0  0  0  0  0  0  0  0  0
  146.7841  136.0047  161.8141 H   0  0  0  0  0  0  0  0  0  0  0  0
  147.5942  136.8496  159.3082 H   0  0  0  0  0  0  0  0  0  0  0  0
  147.8089  133.6587  162.1394 H   0  0  0  0  0  0  0  0  0  0  0  0
  145.8120  132.4627  162.4757 H   0  0  0  0  0  0  0  0  0  0  0  0
  145.1595  133.9325  161.8193 H   0  0  0  0  0  0  0  0  0  0  0  0
  144.5812  131.5380  160.6672 H   0  0  0  0  0  0  0  0  0  0  0  0
  144.9444  132.9034  159.6073 H   0  0  0  0  0  0  0  0  0  0  0  0
  148.5340  132.1283  159.9862 H   0  0  0  0  0  0  0  0  0  0  0  0
  147.8717  131.3853  161.4303 H   0  0  0  0  0  0  0  0  0  0  0  0
  150.1053  139.6655  157.2671 H   0  0  0  0  0  0  0  0  0  0  0  0
  151.7238  139.9053  156.6610 H   0  0  0  0  0  0  0  0  0  0  0  0
  150.9710  141.8836  155.3717 H   0  0  0  0  0  0  0  0  0  0  0  0
  151.8982  142.3565  157.5311 H   0  0  0  0  0  0  0  0  0  0  0  0
  150.3846  142.0456  158.3541 H   0  0  0  0  0  0  0  0  0  0  0  0
  150.5387  143.4417  157.2813 H   0  0  0  0  0  0  0  0  0  0  0  0
  148.8762  142.7436  155.5926 H   0  0  0  0  0  0  0  0  0  0  0  0
  1  2  1  0  0  0  0
  1 30  1  0  0  0  0
  1 31  1  0  0  0  0
  1 32  1  0  0  0  0
  2  3  1  0  0  0  0
  2 33  1  0  0  0  0
  2 34  1  0  0  0  0
  3 28  1  0  0  0  0
  3  4  1  0  0  0  0
  3 64  1  0  0  0  0
  4  5  1  0  0  0  0
  4 35  1  0  0  0  0
  4 36  1  0  0  0  0
  5  6  1  0  0  0  0
  5 37  1  0  0  0  0
  5 38  1  0  0  0  0
  6  7  1  0  0  0  0
  6 27  1  0  0  0  0
  6 39  1  0  0  0  0
  7  8  1  0  0  0  0
  7  9  1  0  0  0  0
  8 40  1  0  0  0  0
  8 41  1  0  0  0  0
  8 42  1  0  0  0  0
  9 14  1  0  0  0  0
  9 10  2  0  0  0  0
 10 11  1  0  0  0  0
 11 12  2  0  0  0  0
 11 43  1  0  0  0  0
 12 13  1  0  0  0  0
 13 17  1  0  0  0  0
 13 14  2  0  0  0  0
 14 15  1  0  0  0  0
 15 16  2  0  0  0  0
 16 17  1  0  0  0  0
 16 44  1  0  0  0  0
 17 18  1  0  0  0  0
 18 19  1  0  0  0  0
 18 45  1  0  0  0  0
 18 46  1  0  0  0  0
 19 20  1  0  0  0  0
 19 22  1  0  0  0  0
 19 47  1  0  0  0  0
 20 21  1  0  0  0  0
 20 48  1  0  0  0  0
 20 49  1  0  0  0  0
 21 50  1  0  0  0  0
 22 26  1  0  0  0  0
 22 23  1  0  0  0  0
 22 51  1  0  0  0  0
 23 24  1  0  0  0  0
 23 52  1  0  0  0  0
 23 53  1  0  0  0  0
 24 25  1  0  0  0  0
 24 54  1  0  0  0  0
 24 55  1  0  0  0  0
 25 26  1  0  0  0  0
 26 56  1  0  0  0  0
 26 57  1  0  0  0  0
 27 28  1  0  0  0  0
 27 58  1  0  0  0  0
 27 59  1  0  0  0  0
 28 29  1  0  0  0  0
 28 60  1  0  0  0  0
 29 61  1  0  0  0  0
 29 62  1  0  0  0  0
 29 63  1  0  0  0  0
M  CHG  1   3   1
M  END
> <s_m_source_file>
AV-unprocessed.smi

> <i_m_source_file_index>
249

> <i_lp_mmshare_version>
43012

> <i_f3d_flags>
0

> <s_epik_input>
W0NIM11bQ0gyXU4xW0NIMl1bQ0gyXVtDQEhdKFtDSDJdW0NASF0xW0NIM10pTihbQ0gzXSljKG5bY0hdbjIpYyhjMjMpbltjSF1uM1tDSDJdW0NASF0oW0NIMl1bT0hdKVtDQEBIXTRbQ0gyXVtDSDJdT1tDSDJdNA==

> <s_epik_cmdline>
J2VwaWtfcHl0aG9uJywgJy1waCcsICc3LjAnLCAnLXRuJywgJzgnLCAnLW1hJywgJzIwMCcsICctbWV0YWxfYmluZGluZycsICctaW1hZScsICc8aW5maWxlLm1hZT4nLCAnLW9tYWUnLCAnPG91dGZpbGUubWFlPic=

> <r_lp_tautomer_probability>
1

> <r_epik_Ionization_Penalty>
0.00294688

> <r_epik_Ionization_Penalty_Charging>
0.00169971

> <r_epik_Ionization_Penalty_Neutral>
0.00124717

> <r_epik_State_Penalty>
-0

> <r_epik_Charging_Adjusted_Penalty>
0.00169971

> <i_epik_Tot_Q>
1

> <i_epik_Tot_abs_Q>
1

> <r_epik_Metal_State_Penalty>
-0

> <b_epik_Metal_Only>
0

> <s_lp_Force_Field>
OPLS_2005

> <r_lp_Energy>
58.8032

> <b_lp_Chiralities_Consistent>
1

> <s_lp_Variant>
AV-unprocessed.smi:249-31

> <Gold.Version>
5.8.1

> <Gold.Id.Protein>
6NUR|6NUR_protein|mol2

> <Gold.PLP.Fitness>
47.3162

> <Gold.PLP.PLP>
-37.5579

> <Gold.PLP.part.hbond>
-4.0000

> <Gold.PLP.part.metal>
0.0000

> <Gold.PLP.part.buried>
-4.0562

> <Gold.PLP.part.nonpolar>
-31.6229

> <Gold.PLP.part.repulsive>
0.1201

> <Gold.PLP.ligand.clash>
0.0000

> <Gold.PLP.ligand.torsion>
2.5301

> <Gold.PLP.Chemscore.Hbond>
4.5680

> <Gold.PLP.Chemscore.CHOScore>
0.0000

> <Gold.PLP.Chemscore.Metal>
0.0000

> <Gold.Chemscore.Hbonds>
donor molecule, donor type, donor heavy atom, donor atom, acceptor molecule, acceptor atom, score
      L1  H     3    64       P1  8028  2.00
      P1  H  6896  6909       L1    12  0.60
      P1  H  6934  6947       L1    21  0.83

> <Gold.PLP.Chemscore.Internal.Correction>
1.1144

> <Gold.Rescore>
     Score         DG    S(hbond)    S(metal)    S(lipo)     H(rot)  DE(clash)    DE(int)     intcor
     10.77     -17.51       2.19        0.00      98.29       2.65       0.19       6.55       ----

> <Gold.Chemscore.Fitness>
10.7690

> <Gold.Chemscore.DG>
-17.5088

> <Gold.Chemscore.ZeroCoef>
-5.4800

> <Gold.Chemscore.Hbond>
2.1907

> <Gold.Chemscore.Metal>
0.0000

> <Gold.Chemscore.Lipo>
98.2872

> <Gold.Chemscore.Internal_Hbond>
0.0000

> <Gold.Chemscore.DEClash>
0.1927

> <Gold.Chemscore.DEInternal>
6.5471

> <Gold.Chemscore.Rot>
2.6515

> <Gold.Chemscore.Internal.Correction>
   9.000000E+99

> <Gold.Chemscore.Hbonds>
donor molecule, donor type, donor heavy atom, donor atom, acceptor molecule, acceptor atom, score
      L1  H     3    64       P1  8028  0.98
      P1  H  6896  6909       L1    12  0.03
      P1  H  6934  6947       L1    21  0.79

> <Gold.Chemscore.Hbond.Weighted>
-7.3171

> <Gold.Chemscore.Metal.Weighted>
-0.0000

> <Gold.Chemscore.Lipo.Weighted>
-11.4996

> <Gold.Chemscore.Internal_Hbond.Weighted>
0.0000

> <Gold.Chemscore.DEClash.Weighted>
0.1927

> <Gold.Chemscore.DEInternal.Weighted>
6.5471

> <Gold.Chemscore.Rot.Weighted>
6.7880

> <Gold.Chemscore.Internal.Correction.Weighted>
   9.000000E+99

> <Gold.Protein.RotatedTorsions>
[ 6907 6896 6895 6894 ] final   59.96 input  -60.11 | X-H torsion
[ 7974 7965 7964 7962 ] final -136.17 input  175.53 | X-H torsion
[ 8008 7997 7996 7995 ] final  172.84 input   59.86 | X-H torsion
[ 10167 10162 10161 10158 ] final  141.62 input  -65.29 | X-H torsion
[ 10718 10713 10712 10709 ] final  107.52 input   66.30 | X-H torsion
[ 10763 10752 10751 10750 ] final   65.16 input  -60.55 | X-H torsion
[ 11005 11000 10999 10996 ] final  110.36 input  -57.11 | X-H torsion

> <Gold.Protein.ActiveResidues>
 VAL166  LYS551  ARG553  GLY616  TRP617  ASP618  TYR619  PRO620  LYS621  CYS622 
 ASP623  PHE694  ASN695  SER759  ASP760  ASP761  ALA762  ILE779  LEU786  VAL792 
 PHE793  MET794  SER795  GLU796  ALA797  LYS798  CYS799  TRP800  GLU811  SER814 

> <Gold.Protein.RotatedAtoms>
  152.3961  134.6363  160.0088 H   0  0  0  0  0  0  0  0  0  0  0  0  # atno 6907 bound_to 6896
  151.6582  133.3312  159.3176 H   0  0  0  0  0  0  0  0  0  0  0  0  # atno 6908 bound_to 6896
  150.7869  134.6904  159.6538 H   0  0  0  0  0  0  0  0  0  0  0  0  # atno 6909 bound_to 6896
  144.8950  140.6694  143.5121 H   0  0  0  0  0  0  0  0  0  0  0  0  # atno 7974 bound_to 7965
  156.1134  140.1475  156.9306 H   0  0  0  0  0  0  0  0  0  0  0  0  # atno 8008 bound_to 7997
  154.4783  140.0887  156.7359 H   0  0  0  0  0  0  0  0  0  0  0  0  # atno 8009 bound_to 7997
  155.4555  140.3436  155.4308 H   0  0  0  0  0  0  0  0  0  0  0  0  # atno 8010 bound_to 7997
  139.5016  144.6160  151.6163 H   0  0  0  0  0  0  0  0  0  0  0  0  # atno 10167 bound_to 10162
  157.6625  131.0874  150.6168 H   0  0  0  0  0  0  0  0  0  0  0  0  # atno 10718 bound_to 10713
  153.0085  135.5367  154.6624 H   0  0  0  0  0  0  0  0  0  0  0  0  # atno 10763 bound_to 10752
  154.5829  135.2851  155.0716 H   0  0  0  0  0  0  0  0  0  0  0  0  # atno 10764 bound_to 10752
  154.1838  135.6511  153.5094 H   0  0  0  0  0  0  0  0  0  0  0  0  # atno 10765 bound_to 10752
  139.8880  134.9482  156.6267 H   0  0  0  0  0  0  0  0  0  0  0  0  # atno 11005 bound_to 11000
  145.3716  139.1657  143.4329 LP  0  0  0  0  0  0  0  0  0  0  0  0  # atno 17320 bound_to 7965
  146.3076  140.3788  142.8682 LP  0  0  0  0  0  0  0  0  0  0  0  0  # atno 17321 bound_to 7965
  140.5848  143.9883  150.6289 LP  0  0  0  0  0  0  0  0  0  0  0  0  # atno 17342 bound_to 10162
  140.3044  143.3239  152.0940 LP  0  0  0  0  0  0  0  0  0  0  0  0  # atno 17343 bound_to 10162
  156.6470  130.4474  149.5732 LP  0  0  0  0  0  0  0  0  0  0  0  0  # atno 17370 bound_to 10713
  156.2166  130.6711  151.1325 LP  0  0  0  0  0  0  0  0  0  0  0  0  # atno 17371 bound_to 10713
  140.7697  133.8748  155.8482 LP  0  0  0  0  0  0  0  0  0  0  0  0  # atno 17394 bound_to 11000
  140.9852  134.1352  157.4458 LP  0  0  0  0  0  0  0  0  0  0  0  0  # atno 17395 bound_to 11000

$$$$
