AV-unprocessed.smi:1066|AV-procd|sdf|4668|dock10
  -GOLD-   22720 3183D 1   1.00000     0.00000
 Structure written by MMmdl.
 38 40  0  0  0  0  0  0  0  0  2 V2000
  149.3703  133.0377  153.8899 C   0  0  0  0  0  0  0  0  0  0  0  0
  149.5020  133.5997  155.2763 C   0  0  0  0  0  0  0  0  0  0  0  0
  150.0950  132.8797  156.2195 N   0  0  0  0  0  0  0  0  0  0  0  0
  150.0653  133.6545  157.3847 O   0  0  0  0  0  0  0  0  0  0  0  0
  149.4484  134.8168  157.0714 C   0  0  0  0  0  0  0  0  0  0  0  0
  149.1873  136.0609  158.2294 Cl  0  0  0  0  0  0  0  0  0  0  0  0
  149.0607  134.8650  155.7631 C   0  0  0  0  0  0  0  0  0  0  0  0
  148.3467  135.9592  155.0110 C   0  0  0  0  0  0  0  0  0  0  0  0
  147.0015  135.4411  154.5027 C   0  0  0  0  0  0  0  0  0  0  0  0
  146.1344  135.0869  155.3007 O   0  0  0  0  0  0  0  0  0  0  0  0
  146.8382  135.4070  153.1715 N   0  0  0  0  0  0  0  0  0  0  0  0
  145.6218  134.9800  152.4917 C   0  0  2  0  0  0  0  0  0  0  0  0
  144.3485  135.6594  152.9846 C   0  0  0  0  0  0  0  0  0  0  0  0
  143.2527  134.6859  152.5330 C   0  0  0  0  0  0  0  0  0  0  0  0
  143.8774  133.3409  152.4554 N   0  3  1  0  0  0  0  0  0  0  0  0
  143.6104  132.6390  151.1808 C   0  0  0  0  0  0  0  0  0  0  0  0
  144.6170  131.5595  150.8623 C   0  0  0  0  0  0  0  0  0  0  0  0
  144.6636  132.8812  150.1262 C   0  0  0  0  0  0  0  0  0  0  0  0
  145.3185  133.5048  152.7459 C   0  0  0  0  0  0  0  0  0  0  0  0
  148.4181  133.3205  153.4408 H   0  0  0  0  0  0  0  0  0  0  0  0
  149.4221  131.9484  153.8903 H   0  0  0  0  0  0  0  0  0  0  0  0
  150.1654  133.4087  153.2432 H   0  0  0  0  0  0  0  0  0  0  0  0
  148.1785  136.8349  155.6390 H   0  0  0  0  0  0  0  0  0  0  0  0
  148.9385  136.3066  154.1633 H   0  0  0  0  0  0  0  0  0  0  0  0
  147.6060  135.7161  152.5925 H   0  0  0  0  0  0  0  0  0  0  0  0
  145.7246  135.1365  151.4156 H   0  0  0  0  0  0  0  0  0  0  0  0
  144.3552  135.7338  154.0733 H   0  0  0  0  0  0  0  0  0  0  0  0
  144.2161  136.6628  152.5786 H   0  0  0  0  0  0  0  0  0  0  0  0
  142.4039  134.6826  153.2173 H   0  0  0  0  0  0  0  0  0  0  0  0
  142.8803  134.9867  151.5523 H   0  0  0  0  0  0  0  0  0  0  0  0
  142.5648  132.5234  150.8999 H   0  0  0  0  0  0  0  0  0  0  0  0
  145.4058  131.3594  151.5852 H   0  0  0  0  0  0  0  0  0  0  0  0
  144.2639  130.6924  150.3079 H   0  0  0  0  0  0  0  0  0  0  0  0
  144.3433  132.8828  149.0863 H   0  0  0  0  0  0  0  0  0  0  0  0
  145.4809  133.5605  150.3620 H   0  0  0  0  0  0  0  0  0  0  0  0
  145.9503  132.8408  152.1537 H   0  0  0  0  0  0  0  0  0  0  0  0
  145.4783  133.2592  153.7969 H   0  0  0  0  0  0  0  0  0  0  0  0
  143.4875  132.7735  153.1944 H   0  0  0  0  0  0  0  0  0  0  0  0
  1  2  1  0  0  0  0
  1 20  1  0  0  0  0
  1 21  1  0  0  0  0
  1 22  1  0  0  0  0
  2  7  1  0  0  0  0
  2  3  2  0  0  0  0
  3  4  1  0  0  0  0
  4  5  1  0  0  0  0
  5  6  1  0  0  0  0
  5  7  2  0  0  0  0
  7  8  1  0  0  0  0
  8  9  1  0  0  0  0
  8 23  1  0  0  0  0
  8 24  1  0  0  0  0
  9 10  2  0  0  0  0
  9 11  1  0  0  0  0
 11 12  1  0  0  0  0
 11 25  1  0  0  0  0
 12 19  1  0  0  0  0
 12 13  1  0  0  0  0
 12 26  1  0  0  0  0
 13 14  1  0  0  0  0
 13 27  1  0  0  0  0
 13 28  1  0  0  0  0
 14 15  1  0  0  0  0
 14 29  1  0  0  0  0
 14 30  1  0  0  0  0
 15 16  1  0  0  0  0
 15 19  1  0  0  0  0
 15 38  1  0  0  0  0
 16 18  1  0  0  0  0
 16 17  1  0  0  0  0
 16 31  1  0  0  0  0
 17 18  1  0  0  0  0
 17 32  1  0  0  0  0
 17 33  1  0  0  0  0
 18 34  1  0  0  0  0
 18 35  1  0  0  0  0
 19 36  1  0  0  0  0
 19 37  1  0  0  0  0
M  CHG  1  15   1
M  END
> <s_m_source_file>
AV-unprocessed.smi

> <i_m_source_file_index>
1066

> <i_lp_mmshare_version>
43012

> <i_f3d_flags>
0

> <s_epik_input>
W0NIM11jMW5vYyhDbCljMVtDSDJdQyg9TylbTkhdW0NAQEhdMltDSDJdW0NIMl1OKFtDSDJdMilbQ0hdM1tDSDJdW0NIMl0z

> <s_epik_cmdline>
J2VwaWtfcHl0aG9uJywgJy1waCcsICc3LjAnLCAnLXRuJywgJzgnLCAnLW1hJywgJzIwMCcsICctbWV0YWxfYmluZGluZycsICctaW1hZScsICc8aW5maWxlLm1hZT4nLCAnLW9tYWUnLCAnPG91dGZpbGUubWFlPic=

> <r_epik_Ionization_Penalty>
0.00108138

> <r_epik_Ionization_Penalty_Charging>
0.00108128

> <r_epik_Ionization_Penalty_Neutral>
9.66632e-08

> <r_epik_State_Penalty>
0.000708577

> <r_epik_Charging_Adjusted_Penalty>
0.00178986

> <i_epik_Tot_Q>
1

> <i_epik_Tot_abs_Q>
1

> <r_epik_Metal_State_Penalty>
-0

> <b_epik_Metal_Only>
0

> <s_lp_Force_Field>
OPLS_2005

> <r_lp_Energy>
31.6954

> <b_lp_Chiralities_Consistent>
1

> <s_lp_Variant>
AV-unprocessed.smi:1066-1

> <Gold.Version>
5.8.1

> <Gold.Id.Protein>
6NUR|6NUR_protein|mol2

> <Gold.PLP.Fitness>
38.5440

> <Gold.PLP.PLP>
-26.6570

> <Gold.PLP.part.hbond>
-2.9988

> <Gold.PLP.part.metal>
0.0000

> <Gold.PLP.part.buried>
-5.0562

> <Gold.PLP.part.nonpolar>
-19.0318

> <Gold.PLP.part.repulsive>
0.0260

> <Gold.PLP.ligand.clash>
0.0000

> <Gold.PLP.ligand.torsion>
0.6907

> <Gold.PLP.Chemscore.Hbond>
4.0000

> <Gold.PLP.Chemscore.CHOScore>
0.0000

> <Gold.PLP.Chemscore.Metal>
0.0000

> <Gold.Chemscore.Hbonds>
donor molecule, donor type, donor heavy atom, donor atom, acceptor molecule, acceptor atom, score
      L1  H    11    25       P1  7948  1.00
      L1  H    15    38       P1 10957  1.95
      P1  H  6896  6909       L1     4  1.00

> <Gold.PLP.Chemscore.Internal.Correction>
1.2685

> <Gold.Rescore>
     Score         DG    S(hbond)    S(metal)    S(lipo)     H(rot)  DE(clash)    DE(int)     intcor
     16.38     -18.14       2.92        0.00      59.25       1.57       0.00       1.76       ----

> <Gold.Chemscore.Fitness>
16.3819

> <Gold.Chemscore.DG>
-18.1433

> <Gold.Chemscore.ZeroCoef>
-5.4800

> <Gold.Chemscore.Hbond>
2.9201

> <Gold.Chemscore.Metal>
0.0000

> <Gold.Chemscore.Lipo>
59.2486

> <Gold.Chemscore.Internal_Hbond>
0.0000

> <Gold.Chemscore.DEClash>
0.0015

> <Gold.Chemscore.DEInternal>
1.7599

> <Gold.Chemscore.Rot>
1.5711

> <Gold.Chemscore.Internal.Correction>
   9.000000E+99

> <Gold.Chemscore.Hbonds>
donor molecule, donor type, donor heavy atom, donor atom, acceptor molecule, acceptor atom, score
      L1  H    11    25       P1  7948  0.99
      L1  H    15    38       P1 10957  0.41
      P1  H  6896  6909       L1     4  0.71

> <Gold.Chemscore.Hbond.Weighted>
-9.7532

> <Gold.Chemscore.Metal.Weighted>
-0.0000

> <Gold.Chemscore.Lipo.Weighted>
-6.9321

> <Gold.Chemscore.Internal_Hbond.Weighted>
0.0000

> <Gold.Chemscore.DEClash.Weighted>
0.0015

> <Gold.Chemscore.DEInternal.Weighted>
1.7599

> <Gold.Chemscore.Rot.Weighted>
4.0221

> <Gold.Chemscore.Internal.Correction.Weighted>
   9.000000E+99

> <Gold.Protein.RotatedTorsions>
[ 6907 6896 6895 6894 ] final   -6.11 input  -60.11 | X-H torsion
[ 7974 7965 7964 7962 ] final  -64.63 input  175.53 | X-H torsion
[ 8008 7997 7996 7995 ] final  158.67 input   59.86 | X-H torsion
[ 10167 10162 10161 10158 ] final  -69.77 input  -65.29 | X-H torsion
[ 10718 10713 10712 10709 ] final -113.10 input   66.30 | X-H torsion
[ 10763 10752 10751 10750 ] final   78.43 input  -60.55 | X-H torsion
[ 11005 11000 10999 10996 ] final -108.30 input  -57.11 | X-H torsion

> <Gold.Protein.ActiveResidues>
 VAL166  LYS551  ARG553  GLY616  TRP617  ASP618  TYR619  PRO620  LYS621  CYS622 
 ASP623  PHE694  ASN695  SER759  ASP760  ASP761  ALA762  ILE779  LEU786  VAL792 
 PHE793  MET794  SER795  GLU796  ALA797  LYS798  CYS799  TRP800  GLU811  SER814 

> <Gold.Protein.RotatedAtoms>
  151.4707  135.1045  159.9750 H   0  0  0  0  0  0  0  0  0  0  0  0  # atno 6907 bound_to 6896
  152.4817  133.8268  159.7092 H   0  0  0  0  0  0  0  0  0  0  0  0  # atno 6908 bound_to 6896
  150.8894  133.7202  159.2935 H   0  0  0  0  0  0  0  0  0  0  0  0  # atno 6909 bound_to 6896
  145.7643  140.8846  143.0413 H   0  0  0  0  0  0  0  0  0  0  0  0  # atno 7974 bound_to 7965
  156.2288  140.1852  156.7296 H   0  0  0  0  0  0  0  0  0  0  0  0  # atno 8008 bound_to 7997
  154.5986  140.0639  156.9366 H   0  0  0  0  0  0  0  0  0  0  0  0  # atno 8009 bound_to 7997
  155.2213  140.3307  155.4318 H   0  0  0  0  0  0  0  0  0  0  0  0  # atno 8010 bound_to 7997
  140.5404  143.2315  151.7099 H   0  0  0  0  0  0  0  0  0  0  0  0  # atno 10167 bound_to 10162
  156.0746  130.5955  150.8597 H   0  0  0  0  0  0  0  0  0  0  0  0  # atno 10718 bound_to 10713
  153.0874  135.4877  154.8623 H   0  0  0  0  0  0  0  0  0  0  0  0  # atno 10763 bound_to 10752
  154.7227  135.3043  154.9023 H   0  0  0  0  0  0  0  0  0  0  0  0  # atno 10764 bound_to 10752
  153.9682  135.6804  153.4799 H   0  0  0  0  0  0  0  0  0  0  0  0  # atno 10765 bound_to 10752
  141.0909  133.9057  157.2078 H   0  0  0  0  0  0  0  0  0  0  0  0  # atno 11005 bound_to 11000
  144.6824  139.9766  143.7483 LP  0  0  0  0  0  0  0  0  0  0  0  0  # atno 17320 bound_to 7965
  146.0233  139.3270  143.0799 LP  0  0  0  0  0  0  0  0  0  0  0  0  # atno 17321 bound_to 7965
  139.4987  144.3977  152.0214 LP  0  0  0  0  0  0  0  0  0  0  0  0  # atno 17342 bound_to 10162
  140.3085  144.3565  150.6040 LP  0  0  0  0  0  0  0  0  0  0  0  0  # atno 17343 bound_to 10162
  157.5834  131.0946  150.9234 LP  0  0  0  0  0  0  0  0  0  0  0  0  # atno 17370 bound_to 10713
  156.9425  130.5390  149.5280 LP  0  0  0  0  0  0  0  0  0  0  0  0  # atno 17371 bound_to 10713
  139.9735  135.0121  156.9571 LP  0  0  0  0  0  0  0  0  0  0  0  0  # atno 17394 bound_to 11000
  140.5254  134.0866  155.7302 LP  0  0  0  0  0  0  0  0  0  0  0  0  # atno 17395 bound_to 11000

$$$$
