AV-unprocessed.smi:1408|AV-procd|sdf|5726|dock7
  -GOLD-   22720 5363D 1   1.00000     0.00000
 Structure written by MMmdl.
 41 42  0  0  0  0  0  0  0  0  1 V2000
  148.3789  131.5014  150.3488 C   0  0  0  0  0  0  0  0  0  0  0  0
  147.1352  132.3101  150.0165 C   0  0  0  0  0  0  0  0  0  0  0  0
  145.9000  131.6450  149.8633 C   0  0  0  0  0  0  0  0  0  0  0  0
  144.7513  132.3938  149.5557 C   0  0  0  0  0  0  0  0  0  0  0  0
  144.8873  133.7852  149.4136 C   0  0  0  0  0  0  0  0  0  0  0  0
  146.0634  134.4289  149.5585 N   0  0  0  0  0  0  0  0  0  0  0  0
  147.1823  133.7211  149.8553 C   0  0  0  0  0  0  0  0  0  0  0  0
  148.4573  134.3332  150.0214 N   0  0  0  0  0  0  0  0  0  0  0  0
  149.5978  134.0883  149.3518 C   0  0  0  0  0  0  0  0  0  0  0  0
  149.7291  133.2719  148.4395 O   0  0  0  0  0  0  0  0  0  0  0  0
  150.6000  134.8559  149.8049 N   0  0  0  0  0  0  0  0  0  0  0  0
  151.9731  134.8266  149.3083 C   0  0  0  0  0  0  0  0  0  0  0  0
  152.7166  136.0942  149.7531 C   0  0  0  0  0  0  0  0  0  0  0  0
  154.1542  136.1223  149.2046 C   0  0  0  0  0  0  0  0  0  0  0  0
  154.1834  135.9539  147.7376 N   0  0  0  0  0  0  0  0  0  0  0  0
  154.4125  137.3380  146.7075 S   0  0  0  0  0  0  0  0  0  0  0  0
  153.3429  136.9930  145.2514 C   0  0  0  0  0  0  0  0  0  0  0  0
  153.8712  138.5138  147.4062 O   0  0  0  0  0  0  0  0  0  0  0  0
  155.8131  137.3375  146.2581 O   0  0  0  0  0  0  0  0  0  0  0  0
  153.4457  134.7759  147.2377 C   0  0  0  0  0  0  0  0  0  0  0  0
  152.0032  134.7352  147.7734 C   0  0  0  0  0  0  0  0  0  0  0  0
  148.1515  130.4380  150.4300 H   0  0  0  0  0  0  0  0  0  0  0  0
  148.8032  131.8268  151.2990 H   0  0  0  0  0  0  0  0  0  0  0  0
  149.1333  131.6241  149.5711 H   0  0  0  0  0  0  0  0  0  0  0  0
  145.8305  130.5734  149.9795 H   0  0  0  0  0  0  0  0  0  0  0  0
  143.7916  131.9144  149.4318 H   0  0  0  0  0  0  0  0  0  0  0  0
  144.0299  134.3985  149.1778 H   0  0  0  0  0  0  0  0  0  0  0  0
  148.5059  135.0365  150.7431 H   0  0  0  0  0  0  0  0  0  0  0  0
  150.4028  135.5008  150.5558 H   0  0  0  0  0  0  0  0  0  0  0  0
  152.4876  133.9605  149.7297 H   0  0  0  0  0  0  0  0  0  0  0  0
  152.1749  136.9794  149.4209 H   0  0  0  0  0  0  0  0  0  0  0  0
  152.7443  136.1458  150.8421 H   0  0  0  0  0  0  0  0  0  0  0  0
  154.6515  137.0486  149.4912 H   0  0  0  0  0  0  0  0  0  0  0  0
  154.7303  135.3130  149.6544 H   0  0  0  0  0  0  0  0  0  0  0  0
  153.4270  137.8185  144.5450 H   0  0  0  0  0  0  0  0  0  0  0  0
  152.3050  136.9020  145.5666 H   0  0  0  0  0  0  0  0  0  0  0  0
  153.6664  136.0756  144.7625 H   0  0  0  0  0  0  0  0  0  0  0  0
  153.4458  134.7615  146.1482 H   0  0  0  0  0  0  0  0  0  0  0  0
  153.9767  133.8781  147.5560 H   0  0  0  0  0  0  0  0  0  0  0  0
  151.5233  133.8134  147.4429 H   0  0  0  0  0  0  0  0  0  0  0  0
  151.4229  135.5502  147.3420 H   0  0  0  0  0  0  0  0  0  0  0  0
  1  2  1  0  0  0  0
  1 22  1  0  0  0  0
  1 23  1  0  0  0  0
  1 24  1  0  0  0  0
  2  7  1  0  0  0  0
  2  3  2  0  0  0  0
  3  4  1  0  0  0  0
  3 25  1  0  0  0  0
  4  5  2  0  0  0  0
  4 26  1  0  0  0  0
  5  6  1  0  0  0  0
  5 27  1  0  0  0  0
  6  7  2  0  0  0  0
  7  8  1  0  0  0  0
  8  9  1  0  0  0  0
  8 28  1  0  0  0  0
  9 10  2  0  0  0  0
  9 11  1  0  0  0  0
 11 12  1  0  0  0  0
 11 29  1  0  0  0  0
 12 21  1  0  0  0  0
 12 13  1  0  0  0  0
 12 30  1  0  0  0  0
 13 14  1  0  0  0  0
 13 31  1  0  0  0  0
 13 32  1  0  0  0  0
 14 15  1  0  0  0  0
 14 33  1  0  0  0  0
 14 34  1  0  0  0  0
 15 16  1  0  0  0  0
 15 20  1  0  0  0  0
 16 17  1  0  0  0  0
 16 18  2  0  0  0  0
 16 19  2  0  0  0  0
 17 35  1  0  0  0  0
 17 36  1  0  0  0  0
 17 37  1  0  0  0  0
 20 21  1  0  0  0  0
 20 38  1  0  0  0  0
 20 39  1  0  0  0  0
 21 40  1  0  0  0  0
 21 41  1  0  0  0  0
M  END
> <s_m_source_file>
AV-unprocessed.smi

> <i_m_source_file_index>
1408

> <i_lp_mmshare_version>
43012

> <i_f3d_flags>
0

> <s_epik_input>
W0NIM11jMVtjSF1bY0hdW2NIXW5jMVtOSF1DKD1PKVtOSF1bQ0hdMltDSDJdW0NIMl1OKFMoPU8pKD1PKVtDSDNdKVtDSDJdW0NIMl0y

> <s_epik_cmdline>
J2VwaWtfcHl0aG9uJywgJy1waCcsICc3LjAnLCAnLXRuJywgJzgnLCAnLW1hJywgJzIwMCcsICctbWV0YWxfYmluZGluZycsICctaW1hZScsICc8aW5maWxlLm1hZT4nLCAnLW9tYWUnLCAnPG91dGZpbGUubWFlPic=

> <r_lp_tautomer_probability>
1

> <r_epik_Ionization_Penalty>
5.70787e-05

> <r_epik_Ionization_Penalty_Charging>
0

> <r_epik_Ionization_Penalty_Neutral>
5.70787e-05

> <r_epik_State_Penalty>
-0

> <r_epik_Charging_Adjusted_Penalty>
0

> <i_epik_Tot_Q>
0

> <i_epik_Tot_abs_Q>
0

> <r_epik_Metal_State_Penalty>
-0

> <b_epik_Metal_Only>
0

> <s_lp_Force_Field>
OPLS_2005

> <r_lp_Energy>
5.75517

> <b_lp_Chiralities_Consistent>
1

> <s_lp_Variant>
AV-unprocessed.smi:1408-1

> <Gold.Version>
5.8.1

> <Gold.Id.Protein>
6NUR|6NUR_protein|mol2

> <Gold.PLP.Fitness>
38.9449

> <Gold.PLP.PLP>
-25.2487

> <Gold.PLP.part.hbond>
-5.0000

> <Gold.PLP.part.metal>
0.0000

> <Gold.PLP.part.buried>
-4.2445

> <Gold.PLP.part.nonpolar>
-17.5341

> <Gold.PLP.part.repulsive>
0.2845

> <Gold.PLP.ligand.clash>
0.0000

> <Gold.PLP.ligand.torsion>
1.9640

> <Gold.PLP.Chemscore.Hbond>
4.3297

> <Gold.PLP.Chemscore.CHOScore>
0.8615

> <Gold.PLP.Chemscore.Metal>
0.0000

> <Gold.Chemscore.Hbonds>
donor molecule, donor type, donor heavy atom, donor atom, acceptor molecule, acceptor atom, score
      P1  H  7942  7950       L1    10  0.04

> <Gold.PLP.Chemscore.Internal.Correction>
2.0506

> <Gold.Rescore>
     Score         DG    S(hbond)    S(metal)    S(lipo)     H(rot)  DE(clash)    DE(int)     intcor
     18.89     -22.84       4.28        0.00      48.18       1.00       0.42       3.53       ----

> <Gold.Chemscore.Fitness>
18.8891

> <Gold.Chemscore.DG>
-22.8373

> <Gold.Chemscore.ZeroCoef>
-5.4800

> <Gold.Chemscore.Hbond>
4.2755

> <Gold.Chemscore.Metal>
0.0000

> <Gold.Chemscore.Lipo>
48.1818

> <Gold.Chemscore.Internal_Hbond>
0.0000

> <Gold.Chemscore.DEClash>
0.4211

> <Gold.Chemscore.DEInternal>
3.5270

> <Gold.Chemscore.Rot>
1.0000

> <Gold.Chemscore.Internal.Correction>
   9.000000E+99

> <Gold.Chemscore.Hbond.Weighted>
-14.2800

> <Gold.Chemscore.Metal.Weighted>
-0.0000

> <Gold.Chemscore.Lipo.Weighted>
-5.6373

> <Gold.Chemscore.Internal_Hbond.Weighted>
0.0000

> <Gold.Chemscore.DEClash.Weighted>
0.4211

> <Gold.Chemscore.DEInternal.Weighted>
3.5270

> <Gold.Chemscore.Rot.Weighted>
2.5600

> <Gold.Chemscore.Internal.Correction.Weighted>
   9.000000E+99

> <Gold.Protein.RotatedTorsions>
[ 6907 6896 6895 6894 ] final   66.91 input  -60.11 | X-H torsion
[ 7974 7965 7964 7962 ] final -125.18 input  175.53 | X-H torsion
[ 8008 7997 7996 7995 ] final   43.10 input   59.86 | X-H torsion
[ 10167 10162 10161 10158 ] final -126.25 input  -65.29 | X-H torsion
[ 10718 10713 10712 10709 ] final  -98.44 input   66.30 | X-H torsion
[ 10763 10752 10751 10750 ] final   64.89 input  -60.55 | X-H torsion
[ 11005 11000 10999 10996 ] final   33.94 input  -57.11 | X-H torsion

> <Gold.Protein.ActiveResidues>
 VAL166  LYS551  ARG553  GLY616  TRP617  ASP618  TYR619  PRO620  LYS621  CYS622 
 ASP623  PHE694  ASN695  SER759  ASP760  ASP761  ALA762  ILE779  LEU786  VAL792 
 PHE793  MET794  SER795  GLU796  ALA797  LYS798  CYS799  TRP800  GLU811  SER814 

> <Gold.Protein.RotatedAtoms>
  152.4514  134.5384  159.9831 H   0  0  0  0  0  0  0  0  0  0  0  0  # atno 6907 bound_to 6896
  151.5456  133.3420  159.2951 H   0  0  0  0  0  0  0  0  0  0  0  0  # atno 6908 bound_to 6896
  150.8445  134.7780  159.7022 H   0  0  0  0  0  0  0  0  0  0  0  0  # atno 6909 bound_to 6896
  145.0003  140.7814  143.4500 H   0  0  0  0  0  0  0  0  0  0  0  0  # atno 7974 bound_to 7965
  155.2971  140.3382  155.4249 H   0  0  0  0  0  0  0  0  0  0  0  0  # atno 8008 bound_to 7997
  156.2019  140.1736  156.7921 H   0  0  0  0  0  0  0  0  0  0  0  0  # atno 8009 bound_to 7997
  154.5570  140.0694  156.8743 H   0  0  0  0  0  0  0  0  0  0  0  0  # atno 8010 bound_to 7997
  139.9735  143.5819  152.2404 H   0  0  0  0  0  0  0  0  0  0  0  0  # atno 10167 bound_to 10162
  156.0108  130.5238  150.6523 H   0  0  0  0  0  0  0  0  0  0  0  0  # atno 10718 bound_to 10713
  153.0074  135.5377  154.6580 H   0  0  0  0  0  0  0  0  0  0  0  0  # atno 10763 bound_to 10752
  154.5796  135.2849  155.0748 H   0  0  0  0  0  0  0  0  0  0  0  0  # atno 10764 bound_to 10752
  154.1882  135.6504  153.5105 H   0  0  0  0  0  0  0  0  0  0  0  0  # atno 10765 bound_to 10752
  140.2579  134.3226  155.7867 H   0  0  0  0  0  0  0  0  0  0  0  0  # atno 11005 bound_to 11000
  145.2163  139.2180  143.5116 LP  0  0  0  0  0  0  0  0  0  0  0  0  # atno 17320 bound_to 7965
  146.3450  140.2011  142.8589 LP  0  0  0  0  0  0  0  0  0  0  0  0  # atno 17321 bound_to 7965
  139.6463  144.7658  151.2237 LP  0  0  0  0  0  0  0  0  0  0  0  0  # atno 17342 bound_to 10162
  140.7514  143.6234  150.8492 LP  0  0  0  0  0  0  0  0  0  0  0  0  # atno 17343 bound_to 10162
  157.4282  131.0846  151.1064 LP  0  0  0  0  0  0  0  0  0  0  0  0  # atno 17370 bound_to 10713
  157.1645  130.6240  149.5621 LP  0  0  0  0  0  0  0  0  0  0  0  0  # atno 17371 bound_to 10713
  141.2194  133.7392  156.9141 LP  0  0  0  0  0  0  0  0  0  0  0  0  # atno 17394 bound_to 11000
  140.1493  134.9241  157.2572 LP  0  0  0  0  0  0  0  0  0  0  0  0  # atno 17395 bound_to 11000

$$$$
