AV-unprocessed.smi:595|AV-procd|sdf|3018|dock5
  -GOLD-   2262023523D 1   1.00000     0.00000
 Structure written by MMmdl.
 39 40  0  0  0  0  0  0  0  0  1 V2000
  148.8694  141.3827  157.3225 O   0  0  0  0  0  0  0  0  0  0  0  0
  149.5120  140.9329  156.3702 C   0  0  0  0  0  0  0  0  0  0  0  0
  151.0147  141.2309  156.2547 C   0  0  0  0  0  0  0  0  0  0  0  0
  151.6223  141.6056  157.5422 N   0  0  0  0  0  0  0  0  0  0  0  0
  151.3131  142.8867  158.0400 C   0  0  0  0  0  0  0  0  0  0  0  0
  151.7858  143.3522  159.2121 C   0  0  0  0  0  0  0  0  0  0  0  0
  151.4736  144.7587  159.6988 C   0  0  0  0  0  0  0  0  0  0  0  0
  152.0810  145.6740  158.9433 F   0  0  0  0  0  0  0  0  0  0  0  0
  150.1617  144.9971  159.6727 F   0  0  0  0  0  0  0  0  0  0  0  0
  151.8969  144.9082  160.9532 F   0  0  0  0  0  0  0  0  0  0  0  0
  152.6787  142.4733  159.9415 C   0  0  0  0  0  0  0  0  0  0  0  0
  152.9896  141.2475  159.4768 C   0  0  0  0  0  0  0  0  0  0  0  0
  152.4436  140.7443  158.2142 C   0  0  0  0  0  0  0  0  0  0  0  0
  152.7075  139.6195  157.7893 O   0  0  0  0  0  0  0  0  0  0  0  0
  149.0085  140.1683  155.3737 N   0  0  0  0  0  0  0  0  0  0  0  0
  149.6010  139.6163  154.2881 C   0  0  0  0  0  0  0  0  0  0  0  0
  150.8208  139.4622  154.2525 O   0  0  0  0  0  0  0  0  0  0  0  0
  148.8002  139.2498  153.2695 N   0  0  0  0  0  0  0  0  0  0  0  0
  147.3411  139.2931  153.2834 C   0  0  0  0  0  0  0  0  0  0  0  0
  146.7872  138.3618  154.3764 C   0  0  0  0  0  0  0  0  0  0  0  0
  146.1964  137.1593  153.6409 C   0  0  0  0  0  0  0  0  0  0  0  0
  145.6960  137.7414  152.3227 C   0  0  0  0  0  0  0  0  0  0  0  0
  146.7420  138.7942  151.9515 C   0  0  0  0  0  0  0  0  0  0  0  0
  151.5065  140.3621  155.8144 H   0  0  0  0  0  0  0  0  0  0  0  0
  151.1710  142.0372  155.5356 H   0  0  0  0  0  0  0  0  0  0  0  0
  150.6588  143.4668  157.4049 H   0  0  0  0  0  0  0  0  0  0  0  0
  153.1027  142.8010  160.8793 H   0  0  0  0  0  0  0  0  0  0  0  0
  153.6570  140.6190  160.0479 H   0  0  0  0  0  0  0  0  0  0  0  0
  148.0207  139.9745  155.4502 H   0  0  0  0  0  0  0  0  0  0  0  0
  149.2378  138.9186  152.4210 H   0  0  0  0  0  0  0  0  0  0  0  0
  147.0115  140.3132  153.4892 H   0  0  0  0  0  0  0  0  0  0  0  0
  147.5343  138.0664  155.1147 H   0  0  0  0  0  0  0  0  0  0  0  0
  145.9908  138.8762  154.9157 H   0  0  0  0  0  0  0  0  0  0  0  0
  146.9794  136.4254  153.4455 H   0  0  0  0  0  0  0  0  0  0  0  0
  145.4079  136.6647  154.2086 H   0  0  0  0  0  0  0  0  0  0  0  0
  145.5695  136.9840  151.5489 H   0  0  0  0  0  0  0  0  0  0  0  0
  144.7298  138.2229  152.4790 H   0  0  0  0  0  0  0  0  0  0  0  0
  146.3097  139.6064  151.3662 H   0  0  0  0  0  0  0  0  0  0  0  0
  147.5105  138.3271  151.3336 H   0  0  0  0  0  0  0  0  0  0  0  0
  1  2  2  0  0  0  0
  2  3  1  0  0  0  0
  2 15  1  0  0  0  0
  3  4  1  0  0  0  0
  3 24  1  0  0  0  0
  3 25  1  0  0  0  0
  4 13  1  0  0  0  0
  4  5  1  0  0  0  0
  5  6  2  0  0  0  0
  5 26  1  0  0  0  0
  6  7  1  0  0  0  0
  6 11  1  0  0  0  0
  7  8  1  0  0  0  0
  7  9  1  0  0  0  0
  7 10  1  0  0  0  0
 11 12  2  0  0  0  0
 11 27  1  0  0  0  0
 12 13  1  0  0  0  0
 12 28  1  0  0  0  0
 13 14  2  0  0  0  0
 15 16  1  0  0  0  0
 15 29  1  0  0  0  0
 16 17  2  0  0  0  0
 16 18  1  0  0  0  0
 18 19  1  0  0  0  0
 18 30  1  0  0  0  0
 19 23  1  0  0  0  0
 19 20  1  0  0  0  0
 19 31  1  0  0  0  0
 20 21  1  0  0  0  0
 20 32  1  0  0  0  0
 20 33  1  0  0  0  0
 21 22  1  0  0  0  0
 21 34  1  0  0  0  0
 21 35  1  0  0  0  0
 22 23  1  0  0  0  0
 22 36  1  0  0  0  0
 22 37  1  0  0  0  0
 23 38  1  0  0  0  0
 23 39  1  0  0  0  0
M  END
> <s_m_source_file>
AV-unprocessed.smi

> <i_m_source_file_index>
595

> <i_lp_mmshare_version>
43012

> <i_f3d_flags>
0

> <s_epik_input>
W0NIMl0xW0NIMl1bQ0gyXVtDSDJdW0NIXTFbTkhdQyg9TylbTkhdQyg9TylbQ0gyXW4yW2NIXWMoQyhGKShGKUYpW2NIXVtjSF1jMj1P

> <s_epik_cmdline>
J2VwaWtfcHl0aG9uJywgJy1waCcsICc3LjAnLCAnLXRuJywgJzgnLCAnLW1hJywgJzIwMCcsICctbWV0YWxfYmluZGluZycsICctaW1hZScsICc8aW5maWxlLm1hZT4nLCAnLW9tYWUnLCAnPG91dGZpbGUubWFlPic=

> <r_lp_tautomer_probability>
1

> <r_epik_Ionization_Penalty>
3.29047e-05

> <r_epik_Ionization_Penalty_Charging>
1.42456e-08

> <r_epik_Ionization_Penalty_Neutral>
3.28905e-05

> <r_epik_State_Penalty>
-0

> <r_epik_Charging_Adjusted_Penalty>
1.42456e-08

> <i_epik_Tot_Q>
0

> <i_epik_Tot_abs_Q>
0

> <r_epik_Metal_State_Penalty>
-0

> <b_epik_Metal_Only>
0

> <s_lp_Force_Field>
OPLS_2005

> <r_lp_Energy>
34.7393

> <b_lp_Chiralities_Consistent>
1

> <s_lp_Variant>
AV-unprocessed.smi:595-1

> <Gold.Version>
5.8.1

> <Gold.Id.Protein>
6NUR|6NUR_protein|mol2

> <Gold.PLP.Fitness>
50.0806

> <Gold.PLP.PLP>
-46.1302

> <Gold.PLP.part.hbond>
-2.8373

> <Gold.PLP.part.metal>
0.0000

> <Gold.PLP.part.buried>
-2.9651

> <Gold.PLP.part.nonpolar>
-40.0829

> <Gold.PLP.part.repulsive>
0.3801

> <Gold.PLP.ligand.clash>
2.5653

> <Gold.PLP.ligand.torsion>
0.8700

> <Gold.PLP.Chemscore.Hbond>
2.4800

> <Gold.PLP.Chemscore.CHOScore>
0.2472

> <Gold.PLP.Chemscore.Metal>
0.0000

> <Gold.Chemscore.Hbonds>
donor molecule, donor type, donor heavy atom, donor atom, acceptor molecule, acceptor atom, score
      L1  H    18    30       P1  7957  0.42
      P1  H  7989  7998       L1    17  1.00
      P1  H  7997  8010       L1    14  0.88
      L1  C     5    26       P1  8028  0.40

> <Gold.PLP.Chemscore.Internal.Correction>
0.0741

> <Gold.Rescore>
     Score         DG    S(hbond)    S(metal)    S(lipo)     H(rot)  DE(clash)    DE(int)     intcor
     15.24     -20.20       2.86        0.00      80.76       1.68       0.78       4.19       ----

> <Gold.Chemscore.Fitness>
15.2361

> <Gold.Chemscore.DG>
-20.2021

> <Gold.Chemscore.ZeroCoef>
-5.4800

> <Gold.Chemscore.Hbond>
2.8628

> <Gold.Chemscore.Metal>
0.0000

> <Gold.Chemscore.Lipo>
80.7562

> <Gold.Chemscore.Internal_Hbond>
0.0000

> <Gold.Chemscore.DEClash>
0.7774

> <Gold.Chemscore.DEInternal>
4.1885

> <Gold.Chemscore.Rot>
1.6750

> <Gold.Chemscore.Internal.Correction>
   9.000000E+99

> <Gold.Chemscore.Hbonds>
donor molecule, donor type, donor heavy atom, donor atom, acceptor molecule, acceptor atom, score
      L1  H    18    30       P1  7957  0.39
      P1  H  7989  7998       L1    17  0.78
      P1  H  7997  8010       L1    14  0.17

> <Gold.Chemscore.Hbond.Weighted>
-9.5617

> <Gold.Chemscore.Metal.Weighted>
-0.0000

> <Gold.Chemscore.Lipo.Weighted>
-9.4485

> <Gold.Chemscore.Internal_Hbond.Weighted>
0.0000

> <Gold.Chemscore.DEClash.Weighted>
0.7774

> <Gold.Chemscore.DEInternal.Weighted>
4.1885

> <Gold.Chemscore.Rot.Weighted>
4.2881

> <Gold.Chemscore.Internal.Correction.Weighted>
   9.000000E+99

> <Gold.Protein.RotatedTorsions>
[ 6907 6896 6895 6894 ] final  111.26 input  -60.11 | X-H torsion
[ 7974 7965 7964 7962 ] final    4.78 input  175.53 | X-H torsion
[ 8008 7997 7996 7995 ] final   47.75 input   59.86 | X-H torsion
[ 10167 10162 10161 10158 ] final  -73.42 input  -65.29 | X-H torsion
[ 10718 10713 10712 10709 ] final  103.22 input   66.30 | X-H torsion
[ 10763 10752 10751 10750 ] final    6.64 input  -60.55 | X-H torsion
[ 11005 11000 10999 10996 ] final  -25.90 input  -57.11 | X-H torsion

> <Gold.Protein.ActiveResidues>
 VAL166  LYS551  ARG553  GLY616  TRP617  ASP618  TYR619  PRO620  LYS621  CYS622 
 ASP623  PHE694  ASN695  SER759  ASP760  ASP761  ALA762  ILE779  LEU786  VAL792 
 PHE793  MET794  SER795  GLU796  ALA797  LYS798  CYS799  TRP800  GLU811  SER814 

> <Gold.Protein.RotatedAtoms>
  152.4978  133.8683  159.7285 H   0  0  0  0  0  0  0  0  0  0  0  0  # atno 6907 bound_to 6896
  150.9176  133.6911  159.2846 H   0  0  0  0  0  0  0  0  0  0  0  0  # atno 6908 bound_to 6896
  151.4298  135.1012  159.9691 H   0  0  0  0  0  0  0  0  0  0  0  0  # atno 6909 bound_to 6896
  146.2443  140.0482  142.8377 H   0  0  0  0  0  0  0  0  0  0  0  0  # atno 7974 bound_to 7965
  155.3742  140.3425  155.4244 H   0  0  0  0  0  0  0  0  0  0  0  0  # atno 8008 bound_to 7997
  156.1646  140.1611  156.8588 H   0  0  0  0  0  0  0  0  0  0  0  0  # atno 8009 bound_to 7997
  154.5172  140.0775  156.8086 H   0  0  0  0  0  0  0  0  0  0  0  0  # atno 8010 bound_to 7997
  140.5112  143.2345  151.7590 H   0  0  0  0  0  0  0  0  0  0  0  0  # atno 10167 bound_to 10162
  157.6779  131.0773  150.5523 H   0  0  0  0  0  0  0  0  0  0  0  0  # atno 10718 bound_to 10713
  153.2454  135.6908  153.7737 H   0  0  0  0  0  0  0  0  0  0  0  0  # atno 10763 bound_to 10752
  153.6851  135.3322  155.3189 H   0  0  0  0  0  0  0  0  0  0  0  0  # atno 10764 bound_to 10752
  154.8372  135.4532  154.1391 H   0  0  0  0  0  0  0  0  0  0  0  0  # atno 10765 bound_to 10752
  140.8980  133.7543  156.0506 H   0  0  0  0  0  0  0  0  0  0  0  0  # atno 11005 bound_to 11000
  145.1008  140.9344  143.4714 LP  0  0  0  0  0  0  0  0  0  0  0  0  # atno 17320 bound_to 7965
  145.0675  139.3057  143.5849 LP  0  0  0  0  0  0  0  0  0  0  0  0  # atno 17321 bound_to 7965
  139.4896  144.4388  151.9788 LP  0  0  0  0  0  0  0  0  0  0  0  0  # atno 17342 bound_to 10162
  140.3480  144.3123  150.5954 LP  0  0  0  0  0  0  0  0  0  0  0  0  # atno 17343 bound_to 10162
  156.5827  130.4308  149.5970 LP  0  0  0  0  0  0  0  0  0  0  0  0  # atno 17370 bound_to 10713
  156.2648  130.6983  151.1763 LP  0  0  0  0  0  0  0  0  0  0  0  0  # atno 17371 bound_to 10713
  140.8265  134.3228  157.5364 LP  0  0  0  0  0  0  0  0  0  0  0  0  # atno 17394 bound_to 11000
  139.8738  134.9339  156.3593 LP  0  0  0  0  0  0  0  0  0  0  0  0  # atno 17395 bound_to 11000

$$$$
