AV-unprocessed.smi:2187|AV-procd|sdf|8879|dock6
  -GOLD-   2272012 83D 1   1.00000     0.00000
 Structure written by MMmdl.
 42 43  0  0  0  0  0  0  0  0  1 V2000
  154.2603  140.6651  160.8043 C   0  0  0  0  0  0  0  0  0  0  0  0
  153.2757  141.6095  160.1756 C   0  0  0  0  0  0  0  0  0  0  0  0
  153.0684  142.7914  160.7319 N   0  0  0  0  0  0  0  0  0  0  0  0
  152.1593  143.3911  159.9374 N   0  0  0  0  0  0  0  0  0  0  0  0
  151.7035  144.7285  160.2632 C   0  0  0  0  0  0  0  0  0  0  0  0
  151.7946  142.5880  158.8744 C   0  0  0  0  0  0  0  0  0  0  0  0
  150.8070  143.0301  157.8430 C   0  0  0  0  0  0  0  0  0  0  0  0
  152.4966  141.4186  158.9959 C   0  0  0  0  0  0  0  0  0  0  0  0
  152.4715  140.2097  158.0955 C   0  0  0  0  0  0  0  0  0  0  0  0
  151.0271  139.8973  157.7072 C   0  0  0  0  0  0  0  0  0  0  0  0
  150.2357  139.4857  158.5554 O   0  0  0  0  0  0  0  0  0  0  0  0
  150.6953  140.1102  156.4236 N   0  0  0  0  0  0  0  0  0  0  0  0
  149.3663  139.9139  155.8417 C   0  0  1  0  0  0  0  0  0  0  0  0
  148.8396  141.3029  155.4135 C   0  0  0  0  0  0  0  0  0  0  0  0
  147.3076  141.3782  155.2956 C   0  0  0  0  0  0  0  0  0  0  0  0
  146.6975  140.4986  154.1937 C   0  0  0  0  0  0  0  0  0  0  0  0
  146.9366  138.9934  154.4012 C   0  0  0  0  0  0  0  0  0  0  0  0
  148.2872  138.5960  154.0254 N   0  0  0  0  0  0  0  0  0  0  0  0
  149.4325  138.9896  154.6031 C   0  0  0  0  0  0  0  0  0  0  0  0
  150.5161  138.6223  154.1489 O   0  0  0  0  0  0  0  0  0  0  0  0
  155.2169  140.6983  160.2824 H   0  0  0  0  0  0  0  0  0  0  0  0
  153.8980  139.6379  160.7682 H   0  0  0  0  0  0  0  0  0  0  0  0
  154.4440  140.9121  161.8505 H   0  0  0  0  0  0  0  0  0  0  0  0
  150.6147  144.7662  160.2241 H   0  0  0  0  0  0  0  0  0  0  0  0
  152.1114  145.4384  159.5436 H   0  0  0  0  0  0  0  0  0  0  0  0
  152.0283  145.0127  161.2652 H   0  0  0  0  0  0  0  0  0  0  0  0
  150.8070  142.3607  156.9829 H   0  0  0  0  0  0  0  0  0  0  0  0
  151.0427  144.0309  157.4812 H   0  0  0  0  0  0  0  0  0  0  0  0
  149.7989  143.0468  158.2567 H   0  0  0  0  0  0  0  0  0  0  0  0
  153.0662  140.3699  157.1953 H   0  0  0  0  0  0  0  0  0  0  0  0
  152.9026  139.3355  158.5842 H   0  0  0  0  0  0  0  0  0  0  0  0
  151.4167  140.4415  155.8001 H   0  0  0  0  0  0  0  0  0  0  0  0
  148.7112  139.4796  156.5992 H   0  0  0  0  0  0  0  0  0  0  0  0
  149.1365  142.0416  156.1599 H   0  0  0  0  0  0  0  0  0  0  0  0
  149.3066  141.6278  154.4820 H   0  0  0  0  0  0  0  0  0  0  0  0
  146.8583  141.1209  156.2555 H   0  0  0  0  0  0  0  0  0  0  0  0
  147.0255  142.4143  155.1058 H   0  0  0  0  0  0  0  0  0  0  0  0
  145.6222  140.6781  154.1754 H   0  0  0  0  0  0  0  0  0  0  0  0
  147.0680  140.8081  153.2154 H   0  0  0  0  0  0  0  0  0  0  0  0
  146.7208  138.6961  155.4285 H   0  0  0  0  0  0  0  0  0  0  0  0
  146.2491  138.4312  153.7690 H   0  0  0  0  0  0  0  0  0  0  0  0
  148.3641  137.9828  153.2266 H   0  0  0  0  0  0  0  0  0  0  0  0
  1  2  1  0  0  0  0
  1 21  1  0  0  0  0
  1 22  1  0  0  0  0
  1 23  1  0  0  0  0
  2  8  1  0  0  0  0
  2  3  2  0  0  0  0
  3  4  1  0  0  0  0
  4  5  1  0  0  0  0
  4  6  1  0  0  0  0
  5 24  1  0  0  0  0
  5 25  1  0  0  0  0
  5 26  1  0  0  0  0
  6  7  1  0  0  0  0
  6  8  2  0  0  0  0
  7 27  1  0  0  0  0
  7 28  1  0  0  0  0
  7 29  1  0  0  0  0
  8  9  1  0  0  0  0
  9 10  1  0  0  0  0
  9 30  1  0  0  0  0
  9 31  1  0  0  0  0
 10 11  2  0  0  0  0
 10 12  1  0  0  0  0
 12 13  1  0  0  0  0
 12 32  1  0  0  0  0
 13 19  1  0  0  0  0
 13 14  1  0  0  0  0
 13 33  1  0  0  0  0
 14 15  1  0  0  0  0
 14 34  1  0  0  0  0
 14 35  1  0  0  0  0
 15 16  1  0  0  0  0
 15 36  1  0  0  0  0
 15 37  1  0  0  0  0
 16 17  1  0  0  0  0
 16 38  1  0  0  0  0
 16 39  1  0  0  0  0
 17 18  1  0  0  0  0
 17 40  1  0  0  0  0
 17 41  1  0  0  0  0
 18 19  1  0  0  0  0
 18 42  1  0  0  0  0
 19 20  2  0  0  0  0
M  END
> <s_m_source_file>
AV-unprocessed.smi

> <i_m_source_file_index>
2187

> <i_lp_mmshare_version>
43012

> <i_f3d_flags>
0

> <s_epik_input>
W0NIM11jMW5uKFtDSDNdKWMoW0NIM10pYzFbQ0gyXUMoPU8pW05IXVtDQEBIXTJbQ0gyXVtDSDJdW0NIMl1bQ0gyXVtOSF1DMj1P

> <s_epik_cmdline>
J2VwaWtfcHl0aG9uJywgJy1waCcsICc3LjAnLCAnLXRuJywgJzgnLCAnLW1hJywgJzIwMCcsICctbWV0YWxfYmluZGluZycsICctaW1hZScsICc8aW5maWxlLm1hZT4nLCAnLW9tYWUnLCAnPG91dGZpbGUubWFlPic=

> <r_lp_tautomer_probability>
1

> <r_epik_Ionization_Penalty>
0.00280384

> <r_epik_Ionization_Penalty_Charging>
0

> <r_epik_Ionization_Penalty_Neutral>
0.00280384

> <r_epik_State_Penalty>
0.00195959

> <r_epik_Charging_Adjusted_Penalty>
0.00195959

> <i_epik_Tot_Q>
0

> <i_epik_Tot_abs_Q>
0

> <r_epik_Metal_State_Penalty>
-0

> <b_epik_Metal_Only>
0

> <s_lp_Force_Field>
OPLS_2005

> <r_lp_Energy>
5.77256

> <b_lp_Chiralities_Consistent>
1

> <s_lp_Variant>
AV-unprocessed.smi:2187-2

> <Gold.Version>
5.8.1

> <Gold.Id.Protein>
6NUR|6NUR_protein|mol2

> <Gold.PLP.Fitness>
45.3239

> <Gold.PLP.PLP>
-43.0103

> <Gold.PLP.part.hbond>
-2.0000

> <Gold.PLP.part.metal>
0.0000

> <Gold.PLP.part.buried>
-3.5858

> <Gold.PLP.part.nonpolar>
-37.4125

> <Gold.PLP.part.repulsive>
0.3785

> <Gold.PLP.ligand.clash>
0.0000

> <Gold.PLP.ligand.torsion>
0.3445

> <Gold.PLP.Chemscore.Hbond>
1.0000

> <Gold.PLP.Chemscore.CHOScore>
0.0000

> <Gold.PLP.Chemscore.Metal>
0.0000

> <Gold.Chemscore.Hbonds>
donor molecule, donor type, donor heavy atom, donor atom, acceptor molecule, acceptor atom, score
      L1  H    18    42       P1  7948  0.37

> <Gold.PLP.Chemscore.Internal.Correction>
0.0026

> <Gold.Rescore>
     Score         DG    S(hbond)    S(metal)    S(lipo)     H(rot)  DE(clash)    DE(int)     intcor
     16.91     -17.27       1.00        0.00     104.24       1.46       0.26       0.10       ----

> <Gold.Chemscore.Fitness>
16.9100

> <Gold.Chemscore.DG>
-17.2731

> <Gold.Chemscore.ZeroCoef>
-5.4800

> <Gold.Chemscore.Hbond>
0.9966

> <Gold.Chemscore.Metal>
0.0000

> <Gold.Chemscore.Lipo>
104.2444

> <Gold.Chemscore.Internal_Hbond>
0.0000

> <Gold.Chemscore.DEClash>
0.2625

> <Gold.Chemscore.DEInternal>
0.1006

> <Gold.Chemscore.Rot>
1.4578

> <Gold.Chemscore.Internal.Correction>
   9.000000E+99

> <Gold.Chemscore.Hbonds>
donor molecule, donor type, donor heavy atom, donor atom, acceptor molecule, acceptor atom, score
      L1  H    18    42       P1  7948  0.37

> <Gold.Chemscore.Hbond.Weighted>
-3.3286

> <Gold.Chemscore.Metal.Weighted>
-0.0000

> <Gold.Chemscore.Lipo.Weighted>
-12.1966

> <Gold.Chemscore.Internal_Hbond.Weighted>
0.0000

> <Gold.Chemscore.DEClash.Weighted>
0.2625

> <Gold.Chemscore.DEInternal.Weighted>
0.1006

> <Gold.Chemscore.Rot.Weighted>
3.7321

> <Gold.Chemscore.Internal.Correction.Weighted>
   9.000000E+99

> <Gold.Protein.RotatedTorsions>
[ 6907 6896 6895 6894 ] final  -54.23 input  -60.11 | X-H torsion
[ 7974 7965 7964 7962 ] final  -51.05 input  175.53 | X-H torsion
[ 8008 7997 7996 7995 ] final -143.45 input   59.86 | X-H torsion
[ 10167 10162 10161 10158 ] final  -83.36 input  -65.29 | X-H torsion
[ 10718 10713 10712 10709 ] final   34.77 input   66.30 | X-H torsion
[ 10763 10752 10751 10750 ] final  -57.00 input  -60.55 | X-H torsion
[ 11005 11000 10999 10996 ] final   72.60 input  -57.11 | X-H torsion

> <Gold.Protein.ActiveResidues>
 VAL166  LYS551  ARG553  GLY616  TRP617  ASP618  TYR619  PRO620  LYS621  CYS622 
 ASP623  PHE694  ASN695  SER759  ASP760  ASP761  ALA762  ILE779  LEU786  VAL792 
 PHE793  MET794  SER795  GLU796  ALA797  LYS798  CYS799  TRP800  GLU811  SER814 

> <Gold.Protein.RotatedAtoms>
  150.8356  134.7628  159.6889 H   0  0  0  0  0  0  0  0  0  0  0  0  # atno 6907 bound_to 6896
  152.4453  134.5504  159.9875 H   0  0  0  0  0  0  0  0  0  0  0  0  # atno 6908 bound_to 6896
  151.5655  133.3359  159.3015 H   0  0  0  0  0  0  0  0  0  0  0  0  # atno 6909 bound_to 6896
  145.9232  140.7815  142.9637 H   0  0  0  0  0  0  0  0  0  0  0  0  # atno 7974 bound_to 7965
  155.5108  140.0583  157.2923 H   0  0  0  0  0  0  0  0  0  0  0  0  # atno 8008 bound_to 7997
  154.4552  140.1969  156.0348 H   0  0  0  0  0  0  0  0  0  0  0  0  # atno 8009 bound_to 7997
  156.0785  140.3250  155.7668 H   0  0  0  0  0  0  0  0  0  0  0  0  # atno 8010 bound_to 7997
  140.4234  143.2576  151.8859 H   0  0  0  0  0  0  0  0  0  0  0  0  # atno 10167 bound_to 10162
  157.3144  130.7416  149.6745 H   0  0  0  0  0  0  0  0  0  0  0  0  # atno 10718 bound_to 10713
  154.2155  135.6387  153.5128 H   0  0  0  0  0  0  0  0  0  0  0  0  # atno 10763 bound_to 10752
  152.9980  135.5484  154.6170 H   0  0  0  0  0  0  0  0  0  0  0  0  # atno 10764 bound_to 10752
  154.5617  135.2909  155.0886 H   0  0  0  0  0  0  0  0  0  0  0  0  # atno 10765 bound_to 10752
  139.9482  134.7274  156.0926 H   0  0  0  0  0  0  0  0  0  0  0  0  # atno 11005 bound_to 11000
  144.6755  140.2009  143.7387 LP  0  0  0  0  0  0  0  0  0  0  0  0  # atno 17320 bound_to 7965
  145.8523  139.2181  143.1765 LP  0  0  0  0  0  0  0  0  0  0  0  0  # atno 17321 bound_to 7965
  139.4783  144.5413  151.8524 LP  0  0  0  0  0  0  0  0  0  0  0  0  # atno 17342 bound_to 10162
  140.4508  144.1857  150.5897 LP  0  0  0  0  0  0  0  0  0  0  0  0  # atno 17343 bound_to 10162
  155.9680  130.4242  150.4596 LP  0  0  0  0  0  0  0  0  0  0  0  0  # atno 17370 bound_to 10713
  157.2600  131.0565  151.2326 LP  0  0  0  0  0  0  0  0  0  0  0  0  # atno 17371 bound_to 10713
  141.1139  133.6634  156.3045 LP  0  0  0  0  0  0  0  0  0  0  0  0  # atno 17394 bound_to 11000
  140.5782  134.5772  157.5473 LP  0  0  0  0  0  0  0  0  0  0  0  0  # atno 17395 bound_to 11000

$$$$
