AV-unprocessed.smi:2505|AV-procd|sdf|9860|dock9
  -GOLD-   2272013493D 1   1.00000     0.00000
 Structure written by MMmdl.
 48 52  0  0  0  0  0  0  0  0  1 V2000
  147.1941  136.3463  155.6981 O   0  0  0  0  0  0  0  0  0  0  0  0
  147.7080  136.3751  154.5826 C   0  0  0  0  0  0  0  0  0  0  0  0
  148.6804  137.2259  154.2050 N   0  0  0  0  0  0  0  0  0  0  0  0
  149.1905  138.3611  154.8892 C   0  0  0  0  0  0  0  0  0  0  0  0
  148.8559  138.7428  156.2121 C   0  0  0  0  0  0  0  0  0  0  0  0
  149.3747  139.8515  156.7826 N   0  0  0  0  0  0  0  0  0  0  0  0
  150.2085  140.5837  156.0392 C   0  0  0  0  0  0  0  0  0  0  0  0
  150.8144  141.7854  156.6952 C   0  0  0  0  0  0  0  0  0  0  0  0
  151.6801  141.6420  157.9304 C   0  0  0  0  0  0  0  0  0  0  0  0
  150.3174  142.2668  158.0430 C   0  0  0  0  0  0  0  0  0  0  0  0
  150.5977  140.3222  154.7883 N   0  0  0  0  0  0  0  0  0  0  0  0
  150.0840  139.2155  154.2101 C   0  0  0  0  0  0  0  0  0  0  0  0
  147.3407  135.5067  153.6253 N   0  0  0  0  0  0  0  0  0  0  0  0
  146.3227  134.4573  153.7016 C   0  0  1  0  0  0  0  0  0  0  0  0
  145.7374  134.1420  152.3247 C   0  0  2  0  0  0  0  0  0  0  0  0
  144.4122  134.3518  151.6843 C   0  0  0  0  0  0  0  0  0  0  0  0
  144.2441  132.9356  151.0740 C   0  0  0  0  0  0  0  0  0  0  0  0
  145.2941  132.1250  151.6561 O   0  0  0  0  0  0  0  0  0  0  0  0
  145.5628  132.7511  152.8946 C   0  0  1  0  0  0  0  0  0  0  0  0
  146.8857  132.9817  153.6533 C   0  0  0  0  0  0  0  0  0  0  0  0
  148.2098  132.6841  152.9261 C   0  0  0  0  0  0  0  0  0  0  0  0
  149.2569  132.4128  154.0017 C   0  0  0  0  0  0  0  0  0  0  0  0
  148.4768  131.7336  155.1202 C   0  0  0  0  0  0  0  0  0  0  0  0
  147.0365  132.2430  154.9909 C   0  0  0  0  0  0  0  0  0  0  0  0
  149.0693  137.0665  153.2870 H   0  0  0  0  0  0  0  0  0  0  0  0
  148.1665  138.1886  156.8284 H   0  0  0  0  0  0  0  0  0  0  0  0
  151.0970  142.5366  155.9602 H   0  0  0  0  0  0  0  0  0  0  0  0
  151.8094  140.6454  158.3482 H   0  0  0  0  0  0  0  0  0  0  0  0
  152.5441  142.2978  158.0148 H   0  0  0  0  0  0  0  0  0  0  0  0
  150.2685  143.3417  158.2035 H   0  0  0  0  0  0  0  0  0  0  0  0
  149.5399  141.6861  158.5356 H   0  0  0  0  0  0  0  0  0  0  0  0
  150.3910  139.0108  153.1947 H   0  0  0  0  0  0  0  0  0  0  0  0
  147.8397  135.5678  152.7496 H   0  0  0  0  0  0  0  0  0  0  0  0
  145.5577  134.6280  154.4648 H   0  0  0  0  0  0  0  0  0  0  0  0
  146.5197  134.1839  151.5607 H   0  0  0  0  0  0  0  0  0  0  0  0
  143.6360  134.5764  152.4170 H   0  0  0  0  0  0  0  0  0  0  0  0
  144.4265  135.1358  150.9267 H   0  0  0  0  0  0  0  0  0  0  0  0
  143.2642  132.5220  151.3147 H   0  0  0  0  0  0  0  0  0  0  0  0
  144.3513  132.9448  149.9890 H   0  0  0  0  0  0  0  0  0  0  0  0
  144.7077  132.6523  153.5733 H   0  0  0  0  0  0  0  0  0  0  0  0
  148.0957  131.7958  152.3033 H   0  0  0  0  0  0  0  0  0  0  0  0
  148.5385  133.4870  152.2665 H   0  0  0  0  0  0  0  0  0  0  0  0
  150.0871  131.8065  153.6384 H   0  0  0  0  0  0  0  0  0  0  0  0
  149.6684  133.3560  154.3619 H   0  0  0  0  0  0  0  0  0  0  0  0
  148.4952  130.6529  154.9742 H   0  0  0  0  0  0  0  0  0  0  0  0
  148.9039  131.9402  156.1021 H   0  0  0  0  0  0  0  0  0  0  0  0
  146.7969  132.8993  155.8270 H   0  0  0  0  0  0  0  0  0  0  0  0
  146.3423  131.4045  155.0595 H   0  0  0  0  0  0  0  0  0  0  0  0
  1  2  2  0  0  0  0
  2  3  1  0  0  0  0
  2 13  1  0  0  0  0
  3  4  1  0  0  0  0
  3 25  1  0  0  0  0
  4 12  1  0  0  0  0
  4  5  2  0  0  0  0
  5  6  1  0  0  0  0
  5 26  1  0  0  0  0
  6  7  2  0  0  0  0
  7  8  1  0  0  0  0
  7 11  1  0  0  0  0
  8 10  1  0  0  0  0
  8  9  1  0  0  0  0
  8 27  1  0  0  0  0
  9 10  1  0  0  0  0
  9 28  1  0  0  0  0
  9 29  1  0  0  0  0
 10 30  1  0  0  0  0
 10 31  1  0  0  0  0
 11 12  2  0  0  0  0
 12 32  1  0  0  0  0
 13 14  1  0  0  0  0
 13 33  1  0  0  0  0
 14 20  1  0  0  0  0
 14 15  1  0  0  0  0
 14 34  1  0  0  0  0
 15 19  1  0  0  0  0
 15 16  1  0  0  0  0
 15 35  1  0  0  0  0
 16 17  1  0  0  0  0
 16 36  1  0  0  0  0
 16 37  1  0  0  0  0
 17 18  1  0  0  0  0
 17 38  1  0  0  0  0
 17 39  1  0  0  0  0
 18 19  1  0  0  0  0
 19 20  1  0  0  0  0
 19 40  1  0  0  0  0
 20 24  1  0  0  0  0
 20 21  1  0  0  0  0
 21 22  1  0  0  0  0
 21 41  1  0  0  0  0
 21 42  1  0  0  0  0
 22 23  1  0  0  0  0
 22 43  1  0  0  0  0
 22 44  1  0  0  0  0
 23 24  1  0  0  0  0
 23 45  1  0  0  0  0
 23 46  1  0  0  0  0
 24 47  1  0  0  0  0
 24 48  1  0  0  0  0
M  END
> <s_m_source_file>
AV-unprocessed.smi

> <i_m_source_file_index>
2505

> <i_lp_mmshare_version>
43012

> <i_f3d_flags>
0

> <s_epik_input>
W0NIMl0xW0NIMl1bQ0hdMWMobltjSF0yKW5bY0hdYzJbTkhdQyg9TylbTkhdW0NAQEhdM1tDQEBIXShbQ0gyXVtDSDJdTzQpW0NASF00QzM1W0NIMl1bQ0gyXVtDSDJdW0NIMl01

> <s_epik_cmdline>
J2VwaWtfcHl0aG9uJywgJy1waCcsICc3LjAnLCAnLXRuJywgJzgnLCAnLW1hJywgJzIwMCcsICctbWV0YWxfYmluZGluZycsICctaW1hZScsICc8aW5maWxlLm1hZT4nLCAnLW9tYWUnLCAnPG91dGZpbGUubWFlPic=

> <r_lp_tautomer_probability>
1

> <r_epik_Ionization_Penalty>
2.6075e-05

> <r_epik_Ionization_Penalty_Charging>
0

> <r_epik_Ionization_Penalty_Neutral>
2.6075e-05

> <r_epik_State_Penalty>
-0

> <r_epik_Charging_Adjusted_Penalty>
0

> <i_epik_Tot_Q>
0

> <i_epik_Tot_abs_Q>
0

> <r_epik_Metal_State_Penalty>
-0

> <b_epik_Metal_Only>
0

> <s_lp_Force_Field>
OPLS_2005

> <r_lp_Energy>
84.9225

> <b_lp_Chiralities_Consistent>
1

> <s_lp_Variant>
AV-unprocessed.smi:2505-8

> <Gold.Version>
5.8.1

> <Gold.Id.Protein>
6NUR|6NUR_protein|mol2

> <Gold.PLP.Fitness>
42.7967

> <Gold.PLP.PLP>
-31.1338

> <Gold.PLP.part.hbond>
-2.8019

> <Gold.PLP.part.metal>
0.0000

> <Gold.PLP.part.buried>
-3.2892

> <Gold.PLP.part.nonpolar>
-25.5183

> <Gold.PLP.part.repulsive>
0.2399

> <Gold.PLP.ligand.clash>
0.0000

> <Gold.PLP.ligand.torsion>
0.3091

> <Gold.PLP.Chemscore.Hbond>
2.9600

> <Gold.PLP.Chemscore.CHOScore>
1.0000

> <Gold.PLP.Chemscore.Metal>
0.0000

> <Gold.Chemscore.Hbonds>
donor molecule, donor type, donor heavy atom, donor atom, acceptor molecule, acceptor atom, score
      L1  H     3    25       P1  7948  0.96
      L1  H    13    33       P1  7948  1.00
      P1  H  7989  7998       L1    11  1.00
      L1  C    12    32       P1  7957  0.99

> <Gold.PLP.Chemscore.Internal.Correction>
0.4012

> <Gold.Rescore>
     Score         DG    S(hbond)    S(metal)    S(lipo)     H(rot)  DE(clash)    DE(int)     intcor
     18.62     -20.19       2.66        0.00      75.44       1.17       0.03       1.55       ----

> <Gold.Chemscore.Fitness>
18.6164

> <Gold.Chemscore.DG>
-20.1925

> <Gold.Chemscore.ZeroCoef>
-5.4800

> <Gold.Chemscore.Hbond>
2.6623

> <Gold.Chemscore.Metal>
0.0000

> <Gold.Chemscore.Lipo>
75.4419

> <Gold.Chemscore.Internal_Hbond>
0.0000

> <Gold.Chemscore.DEClash>
0.0310

> <Gold.Chemscore.DEInternal>
1.5452

> <Gold.Chemscore.Rot>
1.1744

> <Gold.Chemscore.Internal.Correction>
   9.000000E+99

> <Gold.Chemscore.Hbonds>
donor molecule, donor type, donor heavy atom, donor atom, acceptor molecule, acceptor atom, score
      L1  H     3    25       P1  7948  0.92
      L1  H    13    33       P1  7948  0.92
      P1  H  7989  7998       L1    11  0.25

> <Gold.Chemscore.Hbond.Weighted>
-8.8922

> <Gold.Chemscore.Metal.Weighted>
-0.0000

> <Gold.Chemscore.Lipo.Weighted>
-8.8267

> <Gold.Chemscore.Internal_Hbond.Weighted>
0.0000

> <Gold.Chemscore.DEClash.Weighted>
0.0310

> <Gold.Chemscore.DEInternal.Weighted>
1.5452

> <Gold.Chemscore.Rot.Weighted>
3.0064

> <Gold.Chemscore.Internal.Correction.Weighted>
   9.000000E+99

> <Gold.Protein.RotatedTorsions>
[ 6907 6896 6895 6894 ] final   40.63 input  -60.11 | X-H torsion
[ 7974 7965 7964 7962 ] final  -63.89 input  175.53 | X-H torsion
[ 8008 7997 7996 7995 ] final   35.53 input   59.86 | X-H torsion
[ 10167 10162 10161 10158 ] final   -8.58 input  -65.29 | X-H torsion
[ 10718 10713 10712 10709 ] final   51.51 input   66.30 | X-H torsion
[ 10763 10752 10751 10750 ] final  -86.90 input  -60.55 | X-H torsion
[ 11005 11000 10999 10996 ] final  -27.24 input  -57.11 | X-H torsion

> <Gold.Protein.ActiveResidues>
 VAL166  LYS551  ARG553  GLY616  TRP617  ASP618  TYR619  PRO620  LYS621  CYS622 
 ASP623  PHE694  ASN695  SER759  ASP760  ASP761  ALA762  ILE779  LEU786  VAL792 
 PHE793  MET794  SER795  GLU796  ALA797  LYS798  CYS799  TRP800  GLU811  SER814 

> <Gold.Protein.RotatedAtoms>
  152.1850  134.8722  160.0522 H   0  0  0  0  0  0  0  0  0  0  0  0  # atno 6907 bound_to 6896
  151.9632  133.3697  159.4051 H   0  0  0  0  0  0  0  0  0  0  0  0  # atno 6908 bound_to 6896
  150.6924  134.4142  159.5219 H   0  0  0  0  0  0  0  0  0  0  0  0  # atno 6909 bound_to 6896
  145.7735  140.8800  143.0368 H   0  0  0  0  0  0  0  0  0  0  0  0  # atno 7974 bound_to 7965
  155.1726  140.3293  155.4390 H   0  0  0  0  0  0  0  0  0  0  0  0  # atno 8008 bound_to 7997
  156.2505  140.1941  156.6779 H   0  0  0  0  0  0  0  0  0  0  0  0  # atno 8009 bound_to 7997
  154.6327  140.0580  156.9737 H   0  0  0  0  0  0  0  0  0  0  0  0  # atno 8010 bound_to 7997
  140.7063  143.5953  150.8852 H   0  0  0  0  0  0  0  0  0  0  0  0  # atno 10167 bound_to 10162
  157.4987  130.8423  149.8290 H   0  0  0  0  0  0  0  0  0  0  0  0  # atno 10718 bound_to 10713
  154.6276  135.5432  153.7644 H   0  0  0  0  0  0  0  0  0  0  0  0  # atno 10763 bound_to 10752
  153.0268  135.6428  154.1348 H   0  0  0  0  0  0  0  0  0  0  0  0  # atno 10764 bound_to 10752
  154.1280  135.2916  155.3172 H   0  0  0  0  0  0  0  0  0  0  0  0  # atno 10765 bound_to 10752
  140.9102  133.7466  156.0660 H   0  0  0  0  0  0  0  0  0  0  0  0  # atno 11005 bound_to 11000
  144.6808  139.9888  143.7484 LP  0  0  0  0  0  0  0  0  0  0  0  0  # atno 17320 bound_to 7965
  146.0146  139.3199  143.0849 LP  0  0  0  0  0  0  0  0  0  0  0  0  # atno 17321 bound_to 7965
  139.9678  143.6091  152.2983 LP  0  0  0  0  0  0  0  0  0  0  0  0  # atno 17342 bound_to 10162
  139.6667  144.7662  151.1861 LP  0  0  0  0  0  0  0  0  0  0  0  0  # atno 17343 bound_to 10162
  156.0216  130.3793  150.1945 LP  0  0  0  0  0  0  0  0  0  0  0  0  # atno 17370 bound_to 10713
  157.0135  130.9958  151.3359 LP  0  0  0  0  0  0  0  0  0  0  0  0  # atno 17371 bound_to 10713
  140.8120  134.3388  157.5409 LP  0  0  0  0  0  0  0  0  0  0  0  0  # atno 17394 bound_to 11000
  139.8756  134.9259  156.3387 LP  0  0  0  0  0  0  0  0  0  0  0  0  # atno 17395 bound_to 11000

$$$$
