AV-unprocessed.smi:2780|AV-procd|sdf|10713|dock8
  -GOLD-   2272015153D 1   1.00000     0.00000
 Structure written by MMmdl.
 47 49  0  0  0  0  0  0  0  0  2 V2000
  144.8360  135.5082  152.2915 C   0  0  0  0  0  0  0  0  0  0  0  0
  144.8759  134.2435  151.4494 C   0  0  0  0  0  0  0  0  0  0  0  0
  144.3073  134.2106  150.2278 C   0  0  0  0  0  0  0  0  0  0  0  0
  144.2407  132.9836  149.3353 C   0  0  0  0  0  0  0  0  0  0  0  0
  145.0549  131.7971  149.8768 C   0  0  0  0  0  0  0  0  0  0  0  0
  144.9749  131.7132  151.4111 C   0  0  1  0  0  0  0  0  0  0  0  0
  145.5812  130.4067  151.9519 C   0  0  0  0  0  0  0  0  0  0  0  0
  145.5372  133.0050  152.0693 C   0  0  1  0  0  0  0  0  0  0  0  0
  147.0862  133.0802  152.0257 C   0  0  0  0  0  0  0  0  0  0  0  0
  147.6477  133.9977  153.0364 N   0  3  0  0  0  0  0  0  0  0  0  0
  148.5018  133.3365  154.0410 C   0  0  0  0  0  0  0  0  0  0  0  0
  148.4558  134.0830  155.3810 C   0  0  0  0  0  0  0  0  0  0  0  0
  149.6983  133.9339  156.1169 N   0  0  0  0  0  0  0  0  0  0  0  0
  150.1120  132.8892  156.8507 C   0  0  0  0  0  0  0  0  0  0  0  0
  151.3145  133.0305  157.4060 N   0  0  0  0  0  0  0  0  0  0  0  0
  151.7402  134.2792  156.9988 N   0  0  0  0  0  0  0  0  0  0  0  0
  150.7458  134.7732  156.2520 C   0  0  0  0  0  0  0  0  0  0  0  0
  150.8022  136.1060  155.5755 C   0  0  0  0  0  0  0  0  0  0  0  0
  151.1551  137.3616  156.3422 C   0  0  0  0  0  0  0  0  0  0  0  0
  149.7495  137.1601  155.8395 C   0  0  0  0  0  0  0  0  0  0  0  0
  144.4932  135.2847  153.3019 H   0  0  0  0  0  0  0  0  0  0  0  0
  144.1491  136.2401  151.8648 H   0  0  0  0  0  0  0  0  0  0  0  0
  145.8143  135.9820  152.3504 H   0  0  0  0  0  0  0  0  0  0  0  0
  143.8270  135.0967  149.8383 H   0  0  0  0  0  0  0  0  0  0  0  0
  143.1912  132.6991  149.2520 H   0  0  0  0  0  0  0  0  0  0  0  0
  144.5766  133.2438  148.3312 H   0  0  0  0  0  0  0  0  0  0  0  0
  144.6911  130.8741  149.4234 H   0  0  0  0  0  0  0  0  0  0  0  0
  146.0954  131.8940  149.5663 H   0  0  0  0  0  0  0  0  0  0  0  0
  143.9145  131.6703  151.6676 H   0  0  0  0  0  0  0  0  0  0  0  0
  146.6113  130.2670  151.6248 H   0  0  0  0  0  0  0  0  0  0  0  0
  145.0148  129.5443  151.5992 H   0  0  0  0  0  0  0  0  0  0  0  0
  145.5638  130.3847  153.0419 H   0  0  0  0  0  0  0  0  0  0  0  0
  145.2360  132.9728  153.1175 H   0  0  0  0  0  0  0  0  0  0  0  0
  147.5230  132.1005  152.2143 H   0  0  0  0  0  0  0  0  0  0  0  0
  147.4230  133.3938  151.0371 H   0  0  0  0  0  0  0  0  0  0  0  0
  148.1952  134.6999  152.5592 H   0  0  0  0  0  0  0  0  0  0  0  0
  148.1655  132.3077  154.1723 H   0  0  0  0  0  0  0  0  0  0  0  0
  149.5270  133.2947  153.6700 H   0  0  0  0  0  0  0  0  0  0  0  0
  148.2805  135.1472  155.2180 H   0  0  0  0  0  0  0  0  0  0  0  0
  147.6308  133.7202  155.9947 H   0  0  0  0  0  0  0  0  0  0  0  0
  149.5174  131.9969  156.9809 H   0  0  0  0  0  0  0  0  0  0  0  0
  151.1813  136.0061  154.5604 H   0  0  0  0  0  0  0  0  0  0  0  0
  151.3207  137.2743  157.4142 H   0  0  0  0  0  0  0  0  0  0  0  0
  151.7697  138.1025  155.8347 H   0  0  0  0  0  0  0  0  0  0  0  0
  149.4240  137.7659  154.9966 H   0  0  0  0  0  0  0  0  0  0  0  0
  148.9847  136.9453  156.5829 H   0  0  0  0  0  0  0  0  0  0  0  0
  146.8833  134.4540  153.5138 H   0  0  0  0  0  0  0  0  0  0  0  0
  1  2  1  0  0  0  0
  1 21  1  0  0  0  0
  1 22  1  0  0  0  0
  1 23  1  0  0  0  0
  2  8  1  0  0  0  0
  2  3  2  0  0  0  0
  3  4  1  0  0  0  0
  3 24  1  0  0  0  0
  4  5  1  0  0  0  0
  4 25  1  0  0  0  0
  4 26  1  0  0  0  0
  5  6  1  0  0  0  0
  5 27  1  0  0  0  0
  5 28  1  0  0  0  0
  6  7  1  0  0  0  0
  6  8  1  0  0  0  0
  6 29  1  0  0  0  0
  7 30  1  0  0  0  0
  7 31  1  0  0  0  0
  7 32  1  0  0  0  0
  8  9  1  0  0  0  0
  8 33  1  0  0  0  0
  9 10  1  0  0  0  0
  9 34  1  0  0  0  0
  9 35  1  0  0  0  0
 10 11  1  0  0  0  0
 10 36  1  0  0  0  0
 10 47  1  0  0  0  0
 11 12  1  0  0  0  0
 11 37  1  0  0  0  0
 11 38  1  0  0  0  0
 12 13  1  0  0  0  0
 12 39  1  0  0  0  0
 12 40  1  0  0  0  0
 13 17  1  0  0  0  0
 13 14  1  0  0  0  0
 14 15  2  0  0  0  0
 14 41  1  0  0  0  0
 15 16  1  0  0  0  0
 16 17  2  0  0  0  0
 17 18  1  0  0  0  0
 18 20  1  0  0  0  0
 18 19  1  0  0  0  0
 18 42  1  0  0  0  0
 19 20  1  0  0  0  0
 19 43  1  0  0  0  0
 19 44  1  0  0  0  0
 20 45  1  0  0  0  0
 20 46  1  0  0  0  0
M  CHG  1  10   1
M  END
> <s_m_source_file>
AV-unprocessed.smi

> <i_m_source_file_index>
2780

> <i_lp_mmshare_version>
43012

> <i_f3d_flags>
0

> <s_epik_input>
W0NIM11DMT1bQ0hdW0NIMl1bQ0gyXVtDQEBIXShbQ0gzXSlbQ0BIXTFbQ0gyXVtOSF1bQ0gyXVtDSDJdbjJbY0hdbm5jMltDSF0zW0NIMl1bQ0gyXTM=

> <s_epik_cmdline>
J2VwaWtfcHl0aG9uJywgJy1waCcsICc3LjAnLCAnLXRuJywgJzgnLCAnLW1hJywgJzIwMCcsICctbWV0YWxfYmluZGluZycsICctaW1hZScsICc8aW5maWxlLm1hZT4nLCAnLW9tYWUnLCAnPG91dGZpbGUubWFlPic=

> <r_lp_tautomer_probability>
1

> <r_epik_Ionization_Penalty>
0.00176214

> <r_epik_Ionization_Penalty_Charging>
0.00175191

> <r_epik_Ionization_Penalty_Neutral>
1.02377e-05

> <r_epik_State_Penalty>
-0

> <r_epik_Charging_Adjusted_Penalty>
0.00175191

> <i_epik_Tot_Q>
1

> <i_epik_Tot_abs_Q>
1

> <r_epik_Metal_State_Penalty>
-0

> <b_epik_Metal_Only>
0

> <s_lp_Force_Field>
OPLS_2005

> <r_lp_Energy>
21.6978

> <b_lp_Chiralities_Consistent>
1

> <s_lp_Variant>
AV-unprocessed.smi:2780-1

> <Gold.Version>
5.8.1

> <Gold.Id.Protein>
6NUR|6NUR_protein|mol2

> <Gold.PLP.Fitness>
40.9489

> <Gold.PLP.PLP>
-34.7224

> <Gold.PLP.part.hbond>
-3.2157

> <Gold.PLP.part.metal>
0.0000

> <Gold.PLP.part.buried>
-2.3057

> <Gold.PLP.part.nonpolar>
-28.4599

> <Gold.PLP.part.repulsive>
0.0000

> <Gold.PLP.ligand.clash>
0.0000

> <Gold.PLP.ligand.torsion>
1.2562

> <Gold.PLP.Chemscore.Hbond>
2.8320

> <Gold.PLP.Chemscore.CHOScore>
0.0000

> <Gold.PLP.Chemscore.Metal>
0.0000

> <Gold.Chemscore.Hbonds>
donor molecule, donor type, donor heavy atom, donor atom, acceptor molecule, acceptor atom, score
      L1  H    10    36       P1  7948  2.00
      P1  H  6896  6907       L1    15  0.70

> <Gold.PLP.Chemscore.Internal.Correction>
0.2429

> <Gold.Rescore>
     Score         DG    S(hbond)    S(metal)    S(lipo)     H(rot)  DE(clash)    DE(int)     intcor
     14.03     -15.33       1.30        0.00      90.28       1.98       0.13       1.17       ----

> <Gold.Chemscore.Fitness>
14.0287

> <Gold.Chemscore.DG>
-15.3297

> <Gold.Chemscore.ZeroCoef>
-5.4800

> <Gold.Chemscore.Hbond>
1.3041

> <Gold.Chemscore.Metal>
0.0000

> <Gold.Chemscore.Lipo>
90.2784

> <Gold.Chemscore.Internal_Hbond>
0.0000

> <Gold.Chemscore.DEClash>
0.1344

> <Gold.Chemscore.DEInternal>
1.1666

> <Gold.Chemscore.Rot>
1.9799

> <Gold.Chemscore.Internal.Correction>
   9.000000E+99

> <Gold.Chemscore.Hbonds>
donor molecule, donor type, donor heavy atom, donor atom, acceptor molecule, acceptor atom, score
      L1  H    10    36       P1  7948  0.45
      P1  H  6896  6907       L1    15  0.10

> <Gold.Chemscore.Hbond.Weighted>
-4.3557

> <Gold.Chemscore.Metal.Weighted>
-0.0000

> <Gold.Chemscore.Lipo.Weighted>
-10.5626

> <Gold.Chemscore.Internal_Hbond.Weighted>
0.0000

> <Gold.Chemscore.DEClash.Weighted>
0.1344

> <Gold.Chemscore.DEInternal.Weighted>
1.1666

> <Gold.Chemscore.Rot.Weighted>
5.0685

> <Gold.Chemscore.Internal.Correction.Weighted>
   9.000000E+99

> <Gold.Protein.RotatedTorsions>
[ 6907 6896 6895 6894 ] final -163.31 input  -60.11 | X-H torsion
[ 7974 7965 7964 7962 ] final -110.33 input  175.53 | X-H torsion
[ 8008 7997 7996 7995 ] final   69.68 input   59.86 | X-H torsion
[ 10167 10162 10161 10158 ] final   59.03 input  -65.29 | X-H torsion
[ 10718 10713 10712 10709 ] final -167.95 input   66.30 | X-H torsion
[ 10763 10752 10751 10750 ] final  158.41 input  -60.55 | X-H torsion
[ 11005 11000 10999 10996 ] final  173.82 input  -57.11 | X-H torsion

> <Gold.Protein.ActiveResidues>
 VAL166  LYS551  ARG553  GLY616  TRP617  ASP618  TYR619  PRO620  LYS621  CYS622 
 ASP623  PHE694  ASN695  SER759  ASP760  ASP761  ALA762  ILE779  LEU786  VAL792 
 PHE793  MET794  SER795  GLU796  ALA797  LYS798  CYS799  TRP800  GLU811  SER814 

> <Gold.Protein.RotatedAtoms>
  151.3939  133.3779  159.2723 H   0  0  0  0  0  0  0  0  0  0  0  0  # atno 6907 bound_to 6896
  150.9484  134.8887  159.7667 H   0  0  0  0  0  0  0  0  0  0  0  0  # atno 6908 bound_to 6896
  152.5101  134.3894  159.9431 H   0  0  0  0  0  0  0  0  0  0  0  0  # atno 6909 bound_to 6896
  145.1696  140.8919  143.3543 H   0  0  0  0  0  0  0  0  0  0  0  0  # atno 7974 bound_to 7965
  155.7274  140.3492  155.5043 H   0  0  0  0  0  0  0  0  0  0  0  0  # atno 8008 bound_to 7997
  155.9214  140.1068  157.1225 H   0  0  0  0  0  0  0  0  0  0  0  0  # atno 8009 bound_to 7997
  154.4070  140.1249  156.4671 H   0  0  0  0  0  0  0  0  0  0  0  0  # atno 8010 bound_to 7997
  140.1809  144.4183  150.6616 H   0  0  0  0  0  0  0  0  0  0  0  0  # atno 10167 bound_to 10162
  156.6898  130.9155  151.3067 H   0  0  0  0  0  0  0  0  0  0  0  0  # atno 10718 bound_to 10713
  154.2156  135.2784  155.2943 H   0  0  0  0  0  0  0  0  0  0  0  0  # atno 10763 bound_to 10752
  154.5743  135.5609  153.7128 H   0  0  0  0  0  0  0  0  0  0  0  0  # atno 10764 bound_to 10752
  153.0054  135.6329  154.2295 H   0  0  0  0  0  0  0  0  0  0  0  0  # atno 10765 bound_to 10752
  140.3447  134.7247  157.4226 H   0  0  0  0  0  0  0  0  0  0  0  0  # atno 11005 bound_to 11000
  145.0246  139.3394  143.6055 LP  0  0  0  0  0  0  0  0  0  0  0  0  # atno 17320 bound_to 7965
  146.3470  139.9560  142.8723 LP  0  0  0  0  0  0  0  0  0  0  0  0  # atno 17321 bound_to 7965
  140.6520  143.2227  151.6054 LP  0  0  0  0  0  0  0  0  0  0  0  0  # atno 17342 bound_to 10162
  139.5297  144.2954  152.1118 LP  0  0  0  0  0  0  0  0  0  0  0  0  # atno 17343 bound_to 10162
  157.7013  130.9336  150.0794 LP  0  0  0  0  0  0  0  0  0  0  0  0  # atno 17370 bound_to 10713
  156.1806  130.3650  149.9040 LP  0  0  0  0  0  0  0  0  0  0  0  0  # atno 17371 bound_to 10713
  140.0752  134.5807  155.8598 LP  0  0  0  0  0  0  0  0  0  0  0  0  # atno 17394 bound_to 11000
  141.2029  133.6628  156.6032 LP  0  0  0  0  0  0  0  0  0  0  0  0  # atno 17395 bound_to 11000

$$$$
