AV-unprocessed.smi:3245|AV-procd|sdf|12408|dock10
  -GOLD-   2272018293D 1   1.00000     0.00000
 Structure written by MMmdl.
 34 35  0  0  0  0  0  0  0  0  2 V2000
  151.9750  144.7671  158.0175 C   0  0  0  0  0  0  0  0  0  0  0  0
  151.2676  143.4503  158.3805 C   0  0  2  0  0  0  0  0  0  0  0  0
  152.2237  142.4081  159.0085 C   0  0  0  0  0  0  0  0  0  0  0  0
  152.5944  142.7300  160.3747 N   0  0  0  0  0  0  0  0  0  0  0  0
  153.3427  141.9811  161.2584 C   0  0  0  0  0  0  0  0  0  0  0  0
  153.4165  142.6851  162.4262 C   0  0  0  0  0  0  0  0  0  0  0  0
  152.6670  143.8644  162.1579 C   0  0  0  0  0  0  0  0  0  0  0  0
  152.1729  143.8869  160.9307 N   0  0  0  0  0  0  0  0  0  0  0  0
  150.6769  142.9212  157.1575 N   0  0  0  0  0  0  0  0  0  0  0  0
  149.6208  141.9546  157.4260 C   0  0  0  0  0  0  0  0  0  0  0  0
  149.7804  140.7237  156.5157 C   0  0  0  0  0  0  0  0  0  0  0  0
  151.0633  140.0413  156.7272 N   0  0  0  0  0  0  0  0  0  0  0  0
  151.5158  139.6507  157.9229 C   0  0  0  0  0  0  0  0  0  0  0  0
  150.9657  139.7761  159.0174 O   0  0  0  0  0  0  0  0  0  0  0  0
  152.8667  139.0082  157.7125 C   0  0  0  0  0  0  0  0  0  0  0  0
  153.0422  139.1195  156.2825 N   0  5  0  0  0  0  0  0  0  0  0  0
  151.9544  139.7363  155.7635 C   0  0  0  0  0  0  0  0  0  0  0  0
  151.7598  140.0048  154.5782 O   0  0  0  0  0  0  0  0  0  0  0  0
  152.3743  145.2630  158.9024 H   0  0  0  0  0  0  0  0  0  0  0  0
  151.2860  145.4662  157.5426 H   0  0  0  0  0  0  0  0  0  0  0  0
  152.8040  144.5967  157.3295 H   0  0  0  0  0  0  0  0  0  0  0  0
  150.4690  143.6868  159.0853 H   0  0  0  0  0  0  0  0  0  0  0  0
  151.7769  141.4139  159.0137 H   0  0  0  0  0  0  0  0  0  0  0  0
  153.1372  142.3339  158.4165 H   0  0  0  0  0  0  0  0  0  0  0  0
  153.7567  141.0218  160.9849 H   0  0  0  0  0  0  0  0  0  0  0  0
  153.9263  142.4002  163.3344 H   0  0  0  0  0  0  0  0  0  0  0  0
  152.4664  144.6982  162.8144 H   0  0  0  0  0  0  0  0  0  0  0  0
  150.2944  143.6784  156.6095 H   0  0  0  0  0  0  0  0  0  0  0  0
  149.6207  141.6494  158.4717 H   0  0  0  0  0  0  0  0  0  0  0  0
  148.6570  142.4255  157.2295 H   0  0  0  0  0  0  0  0  0  0  0  0
  148.9744  140.0192  156.7266 H   0  0  0  0  0  0  0  0  0  0  0  0
  149.6492  141.0046  155.4693 H   0  0  0  0  0  0  0  0  0  0  0  0
  153.6256  139.5453  158.2824 H   0  0  0  0  0  0  0  0  0  0  0  0
  152.8463  137.9767  158.0657 H   0  0  0  0  0  0  0  0  0  0  0  0
  1  2  1  0  0  0  0
  1 19  1  0  0  0  0
  1 20  1  0  0  0  0
  1 21  1  0  0  0  0
  2  3  1  0  0  0  0
  2  9  1  0  0  0  0
  2 22  1  0  0  0  0
  3  4  1  0  0  0  0
  3 23  1  0  0  0  0
  3 24  1  0  0  0  0
  4  8  1  0  0  0  0
  4  5  1  0  0  0  0
  5  6  2  0  0  0  0
  5 25  1  0  0  0  0
  6  7  1  0  0  0  0
  6 26  1  0  0  0  0
  7  8  2  0  0  0  0
  7 27  1  0  0  0  0
  9 10  1  0  0  0  0
  9 28  1  0  0  0  0
 10 11  1  0  0  0  0
 10 29  1  0  0  0  0
 10 30  1  0  0  0  0
 11 12  1  0  0  0  0
 11 31  1  0  0  0  0
 11 32  1  0  0  0  0
 12 17  1  0  0  0  0
 12 13  1  0  0  0  0
 13 14  2  0  0  0  0
 13 15  1  0  0  0  0
 15 16  1  0  0  0  0
 15 33  1  0  0  0  0
 15 34  1  0  0  0  0
 16 17  1  0  0  0  0
 17 18  2  0  0  0  0
M  CHG  1  16  -1
M  END
> <s_m_source_file>
AV-unprocessed.smi

> <i_m_source_file_index>
3245

> <i_lp_mmshare_version>
43012

> <i_f3d_flags>
0

> <s_epik_input>
bjFbY0hdW2NIXVtjSF1uMVtDSDJdW0NAQEhdKFtDSDNdKVtOSF1bQ0gyXVtDSDJdTjJDKD1PKVtDSDJdW05IXUMyPU8=

> <s_epik_cmdline>
J2VwaWtfcHl0aG9uJywgJy1waCcsICc3LjAnLCAnLXRuJywgJzgnLCAnLW1hJywgJzIwMCcsICctbWV0YWxfYmluZGluZycsICctaW1hZScsICc8aW5maWxlLm1hZT4nLCAnLW9tYWUnLCAnPG91dGZpbGUubWFlPic=

> <r_lp_tautomer_probability>
1

> <r_epik_Ionization_Penalty>
8.62027

> <r_epik_Ionization_Penalty_Charging>
6.28132

> <r_epik_Ionization_Penalty_Neutral>
2.33895

> <r_epik_State_Penalty>
8.57043

> <r_epik_Charging_Adjusted_Penalty>
14.8517

> <i_epik_Tot_Q>
-1

> <i_epik_Tot_abs_Q>
1

> <r_epik_Metal_State_Penalty>
4.56785

> <b_epik_Metal_Only>
1

> <s_lp_Force_Field>
OPLS_2005

> <r_lp_Energy>
21.0374

> <b_lp_Chiralities_Consistent>
1

> <s_lp_Variant>
AV-unprocessed.smi:3245-7

> <Gold.Version>
5.8.1

> <Gold.Id.Protein>
6NUR|6NUR_protein|mol2

> <Gold.PLP.Fitness>
50.2131

> <Gold.PLP.PLP>
-39.5370

> <Gold.PLP.part.hbond>
-3.1129

> <Gold.PLP.part.metal>
0.0000

> <Gold.PLP.part.buried>
-5.2693

> <Gold.PLP.part.nonpolar>
-31.7153

> <Gold.PLP.part.repulsive>
0.1863

> <Gold.PLP.ligand.clash>
0.0000

> <Gold.PLP.ligand.torsion>
0.6484

> <Gold.PLP.Chemscore.Hbond>
3.9750

> <Gold.PLP.Chemscore.CHOScore>
0.0000

> <Gold.PLP.Chemscore.Metal>
0.0000

> <Gold.Chemscore.Hbonds>
donor molecule, donor type, donor heavy atom, donor atom, acceptor molecule, acceptor atom, score
      L1  H     9    28       P1  8028  1.00
      P1  H  7989  7998       L1    18  0.62
      P1  H  7997  8010       L1    16  1.40

> <Gold.PLP.Chemscore.Internal.Correction>
0.0477

> <Gold.Rescore>
     Score         DG    S(hbond)    S(metal)    S(lipo)     H(rot)  DE(clash)    DE(int)     intcor
     15.90     -16.63       2.48        0.00      80.97       2.58       0.12       0.61       ----

> <Gold.Chemscore.Fitness>
15.8990

> <Gold.Chemscore.DG>
-16.6311

> <Gold.Chemscore.ZeroCoef>
-5.4800

> <Gold.Chemscore.Hbond>
2.4805

> <Gold.Chemscore.Metal>
0.0000

> <Gold.Chemscore.Lipo>
80.9728

> <Gold.Chemscore.Internal_Hbond>
0.0000

> <Gold.Chemscore.DEClash>
0.1241

> <Gold.Chemscore.DEInternal>
0.6080

> <Gold.Chemscore.Rot>
2.5811

> <Gold.Chemscore.Internal.Correction>
   9.000000E+99

> <Gold.Chemscore.Hbonds>
donor molecule, donor type, donor heavy atom, donor atom, acceptor molecule, acceptor atom, score
      L1  H     9    28       P1  8028  0.97
      P1  H  7989  7998       L1    18  0.60
      P1  H  7997  8010       L1    16  0.06

> <Gold.Chemscore.Hbond.Weighted>
-8.2849

> <Gold.Chemscore.Metal.Weighted>
-0.0000

> <Gold.Chemscore.Lipo.Weighted>
-9.4738

> <Gold.Chemscore.Internal_Hbond.Weighted>
0.0000

> <Gold.Chemscore.DEClash.Weighted>
0.1241

> <Gold.Chemscore.DEInternal.Weighted>
0.6080

> <Gold.Chemscore.Rot.Weighted>
6.6076

> <Gold.Chemscore.Internal.Correction.Weighted>
   9.000000E+99

> <Gold.Protein.RotatedTorsions>
[ 6907 6896 6895 6894 ] final  168.51 input  -60.11 | X-H torsion
[ 7974 7965 7964 7962 ] final  145.97 input  175.53 | X-H torsion
[ 8008 7997 7996 7995 ] final   73.67 input   59.86 | X-H torsion
[ 10167 10162 10161 10158 ] final    9.84 input  -65.29 | X-H torsion
[ 10718 10713 10712 10709 ] final   59.44 input   66.30 | X-H torsion
[ 10763 10752 10751 10750 ] final   71.89 input  -60.55 | X-H torsion
[ 11005 11000 10999 10996 ] final  -73.92 input  -57.11 | X-H torsion

> <Gold.Protein.ActiveResidues>
 VAL166  LYS551  ARG553  GLY616  TRP617  ASP618  TYR619  PRO620  LYS621  CYS622 
 ASP623  PHE694  ASN695  SER759  ASP760  ASP761  ALA762  ILE779  LEU786  VAL792 
 PHE793  MET794  SER795  GLU796  ALA797  LYS798  CYS799  TRP800  GLU811  SER814 

> <Gold.Protein.RotatedAtoms>
  151.8465  133.3432  159.3659 H   0  0  0  0  0  0  0  0  0  0  0  0  # atno 6907 bound_to 6896
  150.7219  134.5341  159.5724 H   0  0  0  0  0  0  0  0  0  0  0  0  # atno 6908 bound_to 6896
  152.2825  134.7813  160.0445 H   0  0  0  0  0  0  0  0  0  0  0  0  # atno 6909 bound_to 6896
  144.8709  139.5848  143.5887 H   0  0  0  0  0  0  0  0  0  0  0  0  # atno 7974 bound_to 7965
  155.7870  140.3480  155.5328 H   0  0  0  0  0  0  0  0  0  0  0  0  # atno 8008 bound_to 7997
  155.8672  140.0980  157.1595 H   0  0  0  0  0  0  0  0  0  0  0  0  # atno 8009 bound_to 7997
  154.4015  140.1347  156.4020 H   0  0  0  0  0  0  0  0  0  0  0  0  # atno 8010 bound_to 7997
  140.6231  143.8162  150.7199 H   0  0  0  0  0  0  0  0  0  0  0  0  # atno 10167 bound_to 10162
  157.5676  130.8883  149.9213 H   0  0  0  0  0  0  0  0  0  0  0  0  # atno 10718 bound_to 10713
  153.0425  135.5120  154.7661 H   0  0  0  0  0  0  0  0  0  0  0  0  # atno 10763 bound_to 10752
  154.6587  135.2935  154.9897 H   0  0  0  0  0  0  0  0  0  0  0  0  # atno 10764 bound_to 10752
  154.0756  135.6671  153.4883 H   0  0  0  0  0  0  0  0  0  0  0  0  # atno 10765 bound_to 10752
  141.1629  133.6894  156.7285 H   0  0  0  0  0  0  0  0  0  0  0  0  # atno 11005 bound_to 11000
  146.2929  139.7193  142.9147 LP  0  0  0  0  0  0  0  0  0  0  0  0  # atno 17320 bound_to 7965
  145.4132  141.0399  143.3005 LP  0  0  0  0  0  0  0  0  0  0  0  0  # atno 17321 bound_to 7965
  140.1756  143.4158  152.1970 LP  0  0  0  0  0  0  0  0  0  0  0  0  # atno 17342 bound_to 10162
  139.5455  144.7295  151.4595 LP  0  0  0  0  0  0  0  0  0  0  0  0  # atno 17343 bound_to 10162
  156.0723  130.3683  150.0750 LP  0  0  0  0  0  0  0  0  0  0  0  0  # atno 17370 bound_to 10713
  156.8907  130.9587  151.3589 LP  0  0  0  0  0  0  0  0  0  0  0  0  # atno 17371 bound_to 10713
  140.2763  134.8352  157.3893 LP  0  0  0  0  0  0  0  0  0  0  0  0  # atno 17394 bound_to 11000
  140.1475  134.4893  155.7986 LP  0  0  0  0  0  0  0  0  0  0  0  0  # atno 17395 bound_to 11000

$$$$
