AV-unprocessed.smi:2038|AV-procd|sdf|8280|dock5
  -GOLD-   2272010543D 1   1.00000     0.00000
 Structure written by MMmdl.
 33 34  0  0  0  0  0  0  0  0  1 V2000
  150.9353  135.3659  156.3590 O   0  0  0  0  0  0  0  0  0  0  0  0
  150.4214  135.9794  155.4233 C   0  0  0  0  0  0  0  0  0  0  0  0
  149.6890  135.4097  154.4485 N   0  0  0  0  0  0  0  0  0  0  0  0
  149.3385  134.0414  154.2938 C   0  0  0  0  0  0  0  0  0  0  0  0
  149.9946  133.0921  155.1026 C   0  0  0  0  0  0  0  0  0  0  0  0
  149.6795  131.7282  154.9539 C   0  0  0  0  0  0  0  0  0  0  0  0
  148.7232  131.3536  153.9895 C   0  0  0  0  0  0  0  0  0  0  0  0
  148.4177  130.0158  153.8484 O   0  0  0  0  0  0  0  0  0  0  0  0
  147.3349  129.6520  152.9958 C   0  0  0  0  0  0  0  0  0  0  0  0
  147.4431  128.1627  152.6483 C   0  0  0  0  0  0  0  0  0  0  0  0
  146.6806  127.9014  151.5872 F   0  0  0  0  0  0  0  0  0  0  0  0
  148.7048  127.8481  152.3560 F   0  0  0  0  0  0  0  0  0  0  0  0
  147.0216  127.4190  153.6707 F   0  0  0  0  0  0  0  0  0  0  0  0
  148.0985  132.2571  153.1946 N   0  0  0  0  0  0  0  0  0  0  0  0
  148.4031  133.5641  153.3437 C   0  0  0  0  0  0  0  0  0  0  0  0
  150.6104  137.4970  155.3135 C   0  0  2  0  0  0  0  0  0  0  0  0
  151.2576  137.9500  153.9912 C   0  0  0  0  0  0  0  0  0  0  0  0
  152.6452  138.3981  154.4054 C   0  0  0  0  0  0  0  0  0  0  0  0
  152.4041  138.8764  155.8297 C   0  0  0  0  0  0  0  0  0  0  0  0
  151.5050  137.9076  156.3463 O   0  0  0  0  0  0  0  0  0  0  0  0
  149.4009  136.0209  153.6982 H   0  0  0  0  0  0  0  0  0  0  0  0
  150.7275  133.4021  155.8332 H   0  0  0  0  0  0  0  0  0  0  0  0
  150.1635  130.9827  155.5674 H   0  0  0  0  0  0  0  0  0  0  0  0
  146.3818  129.8437  153.4918 H   0  0  0  0  0  0  0  0  0  0  0  0
  147.3602  130.2450  152.0799 H   0  0  0  0  0  0  0  0  0  0  0  0
  147.8927  134.2268  152.6624 H   0  0  0  0  0  0  0  0  0  0  0  0
  149.6553  138.0079  155.4475 H   0  0  0  0  0  0  0  0  0  0  0  0
  151.2903  137.1772  153.2216 H   0  0  0  0  0  0  0  0  0  0  0  0
  150.7007  138.7932  153.5808 H   0  0  0  0  0  0  0  0  0  0  0  0
  153.3292  137.5484  154.4075 H   0  0  0  0  0  0  0  0  0  0  0  0
  153.0581  139.1715  153.7575 H   0  0  0  0  0  0  0  0  0  0  0  0
  153.3199  138.9302  156.4188 H   0  0  0  0  0  0  0  0  0  0  0  0
  151.9280  139.8580  155.8364 H   0  0  0  0  0  0  0  0  0  0  0  0
  1  2  2  0  0  0  0
  2  3  1  0  0  0  0
  2 16  1  0  0  0  0
  3  4  1  0  0  0  0
  3 21  1  0  0  0  0
  4 15  1  0  0  0  0
  4  5  2  0  0  0  0
  5  6  1  0  0  0  0
  5 22  1  0  0  0  0
  6  7  2  0  0  0  0
  6 23  1  0  0  0  0
  7  8  1  0  0  0  0
  7 14  1  0  0  0  0
  8  9  1  0  0  0  0
  9 10  1  0  0  0  0
  9 24  1  0  0  0  0
  9 25  1  0  0  0  0
 10 11  1  0  0  0  0
 10 12  1  0  0  0  0
 10 13  1  0  0  0  0
 14 15  2  0  0  0  0
 15 26  1  0  0  0  0
 16 20  1  0  0  0  0
 16 17  1  0  0  0  0
 16 27  1  0  0  0  0
 17 18  1  0  0  0  0
 17 28  1  0  0  0  0
 17 29  1  0  0  0  0
 18 19  1  0  0  0  0
 18 30  1  0  0  0  0
 18 31  1  0  0  0  0
 19 20  1  0  0  0  0
 19 32  1  0  0  0  0
 19 33  1  0  0  0  0
M  END
> <s_m_source_file>
AV-unprocessed.smi

> <i_m_source_file_index>
2038

> <i_lp_mmshare_version>
43012

> <i_f3d_flags>
0

> <s_epik_input>
TzFbQ0gyXVtDSDJdW0NIMl1bQ0BIXTFDKD1PKVtOSF1jMltjSF1bY0hdYyhuW2NIXTIpT1tDSDJdQyhGKShGKUY=

> <s_epik_cmdline>
J2VwaWtfcHl0aG9uJywgJy1waCcsICc3LjAnLCAnLXRuJywgJzgnLCAnLW1hJywgJzIwMCcsICctbWV0YWxfYmluZGluZycsICctaW1hZScsICc8aW5maWxlLm1hZT4nLCAnLW9tYWUnLCAnPG91dGZpbGUubWFlPic=

> <r_lp_tautomer_probability>
1

> <r_epik_Ionization_Penalty>
2.73305e-06

> <r_epik_Ionization_Penalty_Charging>
0

> <r_epik_Ionization_Penalty_Neutral>
2.73305e-06

> <r_epik_State_Penalty>
-0

> <r_epik_Charging_Adjusted_Penalty>
0

> <i_epik_Tot_Q>
0

> <i_epik_Tot_abs_Q>
0

> <r_epik_Metal_State_Penalty>
-0

> <b_epik_Metal_Only>
0

> <s_lp_Force_Field>
OPLS_2005

> <r_lp_Energy>
22.8429

> <b_lp_Chiralities_Consistent>
1

> <s_lp_Variant>
AV-unprocessed.smi:2038-1

> <Gold.Version>
5.8.1

> <Gold.Id.Protein>
6NUR|6NUR_protein|mol2

> <Gold.PLP.Fitness>
39.0834

> <Gold.PLP.PLP>
-34.4629

> <Gold.PLP.part.hbond>
-1.0000

> <Gold.PLP.part.metal>
0.0000

> <Gold.PLP.part.buried>
-2.2538

> <Gold.PLP.part.nonpolar>
-30.8490

> <Gold.PLP.part.repulsive>
0.2767

> <Gold.PLP.ligand.clash>
0.0000

> <Gold.PLP.ligand.torsion>
0.3993

> <Gold.PLP.Chemscore.Hbond>
0.9440

> <Gold.PLP.Chemscore.CHOScore>
0.8555

> <Gold.PLP.Chemscore.Metal>
0.0000

> <Gold.Chemscore.Hbonds>
donor molecule, donor type, donor heavy atom, donor atom, acceptor molecule, acceptor atom, score
      L1  H     3    21       P1  7948  0.94
      L1  C    15    26       P1  7948  0.81

> <Gold.PLP.Chemscore.Internal.Correction>
0.0208

> <Gold.Rescore>
     Score         DG    S(hbond)    S(metal)    S(lipo)     H(rot)  DE(clash)    DE(int)     intcor
      9.54     -11.20       0.75        0.00      64.44       1.69       0.06       1.60       ----

> <Gold.Chemscore.Fitness>
9.5381

> <Gold.Chemscore.DG>
-11.1982

> <Gold.Chemscore.ZeroCoef>
-5.4800

> <Gold.Chemscore.Hbond>
0.7516

> <Gold.Chemscore.Metal>
0.0000

> <Gold.Chemscore.Lipo>
64.4383

> <Gold.Chemscore.Internal_Hbond>
0.0000

> <Gold.Chemscore.DEClash>
0.0637

> <Gold.Chemscore.DEInternal>
1.5964

> <Gold.Chemscore.Rot>
1.6919

> <Gold.Chemscore.Internal.Correction>
   9.000000E+99

> <Gold.Chemscore.Hbonds>
donor molecule, donor type, donor heavy atom, donor atom, acceptor molecule, acceptor atom, score
      L1  H     3    21       P1  7948  0.59

> <Gold.Chemscore.Hbond.Weighted>
-2.5103

> <Gold.Chemscore.Metal.Weighted>
-0.0000

> <Gold.Chemscore.Lipo.Weighted>
-7.5393

> <Gold.Chemscore.Internal_Hbond.Weighted>
0.0000

> <Gold.Chemscore.DEClash.Weighted>
0.0637

> <Gold.Chemscore.DEInternal.Weighted>
1.5964

> <Gold.Chemscore.Rot.Weighted>
4.3313

> <Gold.Chemscore.Internal.Correction.Weighted>
   9.000000E+99

> <Gold.Protein.RotatedTorsions>
[ 6907 6896 6895 6894 ] final -118.40 input  -60.11 | X-H torsion
[ 7974 7965 7964 7962 ] final  115.89 input  175.53 | X-H torsion
[ 8008 7997 7996 7995 ] final  -33.52 input   59.86 | X-H torsion
[ 10167 10162 10161 10158 ] final  -28.60 input  -65.29 | X-H torsion
[ 10718 10713 10712 10709 ] final   80.07 input   66.30 | X-H torsion
[ 10763 10752 10751 10750 ] final   67.44 input  -60.55 | X-H torsion
[ 11005 11000 10999 10996 ] final   34.79 input  -57.11 | X-H torsion

> <Gold.Protein.ActiveResidues>
 VAL166  LYS551  ARG553  GLY616  TRP617  ASP618  TYR619  PRO620  LYS621  CYS622 
 ASP623  PHE694  ASN695  SER759  ASP760  ASP761  ALA762  ILE779  LEU786  VAL792 
 PHE793  MET794  SER795  GLU796  ALA797  LYS798  CYS799  TRP800  GLU811  SER814 

> <Gold.Protein.RotatedAtoms>
  150.8217  133.8241  159.3135 H   0  0  0  0  0  0  0  0  0  0  0  0  # atno 6907 bound_to 6896
  151.5998  135.1046  160.0067 H   0  0  0  0  0  0  0  0  0  0  0  0  # atno 6908 bound_to 6896
  152.4305  133.7229  159.6600 H   0  0  0  0  0  0  0  0  0  0  0  0  # atno 6909 bound_to 6896
  145.1863  139.3023  143.4391 H   0  0  0  0  0  0  0  0  0  0  0  0  # atno 7974 bound_to 7965
  154.4147  140.1708  156.1901 H   0  0  0  0  0  0  0  0  0  0  0  0  # atno 8008 bound_to 7997
  155.9610  140.3393  155.6467 H   0  0  0  0  0  0  0  0  0  0  0  0  # atno 8009 bound_to 7997
  155.6748  140.0716  157.2497 H   0  0  0  0  0  0  0  0  0  0  0  0  # atno 8010 bound_to 7997
  140.7268  143.3996  151.1287 H   0  0  0  0  0  0  0  0  0  0  0  0  # atno 10167 bound_to 10162
  157.6795  130.9943  150.2025 H   0  0  0  0  0  0  0  0  0  0  0  0  # atno 10718 bound_to 10713
  153.0186  135.5284  154.6980 H   0  0  0  0  0  0  0  0  0  0  0  0  # atno 10763 bound_to 10752
  154.6096  135.2877  155.0448 H   0  0  0  0  0  0  0  0  0  0  0  0  # atno 10764 bound_to 10752
  154.1475  135.6568  153.5008 H   0  0  0  0  0  0  0  0  0  0  0  0  # atno 10765 bound_to 10752
  140.2492  134.3323  155.7896 H   0  0  0  0  0  0  0  0  0  0  0  0  # atno 11005 bound_to 11000
  146.3444  140.2061  142.8589 LP  0  0  0  0  0  0  0  0  0  0  0  0  # atno 17320 bound_to 7965
  145.0085  140.8694  143.5238 LP  0  0  0  0  0  0  0  0  0  0  0  0  # atno 17321 bound_to 7965
  139.7614  143.8629  152.3101 LP  0  0  0  0  0  0  0  0  0  0  0  0  # atno 17342 bound_to 10162
  139.8517  144.7161  150.9206 LP  0  0  0  0  0  0  0  0  0  0  0  0  # atno 17343 bound_to 10162
  156.2713  130.3722  149.8029 LP  0  0  0  0  0  0  0  0  0  0  0  0  # atno 17370 bound_to 10713
  156.5745  130.8439  151.3366 LP  0  0  0  0  0  0  0  0  0  0  0  0  # atno 17371 bound_to 10713
  141.2203  133.7344  156.9010 LP  0  0  0  0  0  0  0  0  0  0  0  0  # atno 17394 bound_to 11000
  140.1575  134.9188  157.2672 LP  0  0  0  0  0  0  0  0  0  0  0  0  # atno 17395 bound_to 11000

$$$$
