AV-unprocessed.smi:2093|AV-procd|sdf|8546|dock5
  -GOLD-   2272011273D 1   1.00000     0.00000
 Structure written by MMmdl.
 31 32  0  0  0  0  0  0  0  0  1 V2000
  143.7169  136.5498  152.2794 C   0  0  0  0  0  0  0  0  0  0  0  0
  144.9416  135.6493  152.4983 C   0  0  2  0  0  0  0  0  0  0  0  0
  146.1361  136.4856  152.6089 N   0  0  0  0  0  0  0  0  0  0  0  0
  146.2300  137.6423  153.2814 C   0  0  0  0  0  0  0  0  0  0  0  0
  145.2934  138.1544  153.8951 O   0  0  0  0  0  0  0  0  0  0  0  0
  147.4716  138.1513  153.1950 N   0  0  0  0  0  0  0  0  0  0  0  0
  147.9738  139.3472  153.7720 C   0  0  0  0  0  0  0  0  0  0  0  0
  149.2538  139.5442  154.1091 N   0  0  0  0  0  0  0  0  0  0  0  0
  149.4632  140.8138  154.6538 C   0  0  0  0  0  0  0  0  0  0  0  0
  148.3235  141.5758  154.7246 C   0  0  0  0  0  0  0  0  0  0  0  0
  146.9331  140.7232  154.1083 S   0  0  0  0  0  0  0  0  0  0  0  0
  145.1182  134.6277  151.3580 C   0  0  1  0  0  0  0  0  0  0  0  0
  146.2765  133.6461  151.5533 C   0  0  0  0  0  0  0  0  0  0  0  0
  145.8318  132.4756  150.7075 C   0  0  0  0  0  0  0  0  0  0  0  0
  144.3321  132.4515  150.9828 C   0  0  0  0  0  0  0  0  0  0  0  0
  143.9599  133.8036  151.2369 O   0  0  0  0  0  0  0  0  0  0  0  0
  142.8002  135.9619  152.2256 H   0  0  0  0  0  0  0  0  0  0  0  0
  143.8013  137.1186  151.3528 H   0  0  0  0  0  0  0  0  0  0  0  0
  143.6009  137.2604  153.0983 H   0  0  0  0  0  0  0  0  0  0  0  0
  144.7841  135.0940  153.4246 H   0  0  0  0  0  0  0  0  0  0  0  0
  146.9626  136.1479  152.1379 H   0  0  0  0  0  0  0  0  0  0  0  0
  148.1379  137.6178  152.6565 H   0  0  0  0  0  0  0  0  0  0  0  0
  150.4587  141.0935  154.9654 H   0  0  0  0  0  0  0  0  0  0  0  0
  148.2183  142.5828  155.1005 H   0  0  0  0  0  0  0  0  0  0  0  0
  145.2535  135.1462  150.4072 H   0  0  0  0  0  0  0  0  0  0  0  0
  147.2392  134.0547  151.2450 H   0  0  0  0  0  0  0  0  0  0  0  0
  146.3529  133.3427  152.5989 H   0  0  0  0  0  0  0  0  0  0  0  0
  146.0189  132.6829  149.6530 H   0  0  0  0  0  0  0  0  0  0  0  0
  146.3291  131.5410  150.9677 H   0  0  0  0  0  0  0  0  0  0  0  0
  143.7635  132.0295  150.1539 H   0  0  0  0  0  0  0  0  0  0  0  0
  144.1190  131.8621  151.8755 H   0  0  0  0  0  0  0  0  0  0  0  0
  1  2  1  0  0  0  0
  1 17  1  0  0  0  0
  1 18  1  0  0  0  0
  1 19  1  0  0  0  0
  2  3  1  0  0  0  0
  2 12  1  0  0  0  0
  2 20  1  0  0  0  0
  3  4  1  0  0  0  0
  3 21  1  0  0  0  0
  4  5  2  0  0  0  0
  4  6  1  0  0  0  0
  6  7  1  0  0  0  0
  6 22  1  0  0  0  0
  7 11  1  0  0  0  0
  7  8  2  0  0  0  0
  8  9  1  0  0  0  0
  9 10  2  0  0  0  0
  9 23  1  0  0  0  0
 10 11  1  0  0  0  0
 10 24  1  0  0  0  0
 12 16  1  0  0  0  0
 12 13  1  0  0  0  0
 12 25  1  0  0  0  0
 13 14  1  0  0  0  0
 13 26  1  0  0  0  0
 13 27  1  0  0  0  0
 14 15  1  0  0  0  0
 14 28  1  0  0  0  0
 14 29  1  0  0  0  0
 15 16  1  0  0  0  0
 15 30  1  0  0  0  0
 15 31  1  0  0  0  0
M  END
> <s_m_source_file>
AV-unprocessed.smi

> <i_m_source_file_index>
2093

> <i_lp_mmshare_version>
43012

> <i_f3d_flags>
0

> <s_epik_input>
TzFbQ0gyXVtDSDJdW0NIMl1bQ0BIXTFbQ0BIXShbQ0gzXSlbTkhdQyg9TylbTkhdYzJuW2NIXVtjSF1zMg==

> <s_epik_cmdline>
J2VwaWtfcHl0aG9uJywgJy1waCcsICc3LjAnLCAnLXRuJywgJzgnLCAnLW1hJywgJzIwMCcsICctbWV0YWxfYmluZGluZycsICctaW1hZScsICc8aW5maWxlLm1hZT4nLCAnLW9tYWUnLCAnPG91dGZpbGUubWFlPic=

> <r_lp_tautomer_probability>
0.999

> <r_epik_Ionization_Penalty>
0.000334433

> <r_epik_Ionization_Penalty_Charging>
0

> <r_epik_Ionization_Penalty_Neutral>
0.000334433

> <r_epik_State_Penalty>
0.000177984

> <r_epik_Charging_Adjusted_Penalty>
0.000177984

> <i_epik_Tot_Q>
0

> <i_epik_Tot_abs_Q>
0

> <r_epik_Metal_State_Penalty>
0.00767616

> <b_epik_Metal_Only>
0

> <s_lp_Force_Field>
OPLS_2005

> <r_lp_Energy>
15.9736

> <b_lp_Chiralities_Consistent>
1

> <s_lp_Variant>
AV-unprocessed.smi:2093-3

> <Gold.Version>
5.8.1

> <Gold.Id.Protein>
6NUR|6NUR_protein|mol2

> <Gold.PLP.Fitness>
33.7042

> <Gold.PLP.PLP>
-25.4764

> <Gold.PLP.part.hbond>
-2.0000

> <Gold.PLP.part.metal>
0.0000

> <Gold.PLP.part.buried>
-4.3184

> <Gold.PLP.part.nonpolar>
-20.1729

> <Gold.PLP.part.repulsive>
1.3089

> <Gold.PLP.ligand.clash>
0.0000

> <Gold.PLP.ligand.torsion>
0.3902

> <Gold.PLP.Chemscore.Hbond>
2.0000

> <Gold.PLP.Chemscore.CHOScore>
1.0000

> <Gold.PLP.Chemscore.Metal>
0.0000

> <Gold.Chemscore.Hbonds>
donor molecule, donor type, donor heavy atom, donor atom, acceptor molecule, acceptor atom, score
      L1  H     3    21       P1  7948  1.00
      L1  H     6    22       P1  7948  1.00
      L1  C    10    24       P1  8028  1.00

> <Gold.PLP.Chemscore.Internal.Correction>
0.0082

> <Gold.Rescore>
     Score         DG    S(hbond)    S(metal)    S(lipo)     H(rot)  DE(clash)    DE(int)     intcor
     13.38     -15.20       1.95        0.00      55.85       1.29       0.01       1.82       ----

> <Gold.Chemscore.Fitness>
13.3818

> <Gold.Chemscore.DG>
-15.2030

> <Gold.Chemscore.ZeroCoef>
-5.4800

> <Gold.Chemscore.Hbond>
1.9463

> <Gold.Chemscore.Metal>
0.0000

> <Gold.Chemscore.Lipo>
55.8503

> <Gold.Chemscore.Internal_Hbond>
0.0000

> <Gold.Chemscore.DEClash>
0.0060

> <Gold.Chemscore.DEInternal>
1.8152

> <Gold.Chemscore.Rot>
1.2938

> <Gold.Chemscore.Internal.Correction>
   9.000000E+99

> <Gold.Chemscore.Hbonds>
donor molecule, donor type, donor heavy atom, donor atom, acceptor molecule, acceptor atom, score
      L1  H     3    21       P1  7948  0.92
      L1  H     6    22       P1  7948  1.00

> <Gold.Chemscore.Hbond.Weighted>
-6.5007

> <Gold.Chemscore.Metal.Weighted>
-0.0000

> <Gold.Chemscore.Lipo.Weighted>
-6.5345

> <Gold.Chemscore.Internal_Hbond.Weighted>
0.0000

> <Gold.Chemscore.DEClash.Weighted>
0.0060

> <Gold.Chemscore.DEInternal.Weighted>
1.8152

> <Gold.Chemscore.Rot.Weighted>
3.3122

> <Gold.Chemscore.Internal.Correction.Weighted>
   9.000000E+99

> <Gold.Protein.RotatedTorsions>
[ 6907 6896 6895 6894 ] final   56.47 input  -60.11 | X-H torsion
[ 7974 7965 7964 7962 ] final   27.55 input  175.53 | X-H torsion
[ 8008 7997 7996 7995 ] final   62.08 input   59.86 | X-H torsion
[ 10167 10162 10161 10158 ] final  163.52 input  -65.29 | X-H torsion
[ 10718 10713 10712 10709 ] final   96.33 input   66.30 | X-H torsion
[ 10763 10752 10751 10750 ] final  125.33 input  -60.55 | X-H torsion
[ 11005 11000 10999 10996 ] final   64.35 input  -57.11 | X-H torsion

> <Gold.Protein.ActiveResidues>
 VAL166  LYS551  ARG553  GLY616  TRP617  ASP618  TYR619  PRO620  LYS621  CYS622 
 ASP623  PHE694  ASN695  SER759  ASP760  ASP761  ALA762  ILE779  LEU786  VAL792 
 PHE793  MET794  SER795  GLU796  ALA797  LYS798  CYS799  TRP800  GLU811  SER814 

> <Gold.Protein.RotatedAtoms>
  152.3639  134.6832  160.0198 H   0  0  0  0  0  0  0  0  0  0  0  0  # atno 6907 bound_to 6896
  151.7147  133.3307  159.3308 H   0  0  0  0  0  0  0  0  0  0  0  0  # atno 6908 bound_to 6896
  150.7624  134.6436  159.6295 H   0  0  0  0  0  0  0  0  0  0  0  0  # atno 6909 bound_to 6896
  146.1778  139.7176  142.8922 H   0  0  0  0  0  0  0  0  0  0  0  0  # atno 7974 bound_to 7965
  155.6087  140.3494  155.4615 H   0  0  0  0  0  0  0  0  0  0  0  0  # atno 8008 bound_to 7997
  156.0172  140.1246  157.0419 H   0  0  0  0  0  0  0  0  0  0  0  0  # atno 8009 bound_to 7997
  154.4302  140.1070  156.5898 H   0  0  0  0  0  0  0  0  0  0  0  0  # atno 8010 bound_to 7997
  139.4875  144.4328  151.9049 H   0  0  0  0  0  0  0  0  0  0  0  0  # atno 10167 bound_to 10162
  157.6928  131.0574  150.4475 H   0  0  0  0  0  0  0  0  0  0  0  0  # atno 10718 bound_to 10713
  153.6756  135.3323  155.3165 H   0  0  0  0  0  0  0  0  0  0  0  0  # atno 10763 bound_to 10752
  154.8479  135.4396  154.1660 H   0  0  0  0  0  0  0  0  0  0  0  0  # atno 10764 bound_to 10752
  153.2663  135.6996  153.7603 H   0  0  0  0  0  0  0  0  0  0  0  0  # atno 10765 bound_to 10752
  139.9965  134.6510  156.0002 H   0  0  0  0  0  0  0  0  0  0  0  0  # atno 11005 bound_to 11000
  145.4162  141.0402  143.2989 LP  0  0  0  0  0  0  0  0  0  0  0  0  # atno 17320 bound_to 7965
  144.8265  139.5702  143.6963 LP  0  0  0  0  0  0  0  0  0  0  0  0  # atno 17321 bound_to 7965
  140.3777  144.2776  150.5912 LP  0  0  0  0  0  0  0  0  0  0  0  0  # atno 17342 bound_to 10162
  140.5262  143.2254  151.8311 LP  0  0  0  0  0  0  0  0  0  0  0  0  # atno 17343 bound_to 10162
  156.4829  130.4078  149.6451 LP  0  0  0  0  0  0  0  0  0  0  0  0  # atno 17370 bound_to 10713
  156.3490  130.7422  151.2378 LP  0  0  0  0  0  0  0  0  0  0  0  0  # atno 17371 bound_to 10713
  141.1608  133.6539  156.4313 LP  0  0  0  0  0  0  0  0  0  0  0  0  # atno 17394 bound_to 11000
  140.4809  134.6665  157.5170 LP  0  0  0  0  0  0  0  0  0  0  0  0  # atno 17395 bound_to 11000

$$$$
