AV-unprocessed.smi:1426|AV-procd|sdf|5808|dock9
  -GOLD-   22720 5463D 1   1.00000     0.00000
 Structure written by MMmdl.
 44 46  0  0  0  0  0  0  0  0  2 V2000
  151.0234  140.7939  155.3313 O   0  0  0  0  0  0  0  0  0  0  0  0
  150.1119  141.4177  155.8746 C   0  0  0  0  0  0  0  0  0  0  0  0
  150.2832  142.1892  156.9571 N   0  0  0  0  0  0  0  0  0  0  0  0
  151.5537  142.3964  157.6441 C   0  0  0  0  0  0  0  0  0  0  0  0
  151.3984  143.2972  158.8842 C   0  0  1  0  0  0  0  0  0  0  0  0
  152.5286  144.2879  159.0704 C   0  0  0  0  0  0  0  0  0  0  0  0
  151.9022  145.3005  160.0238 C   0  0  0  0  0  0  0  0  0  0  0  0
  150.5146  145.3276  159.7017 O   0  0  0  0  0  0  0  0  0  0  0  0
  150.1878  144.2325  158.8506 C   0  0  0  0  0  0  0  0  0  0  0  0
  148.8260  141.4017  155.4857 N   0  0  0  0  0  0  0  0  0  0  0  0
  148.2488  140.6913  154.3948 C   0  0  0  0  0  0  0  0  0  0  0  0
  147.2363  141.2754  153.5904 C   0  0  0  0  0  0  0  0  0  0  0  0
  146.6966  140.5571  152.5070 C   0  0  0  0  0  0  0  0  0  0  0  0
  147.1739  139.2617  152.2450 C   0  0  0  0  0  0  0  0  0  0  0  0
  148.1226  138.7256  153.0400 N   0  3  0  0  0  0  0  0  0  0  0  0
  148.6709  139.3605  154.1065 C   0  0  0  0  0  0  0  0  0  0  0  0
  149.6468  138.6654  154.8567 N   0  0  0  0  0  0  0  0  0  0  0  0
  150.9064  138.2664  154.2398 C   0  0  0  0  0  0  0  0  0  0  0  0
  151.5199  137.2590  155.2083 C   0  0  0  0  0  0  0  0  0  0  0  0
  150.2899  136.5379  155.7509 C   0  0  0  0  0  0  0  0  0  0  0  0
  149.2184  137.6327  155.7950 C   0  0  0  0  0  0  0  0  0  0  0  0
  149.4787  142.6645  157.3393 H   0  0  0  0  0  0  0  0  0  0  0  0
  151.9860  141.4351  157.9271 H   0  0  0  0  0  0  0  0  0  0  0  0
  152.2492  142.8487  156.9368 H   0  0  0  0  0  0  0  0  0  0  0  0
  151.3371  142.6784  159.7814 H   0  0  0  0  0  0  0  0  0  0  0  0
  153.4360  143.8339  159.4702 H   0  0  0  0  0  0  0  0  0  0  0  0
  152.7758  144.7700  158.1233 H   0  0  0  0  0  0  0  0  0  0  0  0
  152.0116  144.9678  161.0566 H   0  0  0  0  0  0  0  0  0  0  0  0
  152.3526  146.2895  159.9371 H   0  0  0  0  0  0  0  0  0  0  0  0
  150.0252  144.6193  157.8436 H   0  0  0  0  0  0  0  0  0  0  0  0
  149.2710  143.7385  159.1739 H   0  0  0  0  0  0  0  0  0  0  0  0
  148.1732  141.8757  156.0924 H   0  0  0  0  0  0  0  0  0  0  0  0
  146.8584  142.2663  153.7922 H   0  0  0  0  0  0  0  0  0  0  0  0
  145.9285  140.9951  151.8867 H   0  0  0  0  0  0  0  0  0  0  0  0
  146.8226  138.6381  151.4357 H   0  0  0  0  0  0  0  0  0  0  0  0
  150.7256  137.7847  153.2779 H   0  0  0  0  0  0  0  0  0  0  0  0
  151.5610  139.1236  154.0790 H   0  0  0  0  0  0  0  0  0  0  0  0
  152.2338  136.5881  154.7293 H   0  0  0  0  0  0  0  0  0  0  0  0
  152.0325  137.7816  156.0173 H   0  0  0  0  0  0  0  0  0  0  0  0
  149.9879  135.7561  155.0525 H   0  0  0  0  0  0  0  0  0  0  0  0
  150.4615  136.0723  156.7221 H   0  0  0  0  0  0  0  0  0  0  0  0
  149.1707  138.0657  156.7945 H   0  0  0  0  0  0  0  0  0  0  0  0
  148.2338  137.2337  155.5478 H   0  0  0  0  0  0  0  0  0  0  0  0
  148.4408  137.7796  152.8299 H   0  0  0  0  0  0  0  0  0  0  0  0
  1  2  2  0  0  0  0
  2  3  1  0  0  0  0
  2 10  1  0  0  0  0
  3  4  1  0  0  0  0
  3 22  1  0  0  0  0
  4  5  1  0  0  0  0
  4 23  1  0  0  0  0
  4 24  1  0  0  0  0
  5  9  1  0  0  0  0
  5  6  1  0  0  0  0
  5 25  1  0  0  0  0
  6  7  1  0  0  0  0
  6 26  1  0  0  0  0
  6 27  1  0  0  0  0
  7  8  1  0  0  0  0
  7 28  1  0  0  0  0
  7 29  1  0  0  0  0
  8  9  1  0  0  0  0
  9 30  1  0  0  0  0
  9 31  1  0  0  0  0
 10 11  1  0  0  0  0
 10 32  1  0  0  0  0
 11 16  1  0  0  0  0
 11 12  2  0  0  0  0
 12 13  1  0  0  0  0
 12 33  1  0  0  0  0
 13 14  2  0  0  0  0
 13 34  1  0  0  0  0
 14 15  1  0  0  0  0
 14 35  1  0  0  0  0
 15 16  2  0  0  0  0
 15 44  1  0  0  0  0
 16 17  1  0  0  0  0
 17 21  1  0  0  0  0
 17 18  1  0  0  0  0
 18 19  1  0  0  0  0
 18 36  1  0  0  0  0
 18 37  1  0  0  0  0
 19 20  1  0  0  0  0
 19 38  1  0  0  0  0
 19 39  1  0  0  0  0
 20 21  1  0  0  0  0
 20 40  1  0  0  0  0
 20 41  1  0  0  0  0
 21 42  1  0  0  0  0
 21 43  1  0  0  0  0
M  CHG  1  15   1
M  END
> <s_m_source_file>
AV-unprocessed.smi

> <i_m_source_file_index>
1426

> <i_lp_mmshare_version>
43012

> <i_f3d_flags>
0

> <s_epik_input>
W0NIMl0xT1tDSDJdW0NIMl1bQ0BIXTFbQ0gyXVtOSF1DKD1PKVtOSF1jMltjSF1bY0hdW2NIXW5jMk4zW0NIMl1bQ0gyXVtDSDJdW0NIMl0z

> <s_epik_cmdline>
J2VwaWtfcHl0aG9uJywgJy1waCcsICc3LjAnLCAnLXRuJywgJzgnLCAnLW1hJywgJzIwMCcsICctbWV0YWxfYmluZGluZycsICctaW1hZScsICc8aW5maWxlLm1hZT4nLCAnLW9tYWUnLCAnPG91dGZpbGUubWFlPic=

> <r_lp_tautomer_probability>
0.999994

> <r_epik_Ionization_Penalty>
1.10677

> <r_epik_Ionization_Penalty_Charging>
1.10675

> <r_epik_Ionization_Penalty_Neutral>
2.02663e-05

> <r_epik_State_Penalty>
1.16438

> <r_epik_Charging_Adjusted_Penalty>
2.27113

> <i_epik_Tot_Q>
1

> <i_epik_Tot_abs_Q>
1

> <r_epik_Metal_State_Penalty>
1.25078

> <b_epik_Metal_Only>
0

> <s_lp_Force_Field>
OPLS_2005

> <r_lp_Energy>
54.362

> <b_lp_Chiralities_Consistent>
1

> <s_lp_Variant>
AV-unprocessed.smi:1426-4

> <Gold.Version>
5.8.1

> <Gold.Id.Protein>
6NUR|6NUR_protein|mol2

> <Gold.PLP.Fitness>
44.5018

> <Gold.PLP.PLP>
-37.8446

> <Gold.PLP.part.hbond>
-3.8475

> <Gold.PLP.part.metal>
0.0000

> <Gold.PLP.part.buried>
-0.2515

> <Gold.PLP.part.nonpolar>
-34.3003

> <Gold.PLP.part.repulsive>
0.5537

> <Gold.PLP.ligand.clash>
0.0000

> <Gold.PLP.ligand.torsion>
1.0664

> <Gold.PLP.Chemscore.Hbond>
2.8000

> <Gold.PLP.Chemscore.CHOScore>
0.0000

> <Gold.PLP.Chemscore.Metal>
0.0000

> <Gold.Chemscore.Hbonds>
donor molecule, donor type, donor heavy atom, donor atom, acceptor molecule, acceptor atom, score
      L1  H    15    44       P1  7948  2.00
      P1  H  7989  7998       L1     1  0.80

> <Gold.PLP.Chemscore.Internal.Correction>
0.3899

> <Gold.Rescore>
     Score         DG    S(hbond)    S(metal)    S(lipo)     H(rot)  DE(clash)    DE(int)     intcor
     12.79     -20.39       1.86        0.00     105.12       1.40       1.57       6.03       ----

> <Gold.Chemscore.Fitness>
12.7910

> <Gold.Chemscore.DG>
-20.3947

> <Gold.Chemscore.ZeroCoef>
-5.4800

> <Gold.Chemscore.Hbond>
1.8578

> <Gold.Chemscore.Metal>
0.0000

> <Gold.Chemscore.Lipo>
105.1244

> <Gold.Chemscore.Internal_Hbond>
0.0000

> <Gold.Chemscore.DEClash>
1.5721

> <Gold.Chemscore.DEInternal>
6.0316

> <Gold.Chemscore.Rot>
1.4023

> <Gold.Chemscore.Internal.Correction>
   9.000000E+99

> <Gold.Chemscore.Hbonds>
donor molecule, donor type, donor heavy atom, donor atom, acceptor molecule, acceptor atom, score
      L1  H    15    44       P1  7948  0.99
      P1  H  7989  7998       L1     1  0.79

> <Gold.Chemscore.Hbond.Weighted>
-6.2050

> <Gold.Chemscore.Metal.Weighted>
-0.0000

> <Gold.Chemscore.Lipo.Weighted>
-12.2996

> <Gold.Chemscore.Internal_Hbond.Weighted>
0.0000

> <Gold.Chemscore.DEClash.Weighted>
1.5721

> <Gold.Chemscore.DEInternal.Weighted>
6.0316

> <Gold.Chemscore.Rot.Weighted>
3.5898

> <Gold.Chemscore.Internal.Correction.Weighted>
   9.000000E+99

> <Gold.Protein.RotatedTorsions>
[ 6907 6896 6895 6894 ] final -111.19 input  -60.11 | X-H torsion
[ 7974 7965 7964 7962 ] final  -97.33 input  175.53 | X-H torsion
[ 8008 7997 7996 7995 ] final  159.77 input   59.86 | X-H torsion
[ 10167 10162 10161 10158 ] final  173.75 input  -65.29 | X-H torsion
[ 10718 10713 10712 10709 ] final  -31.94 input   66.30 | X-H torsion
[ 10763 10752 10751 10750 ] final -124.87 input  -60.55 | X-H torsion
[ 11005 11000 10999 10996 ] final  -89.47 input  -57.11 | X-H torsion

> <Gold.Protein.ActiveResidues>
 VAL166  LYS551  ARG553  GLY616  TRP617  ASP618  TYR619  PRO620  LYS621  CYS622 
 ASP623  PHE694  ASN695  SER759  ASP760  ASP761  ALA762  ILE779  LEU786  VAL792 
 PHE793  MET794  SER795  GLU796  ALA797  LYS798  CYS799  TRP800  GLU811  SER814 

> <Gold.Protein.RotatedAtoms>
  150.7674  133.9271  159.3415 H   0  0  0  0  0  0  0  0  0  0  0  0  # atno 6907 bound_to 6896
  151.7166  135.0900  160.0286 H   0  0  0  0  0  0  0  0  0  0  0  0  # atno 6908 bound_to 6896
  152.3676  133.6339  159.6098 H   0  0  0  0  0  0  0  0  0  0  0  0  # atno 6909 bound_to 6896
  145.3352  140.9449  143.2639 H   0  0  0  0  0  0  0  0  0  0  0  0  # atno 7974 bound_to 7965
  156.2217  140.1822  156.7461 H   0  0  0  0  0  0  0  0  0  0  0  0  # atno 8008 bound_to 7997
  154.5876  140.0656  156.9221 H   0  0  0  0  0  0  0  0  0  0  0  0  # atno 8009 bound_to 7997
  155.2393  140.3321  155.4296 H   0  0  0  0  0  0  0  0  0  0  0  0  # atno 8010 bound_to 7997
  139.5119  144.3225  152.0189 H   0  0  0  0  0  0  0  0  0  0  0  0  # atno 10167 bound_to 10162
  156.3810  130.4356  149.7469 H   0  0  0  0  0  0  0  0  0  0  0  0  # atno 10718 bound_to 10713
  154.8729  135.4049  154.3176 H   0  0  0  0  0  0  0  0  0  0  0  0  # atno 10763 bound_to 10752
  153.4010  135.7018  153.6432 H   0  0  0  0  0  0  0  0  0  0  0  0  # atno 10764 bound_to 10752
  153.5175  135.3694  155.2587 H   0  0  0  0  0  0  0  0  0  0  0  0  # atno 10765 bound_to 10752
  141.1584  133.7632  156.9600 H   0  0  0  0  0  0  0  0  0  0  0  0  # atno 11005 bound_to 11000
  144.8833  139.4874  143.6712 LP  0  0  0  0  0  0  0  0  0  0  0  0  # atno 17320 bound_to 7965
  146.3030  139.7487  142.9077 LP  0  0  0  0  0  0  0  0  0  0  0  0  # atno 17321 bound_to 7965
  140.2666  144.4009  150.6166 LP  0  0  0  0  0  0  0  0  0  0  0  0  # atno 17342 bound_to 10162
  140.6119  143.2170  151.6870 LP  0  0  0  0  0  0  0  0  0  0  0  0  # atno 17343 bound_to 10162
  156.4559  130.7929  151.2949 LP  0  0  0  0  0  0  0  0  0  0  0  0  # atno 17370 bound_to 10713
  157.7492  131.0081  150.3215 LP  0  0  0  0  0  0  0  0  0  0  0  0  # atno 17371 bound_to 10713
  140.1199  134.9423  157.2189 LP  0  0  0  0  0  0  0  0  0  0  0  0  # atno 17394 bound_to 11000
  140.3085  134.3051  155.7272 LP  0  0  0  0  0  0  0  0  0  0  0  0  # atno 17395 bound_to 11000

$$$$
