AV-unprocessed.smi:840|AV-procd|sdf|3913|dock8
  -GOLD-   22720 1373D 1   1.00000     0.00000
 Structure written by MMmdl.
 36 37  0  0  0  0  0  0  0  0  2 V2000
  151.5070  139.4649  156.0440 C   0  0  0  0  0  0  0  0  0  0  0  0
  151.7578  138.9367  157.4663 C   0  0  2  0  0  0  0  0  0  0  0  0
  150.4607  138.7475  158.1152 N   0  0  0  0  0  0  0  0  0  0  0  0
  149.9395  137.5758  158.5104 C   0  0  0  0  0  0  0  0  0  0  0  0
  150.5715  136.5312  158.3343 O   0  0  0  0  0  0  0  0  0  0  0  0
  148.7187  137.6875  159.0817 N   0  5  0  0  0  0  0  0  0  0  0  0
  148.2772  136.7327  159.9165 C   0  0  0  0  0  0  0  0  0  0  0  0
  147.7978  136.9969  161.1375 N   0  0  0  0  0  0  0  0  0  0  0  0
  147.3863  135.8574  161.8309 C   0  0  0  0  0  0  0  0  0  0  0  0
  147.5484  134.6988  161.1185 C   0  0  0  0  0  0  0  0  0  0  0  0
  148.2279  135.0067  159.5459 S   0  0  0  0  0  0  0  0  0  0  0  0
  152.5970  139.9770  158.2251 C   0  0  0  0  0  0  0  0  0  0  0  0
  153.6996  139.6800  158.6880 O   0  0  0  0  0  0  0  0  0  0  0  0
  152.0484  141.1942  158.3556 N   0  0  0  0  0  0  0  0  0  0  0  0
  152.6717  142.3307  159.0277 C   0  0  0  0  0  0  0  0  0  0  0  0
  152.7643  142.0848  160.5463 C   0  0  0  0  0  0  0  0  0  0  0  0
  152.2049  143.3418  161.2158 C   0  0  0  0  0  0  0  0  0  0  0  0
  151.1950  143.8878  160.2117 C   0  0  0  0  0  0  0  0  0  0  0  0
  151.8376  143.6154  158.8517 C   0  0  0  0  0  0  0  0  0  0  0  0
  152.4444  139.6246  155.5095 H   0  0  0  0  0  0  0  0  0  0  0  0
  150.9614  140.4098  156.0512 H   0  0  0  0  0  0  0  0  0  0  0  0
  150.9205  138.7519  155.4637 H   0  0  0  0  0  0  0  0  0  0  0  0
  152.2893  137.9845  157.4119 H   0  0  0  0  0  0  0  0  0  0  0  0
  149.9139  139.5779  158.2885 H   0  0  0  0  0  0  0  0  0  0  0  0
  146.9877  135.9645  162.8287 H   0  0  0  0  0  0  0  0  0  0  0  0
  147.3109  133.6897  161.4194 H   0  0  0  0  0  0  0  0  0  0  0  0
  151.1406  141.3490  157.9420 H   0  0  0  0  0  0  0  0  0  0  0  0
  153.6736  142.4891  158.6240 H   0  0  0  0  0  0  0  0  0  0  0  0
  152.1543  141.2276  160.8365 H   0  0  0  0  0  0  0  0  0  0  0  0
  153.7851  141.8749  160.8671 H   0  0  0  0  0  0  0  0  0  0  0  0
  151.7602  143.1364  162.1900 H   0  0  0  0  0  0  0  0  0  0  0  0
  153.0059  144.0680  161.3609 H   0  0  0  0  0  0  0  0  0  0  0  0
  150.2587  143.3339  160.2932 H   0  0  0  0  0  0  0  0  0  0  0  0
  150.9734  144.9440  160.3680 H   0  0  0  0  0  0  0  0  0  0  0  0
  152.5029  144.4414  158.5974 H   0  0  0  0  0  0  0  0  0  0  0  0
  151.0945  143.5480  158.0555 H   0  0  0  0  0  0  0  0  0  0  0  0
  1  2  1  0  0  0  0
  1 20  1  0  0  0  0
  1 21  1  0  0  0  0
  1 22  1  0  0  0  0
  2  3  1  0  0  0  0
  2 12  1  0  0  0  0
  2 23  1  0  0  0  0
  3  4  1  0  0  0  0
  3 24  1  0  0  0  0
  4  5  2  0  0  0  0
  4  6  1  0  0  0  0
  6  7  1  0  0  0  0
  7 11  1  0  0  0  0
  7  8  2  0  0  0  0
  8  9  1  0  0  0  0
  9 10  2  0  0  0  0
  9 25  1  0  0  0  0
 10 11  1  0  0  0  0
 10 26  1  0  0  0  0
 12 13  2  0  0  0  0
 12 14  1  0  0  0  0
 14 15  1  0  0  0  0
 14 27  1  0  0  0  0
 15 19  1  0  0  0  0
 15 16  1  0  0  0  0
 15 28  1  0  0  0  0
 16 17  1  0  0  0  0
 16 29  1  0  0  0  0
 16 30  1  0  0  0  0
 17 18  1  0  0  0  0
 17 31  1  0  0  0  0
 17 32  1  0  0  0  0
 18 19  1  0  0  0  0
 18 33  1  0  0  0  0
 18 34  1  0  0  0  0
 19 35  1  0  0  0  0
 19 36  1  0  0  0  0
M  CHG  1   6  -1
M  END
> <s_m_source_file>
AV-unprocessed.smi

> <i_m_source_file_index>
840

> <i_lp_mmshare_version>
43012

> <i_f3d_flags>
0

> <s_epik_input>
W0NIMl0xW0NIMl1bQ0gyXVtDSDJdW0NIXTFbTkhdQyg9TylbQ0BIXShbQ0gzXSlbTkhdQyg9TylbTkhdYzJuW2NIXVtjSF1zMg==

> <s_epik_cmdline>
J2VwaWtfcHl0aG9uJywgJy1waCcsICc3LjAnLCAnLXRuJywgJzgnLCAnLW1hJywgJzIwMCcsICctbWV0YWxfYmluZGluZycsICctaW1hZScsICc8aW5maWxlLm1hZT4nLCAnLW9tYWUnLCAnPG91dGZpbGUubWFlPic=

> <r_lp_tautomer_probability>
1

> <r_epik_Ionization_Penalty>
6.35467

> <r_epik_Ionization_Penalty_Charging>
5.47395

> <r_epik_Ionization_Penalty_Neutral>
0.880717

> <r_epik_State_Penalty>
5.4739

> <r_epik_Charging_Adjusted_Penalty>
10.9479

> <i_epik_Tot_Q>
-1

> <i_epik_Tot_abs_Q>
1

> <r_epik_Metal_State_Penalty>
1.48639

> <b_epik_Metal_Only>
1

> <s_lp_Force_Field>
OPLS_2005

> <r_lp_Energy>
14.0087

> <b_lp_Chiralities_Consistent>
1

> <s_lp_Variant>
AV-unprocessed.smi:840-3

> <Gold.Version>
5.8.1

> <Gold.Id.Protein>
6NUR|6NUR_protein|mol2

> <Gold.PLP.Fitness>
48.0807

> <Gold.PLP.PLP>
-38.2458

> <Gold.PLP.part.hbond>
-5.4904

> <Gold.PLP.part.metal>
0.0000

> <Gold.PLP.part.buried>
-2.7584

> <Gold.PLP.part.nonpolar>
-29.6844

> <Gold.PLP.part.repulsive>
0.2043

> <Gold.PLP.ligand.clash>
0.0000

> <Gold.PLP.ligand.torsion>
0.6742

> <Gold.PLP.Chemscore.Hbond>
3.7120

> <Gold.PLP.Chemscore.CHOScore>
0.0000

> <Gold.PLP.Chemscore.Metal>
0.0000

> <Gold.Chemscore.Hbonds>
donor molecule, donor type, donor heavy atom, donor atom, acceptor molecule, acceptor atom, score
      P1  H  6896  6908       L1     5  0.64
      P1  H  6931  6943       L1     8  1.00
      P1  H  6934  6947       L1     8  0.65
      P1  H  7997  8009       L1    13  1.00

> <Gold.PLP.Chemscore.Internal.Correction>
0.0473

> <Gold.Rescore>
     Score         DG    S(hbond)    S(metal)    S(lipo)     H(rot)  DE(clash)    DE(int)     intcor
     19.24     -19.94       2.63        0.00      83.82       1.62       0.01       0.69       ----

> <Gold.Chemscore.Fitness>
19.2400

> <Gold.Chemscore.DG>
-19.9381

> <Gold.Chemscore.ZeroCoef>
-5.4800

> <Gold.Chemscore.Hbond>
2.6345

> <Gold.Chemscore.Metal>
0.0000

> <Gold.Chemscore.Lipo>
83.8220

> <Gold.Chemscore.Internal_Hbond>
0.0000

> <Gold.Chemscore.DEClash>
0.0128

> <Gold.Chemscore.DEInternal>
0.6854

> <Gold.Chemscore.Rot>
1.6204

> <Gold.Chemscore.Internal.Correction>
   9.000000E+99

> <Gold.Chemscore.Hbonds>
donor molecule, donor type, donor heavy atom, donor atom, acceptor molecule, acceptor atom, score
      P1  H  6896  6908       L1     5  0.63
      P1  H  6931  6943       L1     8  0.47
      P1  H  6934  6947       L1     8  0.22
      P1  H  7997  8009       L1    13  0.35

> <Gold.Chemscore.Hbond.Weighted>
-8.7991

> <Gold.Chemscore.Metal.Weighted>
-0.0000

> <Gold.Chemscore.Lipo.Weighted>
-9.8072

> <Gold.Chemscore.Internal_Hbond.Weighted>
0.0000

> <Gold.Chemscore.DEClash.Weighted>
0.0128

> <Gold.Chemscore.DEInternal.Weighted>
0.6854

> <Gold.Chemscore.Rot.Weighted>
4.1481

> <Gold.Chemscore.Internal.Correction.Weighted>
   9.000000E+99

> <Gold.Protein.RotatedTorsions>
[ 6907 6896 6895 6894 ] final -155.34 input  -60.11 | X-H torsion
[ 7974 7965 7964 7962 ] final   20.68 input  175.53 | X-H torsion
[ 8008 7997 7996 7995 ] final  135.06 input   59.86 | X-H torsion
[ 10167 10162 10161 10158 ] final  -18.70 input  -65.29 | X-H torsion
[ 10718 10713 10712 10709 ] final   59.34 input   66.30 | X-H torsion
[ 10763 10752 10751 10750 ] final -138.79 input  -60.55 | X-H torsion
[ 11005 11000 10999 10996 ] final   22.54 input  -57.11 | X-H torsion

> <Gold.Protein.ActiveResidues>
 VAL166  LYS551  ARG553  GLY616  TRP617  ASP618  TYR619  PRO620  LYS621  CYS622 
 ASP623  PHE694  ASN695  SER759  ASP760  ASP761  ALA762  ILE779  LEU786  VAL792 
 PHE793  MET794  SER795  GLU796  ALA797  LYS798  CYS799  TRP800  GLU811  SER814 

> <Gold.Protein.RotatedAtoms>
  151.2711  133.4255  159.2621 H   0  0  0  0  0  0  0  0  0  0  0  0  # atno 6907 bound_to 6896
  151.0444  134.9630  159.8189 H   0  0  0  0  0  0  0  0  0  0  0  0  # atno 6908 bound_to 6896
  152.5371  134.2667  159.9009 H   0  0  0  0  0  0  0  0  0  0  0  0  # atno 6909 bound_to 6896
  146.2102  139.8135  142.8695 H   0  0  0  0  0  0  0  0  0  0  0  0  # atno 7974 bound_to 7965
  156.3002  140.2480  156.3520 H   0  0  0  0  0  0  0  0  0  0  0  0  # atno 8008 bound_to 7997
  154.8957  140.0408  157.1883 H   0  0  0  0  0  0  0  0  0  0  0  0  # atno 8009 bound_to 7997
  154.8552  140.2912  155.5577 H   0  0  0  0  0  0  0  0  0  0  0  0  # atno 8010 bound_to 7997
  140.7261  143.4891  151.0016 H   0  0  0  0  0  0  0  0  0  0  0  0  # atno 10167 bound_to 10162
  157.5668  130.8877  149.9200 H   0  0  0  0  0  0  0  0  0  0  0  0  # atno 10718 bound_to 10713
  154.8627  135.3601  154.5442 H   0  0  0  0  0  0  0  0  0  0  0  0  # atno 10763 bound_to 10752
  153.6063  135.7011  153.5369 H   0  0  0  0  0  0  0  0  0  0  0  0  # atno 10764 bound_to 10752
  153.3248  135.4141  155.1407 H   0  0  0  0  0  0  0  0  0  0  0  0  # atno 10765 bound_to 10752
  140.3795  134.1936  155.7664 H   0  0  0  0  0  0  0  0  0  0  0  0  # atno 11005 bound_to 11000
  145.3171  141.0234  143.3521 LP  0  0  0  0  0  0  0  0  0  0  0  0  # atno 17320 bound_to 7965
  144.8893  139.4796  143.6685 LP  0  0  0  0  0  0  0  0  0  0  0  0  # atno 17321 bound_to 7965
  139.8594  143.7334  152.3174 LP  0  0  0  0  0  0  0  0  0  0  0  0  # atno 17342 bound_to 10162
  139.7544  144.7525  151.0457 LP  0  0  0  0  0  0  0  0  0  0  0  0  # atno 17343 bound_to 10162
  156.0715  130.3684  150.0765 LP  0  0  0  0  0  0  0  0  0  0  0  0  # atno 17370 bound_to 10713
  156.8923  130.9592  151.3587 LP  0  0  0  0  0  0  0  0  0  0  0  0  # atno 17371 bound_to 10713
  141.1928  133.8165  157.0824 LP  0  0  0  0  0  0  0  0  0  0  0  0  # atno 17394 bound_to 11000
  140.0489  134.9816  157.1101 LP  0  0  0  0  0  0  0  0  0  0  0  0  # atno 17395 bound_to 11000

$$$$
