AV-unprocessed.smi:1145|AV-procd|sdf|4885|dock6
  -GOLD-   22720 3453D 1   1.00000     0.00000
 Structure written by MMmdl.
 36 37  0  0  0  0  0  0  0  0  1 V2000
  150.3657  141.2555  158.4222 C   0  0  0  0  0  0  0  0  0  0  0  0
  151.7929  141.4024  157.8625 C   0  0  1  0  0  0  0  0  0  0  0  0
  152.8397  141.7166  158.9501 C   0  0  0  0  0  0  0  0  0  0  0  0
  152.5428  142.9292  159.6910 N   0  0  0  0  0  0  0  0  0  0  0  0
  152.6435  143.1527  161.0483 C   0  0  0  0  0  0  0  0  0  0  0  0
  152.2650  144.4447  161.2761 C   0  0  0  0  0  0  0  0  0  0  0  0
  151.9504  144.9385  159.9792 C   0  0  0  0  0  0  0  0  0  0  0  0
  152.1201  144.0298  159.0323 N   0  0  0  0  0  0  0  0  0  0  0  0
  152.1874  140.1832  157.1622 N   0  0  0  0  0  0  0  0  0  0  0  0
  151.6698  139.7460  156.0033 C   0  0  0  0  0  0  0  0  0  0  0  0
  150.7804  140.3446  155.3978 O   0  0  0  0  0  0  0  0  0  0  0  0
  152.2630  138.4389  155.4432 C   0  0  1  0  0  0  0  0  0  0  0  0
  152.2425  137.2972  156.4763 C   0  0  0  0  0  0  0  0  0  0  0  0
  150.8260  136.7661  156.7663 C   0  0  0  0  0  0  0  0  0  0  0  0
  149.9576  136.5990  155.5102 C   0  0  0  0  0  0  0  0  0  0  0  0
  148.9332  135.9232  155.5708 O   0  0  0  0  0  0  0  0  0  0  0  0
  150.3145  137.2326  154.3791 N   0  0  0  0  0  0  0  0  0  0  0  0
  151.5601  137.9675  154.1503 C   0  0  0  0  0  0  0  0  0  0  0  0
  150.0252  142.1772  158.8943 H   0  0  0  0  0  0  0  0  0  0  0  0
  150.3127  140.4605  159.1665 H   0  0  0  0  0  0  0  0  0  0  0  0
  149.6536  141.0184  157.6313 H   0  0  0  0  0  0  0  0  0  0  0  0
  151.7955  142.2292  157.1496 H   0  0  0  0  0  0  0  0  0  0  0  0
  152.9076  140.8898  159.6587 H   0  0  0  0  0  0  0  0  0  0  0  0
  153.8291  141.8246  158.5029 H   0  0  0  0  0  0  0  0  0  0  0  0
  152.9705  142.3823  161.7308 H   0  0  0  0  0  0  0  0  0  0  0  0
  152.2207  144.9599  162.2241 H   0  0  0  0  0  0  0  0  0  0  0  0
  151.6083  145.9239  159.6990 H   0  0  0  0  0  0  0  0  0  0  0  0
  152.9155  139.6304  157.5906 H   0  0  0  0  0  0  0  0  0  0  0  0
  153.3044  138.6452  155.1900 H   0  0  0  0  0  0  0  0  0  0  0  0
  152.8602  136.4766  156.1088 H   0  0  0  0  0  0  0  0  0  0  0  0
  152.7081  137.6233  157.4072 H   0  0  0  0  0  0  0  0  0  0  0  0
  150.8889  135.8125  157.2914 H   0  0  0  0  0  0  0  0  0  0  0  0
  150.3066  137.4508  157.4374 H   0  0  0  0  0  0  0  0  0  0  0  0
  149.6975  137.1405  153.5852 H   0  0  0  0  0  0  0  0  0  0  0  0
  151.3519  138.8127  153.4931 H   0  0  0  0  0  0  0  0  0  0  0  0
  152.2305  137.3111  153.5945 H   0  0  0  0  0  0  0  0  0  0  0  0
  1  2  1  0  0  0  0
  1 19  1  0  0  0  0
  1 20  1  0  0  0  0
  1 21  1  0  0  0  0
  2  3  1  0  0  0  0
  2  9  1  0  0  0  0
  2 22  1  0  0  0  0
  3  4  1  0  0  0  0
  3 23  1  0  0  0  0
  3 24  1  0  0  0  0
  4  8  1  0  0  0  0
  4  5  1  0  0  0  0
  5  6  2  0  0  0  0
  5 25  1  0  0  0  0
  6  7  1  0  0  0  0
  6 26  1  0  0  0  0
  7  8  2  0  0  0  0
  7 27  1  0  0  0  0
  9 10  1  0  0  0  0
  9 28  1  0  0  0  0
 10 11  2  0  0  0  0
 10 12  1  0  0  0  0
 12 18  1  0  0  0  0
 12 13  1  0  0  0  0
 12 29  1  0  0  0  0
 13 14  1  0  0  0  0
 13 30  1  0  0  0  0
 13 31  1  0  0  0  0
 14 15  1  0  0  0  0
 14 32  1  0  0  0  0
 14 33  1  0  0  0  0
 15 16  2  0  0  0  0
 15 17  1  0  0  0  0
 17 18  1  0  0  0  0
 17 34  1  0  0  0  0
 18 35  1  0  0  0  0
 18 36  1  0  0  0  0
M  END
> <s_m_source_file>
AV-unprocessed.smi

> <i_m_source_file_index>
1145

> <i_lp_mmshare_version>
43012

> <i_f3d_flags>
0

> <s_epik_input>
bjFbY0hdW2NIXVtjSF1uMVtDSDJdW0NAQEhdKFtDSDNdKVtOSF1DKD1PKVtDQEBIXTJbQ0gyXVtDSDJdQyg9TylbTkhdW0NIMl0y

> <s_epik_cmdline>
J2VwaWtfcHl0aG9uJywgJy1waCcsICc3LjAnLCAnLXRuJywgJzgnLCAnLW1hJywgJzIwMCcsICctbWV0YWxfYmluZGluZycsICctaW1hZScsICc8aW5maWxlLm1hZT4nLCAnLW9tYWUnLCAnPG91dGZpbGUubWFlPic=

> <r_lp_tautomer_probability>
1

> <r_epik_Ionization_Penalty>
0.000314064

> <r_epik_Ionization_Penalty_Charging>
0

> <r_epik_Ionization_Penalty_Neutral>
0.000314064

> <r_epik_State_Penalty>
-0

> <r_epik_Charging_Adjusted_Penalty>
0

> <i_epik_Tot_Q>
0

> <i_epik_Tot_abs_Q>
0

> <r_epik_Metal_State_Penalty>
-0

> <b_epik_Metal_Only>
0

> <s_lp_Force_Field>
OPLS_2005

> <r_lp_Energy>
8.22521

> <b_lp_Chiralities_Consistent>
1

> <s_lp_Variant>
AV-unprocessed.smi:1145-4

> <Gold.Version>
5.8.1

> <Gold.Id.Protein>
6NUR|6NUR_protein|mol2

> <Gold.PLP.Fitness>
41.3468

> <Gold.PLP.PLP>
-36.1409

> <Gold.PLP.part.hbond>
-2.7423

> <Gold.PLP.part.metal>
0.0000

> <Gold.PLP.part.buried>
-7.2998

> <Gold.PLP.part.nonpolar>
-27.2213

> <Gold.PLP.part.repulsive>
0.3573

> <Gold.PLP.ligand.clash>
0.0000

> <Gold.PLP.ligand.torsion>
0.4169

> <Gold.PLP.Chemscore.Hbond>
2.0000

> <Gold.PLP.Chemscore.CHOScore>
0.0000

> <Gold.PLP.Chemscore.Metal>
0.0000

> <Gold.Chemscore.Hbonds>
donor molecule, donor type, donor heavy atom, donor atom, acceptor molecule, acceptor atom, score
      L1  H    17    34       P1  7948  0.94
      P1  H  7989  7998       L1    11  0.71

> <Gold.PLP.Chemscore.Internal.Correction>
0.0397

> <Gold.Rescore>
     Score         DG    S(hbond)    S(metal)    S(lipo)     H(rot)  DE(clash)    DE(int)     intcor
     15.91     -16.69       1.91        0.00      80.64       1.80       0.07       0.72       ----

> <Gold.Chemscore.Fitness>
15.9080

> <Gold.Chemscore.DG>
-16.6941

> <Gold.Chemscore.ZeroCoef>
-5.4800

> <Gold.Chemscore.Hbond>
1.9108

> <Gold.Chemscore.Metal>
0.0000

> <Gold.Chemscore.Lipo>
80.6443

> <Gold.Chemscore.Internal_Hbond>
0.0000

> <Gold.Chemscore.DEClash>
0.0668

> <Gold.Chemscore.DEInternal>
0.7194

> <Gold.Chemscore.Rot>
1.7982

> <Gold.Chemscore.Internal.Correction>
   9.000000E+99

> <Gold.Chemscore.Hbonds>
donor molecule, donor type, donor heavy atom, donor atom, acceptor molecule, acceptor atom, score
      L1  H    17    34       P1  7948  0.65
      P1  H  7989  7998       L1    11  0.38

> <Gold.Chemscore.Hbond.Weighted>
-6.3822

> <Gold.Chemscore.Metal.Weighted>
-0.0000

> <Gold.Chemscore.Lipo.Weighted>
-9.4354

> <Gold.Chemscore.Internal_Hbond.Weighted>
0.0000

> <Gold.Chemscore.DEClash.Weighted>
0.0668

> <Gold.Chemscore.DEInternal.Weighted>
0.7194

> <Gold.Chemscore.Rot.Weighted>
4.6035

> <Gold.Chemscore.Internal.Correction.Weighted>
   9.000000E+99

> <Gold.Protein.RotatedTorsions>
[ 6907 6896 6895 6894 ] final -129.57 input  -60.11 | X-H torsion
[ 7974 7965 7964 7962 ] final -178.23 input  175.53 | X-H torsion
[ 8008 7997 7996 7995 ] final  122.79 input   59.86 | X-H torsion
[ 10167 10162 10161 10158 ] final   89.01 input  -65.29 | X-H torsion
[ 10718 10713 10712 10709 ] final -119.80 input   66.30 | X-H torsion
[ 10763 10752 10751 10750 ] final   77.00 input  -60.55 | X-H torsion
[ 11005 11000 10999 10996 ] final   -0.37 input  -57.11 | X-H torsion

> <Gold.Protein.ActiveResidues>
 VAL166  LYS551  ARG553  GLY616  TRP617  ASP618  TYR619  PRO620  LYS621  CYS622 
 ASP623  PHE694  ASN695  SER759  ASP760  ASP761  ALA762  ILE779  LEU786  VAL792 
 PHE793  MET794  SER795  GLU796  ALA797  LYS798  CYS799  TRP800  GLU811  SER814 

> <Gold.Protein.RotatedAtoms>
  150.9301  133.6776  159.2812 H   0  0  0  0  0  0  0  0  0  0  0  0  # atno 6907 bound_to 6896
  151.4201  135.0995  159.9621 H   0  0  0  0  0  0  0  0  0  0  0  0  # atno 6908 bound_to 6896
  152.5022  133.8755  159.7375 H   0  0  0  0  0  0  0  0  0  0  0  0  # atno 6909 bound_to 6896
  144.7130  140.0900  143.6422 H   0  0  0  0  0  0  0  0  0  0  0  0  # atno 7974 bound_to 7965
  156.2741  140.2777  156.1524 H   0  0  0  0  0  0  0  0  0  0  0  0  # atno 8008 bound_to 7997
  155.0839  140.0388  157.2665 H   0  0  0  0  0  0  0  0  0  0  0  0  # atno 8009 bound_to 7997
  154.6942  140.2635  155.6788 H   0  0  0  0  0  0  0  0  0  0  0  0  # atno 8010 bound_to 7997
  139.8615  144.6541  150.9052 H   0  0  0  0  0  0  0  0  0  0  0  0  # atno 10167 bound_to 10162
  156.1208  130.6322  150.9461 H   0  0  0  0  0  0  0  0  0  0  0  0  # atno 10718 bound_to 10713
  153.0766  135.4930  154.8417 H   0  0  0  0  0  0  0  0  0  0  0  0  # atno 10763 bound_to 10752
  154.7095  135.3017  154.9221 H   0  0  0  0  0  0  0  0  0  0  0  0  # atno 10764 bound_to 10752
  153.9919  135.6777  153.4807 H   0  0  0  0  0  0  0  0  0  0  0  0  # atno 10765 bound_to 10752
  140.6355  133.9537  155.8297 H   0  0  0  0  0  0  0  0  0  0  0  0  # atno 11005 bound_to 11000
  145.9629  139.2813  143.1145 LP  0  0  0  0  0  0  0  0  0  0  0  0  # atno 17320 bound_to 7965
  145.9201  140.9121  143.0409 LP  0  0  0  0  0  0  0  0  0  0  0  0  # atno 17321 bound_to 7965
  140.7774  143.3740  151.1597 LP  0  0  0  0  0  0  0  0  0  0  0  0  # atno 17342 bound_to 10162
  139.7369  143.8985  152.3037 LP  0  0  0  0  0  0  0  0  0  0  0  0  # atno 17343 bound_to 10162
  157.6392  131.0912  150.8287 LP  0  0  0  0  0  0  0  0  0  0  0  0  # atno 17370 bound_to 10713
  156.8383  130.5039  149.5324 LP  0  0  0  0  0  0  0  0  0  0  0  0  # atno 17371 bound_to 10713
  141.0645  134.0298  157.3613 LP  0  0  0  0  0  0  0  0  0  0  0  0  # atno 17394 bound_to 11000
  139.9100  135.0188  156.7650 LP  0  0  0  0  0  0  0  0  0  0  0  0  # atno 17395 bound_to 11000

$$$$
