AV-unprocessed.smi:664|AV-procd|sdf|3251|dock2
  -GOLD-   22720 0203D 1   1.00000     0.00000
 Structure written by MMmdl.
 31 32  0  0  0  0  0  0  0  0  1 V2000
  146.2206  142.9731  153.8422 C   0  0  0  0  0  0  0  0  0  0  0  0
  147.2315  141.8730  153.9795 C   0  0  0  0  0  0  0  0  0  0  0  0
  147.0756  140.5771  153.3471 C   0  0  0  0  0  0  0  0  0  0  0  0
  148.0312  139.6387  153.5170 C   0  0  0  0  0  0  0  0  0  0  0  0
  149.2238  139.8930  154.3225 C   0  0  0  0  0  0  0  0  0  0  0  0
  150.1111  139.0575  154.4934 O   0  0  0  0  0  0  0  0  0  0  0  0
  149.2618  141.1451  154.8665 N   0  0  0  0  0  0  0  0  0  0  0  0
  150.3933  141.5816  155.6939 C   0  0  0  0  0  0  0  0  0  0  0  0
  149.9995  141.7449  157.1780 C   0  0  2  0  0  0  0  0  0  0  0  0
  148.7955  142.4828  157.2612 O   0  0  0  0  0  0  0  0  0  0  0  0
  151.1150  142.4183  157.9635 C   0  0  0  0  0  0  0  0  0  0  0  0
  151.5209  143.7277  157.6272 C   0  0  0  0  0  0  0  0  0  0  0  0
  152.5459  144.3628  158.3550 C   0  0  0  0  0  0  0  0  0  0  0  0
  153.1703  143.6930  159.4246 C   0  0  0  0  0  0  0  0  0  0  0  0
  152.7673  142.3880  159.7683 C   0  0  0  0  0  0  0  0  0  0  0  0
  153.5289  141.5671  161.0809 Cl  0  0  0  0  0  0  0  0  0  0  0  0
  151.7412  141.7531  159.0412 C   0  0  0  0  0  0  0  0  0  0  0  0
  148.2820  142.1098  154.6946 N   0  0  0  0  0  0  0  0  0  0  0  0
  145.3119  142.6145  153.3583 H   0  0  0  0  0  0  0  0  0  0  0  0
  146.6186  143.7917  153.2423 H   0  0  0  0  0  0  0  0  0  0  0  0
  145.9418  143.3727  154.8180 H   0  0  0  0  0  0  0  0  0  0  0  0
  146.2005  140.3730  152.7479 H   0  0  0  0  0  0  0  0  0  0  0  0
  147.9137  138.6742  153.0453 H   0  0  0  0  0  0  0  0  0  0  0  0
  151.1637  140.8117  155.6169 H   0  0  0  0  0  0  0  0  0  0  0  0
  150.8668  142.4877  155.3110 H   0  0  0  0  0  0  0  0  0  0  0  0
  149.8143  140.7651  157.6209 H   0  0  0  0  0  0  0  0  0  0  0  0
  148.8219  143.1739  156.6174 H   0  0  0  0  0  0  0  0  0  0  0  0
  151.0460  144.2519  156.8105 H   0  0  0  0  0  0  0  0  0  0  0  0
  152.8526  145.3650  158.0934 H   0  0  0  0  0  0  0  0  0  0  0  0
  153.9561  144.1820  159.9815 H   0  0  0  0  0  0  0  0  0  0  0  0
  151.4341  140.7537  159.3140 H   0  0  0  0  0  0  0  0  0  0  0  0
  1  2  1  0  0  0  0
  1 19  1  0  0  0  0
  1 20  1  0  0  0  0
  1 21  1  0  0  0  0
  2 18  2  0  0  0  0
  2  3  1  0  0  0  0
  3  4  2  0  0  0  0
  3 22  1  0  0  0  0
  4  5  1  0  0  0  0
  4 23  1  0  0  0  0
  5  6  2  0  0  0  0
  5  7  1  0  0  0  0
  7  8  1  0  0  0  0
  7 18  1  0  0  0  0
  8  9  1  0  0  0  0
  8 24  1  0  0  0  0
  8 25  1  0  0  0  0
  9 10  1  0  0  0  0
  9 11  1  0  0  0  0
  9 26  1  0  0  0  0
 10 27  1  0  0  0  0
 11 17  1  0  0  0  0
 11 12  2  0  0  0  0
 12 13  1  0  0  0  0
 12 28  1  0  0  0  0
 13 14  2  0  0  0  0
 13 29  1  0  0  0  0
 14 15  1  0  0  0  0
 14 30  1  0  0  0  0
 15 16  1  0  0  0  0
 15 17  2  0  0  0  0
 17 31  1  0  0  0  0
M  END
> <s_m_source_file>
AV-unprocessed.smi

> <i_m_source_file_index>
664

> <i_lp_mmshare_version>
43012

> <i_f3d_flags>
0

> <s_epik_input>
W0NIM11jMVtjSF1bY0hdYyg9TyluKG4xKVtDSDJdW0NASF0oW09IXSljMltjSF1bY0hdW2NIXWMoQ2wpW2NIXTI=

> <s_epik_cmdline>
J2VwaWtfcHl0aG9uJywgJy1waCcsICc3LjAnLCAnLXRuJywgJzgnLCAnLW1hJywgJzIwMCcsICctbWV0YWxfYmluZGluZycsICctaW1hZScsICc8aW5maWxlLm1hZT4nLCAnLW9tYWUnLCAnPG91dGZpbGUubWFlPic=

> <r_lp_tautomer_probability>
1

> <r_epik_Ionization_Penalty>
5.38844e-06

> <r_epik_Ionization_Penalty_Charging>
5.19536e-06

> <r_epik_Ionization_Penalty_Neutral>
1.93084e-07

> <r_epik_State_Penalty>
-0

> <r_epik_Charging_Adjusted_Penalty>
5.19536e-06

> <i_epik_Tot_Q>
0

> <i_epik_Tot_abs_Q>
0

> <r_epik_Metal_State_Penalty>
-0

> <b_epik_Metal_Only>
0

> <s_lp_Force_Field>
OPLS_2005

> <r_lp_Energy>
26.5125

> <b_lp_Chiralities_Consistent>
1

> <s_lp_Variant>
AV-unprocessed.smi:664-1

> <Gold.Version>
5.8.1

> <Gold.Id.Protein>
6NUR|6NUR_protein|mol2

> <Gold.PLP.Fitness>
48.0248

> <Gold.PLP.PLP>
-45.3270

> <Gold.PLP.part.hbond>
-1.0000

> <Gold.PLP.part.metal>
0.0000

> <Gold.PLP.part.buried>
-4.3808

> <Gold.PLP.part.nonpolar>
-41.1527

> <Gold.PLP.part.repulsive>
1.3978

> <Gold.PLP.ligand.clash>
0.0000

> <Gold.PLP.ligand.torsion>
0.1559

> <Gold.PLP.Chemscore.Hbond>
1.0000

> <Gold.PLP.Chemscore.CHOScore>
0.0000

> <Gold.PLP.Chemscore.Metal>
0.0000

> <Gold.Chemscore.Hbonds>
donor molecule, donor type, donor heavy atom, donor atom, acceptor molecule, acceptor atom, score
      L1  H    10    27       P1  8028  1.00

> <Gold.PLP.Chemscore.Internal.Correction>
0.0095

> <Gold.Rescore>
     Score         DG    S(hbond)    S(metal)    S(lipo)     H(rot)  DE(clash)    DE(int)     intcor
     16.37     -18.18       0.95        0.00     121.61       1.84       0.11       1.71       ----

> <Gold.Chemscore.Fitness>
16.3699

> <Gold.Chemscore.DG>
-18.1806

> <Gold.Chemscore.ZeroCoef>
-5.4800

> <Gold.Chemscore.Hbond>
0.9527

> <Gold.Chemscore.Metal>
0.0000

> <Gold.Chemscore.Lipo>
121.6145

> <Gold.Chemscore.Internal_Hbond>
0.0000

> <Gold.Chemscore.DEClash>
0.1051

> <Gold.Chemscore.DEInternal>
1.7056

> <Gold.Chemscore.Rot>
1.8400

> <Gold.Chemscore.Internal.Correction>
   9.000000E+99

> <Gold.Chemscore.Hbonds>
donor molecule, donor type, donor heavy atom, donor atom, acceptor molecule, acceptor atom, score
      L1  H    10    27       P1  8028  0.91

> <Gold.Chemscore.Hbond.Weighted>
-3.1821

> <Gold.Chemscore.Metal.Weighted>
-0.0000

> <Gold.Chemscore.Lipo.Weighted>
-14.2289

> <Gold.Chemscore.Internal_Hbond.Weighted>
0.0000

> <Gold.Chemscore.DEClash.Weighted>
0.1051

> <Gold.Chemscore.DEInternal.Weighted>
1.7056

> <Gold.Chemscore.Rot.Weighted>
4.7105

> <Gold.Chemscore.Internal.Correction.Weighted>
   9.000000E+99

> <Gold.Protein.RotatedTorsions>
[ 6907 6896 6895 6894 ] final  169.20 input  -60.11 | X-H torsion
[ 7974 7965 7964 7962 ] final  136.59 input  175.53 | X-H torsion
[ 8008 7997 7996 7995 ] final -162.10 input   59.86 | X-H torsion
[ 10167 10162 10161 10158 ] final    6.26 input  -65.29 | X-H torsion
[ 10718 10713 10712 10709 ] final  104.96 input   66.30 | X-H torsion
[ 10763 10752 10751 10750 ] final  146.19 input  -60.55 | X-H torsion
[ 11005 11000 10999 10996 ] final -113.81 input  -57.11 | X-H torsion

> <Gold.Protein.ActiveResidues>
 VAL166  LYS551  ARG553  GLY616  TRP617  ASP618  TYR619  PRO620  LYS621  CYS622 
 ASP623  PHE694  ASN695  SER759  ASP760  ASP761  ALA762  ILE779  LEU786  VAL792 
 PHE793  MET794  SER795  GLU796  ALA797  LYS798  CYS799  TRP800  GLU811  SER814 

> <Gold.Protein.RotatedAtoms>
  151.8356  133.3415  159.3626 H   0  0  0  0  0  0  0  0  0  0  0  0  # atno 6907 bound_to 6896
  150.7250  134.5441  159.5771 H   0  0  0  0  0  0  0  0  0  0  0  0  # atno 6908 bound_to 6896
  152.2903  134.7729  160.0430 H   0  0  0  0  0  0  0  0  0  0  0  0  # atno 6909 bound_to 6896
  144.9550  139.4775  143.5507 H   0  0  0  0  0  0  0  0  0  0  0  0  # atno 7974 bound_to 7965
  155.8018  140.0893  157.1952 H   0  0  0  0  0  0  0  0  0  0  0  0  # atno 8008 bound_to 7997
  154.3982  140.1471  156.3343 H   0  0  0  0  0  0  0  0  0  0  0  0  # atno 8009 bound_to 7997
  155.8454  140.3437  155.5661 H   0  0  0  0  0  0  0  0  0  0  0  0  # atno 8010 bound_to 7997
  140.6437  143.7712  150.7467 H   0  0  0  0  0  0  0  0  0  0  0  0  # atno 10167 bound_to 10162
  157.6722  131.0816  150.5785 H   0  0  0  0  0  0  0  0  0  0  0  0  # atno 10718 bound_to 10713
  154.0177  135.2909  155.3385 H   0  0  0  0  0  0  0  0  0  0  0  0  # atno 10763 bound_to 10752
  154.7065  135.5167  153.8605 H   0  0  0  0  0  0  0  0  0  0  0  0  # atno 10764 bound_to 10752
  153.0695  135.6642  154.0402 H   0  0  0  0  0  0  0  0  0  0  0  0  # atno 10765 bound_to 10752
  141.0591  133.9564  157.2699 H   0  0  0  0  0  0  0  0  0  0  0  0  # atno 11005 bound_to 11000
  146.3334  139.8662  142.8848 LP  0  0  0  0  0  0  0  0  0  0  0  0  # atno 17320 bound_to 7965
  145.2786  141.0131  143.3730 LP  0  0  0  0  0  0  0  0  0  0  0  0  # atno 17321 bound_to 7965
  140.1349  143.4493  152.2231 LP  0  0  0  0  0  0  0  0  0  0  0  0  # atno 17342 bound_to 10162
  139.5647  144.7428  151.4055 LP  0  0  0  0  0  0  0  0  0  0  0  0  # atno 17343 bound_to 10162
  156.6085  130.4373  149.5868 LP  0  0  0  0  0  0  0  0  0  0  0  0  # atno 17370 bound_to 10713
  156.2449  130.6873  151.1590 LP  0  0  0  0  0  0  0  0  0  0  0  0  # atno 17371 bound_to 10713
  139.9417  135.0190  156.8727 LP  0  0  0  0  0  0  0  0  0  0  0  0  # atno 17394 bound_to 11000
  140.5904  134.0267  155.7497 LP  0  0  0  0  0  0  0  0  0  0  0  0  # atno 17395 bound_to 11000

$$$$
