AV-unprocessed.smi:1419|AV-procd|sdf|5777|dock10
  -GOLD-   22720 5423D 1   1.00000     0.00000
 Structure written by MMmdl.
 42 43  0  0  0  0  0  0  0  0  2 V2000
  152.9497  140.7413  160.1066 C   0  0  0  0  0  0  0  0  0  0  0  0
  152.2263  141.0976  158.7980 C   0  0  1  0  0  0  0  0  0  0  0  0
  152.6790  142.4509  158.2076 C   0  0  0  0  0  0  0  0  0  0  0  0
  151.8923  143.5821  158.7062 N   0  0  0  0  0  0  0  0  0  0  0  0
  152.1163  144.3224  159.8388 C   0  0  0  0  0  0  0  0  0  0  0  0
  151.1268  145.2703  159.8875 C   0  0  0  0  0  0  0  0  0  0  0  0
  150.3432  145.0702  158.7825 N   0  3  0  0  0  0  0  0  0  0  0  0
  150.8120  144.0446  158.0642 C   0  0  0  0  0  0  0  0  0  0  0  0
  152.4387  140.0290  157.8267 N   0  0  0  0  0  0  0  0  0  0  0  0
  151.9391  138.7840  157.9136 C   0  0  0  0  0  0  0  0  0  0  0  0
  151.2485  138.4213  158.8669 O   0  0  0  0  0  0  0  0  0  0  0  0
  152.2632  137.9709  156.8780 N   0  0  0  0  0  0  0  0  0  0  0  0
  152.8144  138.3759  155.5775 C   0  0  0  0  0  0  0  0  0  0  0  0
  151.7316  138.1915  154.4938 C   0  0  2  0  0  0  0  0  0  0  0  0
  150.5757  139.2041  154.5861 C   0  0  0  0  0  0  0  0  0  0  0  0
  151.2497  136.8439  154.5178 O   0  0  0  0  0  0  0  0  0  0  0  0
  150.7865  136.3710  155.7857 C   0  0  1  0  0  0  0  0  0  0  0  0
  150.3816  134.9021  155.6233 C   0  0  0  0  0  0  0  0  0  0  0  0
  151.8947  136.5546  156.8411 C   0  0  0  0  0  0  0  0  0  0  0  0
  152.7410  141.4698  160.8901 H   0  0  0  0  0  0  0  0  0  0  0  0
  154.0303  140.7041  159.9648 H   0  0  0  0  0  0  0  0  0  0  0  0
  152.6297  139.7672  160.4784 H   0  0  0  0  0  0  0  0  0  0  0  0
  151.1586  141.1506  159.0200 H   0  0  0  0  0  0  0  0  0  0  0  0
  153.7271  142.6412  158.4433 H   0  0  0  0  0  0  0  0  0  0  0  0
  152.5967  142.4500  157.1195 H   0  0  0  0  0  0  0  0  0  0  0  0
  152.9400  144.1232  160.5092 H   0  0  0  0  0  0  0  0  0  0  0  0
  150.9272  146.0521  160.6061 H   0  0  0  0  0  0  0  0  0  0  0  0
  150.3988  143.6637  157.1469 H   0  0  0  0  0  0  0  0  0  0  0  0
  153.0046  140.2520  157.0205 H   0  0  0  0  0  0  0  0  0  0  0  0
  153.1985  139.3957  155.5519 H   0  0  0  0  0  0  0  0  0  0  0  0
  153.6723  137.7419  155.3485 H   0  0  0  0  0  0  0  0  0  0  0  0
  152.2037  138.3318  153.5211 H   0  0  0  0  0  0  0  0  0  0  0  0
  150.9468  140.2240  154.4846 H   0  0  0  0  0  0  0  0  0  0  0  0
  150.0436  139.1451  155.5350 H   0  0  0  0  0  0  0  0  0  0  0  0
  149.8508  139.0363  153.7893 H   0  0  0  0  0  0  0  0  0  0  0  0
  149.9021  136.9354  156.0831 H   0  0  0  0  0  0  0  0  0  0  0  0
  150.0072  134.4915  156.5612 H   0  0  0  0  0  0  0  0  0  0  0  0
  151.2273  134.2920  155.3046 H   0  0  0  0  0  0  0  0  0  0  0  0
  149.5942  134.7958  154.8767 H   0  0  0  0  0  0  0  0  0  0  0  0
  152.7704  135.9575  156.5821 H   0  0  0  0  0  0  0  0  0  0  0  0
  151.5560  136.1835  157.8094 H   0  0  0  0  0  0  0  0  0  0  0  0
  149.5272  145.6184  158.5404 H   0  0  0  0  0  0  0  0  0  0  0  0
  1  2  1  0  0  0  0
  1 20  1  0  0  0  0
  1 21  1  0  0  0  0
  1 22  1  0  0  0  0
  2  3  1  0  0  0  0
  2  9  1  0  0  0  0
  2 23  1  0  0  0  0
  3  4  1  0  0  0  0
  3 24  1  0  0  0  0
  3 25  1  0  0  0  0
  4  8  1  0  0  0  0
  4  5  1  0  0  0  0
  5  6  2  0  0  0  0
  5 26  1  0  0  0  0
  6  7  1  0  0  0  0
  6 27  1  0  0  0  0
  7  8  2  0  0  0  0
  7 42  1  0  0  0  0
  8 28  1  0  0  0  0
  9 10  1  0  0  0  0
  9 29  1  0  0  0  0
 10 11  2  0  0  0  0
 10 12  1  0  0  0  0
 12 19  1  0  0  0  0
 12 13  1  0  0  0  0
 13 14  1  0  0  0  0
 13 30  1  0  0  0  0
 13 31  1  0  0  0  0
 14 15  1  0  0  0  0
 14 16  1  0  0  0  0
 14 32  1  0  0  0  0
 15 33  1  0  0  0  0
 15 34  1  0  0  0  0
 15 35  1  0  0  0  0
 16 17  1  0  0  0  0
 17 18  1  0  0  0  0
 17 19  1  0  0  0  0
 17 36  1  0  0  0  0
 18 37  1  0  0  0  0
 18 38  1  0  0  0  0
 18 39  1  0  0  0  0
 19 40  1  0  0  0  0
 19 41  1  0  0  0  0
M  CHG  1   7   1
M  END
> <s_m_source_file>
AV-unprocessed.smi

> <i_m_source_file_index>
1419

> <i_lp_mmshare_version>
43012

> <i_f3d_flags>
0

> <s_epik_input>
W2NIXTFuW2NIXVtjSF1uMVtDSDJdW0NAQEhdKFtDSDNdKVtOSF1DKD1PKU4yW0NIMl1bQ0BASF0oW0NIM10pT1tDQEBIXShbQ0gzXSlbQ0gyXTI=

> <s_epik_cmdline>
J2VwaWtfcHl0aG9uJywgJy1waCcsICc3LjAnLCAnLXRuJywgJzgnLCAnLW1hJywgJzIwMCcsICctbWV0YWxfYmluZGluZycsICctaW1hZScsICc8aW5maWxlLm1hZT4nLCAnLW9tYWUnLCAnPG91dGZpbGUubWFlPic=

> <r_lp_tautomer_probability>
1

> <r_epik_Ionization_Penalty>
0.253607

> <r_epik_Ionization_Penalty_Charging>
0

> <r_epik_Ionization_Penalty_Neutral>
0.253607

> <r_epik_State_Penalty>
0.245018

> <r_epik_Charging_Adjusted_Penalty>
0.245018

> <i_epik_Tot_Q>
1

> <i_epik_Tot_abs_Q>
1

> <r_epik_Metal_State_Penalty>
0.535379

> <b_epik_Metal_Only>
0

> <s_lp_Force_Field>
OPLS_2005

> <r_lp_Energy>
32.5002

> <b_lp_Chiralities_Consistent>
1

> <s_lp_Variant>
AV-unprocessed.smi:1419-4

> <Gold.Version>
5.8.1

> <Gold.Id.Protein>
6NUR|6NUR_protein|mol2

> <Gold.PLP.Fitness>
43.1338

> <Gold.PLP.PLP>
-33.1004

> <Gold.PLP.part.hbond>
-2.0000

> <Gold.PLP.part.metal>
0.0000

> <Gold.PLP.part.buried>
-4.8609

> <Gold.PLP.part.nonpolar>
-27.5563

> <Gold.PLP.part.repulsive>
0.4867

> <Gold.PLP.ligand.clash>
0.0000

> <Gold.PLP.ligand.torsion>
0.9130

> <Gold.PLP.Chemscore.Hbond>
3.0000

> <Gold.PLP.Chemscore.CHOScore>
0.9376

> <Gold.PLP.Chemscore.Metal>
0.0000

> <Gold.Chemscore.Hbonds>
donor molecule, donor type, donor heavy atom, donor atom, acceptor molecule, acceptor atom, score
      L1  H     7    42       P1  8029  1.74
      P1  H 10752 10764       L1    16  0.84
      L1  C     8    28       P1  8028  0.95

> <Gold.PLP.Chemscore.Internal.Correction>
0.0466

> <Gold.Rescore>
     Score         DG    S(hbond)    S(metal)    S(lipo)     H(rot)  DE(clash)    DE(int)     intcor
     15.27     -16.43       1.55        0.00      84.82       1.63       0.15       1.01       ----

> <Gold.Chemscore.Fitness>
15.2707

> <Gold.Chemscore.DG>
-16.4296

> <Gold.Chemscore.ZeroCoef>
-5.4800

> <Gold.Chemscore.Hbond>
1.5545

> <Gold.Chemscore.Metal>
0.0000

> <Gold.Chemscore.Lipo>
84.8166

> <Gold.Chemscore.Internal_Hbond>
0.0000

> <Gold.Chemscore.DEClash>
0.1514

> <Gold.Chemscore.DEInternal>
1.0075

> <Gold.Chemscore.Rot>
1.6273

> <Gold.Chemscore.Internal.Correction>
   9.000000E+99

> <Gold.Chemscore.Hbonds>
donor molecule, donor type, donor heavy atom, donor atom, acceptor molecule, acceptor atom, score
      L1  H     7    42       P1  8029  0.72
      P1  H 10752 10764       L1    16  0.15

> <Gold.Chemscore.Hbond.Weighted>
-5.1919

> <Gold.Chemscore.Metal.Weighted>
-0.0000

> <Gold.Chemscore.Lipo.Weighted>
-9.9235

> <Gold.Chemscore.Internal_Hbond.Weighted>
0.0000

> <Gold.Chemscore.DEClash.Weighted>
0.1514

> <Gold.Chemscore.DEInternal.Weighted>
1.0075

> <Gold.Chemscore.Rot.Weighted>
4.1658

> <Gold.Chemscore.Internal.Correction.Weighted>
   9.000000E+99

> <Gold.Protein.RotatedTorsions>
[ 6907 6896 6895 6894 ] final   35.92 input  -60.11 | X-H torsion
[ 7974 7965 7964 7962 ] final  141.52 input  175.53 | X-H torsion
[ 8008 7997 7996 7995 ] final  -40.80 input   59.86 | X-H torsion
[ 10167 10162 10161 10158 ] final   44.24 input  -65.29 | X-H torsion
[ 10718 10713 10712 10709 ] final -161.22 input   66.30 | X-H torsion
[ 10763 10752 10751 10750 ] final  -83.93 input  -60.55 | X-H torsion
[ 11005 11000 10999 10996 ] final  -92.73 input  -57.11 | X-H torsion

> <Gold.Protein.ActiveResidues>
 VAL166  LYS551  ARG553  GLY616  TRP617  ASP618  TYR619  PRO620  LYS621  CYS622 
 ASP623  PHE694  ASN695  SER759  ASP760  ASP761  ALA762  ILE779  LEU786  VAL792 
 PHE793  MET794  SER795  GLU796  ALA797  LYS798  CYS799  TRP800  GLU811  SER814 

> <Gold.Protein.RotatedAtoms>
  152.1227  134.9194  160.0562 H   0  0  0  0  0  0  0  0  0  0  0  0  # atno 6907 bound_to 6896
  152.0328  133.3940  159.4313 H   0  0  0  0  0  0  0  0  0  0  0  0  # atno 6908 bound_to 6896
  150.6850  134.3422  159.4916 H   0  0  0  0  0  0  0  0  0  0  0  0  # atno 6909 bound_to 6896
  144.9089  139.5319  143.5718 H   0  0  0  0  0  0  0  0  0  0  0  0  # atno 7974 bound_to 7965
  154.4009  140.1516  156.3086 H   0  0  0  0  0  0  0  0  0  0  0  0  # atno 8008 bound_to 7997
  155.8636  140.3452  155.5751 H   0  0  0  0  0  0  0  0  0  0  0  0  # atno 8009 bound_to 7997
  155.7852  140.0849  157.2028 H   0  0  0  0  0  0  0  0  0  0  0  0  # atno 8010 bound_to 7997
  140.3363  144.2526  150.6161 H   0  0  0  0  0  0  0  0  0  0  0  0  # atno 10167 bound_to 10162
  156.5932  130.8779  151.2895 H   0  0  0  0  0  0  0  0  0  0  0  0  # atno 10718 bound_to 10713
  154.5935  135.5538  153.7302 H   0  0  0  0  0  0  0  0  0  0  0  0  # atno 10763 bound_to 10752
  153.0126  135.6349  154.1815 H   0  0  0  0  0  0  0  0  0  0  0  0  # atno 10764 bound_to 10752
  154.1756  135.2890  155.3048 H   0  0  0  0  0  0  0  0  0  0  0  0  # atno 10765 bound_to 10752
  141.1515  133.7840  157.0061 H   0  0  0  0  0  0  0  0  0  0  0  0  # atno 11005 bound_to 11000
  146.3148  139.7880  142.8992 LP  0  0  0  0  0  0  0  0  0  0  0  0  # atno 17320 bound_to 7965
  145.3487  141.0303  143.3351 LP  0  0  0  0  0  0  0  0  0  0  0  0  # atno 17321 bound_to 7965
  140.5351  143.2235  151.8176 LP  0  0  0  0  0  0  0  0  0  0  0  0  # atno 17342 bound_to 10162
  139.4848  144.4672  151.9470 LP  0  0  0  0  0  0  0  0  0  0  0  0  # atno 17343 bound_to 10162
  157.7298  130.9676  150.1805 LP  0  0  0  0  0  0  0  0  0  0  0  0  # atno 17370 bound_to 10713
  156.2532  130.3702  149.8210 LP  0  0  0  0  0  0  0  0  0  0  0  0  # atno 17371 bound_to 10713
  140.0908  134.9593  157.1773 LP  0  0  0  0  0  0  0  0  0  0  0  0  # atno 17394 bound_to 11000
  140.3448  134.2664  155.7206 LP  0  0  0  0  0  0  0  0  0  0  0  0  # atno 17395 bound_to 11000

$$$$
