AV-unprocessed.smi:67|AV-procd|sdf|632|dock10
  -GOLD-   2262016523D 1   1.00000     0.00000
 Structure written by MMmdl.
 49 51  0  0  0  0  0  0  0  0  3 V2000
  146.6292  135.6948  152.3745 O   0  0  0  0  0  0  0  0  0  0  0  0
  146.0593  136.5000  153.3911 C   0  0  2  0  0  0  0  0  0  0  0  0
  146.9513  136.4393  154.6521 C   0  0  0  0  0  0  0  0  0  0  0  0
  148.2315  137.1770  154.4756 N   0  3  2  0  0  0  0  0  0  0  0  0
  149.3607  136.5688  155.2248 C   0  0  0  0  0  0  0  0  0  0  0  0
  150.6898  137.2719  154.8972 C   0  0  0  0  0  0  0  0  0  0  0  0
  150.6177  138.7838  155.1632 C   0  0  2  0  0  0  0  0  0  0  0  0
  150.4902  138.9681  156.5719 O   0  0  0  0  0  0  0  0  0  0  0  0
  150.8367  140.1746  157.1457 C   0  0  0  0  0  0  0  0  0  0  0  0
  150.3337  141.3356  156.5247 C   0  0  0  0  0  0  0  0  0  0  0  0
  150.6286  142.6127  157.0371 C   0  0  0  0  0  0  0  0  0  0  0  0
  151.4351  142.7436  158.1821 C   0  0  0  0  0  0  0  0  0  0  0  0
  151.9501  141.5948  158.8195 C   0  0  0  0  0  0  0  0  0  0  0  0
  152.8230  141.7081  160.0604 C   0  0  0  0  0  0  0  0  0  0  0  0
  152.1690  142.3780  161.0094 F   0  0  0  0  0  0  0  0  0  0  0  0
  153.1593  140.5123  160.5452 F   0  0  0  0  0  0  0  0  0  0  0  0
  153.9373  142.3729  159.7563 F   0  0  0  0  0  0  0  0  0  0  0  0
  151.6454  140.3176  158.3016 C   0  0  0  0  0  0  0  0  0  0  0  0
  149.4099  139.3756  154.4079 C   0  0  0  0  0  0  0  0  0  0  0  0
  148.1088  138.6318  154.7535 C   0  0  0  0  0  0  0  0  0  0  0  0
  144.6044  136.0813  153.6283 C   0  0  0  0  0  0  0  0  0  0  0  0
  143.8320  136.7618  152.4961 C   0  0  0  0  0  0  0  0  0  0  0  0
  144.5931  137.9781  152.1516 N   0  3  0  0  0  0  0  0  0  0  0  0
  145.9049  137.9239  152.8291 C   0  0  0  0  0  0  0  0  0  0  0  0
  147.5672  135.8161  152.3761 H   0  0  0  0  0  0  0  0  0  0  0  0
  146.4117  136.8121  155.5245 H   0  0  0  0  0  0  0  0  0  0  0  0
  147.1619  135.3914  154.8716 H   0  0  0  0  0  0  0  0  0  0  0  0
  149.1584  136.6184  156.2960 H   0  0  0  0  0  0  0  0  0  0  0  0
  149.4447  135.5127  154.9653 H   0  0  0  0  0  0  0  0  0  0  0  0
  151.4996  136.8293  155.4785 H   0  0  0  0  0  0  0  0  0  0  0  0
  150.9379  137.1008  153.8488 H   0  0  0  0  0  0  0  0  0  0  0  0
  151.5505  139.2207  154.8057 H   0  0  0  0  0  0  0  0  0  0  0  0
  149.7130  141.2467  155.6450 H   0  0  0  0  0  0  0  0  0  0  0  0
  150.2348  143.4933  156.5513 H   0  0  0  0  0  0  0  0  0  0  0  0
  151.6513  143.7300  158.5643 H   0  0  0  0  0  0  0  0  0  0  0  0
  152.0516  139.4600  158.8147 H   0  0  0  0  0  0  0  0  0  0  0  0
  149.2930  140.4370  154.6243 H   0  0  0  0  0  0  0  0  0  0  0  0
  149.5884  139.3060  153.3341 H   0  0  0  0  0  0  0  0  0  0  0  0
  147.2898  139.0546  154.1717 H   0  0  0  0  0  0  0  0  0  0  0  0
  147.8584  138.7845  155.8047 H   0  0  0  0  0  0  0  0  0  0  0  0
  144.4616  134.9999  153.6469 H   0  0  0  0  0  0  0  0  0  0  0  0
  144.2573  136.4747  154.5851 H   0  0  0  0  0  0  0  0  0  0  0  0
  143.8039  136.1148  151.6184 H   0  0  0  0  0  0  0  0  0  0  0  0
  142.8042  136.9973  152.7734 H   0  0  0  0  0  0  0  0  0  0  0  0
  144.7235  138.0134  151.1503 H   0  0  0  0  0  0  0  0  0  0  0  0
  145.8771  138.6511  153.6415 H   0  0  0  0  0  0  0  0  0  0  0  0
  146.7160  138.2154  152.1604 H   0  0  0  0  0  0  0  0  0  0  0  0
  144.0912  138.8005  152.4555 H   0  0  0  0  0  0  0  0  0  0  0  0
  148.4700  137.0907  153.4978 H   0  0  0  0  0  0  0  0  0  0  0  0
  1  2  1  0  0  0  0
  1 25  1  0  0  0  0
  2 24  1  0  0  0  0
  2  3  1  0  0  0  0
  2 21  1  0  0  0  0
  3  4  1  0  0  0  0
  3 26  1  0  0  0  0
  3 27  1  0  0  0  0
  4 20  1  0  0  0  0
  4  5  1  0  0  0  0
  4 49  1  0  0  0  0
  5  6  1  0  0  0  0
  5 28  1  0  0  0  0
  5 29  1  0  0  0  0
  6  7  1  0  0  0  0
  6 30  1  0  0  0  0
  6 31  1  0  0  0  0
  7  8  1  0  0  0  0
  7 19  1  0  0  0  0
  7 32  1  0  0  0  0
  8  9  1  0  0  0  0
  9 18  1  0  0  0  0
  9 10  2  0  0  0  0
 10 11  1  0  0  0  0
 10 33  1  0  0  0  0
 11 12  2  0  0  0  0
 11 34  1  0  0  0  0
 12 13  1  0  0  0  0
 12 35  1  0  0  0  0
 13 14  1  0  0  0  0
 13 18  2  0  0  0  0
 14 15  1  0  0  0  0
 14 16  1  0  0  0  0
 14 17  1  0  0  0  0
 18 36  1  0  0  0  0
 19 20  1  0  0  0  0
 19 37  1  0  0  0  0
 19 38  1  0  0  0  0
 20 39  1  0  0  0  0
 20 40  1  0  0  0  0
 21 22  1  0  0  0  0
 21 41  1  0  0  0  0
 21 42  1  0  0  0  0
 22 23  1  0  0  0  0
 22 43  1  0  0  0  0
 22 44  1  0  0  0  0
 23 24  1  0  0  0  0
 23 45  1  0  0  0  0
 23 48  1  0  0  0  0
 24 46  1  0  0  0  0
 24 47  1  0  0  0  0
M  CHG  1   4   1
M  CHG  1  23   1
M  END
> <s_m_source_file>
AV-unprocessed.smi

> <i_m_source_file_index>
67

> <i_lp_mmshare_version>
43012

> <i_f3d_flags>
0

> <s_epik_input>
W0NIMl0xW05IXVtDSDJdW0NIMl1bQ0BAXTEoW09IXSlbQ0gyXU4yW0NIMl1bQ0gyXVtDSF0oW0NIMl1bQ0gyXTIpT2MzW2NIXVtjSF1bY0hdYyhDKEYpKEYpRilbY0hdMw==

> <s_epik_cmdline>
J2VwaWtfcHl0aG9uJywgJy1waCcsICc3LjAnLCAnLXRuJywgJzgnLCAnLW1hJywgJzIwMCcsICctbWV0YWxfYmluZGluZycsICctaW1hZScsICc8aW5maWxlLm1hZT4nLCAnLW9tYWUnLCAnPG91dGZpbGUubWFlPic=

> <r_lp_tautomer_probability>
1

> <r_epik_Ionization_Penalty>
0.0989853

> <r_epik_Ionization_Penalty_Charging>
0.0989662

> <r_epik_Ionization_Penalty_Neutral>
1.91014e-05

> <r_epik_State_Penalty>
0.0852826

> <r_epik_Charging_Adjusted_Penalty>
0.184249

> <i_epik_Tot_Q>
2

> <i_epik_Tot_abs_Q>
2

> <r_epik_Metal_State_Penalty>
0.0849414

> <b_epik_Metal_Only>
0

> <s_lp_Force_Field>
OPLS_2005

> <r_lp_Energy>
57.0803

> <b_lp_Chiralities_Consistent>
1

> <s_lp_Variant>
AV-unprocessed.smi:67-4

> <Gold.Version>
5.8.1

> <Gold.Id.Protein>
6NUR|6NUR_protein|mol2

> <Gold.PLP.Fitness>
54.3237

> <Gold.PLP.PLP>
-39.3193

> <Gold.PLP.part.hbond>
-3.6447

> <Gold.PLP.part.metal>
0.0000

> <Gold.PLP.part.buried>
-5.6349

> <Gold.PLP.part.nonpolar>
-31.1582

> <Gold.PLP.part.repulsive>
0.0265

> <Gold.PLP.ligand.clash>
1.3172

> <Gold.PLP.ligand.torsion>
0.8442

> <Gold.PLP.Chemscore.Hbond>
5.8960

> <Gold.PLP.Chemscore.CHOScore>
0.0000

> <Gold.PLP.Chemscore.Metal>
0.0000

> <Gold.Chemscore.Hbonds>
donor molecule, donor type, donor heavy atom, donor atom, acceptor molecule, acceptor atom, score
      L1  H     1    25       P1  7948  0.98
      L1  H     4    49       P1  7948  2.00
      L1  H    23    45       P1 10171  0.74
      L1  H    23    48       P1 10175  2.00

> <Gold.PLP.Chemscore.Internal.Correction>
0.3219

> <Gold.Rescore>
     Score         DG    S(hbond)    S(metal)    S(lipo)     H(rot)  DE(clash)    DE(int)     intcor
     21.48     -23.08       3.70        0.00      93.69       2.24       0.84       0.77       ----

> <Gold.Chemscore.Fitness>
21.4779

> <Gold.Chemscore.DG>
-23.0803

> <Gold.Chemscore.ZeroCoef>
-5.4800

> <Gold.Chemscore.Hbond>
3.7008

> <Gold.Chemscore.Metal>
0.0000

> <Gold.Chemscore.Lipo>
93.6900

> <Gold.Chemscore.Internal_Hbond>
0.0000

> <Gold.Chemscore.DEClash>
0.8361

> <Gold.Chemscore.DEInternal>
0.7663

> <Gold.Chemscore.Rot>
2.2352

> <Gold.Chemscore.Internal.Correction>
   9.000000E+99

> <Gold.Chemscore.Hbonds>
donor molecule, donor type, donor heavy atom, donor atom, acceptor molecule, acceptor atom, score
      L1  H     1    25       P1  7948  0.90
      L1  H     4    49       P1  7948  0.99
      L1  H    23    45       P1 10171  0.74
      L1  H    23    48       P1 10175  0.98

> <Gold.Chemscore.Hbond.Weighted>
-12.3607

> <Gold.Chemscore.Metal.Weighted>
-0.0000

> <Gold.Chemscore.Lipo.Weighted>
-10.9617

> <Gold.Chemscore.Internal_Hbond.Weighted>
0.0000

> <Gold.Chemscore.DEClash.Weighted>
0.8361

> <Gold.Chemscore.DEInternal.Weighted>
0.7663

> <Gold.Chemscore.Rot.Weighted>
5.7221

> <Gold.Chemscore.Internal.Correction.Weighted>
   9.000000E+99

> <Gold.Protein.RotatedTorsions>
[ 6907 6896 6895 6894 ] final  -31.46 input  -60.11 | X-H torsion
[ 7974 7965 7964 7962 ] final   69.94 input  175.53 | X-H torsion
[ 8008 7997 7996 7995 ] final  -19.76 input   59.86 | X-H torsion
[ 10167 10162 10161 10158 ] final  -31.53 input  -65.29 | X-H torsion
[ 10718 10713 10712 10709 ] final  140.69 input   66.30 | X-H torsion
[ 10763 10752 10751 10750 ] final -174.63 input  -60.55 | X-H torsion
[ 11005 11000 10999 10996 ] final  -41.65 input  -57.11 | X-H torsion

> <Gold.Protein.ActiveResidues>
 VAL166  LYS551  ARG553  GLY616  TRP617  ASP618  TYR619  PRO620  LYS621  CYS622 
 ASP623  PHE694  ASN695  SER759  ASP760  ASP761  ALA762  ILE779  LEU786  VAL792 
 PHE793  MET794  SER795  GLU796  ALA797  LYS798  CYS799  TRP800  GLU811  SER814 

> <Gold.Protein.RotatedAtoms>
  151.0917  134.9920  159.8405 H   0  0  0  0  0  0  0  0  0  0  0  0  # atno 6907 bound_to 6896
  152.5429  134.2057  159.8740 H   0  0  0  0  0  0  0  0  0  0  0  0  # atno 6908 bound_to 6896
  151.2094  133.4521  159.2631 H   0  0  0  0  0  0  0  0  0  0  0  0  # atno 6909 bound_to 6896
  145.7843  139.2902  143.1247 H   0  0  0  0  0  0  0  0  0  0  0  0  # atno 7974 bound_to 7965
  154.4815  140.2080  155.9753 H   0  0  0  0  0  0  0  0  0  0  0  0  # atno 8008 bound_to 7997
  156.1172  140.3219  155.8125 H   0  0  0  0  0  0  0  0  0  0  0  0  # atno 8009 bound_to 7997
  155.4532  140.0518  157.2989 H   0  0  0  0  0  0  0  0  0  0  0  0  # atno 8010 bound_to 7997
  140.7235  143.3764  151.1682 H   0  0  0  0  0  0  0  0  0  0  0  0  # atno 10167 bound_to 10162
  157.4004  131.1016  151.0557 H   0  0  0  0  0  0  0  0  0  0  0  0  # atno 10718 bound_to 10713
  154.5939  135.2848  155.0606 H   0  0  0  0  0  0  0  0  0  0  0  0  # atno 10763 bound_to 10752
  154.1896  135.6443  153.5060 H   0  0  0  0  0  0  0  0  0  0  0  0  # atno 10764 bound_to 10752
  153.0131  135.5443  154.6635 H   0  0  0  0  0  0  0  0  0  0  0  0  # atno 10765 bound_to 10752
  141.0261  133.6841  156.2487 H   0  0  0  0  0  0  0  0  0  0  0  0  # atno 11005 bound_to 11000
  146.0042  140.8493  143.0003 LP  0  0  0  0  0  0  0  0  0  0  0  0  # atno 17320 bound_to 7965
  144.6791  140.2396  143.7345 LP  0  0  0  0  0  0  0  0  0  0  0  0  # atno 17321 bound_to 7965
  139.7345  143.9021  152.3030 LP  0  0  0  0  0  0  0  0  0  0  0  0  # atno 17342 bound_to 10162
  139.8821  144.7012  150.8866 LP  0  0  0  0  0  0  0  0  0  0  0  0  # atno 17343 bound_to 10162
  157.1558  130.6204  149.5596 LP  0  0  0  0  0  0  0  0  0  0  0  0  # atno 17370 bound_to 10713
  155.9822  130.4833  150.6866 LP  0  0  0  0  0  0  0  0  0  0  0  0  # atno 17371 bound_to 10713
  140.6489  134.5088  157.5576 LP  0  0  0  0  0  0  0  0  0  0  0  0  # atno 17394 bound_to 11000
  139.9177  134.8213  156.1313 LP  0  0  0  0  0  0  0  0  0  0  0  0  # atno 17395 bound_to 11000

$$$$
