AV-unprocessed.smi:3251|AV-procd|sdf|12437|dock7
  -GOLD-   2272018323D 1   1.00000     0.00000
 Structure written by MMmdl.
 40 41  0  0  0  0  0  0  0  0  1 V2000
  153.1598  142.7954  163.2467 C   0  0  0  0  0  0  0  0  0  0  0  0
  152.9323  142.7625  161.7633 C   0  0  0  0  0  0  0  0  0  0  0  0
  153.2539  141.7164  160.8524 C   0  0  0  0  0  0  0  0  0  0  0  0
  152.9154  141.9978  159.6047 N   0  0  0  0  0  0  0  0  0  0  0  0
  152.3658  143.2287  159.6747 N   0  0  0  0  0  0  0  0  0  0  0  0
  151.8484  143.8560  158.4719 C   0  0  0  0  0  0  0  0  0  0  0  0
  150.4672  143.3008  158.0904 C   0  0  0  0  0  0  0  0  0  0  0  0
  150.4909  142.8105  156.7153 N   0  0  0  0  0  0  0  0  0  0  0  0
  150.1689  141.3784  156.5980 C   0  0  2  0  0  0  0  0  0  0  0  0
  151.4067  140.5427  156.9587 C   0  0  0  0  0  0  0  0  0  0  0  0
  149.6731  140.9941  155.1852 C   0  0  0  0  0  0  0  0  0  0  0  0
  150.4083  140.3198  154.4612 O   0  0  0  0  0  0  0  0  0  0  0  0
  148.4539  141.4040  154.7732 N   0  0  0  0  0  0  0  0  0  0  0  0
  147.8525  141.1604  153.4624 C   0  0  0  0  0  0  0  0  0  0  0  0
  146.5989  142.0340  153.4099 C   0  0  0  0  0  0  0  0  0  0  0  0
  146.2129  142.2181  154.8703 C   0  0  0  0  0  0  0  0  0  0  0  0
  147.5478  142.1847  155.6141 C   0  0  0  0  0  0  0  0  0  0  0  0
  152.3636  143.7142  160.9652 C   0  0  0  0  0  0  0  0  0  0  0  0
  153.9520  142.1106  163.5498 H   0  0  0  0  0  0  0  0  0  0  0  0
  152.2617  142.5120  163.7956 H   0  0  0  0  0  0  0  0  0  0  0  0
  153.4467  143.7898  163.5891 H   0  0  0  0  0  0  0  0  0  0  0  0
  153.7197  140.7645  161.0609 H   0  0  0  0  0  0  0  0  0  0  0  0
  151.8090  144.9357  158.6221 H   0  0  0  0  0  0  0  0  0  0  0  0
  152.5562  143.6798  157.6607 H   0  0  0  0  0  0  0  0  0  0  0  0
  150.2010  142.4744  158.7500 H   0  0  0  0  0  0  0  0  0  0  0  0
  149.7148  144.0765  158.2366 H   0  0  0  0  0  0  0  0  0  0  0  0
  151.3804  143.0335  156.2925 H   0  0  0  0  0  0  0  0  0  0  0  0
  149.4018  141.1633  157.3413 H   0  0  0  0  0  0  0  0  0  0  0  0
  151.1956  139.4742  156.9011 H   0  0  0  0  0  0  0  0  0  0  0  0
  151.7378  140.7538  157.9758 H   0  0  0  0  0  0  0  0  0  0  0  0
  152.2418  140.7531  156.2888 H   0  0  0  0  0  0  0  0  0  0  0  0
  148.5312  141.4030  152.6438 H   0  0  0  0  0  0  0  0  0  0  0  0
  147.5827  140.1060  153.3853 H   0  0  0  0  0  0  0  0  0  0  0  0
  146.8463  143.0030  152.9742 H   0  0  0  0  0  0  0  0  0  0  0  0
  145.8005  141.5929  152.8127 H   0  0  0  0  0  0  0  0  0  0  0  0
  145.6518  143.1359  155.0484 H   0  0  0  0  0  0  0  0  0  0  0  0
  145.5938  141.3796  155.1924 H   0  0  0  0  0  0  0  0  0  0  0  0
  147.4352  141.7516  156.6094 H   0  0  0  0  0  0  0  0  0  0  0  0
  147.9489  143.1930  155.7265 H   0  0  0  0  0  0  0  0  0  0  0  0
  151.9535  144.6838  161.2071 H   0  0  0  0  0  0  0  0  0  0  0  0
  1  2  1  0  0  0  0
  1 19  1  0  0  0  0
  1 20  1  0  0  0  0
  1 21  1  0  0  0  0
  2 18  2  0  0  0  0
  2  3  1  0  0  0  0
  3  4  2  0  0  0  0
  3 22  1  0  0  0  0
  4  5  1  0  0  0  0
  5  6  1  0  0  0  0
  5 18  1  0  0  0  0
  6  7  1  0  0  0  0
  6 23  1  0  0  0  0
  6 24  1  0  0  0  0
  7  8  1  0  0  0  0
  7 25  1  0  0  0  0
  7 26  1  0  0  0  0
  8  9  1  0  0  0  0
  8 27  1  0  0  0  0
  9 10  1  0  0  0  0
  9 11  1  0  0  0  0
  9 28  1  0  0  0  0
 10 29  1  0  0  0  0
 10 30  1  0  0  0  0
 10 31  1  0  0  0  0
 11 12  2  0  0  0  0
 11 13  1  0  0  0  0
 13 17  1  0  0  0  0
 13 14  1  0  0  0  0
 14 15  1  0  0  0  0
 14 32  1  0  0  0  0
 14 33  1  0  0  0  0
 15 16  1  0  0  0  0
 15 34  1  0  0  0  0
 15 35  1  0  0  0  0
 16 17  1  0  0  0  0
 16 36  1  0  0  0  0
 16 37  1  0  0  0  0
 17 38  1  0  0  0  0
 17 39  1  0  0  0  0
 18 40  1  0  0  0  0
M  END
> <s_m_source_file>
AV-unprocessed.smi

> <i_m_source_file_index>
3251

> <i_lp_mmshare_version>
43012

> <i_f3d_flags>
0

> <s_epik_input>
W0NIM11jMVtjSF1ubihbY0hdMSlbQ0gyXVtDSDJdW05IXVtDQEhdKFtDSDNdKUMoPU8pTjJbQ0gyXVtDSDJdW0NIMl1bQ0gyXTI=

> <s_epik_cmdline>
J2VwaWtfcHl0aG9uJywgJy1waCcsICc3LjAnLCAnLXRuJywgJzgnLCAnLW1hJywgJzIwMCcsICctbWV0YWxfYmluZGluZycsICctaW1hZScsICc8aW5maWxlLm1hZT4nLCAnLW9tYWUnLCAnPG91dGZpbGUubWFlPic=

> <r_lp_tautomer_probability>
1

> <r_epik_Ionization_Penalty>
0.734676

> <r_epik_Ionization_Penalty_Charging>
0

> <r_epik_Ionization_Penalty_Neutral>
0.734676

> <r_epik_State_Penalty>
0.75825

> <r_epik_Charging_Adjusted_Penalty>
0.75825

> <i_epik_Tot_Q>
0

> <i_epik_Tot_abs_Q>
0

> <r_epik_Metal_State_Penalty>
0.756914

> <b_epik_Metal_Only>
0

> <s_lp_Force_Field>
OPLS_2005

> <r_lp_Energy>
32.0163

> <b_lp_Chiralities_Consistent>
1

> <s_lp_Variant>
AV-unprocessed.smi:3251-3

> <Gold.Version>
5.8.1

> <Gold.Id.Protein>
6NUR|6NUR_protein|mol2

> <Gold.PLP.Fitness>
45.5081

> <Gold.PLP.PLP>
-45.3901

> <Gold.PLP.part.hbond>
-2.0000

> <Gold.PLP.part.metal>
0.0000

> <Gold.PLP.part.buried>
-3.6525

> <Gold.PLP.part.nonpolar>
-39.0053

> <Gold.PLP.part.repulsive>
0.1110

> <Gold.PLP.ligand.clash>
0.0000

> <Gold.PLP.ligand.torsion>
1.4752

> <Gold.PLP.Chemscore.Hbond>
1.0000

> <Gold.PLP.Chemscore.CHOScore>
0.0000

> <Gold.PLP.Chemscore.Metal>
0.0000

> <Gold.Chemscore.Hbonds>
donor molecule, donor type, donor heavy atom, donor atom, acceptor molecule, acceptor atom, score
      P1  H  7989  7998       L1    12  1.00

> <Gold.PLP.Chemscore.Internal.Correction>
0.0684

> <Gold.Rescore>
     Score         DG    S(hbond)    S(metal)    S(lipo)     H(rot)  DE(clash)    DE(int)     intcor
     14.97     -16.51       0.98        0.00     103.48       1.70       0.13       1.41       ----

> <Gold.Chemscore.Fitness>
14.9671

> <Gold.Chemscore.DG>
-16.5051

> <Gold.Chemscore.ZeroCoef>
-5.4800

> <Gold.Chemscore.Hbond>
0.9752

> <Gold.Chemscore.Metal>
0.0000

> <Gold.Chemscore.Lipo>
103.4816

> <Gold.Chemscore.Internal_Hbond>
0.0000

> <Gold.Chemscore.DEClash>
0.1277

> <Gold.Chemscore.DEInternal>
1.4104

> <Gold.Chemscore.Rot>
1.6951

> <Gold.Chemscore.Internal.Correction>
   9.000000E+99

> <Gold.Chemscore.Hbonds>
donor molecule, donor type, donor heavy atom, donor atom, acceptor molecule, acceptor atom, score
      P1  H  7989  7998       L1    12  0.97

> <Gold.Chemscore.Hbond.Weighted>
-3.2573

> <Gold.Chemscore.Metal.Weighted>
-0.0000

> <Gold.Chemscore.Lipo.Weighted>
-12.1073

> <Gold.Chemscore.Internal_Hbond.Weighted>
0.0000

> <Gold.Chemscore.DEClash.Weighted>
0.1277

> <Gold.Chemscore.DEInternal.Weighted>
1.4104

> <Gold.Chemscore.Rot.Weighted>
4.3395

> <Gold.Chemscore.Internal.Correction.Weighted>
   9.000000E+99

> <Gold.Protein.RotatedTorsions>
[ 6907 6896 6895 6894 ] final  -82.12 input  -60.11 | X-H torsion
[ 7974 7965 7964 7962 ] final  -86.61 input  175.53 | X-H torsion
[ 8008 7997 7996 7995 ] final  -41.51 input   59.86 | X-H torsion
[ 10167 10162 10161 10158 ] final -128.83 input  -65.29 | X-H torsion
[ 10718 10713 10712 10709 ] final -144.55 input   66.30 | X-H torsion
[ 10763 10752 10751 10750 ] final   44.42 input  -60.55 | X-H torsion
[ 11005 11000 10999 10996 ] final   93.35 input  -57.11 | X-H torsion

> <Gold.Protein.ActiveResidues>
 VAL166  LYS551  ARG553  GLY616  TRP617  ASP618  TYR619  PRO620  LYS621  CYS622 
 ASP623  PHE694  ASN695  SER759  ASP760  ASP761  ALA762  ILE779  LEU786  VAL792 
 PHE793  MET794  SER795  GLU796  ALA797  LYS798  CYS799  TRP800  GLU811  SER814 

> <Gold.Protein.RotatedAtoms>
  150.6902  134.3713  159.4993 H   0  0  0  0  0  0  0  0  0  0  0  0  # atno 6907 bound_to 6896
  152.1528  134.8972  160.0556 H   0  0  0  0  0  0  0  0  0  0  0  0  # atno 6908 bound_to 6896
  152.0063  133.3809  159.4238 H   0  0  0  0  0  0  0  0  0  0  0  0  # atno 6909 bound_to 6896
  145.4776  140.9558  143.1882 H   0  0  0  0  0  0  0  0  0  0  0  0  # atno 7974 bound_to 7965
  154.4004  140.1497  156.3203 H   0  0  0  0  0  0  0  0  0  0  0  0  # atno 8008 bound_to 7997
  155.8536  140.3456  155.5688 H   0  0  0  0  0  0  0  0  0  0  0  0  # atno 8009 bound_to 7997
  155.7957  140.0863  157.1975 H   0  0  0  0  0  0  0  0  0  0  0  0  # atno 8010 bound_to 7997
  139.9461  143.6108  152.2489 H   0  0  0  0  0  0  0  0  0  0  0  0  # atno 10167 bound_to 10162
  156.3714  130.7790  151.1971 H   0  0  0  0  0  0  0  0  0  0  0  0  # atno 10718 bound_to 10713
  152.9841  135.6071  154.3271 H   0  0  0  0  0  0  0  0  0  0  0  0  # atno 10763 bound_to 10752
  154.2977  135.2773  155.2627 H   0  0  0  0  0  0  0  0  0  0  0  0  # atno 10764 bound_to 10752
  154.4894  135.5896  153.6504 H   0  0  0  0  0  0  0  0  0  0  0  0  # atno 10765 bound_to 10752
  139.8811  134.8785  156.3705 H   0  0  0  0  0  0  0  0  0  0  0  0  # atno 11005 bound_to 11000
  144.7908  139.6332  143.7114 LP  0  0  0  0  0  0  0  0  0  0  0  0  # atno 17320 bound_to 7965
  146.2360  139.5906  142.9523 LP  0  0  0  0  0  0  0  0  0  0  0  0  # atno 17321 bound_to 7965
  139.6665  144.7662  151.1863 LP  0  0  0  0  0  0  0  0  0  0  0  0  # atno 17342 bound_to 10162
  140.7597  143.5929  150.8777 LP  0  0  0  0  0  0  0  0  0  0  0  0  # atno 17343 bound_to 10162
  157.7484  131.0371  150.4440 LP  0  0  0  0  0  0  0  0  0  0  0  0  # atno 17370 bound_to 10713
  156.4667  130.4044  149.6543 LP  0  0  0  0  0  0  0  0  0  0  0  0  # atno 17371 bound_to 10713
  140.9468  133.7478  156.0218 LP  0  0  0  0  0  0  0  0  0  0  0  0  # atno 17394 bound_to 11000
  140.8154  134.3351  157.5399 LP  0  0  0  0  0  0  0  0  0  0  0  0  # atno 17395 bound_to 11000

$$$$
