AV-unprocessed.smi:48|AV-procd|sdf|451|dock8
  -GOLD-   2262016323D 1   1.00000     0.00000
 Structure written by MMmdl.
 30 32  0  0  0  0  0  0  0  0  1 V2000
  144.9220  138.4779  153.7507 O   0  0  0  0  0  0  0  0  0  0  0  0
  145.8064  138.6231  154.8414 C   0  0  0  0  0  0  0  0  0  0  0  0
  146.5141  139.9850  154.7703 C   0  0  1  0  0  0  0  0  0  0  0  0
  147.4477  140.0960  155.8350 O   0  0  0  0  0  0  0  0  0  0  0  0
  148.4439  141.0075  155.4941 C   0  0  1  0  0  0  0  0  0  0  0  0
  149.7439  140.4540  155.9896 N   0  0  0  0  0  0  0  0  0  0  0  0
  150.5966  141.0178  156.8691 C   0  0  0  0  0  0  0  0  0  0  0  0
  151.7026  140.3394  157.1725 N   0  0  0  0  0  0  0  0  0  0  0  0
  151.5461  139.1973  156.4041 C   0  0  0  0  0  0  0  0  0  0  0  0
  152.3429  138.0393  156.2318 C   0  0  0  0  0  0  0  0  0  0  0  0
  153.8378  137.8558  157.0738 Cl  0  0  0  0  0  0  0  0  0  0  0  0
  151.9044  137.0740  155.3887 N   0  0  0  0  0  0  0  0  0  0  0  0
  150.7405  137.2413  154.7488 C   0  0  0  0  0  0  0  0  0  0  0  0
  149.8880  138.2704  154.8101 N   0  0  0  0  0  0  0  0  0  0  0  0
  150.3325  139.2430  155.6608 C   0  0  0  0  0  0  0  0  0  0  0  0
  148.4084  141.1954  153.9603 C   0  0  1  0  0  0  0  0  0  0  0  0
  149.6499  140.9918  153.3084 O   0  0  0  0  0  0  0  0  0  0  0  0
  147.3866  140.1539  153.5232 C   0  0  2  0  0  0  0  0  0  0  0  0
  146.6157  140.6362  152.4410 O   0  0  0  0  0  0  0  0  0  0  0  0
  145.8007  140.8094  154.8379 H   0  0  0  0  0  0  0  0  0  0  0  0
  148.3113  141.9431  156.0391 H   0  0  0  0  0  0  0  0  0  0  0  0
  148.0479  142.2059  153.7609 H   0  0  0  0  0  0  0  0  0  0  0  0
  147.8710  139.2110  153.2642 H   0  0  0  0  0  0  0  0  0  0  0  0
  144.6529  139.3377  153.4657 H   0  0  0  0  0  0  0  0  0  0  0  0
  145.2720  138.5025  155.7843 H   0  0  0  0  0  0  0  0  0  0  0  0
  146.5378  137.8168  154.7777 H   0  0  0  0  0  0  0  0  0  0  0  0
  150.3959  141.9833  157.3101 H   0  0  0  0  0  0  0  0  0  0  0  0
  150.4491  136.4342  154.0930 H   0  0  0  0  0  0  0  0  0  0  0  0
  149.5366  140.3267  152.6469 H   0  0  0  0  0  0  0  0  0  0  0  0
  145.7146  140.6942  152.7206 H   0  0  0  0  0  0  0  0  0  0  0  0
  1  2  1  0  0  0  0
  1 24  1  0  0  0  0
  2  3  1  0  0  0  0
  2 25  1  0  0  0  0
  2 26  1  0  0  0  0
  3 20  1  0  0  0  0
  3 18  1  0  0  0  0
  3  4  1  0  0  0  0
  4  5  1  0  0  0  0
  5 21  1  0  0  0  0
  5  6  1  0  0  0  0
  5 16  1  0  0  0  0
  6 15  1  0  0  0  0
  6  7  1  0  0  0  0
  7  8  2  0  0  0  0
  7 27  1  0  0  0  0
  8  9  1  0  0  0  0
  9 15  2  0  0  0  0
  9 10  1  0  0  0  0
 10 11  1  0  0  0  0
 10 12  2  0  0  0  0
 12 13  1  0  0  0  0
 13 14  2  0  0  0  0
 13 28  1  0  0  0  0
 14 15  1  0  0  0  0
 16 22  1  0  0  0  0
 16 17  1  0  0  0  0
 16 18  1  0  0  0  0
 17 29  1  0  0  0  0
 18 23  1  0  0  0  0
 18 19  1  0  0  0  0
 19 30  1  0  0  0  0
M  END
> <s_m_source_file>
AV-unprocessed.smi

> <i_m_source_file_index>
48

> <i_lp_mmshare_version>
43012

> <i_f3d_flags>
0

> <s_epik_input>
W09IXVtDSDJdW0NASF0xT1tDQEhdKFtDQEhdKFtPSF0pW0NAQEhdMVtPSF0pbihbY0hdbjIpYyhjMjMpbltjSF1uYzNDbA==

> <s_epik_cmdline>
J2VwaWtfcHl0aG9uJywgJy1waCcsICc3LjAnLCAnLXRuJywgJzgnLCAnLW1hJywgJzIwMCcsICctbWV0YWxfYmluZGluZycsICctaW1hZScsICc8aW5maWxlLm1hZT4nLCAnLW9tYWUnLCAnPG91dGZpbGUubWFlPic=

> <r_lp_tautomer_probability>
1

> <r_epik_Ionization_Penalty>
3.45505e-06

> <r_epik_Ionization_Penalty_Charging>
0

> <r_epik_Ionization_Penalty_Neutral>
3.45505e-06

> <r_epik_State_Penalty>
-0

> <r_epik_Charging_Adjusted_Penalty>
0

> <i_epik_Tot_Q>
0

> <i_epik_Tot_abs_Q>
0

> <r_epik_Metal_State_Penalty>
-0

> <b_epik_Metal_Only>
0

> <s_epik_Chemistry_Notes>
This compound contains an acetal/aminal-like group ( X-CH(R)-Y where X, Y are N, S, or O) that may be acid/base labile, releasing an aldehyde.

> <s_lp_Force_Field>
OPLS_2005

> <r_lp_Energy>
37.1345

> <b_lp_Chiralities_Consistent>
1

> <s_lp_Variant>
AV-unprocessed.smi:48-5

> <Gold.Version>
5.8.1

> <Gold.Id.Protein>
6NUR|6NUR_protein|mol2

> <Gold.PLP.Fitness>
40.3069

> <Gold.PLP.PLP>
-22.8225

> <Gold.PLP.part.hbond>
-5.4687

> <Gold.PLP.part.metal>
0.0000

> <Gold.PLP.part.buried>
-1.4037

> <Gold.PLP.part.nonpolar>
-16.8484

> <Gold.PLP.part.repulsive>
0.2604

> <Gold.PLP.ligand.clash>
0.0000

> <Gold.PLP.ligand.torsion>
0.0050

> <Gold.PLP.Chemscore.Hbond>
4.8864

> <Gold.PLP.Chemscore.CHOScore>
0.9419

> <Gold.PLP.Chemscore.Metal>
0.0000

> <Gold.Chemscore.Hbonds>
donor molecule, donor type, donor heavy atom, donor atom, acceptor molecule, acceptor atom, score
      L1  H     1    24       P1 10175  1.00
      L1  H    17    29       P1  7957  0.84
      L1  H    19    30       P1 10175  0.96
      P1  H  7989  7998       L1    17  0.17
      P1  H  8011  8017       L1    17  1.00
      P1  H 10752 10763       L1    12  0.98
      L1  C    13    28       P1  7948  0.46
      L1  C    13    28       P1  7949  0.22

> <Gold.PLP.Chemscore.Internal.Correction>
0.0093

> <Gold.Rescore>
     Score         DG    S(hbond)    S(metal)    S(lipo)     H(rot)  DE(clash)    DE(int)     intcor
     11.78     -13.21       3.98        0.00      35.69       3.80       0.40       1.02       ----

> <Gold.Chemscore.Fitness>
11.7821

> <Gold.Chemscore.DG>
-13.2052

> <Gold.Chemscore.ZeroCoef>
-5.4800

> <Gold.Chemscore.Hbond>
3.9767

> <Gold.Chemscore.Metal>
0.0000

> <Gold.Chemscore.Lipo>
35.6883

> <Gold.Chemscore.Internal_Hbond>
0.0000

> <Gold.Chemscore.DEClash>
0.3998

> <Gold.Chemscore.DEInternal>
1.0234

> <Gold.Chemscore.Rot>
3.8017

> <Gold.Chemscore.Internal.Correction>
   9.000000E+99

> <Gold.Chemscore.Hbonds>
donor molecule, donor type, donor heavy atom, donor atom, acceptor molecule, acceptor atom, score
      L1  H     1    24       P1 10175  0.97
      L1  H    17    29       P1  7957  0.79
      L1  H    19    30       P1 10175  0.40
      P1  H  7989  7998       L1    17  0.04
      P1  H  8011  8017       L1    17  0.12
      P1  H 10752 10763       L1    12  0.72

> <Gold.Chemscore.Hbond.Weighted>
-13.2821

> <Gold.Chemscore.Metal.Weighted>
-0.0000

> <Gold.Chemscore.Lipo.Weighted>
-4.1755

> <Gold.Chemscore.Internal_Hbond.Weighted>
0.0000

> <Gold.Chemscore.DEClash.Weighted>
0.3998

> <Gold.Chemscore.DEInternal.Weighted>
1.0234

> <Gold.Chemscore.Rot.Weighted>
9.7324

> <Gold.Chemscore.Internal.Correction.Weighted>
   9.000000E+99

> <Gold.Protein.RotatedTorsions>
[ 6907 6896 6895 6894 ] final -108.85 input  -60.11 | X-H torsion
[ 7974 7965 7964 7962 ] final   37.92 input  175.53 | X-H torsion
[ 8008 7997 7996 7995 ] final    7.29 input   59.86 | X-H torsion
[ 10167 10162 10161 10158 ] final  113.40 input  -65.29 | X-H torsion
[ 10718 10713 10712 10709 ] final -174.26 input   66.30 | X-H torsion
[ 10763 10752 10751 10750 ] final   59.64 input  -60.55 | X-H torsion
[ 11005 11000 10999 10996 ] final  -63.13 input  -57.11 | X-H torsion

> <Gold.Protein.ActiveResidues>
 VAL166  LYS551  ARG553  GLY616  TRP617  ASP618  TYR619  PRO620  LYS621  CYS622 
 ASP623  PHE694  ASN695  SER759  ASP760  ASP761  ALA762  ILE779  LEU786  VAL792 
 PHE793  MET794  SER795  GLU796  ALA797  LYS798  CYS799  TRP800  GLU811  SER814 

> <Gold.Protein.RotatedAtoms>
  150.7526  133.9616  159.3516 H   0  0  0  0  0  0  0  0  0  0  0  0  # atno 6907 bound_to 6896
  151.7542  135.0823  160.0345 H   0  0  0  0  0  0  0  0  0  0  0  0  # atno 6908 bound_to 6896
  152.3446  133.6070  159.5937 H   0  0  0  0  0  0  0  0  0  0  0  0  # atno 6909 bound_to 6896
  146.1101  139.5835  142.9358 H   0  0  0  0  0  0  0  0  0  0  0  0  # atno 7974 bound_to 7965
  154.7519  140.2768  155.6285 H   0  0  0  0  0  0  0  0  0  0  0  0  # atno 8008 bound_to 7997
  156.2897  140.2677  156.2202 H   0  0  0  0  0  0  0  0  0  0  0  0  # atno 8009 bound_to 7997
  155.0126  140.0372  157.2395 H   0  0  0  0  0  0  0  0  0  0  0  0  # atno 8010 bound_to 7997
  139.6464  144.7126  151.2135 H   0  0  0  0  0  0  0  0  0  0  0  0  # atno 10167 bound_to 10162
  156.7824  130.9488  151.3120 H   0  0  0  0  0  0  0  0  0  0  0  0  # atno 10718 bound_to 10713
  152.9900  135.5564  154.5746 H   0  0  0  0  0  0  0  0  0  0  0  0  # atno 10763 bound_to 10752
  154.5140  135.2804  155.1321 H   0  0  0  0  0  0  0  0  0  0  0  0  # atno 10764 bound_to 10752
  154.2701  135.6364  153.5360 H   0  0  0  0  0  0  0  0  0  0  0  0  # atno 10765 bound_to 10752
  141.1383  133.6648  156.5632 H   0  0  0  0  0  0  0  0  0  0  0  0  # atno 11005 bound_to 11000
  145.5681  141.0397  143.2189 LP  0  0  0  0  0  0  0  0  0  0  0  0  # atno 17320 bound_to 7965
  144.7504  139.7209  143.7275 LP  0  0  0  0  0  0  0  0  0  0  0  0  # atno 17321 bound_to 7965
  140.7516  143.6224  150.8500 LP  0  0  0  0  0  0  0  0  0  0  0  0  # atno 17342 bound_to 10162
  139.9867  143.5891  152.2924 LP  0  0  0  0  0  0  0  0  0  0  0  0  # atno 17343 bound_to 10162
  157.6640  130.8991  149.9891 LP  0  0  0  0  0  0  0  0  0  0  0  0  # atno 17370 bound_to 10713
  156.1209  130.3646  149.9888 LP  0  0  0  0  0  0  0  0  0  0  0  0  # atno 17371 bound_to 10713
  140.3971  134.7389  157.4757 LP  0  0  0  0  0  0  0  0  0  0  0  0  # atno 17394 bound_to 11000
  140.0523  134.6113  155.8847 LP  0  0  0  0  0  0  0  0  0  0  0  0  # atno 17395 bound_to 11000

$$$$
