AV-unprocessed.smi:813|AV-procd|sdf|3819|dock7
  -GOLD-   22720 1263D 1   1.00000     0.00000
 Structure written by MMmdl.
 35 36  0  0  0  0  0  0  0  0  2 V2000
  148.8750  141.6680  154.7984 C   0  0  0  0  0  0  0  0  0  0  0  0
  148.8698  141.4017  156.3129 C   0  0  2  0  0  0  0  0  0  0  0  0
  147.9214  142.3268  156.9335 N   0  0  0  0  0  0  0  0  0  0  0  0
  147.0811  142.0375  157.9388 C   0  0  0  0  0  0  0  0  0  0  0  0
  147.0625  140.9006  158.4169 O   0  0  0  0  0  0  0  0  0  0  0  0
  146.3139  143.0818  158.3259 N   0  5  0  0  0  0  0  0  0  0  0  0
  145.8837  143.1641  159.5956 C   0  0  0  0  0  0  0  0  0  0  0  0
  145.6860  142.0772  160.3590 N   0  0  0  0  0  0  0  0  0  0  0  0
  145.2459  142.3825  161.6399 N   0  0  0  0  0  0  0  0  0  0  0  0
  145.1296  143.6989  161.8127 C   0  0  0  0  0  0  0  0  0  0  0  0
  145.5492  144.6851  160.4280 S   0  0  0  0  0  0  0  0  0  0  0  0
  150.2905  141.6406  156.8489 C   0  0  0  0  0  0  0  0  0  0  0  0
  151.0545  140.6949  157.0498 O   0  0  0  0  0  0  0  0  0  0  0  0
  150.6236  142.9179  157.0886 N   0  0  0  0  0  0  0  0  0  0  0  0
  151.9201  143.3698  157.5857 C   0  0  0  0  0  0  0  0  0  0  0  0
  152.3059  142.6185  158.8745 C   0  0  0  0  0  0  0  0  0  0  0  0
  152.7437  143.6899  159.8749 C   0  0  0  0  0  0  0  0  0  0  0  0
  151.9374  144.9235  159.4819 C   0  0  0  0  0  0  0  0  0  0  0  0
  151.8889  144.8664  157.9550 C   0  0  0  0  0  0  0  0  0  0  0  0
  149.5662  141.0013  154.2813 H   0  0  0  0  0  0  0  0  0  0  0  0
  149.1645  142.6942  154.5663 H   0  0  0  0  0  0  0  0  0  0  0  0
  147.8852  141.5018  154.3720 H   0  0  0  0  0  0  0  0  0  0  0  0
  148.5605  140.3715  156.5002 H   0  0  0  0  0  0  0  0  0  0  0  0
  147.9094  143.2716  156.5788 H   0  0  0  0  0  0  0  0  0  0  0  0
  144.7973  144.0915  162.7619 H   0  0  0  0  0  0  0  0  0  0  0  0
  149.9356  143.6300  156.8917 H   0  0  0  0  0  0  0  0  0  0  0  0
  152.6845  143.1989  156.8255 H   0  0  0  0  0  0  0  0  0  0  0  0
  151.4456  142.0843  159.2818 H   0  0  0  0  0  0  0  0  0  0  0  0
  153.0891  141.8798  158.7011 H   0  0  0  0  0  0  0  0  0  0  0  0
  152.5782  143.3909  160.9102 H   0  0  0  0  0  0  0  0  0  0  0  0
  153.8083  143.8948  159.7533 H   0  0  0  0  0  0  0  0  0  0  0  0
  150.9265  144.8454  159.8845 H   0  0  0  0  0  0  0  0  0  0  0  0
  152.3752  145.8501  159.8541 H   0  0  0  0  0  0  0  0  0  0  0  0
  152.7758  145.3540  157.5484 H   0  0  0  0  0  0  0  0  0  0  0  0
  151.0229  145.3962  157.5545 H   0  0  0  0  0  0  0  0  0  0  0  0
  1  2  1  0  0  0  0
  1 20  1  0  0  0  0
  1 21  1  0  0  0  0
  1 22  1  0  0  0  0
  2  3  1  0  0  0  0
  2 12  1  0  0  0  0
  2 23  1  0  0  0  0
  3  4  1  0  0  0  0
  3 24  1  0  0  0  0
  4  5  2  0  0  0  0
  4  6  1  0  0  0  0
  6  7  1  0  0  0  0
  7 11  1  0  0  0  0
  7  8  2  0  0  0  0
  8  9  1  0  0  0  0
  9 10  2  0  0  0  0
 10 11  1  0  0  0  0
 10 25  1  0  0  0  0
 12 13  2  0  0  0  0
 12 14  1  0  0  0  0
 14 15  1  0  0  0  0
 14 26  1  0  0  0  0
 15 19  1  0  0  0  0
 15 16  1  0  0  0  0
 15 27  1  0  0  0  0
 16 17  1  0  0  0  0
 16 28  1  0  0  0  0
 16 29  1  0  0  0  0
 17 18  1  0  0  0  0
 17 30  1  0  0  0  0
 17 31  1  0  0  0  0
 18 19  1  0  0  0  0
 18 32  1  0  0  0  0
 18 33  1  0  0  0  0
 19 34  1  0  0  0  0
 19 35  1  0  0  0  0
M  CHG  1   6  -1
M  END
> <s_m_source_file>
AV-unprocessed.smi

> <i_m_source_file_index>
813

> <i_lp_mmshare_version>
43012

> <i_f3d_flags>
0

> <s_epik_input>
W0NIMl0xW0NIMl1bQ0gyXVtDSDJdW0NIXTFbTkhdQyg9TylbQ0BIXShbQ0gzXSlbTkhdQyg9TylbTkhdYzJubltjSF1zMg==

> <s_epik_cmdline>
J2VwaWtfcHl0aG9uJywgJy1waCcsICc3LjAnLCAnLXRuJywgJzgnLCAnLW1hJywgJzIwMCcsICctbWV0YWxfYmluZGluZycsICctaW1hZScsICc8aW5maWxlLm1hZT4nLCAnLW9tYWUnLCAnPG91dGZpbGUubWFlPic=

> <r_lp_tautomer_probability>
1

> <r_epik_Ionization_Penalty>
3.13682

> <r_epik_Ionization_Penalty_Charging>
3.09647

> <r_epik_Ionization_Penalty_Neutral>
0.0403479

> <r_epik_State_Penalty>
3.09328

> <r_epik_Charging_Adjusted_Penalty>
6.18976

> <i_epik_Tot_Q>
-1

> <i_epik_Tot_abs_Q>
1

> <r_epik_Metal_State_Penalty>
0.461392

> <b_epik_Metal_Only>
1

> <s_lp_Force_Field>
OPLS_2005

> <r_lp_Energy>
16.0843

> <b_lp_Chiralities_Consistent>
1

> <s_lp_Variant>
AV-unprocessed.smi:813-3

> <Gold.Version>
5.8.1

> <Gold.Id.Protein>
6NUR|6NUR_protein|mol2

> <Gold.PLP.Fitness>
43.2984

> <Gold.PLP.PLP>
-37.6063

> <Gold.PLP.part.hbond>
-5.2100

> <Gold.PLP.part.metal>
0.0000

> <Gold.PLP.part.buried>
-6.0336

> <Gold.PLP.part.nonpolar>
-26.4352

> <Gold.PLP.part.repulsive>
0.1719

> <Gold.PLP.ligand.clash>
0.0000

> <Gold.PLP.ligand.torsion>
1.3056

> <Gold.PLP.Chemscore.Hbond>
2.7500

> <Gold.PLP.Chemscore.CHOScore>
0.0000

> <Gold.PLP.Chemscore.Metal>
0.0000

> <Gold.Chemscore.Hbonds>
donor molecule, donor type, donor heavy atom, donor atom, acceptor molecule, acceptor atom, score
      L1  H     3    24       P1  8028  0.69
      L1  H    14    26       P1  8028  1.00
      P1  H  6934  6946       L1     8  1.00

> <Gold.PLP.Chemscore.Internal.Correction>
0.0534

> <Gold.Rescore>
     Score         DG    S(hbond)    S(metal)    S(lipo)     H(rot)  DE(clash)    DE(int)     intcor
     12.83     -16.80       1.72        0.00      85.39       1.72       0.09       3.88       ----

> <Gold.Chemscore.Fitness>
12.8344

> <Gold.Chemscore.DG>
-16.8046

> <Gold.Chemscore.ZeroCoef>
-5.4800

> <Gold.Chemscore.Hbond>
1.7173

> <Gold.Chemscore.Metal>
0.0000

> <Gold.Chemscore.Lipo>
85.3883

> <Gold.Chemscore.Internal_Hbond>
0.0000

> <Gold.Chemscore.DEClash>
0.0897

> <Gold.Chemscore.DEInternal>
3.8806

> <Gold.Chemscore.Rot>
1.7194

> <Gold.Chemscore.Internal.Correction>
   9.000000E+99

> <Gold.Chemscore.Hbonds>
donor molecule, donor type, donor heavy atom, donor atom, acceptor molecule, acceptor atom, score
      L1  H     3    24       P1  8028  0.07
      L1  H    14    26       P1  8028  0.96
      P1  H  6934  6946       L1     8  0.26

> <Gold.Chemscore.Hbond.Weighted>
-5.7358

> <Gold.Chemscore.Metal.Weighted>
-0.0000

> <Gold.Chemscore.Lipo.Weighted>
-9.9904

> <Gold.Chemscore.Internal_Hbond.Weighted>
0.0000

> <Gold.Chemscore.DEClash.Weighted>
0.0897

> <Gold.Chemscore.DEInternal.Weighted>
3.8806

> <Gold.Chemscore.Rot.Weighted>
4.4016

> <Gold.Chemscore.Internal.Correction.Weighted>
   9.000000E+99

> <Gold.Protein.RotatedTorsions>
[ 6907 6896 6895 6894 ] final   -1.51 input  -60.11 | X-H torsion
[ 7974 7965 7964 7962 ] final   15.77 input  175.53 | X-H torsion
[ 8008 7997 7996 7995 ] final -133.08 input   59.86 | X-H torsion
[ 10167 10162 10161 10158 ] final   15.85 input  -65.29 | X-H torsion
[ 10718 10713 10712 10709 ] final   82.80 input   66.30 | X-H torsion
[ 10763 10752 10751 10750 ] final  -77.63 input  -60.55 | X-H torsion
[ 11005 11000 10999 10996 ] final    1.26 input  -57.11 | X-H torsion

> <Gold.Protein.ActiveResidues>
 VAL166  LYS551  ARG553  GLY616  TRP617  ASP618  TYR619  PRO620  LYS621  CYS622 
 ASP623  PHE694  ASN695  SER759  ASP760  ASP761  ALA762  ILE779  LEU786  VAL792 
 PHE793  MET794  SER795  GLU796  ALA797  LYS798  CYS799  TRP800  GLU811  SER814 

> <Gold.Protein.RotatedAtoms>
  151.5449  135.1068  159.9935 H   0  0  0  0  0  0  0  0  0  0  0  0  # atno 6907 bound_to 6896
  152.4518  133.7641  159.6773 H   0  0  0  0  0  0  0  0  0  0  0  0  # atno 6908 bound_to 6896
  150.8449  133.7810  159.3071 H   0  0  0  0  0  0  0  0  0  0  0  0  # atno 6909 bound_to 6896
  146.2269  139.8846  142.8565 H   0  0  0  0  0  0  0  0  0  0  0  0  # atno 7974 bound_to 7965
  155.3395  140.0471  157.3044 H   0  0  0  0  0  0  0  0  0  0  0  0  # atno 8008 bound_to 7997
  154.5285  140.2249  155.8812 H   0  0  0  0  0  0  0  0  0  0  0  0  # atno 8009 bound_to 7997
  156.1764  140.3084  155.9073 H   0  0  0  0  0  0  0  0  0  0  0  0  # atno 8010 bound_to 7997
  140.5838  143.8929  150.6813 H   0  0  0  0  0  0  0  0  0  0  0  0  # atno 10167 bound_to 10162
  157.6865  131.0063  150.2428 H   0  0  0  0  0  0  0  0  0  0  0  0  # atno 10718 bound_to 10713
  154.5154  135.5757  153.6638 H   0  0  0  0  0  0  0  0  0  0  0  0  # atno 10763 bound_to 10752
  152.9906  135.6169  154.2824 H   0  0  0  0  0  0  0  0  0  0  0  0  # atno 10764 bound_to 10752
  154.2741  135.2852  155.2705 H   0  0  0  0  0  0  0  0  0  0  0  0  # atno 10765 bound_to 10752
  140.6174  133.9693  155.8207 H   0  0  0  0  0  0  0  0  0  0  0  0  # atno 11005 bound_to 11000
  145.2478  141.0033  143.3898 LP  0  0  0  0  0  0  0  0  0  0  0  0  # atno 17320 bound_to 7965
  144.9399  139.4201  143.6454 LP  0  0  0  0  0  0  0  0  0  0  0  0  # atno 17321 bound_to 7965
  140.2435  143.3646  152.1467 LP  0  0  0  0  0  0  0  0  0  0  0  0  # atno 17342 bound_to 10162
  139.5185  144.7007  151.5501 LP  0  0  0  0  0  0  0  0  0  0  0  0  # atno 17343 bound_to 10162
  156.3039  130.3762  149.7724 LP  0  0  0  0  0  0  0  0  0  0  0  0  # atno 17370 bound_to 10713
  156.5345  130.8272  151.3248 LP  0  0  0  0  0  0  0  0  0  0  0  0  # atno 17371 bound_to 10713
  141.0766  134.0125  157.3448 LP  0  0  0  0  0  0  0  0  0  0  0  0  # atno 17394 bound_to 11000
  139.9167  135.0197  156.7909 LP  0  0  0  0  0  0  0  0  0  0  0  0  # atno 17395 bound_to 11000

$$$$
