AV-unprocessed.smi:3155|AV-procd|sdf|12028|dock9
  -GOLD-   2272017443D 1   1.00000     0.00000
 Structure written by MMmdl.
 37 38  0  0  0  0  0  0  0  0  1 V2000
  154.0740  140.6132  161.0381 C   0  0  0  0  0  0  0  0  0  0  0  0
  153.1081  141.3111  160.0697 C   0  0  1  0  0  0  0  0  0  0  0  0
  153.5526  142.7713  159.8184 C   0  0  0  0  0  0  0  0  0  0  0  0
  152.4468  143.6981  159.6505 N   0  0  0  0  0  0  0  0  0  0  0  0
  152.0886  144.7607  160.4541 C   0  0  0  0  0  0  0  0  0  0  0  0
  150.9927  145.3471  159.8892 C   0  0  0  0  0  0  0  0  0  0  0  0
  150.7606  144.5723  158.7189 C   0  0  0  0  0  0  0  0  0  0  0  0
  151.6381  143.5928  158.5741 N   0  0  0  0  0  0  0  0  0  0  0  0
  153.1117  140.5307  158.8348 N   0  0  0  0  0  0  0  0  0  0  0  0
  152.0719  140.9564  157.8890 C   0  0  0  0  0  0  0  0  0  0  0  0
  151.9719  140.0015  156.6946 C   0  0  0  0  0  0  0  0  0  0  0  0
  152.7923  139.0883  156.6001 O   0  0  0  0  0  0  0  0  0  0  0  0
  150.9909  140.1858  155.7854 N   0  0  0  0  0  0  0  0  0  0  0  0
  150.7407  139.3525  154.6102 C   0  0  0  0  0  0  0  0  0  0  0  0
  149.3902  139.8079  154.0584 C   0  0  0  0  0  0  0  0  0  0  0  0
  149.2615  141.2485  154.5325 C   0  0  0  0  0  0  0  0  0  0  0  0
  150.0163  141.2724  155.8620 C   0  0  0  0  0  0  0  0  0  0  0  0
  154.1016  141.1268  161.9997 H   0  0  0  0  0  0  0  0  0  0  0  0
  155.0912  140.5940  160.6447 H   0  0  0  0  0  0  0  0  0  0  0  0
  153.7696  139.5835  161.2288 H   0  0  0  0  0  0  0  0  0  0  0  0
  152.1199  141.2902  160.5323 H   0  0  0  0  0  0  0  0  0  0  0  0
  154.1373  143.1279  160.6672 H   0  0  0  0  0  0  0  0  0  0  0  0
  154.2115  142.8270  158.9497 H   0  0  0  0  0  0  0  0  0  0  0  0
  152.6340  145.0039  161.3542 H   0  0  0  0  0  0  0  0  0  0  0  0
  150.4423  146.2014  160.2542 H   0  0  0  0  0  0  0  0  0  0  0  0
  149.9878  144.6928  157.9740 H   0  0  0  0  0  0  0  0  0  0  0  0
  152.9905  139.5564  159.0731 H   0  0  0  0  0  0  0  0  0  0  0  0
  151.1074  140.9773  158.3984 H   0  0  0  0  0  0  0  0  0  0  0  0
  152.2551  141.9684  157.5336 H   0  0  0  0  0  0  0  0  0  0  0  0
  151.5288  139.5252  153.8760 H   0  0  0  0  0  0  0  0  0  0  0  0
  150.7227  138.2892  154.8518 H   0  0  0  0  0  0  0  0  0  0  0  0
  149.3215  139.7092  152.9746 H   0  0  0  0  0  0  0  0  0  0  0  0
  148.5942  139.2064  154.4998 H   0  0  0  0  0  0  0  0  0  0  0  0
  149.7541  141.9112  153.8198 H   0  0  0  0  0  0  0  0  0  0  0  0
  148.2246  141.5718  154.6283 H   0  0  0  0  0  0  0  0  0  0  0  0
  149.3357  141.0808  156.6927 H   0  0  0  0  0  0  0  0  0  0  0  0
  150.4924  142.2399  156.0294 H   0  0  0  0  0  0  0  0  0  0  0  0
  1  2  1  0  0  0  0
  1 18  1  0  0  0  0
  1 19  1  0  0  0  0
  1 20  1  0  0  0  0
  2  3  1  0  0  0  0
  2  9  1  0  0  0  0
  2 21  1  0  0  0  0
  3  4  1  0  0  0  0
  3 22  1  0  0  0  0
  3 23  1  0  0  0  0
  4  8  1  0  0  0  0
  4  5  1  0  0  0  0
  5  6  2  0  0  0  0
  5 24  1  0  0  0  0
  6  7  1  0  0  0  0
  6 25  1  0  0  0  0
  7  8  2  0  0  0  0
  7 26  1  0  0  0  0
  9 10  1  0  0  0  0
  9 27  1  0  0  0  0
 10 11  1  0  0  0  0
 10 28  1  0  0  0  0
 10 29  1  0  0  0  0
 11 12  2  0  0  0  0
 11 13  1  0  0  0  0
 13 17  1  0  0  0  0
 13 14  1  0  0  0  0
 14 15  1  0  0  0  0
 14 30  1  0  0  0  0
 14 31  1  0  0  0  0
 15 16  1  0  0  0  0
 15 32  1  0  0  0  0
 15 33  1  0  0  0  0
 16 17  1  0  0  0  0
 16 34  1  0  0  0  0
 16 35  1  0  0  0  0
 17 36  1  0  0  0  0
 17 37  1  0  0  0  0
M  END
> <s_m_source_file>
AV-unprocessed.smi

> <i_m_source_file_index>
3155

> <i_lp_mmshare_version>
43012

> <i_f3d_flags>
0

> <s_epik_input>
bjFbY0hdW2NIXVtjSF1uMVtDSDJdW0NAQEhdKFtDSDNdKVtOSF1bQ0gyXUMoPU8pTjJbQ0gyXVtDSDJdW0NIMl1bQ0gyXTI=

> <s_epik_cmdline>
J2VwaWtfcHl0aG9uJywgJy1waCcsICc3LjAnLCAnLXRuJywgJzgnLCAnLW1hJywgJzIwMCcsICctbWV0YWxfYmluZGluZycsICctaW1hZScsICc8aW5maWxlLm1hZT4nLCAnLW9tYWUnLCAnPG91dGZpbGUubWFlPic=

> <r_lp_tautomer_probability>
1

> <r_epik_Ionization_Penalty>
1.00455

> <r_epik_Ionization_Penalty_Charging>
0

> <r_epik_Ionization_Penalty_Neutral>
1.00455

> <r_epik_State_Penalty>
1.05336

> <r_epik_Charging_Adjusted_Penalty>
1.05336

> <i_epik_Tot_Q>
0

> <i_epik_Tot_abs_Q>
0

> <r_epik_Metal_State_Penalty>
1.05331

> <b_epik_Metal_Only>
0

> <s_lp_Force_Field>
OPLS_2005

> <r_lp_Energy>
30.9369

> <b_lp_Chiralities_Consistent>
1

> <s_lp_Variant>
AV-unprocessed.smi:3155-4

> <Gold.Version>
5.8.1

> <Gold.Id.Protein>
6NUR|6NUR_protein|mol2

> <Gold.PLP.Fitness>
47.5348

> <Gold.PLP.PLP>
-42.3343

> <Gold.PLP.part.hbond>
-1.5377

> <Gold.PLP.part.metal>
0.0000

> <Gold.PLP.part.buried>
-3.0577

> <Gold.PLP.part.nonpolar>
-38.5951

> <Gold.PLP.part.repulsive>
0.0629

> <Gold.PLP.ligand.clash>
0.0000

> <Gold.PLP.ligand.torsion>
0.6049

> <Gold.PLP.Chemscore.Hbond>
1.0000

> <Gold.PLP.Chemscore.CHOScore>
1.1306

> <Gold.PLP.Chemscore.Metal>
0.0000

> <Gold.Chemscore.Hbonds>
donor molecule, donor type, donor heavy atom, donor atom, acceptor molecule, acceptor atom, score
      P1  H  7997  8009       L1    12  1.00
      L1  C     7    26       P1  8028  0.57
      L1  C     7    26       P1  8029  0.57

> <Gold.PLP.Chemscore.Internal.Correction>
0.0186

> <Gold.Rescore>
     Score         DG    S(hbond)    S(metal)    S(lipo)     H(rot)  DE(clash)    DE(int)     intcor
     13.54     -15.67       0.92        0.00      99.56       1.77       0.13       2.00       ----

> <Gold.Chemscore.Fitness>
13.5420

> <Gold.Chemscore.DG>
-15.6708

> <Gold.Chemscore.ZeroCoef>
-5.4800

> <Gold.Chemscore.Hbond>
0.9195

> <Gold.Chemscore.Metal>
0.0000

> <Gold.Chemscore.Lipo>
99.5640

> <Gold.Chemscore.Internal_Hbond>
0.0000

> <Gold.Chemscore.DEClash>
0.1292

> <Gold.Chemscore.DEInternal>
1.9996

> <Gold.Chemscore.Rot>
1.7693

> <Gold.Chemscore.Internal.Correction>
   9.000000E+99

> <Gold.Chemscore.Hbonds>
donor molecule, donor type, donor heavy atom, donor atom, acceptor molecule, acceptor atom, score
      P1  H  7997  8009       L1    12  0.30

> <Gold.Chemscore.Hbond.Weighted>
-3.0712

> <Gold.Chemscore.Metal.Weighted>
-0.0000

> <Gold.Chemscore.Lipo.Weighted>
-11.6490

> <Gold.Chemscore.Internal_Hbond.Weighted>
0.0000

> <Gold.Chemscore.DEClash.Weighted>
0.1292

> <Gold.Chemscore.DEInternal.Weighted>
1.9996

> <Gold.Chemscore.Rot.Weighted>
4.5294

> <Gold.Chemscore.Internal.Correction.Weighted>
   9.000000E+99

> <Gold.Protein.RotatedTorsions>
[ 6907 6896 6895 6894 ] final   98.17 input  -60.11 | X-H torsion
[ 7974 7965 7964 7962 ] final  131.39 input  175.53 | X-H torsion
[ 8008 7997 7996 7995 ] final  173.81 input   59.86 | X-H torsion
[ 10167 10162 10161 10158 ] final   31.64 input  -65.29 | X-H torsion
[ 10718 10713 10712 10709 ] final  -25.33 input   66.30 | X-H torsion
[ 10763 10752 10751 10750 ] final  124.85 input  -60.55 | X-H torsion
[ 11005 11000 10999 10996 ] final  134.32 input  -57.11 | X-H torsion

> <Gold.Protein.ActiveResidues>
 VAL166  LYS551  ARG553  GLY616  TRP617  ASP618  TYR619  PRO620  LYS621  CYS622 
 ASP623  PHE694  ASN695  SER759  ASP760  ASP761  ALA762  ILE779  LEU786  VAL792 
 PHE793  MET794  SER795  GLU796  ALA797  LYS798  CYS799  TRP800  GLU811  SER814 

> <Gold.Protein.RotatedAtoms>
  152.5413  134.0621  159.8156 H   0  0  0  0  0  0  0  0  0  0  0  0  # atno 6907 bound_to 6896
  151.0747  133.5430  159.2632 H   0  0  0  0  0  0  0  0  0  0  0  0  # atno 6908 bound_to 6896
  151.2280  135.0552  159.9030 H   0  0  0  0  0  0  0  0  0  0  0  0  # atno 6909 bound_to 6896
  145.0078  139.4249  143.5260 H   0  0  0  0  0  0  0  0  0  0  0  0  # atno 7974 bound_to 7965
  156.1038  140.1450  156.9431 H   0  0  0  0  0  0  0  0  0  0  0  0  # atno 8008 bound_to 7997
  154.4720  140.0906  156.7213 H   0  0  0  0  0  0  0  0  0  0  0  0  # atno 8009 bound_to 7997
  155.4714  140.3442  155.4328 H   0  0  0  0  0  0  0  0  0  0  0  0  # atno 8010 bound_to 7997
  140.4571  144.0962  150.6204 H   0  0  0  0  0  0  0  0  0  0  0  0  # atno 10167 bound_to 10162
  156.4658  130.4514  149.6900 H   0  0  0  0  0  0  0  0  0  0  0  0  # atno 10718 bound_to 10713
  153.6679  135.3335  155.3145 H   0  0  0  0  0  0  0  0  0  0  0  0  # atno 10763 bound_to 10752
  154.8498  135.4379  154.1735 H   0  0  0  0  0  0  0  0  0  0  0  0  # atno 10764 bound_to 10752
  153.2719  135.7001  153.7548 H   0  0  0  0  0  0  0  0  0  0  0  0  # atno 10765 bound_to 10752
  139.9907  134.9516  156.9850 H   0  0  0  0  0  0  0  0  0  0  0  0  # atno 11005 bound_to 11000
  146.3464  139.9504  142.8729 LP  0  0  0  0  0  0  0  0  0  0  0  0  # atno 17320 bound_to 7965
  145.2064  140.9877  143.4126 LP  0  0  0  0  0  0  0  0  0  0  0  0  # atno 17321 bound_to 7965
  140.4138  143.2644  151.9800 LP  0  0  0  0  0  0  0  0  0  0  0  0  # atno 17342 bound_to 10162
  139.4802  144.5892  151.7801 LP  0  0  0  0  0  0  0  0  0  0  0  0  # atno 17343 bound_to 10162
  156.3669  130.7510  151.2489 LP  0  0  0  0  0  0  0  0  0  0  0  0  # atno 17370 bound_to 10713
  157.7495  131.0334  150.4271 LP  0  0  0  0  0  0  0  0  0  0  0  0  # atno 17371 bound_to 10713
  140.4913  134.1190  155.7233 LP  0  0  0  0  0  0  0  0  0  0  0  0  # atno 17394 bound_to 11000
  141.1563  133.8875  157.1967 LP  0  0  0  0  0  0  0  0  0  0  0  0  # atno 17395 bound_to 11000

$$$$
