AV-unprocessed.smi:2160|AV-procd|sdf|8800|dock8
  -GOLD-   2272011583D 1   1.00000     0.00000
 Structure written by MMmdl.
 44 46  0  0  0  0  0  0  0  0  2 V2000
  154.7843  141.1738  163.1928 C   0  0  0  0  0  0  0  0  0  0  0  0
  153.8837  142.2713  163.1541 O   0  0  0  0  0  0  0  0  0  0  0  0
  153.4053  142.6742  161.9258 C   0  0  0  0  0  0  0  0  0  0  0  0
  153.7424  142.0530  160.6971 C   0  0  0  0  0  0  0  0  0  0  0  0
  153.2059  142.5306  159.4857 C   0  0  0  0  0  0  0  0  0  0  0  0
  152.3240  143.6296  159.4783 C   0  0  0  0  0  0  0  0  0  0  0  0
  151.7739  144.1369  158.1572 C   0  0  0  0  0  0  0  0  0  0  0  0
  151.2208  143.1040  157.3561 O   0  0  0  0  0  0  0  0  0  0  0  0
  150.0214  142.5743  157.8965 C   0  0  0  0  0  0  0  0  0  0  0  0
  149.6136  141.3269  157.0967 C   0  0  1  0  0  0  0  0  0  0  0  0
  148.2794  141.4933  156.6572 O   0  0  0  0  0  0  0  0  0  0  0  0
  150.5272  141.1032  155.8749 C   0  0  0  0  0  0  0  0  0  0  0  0
  150.4075  139.7484  155.3158 N   0  0  0  0  0  0  0  0  0  0  0  0
  149.8633  139.3450  154.1357 C   0  0  0  0  0  0  0  0  0  0  0  0
  149.9944  137.9917  154.0623 N   0  3  0  0  0  0  0  0  0  0  0  0
  150.6330  137.5219  155.2117 C   0  0  0  0  0  0  0  0  0  0  0  0
  150.9879  136.2314  155.5922 C   0  0  0  0  0  0  0  0  0  0  0  0
  151.6362  136.0942  156.8369 C   0  0  0  0  0  0  0  0  0  0  0  0
  151.9087  137.2134  157.6499 C   0  0  0  0  0  0  0  0  0  0  0  0
  151.5440  138.5172  157.2545 C   0  0  0  0  0  0  0  0  0  0  0  0
  150.9019  138.6452  156.0228 C   0  0  0  0  0  0  0  0  0  0  0  0
  151.9922  144.2566  160.6975 C   0  0  0  0  0  0  0  0  0  0  0  0
  152.5277  143.7774  161.9086 C   0  0  0  0  0  0  0  0  0  0  0  0
  155.0704  140.9787  164.2262 H   0  0  0  0  0  0  0  0  0  0  0  0
  155.6961  141.3865  162.6331 H   0  0  0  0  0  0  0  0  0  0  0  0
  154.3234  140.2656  162.8020 H   0  0  0  0  0  0  0  0  0  0  0  0
  154.4126  141.2080  160.6558 H   0  0  0  0  0  0  0  0  0  0  0  0
  153.4756  142.0486  158.5575 H   0  0  0  0  0  0  0  0  0  0  0  0
  151.0110  144.8870  158.3708 H   0  0  0  0  0  0  0  0  0  0  0  0
  152.5768  144.6342  157.6104 H   0  0  0  0  0  0  0  0  0  0  0  0
  150.1273  142.3422  158.9579 H   0  0  0  0  0  0  0  0  0  0  0  0
  149.2462  143.3372  157.8099 H   0  0  0  0  0  0  0  0  0  0  0  0
  149.6644  140.4466  157.7391 H   0  0  0  0  0  0  0  0  0  0  0  0
  148.0416  140.7470  156.1292 H   0  0  0  0  0  0  0  0  0  0  0  0
  150.3335  141.8389  155.0943 H   0  0  0  0  0  0  0  0  0  0  0  0
  151.5705  141.2356  156.1641 H   0  0  0  0  0  0  0  0  0  0  0  0
  149.4121  139.9839  153.3903 H   0  0  0  0  0  0  0  0  0  0  0  0
  150.7821  135.3728  154.9699 H   0  0  0  0  0  0  0  0  0  0  0  0
  151.9315  135.1113  157.1744 H   0  0  0  0  0  0  0  0  0  0  0  0
  152.4091  137.0695  158.5966 H   0  0  0  0  0  0  0  0  0  0  0  0
  151.7628  139.3652  157.8857 H   0  0  0  0  0  0  0  0  0  0  0  0
  151.3275  145.1079  160.7152 H   0  0  0  0  0  0  0  0  0  0  0  0
  152.2632  144.2649  162.8356 H   0  0  0  0  0  0  0  0  0  0  0  0
  149.6728  137.4326  153.2826 H   0  0  0  0  0  0  0  0  0  0  0  0
  1  2  1  0  0  0  0
  1 24  1  0  0  0  0
  1 25  1  0  0  0  0
  1 26  1  0  0  0  0
  2  3  1  0  0  0  0
  3 23  1  0  0  0  0
  3  4  2  0  0  0  0
  4  5  1  0  0  0  0
  4 27  1  0  0  0  0
  5  6  2  0  0  0  0
  5 28  1  0  0  0  0
  6  7  1  0  0  0  0
  6 22  1  0  0  0  0
  7  8  1  0  0  0  0
  7 29  1  0  0  0  0
  7 30  1  0  0  0  0
  8  9  1  0  0  0  0
  9 10  1  0  0  0  0
  9 31  1  0  0  0  0
  9 32  1  0  0  0  0
 10 11  1  0  0  0  0
 10 12  1  0  0  0  0
 10 33  1  0  0  0  0
 11 34  1  0  0  0  0
 12 13  1  0  0  0  0
 12 35  1  0  0  0  0
 12 36  1  0  0  0  0
 13 21  1  0  0  0  0
 13 14  1  0  0  0  0
 14 15  2  0  0  0  0
 14 37  1  0  0  0  0
 15 16  1  0  0  0  0
 15 44  1  0  0  0  0
 16 21  2  0  0  0  0
 16 17  1  0  0  0  0
 17 18  2  0  0  0  0
 17 38  1  0  0  0  0
 18 19  1  0  0  0  0
 18 39  1  0  0  0  0
 19 20  2  0  0  0  0
 19 40  1  0  0  0  0
 20 21  1  0  0  0  0
 20 41  1  0  0  0  0
 22 23  2  0  0  0  0
 22 42  1  0  0  0  0
 23 43  1  0  0  0  0
M  CHG  1  15   1
M  END
> <s_m_source_file>
AV-unprocessed.smi

> <i_m_source_file_index>
2160

> <i_lp_mmshare_version>
43012

> <i_f3d_flags>
0

> <s_epik_input>
W0NIM11PYzFbY0hdW2NIXWMoW2NIXVtjSF0xKVtDSDJdT1tDSDJdW0NASF0oW09IXSlbQ0gyXW4oW2NIXW4yKWMoYzIzKVtjSF1bY0hdW2NIXVtjSF0z

> <s_epik_cmdline>
J2VwaWtfcHl0aG9uJywgJy1waCcsICc3LjAnLCAnLXRuJywgJzgnLCAnLW1hJywgJzIwMCcsICctbWV0YWxfYmluZGluZycsICctaW1hZScsICc8aW5maWxlLm1hZT4nLCAnLW9tYWUnLCAnPG91dGZpbGUubWFlPic=

> <r_lp_tautomer_probability>
1

> <r_epik_Ionization_Penalty>
1.28975

> <r_epik_Ionization_Penalty_Charging>
1.28975

> <r_epik_Ionization_Penalty_Neutral>
9.74819e-07

> <r_epik_State_Penalty>
1.36276

> <r_epik_Charging_Adjusted_Penalty>
2.65251

> <i_epik_Tot_Q>
1

> <i_epik_Tot_abs_Q>
1

> <r_epik_Metal_State_Penalty>
5.39298

> <b_epik_Metal_Only>
0

> <s_lp_Force_Field>
OPLS_2005

> <r_lp_Energy>
25.2455

> <b_lp_Chiralities_Consistent>
1

> <s_lp_Variant>
AV-unprocessed.smi:2160-4

> <Gold.Version>
5.8.1

> <Gold.Id.Protein>
6NUR|6NUR_protein|mol2

> <Gold.PLP.Fitness>
52.0114

> <Gold.PLP.PLP>
-45.0922

> <Gold.PLP.part.hbond>
-1.2793

> <Gold.PLP.part.metal>
0.0000

> <Gold.PLP.part.buried>
-3.6697

> <Gold.PLP.part.nonpolar>
-40.0398

> <Gold.PLP.part.repulsive>
0.2179

> <Gold.PLP.ligand.clash>
0.0000

> <Gold.PLP.ligand.torsion>
1.0864

> <Gold.PLP.Chemscore.Hbond>
2.0000

> <Gold.PLP.Chemscore.CHOScore>
1.0000

> <Gold.PLP.Chemscore.Metal>
0.0000

> <Gold.Chemscore.Hbonds>
donor molecule, donor type, donor heavy atom, donor atom, acceptor molecule, acceptor atom, score
      L1  H    15    44       P1  7948  2.00
      L1  C    14    37       P1  7957  1.00

> <Gold.PLP.Chemscore.Internal.Correction>
0.0920

> <Gold.Rescore>
     Score         DG    S(hbond)    S(metal)    S(lipo)     H(rot)  DE(clash)    DE(int)     intcor
     16.37     -17.74       0.96        0.00     137.25       2.74       0.23       1.14       ----

> <Gold.Chemscore.Fitness>
16.3662

> <Gold.Chemscore.DG>
-17.7390

> <Gold.Chemscore.ZeroCoef>
-5.4800

> <Gold.Chemscore.Hbond>
0.9617

> <Gold.Chemscore.Metal>
0.0000

> <Gold.Chemscore.Lipo>
137.2530

> <Gold.Chemscore.Internal_Hbond>
0.0000

> <Gold.Chemscore.DEClash>
0.2322

> <Gold.Chemscore.DEInternal>
1.1406

> <Gold.Chemscore.Rot>
2.7390

> <Gold.Chemscore.Internal.Correction>
   9.000000E+99

> <Gold.Chemscore.Hbonds>
donor molecule, donor type, donor heavy atom, donor atom, acceptor molecule, acceptor atom, score
      L1  H    15    44       P1  7948  0.73

> <Gold.Chemscore.Hbond.Weighted>
-3.2122

> <Gold.Chemscore.Metal.Weighted>
-0.0000

> <Gold.Chemscore.Lipo.Weighted>
-16.0586

> <Gold.Chemscore.Internal_Hbond.Weighted>
0.0000

> <Gold.Chemscore.DEClash.Weighted>
0.2322

> <Gold.Chemscore.DEInternal.Weighted>
1.1406

> <Gold.Chemscore.Rot.Weighted>
7.0118

> <Gold.Chemscore.Internal.Correction.Weighted>
   9.000000E+99

> <Gold.Protein.RotatedTorsions>
[ 6907 6896 6895 6894 ] final  -69.25 input  -60.11 | X-H torsion
[ 7974 7965 7964 7962 ] final  160.68 input  175.53 | X-H torsion
[ 8008 7997 7996 7995 ] final -154.73 input   59.86 | X-H torsion
[ 10167 10162 10161 10158 ] final -151.42 input  -65.29 | X-H torsion
[ 10718 10713 10712 10709 ] final  -89.28 input   66.30 | X-H torsion
[ 10763 10752 10751 10750 ] final  -92.67 input  -60.55 | X-H torsion
[ 11005 11000 10999 10996 ] final  131.77 input  -57.11 | X-H torsion

> <Gold.Protein.ActiveResidues>
 VAL166  LYS551  ARG553  GLY616  TRP617  ASP618  TYR619  PRO620  LYS621  CYS622 
 ASP623  PHE694  ASN695  SER759  ASP760  ASP761  ALA762  ILE779  LEU786  VAL792 
 PHE793  MET794  SER795  GLU796  ALA797  LYS798  CYS799  TRP800  GLU811  SER814 

> <Gold.Protein.RotatedAtoms>
  150.7315  134.5623  159.5848 H   0  0  0  0  0  0  0  0  0  0  0  0  # atno 6907 bound_to 6896
  152.3083  134.7525  160.0351 H   0  0  0  0  0  0  0  0  0  0  0  0  # atno 6908 bound_to 6896
  151.8082  133.3343  159.3584 H   0  0  0  0  0  0  0  0  0  0  0  0  # atno 6909 bound_to 6896
  144.7724  139.7791  143.6291 H   0  0  0  0  0  0  0  0  0  0  0  0  # atno 7974 bound_to 7965
  155.6909  140.0755  157.2448 H   0  0  0  0  0  0  0  0  0  0  0  0  # atno 8008 bound_to 7997
  154.4089  140.1665  156.2138 H   0  0  0  0  0  0  0  0  0  0  0  0  # atno 8009 bound_to 7997
  155.9452  140.3381  155.6364 H   0  0  0  0  0  0  0  0  0  0  0  0  # atno 8010 bound_to 7997
  139.7269  143.8869  152.2522 H   0  0  0  0  0  0  0  0  0  0  0  0  # atno 10167 bound_to 10162
  155.9984  130.4866  150.5147 H   0  0  0  0  0  0  0  0  0  0  0  0  # atno 10718 bound_to 10713
  154.6884  135.5223  153.8358 H   0  0  0  0  0  0  0  0  0  0  0  0  # atno 10763 bound_to 10752
  153.0614  135.6569  154.0464 H   0  0  0  0  0  0  0  0  0  0  0  0  # atno 10764 bound_to 10752
  154.0341  135.2983  155.3344 H   0  0  0  0  0  0  0  0  0  0  0  0  # atno 10765 bound_to 10752
  139.9750  134.9566  156.9486 H   0  0  0  0  0  0  0  0  0  0  0  0  # atno 11005 bound_to 11000
  146.1881  139.5107  142.9823 LP  0  0  0  0  0  0  0  0  0  0  0  0  # atno 17320 bound_to 7965
  145.6283  141.0309  143.1877 LP  0  0  0  0  0  0  0  0  0  0  0  0  # atno 17321 bound_to 7965
  139.8781  144.7032  150.8909 LP  0  0  0  0  0  0  0  0  0  0  0  0  # atno 17342 bound_to 10162
  140.7764  143.3683  151.1697 LP  0  0  0  0  0  0  0  0  0  0  0  0  # atno 17343 bound_to 10162
  157.3116  131.0665  151.1997 LP  0  0  0  0  0  0  0  0  0  0  0  0  # atno 17370 bound_to 10713
  157.2941  130.6810  149.6129 LP  0  0  0  0  0  0  0  0  0  0  0  0  # atno 17371 bound_to 10713
  140.5214  134.0904  155.7293 LP  0  0  0  0  0  0  0  0  0  0  0  0  # atno 17394 bound_to 11000
  141.1428  133.9109  157.2287 LP  0  0  0  0  0  0  0  0  0  0  0  0  # atno 17395 bound_to 11000

$$$$
