AV-unprocessed.smi:1889|AV-procd|sdf|7659|dock1
  -GOLD-   22720 9393D 1   1.00000     0.00000
 Structure written by MMmdl.
 36 37  0  0  0  0  0  0  0  0  1 V2000
  151.2189  143.0843  159.0149 C   0  0  0  0  0  0  0  0  0  0  0  0
  150.6066  142.0531  158.0607 C   0  0  0  0  0  0  0  0  0  0  0  0
  151.1463  142.1813  156.6293 C   0  0  0  0  0  0  0  0  0  0  0  0
  150.6801  141.0769  155.7402 C   0  0  0  0  0  0  0  0  0  0  0  0
  151.5163  140.1833  155.1962 N   0  0  0  0  0  0  0  0  0  0  0  0
  150.8582  139.2690  154.3845 N   0  0  0  0  0  0  0  0  0  0  0  0
  149.5455  139.5097  154.3240 C   0  0  0  0  0  0  0  0  0  0  0  0
  148.7462  138.6536  153.5261 N   0  0  0  0  0  0  0  0  0  0  0  0
  147.4082  138.6429  153.4119 C   0  0  0  0  0  0  0  0  0  0  0  0
  146.6375  139.4092  153.9895 O   0  0  0  0  0  0  0  0  0  0  0  0
  147.0011  137.6779  152.5752 N   0  0  0  0  0  0  0  0  0  0  0  0
  145.6109  137.3948  152.2340 C   0  0  0  0  0  0  0  0  0  0  0  0
  145.4544  136.0506  151.4969 C   0  0  2  0  0  0  0  0  0  0  0  0
  144.0234  135.6553  151.1891 C   0  0  0  0  0  0  0  0  0  0  0  0
  144.1579  134.1560  150.9415 C   0  0  0  0  0  0  0  0  0  0  0  0
  145.2358  133.7197  151.7649 O   0  0  0  0  0  0  0  0  0  0  0  0
  145.9267  134.8427  152.3047 C   0  0  0  0  0  0  0  0  0  0  0  0
  148.9945  140.8910  155.2719 S   0  0  0  0  0  0  0  0  0  0  0  0
  150.8193  142.9669  160.0224 H   0  0  0  0  0  0  0  0  0  0  0  0
  151.0016  144.1010  158.6872 H   0  0  0  0  0  0  0  0  0  0  0  0
  152.3020  142.9737  159.0716 H   0  0  0  0  0  0  0  0  0  0  0  0
  150.8085  141.0502  158.4385 H   0  0  0  0  0  0  0  0  0  0  0  0
  149.5221  142.1688  158.0550 H   0  0  0  0  0  0  0  0  0  0  0  0
  150.8383  143.1340  156.1961 H   0  0  0  0  0  0  0  0  0  0  0  0
  152.2368  142.1814  156.6385 H   0  0  0  0  0  0  0  0  0  0  0  0
  149.2525  137.9707  152.9818 H   0  0  0  0  0  0  0  0  0  0  0  0
  147.7025  137.0948  152.1424 H   0  0  0  0  0  0  0  0  0  0  0  0
  144.9982  137.4039  153.1369 H   0  0  0  0  0  0  0  0  0  0  0  0
  145.2471  138.2101  151.6081 H   0  0  0  0  0  0  0  0  0  0  0  0
  146.0161  136.0770  150.5615 H   0  0  0  0  0  0  0  0  0  0  0  0
  143.3832  135.8361  152.0537 H   0  0  0  0  0  0  0  0  0  0  0  0
  143.6042  136.1885  150.3350 H   0  0  0  0  0  0  0  0  0  0  0  0
  143.2393  133.6133  151.1662 H   0  0  0  0  0  0  0  0  0  0  0  0
  144.4178  133.9640  149.8997 H   0  0  0  0  0  0  0  0  0  0  0  0
  147.0072  134.7059  152.2570 H   0  0  0  0  0  0  0  0  0  0  0  0
  145.6456  134.9442  153.3538 H   0  0  0  0  0  0  0  0  0  0  0  0
  1  2  1  0  0  0  0
  1 19  1  0  0  0  0
  1 20  1  0  0  0  0
  1 21  1  0  0  0  0
  2  3  1  0  0  0  0
  2 22  1  0  0  0  0
  2 23  1  0  0  0  0
  3  4  1  0  0  0  0
  3 24  1  0  0  0  0
  3 25  1  0  0  0  0
  4 18  1  0  0  0  0
  4  5  2  0  0  0  0
  5  6  1  0  0  0  0
  6  7  2  0  0  0  0
  7  8  1  0  0  0  0
  7 18  1  0  0  0  0
  8  9  1  0  0  0  0
  8 26  1  0  0  0  0
  9 10  2  0  0  0  0
  9 11  1  0  0  0  0
 11 12  1  0  0  0  0
 11 27  1  0  0  0  0
 12 13  1  0  0  0  0
 12 28  1  0  0  0  0
 12 29  1  0  0  0  0
 13 17  1  0  0  0  0
 13 14  1  0  0  0  0
 13 30  1  0  0  0  0
 14 15  1  0  0  0  0
 14 31  1  0  0  0  0
 14 32  1  0  0  0  0
 15 16  1  0  0  0  0
 15 33  1  0  0  0  0
 15 34  1  0  0  0  0
 16 17  1  0  0  0  0
 17 35  1  0  0  0  0
 17 36  1  0  0  0  0
M  END
> <s_m_source_file>
AV-unprocessed.smi

> <i_m_source_file_index>
1889

> <i_lp_mmshare_version>
43012

> <i_f3d_flags>
0

> <s_epik_input>
W0NIM11bQ0gyXVtDSDJdYzFubmMoczEpW05IXUMoPU8pW05IXVtDSDJdW0NAQEhdMltDSDJdW0NIMl1PW0NIMl0y

> <s_epik_cmdline>
J2VwaWtfcHl0aG9uJywgJy1waCcsICc3LjAnLCAnLXRuJywgJzgnLCAnLW1hJywgJzIwMCcsICctbWV0YWxfYmluZGluZycsICctaW1hZScsICc8aW5maWxlLm1hZT4nLCAnLW9tYWUnLCAnPG91dGZpbGUubWFlPic=

> <r_lp_tautomer_probability>
1

> <r_epik_Ionization_Penalty>
0.000450509

> <r_epik_Ionization_Penalty_Charging>
0

> <r_epik_Ionization_Penalty_Neutral>
0.000450509

> <r_epik_State_Penalty>
-0

> <r_epik_Charging_Adjusted_Penalty>
0

> <i_epik_Tot_Q>
0

> <i_epik_Tot_abs_Q>
0

> <r_epik_Metal_State_Penalty>
0.207747

> <b_epik_Metal_Only>
0

> <s_lp_Force_Field>
OPLS_2005

> <r_lp_Energy>
11.6585

> <b_lp_Chiralities_Consistent>
1

> <s_lp_Variant>
AV-unprocessed.smi:1889-1

> <Gold.Version>
5.8.1

> <Gold.Id.Protein>
6NUR|6NUR_protein|mol2

> <Gold.PLP.Fitness>
36.5636

> <Gold.PLP.PLP>
-31.4508

> <Gold.PLP.part.hbond>
-4.9834

> <Gold.PLP.part.metal>
0.0000

> <Gold.PLP.part.buried>
-4.1970

> <Gold.PLP.part.nonpolar>
-23.4915

> <Gold.PLP.part.repulsive>
0.5336

> <Gold.PLP.ligand.clash>
0.0000

> <Gold.PLP.ligand.torsion>
0.1268

> <Gold.PLP.Chemscore.Hbond>
1.7722

> <Gold.PLP.Chemscore.CHOScore>
0.0000

> <Gold.PLP.Chemscore.Metal>
0.0000

> <Gold.Chemscore.Hbonds>
donor molecule, donor type, donor heavy atom, donor atom, acceptor molecule, acceptor atom, score
      L1  H     8    26       P1  7948  0.80
      L1  H    11    27       P1  7948  0.99

> <Gold.PLP.Chemscore.Internal.Correction>
0.0499

> <Gold.Rescore>
     Score         DG    S(hbond)    S(metal)    S(lipo)     H(rot)  DE(clash)    DE(int)     intcor
     13.89     -14.78       1.86        0.00      62.13       1.63       0.02       0.87       ----

> <Gold.Chemscore.Fitness>
13.8944

> <Gold.Chemscore.DG>
-14.7833

> <Gold.Chemscore.ZeroCoef>
-5.4800

> <Gold.Chemscore.Hbond>
1.8592

> <Gold.Chemscore.Metal>
0.0000

> <Gold.Chemscore.Lipo>
62.1315

> <Gold.Chemscore.Internal_Hbond>
0.0000

> <Gold.Chemscore.DEClash>
0.0178

> <Gold.Chemscore.DEInternal>
0.8711

> <Gold.Chemscore.Rot>
1.6311

> <Gold.Chemscore.Internal.Correction>
   9.000000E+99

> <Gold.Chemscore.Hbonds>
donor molecule, donor type, donor heavy atom, donor atom, acceptor molecule, acceptor atom, score
      L1  H     8    26       P1  7948  0.75
      L1  H    11    27       P1  7948  0.92

> <Gold.Chemscore.Hbond.Weighted>
-6.2096

> <Gold.Chemscore.Metal.Weighted>
-0.0000

> <Gold.Chemscore.Lipo.Weighted>
-7.2694

> <Gold.Chemscore.Internal_Hbond.Weighted>
0.0000

> <Gold.Chemscore.DEClash.Weighted>
0.0178

> <Gold.Chemscore.DEInternal.Weighted>
0.8711

> <Gold.Chemscore.Rot.Weighted>
4.1757

> <Gold.Chemscore.Internal.Correction.Weighted>
   9.000000E+99

> <Gold.Protein.RotatedTorsions>
[ 6907 6896 6895 6894 ] final  106.52 input  -60.11 | X-H torsion
[ 7974 7965 7964 7962 ] final  -89.79 input  175.53 | X-H torsion
[ 8008 7997 7996 7995 ] final   -2.58 input   59.86 | X-H torsion
[ 10167 10162 10161 10158 ] final  126.36 input  -65.29 | X-H torsion
[ 10718 10713 10712 10709 ] final  126.92 input   66.30 | X-H torsion
[ 10763 10752 10751 10750 ] final   80.15 input  -60.55 | X-H torsion
[ 11005 11000 10999 10996 ] final  138.26 input  -57.11 | X-H torsion

> <Gold.Protein.ActiveResidues>
 VAL166  LYS551  ARG553  GLY616  TRP617  ASP618  TYR619  PRO620  LYS621  CYS622 
 ASP623  PHE694  ASN695  SER759  ASP760  ASP761  ALA762  ILE779  LEU786  VAL792 
 PHE793  MET794  SER795  GLU796  ALA797  LYS798  CYS799  TRP800  GLU811  SER814 

> <Gold.Protein.RotatedAtoms>
  152.5190  133.9369  159.7607 H   0  0  0  0  0  0  0  0  0  0  0  0  # atno 6907 bound_to 6896
  150.9707  133.6339  159.2745 H   0  0  0  0  0  0  0  0  0  0  0  0  # atno 6908 bound_to 6896
  151.3551  135.0898  159.9469 H   0  0  0  0  0  0  0  0  0  0  0  0  # atno 6909 bound_to 6896
  145.4350  140.9557  143.2106 H   0  0  0  0  0  0  0  0  0  0  0  0  # atno 7974 bound_to 7965
  154.6341  140.2531  155.7398 H   0  0  0  0  0  0  0  0  0  0  0  0  # atno 8008 bound_to 7997
  156.2495  140.2901  156.0626 H   0  0  0  0  0  0  0  0  0  0  0  0  # atno 8009 bound_to 7997
  155.1698  140.0386  157.2851 H   0  0  0  0  0  0  0  0  0  0  0  0  # atno 8010 bound_to 7997
  139.5635  144.6897  151.3975 H   0  0  0  0  0  0  0  0  0  0  0  0  # atno 10167 bound_to 10162
  157.5377  131.1097  150.8909 H   0  0  0  0  0  0  0  0  0  0  0  0  # atno 10718 bound_to 10713
  153.1010  135.4813  154.8867 H   0  0  0  0  0  0  0  0  0  0  0  0  # atno 10763 bound_to 10752
  154.7379  135.3075  154.8782 H   0  0  0  0  0  0  0  0  0  0  0  0  # atno 10764 bound_to 10752
  153.9399  135.6835  153.4798 H   0  0  0  0  0  0  0  0  0  0  0  0  # atno 10765 bound_to 10752
  140.0171  134.9413  157.0398 H   0  0  0  0  0  0  0  0  0  0  0  0  # atno 11005 bound_to 11000
  144.8158  139.5880  143.7009 LP  0  0  0  0  0  0  0  0  0  0  0  0  # atno 17320 bound_to 7965
  146.2586  139.6360  142.9377 LP  0  0  0  0  0  0  0  0  0  0  0  0  # atno 17321 bound_to 7965
  140.6917  143.7845  150.7265 LP  0  0  0  0  0  0  0  0  0  0  0  0  # atno 17342 bound_to 10162
  140.1329  143.4509  152.2242 LP  0  0  0  0  0  0  0  0  0  0  0  0  # atno 17343 bound_to 10162
  156.9471  130.5406  149.5281 LP  0  0  0  0  0  0  0  0  0  0  0  0  # atno 17370 bound_to 10713
  156.0472  130.5546  150.8907 LP  0  0  0  0  0  0  0  0  0  0  0  0  # atno 17371 bound_to 10713
  140.4452  134.1639  155.7177 LP  0  0  0  0  0  0  0  0  0  0  0  0  # atno 17394 bound_to 11000
  141.1750  133.8533  157.1451 LP  0  0  0  0  0  0  0  0  0  0  0  0  # atno 17395 bound_to 11000

$$$$
