AV-unprocessed.smi:1434|AV-procd|sdf|5853|dock10
  -GOLD-   22720 5523D 1   1.00000     0.00000
 Structure written by MMmdl.
 43 44  0  0  0  0  0  0  0  0  2 V2000
  147.1444  134.8001  160.7642 C   0  0  0  0  0  0  0  0  0  0  0  0
  147.5741  136.3888  159.9487 S   0  0  0  0  0  0  0  0  0  0  0  0
  146.4985  136.6443  158.9772 O   0  0  0  0  0  0  0  0  0  0  0  0
  147.7416  137.3638  161.0385 O   0  0  0  0  0  0  0  0  0  0  0  0
  148.9774  135.9892  159.2406 N   0  5  0  0  0  0  0  0  0  0  0  0
  149.3332  136.5709  157.9547 C   0  0  2  0  0  0  0  0  0  0  0  0
  149.6711  135.4667  156.9171 C   0  0  0  0  0  0  0  0  0  0  0  0
  150.3055  136.0167  155.6111 C   0  0  0  0  0  0  0  0  0  0  0  0
  151.4957  136.9645  155.8838 C   0  0  0  0  0  0  0  0  0  0  0  0
  151.0174  138.0208  156.8038 N   0  0  0  0  0  0  0  0  0  0  0  0
  150.9518  139.3488  156.5197 C   0  0  0  0  0  0  0  0  0  0  0  0
  151.3384  139.8330  155.4550 O   0  0  0  0  0  0  0  0  0  0  0  0
  150.4816  140.1158  157.5182 N   0  0  0  0  0  0  0  0  0  0  0  0
  150.3880  141.5708  157.4881 C   0  0  0  0  0  0  0  0  0  0  0  0
  151.7733  142.2262  157.6178 C   0  0  0  0  0  0  0  0  0  0  0  0
  151.7909  143.3339  158.6535 C   0  0  0  0  0  0  0  0  0  0  0  0
  151.9645  144.6801  158.2669 C   0  0  0  0  0  0  0  0  0  0  0  0
  151.9769  145.6693  159.2693 C   0  0  0  0  0  0  0  0  0  0  0  0
  151.8181  145.2765  160.6123 C   0  0  0  0  0  0  0  0  0  0  0  0
  151.6532  143.9057  160.8945 C   0  0  0  0  0  0  0  0  0  0  0  0
  151.6394  142.9494  159.9410 N   0  0  0  0  0  0  0  0  0  0  0  0
  150.5829  137.4809  158.1130 C   0  0  0  0  0  0  0  0  0  0  0  0
  146.1996  134.9117  161.2950 H   0  0  0  0  0  0  0  0  0  0  0  0
  147.9287  134.5313  161.4710 H   0  0  0  0  0  0  0  0  0  0  0  0
  147.0485  134.0189  160.0107 H   0  0  0  0  0  0  0  0  0  0  0  0
  148.5248  137.1850  157.5557 H   0  0  0  0  0  0  0  0  0  0  0  0
  150.3702  134.7573  157.3630 H   0  0  0  0  0  0  0  0  0  0  0  0
  148.7766  134.8951  156.6695 H   0  0  0  0  0  0  0  0  0  0  0  0
  150.6355  135.1843  154.9892 H   0  0  0  0  0  0  0  0  0  0  0  0
  149.5502  136.5453  155.0258 H   0  0  0  0  0  0  0  0  0  0  0  0
  152.3058  136.4157  156.3663 H   0  0  0  0  0  0  0  0  0  0  0  0
  151.9080  137.3297  154.9434 H   0  0  0  0  0  0  0  0  0  0  0  0
  150.1975  139.6562  158.3710 H   0  0  0  0  0  0  0  0  0  0  0  0
  149.8929  141.8943  156.5708 H   0  0  0  0  0  0  0  0  0  0  0  0
  149.7500  141.8863  158.3139 H   0  0  0  0  0  0  0  0  0  0  0  0
  152.5177  141.4743  157.8836 H   0  0  0  0  0  0  0  0  0  0  0  0
  152.0878  142.6408  156.6589 H   0  0  0  0  0  0  0  0  0  0  0  0
  152.0858  144.9502  157.2282 H   0  0  0  0  0  0  0  0  0  0  0  0
  152.1061  146.7104  159.0126 H   0  0  0  0  0  0  0  0  0  0  0  0
  151.8222  146.0075  161.4073 H   0  0  0  0  0  0  0  0  0  0  0  0
  151.5292  143.5682  161.9129 H   0  0  0  0  0  0  0  0  0  0  0  0
  150.3669  138.2694  158.8358 H   0  0  0  0  0  0  0  0  0  0  0  0
  151.4097  136.9127  158.5428 H   0  0  0  0  0  0  0  0  0  0  0  0
  1  2  1  0  0  0  0
  1 23  1  0  0  0  0
  1 24  1  0  0  0  0
  1 25  1  0  0  0  0
  2  3  2  0  0  0  0
  2  4  2  0  0  0  0
  2  5  1  0  0  0  0
  5  6  1  0  0  0  0
  6 22  1  0  0  0  0
  6  7  1  0  0  0  0
  6 26  1  0  0  0  0
  7  8  1  0  0  0  0
  7 27  1  0  0  0  0
  7 28  1  0  0  0  0
  8  9  1  0  0  0  0
  8 29  1  0  0  0  0
  8 30  1  0  0  0  0
  9 10  1  0  0  0  0
  9 31  1  0  0  0  0
  9 32  1  0  0  0  0
 10 11  1  0  0  0  0
 10 22  1  0  0  0  0
 11 12  2  0  0  0  0
 11 13  1  0  0  0  0
 13 14  1  0  0  0  0
 13 33  1  0  0  0  0
 14 15  1  0  0  0  0
 14 34  1  0  0  0  0
 14 35  1  0  0  0  0
 15 16  1  0  0  0  0
 15 36  1  0  0  0  0
 15 37  1  0  0  0  0
 16 21  1  0  0  0  0
 16 17  2  0  0  0  0
 17 18  1  0  0  0  0
 17 38  1  0  0  0  0
 18 19  2  0  0  0  0
 18 39  1  0  0  0  0
 19 20  1  0  0  0  0
 19 40  1  0  0  0  0
 20 21  2  0  0  0  0
 20 41  1  0  0  0  0
 22 42  1  0  0  0  0
 22 43  1  0  0  0  0
M  CHG  1   5  -1
M  END
> <s_m_source_file>
AV-unprocessed.smi

> <i_m_source_file_index>
1434

> <i_lp_mmshare_version>
43012

> <i_f3d_flags>
0

> <s_epik_input>
W0NIM11TKD1PKSg9TylbTkhdW0NAQEhdMVtDSDJdW0NIMl1bQ0gyXU4oW0NIMl0xKUMoPU8pW05IXVtDSDJdW0NIMl1jMltjSF1bY0hdW2NIXVtjSF1uMg==

> <s_epik_cmdline>
J2VwaWtfcHl0aG9uJywgJy1waCcsICc3LjAnLCAnLXRuJywgJzgnLCAnLW1hJywgJzIwMCcsICctbWV0YWxfYmluZGluZycsICctaW1hZScsICc8aW5maWxlLm1hZT4nLCAnLW9tYWUnLCAnPG91dGZpbGUubWFlPic=

> <r_epik_Ionization_Penalty>
6.57847

> <r_epik_Ionization_Penalty_Charging>
6.53351

> <r_epik_Ionization_Penalty_Neutral>
0.0449527

> <r_epik_State_Penalty>
6.57157

> <r_epik_Charging_Adjusted_Penalty>
13.1051

> <i_epik_Tot_Q>
-1

> <i_epik_Tot_abs_Q>
1

> <r_epik_Metal_State_Penalty>
2.53928

> <b_epik_Metal_Only>
1

> <s_lp_Force_Field>
OPLS_2005

> <r_lp_Energy>
19.5099

> <b_lp_Chiralities_Consistent>
1

> <s_lp_Variant>
AV-unprocessed.smi:1434-5

> <Gold.Version>
5.8.1

> <Gold.Id.Protein>
6NUR|6NUR_protein|mol2

> <Gold.PLP.Fitness>
46.2185

> <Gold.PLP.PLP>
-35.4018

> <Gold.PLP.part.hbond>
-4.0000

> <Gold.PLP.part.metal>
0.0000

> <Gold.PLP.part.buried>
-5.2667

> <Gold.PLP.part.nonpolar>
-26.5495

> <Gold.PLP.part.repulsive>
0.0761

> <Gold.PLP.ligand.clash>
1.6905

> <Gold.PLP.ligand.torsion>
1.1037

> <Gold.PLP.Chemscore.Hbond>
4.5640

> <Gold.PLP.Chemscore.CHOScore>
0.0000

> <Gold.PLP.Chemscore.Metal>
0.0000

> <Gold.Chemscore.Hbonds>
donor molecule, donor type, donor heavy atom, donor atom, acceptor molecule, acceptor atom, score
      P1  H  6896  6909       L1     5  1.14
      P1  H  6931  6943       L1     4  0.83
      P1  H  6934  6947       L1     4  0.83
      P1  H  7989  7998       L1    12  0.50

> <Gold.PLP.Chemscore.Internal.Correction>
1.0227

> <Gold.Rescore>
     Score         DG    S(hbond)    S(metal)    S(lipo)     H(rot)  DE(clash)    DE(int)     intcor
     22.36     -23.55       3.21        0.00      99.56       1.68       0.10       1.09       ----

> <Gold.Chemscore.Fitness>
22.3577

> <Gold.Chemscore.DG>
-23.5462

> <Gold.Chemscore.ZeroCoef>
-5.4800

> <Gold.Chemscore.Hbond>
3.2100

> <Gold.Chemscore.Metal>
0.0000

> <Gold.Chemscore.Lipo>
99.5648

> <Gold.Chemscore.Internal_Hbond>
0.0000

> <Gold.Chemscore.DEClash>
0.0985

> <Gold.Chemscore.DEInternal>
1.0900

> <Gold.Chemscore.Rot>
1.6813

> <Gold.Chemscore.Internal.Correction>
   9.000000E+99

> <Gold.Chemscore.Hbonds>
donor molecule, donor type, donor heavy atom, donor atom, acceptor molecule, acceptor atom, score
      P1  H  6896  6909       L1     5  0.17
      P1  H  6931  6943       L1     4  0.81
      P1  H  6934  6947       L1     4  0.81
      P1  H  7989  7998       L1    12  0.49

> <Gold.Chemscore.Hbond.Weighted>
-10.7213

> <Gold.Chemscore.Metal.Weighted>
-0.0000

> <Gold.Chemscore.Lipo.Weighted>
-11.6491

> <Gold.Chemscore.Internal_Hbond.Weighted>
0.0000

> <Gold.Chemscore.DEClash.Weighted>
0.0985

> <Gold.Chemscore.DEInternal.Weighted>
1.0900

> <Gold.Chemscore.Rot.Weighted>
4.3042

> <Gold.Chemscore.Internal.Correction.Weighted>
   9.000000E+99

> <Gold.Protein.RotatedTorsions>
[ 6907 6896 6895 6894 ] final   54.26 input  -60.11 | X-H torsion
[ 7974 7965 7964 7962 ] final  113.66 input  175.53 | X-H torsion
[ 8008 7997 7996 7995 ] final  118.49 input   59.86 | X-H torsion
[ 10167 10162 10161 10158 ] final  -14.78 input  -65.29 | X-H torsion
[ 10718 10713 10712 10709 ] final  -79.23 input   66.30 | X-H torsion
[ 10763 10752 10751 10750 ] final   58.83 input  -60.55 | X-H torsion
[ 11005 11000 10999 10996 ] final   50.86 input  -57.11 | X-H torsion

> <Gold.Protein.ActiveResidues>
 VAL166  LYS551  ARG553  GLY616  TRP617  ASP618  TYR619  PRO620  LYS621  CYS622 
 ASP623  PHE694  ASN695  SER759  ASP760  ASP761  ALA762  ILE779  LEU786  VAL792 
 PHE793  MET794  SER795  GLU796  ALA797  LYS798  CYS799  TRP800  GLU811  SER814 

> <Gold.Protein.RotatedAtoms>
  152.3421  134.7120  160.0260 H   0  0  0  0  0  0  0  0  0  0  0  0  # atno 6907 bound_to 6896
  151.7502  133.3321  159.3397 H   0  0  0  0  0  0  0  0  0  0  0  0  # atno 6908 bound_to 6896
  150.7486  134.6131  159.6141 H   0  0  0  0  0  0  0  0  0  0  0  0  # atno 6909 bound_to 6896
  145.2142  139.2892  143.4252 H   0  0  0  0  0  0  0  0  0  0  0  0  # atno 7974 bound_to 7965
  156.2549  140.2873  156.0843 H   0  0  0  0  0  0  0  0  0  0  0  0  # atno 8008 bound_to 7997
  155.1532  140.0398  157.2843 H   0  0  0  0  0  0  0  0  0  0  0  0  # atno 8009 bound_to 7997
  154.6445  140.2530  155.7290 H   0  0  0  0  0  0  0  0  0  0  0  0  # atno 8010 bound_to 7997
  140.7207  143.5286  150.9547 H   0  0  0  0  0  0  0  0  0  0  0  0  # atno 10167 bound_to 10162
  156.0098  130.4540  150.3616 H   0  0  0  0  0  0  0  0  0  0  0  0  # atno 10718 bound_to 10713
  152.9880  135.5593  154.5615 H   0  0  0  0  0  0  0  0  0  0  0  0  # atno 10763 bound_to 10752
  154.5033  135.2798  155.1405 H   0  0  0  0  0  0  0  0  0  0  0  0  # atno 10764 bound_to 10752
  154.2826  135.6342  153.5406 H   0  0  0  0  0  0  0  0  0  0  0  0  # atno 10765 bound_to 10752
  140.0981  134.5118  155.8788 H   0  0  0  0  0  0  0  0  0  0  0  0  # atno 11005 bound_to 11000
  146.3391  140.2427  142.8596 LP  0  0  0  0  0  0  0  0  0  0  0  0  # atno 17320 bound_to 7965
  144.9827  140.8474  143.5387 LP  0  0  0  0  0  0  0  0  0  0  0  0  # atno 17321 bound_to 7965
  139.9006  143.6841  152.3132 LP  0  0  0  0  0  0  0  0  0  0  0  0  # atno 17342 bound_to 10162
  139.7189  144.7606  151.0988 LP  0  0  0  0  0  0  0  0  0  0  0  0  # atno 17343 bound_to 10162
  157.1704  131.0367  151.2798 LP  0  0  0  0  0  0  0  0  0  0  0  0  # atno 17370 bound_to 10713
  157.4233  130.7450  149.6931 LP  0  0  0  0  0  0  0  0  0  0  0  0  # atno 17371 bound_to 10713
  141.2098  133.6687  156.6463 LP  0  0  0  0  0  0  0  0  0  0  0  0  # atno 17394 bound_to 11000
  140.3258  134.7970  157.4288 LP  0  0  0  0  0  0  0  0  0  0  0  0  # atno 17395 bound_to 11000

$$$$
