AV-unprocessed.smi:3105|AV-procd|sdf|11821|dock8
  -GOLD-   2272017193D 1   1.00000     0.00000
 Structure written by MMmdl.
 34 34  0  0  0  0  0  0  0  0  2 V2000
  151.7076  140.7046  157.7867 C   0  0  0  0  0  0  0  0  0  0  0  0
  151.0546  142.1014  157.7134 C   0  0  2  0  0  0  0  0  0  0  0  0
  150.6353  142.3923  156.3232 N   0  3  0  0  0  0  0  0  0  0  0  0
  149.8926  141.3077  155.6422 C   0  0  0  0  0  0  0  0  0  0  0  0
  150.8355  140.3414  154.8976 C   0  0  0  0  0  0  0  0  0  0  0  0
  150.2216  138.9717  154.5766 C   0  0  0  0  0  0  0  0  0  0  0  0
  149.9538  138.7235  153.2926 N   0  0  0  0  0  0  0  0  0  0  0  0
  149.9912  138.1485  155.4611 O   0  0  0  0  0  0  0  0  0  0  0  0
  151.9900  143.2307  158.2234 C   0  0  1  0  0  0  0  0  0  0  0  0
  151.3679  144.6316  158.0614 C   0  0  0  0  0  0  0  0  0  0  0  0
  152.4042  143.0249  159.6060 N   0  0  0  0  0  0  0  0  0  0  0  0
  153.1625  141.9958  160.1257 C   0  0  0  0  0  0  0  0  0  0  0  0
  153.2928  142.2204  161.4661 C   0  0  0  0  0  0  0  0  0  0  0  0
  152.5721  143.4284  161.6784 C   0  0  0  0  0  0  0  0  0  0  0  0
  152.0411  143.9071  160.5651 N   0  0  0  0  0  0  0  0  0  0  0  0
  151.9653  140.4304  158.8097 H   0  0  0  0  0  0  0  0  0  0  0  0
  152.6218  140.6666  157.1934 H   0  0  0  0  0  0  0  0  0  0  0  0
  151.0429  139.9245  157.4175 H   0  0  0  0  0  0  0  0  0  0  0  0
  150.1632  142.0950  158.3429 H   0  0  0  0  0  0  0  0  0  0  0  0
  150.0292  143.1998  156.3480 H   0  0  0  0  0  0  0  0  0  0  0  0
  149.2867  140.7522  156.3584 H   0  0  0  0  0  0  0  0  0  0  0  0
  149.1991  141.7546  154.9289 H   0  0  0  0  0  0  0  0  0  0  0  0
  151.1386  140.8016  153.9564 H   0  0  0  0  0  0  0  0  0  0  0  0
  151.7487  140.1925  155.4755 H   0  0  0  0  0  0  0  0  0  0  0  0
  149.5545  137.8372  153.0181 H   0  0  0  0  0  0  0  0  0  0  0  0
  150.1577  139.4243  152.5942 H   0  0  0  0  0  0  0  0  0  0  0  0
  152.9005  143.2064  157.6221 H   0  0  0  0  0  0  0  0  0  0  0  0
  151.1630  144.8620  157.0160 H   0  0  0  0  0  0  0  0  0  0  0  0
  152.0419  145.4033  158.4352 H   0  0  0  0  0  0  0  0  0  0  0  0
  150.4291  144.7196  158.6094 H   0  0  0  0  0  0  0  0  0  0  0  0
  153.5413  141.1961  159.5061 H   0  0  0  0  0  0  0  0  0  0  0  0
  153.8228  141.6141  162.1858 H   0  0  0  0  0  0  0  0  0  0  0  0
  152.4195  143.9673  162.6020 H   0  0  0  0  0  0  0  0  0  0  0  0
  151.4546  142.6238  155.7792 H   0  0  0  0  0  0  0  0  0  0  0  0
  1  2  1  0  0  0  0
  1 16  1  0  0  0  0
  1 17  1  0  0  0  0
  1 18  1  0  0  0  0
  2  3  1  0  0  0  0
  2  9  1  0  0  0  0
  2 19  1  0  0  0  0
  3  4  1  0  0  0  0
  3 20  1  0  0  0  0
  3 34  1  0  0  0  0
  4  5  1  0  0  0  0
  4 21  1  0  0  0  0
  4 22  1  0  0  0  0
  5  6  1  0  0  0  0
  5 23  1  0  0  0  0
  5 24  1  0  0  0  0
  6  7  1  0  0  0  0
  6  8  2  0  0  0  0
  7 25  1  0  0  0  0
  7 26  1  0  0  0  0
  9 10  1  0  0  0  0
  9 11  1  0  0  0  0
  9 27  1  0  0  0  0
 10 28  1  0  0  0  0
 10 29  1  0  0  0  0
 10 30  1  0  0  0  0
 11 15  1  0  0  0  0
 11 12  1  0  0  0  0
 12 13  2  0  0  0  0
 12 31  1  0  0  0  0
 13 14  1  0  0  0  0
 13 32  1  0  0  0  0
 14 15  2  0  0  0  0
 14 33  1  0  0  0  0
M  CHG  1   3   1
M  END
> <s_m_source_file>
AV-unprocessed.smi

> <i_m_source_file_index>
3105

> <i_lp_mmshare_version>
43012

> <i_f3d_flags>
0

> <s_epik_input>
W05IMl1DKD1PKVtDSDJdW0NIMl1bTkhdW0NAQEhdKFtDSDNdKVtDQEhdKFtDSDNdKW4xW2NIXVtjSF1bY0hdbjE=

> <s_epik_cmdline>
J2VwaWtfcHl0aG9uJywgJy1waCcsICc3LjAnLCAnLXRuJywgJzgnLCAnLW1hJywgJzIwMCcsICctbWV0YWxfYmluZGluZycsICctaW1hZScsICc8aW5maWxlLm1hZT4nLCAnLW9tYWUnLCAnPG91dGZpbGUubWFlPic=

> <r_lp_tautomer_probability>
1

> <r_epik_Ionization_Penalty>
0.00475669

> <r_epik_Ionization_Penalty_Charging>
0.00474654

> <r_epik_Ionization_Penalty_Neutral>
1.01546e-05

> <r_epik_State_Penalty>
-0

> <r_epik_Charging_Adjusted_Penalty>
0.00474654

> <i_epik_Tot_Q>
1

> <i_epik_Tot_abs_Q>
1

> <r_epik_Metal_State_Penalty>
-0

> <b_epik_Metal_Only>
0

> <s_lp_Force_Field>
OPLS_2005

> <r_lp_Energy>
6.92169

> <b_lp_Chiralities_Consistent>
1

> <s_lp_Variant>
AV-unprocessed.smi:3105-3

> <Gold.Version>
5.8.1

> <Gold.Id.Protein>
6NUR|6NUR_protein|mol2

> <Gold.PLP.Fitness>
48.8201

> <Gold.PLP.PLP>
-37.8965

> <Gold.PLP.part.hbond>
-3.0000

> <Gold.PLP.part.metal>
0.0000

> <Gold.PLP.part.buried>
-3.4892

> <Gold.PLP.part.nonpolar>
-31.8216

> <Gold.PLP.part.repulsive>
0.3062

> <Gold.PLP.ligand.clash>
0.0000

> <Gold.PLP.ligand.torsion>
0.5557

> <Gold.PLP.Chemscore.Hbond>
3.9680

> <Gold.PLP.Chemscore.CHOScore>
0.0000

> <Gold.PLP.Chemscore.Metal>
0.0000

> <Gold.Chemscore.Hbonds>
donor molecule, donor type, donor heavy atom, donor atom, acceptor molecule, acceptor atom, score
      L1  H     3    20       P1  8028  2.00
      L1  H     7    25       P1  7948  1.00
      L1  H     7    26       P1  7957  0.85

> <Gold.PLP.Chemscore.Internal.Correction>
0.1310

> <Gold.Rescore>
     Score         DG    S(hbond)    S(metal)    S(lipo)     H(rot)  DE(clash)    DE(int)     intcor
     16.14     -17.58       2.83        0.00      85.10       2.85       0.65       0.80       ----

> <Gold.Chemscore.Fitness>
16.1416

> <Gold.Chemscore.DG>
-17.5848

> <Gold.Chemscore.ZeroCoef>
-5.4800

> <Gold.Chemscore.Hbond>
2.8256

> <Gold.Chemscore.Metal>
0.0000

> <Gold.Chemscore.Lipo>
85.0993

> <Gold.Chemscore.Internal_Hbond>
0.0000

> <Gold.Chemscore.DEClash>
0.6459

> <Gold.Chemscore.DEInternal>
0.7973

> <Gold.Chemscore.Rot>
2.8473

> <Gold.Chemscore.Internal.Correction>
   9.000000E+99

> <Gold.Chemscore.Hbonds>
donor molecule, donor type, donor heavy atom, donor atom, acceptor molecule, acceptor atom, score
      L1  H     3    20       P1  8028  0.94
      L1  H     7    25       P1  7948  0.76
      L1  H     7    26       P1  7957  0.72

> <Gold.Chemscore.Hbond.Weighted>
-9.4374

> <Gold.Chemscore.Metal.Weighted>
-0.0000

> <Gold.Chemscore.Lipo.Weighted>
-9.9566

> <Gold.Chemscore.Internal_Hbond.Weighted>
0.0000

> <Gold.Chemscore.DEClash.Weighted>
0.6459

> <Gold.Chemscore.DEInternal.Weighted>
0.7973

> <Gold.Chemscore.Rot.Weighted>
7.2892

> <Gold.Chemscore.Internal.Correction.Weighted>
   9.000000E+99

> <Gold.Protein.RotatedTorsions>
[ 6907 6896 6895 6894 ] final   77.26 input  -60.11 | X-H torsion
[ 7974 7965 7964 7962 ] final -111.57 input  175.53 | X-H torsion
[ 8008 7997 7996 7995 ] final   -2.42 input   59.86 | X-H torsion
[ 10167 10162 10161 10158 ] final   92.88 input  -65.29 | X-H torsion
[ 10718 10713 10712 10709 ] final   96.84 input   66.30 | X-H torsion
[ 10763 10752 10751 10750 ] final -162.20 input  -60.55 | X-H torsion
[ 11005 11000 10999 10996 ] final   52.73 input  -57.11 | X-H torsion

> <Gold.Protein.ActiveResidues>
 VAL166  LYS551  ARG553  GLY616  TRP617  ASP618  TYR619  PRO620  LYS621  CYS622 
 ASP623  PHE694  ASN695  SER759  ASP760  ASP761  ALA762  ILE779  LEU786  VAL792 
 PHE793  MET794  SER795  GLU796  ALA797  LYS798  CYS799  TRP800  GLU811  SER814 

> <Gold.Protein.RotatedAtoms>
  152.5110  134.3843  159.9361 H   0  0  0  0  0  0  0  0  0  0  0  0  # atno 6907 bound_to 6896
  151.3801  133.3818  159.2717 H   0  0  0  0  0  0  0  0  0  0  0  0  # atno 6908 bound_to 6896
  150.9511  134.8931  159.7731 H   0  0  0  0  0  0  0  0  0  0  0  0  # atno 6909 bound_to 6896
  145.1544  140.8846  143.3627 H   0  0  0  0  0  0  0  0  0  0  0  0  # atno 7974 bound_to 7965
  154.6359  140.2535  155.7378 H   0  0  0  0  0  0  0  0  0  0  0  0  # atno 8008 bound_to 7997
  156.2504  140.2897  156.0652 H   0  0  0  0  0  0  0  0  0  0  0  0  # atno 8009 bound_to 7997
  155.1671  140.0385  157.2845 H   0  0  0  0  0  0  0  0  0  0  0  0  # atno 8010 bound_to 7997
  139.8234  144.6721  150.9490 H   0  0  0  0  0  0  0  0  0  0  0  0  # atno 10167 bound_to 10162
  157.6921  131.0591  150.4553 H   0  0  0  0  0  0  0  0  0  0  0  0  # atno 10718 bound_to 10713
  154.7236  135.3031  154.9007 H   0  0  0  0  0  0  0  0  0  0  0  0  # atno 10763 bound_to 10752
  153.9872  135.6723  153.4756 H   0  0  0  0  0  0  0  0  0  0  0  0  # atno 10764 bound_to 10752
  153.0855  135.4986  154.8507 H   0  0  0  0  0  0  0  0  0  0  0  0  # atno 10765 bound_to 10752
  140.0825  134.5319  155.8932 H   0  0  0  0  0  0  0  0  0  0  0  0  # atno 11005 bound_to 11000
  145.0396  139.3271  143.5983 LP  0  0  0  0  0  0  0  0  0  0  0  0  # atno 17320 bound_to 7965
  146.3490  139.9765  142.8700 LP  0  0  0  0  0  0  0  0  0  0  0  0  # atno 17321 bound_to 7965
  140.7812  143.4070  151.1055 LP  0  0  0  0  0  0  0  0  0  0  0  0  # atno 17342 bound_to 10162
  139.7729  143.8468  152.3124 LP  0  0  0  0  0  0  0  0  0  0  0  0  # atno 17343 bound_to 10162
  156.4901  130.4093  149.6411 LP  0  0  0  0  0  0  0  0  0  0  0  0  # atno 17370 bound_to 10713
  156.3425  130.7389  151.2337 LP  0  0  0  0  0  0  0  0  0  0  0  0  # atno 17371 bound_to 10713
  141.2051  133.6644  156.6163 LP  0  0  0  0  0  0  0  0  0  0  0  0  # atno 17394 bound_to 11000
  140.3467  134.7803  157.4437 LP  0  0  0  0  0  0  0  0  0  0  0  0  # atno 17395 bound_to 11000

$$$$
