AV-unprocessed.smi:148|AV-procd|sdf|1219|dock5
  -GOLD-   2262018403D 1   1.00000     0.00000
 Structure written by MMmdl.
 63 67  0  0  0  0  0  0  0  0  1 V2000
  146.5599  135.6640  152.1874 O   0  0  0  0  0  0  0  0  0  0  0  0
  146.5061  134.7908  153.2982 C   0  0  0  0  0  0  0  0  0  0  0  0
  146.4363  133.2979  152.8758 C   0  0  1  0  0  0  0  0  0  0  0  0
  146.7491  132.2709  154.0097 C   0  0  0  0  0  0  0  0  0  0  0  0
  146.6586  132.7794  155.3684 N   0  0  0  0  0  0  0  0  0  0  0  0
  145.5302  133.2630  155.9914 C   0  0  0  0  0  0  0  0  0  0  0  0
  145.7069  133.6793  157.2157 N   0  0  0  0  0  0  0  0  0  0  0  0
  147.0582  133.4597  157.4558 C   0  0  0  0  0  0  0  0  0  0  0  0
  147.9260  133.6963  158.5595 C   0  0  0  0  0  0  0  0  0  0  0  0
  147.5543  134.2710  159.7258 N   0  0  0  0  0  0  0  0  0  0  0  0
  148.1902  135.5806  159.8638 C   0  0  0  0  0  0  0  0  0  0  0  0
  147.5994  136.3662  161.0410 C   0  0  0  0  0  0  0  0  0  0  0  0
  147.7031  135.5460  162.3307 C   0  0  0  0  0  0  0  0  0  0  0  0
  147.0164  134.1862  162.1448 C   0  0  0  0  0  0  0  0  0  0  0  0
  147.5845  133.4127  160.9252 C   0  0  1  0  0  0  0  0  0  0  0  0
  146.8998  132.0271  160.6978 C   0  0  2  0  0  0  0  0  0  0  0  0
  145.3622  132.0388  160.5841 C   0  0  0  0  0  0  0  0  0  0  0  0
  144.8755  130.6877  161.1332 C   0  0  0  0  0  0  0  0  0  0  0  0
  146.1348  129.8820  161.4652 C   0  0  0  0  0  0  0  0  0  0  0  0
  147.1984  130.9430  161.7439 C   0  0  1  0  0  0  0  0  0  0  0  0
  148.5010  130.4136  161.6060 O   0  0  0  0  0  0  0  0  0  0  0  0
  149.2246  133.3259  158.4398 N   0  0  0  0  0  0  0  0  0  0  0  0
  149.6601  132.7774  157.3016 C   0  0  0  0  0  0  0  0  0  0  0  0
  148.9768  132.5165  156.1848 N   0  0  0  0  0  0  0  0  0  0  0  0
  147.6670  132.8764  156.3100 C   0  0  0  0  0  0  0  0  0  0  0  0
  145.1281  132.9214  152.1169 C   0  0  1  0  0  0  0  0  0  0  0  0
  145.0177  133.4407  150.6882 C   0  0  0  0  0  0  0  0  0  0  0  0
  145.8097  132.4167  149.8803 C   0  0  0  0  0  0  0  0  0  0  0  0
  145.7243  131.1995  150.6135 O   0  0  0  0  0  0  0  0  0  0  0  0
  145.0169  131.4172  151.8296 C   0  0  0  0  0  0  0  0  0  0  0  0
  147.4665  135.8496  151.9942 H   0  0  0  0  0  0  0  0  0  0  0  0
  147.3834  134.9722  153.9178 H   0  0  0  0  0  0  0  0  0  0  0  0
  145.6586  135.0605  153.9274 H   0  0  0  0  0  0  0  0  0  0  0  0
  147.2496  133.1817  152.1579 H   0  0  0  0  0  0  0  0  0  0  0  0
  146.0905  131.4045  153.9484 H   0  0  0  0  0  0  0  0  0  0  0  0
  147.7566  131.8767  153.8703 H   0  0  0  0  0  0  0  0  0  0  0  0
  144.5699  133.3120  155.4985 H   0  0  0  0  0  0  0  0  0  0  0  0
  149.2632  135.4477  160.0108 H   0  0  0  0  0  0  0  0  0  0  0  0
  148.0650  136.1558  158.9449 H   0  0  0  0  0  0  0  0  0  0  0  0
  148.1206  137.3169  161.1562 H   0  0  0  0  0  0  0  0  0  0  0  0
  146.5545  136.6045  160.8373 H   0  0  0  0  0  0  0  0  0  0  0  0
  148.7517  135.3978  162.5920 H   0  0  0  0  0  0  0  0  0  0  0  0
  147.2465  136.0880  163.1592 H   0  0  0  0  0  0  0  0  0  0  0  0
  147.1454  133.6137  163.0618 H   0  0  0  0  0  0  0  0  0  0  0  0
  145.9456  134.3513  162.0312 H   0  0  0  0  0  0  0  0  0  0  0  0
  148.6339  133.2189  161.1480 H   0  0  0  0  0  0  0  0  0  0  0  0
  147.2653  131.6135  159.7567 H   0  0  0  0  0  0  0  0  0  0  0  0
  144.9104  132.8479  161.1557 H   0  0  0  0  0  0  0  0  0  0  0  0
  145.0546  132.1776  159.5472 H   0  0  0  0  0  0  0  0  0  0  0  0
  144.2918  130.8512  162.0402 H   0  0  0  0  0  0  0  0  0  0  0  0
  144.2356  130.1620  160.4239 H   0  0  0  0  0  0  0  0  0  0  0  0
  145.9896  129.1998  162.3036 H   0  0  0  0  0  0  0  0  0  0  0  0
  146.4193  129.2846  160.5972 H   0  0  0  0  0  0  0  0  0  0  0  0
  147.0619  131.3138  162.7586 H   0  0  0  0  0  0  0  0  0  0  0  0
  148.4554  129.6422  161.0617 H   0  0  0  0  0  0  0  0  0  0  0  0
  150.7074  132.5152  157.2806 H   0  0  0  0  0  0  0  0  0  0  0  0
  144.2747  133.2624  152.7049 H   0  0  0  0  0  0  0  0  0  0  0  0
  143.9721  133.4067  150.3785 H   0  0  0  0  0  0  0  0  0  0  0  0
  145.3543  134.4643  150.5342 H   0  0  0  0  0  0  0  0  0  0  0  0
  145.4196  132.3000  148.8690 H   0  0  0  0  0  0  0  0  0  0  0  0
  146.8577  132.7092  149.8088 H   0  0  0  0  0  0  0  0  0  0  0  0
  145.4018  130.7780  152.6234 H   0  0  0  0  0  0  0  0  0  0  0  0
  143.9727  131.1447  151.6695 H   0  0  0  0  0  0  0  0  0  0  0  0
  1  2  1  0  0  0  0
  1 31  1  0  0  0  0
  2  3  1  0  0  0  0
  2 32  1  0  0  0  0
  2 33  1  0  0  0  0
  3  4  1  0  0  0  0
  3 26  1  0  0  0  0
  3 34  1  0  0  0  0
  4  5  1  0  0  0  0
  4 35  1  0  0  0  0
  4 36  1  0  0  0  0
  5 25  1  0  0  0  0
  5  6  1  0  0  0  0
  6  7  2  0  0  0  0
  6 37  1  0  0  0  0
  7  8  1  0  0  0  0
  8 25  2  0  0  0  0
  8  9  1  0  0  0  0
  9 10  1  0  0  0  0
  9 22  2  0  0  0  0
 10 15  1  0  0  0  0
 10 11  1  0  0  0  0
 11 12  1  0  0  0  0
 11 38  1  0  0  0  0
 11 39  1  0  0  0  0
 12 13  1  0  0  0  0
 12 40  1  0  0  0  0
 12 41  1  0  0  0  0
 13 14  1  0  0  0  0
 13 42  1  0  0  0  0
 13 43  1  0  0  0  0
 14 15  1  0  0  0  0
 14 44  1  0  0  0  0
 14 45  1  0  0  0  0
 15 16  1  0  0  0  0
 15 46  1  0  0  0  0
 16 20  1  0  0  0  0
 16 17  1  0  0  0  0
 16 47  1  0  0  0  0
 17 18  1  0  0  0  0
 17 48  1  0  0  0  0
 17 49  1  0  0  0  0
 18 19  1  0  0  0  0
 18 50  1  0  0  0  0
 18 51  1  0  0  0  0
 19 20  1  0  0  0  0
 19 52  1  0  0  0  0
 19 53  1  0  0  0  0
 20 21  1  0  0  0  0
 20 54  1  0  0  0  0
 21 55  1  0  0  0  0
 22 23  1  0  0  0  0
 23 24  2  0  0  0  0
 23 56  1  0  0  0  0
 24 25  1  0  0  0  0
 26 30  1  0  0  0  0
 26 27  1  0  0  0  0
 26 57  1  0  0  0  0
 27 28  1  0  0  0  0
 27 58  1  0  0  0  0
 27 59  1  0  0  0  0
 28 29  1  0  0  0  0
 28 60  1  0  0  0  0
 28 61  1  0  0  0  0
 29 30  1  0  0  0  0
 30 62  1  0  0  0  0
 30 63  1  0  0  0  0
M  END
> <s_m_source_file>
AV-unprocessed.smi

> <i_m_source_file_index>
148

> <i_lp_mmshare_version>
43012

> <i_f3d_flags>
0

> <s_epik_input>
W0NIMl0xT1tDSDJdW0NIMl1bQ0BIXTFbQ0BIXShbQ0gyXVtPSF0pW0NIMl1uKFtjSF1uMiljKGMyMyluW2NIXW5jM040W0NIMl1bQ0gyXVtDSDJdW0NIMl1bQ0BIXTRbQ0BASF01W0NIMl1bQ0gyXVtDSDJdW0NASF01W09IXQ==

> <s_epik_cmdline>
J2VwaWtfcHl0aG9uJywgJy1waCcsICc3LjAnLCAnLXRuJywgJzgnLCAnLW1hJywgJzIwMCcsICctbWV0YWxfYmluZGluZycsICctaW1hZScsICc8aW5maWxlLm1hZT4nLCAnLW9tYWUnLCAnPG91dGZpbGUubWFlPic=

> <r_lp_tautomer_probability>
1

> <r_epik_Ionization_Penalty>
0.00556303

> <r_epik_Ionization_Penalty_Charging>
0

> <r_epik_Ionization_Penalty_Neutral>
0.00556303

> <r_epik_State_Penalty>
0.00401767

> <r_epik_Charging_Adjusted_Penalty>
0.00401767

> <i_epik_Tot_Q>
0

> <i_epik_Tot_abs_Q>
0

> <r_epik_Metal_State_Penalty>
-0

> <b_epik_Metal_Only>
0

> <s_lp_Force_Field>
OPLS_2005

> <r_lp_Energy>
73.5051

> <b_lp_Chiralities_Consistent>
1

> <s_lp_Variant>
AV-unprocessed.smi:148-18

> <Gold.Version>
5.8.1

> <Gold.Id.Protein>
6NUR|6NUR_protein|mol2

> <Gold.PLP.Fitness>
43.2331

> <Gold.PLP.PLP>
-36.1963

> <Gold.PLP.part.hbond>
-2.0000

> <Gold.PLP.part.metal>
0.0000

> <Gold.PLP.part.buried>
-6.3317

> <Gold.PLP.part.nonpolar>
-28.1239

> <Gold.PLP.part.repulsive>
0.3538

> <Gold.PLP.ligand.clash>
0.0000

> <Gold.PLP.ligand.torsion>
1.2206

> <Gold.PLP.Chemscore.Hbond>
2.0000

> <Gold.PLP.Chemscore.CHOScore>
1.0000

> <Gold.PLP.Chemscore.Metal>
0.0000

> <Gold.Chemscore.Hbonds>
donor molecule, donor type, donor heavy atom, donor atom, acceptor molecule, acceptor atom, score
      L1  H     1    31       P1  7948  0.96
      P1  H  6896  6909       L1    22  1.00
      L1  C     6    37       P1 10957  0.97

> <Gold.PLP.Chemscore.Internal.Correction>
0.4780

> <Gold.Rescore>
     Score         DG    S(hbond)    S(metal)    S(lipo)     H(rot)  DE(clash)    DE(int)     intcor
     13.42     -14.77       1.93        0.00      97.00       3.32       0.01       1.34       ----

> <Gold.Chemscore.Fitness>
13.4174

> <Gold.Chemscore.DG>
-14.7677

> <Gold.Chemscore.ZeroCoef>
-5.4800

> <Gold.Chemscore.Hbond>
1.9276

> <Gold.Chemscore.Metal>
0.0000

> <Gold.Chemscore.Lipo>
97.0037

> <Gold.Chemscore.Internal_Hbond>
0.0000

> <Gold.Chemscore.DEClash>
0.0081

> <Gold.Chemscore.DEInternal>
1.3422

> <Gold.Chemscore.Rot>
3.3203

> <Gold.Chemscore.Internal.Correction>
   9.000000E+99

> <Gold.Chemscore.Hbonds>
donor molecule, donor type, donor heavy atom, donor atom, acceptor molecule, acceptor atom, score
      L1  H     1    31       P1  7948  0.91
      P1  H  6896  6909       L1    22  0.55

> <Gold.Chemscore.Hbond.Weighted>
-6.4383

> <Gold.Chemscore.Metal.Weighted>
-0.0000

> <Gold.Chemscore.Lipo.Weighted>
-11.3494

> <Gold.Chemscore.Internal_Hbond.Weighted>
0.0000

> <Gold.Chemscore.DEClash.Weighted>
0.0081

> <Gold.Chemscore.DEInternal.Weighted>
1.3422

> <Gold.Chemscore.Rot.Weighted>
8.5000

> <Gold.Chemscore.Internal.Correction.Weighted>
   9.000000E+99

> <Gold.Protein.RotatedTorsions>
[ 6907 6896 6895 6894 ] final    9.76 input  -60.11 | X-H torsion
[ 7974 7965 7964 7962 ] final  144.86 input  175.53 | X-H torsion
[ 8008 7997 7996 7995 ] final -157.48 input   59.86 | X-H torsion
[ 10167 10162 10161 10158 ] final  121.41 input  -65.29 | X-H torsion
[ 10718 10713 10712 10709 ] final -138.42 input   66.30 | X-H torsion
[ 10763 10752 10751 10750 ] final  154.02 input  -60.55 | X-H torsion
[ 11005 11000 10999 10996 ] final  113.29 input  -57.11 | X-H torsion

> <Gold.Protein.ActiveResidues>
 VAL166  LYS551  ARG553  GLY616  TRP617  ASP618  TYR619  PRO620  LYS621  CYS622 
 ASP623  PHE694  ASN695  SER759  ASP760  ASP761  ALA762  ILE779  LEU786  VAL792 
 PHE793  MET794  SER795  GLU796  ALA797  LYS798  CYS799  TRP800  GLU811  SER814 

> <Gold.Protein.RotatedAtoms>
  151.7273  135.0882  160.0294 H   0  0  0  0  0  0  0  0  0  0  0  0  # atno 6907 bound_to 6896
  152.3563  133.6237  159.5990 H   0  0  0  0  0  0  0  0  0  0  0  0  # atno 6908 bound_to 6896
  150.7574  133.9410  159.3498 H   0  0  0  0  0  0  0  0  0  0  0  0  # atno 6909 bound_to 6896
  144.8800  139.5714  143.5847 H   0  0  0  0  0  0  0  0  0  0  0  0  # atno 7974 bound_to 7965
  155.7331  140.0804  157.2280 H   0  0  0  0  0  0  0  0  0  0  0  0  # atno 8008 bound_to 7997
  154.4030  140.1591  156.2586 H   0  0  0  0  0  0  0  0  0  0  0  0  # atno 8009 bound_to 7997
  155.9091  140.3405  155.6087 H   0  0  0  0  0  0  0  0  0  0  0  0  # atno 8010 bound_to 7997
  139.5921  144.7029  151.3264 H   0  0  0  0  0  0  0  0  0  0  0  0  # atno 10167 bound_to 10162
  156.2992  130.7419  151.1466 H   0  0  0  0  0  0  0  0  0  0  0  0  # atno 10718 bound_to 10713
  154.1456  135.2818  155.3149 H   0  0  0  0  0  0  0  0  0  0  0  0  # atno 10763 bound_to 10752
  154.6255  135.5453  153.7625 H   0  0  0  0  0  0  0  0  0  0  0  0  # atno 10764 bound_to 10752
  153.0237  135.6449  154.1602 H   0  0  0  0  0  0  0  0  0  0  0  0  # atno 10765 bound_to 10752
  139.8949  134.9547  156.6716 H   0  0  0  0  0  0  0  0  0  0  0  0  # atno 11005 bound_to 11000
  146.2988  139.7361  142.9107 LP  0  0  0  0  0  0  0  0  0  0  0  0  # atno 17320 bound_to 7965
  145.3972  141.0380  143.3091 LP  0  0  0  0  0  0  0  0  0  0  0  0  # atno 17321 bound_to 7965
  140.7182  143.7209  150.7697 LP  0  0  0  0  0  0  0  0  0  0  0  0  # atno 17342 bound_to 10162
  140.0767  143.5008  152.2552 LP  0  0  0  0  0  0  0  0  0  0  0  0  # atno 17343 bound_to 10162
  157.7363  131.0563  150.5419 LP  0  0  0  0  0  0  0  0  0  0  0  0  # atno 17370 bound_to 10713
  156.5545  130.4240  149.6092 LP  0  0  0  0  0  0  0  0  0  0  0  0  # atno 17371 bound_to 10713
  140.7368  133.9011  155.8250 LP  0  0  0  0  0  0  0  0  0  0  0  0  # atno 17394 bound_to 11000
  141.0109  134.1021  157.4222 LP  0  0  0  0  0  0  0  0  0  0  0  0  # atno 17395 bound_to 11000

$$$$
