AV-unprocessed.smi:3331|AV-procd|sdf|12819|dock5
  -GOLD-   2272019193D 1   1.00000     0.00000
 Structure written by MMmdl.
 47 48  0  0  0  0  0  0  0  0  2 V2000
  148.7551  140.3125  157.2279 C   0  0  0  0  0  0  0  0  0  0  0  0
  149.9174  140.7339  156.3113 C   0  0  1  0  0  0  0  0  0  0  0  0
  150.8718  139.5592  156.0014 C   0  0  0  0  0  0  0  0  0  0  0  0
  150.2995  138.5807  154.9510 C   0  0  2  0  0  0  0  0  0  0  0  0
  151.3251  137.5041  154.5700 C   0  0  0  0  0  0  0  0  0  0  0  0
  149.8027  139.3558  153.7129 C   0  0  0  0  0  0  0  0  0  0  0  0
  148.8167  140.3609  154.1346 N   0  0  0  0  0  0  0  0  0  0  0  0
  147.5013  140.2731  153.8084 C   0  0  0  0  0  0  0  0  0  0  0  0
  146.6743  141.0878  154.2209 O   0  0  0  0  0  0  0  0  0  0  0  0
  147.0073  139.1150  152.9178 C   0  0  2  0  0  0  0  0  0  0  0  0
  146.7792  139.5645  151.4588 C   0  0  0  0  0  0  0  0  0  0  0  0
  145.7716  138.5416  153.4969 N   0  3  0  0  0  0  0  0  0  0  0  0
  145.5500  137.1068  153.2259 C   0  0  0  0  0  0  0  0  0  0  0  0
  144.8124  136.9130  151.8933 C   0  0  0  0  0  0  0  0  0  0  0  0
  144.4267  135.5309  151.6838 N   0  0  0  0  0  0  0  0  0  0  0  0
  144.7831  134.6886  150.6518 C   0  0  0  0  0  0  0  0  0  0  0  0
  144.1718  133.4888  150.8778 C   0  0  0  0  0  0  0  0  0  0  0  0
  143.4481  133.6997  152.0845 C   0  0  0  0  0  0  0  0  0  0  0  0
  143.6009  134.9242  152.5633 N   0  0  0  0  0  0  0  0  0  0  0  0
  149.4342  141.3818  154.9954 C   0  0  0  0  0  0  0  0  0  0  0  0
  148.1182  139.5603  156.7627 H   0  0  0  0  0  0  0  0  0  0  0  0
  148.1274  141.1675  157.4800 H   0  0  0  0  0  0  0  0  0  0  0  0
  149.1279  139.8944  158.1634 H   0  0  0  0  0  0  0  0  0  0  0  0
  150.4887  141.4840  156.8595 H   0  0  0  0  0  0  0  0  0  0  0  0
  151.8103  139.9681  155.6238 H   0  0  0  0  0  0  0  0  0  0  0  0
  151.1257  139.0256  156.9181 H   0  0  0  0  0  0  0  0  0  0  0  0
  149.4432  138.0693  155.3925 H   0  0  0  0  0  0  0  0  0  0  0  0
  152.2092  137.9432  154.1066 H   0  0  0  0  0  0  0  0  0  0  0  0
  150.8999  136.7891  153.8651 H   0  0  0  0  0  0  0  0  0  0  0  0
  151.6515  136.9460  155.4479 H   0  0  0  0  0  0  0  0  0  0  0  0
  150.6379  139.8554  153.2195 H   0  0  0  0  0  0  0  0  0  0  0  0
  149.4051  138.6568  152.9758 H   0  0  0  0  0  0  0  0  0  0  0  0
  147.7840  138.3510  152.8921 H   0  0  0  0  0  0  0  0  0  0  0  0
  147.6642  140.0581  151.0547 H   0  0  0  0  0  0  0  0  0  0  0  0
  145.9428  140.2596  151.3760 H   0  0  0  0  0  0  0  0  0  0  0  0
  146.5690  138.7166  150.8072 H   0  0  0  0  0  0  0  0  0  0  0  0
  145.8303  138.6522  154.4991 H   0  0  0  0  0  0  0  0  0  0  0  0
  146.5069  136.5855  153.1961 H   0  0  0  0  0  0  0  0  0  0  0  0
  144.9685  136.6726  154.0407 H   0  0  0  0  0  0  0  0  0  0  0  0
  143.9145  137.5319  151.8589 H   0  0  0  0  0  0  0  0  0  0  0  0
  145.4451  137.2248  151.0612 H   0  0  0  0  0  0  0  0  0  0  0  0
  145.4351  135.0075  149.8520 H   0  0  0  0  0  0  0  0  0  0  0  0
  144.2306  132.5969  150.2715 H   0  0  0  0  0  0  0  0  0  0  0  0
  142.8204  133.0046  152.6224 H   0  0  0  0  0  0  0  0  0  0  0  0
  148.7916  142.2332  155.2106 H   0  0  0  0  0  0  0  0  0  0  0  0
  150.2884  141.8082  154.4672 H   0  0  0  0  0  0  0  0  0  0  0  0
  144.9791  139.0723  153.1644 H   0  0  0  0  0  0  0  0  0  0  0  0
  1  2  1  0  0  0  0
  1 21  1  0  0  0  0
  1 22  1  0  0  0  0
  1 23  1  0  0  0  0
  2 20  1  0  0  0  0
  2  3  1  0  0  0  0
  2 24  1  0  0  0  0
  3  4  1  0  0  0  0
  3 25  1  0  0  0  0
  3 26  1  0  0  0  0
  4  5  1  0  0  0  0
  4  6  1  0  0  0  0
  4 27  1  0  0  0  0
  5 28  1  0  0  0  0
  5 29  1  0  0  0  0
  5 30  1  0  0  0  0
  6  7  1  0  0  0  0
  6 31  1  0  0  0  0
  6 32  1  0  0  0  0
  7  8  1  0  0  0  0
  7 20  1  0  0  0  0
  8  9  2  0  0  0  0
  8 10  1  0  0  0  0
 10 11  1  0  0  0  0
 10 12  1  0  0  0  0
 10 33  1  0  0  0  0
 11 34  1  0  0  0  0
 11 35  1  0  0  0  0
 11 36  1  0  0  0  0
 12 13  1  0  0  0  0
 12 37  1  0  0  0  0
 12 47  1  0  0  0  0
 13 14  1  0  0  0  0
 13 38  1  0  0  0  0
 13 39  1  0  0  0  0
 14 15  1  0  0  0  0
 14 40  1  0  0  0  0
 14 41  1  0  0  0  0
 15 19  1  0  0  0  0
 15 16  1  0  0  0  0
 16 17  2  0  0  0  0
 16 42  1  0  0  0  0
 17 18  1  0  0  0  0
 17 43  1  0  0  0  0
 18 19  2  0  0  0  0
 18 44  1  0  0  0  0
 20 45  1  0  0  0  0
 20 46  1  0  0  0  0
M  CHG  1  12   1
M  END
> <s_m_source_file>
AV-unprocessed.smi

> <i_m_source_file_index>
3331

> <i_lp_mmshare_version>
43012

> <i_f3d_flags>
0

> <s_epik_input>
W0NIM11bQ0BASF0xW0NIMl1bQ0BASF0oW0NIM10pW0NIMl1OKFtDSDJdMSlDKD1PKVtDQEhdKFtDSDNdKVtOSF1bQ0gyXVtDSDJdbjJbY0hdW2NIXVtjSF1uMg==

> <s_epik_cmdline>
J2VwaWtfcHl0aG9uJywgJy1waCcsICc3LjAnLCAnLXRuJywgJzgnLCAnLW1hJywgJzIwMCcsICctbWV0YWxfYmluZGluZycsICctaW1hZScsICc8aW5maWxlLm1hZT4nLCAnLW9tYWUnLCAnPG91dGZpbGUubWFlPic=

> <r_lp_tautomer_probability>
1

> <r_epik_Ionization_Penalty>
0.189706

> <r_epik_Ionization_Penalty_Charging>
0.189703

> <r_epik_Ionization_Penalty_Neutral>
2.45875e-06

> <r_epik_State_Penalty>
0.179341

> <r_epik_Charging_Adjusted_Penalty>
0.369044

> <i_epik_Tot_Q>
1

> <i_epik_Tot_abs_Q>
1

> <r_epik_Metal_State_Penalty>
0.179578

> <b_epik_Metal_Only>
0

> <s_lp_Force_Field>
OPLS_2005

> <r_lp_Energy>
29.8768

> <b_lp_Chiralities_Consistent>
1

> <s_lp_Variant>
AV-unprocessed.smi:3331-3

> <Gold.Version>
5.8.1

> <Gold.Id.Protein>
6NUR|6NUR_protein|mol2

> <Gold.PLP.Fitness>
42.0791

> <Gold.PLP.PLP>
-31.9068

> <Gold.PLP.part.hbond>
-1.0000

> <Gold.PLP.part.metal>
0.0000

> <Gold.PLP.part.buried>
5.5299

> <Gold.PLP.part.nonpolar>
-36.7312

> <Gold.PLP.part.repulsive>
0.2928

> <Gold.PLP.ligand.clash>
0.0000

> <Gold.PLP.ligand.torsion>
0.9458

> <Gold.PLP.Chemscore.Hbond>
2.0000

> <Gold.PLP.Chemscore.CHOScore>
1.9972

> <Gold.PLP.Chemscore.Metal>
0.0000

> <Gold.Chemscore.Hbonds>
donor molecule, donor type, donor heavy atom, donor atom, acceptor molecule, acceptor atom, score
      L1  H    12    47       P1 10175  2.00
      L1  C    16    42       P1  7921  1.00
      L1  C    18    44       P1 10957  1.00

> <Gold.PLP.Chemscore.Internal.Correction>
0.0724

> <Gold.Rescore>
     Score         DG    S(hbond)    S(metal)    S(lipo)     H(rot)  DE(clash)    DE(int)     intcor
     10.66     -14.79       0.96        0.00      89.94       1.73       3.09       1.04       ----

> <Gold.Chemscore.Fitness>
10.6615

> <Gold.Chemscore.DG>
-14.7944

> <Gold.Chemscore.ZeroCoef>
-5.4800

> <Gold.Chemscore.Hbond>
0.9607

> <Gold.Chemscore.Metal>
0.0000

> <Gold.Chemscore.Lipo>
89.9383

> <Gold.Chemscore.Internal_Hbond>
0.0000

> <Gold.Chemscore.DEClash>
3.0908

> <Gold.Chemscore.DEInternal>
1.0421

> <Gold.Chemscore.Rot>
1.7254

> <Gold.Chemscore.Internal.Correction>
   9.000000E+99

> <Gold.Chemscore.Hbonds>
donor molecule, donor type, donor heavy atom, donor atom, acceptor molecule, acceptor atom, score
      L1  H    12    47       P1 10175  0.93

> <Gold.Chemscore.Hbond.Weighted>
-3.2087

> <Gold.Chemscore.Metal.Weighted>
-0.0000

> <Gold.Chemscore.Lipo.Weighted>
-10.5228

> <Gold.Chemscore.Internal_Hbond.Weighted>
0.0000

> <Gold.Chemscore.DEClash.Weighted>
3.0908

> <Gold.Chemscore.DEInternal.Weighted>
1.0421

> <Gold.Chemscore.Rot.Weighted>
4.4170

> <Gold.Chemscore.Internal.Correction.Weighted>
   9.000000E+99

> <Gold.Protein.RotatedTorsions>
[ 6907 6896 6895 6894 ] final -133.25 input  -60.11 | X-H torsion
[ 7974 7965 7964 7962 ] final -126.20 input  175.53 | X-H torsion
[ 8008 7997 7996 7995 ] final   35.22 input   59.86 | X-H torsion
[ 10167 10162 10161 10158 ] final   46.51 input  -65.29 | X-H torsion
[ 10718 10713 10712 10709 ] final   92.26 input   66.30 | X-H torsion
[ 10763 10752 10751 10750 ] final  179.19 input  -60.55 | X-H torsion
[ 11005 11000 10999 10996 ] final  100.10 input  -57.11 | X-H torsion

> <Gold.Protein.ActiveResidues>
 VAL166  LYS551  ARG553  GLY616  TRP617  ASP618  TYR619  PRO620  LYS621  CYS622 
 ASP623  PHE694  ASN695  SER759  ASP760  ASP761  ALA762  ILE779  LEU786  VAL792 
 PHE793  MET794  SER795  GLU796  ALA797  LYS798  CYS799  TRP800  GLU811  SER814 

> <Gold.Protein.RotatedAtoms>
  150.9718  133.6336  159.2736 H   0  0  0  0  0  0  0  0  0  0  0  0  # atno 6907 bound_to 6896
  151.3622  135.0905  159.9448 H   0  0  0  0  0  0  0  0  0  0  0  0  # atno 6908 bound_to 6896
  152.5185  133.9289  159.7625 H   0  0  0  0  0  0  0  0  0  0  0  0  # atno 6909 bound_to 6896
  144.9897  140.7720  143.4562 H   0  0  0  0  0  0  0  0  0  0  0  0  # atno 7974 bound_to 7965
  155.1675  140.3289  155.4399 H   0  0  0  0  0  0  0  0  0  0  0  0  # atno 8008 bound_to 7997
  156.2521  140.1949  156.6730 H   0  0  0  0  0  0  0  0  0  0  0  0  # atno 8009 bound_to 7997
  154.6361  140.0576  156.9776 H   0  0  0  0  0  0  0  0  0  0  0  0  # atno 8010 bound_to 7997
  140.3131  144.2796  150.6196 H   0  0  0  0  0  0  0  0  0  0  0  0  # atno 10167 bound_to 10162
  157.6959  131.0437  150.3854 H   0  0  0  0  0  0  0  0  0  0  0  0  # atno 10718 bound_to 10713
  154.5174  135.2792  155.1291 H   0  0  0  0  0  0  0  0  0  0  0  0  # atno 10763 bound_to 10752
  154.2862  135.6275  153.5370 H   0  0  0  0  0  0  0  0  0  0  0  0  # atno 10764 bound_to 10752
  152.9930  135.5663  154.5654 H   0  0  0  0  0  0  0  0  0  0  0  0  # atno 10765 bound_to 10752
  139.8771  134.9125  156.4706 H   0  0  0  0  0  0  0  0  0  0  0  0  # atno 11005 bound_to 11000
  145.2303  139.2118  143.5046 LP  0  0  0  0  0  0  0  0  0  0  0  0  # atno 17320 bound_to 7965
  146.3428  140.2179  142.8591 LP  0  0  0  0  0  0  0  0  0  0  0  0  # atno 17321 bound_to 7965
  140.5550  143.2200  151.7862 LP  0  0  0  0  0  0  0  0  0  0  0  0  # atno 17342 bound_to 10162
  139.4889  144.4425  151.9747 LP  0  0  0  0  0  0  0  0  0  0  0  0  # atno 17343 bound_to 10162
  156.4264  130.3963  149.6790 LP  0  0  0  0  0  0  0  0  0  0  0  0  # atno 17370 bound_to 10713
  156.4023  130.7681  151.2689 LP  0  0  0  0  0  0  0  0  0  0  0  0  # atno 17371 bound_to 10713
  140.8799  133.7926  155.9455 LP  0  0  0  0  0  0  0  0  0  0  0  0  # atno 17394 bound_to 11000
  140.8865  134.2547  157.5117 LP  0  0  0  0  0  0  0  0  0  0  0  0  # atno 17395 bound_to 11000

$$$$
