AV-unprocessed.smi:1694|AV-procd|sdf|6788|dock1
  -GOLD-   22720 7553D 1   1.00000     0.00000
 Structure written by MMmdl.
 34 35  0  0  0  0  0  0  0  0  1 V2000
  145.3265  135.9793  151.1917 C   0  0  0  0  0  0  0  0  0  0  0  0
  145.1707  134.5543  150.6843 C   0  0  0  0  0  0  0  0  0  0  0  0
  144.1321  134.2584  149.7760 C   0  0  0  0  0  0  0  0  0  0  0  0
  143.9854  132.9429  149.3056 C   0  0  0  0  0  0  0  0  0  0  0  0
  144.8902  131.9725  149.7669 C   0  0  0  0  0  0  0  0  0  0  0  0
  145.8855  132.2473  150.6345 N   0  0  0  0  0  0  0  0  0  0  0  0
  146.0439  133.5129  151.1008 C   0  0  0  0  0  0  0  0  0  0  0  0
  147.0708  133.8946  152.0198 N   0  0  0  0  0  0  0  0  0  0  0  0
  147.5343  133.3151  153.1484 C   0  0  0  0  0  0  0  0  0  0  0  0
  147.0576  132.2581  153.5586 O   0  0  0  0  0  0  0  0  0  0  0  0
  148.5297  133.9551  153.7829 N   0  0  0  0  0  0  0  0  0  0  0  0
  149.1772  133.5142  155.0133 C   0  0  1  0  0  0  0  0  0  0  0  0
  149.7895  132.1239  154.8033 C   0  0  0  0  0  0  0  0  0  0  0  0
  150.4653  131.6183  156.0875 C   0  0  0  0  0  0  0  0  0  0  0  0
  151.3572  132.6710  156.7619 C   0  0  0  0  0  0  0  0  0  0  0  0
  152.1985  132.3132  157.5829 O   0  0  0  0  0  0  0  0  0  0  0  0
  151.1739  133.9696  156.4646 N   0  0  0  0  0  0  0  0  0  0  0  0
  150.2736  134.5086  155.4458 C   0  0  0  0  0  0  0  0  0  0  0  0
  144.5579  136.6340  150.7800 H   0  0  0  0  0  0  0  0  0  0  0  0
  146.2983  136.3823  150.9052 H   0  0  0  0  0  0  0  0  0  0  0  0
  145.2448  136.0102  152.2786 H   0  0  0  0  0  0  0  0  0  0  0  0
  143.4530  135.0291  149.4415 H   0  0  0  0  0  0  0  0  0  0  0  0
  143.2007  132.6853  148.6098 H   0  0  0  0  0  0  0  0  0  0  0  0
  144.8143  130.9487  149.4317 H   0  0  0  0  0  0  0  0  0  0  0  0
  147.5417  134.7536  151.7757 H   0  0  0  0  0  0  0  0  0  0  0  0
  148.8625  134.8188  153.3773 H   0  0  0  0  0  0  0  0  0  0  0  0
  148.4273  133.4407  155.8036 H   0  0  0  0  0  0  0  0  0  0  0  0
  149.0188  131.4163  154.4946 H   0  0  0  0  0  0  0  0  0  0  0  0
  150.5203  132.1566  153.9936 H   0  0  0  0  0  0  0  0  0  0  0  0
  149.7020  131.3226  156.8081 H   0  0  0  0  0  0  0  0  0  0  0  0
  151.0537  130.7256  155.8729 H   0  0  0  0  0  0  0  0  0  0  0  0
  151.7519  134.6404  156.9503 H   0  0  0  0  0  0  0  0  0  0  0  0
  150.8857  134.7868  154.5868 H   0  0  0  0  0  0  0  0  0  0  0  0
  149.8257  135.4291  155.8215 H   0  0  0  0  0  0  0  0  0  0  0  0
  1  2  1  0  0  0  0
  1 19  1  0  0  0  0
  1 20  1  0  0  0  0
  1 21  1  0  0  0  0
  2  7  1  0  0  0  0
  2  3  2  0  0  0  0
  3  4  1  0  0  0  0
  3 22  1  0  0  0  0
  4  5  2  0  0  0  0
  4 23  1  0  0  0  0
  5  6  1  0  0  0  0
  5 24  1  0  0  0  0
  6  7  2  0  0  0  0
  7  8  1  0  0  0  0
  8  9  1  0  0  0  0
  8 25  1  0  0  0  0
  9 10  2  0  0  0  0
  9 11  1  0  0  0  0
 11 12  1  0  0  0  0
 11 26  1  0  0  0  0
 12 18  1  0  0  0  0
 12 13  1  0  0  0  0
 12 27  1  0  0  0  0
 13 14  1  0  0  0  0
 13 28  1  0  0  0  0
 13 29  1  0  0  0  0
 14 15  1  0  0  0  0
 14 30  1  0  0  0  0
 14 31  1  0  0  0  0
 15 16  2  0  0  0  0
 15 17  1  0  0  0  0
 17 18  1  0  0  0  0
 17 32  1  0  0  0  0
 18 33  1  0  0  0  0
 18 34  1  0  0  0  0
M  END
> <s_m_source_file>
AV-unprocessed.smi

> <i_m_source_file_index>
1694

> <i_lp_mmshare_version>
43012

> <i_f3d_flags>
0

> <s_epik_input>
W0NIM11jMVtjSF1bY0hdW2NIXW5jMVtOSF1DKD1PKVtOSF1bQ0BASF0yW0NIMl1bQ0gyXUMoPU8pW05IXVtDSDJdMg==

> <s_epik_cmdline>
J2VwaWtfcHl0aG9uJywgJy1waCcsICc3LjAnLCAnLXRuJywgJzgnLCAnLW1hJywgJzIwMCcsICctbWV0YWxfYmluZGluZycsICctaW1hZScsICc8aW5maWxlLm1hZT4nLCAnLW9tYWUnLCAnPG91dGZpbGUubWFlPic=

> <r_lp_tautomer_probability>
1

> <r_epik_Ionization_Penalty>
5.3746e-05

> <r_epik_Ionization_Penalty_Charging>
0

> <r_epik_Ionization_Penalty_Neutral>
5.3746e-05

> <r_epik_State_Penalty>
-0

> <r_epik_Charging_Adjusted_Penalty>
0

> <i_epik_Tot_Q>
0

> <i_epik_Tot_abs_Q>
0

> <r_epik_Metal_State_Penalty>
-0

> <b_epik_Metal_Only>
0

> <s_lp_Force_Field>
OPLS_2005

> <r_lp_Energy>
12.9855

> <b_lp_Chiralities_Consistent>
1

> <s_lp_Variant>
AV-unprocessed.smi:1694-2

> <Gold.Version>
5.8.1

> <Gold.Id.Protein>
6NUR|6NUR_protein|mol2

> <Gold.PLP.Fitness>
39.5844

> <Gold.PLP.PLP>
-31.3161

> <Gold.PLP.part.hbond>
-3.0000

> <Gold.PLP.part.metal>
0.0000

> <Gold.PLP.part.buried>
-4.1168

> <Gold.PLP.part.nonpolar>
-26.2076

> <Gold.PLP.part.repulsive>
0.4210

> <Gold.PLP.ligand.clash>
0.0000

> <Gold.PLP.ligand.torsion>
0.3665

> <Gold.PLP.Chemscore.Hbond>
3.0000

> <Gold.PLP.Chemscore.CHOScore>
0.0000

> <Gold.PLP.Chemscore.Metal>
0.0000

> <Gold.Chemscore.Hbonds>
donor molecule, donor type, donor heavy atom, donor atom, acceptor molecule, acceptor atom, score
      L1  H     8    25       P1  7948  1.00
      L1  H    11    26       P1  7948  0.99
      P1  H  6896  6909       L1    16  0.94

> <Gold.PLP.Chemscore.Internal.Correction>
0.0013

> <Gold.Rescore>
     Score         DG    S(hbond)    S(metal)    S(lipo)     H(rot)  DE(clash)    DE(int)     intcor
     16.19     -17.01       2.03        0.00      62.31       1.00       0.38       0.44       ----

> <Gold.Chemscore.Fitness>
16.1894

> <Gold.Chemscore.DG>
-17.0059

> <Gold.Chemscore.ZeroCoef>
-5.4800

> <Gold.Chemscore.Hbond>
2.0347

> <Gold.Chemscore.Metal>
0.0000

> <Gold.Chemscore.Lipo>
62.3085

> <Gold.Chemscore.Internal_Hbond>
0.0000

> <Gold.Chemscore.DEClash>
0.3786

> <Gold.Chemscore.DEInternal>
0.4379

> <Gold.Chemscore.Rot>
1.0000

> <Gold.Chemscore.Internal.Correction>
   9.000000E+99

> <Gold.Chemscore.Hbonds>
donor molecule, donor type, donor heavy atom, donor atom, acceptor molecule, acceptor atom, score
      L1  H     8    25       P1  7948  0.53
      L1  H    11    26       P1  7948  0.27
      P1  H  6896  6909       L1    16  0.67

> <Gold.Chemscore.Hbond.Weighted>
-6.7958

> <Gold.Chemscore.Metal.Weighted>
-0.0000

> <Gold.Chemscore.Lipo.Weighted>
-7.2901

> <Gold.Chemscore.Internal_Hbond.Weighted>
0.0000

> <Gold.Chemscore.DEClash.Weighted>
0.3786

> <Gold.Chemscore.DEInternal.Weighted>
0.4379

> <Gold.Chemscore.Rot.Weighted>
2.5600

> <Gold.Chemscore.Internal.Correction.Weighted>
   9.000000E+99

> <Gold.Protein.RotatedTorsions>
[ 6907 6896 6895 6894 ] final  -80.00 input  -60.11 | X-H torsion
[ 7974 7965 7964 7962 ] final   60.85 input  175.53 | X-H torsion
[ 8008 7997 7996 7995 ] final -116.26 input   59.86 | X-H torsion
[ 10167 10162 10161 10158 ] final   -3.58 input  -65.29 | X-H torsion
[ 10718 10713 10712 10709 ] final  -94.47 input   66.30 | X-H torsion
[ 10763 10752 10751 10750 ] final  166.49 input  -60.55 | X-H torsion
[ 11005 11000 10999 10996 ] final  -64.24 input  -57.11 | X-H torsion

> <Gold.Protein.ActiveResidues>
 VAL166  LYS551  ARG553  GLY616  TRP617  ASP618  TYR619  PRO620  LYS621  CYS622 
 ASP623  PHE694  ASN695  SER759  ASP760  ASP761  ALA762  ILE779  LEU786  VAL792 
 PHE793  MET794  SER795  GLU796  ALA797  LYS798  CYS799  TRP800  GLU811  SER814 

> <Gold.Protein.RotatedAtoms>
  150.6938  134.4036  159.5129 H   0  0  0  0  0  0  0  0  0  0  0  0  # atno 6907 bound_to 6896
  152.1806  134.8755  160.0536 H   0  0  0  0  0  0  0  0  0  0  0  0  # atno 6908 bound_to 6896
  151.9747  133.3702  159.4121 H   0  0  0  0  0  0  0  0  0  0  0  0  # atno 6909 bound_to 6896
  145.8913  139.3513  143.0647 H   0  0  0  0  0  0  0  0  0  0  0  0  # atno 7974 bound_to 7965
  155.0650  140.0393  157.2589 H   0  0  0  0  0  0  0  0  0  0  0  0  # atno 8008 bound_to 7997
  154.7029  140.2677  155.6678 H   0  0  0  0  0  0  0  0  0  0  0  0  # atno 8009 bound_to 7997
  156.2766  140.2737  156.1645 H   0  0  0  0  0  0  0  0  0  0  0  0  # atno 8010 bound_to 7997
  140.6896  143.6523  150.8339 H   0  0  0  0  0  0  0  0  0  0  0  0  # atno 10167 bound_to 10162
  156.0027  130.5069  150.5931 H   0  0  0  0  0  0  0  0  0  0  0  0  # atno 10718 bound_to 10713
  154.3397  135.2754  155.2429 H   0  0  0  0  0  0  0  0  0  0  0  0  # atno 10763 bound_to 10752
  154.4705  135.5884  153.6322 H   0  0  0  0  0  0  0  0  0  0  0  0  # atno 10764 bound_to 10752
  152.9858  135.6087  154.3597 H   0  0  0  0  0  0  0  0  0  0  0  0  # atno 10765 bound_to 10752
  141.1418  133.6663  156.5803 H   0  0  0  0  0  0  0  0  0  0  0  0  # atno 11005 bound_to 11000
  145.8904  140.9307  143.0555 LP  0  0  0  0  0  0  0  0  0  0  0  0  # atno 17320 bound_to 7965
  144.6730  140.0898  143.7465 LP  0  0  0  0  0  0  0  0  0  0  0  0  # atno 17321 bound_to 7965
  140.0234  143.5519  152.2791 LP  0  0  0  0  0  0  0  0  0  0  0  0  # atno 17342 bound_to 10162
  139.6285  144.7641  151.2587 LP  0  0  0  0  0  0  0  0  0  0  0  0  # atno 17343 bound_to 10162
  157.3793  131.0778  151.1491 LP  0  0  0  0  0  0  0  0  0  0  0  0  # atno 17370 bound_to 10713
  157.2219  130.6485  149.5814 LP  0  0  0  0  0  0  0  0  0  0  0  0  # atno 17371 bound_to 10713
  140.3843  134.7496  157.4681 LP  0  0  0  0  0  0  0  0  0  0  0  0  # atno 17394 bound_to 11000
  140.0614  134.5990  155.8744 LP  0  0  0  0  0  0  0  0  0  0  0  0  # atno 17395 bound_to 11000

$$$$
