AV-unprocessed.smi:2474|AV-procd|sdf|9753|dock4
  -GOLD-   2272013393D 1   1.00000     0.00000
 Structure written by MMmdl.
 40 41  0  0  0  0  0  0  0  0  1 V2000
  144.4928  144.4377  154.4013 C   0  0  0  0  0  0  0  0  0  0  0  0
  145.4299  143.3300  154.7442 C   0  0  0  0  0  0  0  0  0  0  0  0
  145.7338  142.8415  155.9908 C   0  0  0  0  0  0  0  0  0  0  0  0
  146.6593  141.7959  155.9772 N   0  0  0  0  0  0  0  0  0  0  0  0
  147.0544  141.4791  154.7408 C   0  0  0  0  0  0  0  0  0  0  0  0
  148.0578  140.4087  154.4341 C   0  0  2  0  0  0  0  0  0  0  0  0
  147.8898  139.1795  155.3385 C   0  0  0  0  0  0  0  0  0  0  0  0
  149.5122  140.9304  154.3904 C   0  0  0  0  0  0  0  0  0  0  0  0
  149.7547  142.0318  155.3187 N   0  0  0  0  0  0  0  0  0  0  0  0
  150.6361  142.0097  156.3273 C   0  0  0  0  0  0  0  0  0  0  0  0
  151.3282  141.0339  156.6176 O   0  0  0  0  0  0  0  0  0  0  0  0
  150.6884  143.1869  156.9654 N   0  0  0  0  0  0  0  0  0  0  0  0
  151.5865  143.5064  158.0710 C   0  0  1  0  0  0  0  0  0  0  0  0
  151.1309  144.8079  158.7634 C   0  0  0  0  0  0  0  0  0  0  0  0
  152.0679  145.2274  159.9077 C   0  0  0  0  0  0  0  0  0  0  0  0
  152.1467  144.1711  161.0187 C   0  0  0  0  0  0  0  0  0  0  0  0
  152.8149  142.6066  160.3913 S   0  0  0  0  0  0  0  0  0  0  0  0
  151.6252  142.3217  159.0518 C   0  0  0  0  0  0  0  0  0  0  0  0
  146.3031  142.4761  153.4994 S   0  0  0  0  0  0  0  0  0  0  0  0
  144.0279  144.8509  155.2966 H   0  0  0  0  0  0  0  0  0  0  0  0
  143.6994  144.0822  153.7437 H   0  0  0  0  0  0  0  0  0  0  0  0
  145.0190  145.2451  153.8918 H   0  0  0  0  0  0  0  0  0  0  0  0
  145.3415  143.1794  156.9385 H   0  0  0  0  0  0  0  0  0  0  0  0
  147.8237  140.0638  153.4262 H   0  0  0  0  0  0  0  0  0  0  0  0
  146.8826  138.7695  155.2601 H   0  0  0  0  0  0  0  0  0  0  0  0
  148.0673  139.4298  156.3849 H   0  0  0  0  0  0  0  0  0  0  0  0
  148.5901  138.3905  155.0628 H   0  0  0  0  0  0  0  0  0  0  0  0
  150.1946  140.1258  154.6659 H   0  0  0  0  0  0  0  0  0  0  0  0
  149.7829  141.2298  153.3768 H   0  0  0  0  0  0  0  0  0  0  0  0
  149.2345  142.8823  155.1592 H   0  0  0  0  0  0  0  0  0  0  0  0
  150.0781  143.9260  156.6489 H   0  0  0  0  0  0  0  0  0  0  0  0
  152.5940  143.6495  157.6750 H   0  0  0  0  0  0  0  0  0  0  0  0
  151.0870  145.6169  158.0330 H   0  0  0  0  0  0  0  0  0  0  0  0
  150.1162  144.6895  159.1460 H   0  0  0  0  0  0  0  0  0  0  0  0
  153.0660  145.4239  159.5142 H   0  0  0  0  0  0  0  0  0  0  0  0
  151.7164  146.1683  160.3322 H   0  0  0  0  0  0  0  0  0  0  0  0
  152.7848  144.5231  161.8294 H   0  0  0  0  0  0  0  0  0  0  0  0
  151.1588  143.9909  161.4442 H   0  0  0  0  0  0  0  0  0  0  0  0
  150.6396  142.1495  159.4860 H   0  0  0  0  0  0  0  0  0  0  0  0
  151.9104  141.4066  158.5320 H   0  0  0  0  0  0  0  0  0  0  0  0
  1  2  1  0  0  0  0
  1 20  1  0  0  0  0
  1 21  1  0  0  0  0
  1 22  1  0  0  0  0
  2 19  1  0  0  0  0
  2  3  2  0  0  0  0
  3  4  1  0  0  0  0
  3 23  1  0  0  0  0
  4  5  2  0  0  0  0
  5  6  1  0  0  0  0
  5 19  1  0  0  0  0
  6  7  1  0  0  0  0
  6  8  1  0  0  0  0
  6 24  1  0  0  0  0
  7 25  1  0  0  0  0
  7 26  1  0  0  0  0
  7 27  1  0  0  0  0
  8  9  1  0  0  0  0
  8 28  1  0  0  0  0
  8 29  1  0  0  0  0
  9 10  1  0  0  0  0
  9 30  1  0  0  0  0
 10 11  2  0  0  0  0
 10 12  1  0  0  0  0
 12 13  1  0  0  0  0
 12 31  1  0  0  0  0
 13 18  1  0  0  0  0
 13 14  1  0  0  0  0
 13 32  1  0  0  0  0
 14 15  1  0  0  0  0
 14 33  1  0  0  0  0
 14 34  1  0  0  0  0
 15 16  1  0  0  0  0
 15 35  1  0  0  0  0
 15 36  1  0  0  0  0
 16 17  1  0  0  0  0
 16 37  1  0  0  0  0
 16 38  1  0  0  0  0
 17 18  1  0  0  0  0
 18 39  1  0  0  0  0
 18 40  1  0  0  0  0
M  END
> <s_m_source_file>
AV-unprocessed.smi

> <i_m_source_file_index>
2474

> <i_lp_mmshare_version>
43012

> <i_f3d_flags>
0

> <s_epik_input>
W0NIM11jMVtjSF1uYyhzMSlbQ0BIXShbQ0gzXSlbQ0gyXVtOSF1DKD1PKVtOSF1bQ0BASF0yW0NIMl1bQ0gyXVtDSDJdU1tDSDJdMg==

> <s_epik_cmdline>
J2VwaWtfcHl0aG9uJywgJy1waCcsICc3LjAnLCAnLXRuJywgJzgnLCAnLW1hJywgJzIwMCcsICctbWV0YWxfYmluZGluZycsICctaW1hZScsICc8aW5maWxlLm1hZT4nLCAnLW9tYWUnLCAnPG91dGZpbGUubWFlPic=

> <r_epik_Ionization_Penalty>
0.000644338

> <r_epik_Ionization_Penalty_Charging>
0

> <r_epik_Ionization_Penalty_Neutral>
0.000644338

> <r_epik_State_Penalty>
0.000374131

> <r_epik_Charging_Adjusted_Penalty>
0.000374131

> <i_epik_Tot_Q>
0

> <i_epik_Tot_abs_Q>
0

> <r_epik_Metal_State_Penalty>
-0

> <b_epik_Metal_Only>
0

> <s_lp_Force_Field>
OPLS_2005

> <r_lp_Energy>
-6.48006

> <b_lp_Chiralities_Consistent>
1

> <s_lp_Variant>
AV-unprocessed.smi:2474-3

> <Gold.Version>
5.8.1

> <Gold.Id.Protein>
6NUR|6NUR_protein|mol2

> <Gold.PLP.Fitness>
45.7294

> <Gold.PLP.PLP>
-42.1980

> <Gold.PLP.part.hbond>
-2.0000

> <Gold.PLP.part.metal>
0.0000

> <Gold.PLP.part.buried>
-6.3798

> <Gold.PLP.part.nonpolar>
-34.1762

> <Gold.PLP.part.repulsive>
0.3414

> <Gold.PLP.ligand.clash>
0.0000

> <Gold.PLP.ligand.torsion>
1.2834

> <Gold.PLP.Chemscore.Hbond>
1.9920

> <Gold.PLP.Chemscore.CHOScore>
0.0000

> <Gold.PLP.Chemscore.Metal>
0.0000

> <Gold.Chemscore.Hbonds>
donor molecule, donor type, donor heavy atom, donor atom, acceptor molecule, acceptor atom, score
      L1  H     9    30       P1  8028  0.99
      L1  H    12    31       P1  8028  1.00

> <Gold.PLP.Chemscore.Internal.Correction>
0.1222

> <Gold.Rescore>
     Score         DG    S(hbond)    S(metal)    S(lipo)     H(rot)  DE(clash)    DE(int)     intcor
     18.33     -21.27       1.94        0.00     111.60       1.46       0.29       2.65       ----

> <Gold.Chemscore.Fitness>
18.3258

> <Gold.Chemscore.DG>
-21.2663

> <Gold.Chemscore.ZeroCoef>
-5.4800

> <Gold.Chemscore.Hbond>
1.9372

> <Gold.Chemscore.Metal>
0.0000

> <Gold.Chemscore.Lipo>
111.6034

> <Gold.Chemscore.Internal_Hbond>
0.0000

> <Gold.Chemscore.DEClash>
0.2895

> <Gold.Chemscore.DEInternal>
2.6510

> <Gold.Chemscore.Rot>
1.4616

> <Gold.Chemscore.Internal.Correction>
   9.000000E+99

> <Gold.Chemscore.Hbonds>
donor molecule, donor type, donor heavy atom, donor atom, acceptor molecule, acceptor atom, score
      L1  H     9    30       P1  8028  0.93
      L1  H    12    31       P1  8028  0.99

> <Gold.Chemscore.Hbond.Weighted>
-6.4704

> <Gold.Chemscore.Metal.Weighted>
-0.0000

> <Gold.Chemscore.Lipo.Weighted>
-13.0576

> <Gold.Chemscore.Internal_Hbond.Weighted>
0.0000

> <Gold.Chemscore.DEClash.Weighted>
0.2895

> <Gold.Chemscore.DEInternal.Weighted>
2.6510

> <Gold.Chemscore.Rot.Weighted>
3.7416

> <Gold.Chemscore.Internal.Correction.Weighted>
   9.000000E+99

> <Gold.Protein.RotatedTorsions>
[ 6907 6896 6895 6894 ] final   -3.18 input  -60.11 | X-H torsion
[ 7974 7965 7964 7962 ] final -165.72 input  175.53 | X-H torsion
[ 8008 7997 7996 7995 ] final  133.09 input   59.86 | X-H torsion
[ 10167 10162 10161 10158 ] final  125.88 input  -65.29 | X-H torsion
[ 10718 10713 10712 10709 ] final  -57.74 input   66.30 | X-H torsion
[ 10763 10752 10751 10750 ] final  146.07 input  -60.55 | X-H torsion
[ 11005 11000 10999 10996 ] final  -88.85 input  -57.11 | X-H torsion

> <Gold.Protein.ActiveResidues>
 VAL166  LYS551  ARG553  GLY616  TRP617  ASP618  TYR619  PRO620  LYS621  CYS622 
 ASP623  PHE694  ASN695  SER759  ASP760  ASP761  ALA762  ILE779  LEU786  VAL792 
 PHE793  MET794  SER795  GLU796  ALA797  LYS798  CYS799  TRP800  GLU811  SER814 

> <Gold.Protein.RotatedAtoms>
  151.5179  135.1066  159.9870 H   0  0  0  0  0  0  0  0  0  0  0  0  # atno 6907 bound_to 6896
  152.4633  133.7865  159.6889 H   0  0  0  0  0  0  0  0  0  0  0  0  # atno 6908 bound_to 6896
  150.8605  133.7586  159.3019 H   0  0  0  0  0  0  0  0  0  0  0  0  # atno 6909 bound_to 6896
  144.7263  140.2773  143.6241 H   0  0  0  0  0  0  0  0  0  0  0  0  # atno 7974 bound_to 7965
  156.2989  140.2530  156.3196 H   0  0  0  0  0  0  0  0  0  0  0  0  # atno 8008 bound_to 7997
  154.9248  140.0400  157.2036 H   0  0  0  0  0  0  0  0  0  0  0  0  # atno 8009 bound_to 7997
  154.8276  140.2870  155.5748 H   0  0  0  0  0  0  0  0  0  0  0  0  # atno 8010 bound_to 7997
  139.5661  144.6912  151.3906 H   0  0  0  0  0  0  0  0  0  0  0  0  # atno 10167 bound_to 10162
  156.1188  130.4168  150.0482 H   0  0  0  0  0  0  0  0  0  0  0  0  # atno 10718 bound_to 10713
  154.0158  135.2910  155.3387 H   0  0  0  0  0  0  0  0  0  0  0  0  # atno 10763 bound_to 10752
  154.7076  135.5163  153.8621 H   0  0  0  0  0  0  0  0  0  0  0  0  # atno 10764 bound_to 10752
  153.0703  135.6645  154.0385 H   0  0  0  0  0  0  0  0  0  0  0  0  # atno 10765 bound_to 10752
  141.1595  133.7595  156.9511 H   0  0  0  0  0  0  0  0  0  0  0  0  # atno 11005 bound_to 11000
  145.7984  139.1954  143.2062 LP  0  0  0  0  0  0  0  0  0  0  0  0  # atno 17320 bound_to 7965
  146.0697  140.7882  142.9694 LP  0  0  0  0  0  0  0  0  0  0  0  0  # atno 17321 bound_to 7965
  140.6945  143.7783  150.7305 LP  0  0  0  0  0  0  0  0  0  0  0  0  # atno 17342 bound_to 10162
  140.1275  143.4556  152.2275 LP  0  0  0  0  0  0  0  0  0  0  0  0  # atno 17343 bound_to 10162
  156.8426  130.9431  151.3631 LP  0  0  0  0  0  0  0  0  0  0  0  0  # atno 17370 bound_to 10713
  157.6371  130.8776  149.9379 LP  0  0  0  0  0  0  0  0  0  0  0  0  # atno 17371 bound_to 10713
  140.1256  134.9389  157.2266 LP  0  0  0  0  0  0  0  0  0  0  0  0  # atno 17394 bound_to 11000
  140.3017  134.3124  155.7288 LP  0  0  0  0  0  0  0  0  0  0  0  0  # atno 17395 bound_to 11000

$$$$
