AV-unprocessed.smi:2474|AV-procd|sdf|9751|dock4
  -GOLD-   2272013393D 1   1.00000     0.00000
 Structure written by MMmdl.
 40 41  0  0  0  0  0  0  0  0  1 V2000
  151.5727  136.6153  156.2067 C   0  0  0  0  0  0  0  0  0  0  0  0
  150.8758  137.6496  155.3898 C   0  0  0  0  0  0  0  0  0  0  0  0
  151.4080  138.7962  154.8543 C   0  0  0  0  0  0  0  0  0  0  0  0
  150.4843  139.5721  154.1511 N   0  0  0  0  0  0  0  0  0  0  0  0
  149.2622  139.0321  154.1435 C   0  0  0  0  0  0  0  0  0  0  0  0
  148.0628  139.6921  153.5304 C   0  0  2  0  0  0  0  0  0  0  0  0
  147.8526  141.1170  154.0627 C   0  0  0  0  0  0  0  0  0  0  0  0
  146.7850  138.8253  153.6056 C   0  0  0  0  0  0  0  0  0  0  0  0
  146.9421  137.5573  152.8956 N   0  0  0  0  0  0  0  0  0  0  0  0
  145.9805  136.6384  152.7282 C   0  0  0  0  0  0  0  0  0  0  0  0
  144.8022  136.8030  153.0439 O   0  0  0  0  0  0  0  0  0  0  0  0
  146.4710  135.4941  152.2332 N   0  0  0  0  0  0  0  0  0  0  0  0
  145.7178  134.2508  152.1015 C   0  0  2  0  0  0  0  0  0  0  0  0
  146.6482  133.1224  151.6052 C   0  0  0  0  0  0  0  0  0  0  0  0
  145.9299  131.7695  151.4875 C   0  0  0  0  0  0  0  0  0  0  0  0
  144.7618  131.8125  150.4926 C   0  0  0  0  0  0  0  0  0  0  0  0
  143.4917  132.9936  151.0218 S   0  0  0  0  0  0  0  0  0  0  0  0
  144.5323  134.4741  151.1469 C   0  0  0  0  0  0  0  0  0  0  0  0
  149.1811  137.5000  155.0080 S   0  0  0  0  0  0  0  0  0  0  0  0
  152.6166  136.8831  156.3719 H   0  0  0  0  0  0  0  0  0  0  0  0
  151.5482  135.6468  155.7069 H   0  0  0  0  0  0  0  0  0  0  0  0
  151.0957  136.5070  157.1811 H   0  0  0  0  0  0  0  0  0  0  0  0
  152.4282  139.1417  154.9318 H   0  0  0  0  0  0  0  0  0  0  0  0
  148.2933  139.8028  152.4699 H   0  0  0  0  0  0  0  0  0  0  0  0
  148.7409  141.7294  153.9060 H   0  0  0  0  0  0  0  0  0  0  0  0
  147.6341  141.1130  155.1310 H   0  0  0  0  0  0  0  0  0  0  0  0
  147.0204  141.6060  153.5560 H   0  0  0  0  0  0  0  0  0  0  0  0
  146.5087  138.6510  154.6470 H   0  0  0  0  0  0  0  0  0  0  0  0
  145.9482  139.3602  153.1558 H   0  0  0  0  0  0  0  0  0  0  0  0
  147.8761  137.3230  152.5925 H   0  0  0  0  0  0  0  0  0  0  0  0
  147.4531  135.4572  152.0035 H   0  0  0  0  0  0  0  0  0  0  0  0
  145.3182  133.9791  153.0806 H   0  0  0  0  0  0  0  0  0  0  0  0
  147.0786  133.3926  150.6400 H   0  0  0  0  0  0  0  0  0  0  0  0
  147.4898  133.0096  152.2900 H   0  0  0  0  0  0  0  0  0  0  0  0
  146.6459  131.0113  151.1690 H   0  0  0  0  0  0  0  0  0  0  0  0
  145.5695  131.4562  152.4680 H   0  0  0  0  0  0  0  0  0  0  0  0
  145.1169  132.0923  149.5002 H   0  0  0  0  0  0  0  0  0  0  0  0
  144.3058  130.8264  150.4033 H   0  0  0  0  0  0  0  0  0  0  0  0
  143.9109  135.2988  151.4974 H   0  0  0  0  0  0  0  0  0  0  0  0
  144.8864  134.7411  150.1504 H   0  0  0  0  0  0  0  0  0  0  0  0
  1  2  1  0  0  0  0
  1 20  1  0  0  0  0
  1 21  1  0  0  0  0
  1 22  1  0  0  0  0
  2 19  1  0  0  0  0
  2  3  2  0  0  0  0
  3  4  1  0  0  0  0
  3 23  1  0  0  0  0
  4  5  2  0  0  0  0
  5  6  1  0  0  0  0
  5 19  1  0  0  0  0
  6  7  1  0  0  0  0
  6  8  1  0  0  0  0
  6 24  1  0  0  0  0
  7 25  1  0  0  0  0
  7 26  1  0  0  0  0
  7 27  1  0  0  0  0
  8  9  1  0  0  0  0
  8 28  1  0  0  0  0
  8 29  1  0  0  0  0
  9 10  1  0  0  0  0
  9 30  1  0  0  0  0
 10 11  2  0  0  0  0
 10 12  1  0  0  0  0
 12 13  1  0  0  0  0
 12 31  1  0  0  0  0
 13 18  1  0  0  0  0
 13 14  1  0  0  0  0
 13 32  1  0  0  0  0
 14 15  1  0  0  0  0
 14 33  1  0  0  0  0
 14 34  1  0  0  0  0
 15 16  1  0  0  0  0
 15 35  1  0  0  0  0
 15 36  1  0  0  0  0
 16 17  1  0  0  0  0
 16 37  1  0  0  0  0
 16 38  1  0  0  0  0
 17 18  1  0  0  0  0
 18 39  1  0  0  0  0
 18 40  1  0  0  0  0
M  END
> <s_m_source_file>
AV-unprocessed.smi

> <i_m_source_file_index>
2474

> <i_lp_mmshare_version>
43012

> <i_f3d_flags>
0

> <s_epik_input>
W0NIM11jMVtjSF1uYyhzMSlbQ0BIXShbQ0gzXSlbQ0gyXVtOSF1DKD1PKVtOSF1bQ0BASF0yW0NIMl1bQ0gyXVtDSDJdU1tDSDJdMg==

> <s_epik_cmdline>
J2VwaWtfcHl0aG9uJywgJy1waCcsICc3LjAnLCAnLXRuJywgJzgnLCAnLW1hJywgJzIwMCcsICctbWV0YWxfYmluZGluZycsICctaW1hZScsICc8aW5maWxlLm1hZT4nLCAnLW9tYWUnLCAnPG91dGZpbGUubWFlPic=

> <r_epik_Ionization_Penalty>
0.000644338

> <r_epik_Ionization_Penalty_Charging>
0

> <r_epik_Ionization_Penalty_Neutral>
0.000644338

> <r_epik_State_Penalty>
0.000374131

> <r_epik_Charging_Adjusted_Penalty>
0.000374131

> <i_epik_Tot_Q>
0

> <i_epik_Tot_abs_Q>
0

> <r_epik_Metal_State_Penalty>
-0

> <b_epik_Metal_Only>
0

> <s_lp_Force_Field>
OPLS_2005

> <r_lp_Energy>
-6.83814

> <b_lp_Chiralities_Consistent>
1

> <s_lp_Variant>
AV-unprocessed.smi:2474-1

> <Gold.Version>
5.8.1

> <Gold.Id.Protein>
6NUR|6NUR_protein|mol2

> <Gold.PLP.Fitness>
40.4247

> <Gold.PLP.PLP>
-31.4797

> <Gold.PLP.part.hbond>
-3.0000

> <Gold.PLP.part.metal>
0.0000

> <Gold.PLP.part.buried>
-1.1020

> <Gold.PLP.part.nonpolar>
-27.6094

> <Gold.PLP.part.repulsive>
0.3913

> <Gold.PLP.ligand.clash>
0.0000

> <Gold.PLP.ligand.torsion>
0.0923

> <Gold.PLP.Chemscore.Hbond>
3.0000

> <Gold.PLP.Chemscore.CHOScore>
0.0000

> <Gold.PLP.Chemscore.Metal>
0.0000

> <Gold.Chemscore.Hbonds>
donor molecule, donor type, donor heavy atom, donor atom, acceptor molecule, acceptor atom, score
      L1  H     9    30       P1  7948  1.00
      L1  H    12    31       P1  7948  1.00
      P1  H  7989  7998       L1     4  0.95

> <Gold.PLP.Chemscore.Internal.Correction>
0.1297

> <Gold.Rescore>
     Score         DG    S(hbond)    S(metal)    S(lipo)     H(rot)  DE(clash)    DE(int)     intcor
     19.37     -20.16       2.66        0.00      81.53       1.46       0.61       0.18       ----

> <Gold.Chemscore.Fitness>
19.3721

> <Gold.Chemscore.DG>
-20.1620

> <Gold.Chemscore.ZeroCoef>
-5.4800

> <Gold.Chemscore.Hbond>
2.6599

> <Gold.Chemscore.Metal>
0.0000

> <Gold.Chemscore.Lipo>
81.5344

> <Gold.Chemscore.Internal_Hbond>
0.0000

> <Gold.Chemscore.DEClash>
0.6068

> <Gold.Chemscore.DEInternal>
0.1831

> <Gold.Chemscore.Rot>
1.4616

> <Gold.Chemscore.Internal.Correction>
   9.000000E+99

> <Gold.Chemscore.Hbonds>
donor molecule, donor type, donor heavy atom, donor atom, acceptor molecule, acceptor atom, score
      L1  H     9    30       P1  7948  0.94
      L1  H    12    31       P1  7948  0.95
      P1  H  7989  7998       L1     4  0.21

> <Gold.Chemscore.Hbond.Weighted>
-8.8841

> <Gold.Chemscore.Metal.Weighted>
-0.0000

> <Gold.Chemscore.Lipo.Weighted>
-9.5395

> <Gold.Chemscore.Internal_Hbond.Weighted>
0.0000

> <Gold.Chemscore.DEClash.Weighted>
0.6068

> <Gold.Chemscore.DEInternal.Weighted>
0.1831

> <Gold.Chemscore.Rot.Weighted>
3.7416

> <Gold.Chemscore.Internal.Correction.Weighted>
   9.000000E+99

> <Gold.Protein.RotatedTorsions>
[ 6907 6896 6895 6894 ] final  128.15 input  -60.11 | X-H torsion
[ 7974 7965 7964 7962 ] final  -71.44 input  175.53 | X-H torsion
[ 8008 7997 7996 7995 ] final  -49.81 input   59.86 | X-H torsion
[ 10167 10162 10161 10158 ] final  116.65 input  -65.29 | X-H torsion
[ 10718 10713 10712 10709 ] final  110.87 input   66.30 | X-H torsion
[ 10763 10752 10751 10750 ] final  -14.61 input  -60.55 | X-H torsion
[ 11005 11000 10999 10996 ] final  -67.35 input  -57.11 | X-H torsion

> <Gold.Protein.ActiveResidues>
 VAL166  LYS551  ARG553  GLY616  TRP617  ASP618  TYR619  PRO620  LYS621  CYS622 
 ASP623  PHE694  ASN695  SER759  ASP760  ASP761  ALA762  ILE779  LEU786  VAL792 
 PHE793  MET794  SER795  GLU796  ALA797  LYS798  CYS799  TRP800  GLU811  SER814 

> <Gold.Protein.RotatedAtoms>
  152.3747  133.6465  159.6113 H   0  0  0  0  0  0  0  0  0  0  0  0  # atno 6907 bound_to 6896
  150.7695  133.9213  159.3408 H   0  0  0  0  0  0  0  0  0  0  0  0  # atno 6908 bound_to 6896
  151.7030  135.0928  160.0305 H   0  0  0  0  0  0  0  0  0  0  0  0  # atno 6909 bound_to 6896
  145.6781  140.9197  143.0847 H   0  0  0  0  0  0  0  0  0  0  0  0  # atno 7974 bound_to 7965
  154.4050  140.1287  156.4564 H   0  0  0  0  0  0  0  0  0  0  0  0  # atno 8008 bound_to 7997
  155.7316  140.3491  155.5042 H   0  0  0  0  0  0  0  0  0  0  0  0  # atno 8009 bound_to 7997
  155.9122  140.1038  157.1261 H   0  0  0  0  0  0  0  0  0  0  0  0  # atno 8010 bound_to 7997
  139.6232  144.7104  151.2589 H   0  0  0  0  0  0  0  0  0  0  0  0  # atno 10167 bound_to 10162
  157.6473  131.0940  150.6665 H   0  0  0  0  0  0  0  0  0  0  0  0  # atno 10718 bound_to 10713
  153.5308  135.7014  153.5684 H   0  0  0  0  0  0  0  0  0  0  0  0  # atno 10763 bound_to 10752
  153.3692  135.3949  155.1776 H   0  0  0  0  0  0  0  0  0  0  0  0  # atno 10764 bound_to 10752
  154.8685  135.3808  154.4805 H   0  0  0  0  0  0  0  0  0  0  0  0  # atno 10765 bound_to 10752
  141.1506  133.6717  156.6280 H   0  0  0  0  0  0  0  0  0  0  0  0  # atno 11005 bound_to 11000
  144.7035  139.8660  143.7437 LP  0  0  0  0  0  0  0  0  0  0  0  0  # atno 17320 bound_to 7965
  146.0988  139.3982  143.0360 LP  0  0  0  0  0  0  0  0  0  0  0  0  # atno 17321 bound_to 7965
  140.7395  143.6616  150.8159 LP  0  0  0  0  0  0  0  0  0  0  0  0  # atno 17342 bound_to 10162
  140.0230  143.5522  152.2792 LP  0  0  0  0  0  0  0  0  0  0  0  0  # atno 17343 bound_to 10162
  156.6981  130.4615  149.5581 LP  0  0  0  0  0  0  0  0  0  0  0  0  # atno 17370 bound_to 10713
  156.1815  130.6501  151.0956 LP  0  0  0  0  0  0  0  0  0  0  0  0  # atno 17371 bound_to 10713
  140.3489  134.7785  157.4452 LP  0  0  0  0  0  0  0  0  0  0  0  0  # atno 17394 bound_to 11000
  140.0877  134.5644  155.8476 LP  0  0  0  0  0  0  0  0  0  0  0  0  # atno 17395 bound_to 11000

$$$$
