AV-unprocessed.smi:1824|AV-procd|sdf|7408|dock3
  -GOLD-   22720 9 83D 1   1.00000     0.00000
 Structure written by MMmdl.
 45 47  0  0  0  0  0  0  0  0  2 V2000
  151.7178  145.7317  159.9940 C   0  0  0  0  0  0  0  0  0  0  0  0
  151.4419  144.2688  159.6314 C   0  0  1  0  0  0  0  0  0  0  0  0
  151.2170  144.0752  158.1194 C   0  0  0  0  0  0  0  0  0  0  0  0
  151.0322  142.6679  157.7704 N   0  0  0  0  0  0  0  0  0  0  0  0
  150.8358  142.4593  156.3348 C   0  0  0  0  0  0  0  0  0  0  0  0
  150.2495  141.0900  155.9374 C   0  0  2  0  0  0  0  0  0  0  0  0
  151.2573  140.3497  155.2777 O   0  0  0  0  0  0  0  0  0  0  0  0
  149.0317  141.2471  155.0060 C   0  0  0  0  0  0  0  0  0  0  0  0
  148.4487  139.9586  154.6034 N   0  0  0  0  0  0  0  0  0  0  0  0
  148.9841  138.9637  153.8452 C   0  0  0  0  0  0  0  0  0  0  0  0
  148.0566  137.9709  153.7536 N   0  3  0  0  0  0  0  0  0  0  0  0
  146.9103  138.3366  154.4625 C   0  0  0  0  0  0  0  0  0  0  0  0
  145.7082  137.6649  154.6596 C   0  0  0  0  0  0  0  0  0  0  0  0
  144.7330  138.3232  155.4370 C   0  0  0  0  0  0  0  0  0  0  0  0
  143.5444  137.7141  155.6595 F   0  0  0  0  0  0  0  0  0  0  0  0
  144.9713  139.6017  155.9849 C   0  0  0  0  0  0  0  0  0  0  0  0
  144.0069  140.1996  156.7236 F   0  0  0  0  0  0  0  0  0  0  0  0
  146.1949  140.2720  155.7789 C   0  0  0  0  0  0  0  0  0  0  0  0
  147.1542  139.6136  155.0104 C   0  0  0  0  0  0  0  0  0  0  0  0
  152.1826  141.9111  158.2517 C   0  0  0  0  0  0  0  0  0  0  0  0
  152.4075  142.0979  159.7640 C   0  0  1  0  0  0  0  0  0  0  0  0
  153.6599  141.3665  160.2582 C   0  0  0  0  0  0  0  0  0  0  0  0
  152.5603  143.4871  160.0412 O   0  0  0  0  0  0  0  0  0  0  0  0
  150.8805  146.3699  159.7112 H   0  0  0  0  0  0  0  0  0  0  0  0
  152.6091  146.1027  159.4874 H   0  0  0  0  0  0  0  0  0  0  0  0
  151.8730  145.8437  161.0672 H   0  0  0  0  0  0  0  0  0  0  0  0
  150.5583  143.9336  160.1771 H   0  0  0  0  0  0  0  0  0  0  0  0
  150.3466  144.6588  157.8232 H   0  0  0  0  0  0  0  0  0  0  0  0
  152.0683  144.4822  157.5713 H   0  0  0  0  0  0  0  0  0  0  0  0
  150.1935  143.2511  155.9464 H   0  0  0  0  0  0  0  0  0  0  0  0
  151.7908  142.5770  155.8202 H   0  0  0  0  0  0  0  0  0  0  0  0
  149.9347  140.5325  156.8186 H   0  0  0  0  0  0  0  0  0  0  0  0
  151.4381  139.5753  155.7895 H   0  0  0  0  0  0  0  0  0  0  0  0
  148.2463  141.8051  155.5174 H   0  0  0  0  0  0  0  0  0  0  0  0
  149.2835  141.8241  154.1156 H   0  0  0  0  0  0  0  0  0  0  0  0
  149.9675  138.9618  153.3975 H   0  0  0  0  0  0  0  0  0  0  0  0
  145.5207  136.6874  154.2408 H   0  0  0  0  0  0  0  0  0  0  0  0
  146.3631  141.2530  156.1976 H   0  0  0  0  0  0  0  0  0  0  0  0
  152.0405  140.8506  158.0391 H   0  0  0  0  0  0  0  0  0  0  0  0
  153.0788  142.2195  157.7106 H   0  0  0  0  0  0  0  0  0  0  0  0
  151.5418  141.7207  160.3113 H   0  0  0  0  0  0  0  0  0  0  0  0
  153.5871  140.2945  160.0737 H   0  0  0  0  0  0  0  0  0  0  0  0
  153.7969  141.5101  161.3301 H   0  0  0  0  0  0  0  0  0  0  0  0
  154.5555  141.7333  159.7556 H   0  0  0  0  0  0  0  0  0  0  0  0
  148.1982  137.1087  153.2426 H   0  0  0  0  0  0  0  0  0  0  0  0
  1  2  1  0  0  0  0
  1 24  1  0  0  0  0
  1 25  1  0  0  0  0
  1 26  1  0  0  0  0
  2 23  1  0  0  0  0
  2  3  1  0  0  0  0
  2 27  1  0  0  0  0
  3  4  1  0  0  0  0
  3 28  1  0  0  0  0
  3 29  1  0  0  0  0
  4  5  1  0  0  0  0
  4 20  1  0  0  0  0
  5  6  1  0  0  0  0
  5 30  1  0  0  0  0
  5 31  1  0  0  0  0
  6  7  1  0  0  0  0
  6  8  1  0  0  0  0
  6 32  1  0  0  0  0
  7 33  1  0  0  0  0
  8  9  1  0  0  0  0
  8 34  1  0  0  0  0
  8 35  1  0  0  0  0
  9 19  1  0  0  0  0
  9 10  1  0  0  0  0
 10 11  2  0  0  0  0
 10 36  1  0  0  0  0
 11 12  1  0  0  0  0
 11 45  1  0  0  0  0
 12 19  2  0  0  0  0
 12 13  1  0  0  0  0
 13 14  2  0  0  0  0
 13 37  1  0  0  0  0
 14 15  1  0  0  0  0
 14 16  1  0  0  0  0
 16 17  1  0  0  0  0
 16 18  2  0  0  0  0
 18 19  1  0  0  0  0
 18 38  1  0  0  0  0
 20 21  1  0  0  0  0
 20 39  1  0  0  0  0
 20 40  1  0  0  0  0
 21 22  1  0  0  0  0
 21 23  1  0  0  0  0
 21 41  1  0  0  0  0
 22 42  1  0  0  0  0
 22 43  1  0  0  0  0
 22 44  1  0  0  0  0
M  CHG  1  11   1
M  END
> <s_m_source_file>
AV-unprocessed.smi

> <i_m_source_file_index>
1824

> <i_lp_mmshare_version>
43012

> <i_f3d_flags>
0

> <s_epik_input>
W0NIM11bQ0BASF0xW0NIMl1OKFtDSDJdW0NASF0oTzEpW0NIM10pW0NIMl1bQ0BIXShbT0hdKVtDSDJdbihbY0hdbjIpYyhjMjMpW2NIXWMoRiljKEYpW2NIXTM=

> <s_epik_cmdline>
J2VwaWtfcHl0aG9uJywgJy1waCcsICc3LjAnLCAnLXRuJywgJzgnLCAnLW1hJywgJzIwMCcsICctbWV0YWxfYmluZGluZycsICctaW1hZScsICc8aW5maWxlLm1hZT4nLCAnLW9tYWUnLCAnPG91dGZpbGUubWFlPic=

> <r_epik_Ionization_Penalty>
2.58709

> <r_epik_Ionization_Penalty_Charging>
2.37273

> <r_epik_Ionization_Penalty_Neutral>
0.214359

> <r_epik_State_Penalty>
2.71799

> <r_epik_Charging_Adjusted_Penalty>
5.09071

> <i_epik_Tot_Q>
1

> <i_epik_Tot_abs_Q>
1

> <r_epik_Metal_State_Penalty>
6.80217

> <b_epik_Metal_Only>
0

> <s_lp_Force_Field>
OPLS_2005

> <r_lp_Energy>
32.0118

> <b_lp_Chiralities_Consistent>
1

> <s_lp_Variant>
AV-unprocessed.smi:1824-16

> <Gold.Version>
5.8.1

> <Gold.Id.Protein>
6NUR|6NUR_protein|mol2

> <Gold.PLP.Fitness>
45.3349

> <Gold.PLP.PLP>
-37.0616

> <Gold.PLP.part.hbond>
-2.0000

> <Gold.PLP.part.metal>
0.0000

> <Gold.PLP.part.buried>
-4.5926

> <Gold.PLP.part.nonpolar>
-30.8749

> <Gold.PLP.part.repulsive>
0.1073

> <Gold.PLP.ligand.clash>
0.0000

> <Gold.PLP.ligand.torsion>
0.8528

> <Gold.PLP.Chemscore.Hbond>
3.0000

> <Gold.PLP.Chemscore.CHOScore>
0.3181

> <Gold.PLP.Chemscore.Metal>
0.0000

> <Gold.Chemscore.Hbonds>
donor molecule, donor type, donor heavy atom, donor atom, acceptor molecule, acceptor atom, score
      L1  H    11    45       P1  7948  1.95
      P1  H  7989  7998       L1     7  0.99
      L1  C    10    36       P1  7957  0.49

> <Gold.PLP.Chemscore.Internal.Correction>
0.0246

> <Gold.Rescore>
     Score         DG    S(hbond)    S(metal)    S(lipo)     H(rot)  DE(clash)    DE(int)     intcor
     14.61     -16.99       1.83        0.00      96.94       2.32       1.44       0.93       ----

> <Gold.Chemscore.Fitness>
14.6105

> <Gold.Chemscore.DG>
-16.9878

> <Gold.Chemscore.ZeroCoef>
-5.4800

> <Gold.Chemscore.Hbond>
1.8284

> <Gold.Chemscore.Metal>
0.0000

> <Gold.Chemscore.Lipo>
96.9440

> <Gold.Chemscore.Internal_Hbond>
0.0000

> <Gold.Chemscore.DEClash>
1.4424

> <Gold.Chemscore.DEInternal>
0.9349

> <Gold.Chemscore.Rot>
2.3210

> <Gold.Chemscore.Internal.Correction>
   9.000000E+99

> <Gold.Chemscore.Hbonds>
donor molecule, donor type, donor heavy atom, donor atom, acceptor molecule, acceptor atom, score
      L1  H    11    45       P1  7948  0.93
      P1  H  7989  7998       L1     7  0.87

> <Gold.Chemscore.Hbond.Weighted>
-6.1070

> <Gold.Chemscore.Metal.Weighted>
-0.0000

> <Gold.Chemscore.Lipo.Weighted>
-11.3424

> <Gold.Chemscore.Internal_Hbond.Weighted>
0.0000

> <Gold.Chemscore.DEClash.Weighted>
1.4424

> <Gold.Chemscore.DEInternal.Weighted>
0.9349

> <Gold.Chemscore.Rot.Weighted>
5.9416

> <Gold.Chemscore.Internal.Correction.Weighted>
   9.000000E+99

> <Gold.Protein.RotatedTorsions>
[ 6907 6896 6895 6894 ] final  143.75 input  -60.11 | X-H torsion
[ 7974 7965 7964 7962 ] final   50.12 input  175.53 | X-H torsion
[ 8008 7997 7996 7995 ] final   47.44 input   59.86 | X-H torsion
[ 10167 10162 10161 10158 ] final -127.12 input  -65.29 | X-H torsion
[ 10718 10713 10712 10709 ] final  -81.68 input   66.30 | X-H torsion
[ 10763 10752 10751 10750 ] final  152.10 input  -60.55 | X-H torsion
[ 11005 11000 10999 10996 ] final  165.27 input  -57.11 | X-H torsion

> <Gold.Protein.ActiveResidues>
 VAL166  LYS551  ARG553  GLY616  TRP617  ASP618  TYR619  PRO620  LYS621  CYS622 
 ASP623  PHE694  ASN695  SER759  ASP760  ASP761  ALA762  ILE779  LEU786  VAL792 
 PHE793  MET794  SER795  GLU796  ALA797  LYS798  CYS799  TRP800  GLU811  SER814 

> <Gold.Protein.RotatedAtoms>
  152.2023  133.4850  159.5064 H   0  0  0  0  0  0  0  0  0  0  0  0  # atno 6907 bound_to 6896
  150.6972  134.1574  159.4172 H   0  0  0  0  0  0  0  0  0  0  0  0  # atno 6908 bound_to 6896
  151.9492  135.0177  160.0591 H   0  0  0  0  0  0  0  0  0  0  0  0  # atno 6909 bound_to 6896
  146.0043  139.4473  142.9996 H   0  0  0  0  0  0  0  0  0  0  0  0  # atno 7974 bound_to 7965
  155.3690  140.3423  155.4242 H   0  0  0  0  0  0  0  0  0  0  0  0  # atno 8008 bound_to 7997
  156.1673  140.1620  156.8544 H   0  0  0  0  0  0  0  0  0  0  0  0  # atno 8009 bound_to 7997
  154.5197  140.0770  156.8131 H   0  0  0  0  0  0  0  0  0  0  0  0  # atno 8010 bound_to 7997
  139.9642  143.5916  152.2435 H   0  0  0  0  0  0  0  0  0  0  0  0  # atno 10167 bound_to 10162
  156.0046  130.4611  150.3989 H   0  0  0  0  0  0  0  0  0  0  0  0  # atno 10718 bound_to 10713
  154.1145  135.2837  155.3223 H   0  0  0  0  0  0  0  0  0  0  0  0  # atno 10763 bound_to 10752
  154.6466  135.5383  153.7855 H   0  0  0  0  0  0  0  0  0  0  0  0  # atno 10764 bound_to 10752
  153.0334  135.6499  154.1302 H   0  0  0  0  0  0  0  0  0  0  0  0  # atno 10765 bound_to 10752
  140.2544  134.7951  157.3532 H   0  0  0  0  0  0  0  0  0  0  0  0  # atno 11005 bound_to 11000
  145.7440  140.9997  143.1286 LP  0  0  0  0  0  0  0  0  0  0  0  0  # atno 17320 bound_to 7965
  144.6930  139.9134  143.7464 LP  0  0  0  0  0  0  0  0  0  0  0  0  # atno 17321 bound_to 7965
  139.6530  144.7661  151.2110 LP  0  0  0  0  0  0  0  0  0  0  0  0  # atno 17342 bound_to 10162
  140.7543  143.6130  150.8587 LP  0  0  0  0  0  0  0  0  0  0  0  0  # atno 17343 bound_to 10162
  157.2059  131.0449  151.2625 LP  0  0  0  0  0  0  0  0  0  0  0  0  # atno 17370 bound_to 10713
  157.3933  130.7294  149.6713 LP  0  0  0  0  0  0  0  0  0  0  0  0  # atno 17371 bound_to 10713
  140.1526  134.4831  155.7950 LP  0  0  0  0  0  0  0  0  0  0  0  0  # atno 17394 bound_to 11000
  141.2198  133.6868  156.7404 LP  0  0  0  0  0  0  0  0  0  0  0  0  # atno 17395 bound_to 11000

$$$$
