AV-unprocessed.smi:445|AV-procd|sdf|2591|dock10
  -GOLD-   2262022583D 1   1.00000     0.00000
 Structure written by MMmdl.
 44 45  0  0  0  0  0  0  0  0  3 V2000
  147.9589  132.2221  160.6709 C   0  0  0  0  0  0  0  0  0  0  0  0
  147.2382  133.0018  161.7842 C   0  0  2  0  0  0  0  0  0  0  0  0
  145.7051  132.8741  161.6651 C   0  0  0  0  0  0  0  0  0  0  0  0
  144.9864  133.6037  162.8114 C   0  0  0  0  0  0  0  0  0  0  0  0
  145.4047  135.0799  162.8842 C   0  0  0  0  0  0  0  0  0  0  0  0
  146.9324  135.2208  163.0019 C   0  0  0  0  0  0  0  0  0  0  0  0
  147.6762  134.4865  161.8680 C   0  0  2  0  0  0  0  0  0  0  0  0
  147.4631  135.1872  160.5998 N   0  0  0  0  0  0  0  0  0  0  0  0
  147.8356  136.4446  160.3154 C   0  0  0  0  0  0  0  0  0  0  0  0
  148.4366  137.1716  161.1078 O   0  0  0  0  0  0  0  0  0  0  0  0
  147.4923  136.9394  158.9033 C   0  0  0  0  0  0  0  0  0  0  0  0
  148.3835  138.0159  158.4335 N   0  0  0  0  0  0  0  0  0  0  0  0
  149.7584  137.7225  158.3995 C   0  0  0  0  0  0  0  0  0  0  0  0
  150.6742  138.6220  157.9998 C   0  0  0  0  0  0  0  0  0  0  0  0
  152.0846  138.2977  157.9792 N   0  3  0  0  0  0  0  0  0  0  0  0
  152.4303  137.1521  158.2499 O   0  0  0  0  0  0  0  0  0  0  0  0
  152.8935  139.1753  157.6930 O   0  5  0  0  0  0  0  0  0  0  0  0
  150.2048  139.9305  157.5932 C   0  0  0  0  0  0  0  0  0  0  0  0
  148.8827  140.2379  157.6221 C   0  0  0  0  0  0  0  0  0  0  0  0
  148.3589  141.5616  157.2166 C   0  0  0  0  0  0  0  0  0  0  0  0
  149.3048  142.4608  156.9170 N   0  0  0  0  0  0  0  0  0  0  0  0
  147.1772  141.8964  157.1344 O   0  0  0  0  0  0  0  0  0  0  0  0
  147.8774  139.2361  158.0704 C   0  0  0  0  0  0  0  0  0  0  0  0
  146.6613  139.4369  158.1314 O   0  0  0  0  0  0  0  0  0  0  0  0
  147.6814  132.5818  159.6798 H   0  0  0  0  0  0  0  0  0  0  0  0
  147.7120  131.1611  160.7153 H   0  0  0  0  0  0  0  0  0  0  0  0
  149.0412  132.3123  160.7674 H   0  0  0  0  0  0  0  0  0  0  0  0
  147.5257  132.5335  162.7268 H   0  0  0  0  0  0  0  0  0  0  0  0
  145.3702  133.2774  160.7085 H   0  0  0  0  0  0  0  0  0  0  0  0
  145.4183  131.8220  161.6702 H   0  0  0  0  0  0  0  0  0  0  0  0
  143.9066  133.5297  162.6799 H   0  0  0  0  0  0  0  0  0  0  0  0
  145.2164  133.1122  163.7575 H   0  0  0  0  0  0  0  0  0  0  0  0
  145.0517  135.6051  161.9960 H   0  0  0  0  0  0  0  0  0  0  0  0
  144.9224  135.5603  163.7359 H   0  0  0  0  0  0  0  0  0  0  0  0
  147.2107  136.2755  163.0147 H   0  0  0  0  0  0  0  0  0  0  0  0
  147.2531  134.8128  163.9612 H   0  0  0  0  0  0  0  0  0  0  0  0
  148.7385  134.5079  162.1170 H   0  0  0  0  0  0  0  0  0  0  0  0
  146.9829  134.6685  159.8787 H   0  0  0  0  0  0  0  0  0  0  0  0
  147.5319  136.0836  158.2281 H   0  0  0  0  0  0  0  0  0  0  0  0
  146.4521  137.2701  158.8751 H   0  0  0  0  0  0  0  0  0  0  0  0
  150.0121  136.7247  158.7282 H   0  0  0  0  0  0  0  0  0  0  0  0
  150.9387  140.6518  157.2669 H   0  0  0  0  0  0  0  0  0  0  0  0
  149.0460  143.3923  156.6270 H   0  0  0  0  0  0  0  0  0  0  0  0
  150.2784  142.2000  156.9808 H   0  0  0  0  0  0  0  0  0  0  0  0
  1  2  1  0  0  0  0
  1 25  1  0  0  0  0
  1 26  1  0  0  0  0
  1 27  1  0  0  0  0
  2  7  1  0  0  0  0
  2  3  1  0  0  0  0
  2 28  1  0  0  0  0
  3  4  1  0  0  0  0
  3 29  1  0  0  0  0
  3 30  1  0  0  0  0
  4  5  1  0  0  0  0
  4 31  1  0  0  0  0
  4 32  1  0  0  0  0
  5  6  1  0  0  0  0
  5 33  1  0  0  0  0
  5 34  1  0  0  0  0
  6  7  1  0  0  0  0
  6 35  1  0  0  0  0
  6 36  1  0  0  0  0
  7  8  1  0  0  0  0
  7 37  1  0  0  0  0
  8  9  1  0  0  0  0
  8 38  1  0  0  0  0
  9 10  2  0  0  0  0
  9 11  1  0  0  0  0
 11 12  1  0  0  0  0
 11 39  1  0  0  0  0
 11 40  1  0  0  0  0
 12 23  1  0  0  0  0
 12 13  1  0  0  0  0
 13 14  2  0  0  0  0
 13 41  1  0  0  0  0
 14 15  1  0  0  0  0
 14 18  1  0  0  0  0
 15 16  2  0  0  0  0
 15 17  1  0  0  0  0
 18 19  2  0  0  0  0
 18 42  1  0  0  0  0
 19 20  1  0  0  0  0
 19 23  1  0  0  0  0
 20 21  1  0  0  0  0
 20 22  2  0  0  0  0
 21 43  1  0  0  0  0
 21 44  1  0  0  0  0
 23 24  2  0  0  0  0
M  CHG  1  15   1
M  CHG  1  17  -1
M  END
> <s_m_source_file>
AV-unprocessed.smi

> <i_m_source_file_index>
445

> <i_lp_mmshare_version>
43012

> <i_f3d_flags>
0

> <s_epik_input>
W0NIM11bQ0BASF0xW0NIMl1bQ0gyXVtDSDJdW0NIMl1bQ0BIXTFbTkhdQyg9TylbQ0gyXW4yW2NIXWMoW04rXSg9TylbTy1dKVtjSF1jKGMyPU8pQyg9TylbTkgyXQ==

> <s_epik_cmdline>
J2VwaWtfcHl0aG9uJywgJy1waCcsICc3LjAnLCAnLXRuJywgJzgnLCAnLW1hJywgJzIwMCcsICctbWV0YWxfYmluZGluZycsICctaW1hZScsICc8aW5maWxlLm1hZT4nLCAnLW9tYWUnLCAnPG91dGZpbGUubWFlPic=

> <r_lp_tautomer_probability>
1

> <r_epik_Ionization_Penalty>
2.81321e-06

> <r_epik_Ionization_Penalty_Charging>
2.43777e-12

> <r_epik_Ionization_Penalty_Neutral>
2.81321e-06

> <r_epik_State_Penalty>
-0

> <r_epik_Charging_Adjusted_Penalty>
2.43777e-12

> <i_epik_Tot_Q>
0

> <i_epik_Tot_abs_Q>
2

> <r_epik_Metal_State_Penalty>
-0

> <b_epik_Metal_Only>
0

> <s_lp_Force_Field>
OPLS_2005

> <r_lp_Energy>
27.547

> <b_lp_Chiralities_Consistent>
1

> <s_lp_Variant>
AV-unprocessed.smi:445-3

> <Gold.Version>
5.8.1

> <Gold.Id.Protein>
6NUR|6NUR_protein|mol2

> <Gold.PLP.Fitness>
42.5613

> <Gold.PLP.PLP>
-33.2930

> <Gold.PLP.part.hbond>
-3.8347

> <Gold.PLP.part.metal>
0.0000

> <Gold.PLP.part.buried>
-5.4252

> <Gold.PLP.part.nonpolar>
-22.9362

> <Gold.PLP.part.repulsive>
0.2218

> <Gold.PLP.ligand.clash>
0.0000

> <Gold.PLP.ligand.torsion>
0.3881

> <Gold.PLP.Chemscore.Hbond>
3.3371

> <Gold.PLP.Chemscore.CHOScore>
0.0000

> <Gold.PLP.Chemscore.Metal>
0.0000

> <Gold.Chemscore.Hbonds>
donor molecule, donor type, donor heavy atom, donor atom, acceptor molecule, acceptor atom, score
      L1  H    21    43       P1  8028  1.00
      P1  H  6931  6943       L1    10  0.83
      P1  H  6934  6947       L1    10  0.27
      P1  H  7997  8008       L1    17  1.00

> <Gold.PLP.Chemscore.Internal.Correction>
0.0332

> <Gold.Rescore>
     Score         DG    S(hbond)    S(metal)    S(lipo)     H(rot)  DE(clash)    DE(int)     intcor
     18.37     -20.28       3.45        0.00      65.40       1.71       0.04       1.87       ----

> <Gold.Chemscore.Fitness>
18.3715

> <Gold.Chemscore.DG>
-20.2845

> <Gold.Chemscore.ZeroCoef>
-5.4800

> <Gold.Chemscore.Hbond>
3.4538

> <Gold.Chemscore.Metal>
0.0000

> <Gold.Chemscore.Lipo>
65.4040

> <Gold.Chemscore.Internal_Hbond>
0.0000

> <Gold.Chemscore.DEClash>
0.0402

> <Gold.Chemscore.DEInternal>
1.8727

> <Gold.Chemscore.Rot>
1.7123

> <Gold.Chemscore.Internal.Correction>
   9.000000E+99

> <Gold.Chemscore.Hbonds>
donor molecule, donor type, donor heavy atom, donor atom, acceptor molecule, acceptor atom, score
      L1  H    21    43       P1  8028  0.94
      P1  H  6931  6943       L1    10  0.79
      P1  H  6934  6947       L1    10  0.07
      P1  H  7997  8008       L1    17  0.97

> <Gold.Chemscore.Hbond.Weighted>
-11.5357

> <Gold.Chemscore.Metal.Weighted>
-0.0000

> <Gold.Chemscore.Lipo.Weighted>
-7.6523

> <Gold.Chemscore.Internal_Hbond.Weighted>
0.0000

> <Gold.Chemscore.DEClash.Weighted>
0.0402

> <Gold.Chemscore.DEInternal.Weighted>
1.8727

> <Gold.Chemscore.Rot.Weighted>
4.3835

> <Gold.Chemscore.Internal.Correction.Weighted>
   9.000000E+99

> <Gold.Protein.RotatedTorsions>
[ 6907 6896 6895 6894 ] final  106.11 input  -60.11 | X-H torsion
[ 7974 7965 7964 7962 ] final    8.07 input  175.53 | X-H torsion
[ 8008 7997 7996 7995 ] final  -69.91 input   59.86 | X-H torsion
[ 10167 10162 10161 10158 ] final   31.52 input  -65.29 | X-H torsion
[ 10718 10713 10712 10709 ] final  -60.49 input   66.30 | X-H torsion
[ 10763 10752 10751 10750 ] final  161.37 input  -60.55 | X-H torsion
[ 11005 11000 10999 10996 ] final  115.88 input  -57.11 | X-H torsion

> <Gold.Protein.ActiveResidues>
 VAL166  LYS551  ARG553  GLY616  TRP617  ASP618  TYR619  PRO620  LYS621  CYS622 
 ASP623  PHE694  ASN695  SER759  ASP760  ASP761  ALA762  ILE779  LEU786  VAL792 
 PHE793  MET794  SER795  GLU796  ALA797  LYS798  CYS799  TRP800  GLU811  SER814 

> <Gold.Protein.RotatedAtoms>
  152.5206  133.9430  159.7635 H   0  0  0  0  0  0  0  0  0  0  0  0  # atno 6907 bound_to 6896
  150.9756  133.6290  159.2738 H   0  0  0  0  0  0  0  0  0  0  0  0  # atno 6908 bound_to 6896
  151.3486  135.0885  159.9448 H   0  0  0  0  0  0  0  0  0  0  0  0  # atno 6909 bound_to 6896
  146.2420  139.9988  142.8418 H   0  0  0  0  0  0  0  0  0  0  0  0  # atno 7974 bound_to 7965
  154.4973  140.0844  156.7724 H   0  0  0  0  0  0  0  0  0  0  0  0  # atno 8008 bound_to 7997
  155.4086  140.3440  155.4244 H   0  0  0  0  0  0  0  0  0  0  0  0  # atno 8009 bound_to 7997
  156.1411  140.1529  156.8907 H   0  0  0  0  0  0  0  0  0  0  0  0  # atno 8010 bound_to 7997
  140.4581  144.0948  150.6206 H   0  0  0  0  0  0  0  0  0  0  0  0  # atno 10167 bound_to 10162
  156.0987  130.4189  150.0861 H   0  0  0  0  0  0  0  0  0  0  0  0  # atno 10718 bound_to 10713
  154.2618  135.2768  155.2775 H   0  0  0  0  0  0  0  0  0  0  0  0  # atno 10763 bound_to 10752
  154.5377  135.5711  153.6816 H   0  0  0  0  0  0  0  0  0  0  0  0  # atno 10764 bound_to 10752
  152.9961  135.6243  154.2769 H   0  0  0  0  0  0  0  0  0  0  0  0  # atno 10765 bound_to 10752
  139.9024  134.9590  156.7113 H   0  0  0  0  0  0  0  0  0  0  0  0  # atno 11005 bound_to 11000
  145.1435  140.9584  143.4475 LP  0  0  0  0  0  0  0  0  0  0  0  0  # atno 17320 bound_to 7965
  145.0273  139.3371  143.6042 LP  0  0  0  0  0  0  0  0  0  0  0  0  # atno 17321 bound_to 7965
  140.4127  143.2649  151.9813 LP  0  0  0  0  0  0  0  0  0  0  0  0  # atno 17342 bound_to 10162
  139.4803  144.5901  151.7786 LP  0  0  0  0  0  0  0  0  0  0  0  0  # atno 17343 bound_to 10162
  156.8854  130.9570  151.3594 LP  0  0  0  0  0  0  0  0  0  0  0  0  # atno 17370 bound_to 10713
  157.6153  130.8614  149.9018 LP  0  0  0  0  0  0  0  0  0  0  0  0  # atno 17371 bound_to 10713
  140.7073  133.9254  155.8062 LP  0  0  0  0  0  0  0  0  0  0  0  0  # atno 17394 bound_to 11000
  141.0327  134.0734  157.3996 LP  0  0  0  0  0  0  0  0  0  0  0  0  # atno 17395 bound_to 11000

$$$$
