AV-unprocessed.smi:1819|AV-procd|sdf|7382|dock5
  -GOLD-   22720 9 53D 1   1.00000     0.00000
 Structure written by MMmdl.
 29 29  0  0  0  0  0  0  0  0  1 V2000
  151.7818  139.8979  154.7871 O   0  0  0  0  0  0  0  0  0  0  0  0
  150.6535  139.8213  155.2756 C   0  0  0  0  0  0  0  0  0  0  0  0
  149.4553  139.3828  154.4212 C   0  0  0  0  0  0  0  0  0  0  0  0
  148.2750  140.2395  154.6063 N   0  0  0  0  0  0  0  0  0  0  0  0
  148.0821  141.3514  153.7985 C   0  0  0  0  0  0  0  0  0  0  0  0
  147.0135  142.1758  153.9074 C   0  0  0  0  0  0  0  0  0  0  0  0
  145.9849  141.9235  154.9109 C   0  0  0  0  0  0  0  0  0  0  0  0
  144.9829  142.6126  155.0886 O   0  0  0  0  0  0  0  0  0  0  0  0
  146.2133  140.7945  155.7021 N   0  0  0  0  0  0  0  0  0  0  0  0
  147.3114  139.9395  155.5938 C   0  0  0  0  0  0  0  0  0  0  0  0
  147.4138  138.9669  156.3406 O   0  0  0  0  0  0  0  0  0  0  0  0
  150.3879  140.1286  156.5531 N   0  0  0  0  0  0  0  0  0  0  0  0
  151.3864  140.5676  157.5175 C   0  0  0  0  0  0  0  0  0  0  0  0
  151.1545  142.0318  157.9058 C   0  0  0  0  0  0  0  0  0  0  0  0
  151.8940  142.4150  159.5170 S   0  0  0  0  0  0  0  0  0  0  0  0
  151.5175  144.1848  159.6324 C   0  0  0  0  0  0  0  0  0  0  0  0
  150.2146  144.3816  159.4386 F   0  0  0  0  0  0  0  0  0  0  0  0
  151.8447  144.6486  160.8377 F   0  0  0  0  0  0  0  0  0  0  0  0
  152.1940  144.8619  158.7057 F   0  0  0  0  0  0  0  0  0  0  0  0
  145.5260  140.5780  156.4094 H   0  0  0  0  0  0  0  0  0  0  0  0
  149.7393  139.3586  153.3670 H   0  0  0  0  0  0  0  0  0  0  0  0
  149.2170  138.3495  154.6782 H   0  0  0  0  0  0  0  0  0  0  0  0
  148.8168  141.5746  153.0379 H   0  0  0  0  0  0  0  0  0  0  0  0
  146.9186  143.0262  153.2477 H   0  0  0  0  0  0  0  0  0  0  0  0
  149.4354  140.0462  156.8784 H   0  0  0  0  0  0  0  0  0  0  0  0
  151.3380  139.9340  158.4047 H   0  0  0  0  0  0  0  0  0  0  0  0
  152.3817  140.4467  157.0871 H   0  0  0  0  0  0  0  0  0  0  0  0
  151.5860  142.6941  157.1547 H   0  0  0  0  0  0  0  0  0  0  0  0
  150.0861  142.2451  157.9498 H   0  0  0  0  0  0  0  0  0  0  0  0
  1  2  2  0  0  0  0
  2  3  1  0  0  0  0
  2 12  1  0  0  0  0
  3  4  1  0  0  0  0
  3 21  1  0  0  0  0
  3 22  1  0  0  0  0
  4 10  1  0  0  0  0
  4  5  1  0  0  0  0
  5  6  2  0  0  0  0
  5 23  1  0  0  0  0
  6  7  1  0  0  0  0
  6 24  1  0  0  0  0
  7  8  2  0  0  0  0
  7  9  1  0  0  0  0
  9 20  1  0  0  0  0
  9 10  1  0  0  0  0
 10 11  2  0  0  0  0
 12 13  1  0  0  0  0
 12 25  1  0  0  0  0
 13 14  1  0  0  0  0
 13 26  1  0  0  0  0
 13 27  1  0  0  0  0
 14 15  1  0  0  0  0
 14 28  1  0  0  0  0
 14 29  1  0  0  0  0
 15 16  1  0  0  0  0
 16 17  1  0  0  0  0
 16 18  1  0  0  0  0
 16 19  1  0  0  0  0
M  END
> <s_m_source_file>
AV-unprocessed.smi

> <i_m_source_file_index>
1819

> <i_lp_mmshare_version>
43012

> <i_f3d_flags>
0

> <s_epik_input>
RkMoRikoRilTW0NIMl1bQ0gyXVtOSF1DKD1PKVtDSDJdbjFbY0hdW2NIXWMoPU8pW25IXWMxPU8=

> <s_epik_cmdline>
J2VwaWtfcHl0aG9uJywgJy1waCcsICc3LjAnLCAnLXRuJywgJzgnLCAnLW1hJywgJzIwMCcsICctbWV0YWxfYmluZGluZycsICctaW1hZScsICc8aW5maWxlLm1hZT4nLCAnLW9tYWUnLCAnPG91dGZpbGUubWFlPic=

> <r_lp_tautomer_probability>
0.999537

> <r_epik_Ionization_Penalty>
0.00347617

> <r_epik_Ionization_Penalty_Charging>
0.00347613

> <r_epik_Ionization_Penalty_Neutral>
4.33222e-08

> <r_epik_State_Penalty>
0.00246522

> <r_epik_Charging_Adjusted_Penalty>
0.00594136

> <i_epik_Tot_Q>
0

> <i_epik_Tot_abs_Q>
0

> <r_epik_Metal_State_Penalty>
0.367629

> <b_epik_Metal_Only>
0

> <s_lp_Force_Field>
OPLS_2005

> <r_lp_Energy>
-0.213216

> <b_lp_Chiralities_Consistent>
1

> <s_lp_Variant>
AV-unprocessed.smi:1819-1

> <Gold.Version>
5.8.1

> <Gold.Id.Protein>
6NUR|6NUR_protein|mol2

> <Gold.PLP.Fitness>
44.1452

> <Gold.PLP.PLP>
-39.5725

> <Gold.PLP.part.hbond>
-0.8498

> <Gold.PLP.part.metal>
0.0000

> <Gold.PLP.part.buried>
-5.6369

> <Gold.PLP.part.nonpolar>
-32.2542

> <Gold.PLP.part.repulsive>
0.2948

> <Gold.PLP.ligand.clash>
0.0000

> <Gold.PLP.ligand.torsion>
0.7406

> <Gold.PLP.Chemscore.Hbond>
0.9920

> <Gold.PLP.Chemscore.CHOScore>
1.0000

> <Gold.PLP.Chemscore.Metal>
0.0000

> <Gold.Chemscore.Hbonds>
donor molecule, donor type, donor heavy atom, donor atom, acceptor molecule, acceptor atom, score
      P1  H  7989  7998       L1     1  1.00
      L1  C     5    23       P1  7957  0.94

> <Gold.PLP.Chemscore.Internal.Correction>
0.0778

> <Gold.Rescore>
     Score         DG    S(hbond)    S(metal)    S(lipo)     H(rot)  DE(clash)    DE(int)     intcor
      6.65      -7.27       0.94        0.00      52.74       2.93       0.00       0.62       ----

> <Gold.Chemscore.Fitness>
6.6522

> <Gold.Chemscore.DG>
-7.2726

> <Gold.Chemscore.ZeroCoef>
-5.4800

> <Gold.Chemscore.Hbond>
0.9374

> <Gold.Chemscore.Metal>
0.0000

> <Gold.Chemscore.Lipo>
52.7391

> <Gold.Chemscore.Internal_Hbond>
0.0000

> <Gold.Chemscore.DEClash>
0.0040

> <Gold.Chemscore.DEInternal>
0.6163

> <Gold.Chemscore.Rot>
2.9332

> <Gold.Chemscore.Internal.Correction>
   9.000000E+99

> <Gold.Chemscore.Hbonds>
donor molecule, donor type, donor heavy atom, donor atom, acceptor molecule, acceptor atom, score
      P1  H  7989  7998       L1     1  0.56

> <Gold.Chemscore.Hbond.Weighted>
-3.1310

> <Gold.Chemscore.Metal.Weighted>
-0.0000

> <Gold.Chemscore.Lipo.Weighted>
-6.1705

> <Gold.Chemscore.Internal_Hbond.Weighted>
0.0000

> <Gold.Chemscore.DEClash.Weighted>
0.0040

> <Gold.Chemscore.DEInternal.Weighted>
0.6163

> <Gold.Chemscore.Rot.Weighted>
7.5089

> <Gold.Chemscore.Internal.Correction.Weighted>
   9.000000E+99

> <Gold.Protein.RotatedTorsions>
[ 6907 6896 6895 6894 ] final  -93.06 input  -60.11 | X-H torsion
[ 7974 7965 7964 7962 ] final   82.31 input  175.53 | X-H torsion
[ 8008 7997 7996 7995 ] final  -18.49 input   59.86 | X-H torsion
[ 10167 10162 10161 10158 ] final  -34.66 input  -65.29 | X-H torsion
[ 10718 10713 10712 10709 ] final  163.09 input   66.30 | X-H torsion
[ 10763 10752 10751 10750 ] final  -64.27 input  -60.55 | X-H torsion
[ 11005 11000 10999 10996 ] final    4.12 input  -57.11 | X-H torsion

> <Gold.Protein.ActiveResidues>
 VAL166  LYS551  ARG553  GLY616  TRP617  ASP618  TYR619  PRO620  LYS621  CYS622 
 ASP623  PHE694  ASN695  SER759  ASP760  ASP761  ALA762  ILE779  LEU786  VAL792 
 PHE793  MET794  SER795  GLU796  ALA797  LYS798  CYS799  TRP800  GLU811  SER814 

> <Gold.Protein.RotatedAtoms>
  150.6916  134.2026  159.4327 H   0  0  0  0  0  0  0  0  0  0  0  0  # atno 6907 bound_to 6896
  151.9991  134.9935  160.0573 H   0  0  0  0  0  0  0  0  0  0  0  0  # atno 6908 bound_to 6896
  152.1595  133.4538  159.4891 H   0  0  0  0  0  0  0  0  0  0  0  0  # atno 6909 bound_to 6896
  145.6267  139.2396  143.2108 H   0  0  0  0  0  0  0  0  0  0  0  0  # atno 7974 bound_to 7965
  154.4902  140.2114  155.9565 H   0  0  0  0  0  0  0  0  0  0  0  0  # atno 8008 bound_to 7997
  156.1295  140.3199  155.8296 H   0  0  0  0  0  0  0  0  0  0  0  0  # atno 8009 bound_to 7997
  155.4323  140.0504  157.3008 H   0  0  0  0  0  0  0  0  0  0  0  0  # atno 8010 bound_to 7997
  140.7181  143.3532  151.2112 H   0  0  0  0  0  0  0  0  0  0  0  0  # atno 10167 bound_to 10162
  157.1133  131.0473  151.2447 H   0  0  0  0  0  0  0  0  0  0  0  0  # atno 10718 bound_to 10713
  154.3276  135.6183  153.5536 H   0  0  0  0  0  0  0  0  0  0  0  0  # atno 10763 bound_to 10752
  152.9814  135.5739  154.4998 H   0  0  0  0  0  0  0  0  0  0  0  0  # atno 10764 bound_to 10752
  154.4678  135.2858  155.1642 H   0  0  0  0  0  0  0  0  0  0  0  0  # atno 10765 bound_to 10752
  140.5855  133.9973  155.8066 H   0  0  0  0  0  0  0  0  0  0  0  0  # atno 11005 bound_to 11000
  146.1389  140.7085  142.9376 LP  0  0  0  0  0  0  0  0  0  0  0  0  # atno 17320 bound_to 7965
  144.7209  140.4371  143.7008 LP  0  0  0  0  0  0  0  0  0  0  0  0  # atno 17321 bound_to 7965
  139.7068  143.9442  152.2930 LP  0  0  0  0  0  0  0  0  0  0  0  0  # atno 17342 bound_to 10162
  139.9154  144.6832  150.8518 LP  0  0  0  0  0  0  0  0  0  0  0  0  # atno 17343 bound_to 10162
  157.4540  130.7615  149.7176 LP  0  0  0  0  0  0  0  0  0  0  0  0  # atno 17370 bound_to 10713
  155.9845  130.3991  150.3307 LP  0  0  0  0  0  0  0  0  0  0  0  0  # atno 17371 bound_to 10713
  141.0969  133.9829  157.3145 LP  0  0  0  0  0  0  0  0  0  0  0  0  # atno 17394 bound_to 11000
  139.9298  135.0200  156.8360 LP  0  0  0  0  0  0  0  0  0  0  0  0  # atno 17395 bound_to 11000

$$$$
