AV-unprocessed.smi:3308|AV-procd|sdf|12715|dock7
  -GOLD-   2272019 53D 1   1.00000     0.00000
 Structure written by MMmdl.
 40 41  0  0  0  0  0  0  0  0  1 V2000
  147.8706  141.7394  154.0770 C   0  0  0  0  0  0  0  0  0  0  0  0
  148.9514  141.4031  155.1191 C   0  0  1  0  0  0  0  0  0  0  0  0
  148.6394  142.2127  156.2997 N   0  0  0  0  0  0  0  0  0  0  0  0
  149.3998  141.8578  157.5104 C   0  0  0  0  0  0  0  0  0  0  0  0
  149.3525  142.9350  158.6108 C   0  0  0  0  0  0  0  0  0  0  0  0
  148.3309  143.0306  159.2922 O   0  0  0  0  0  0  0  0  0  0  0  0
  150.4146  143.7482  158.7988 N   0  0  0  0  0  0  0  0  0  0  0  0
  151.6510  143.6355  158.0267 C   0  0  0  0  0  0  0  0  0  0  0  0
  152.6688  144.5278  158.7368 C   0  0  0  0  0  0  0  0  0  0  0  0
  151.8162  145.5711  159.4437 C   0  0  0  0  0  0  0  0  0  0  0  0
  150.5197  144.8322  159.7753 C   0  0  0  0  0  0  0  0  0  0  0  0
  148.9840  139.8970  155.5032 C   0  0  1  0  0  0  0  0  0  0  0  0
  147.8332  139.0851  154.8758 C   0  0  0  0  0  0  0  0  0  0  0  0
  150.2646  139.2841  155.1659 N   0  0  0  0  0  0  0  0  0  0  0  0
  151.5258  139.6681  155.5729 C   0  0  0  0  0  0  0  0  0  0  0  0
  152.4216  138.8216  154.9853 C   0  0  0  0  0  0  0  0  0  0  0  0
  151.6047  137.9415  154.2226 C   0  0  0  0  0  0  0  0  0  0  0  0
  150.3163  138.2211  154.3302 N   0  0  0  0  0  0  0  0  0  0  0  0
  148.0755  141.2632  153.1185 H   0  0  0  0  0  0  0  0  0  0  0  0
  147.8260  142.8132  153.8897 H   0  0  0  0  0  0  0  0  0  0  0  0
  146.8818  141.4178  154.4067 H   0  0  0  0  0  0  0  0  0  0  0  0
  149.9159  141.6780  154.6903 H   0  0  0  0  0  0  0  0  0  0  0  0
  148.7604  143.1899  156.0740 H   0  0  0  0  0  0  0  0  0  0  0  0
  148.9724  140.9453  157.9258 H   0  0  0  0  0  0  0  0  0  0  0  0
  150.4161  141.6023  157.2209 H   0  0  0  0  0  0  0  0  0  0  0  0
  152.0052  142.6053  157.9647 H   0  0  0  0  0  0  0  0  0  0  0  0
  151.4692  143.9935  157.0122 H   0  0  0  0  0  0  0  0  0  0  0  0
  153.2154  143.9418  159.4768 H   0  0  0  0  0  0  0  0  0  0  0  0
  153.3964  144.9664  158.0535 H   0  0  0  0  0  0  0  0  0  0  0  0
  152.3021  145.9883  160.3261 H   0  0  0  0  0  0  0  0  0  0  0  0
  151.6042  146.3931  158.7586 H   0  0  0  0  0  0  0  0  0  0  0  0
  149.6659  145.5100  159.7354 H   0  0  0  0  0  0  0  0  0  0  0  0
  150.5743  144.4036  160.7766 H   0  0  0  0  0  0  0  0  0  0  0  0
  148.8724  139.8202  156.5861 H   0  0  0  0  0  0  0  0  0  0  0  0
  146.8635  139.3977  155.2620 H   0  0  0  0  0  0  0  0  0  0  0  0
  147.9364  138.0233  155.1021 H   0  0  0  0  0  0  0  0  0  0  0  0
  147.8109  139.1928  153.7907 H   0  0  0  0  0  0  0  0  0  0  0  0
  151.6794  140.5065  156.2362 H   0  0  0  0  0  0  0  0  0  0  0  0
  153.4970  138.8317  155.0828 H   0  0  0  0  0  0  0  0  0  0  0  0
  151.9071  137.1158  153.5957 H   0  0  0  0  0  0  0  0  0  0  0  0
  1  2  1  0  0  0  0
  1 19  1  0  0  0  0
  1 20  1  0  0  0  0
  1 21  1  0  0  0  0
  2  3  1  0  0  0  0
  2 12  1  0  0  0  0
  2 22  1  0  0  0  0
  3  4  1  0  0  0  0
  3 23  1  0  0  0  0
  4  5  1  0  0  0  0
  4 24  1  0  0  0  0
  4 25  1  0  0  0  0
  5  6  2  0  0  0  0
  5  7  1  0  0  0  0
  7 11  1  0  0  0  0
  7  8  1  0  0  0  0
  8  9  1  0  0  0  0
  8 26  1  0  0  0  0
  8 27  1  0  0  0  0
  9 10  1  0  0  0  0
  9 28  1  0  0  0  0
  9 29  1  0  0  0  0
 10 11  1  0  0  0  0
 10 30  1  0  0  0  0
 10 31  1  0  0  0  0
 11 32  1  0  0  0  0
 11 33  1  0  0  0  0
 12 13  1  0  0  0  0
 12 14  1  0  0  0  0
 12 34  1  0  0  0  0
 13 35  1  0  0  0  0
 13 36  1  0  0  0  0
 13 37  1  0  0  0  0
 14 18  1  0  0  0  0
 14 15  1  0  0  0  0
 15 16  2  0  0  0  0
 15 38  1  0  0  0  0
 16 17  1  0  0  0  0
 16 39  1  0  0  0  0
 17 18  2  0  0  0  0
 17 40  1  0  0  0  0
M  END
> <s_m_source_file>
AV-unprocessed.smi

> <i_m_source_file_index>
3308

> <i_lp_mmshare_version>
43012

> <i_f3d_flags>
0

> <s_epik_input>
bjFbY0hdW2NIXVtjSF1uMVtDQEBIXShbQ0gzXSlbQ0BIXShbQ0gzXSlbTkhdW0NIMl1DKD1PKU4yW0NIMl1bQ0gyXVtDSDJdW0NIMl0y

> <s_epik_cmdline>
J2VwaWtfcHl0aG9uJywgJy1waCcsICc3LjAnLCAnLXRuJywgJzgnLCAnLW1hJywgJzIwMCcsICctbWV0YWxfYmluZGluZycsICctaW1hZScsICc8aW5maWxlLm1hZT4nLCAnLW9tYWUnLCAnPG91dGZpbGUubWFlPic=

> <r_lp_tautomer_probability>
1

> <r_epik_Ionization_Penalty>
0.918676

> <r_epik_Ionization_Penalty_Charging>
0

> <r_epik_Ionization_Penalty_Neutral>
0.918676

> <r_epik_State_Penalty>
0.958258

> <r_epik_Charging_Adjusted_Penalty>
0.958258

> <i_epik_Tot_Q>
0

> <i_epik_Tot_abs_Q>
0

> <r_epik_Metal_State_Penalty>
0.956879

> <b_epik_Metal_Only>
0

> <s_lp_Force_Field>
OPLS_2005

> <r_lp_Energy>
35.595

> <b_lp_Chiralities_Consistent>
1

> <s_lp_Variant>
AV-unprocessed.smi:3308-8

> <Gold.Version>
5.8.1

> <Gold.Id.Protein>
6NUR|6NUR_protein|mol2

> <Gold.PLP.Fitness>
43.7817

> <Gold.PLP.PLP>
-40.6195

> <Gold.PLP.part.hbond>
-2.0000

> <Gold.PLP.part.metal>
0.0000

> <Gold.PLP.part.buried>
-5.7930

> <Gold.PLP.part.nonpolar>
-34.6040

> <Gold.PLP.part.repulsive>
0.3507

> <Gold.PLP.ligand.clash>
0.0000

> <Gold.PLP.ligand.torsion>
1.8575

> <Gold.PLP.Chemscore.Hbond>
1.2574

> <Gold.PLP.Chemscore.CHOScore>
1.0000

> <Gold.PLP.Chemscore.Metal>
0.0000

> <Gold.Chemscore.Hbonds>
donor molecule, donor type, donor heavy atom, donor atom, acceptor molecule, acceptor atom, score
      L1  H     3    23       P1  8028  1.00
      P1  H  6933  6944       L1     6  0.25
      L1  C    17    40       P1  7949  1.00

> <Gold.PLP.Chemscore.Internal.Correction>
0.1050

> <Gold.Rescore>
     Score         DG    S(hbond)    S(metal)    S(lipo)     H(rot)  DE(clash)    DE(int)     intcor
     15.44     -17.34       1.41        0.00      98.65       1.72       0.02       1.88       ----

> <Gold.Chemscore.Fitness>
15.4409

> <Gold.Chemscore.DG>
-17.3430

> <Gold.Chemscore.ZeroCoef>
-5.4800

> <Gold.Chemscore.Hbond>
1.4145

> <Gold.Chemscore.Metal>
0.0000

> <Gold.Chemscore.Lipo>
98.6479

> <Gold.Chemscore.Internal_Hbond>
0.0000

> <Gold.Chemscore.DEClash>
0.0215

> <Gold.Chemscore.DEInternal>
1.8807

> <Gold.Chemscore.Rot>
1.7200

> <Gold.Chemscore.Internal.Correction>
   9.000000E+99

> <Gold.Chemscore.Hbonds>
donor molecule, donor type, donor heavy atom, donor atom, acceptor molecule, acceptor atom, score
      L1  H     3    23       P1  8028  0.97
      P1  H  6933  6944       L1     6  0.23

> <Gold.Chemscore.Hbond.Weighted>
-4.7243

> <Gold.Chemscore.Metal.Weighted>
-0.0000

> <Gold.Chemscore.Lipo.Weighted>
-11.5418

> <Gold.Chemscore.Internal_Hbond.Weighted>
0.0000

> <Gold.Chemscore.DEClash.Weighted>
0.0215

> <Gold.Chemscore.DEInternal.Weighted>
1.8807

> <Gold.Chemscore.Rot.Weighted>
4.4031

> <Gold.Chemscore.Internal.Correction.Weighted>
   9.000000E+99

> <Gold.Protein.RotatedTorsions>
[ 6907 6896 6895 6894 ] final -176.04 input  -60.11 | X-H torsion
[ 7974 7965 7964 7962 ] final  126.16 input  175.53 | X-H torsion
[ 8008 7997 7996 7995 ] final  166.92 input   59.86 | X-H torsion
[ 10167 10162 10161 10158 ] final  -39.64 input  -65.29 | X-H torsion
[ 10718 10713 10712 10709 ] final   51.13 input   66.30 | X-H torsion
[ 10763 10752 10751 10750 ] final -106.55 input  -60.55 | X-H torsion
[ 11005 11000 10999 10996 ] final -179.86 input  -57.11 | X-H torsion

> <Gold.Protein.ActiveResidues>
 VAL166  LYS551  ARG553  GLY616  TRP617  ASP618  TYR619  PRO620  LYS621  CYS622 
 ASP623  PHE694  ASN695  SER759  ASP760  ASP761  ALA762  ILE779  LEU786  VAL792 
 PHE793  MET794  SER795  GLU796  ALA797  LYS798  CYS799  TRP800  GLU811  SER814 

> <Gold.Protein.RotatedAtoms>
  151.5983  133.3359  159.3041 H   0  0  0  0  0  0  0  0  0  0  0  0  # atno 6907 bound_to 6896
  150.8222  134.7438  159.6793 H   0  0  0  0  0  0  0  0  0  0  0  0  # atno 6908 bound_to 6896
  152.4314  134.5776  159.9990 H   0  0  0  0  0  0  0  0  0  0  0  0  # atno 6909 bound_to 6896
  145.0649  139.3776  143.4987 H   0  0  0  0  0  0  0  0  0  0  0  0  # atno 7974 bound_to 7965
  156.1678  140.1630  156.8501 H   0  0  0  0  0  0  0  0  0  0  0  0  # atno 8008 bound_to 7997
  154.5225  140.0775  156.8233 H   0  0  0  0  0  0  0  0  0  0  0  0  # atno 8009 bound_to 7997
  155.3576  140.3393  155.4242 H   0  0  0  0  0  0  0  0  0  0  0  0  # atno 8010 bound_to 7997
  140.7058  143.3202  151.2811 H   0  0  0  0  0  0  0  0  0  0  0  0  # atno 10167 bound_to 10162
  157.4951  130.8401  149.8249 H   0  0  0  0  0  0  0  0  0  0  0  0  # atno 10718 bound_to 10713
  154.8019  135.4708  154.0296 H   0  0  0  0  0  0  0  0  0  0  0  0  # atno 10763 bound_to 10752
  153.1795  135.6838  153.8504 H   0  0  0  0  0  0  0  0  0  0  0  0  # atno 10764 bound_to 10752
  153.8059  135.3223  155.3373 H   0  0  0  0  0  0  0  0  0  0  0  0  # atno 10765 bound_to 10752
  140.4139  134.6667  157.4629 H   0  0  0  0  0  0  0  0  0  0  0  0  # atno 11005 bound_to 11000
  146.3526  140.0365  142.8646 LP  0  0  0  0  0  0  0  0  0  0  0  0  # atno 17320 bound_to 7965
  145.1363  140.9546  143.4514 LP  0  0  0  0  0  0  0  0  0  0  0  0  # atno 17321 bound_to 7965
  139.6653  144.0115  152.2719 LP  0  0  0  0  0  0  0  0  0  0  0  0  # atno 17342 bound_to 10162
  139.9696  144.6502  150.8001 LP  0  0  0  0  0  0  0  0  0  0  0  0  # atno 17343 bound_to 10162
  156.0196  130.3800  150.2003 LP  0  0  0  0  0  0  0  0  0  0  0  0  # atno 17370 bound_to 10713
  157.0193  130.9974  151.3344 LP  0  0  0  0  0  0  0  0  0  0  0  0  # atno 17371 bound_to 10713
  140.0248  134.6494  155.9189 LP  0  0  0  0  0  0  0  0  0  0  0  0  # atno 17394 bound_to 11000
  141.1810  133.6546  156.5021 LP  0  0  0  0  0  0  0  0  0  0  0  0  # atno 17395 bound_to 11000

$$$$
