AV-unprocessed.smi:107|AV-procd|sdf|1017|dock3
  -GOLD-   2262018 13D 1   1.00000     0.00000
 Structure written by MMmdl.
 31 32  0  0  0  0  0  0  0  0  1 V2000
  150.3187  138.7867  157.8000 C   0  0  0  0  0  0  0  0  0  0  0  0
  151.4839  139.1166  158.7180 C   0  0  0  0  0  0  0  0  0  0  0  0
  151.9050  140.3893  158.9303 C   0  0  0  0  0  0  0  0  0  0  0  0
  152.9657  140.7242  159.7598 N   0  0  0  0  0  0  0  0  0  0  0  0
  153.3837  142.1685  159.9195 C   0  0  2  0  0  0  0  0  0  0  0  0
  153.1440  142.6630  161.3506 C   0  0  0  0  0  0  0  0  0  0  0  0
  151.9860  143.6292  161.1754 C   0  0  1  0  0  0  0  0  0  0  0  0
  152.0594  144.6840  162.1128 O   0  0  0  0  0  0  0  0  0  0  0  0
  152.1674  144.1147  159.7346 C   0  0  2  0  0  0  0  0  0  0  0  0
  150.8701  144.6305  159.0935 C   0  0  0  0  0  0  0  0  0  0  0  0
  150.9920  144.6318  157.6873 O   0  0  0  0  0  0  0  0  0  0  0  0
  152.6089  142.9434  159.0564 O   0  0  0  0  0  0  0  0  0  0  0  0
  153.6729  139.6989  160.4238 C   0  0  0  0  0  0  0  0  0  0  0  0
  154.6238  139.9106  161.1755 O   0  0  0  0  0  0  0  0  0  0  0  0
  153.2408  138.3915  160.2064 N   0  0  0  0  0  0  0  0  0  0  0  0
  152.1745  138.0113  159.3877 C   0  0  0  0  0  0  0  0  0  0  0  0
  151.8868  136.8204  159.2787 O   0  0  0  0  0  0  0  0  0  0  0  0
  153.7423  137.6554  160.6817 H   0  0  0  0  0  0  0  0  0  0  0  0
  149.8783  139.6848  157.3666 H   0  0  0  0  0  0  0  0  0  0  0  0
  149.5358  138.2633  158.3500 H   0  0  0  0  0  0  0  0  0  0  0  0
  150.6490  138.1470  156.9808 H   0  0  0  0  0  0  0  0  0  0  0  0
  151.3869  141.1873  158.4197 H   0  0  0  0  0  0  0  0  0  0  0  0
  154.4279  142.2596  159.6190 H   0  0  0  0  0  0  0  0  0  0  0  0
  152.9306  141.8467  162.0419 H   0  0  0  0  0  0  0  0  0  0  0  0
  154.0454  143.1783  161.6862 H   0  0  0  0  0  0  0  0  0  0  0  0
  151.0379  143.1022  161.2886 H   0  0  0  0  0  0  0  0  0  0  0  0
  152.9689  144.8551  162.3045 H   0  0  0  0  0  0  0  0  0  0  0  0
  152.9577  144.8674  159.6968 H   0  0  0  0  0  0  0  0  0  0  0  0
  150.0108  144.0340  159.4017 H   0  0  0  0  0  0  0  0  0  0  0  0
  150.6799  145.6580  159.4049 H   0  0  0  0  0  0  0  0  0  0  0  0
  150.1289  144.7128  157.3109 H   0  0  0  0  0  0  0  0  0  0  0  0
  1  2  1  0  0  0  0
  1 19  1  0  0  0  0
  1 20  1  0  0  0  0
  1 21  1  0  0  0  0
  2 16  1  0  0  0  0
  2  3  2  0  0  0  0
  3  4  1  0  0  0  0
  3 22  1  0  0  0  0
  4  5  1  0  0  0  0
  4 13  1  0  0  0  0
  5 12  1  0  0  0  0
  5  6  1  0  0  0  0
  5 23  1  0  0  0  0
  6  7  1  0  0  0  0
  6 24  1  0  0  0  0
  6 25  1  0  0  0  0
  7  8  1  0  0  0  0
  7  9  1  0  0  0  0
  7 26  1  0  0  0  0
  8 27  1  0  0  0  0
  9 10  1  0  0  0  0
  9 12  1  0  0  0  0
  9 28  1  0  0  0  0
 10 11  1  0  0  0  0
 10 29  1  0  0  0  0
 10 30  1  0  0  0  0
 11 31  1  0  0  0  0
 13 14  2  0  0  0  0
 13 15  1  0  0  0  0
 15 18  1  0  0  0  0
 15 16  1  0  0  0  0
 16 17  2  0  0  0  0
M  END
> <s_m_source_file>
AV-unprocessed.smi

> <i_m_source_file_index>
107

> <i_lp_mmshare_version>
43012

> <i_f3d_flags>
0

> <s_epik_input>
Tz1jMVtuSF1jKD1PKW4oW2NIXWMxW0NIM10pW0NAQEhdMltDSDJdW0NAQEhdKFtPSF0pW0NASF0oTzIpW0NIMl1bT0hd

> <s_epik_cmdline>
J2VwaWtfcHl0aG9uJywgJy1waCcsICc3LjAnLCAnLXRuJywgJzgnLCAnLW1hJywgJzIwMCcsICctbWV0YWxfYmluZGluZycsICctaW1hZScsICc8aW5maWxlLm1hZT4nLCAnLW9tYWUnLCAnPG91dGZpbGUubWFlPic=

> <r_lp_tautomer_probability>
0.999537

> <r_epik_Ionization_Penalty>
0.00121888

> <r_epik_Ionization_Penalty_Charging>
0.00121876

> <r_epik_Ionization_Penalty_Neutral>
1.19946e-07

> <r_epik_State_Penalty>
0.000805124

> <r_epik_Charging_Adjusted_Penalty>
0.00202389

> <i_epik_Tot_Q>
0

> <i_epik_Tot_abs_Q>
0

> <r_epik_Metal_State_Penalty>
0.662472

> <b_epik_Metal_Only>
0

> <s_epik_Chemistry_Notes>
This compound contains an acetal/aminal-like group ( X-CH(R)-Y where X, Y are N, S, or O) that may be acid/base labile, releasing an aldehyde.

> <s_lp_Force_Field>
OPLS_2005

> <r_lp_Energy>
24.9707

> <b_lp_Chiralities_Consistent>
1

> <s_lp_Variant>
AV-unprocessed.smi:107-5

> <Gold.Version>
5.8.1

> <Gold.Id.Protein>
6NUR|6NUR_protein|mol2

> <Gold.PLP.Fitness>
41.2683

> <Gold.PLP.PLP>
-35.6686

> <Gold.PLP.part.hbond>
-3.3399

> <Gold.PLP.part.metal>
0.0000

> <Gold.PLP.part.buried>
-7.0654

> <Gold.PLP.part.nonpolar>
-25.0393

> <Gold.PLP.part.repulsive>
0.0694

> <Gold.PLP.ligand.clash>
0.0000

> <Gold.PLP.ligand.torsion>
0.2065

> <Gold.PLP.Chemscore.Hbond>
2.0000

> <Gold.PLP.Chemscore.CHOScore>
0.0000

> <Gold.PLP.Chemscore.Metal>
0.0000

> <Gold.Chemscore.Hbonds>
donor molecule, donor type, donor heavy atom, donor atom, acceptor molecule, acceptor atom, score
      L1  H    11    31       P1  8028  1.00
      P1  H  6896  6909       L1    17  1.00

> <Gold.PLP.Chemscore.Internal.Correction>
0.0127

> <Gold.Rescore>
     Score         DG    S(hbond)    S(metal)    S(lipo)     H(rot)  DE(clash)    DE(int)     intcor
     10.81     -12.17       1.97        0.00      60.63       2.73       1.10       0.25       ----

> <Gold.Chemscore.Fitness>
10.8146

> <Gold.Chemscore.DG>
-12.1673

> <Gold.Chemscore.ZeroCoef>
-5.4800

> <Gold.Chemscore.Hbond>
1.9673

> <Gold.Chemscore.Metal>
0.0000

> <Gold.Chemscore.Lipo>
60.6279

> <Gold.Chemscore.Internal_Hbond>
0.0000

> <Gold.Chemscore.DEClash>
1.1029

> <Gold.Chemscore.DEInternal>
0.2499

> <Gold.Chemscore.Rot>
2.7253

> <Gold.Chemscore.Internal.Correction>
   9.000000E+99

> <Gold.Chemscore.Hbonds>
donor molecule, donor type, donor heavy atom, donor atom, acceptor molecule, acceptor atom, score
      L1  H    11    31       P1  8028  0.23
      P1  H  6896  6909       L1    17  0.96

> <Gold.Chemscore.Hbond.Weighted>
-6.5707

> <Gold.Chemscore.Metal.Weighted>
-0.0000

> <Gold.Chemscore.Lipo.Weighted>
-7.0935

> <Gold.Chemscore.Internal_Hbond.Weighted>
0.0000

> <Gold.Chemscore.DEClash.Weighted>
1.1029

> <Gold.Chemscore.DEInternal.Weighted>
0.2499

> <Gold.Chemscore.Rot.Weighted>
6.9769

> <Gold.Chemscore.Internal.Correction.Weighted>
   9.000000E+99

> <Gold.Protein.RotatedTorsions>
[ 6907 6896 6895 6894 ] final  114.74 input  -60.11 | X-H torsion
[ 7974 7965 7964 7962 ] final -144.95 input  175.53 | X-H torsion
[ 8008 7997 7996 7995 ] final  166.13 input   59.86 | X-H torsion
[ 10167 10162 10161 10158 ] final  -84.34 input  -65.29 | X-H torsion
[ 10718 10713 10712 10709 ] final   25.64 input   66.30 | X-H torsion
[ 10763 10752 10751 10750 ] final -110.40 input  -60.55 | X-H torsion
[ 11005 11000 10999 10996 ] final -127.68 input  -57.11 | X-H torsion

> <Gold.Protein.ActiveResidues>
 VAL166  LYS551  ARG553  GLY616  TRP617  ASP618  TYR619  PRO620  LYS621  CYS622 
 ASP623  PHE694  ASN695  SER759  ASP760  ASP761  ALA762  ILE779  LEU786  VAL792 
 PHE793  MET794  SER795  GLU796  ALA797  LYS798  CYS799  TRP800  GLU811  SER814 

> <Gold.Protein.RotatedAtoms>
  152.4784  133.8194  159.7045 H   0  0  0  0  0  0  0  0  0  0  0  0  # atno 6907 bound_to 6896
  150.8816  133.7354  159.2937 H   0  0  0  0  0  0  0  0  0  0  0  0  # atno 6908 bound_to 6896
  151.4857  135.1058  159.9842 H   0  0  0  0  0  0  0  0  0  0  0  0  # atno 6909 bound_to 6896
  144.8261  140.5645  143.5546 H   0  0  0  0  0  0  0  0  0  0  0  0  # atno 7974 bound_to 7965
  156.1744  140.1651  156.8390 H   0  0  0  0  0  0  0  0  0  0  0  0  # atno 8008 bound_to 7997
  154.5291  140.0761  156.8346 H   0  0  0  0  0  0  0  0  0  0  0  0  # atno 8009 bound_to 7997
  155.3445  140.3386  155.4241 H   0  0  0  0  0  0  0  0  0  0  0  0  # atno 8010 bound_to 7997
  140.4142  143.2610  151.8977 H   0  0  0  0  0  0  0  0  0  0  0  0  # atno 10167 bound_to 10162
  157.1961  130.6868  149.6169 H   0  0  0  0  0  0  0  0  0  0  0  0  # atno 10718 bound_to 10713
  154.8246  135.4565  154.0879 H   0  0  0  0  0  0  0  0  0  0  0  0  # atno 10763 bound_to 10752
  153.2205  135.6893  153.8013 H   0  0  0  0  0  0  0  0  0  0  0  0  # atno 10764 bound_to 10752
  153.7432  135.3309  155.3284 H   0  0  0  0  0  0  0  0  0  0  0  0  # atno 10765 bound_to 10752
  140.9579  134.0976  157.3998 H   0  0  0  0  0  0  0  0  0  0  0  0  # atno 11005 bound_to 11000
  145.4997  139.1484  143.3664 LP  0  0  0  0  0  0  0  0  0  0  0  0  # atno 17320 bound_to 7965
  146.2566  140.5136  142.8871 LP  0  0  0  0  0  0  0  0  0  0  0  0  # atno 17321 bound_to 7965
  139.4782  144.5505  151.8392 LP  0  0  0  0  0  0  0  0  0  0  0  0  # atno 17342 bound_to 10162
  140.4605  144.1729  150.5906 LP  0  0  0  0  0  0  0  0  0  0  0  0  # atno 17343 bound_to 10162
  155.9706  130.4598  150.6050 LP  0  0  0  0  0  0  0  0  0  0  0  0  # atno 17370 bound_to 10713
  157.3813  131.0781  151.1474 LP  0  0  0  0  0  0  0  0  0  0  0  0  # atno 17371 bound_to 10713
  139.8868  135.0084  156.6522 LP  0  0  0  0  0  0  0  0  0  0  0  0  # atno 17394 bound_to 11000
  140.7509  133.8898  155.8346 LP  0  0  0  0  0  0  0  0  0  0  0  0  # atno 17395 bound_to 11000

$$$$
