AV-unprocessed.smi:2962|AV-procd|sdf|11317|dock1
  -GOLD-   2272016223D 1   1.00000     0.00000
 Structure written by MMmdl.
 37 38  0  0  0  0  0  0  0  0  2 V2000
  150.8570  138.0795  154.4529 C   0  0  0  0  0  0  0  0  0  0  0  0
  151.5983  139.2538  154.7316 O   0  0  0  0  0  0  0  0  0  0  0  0
  152.3919  139.1321  155.9008 C   0  0  0  0  0  0  0  0  0  0  0  0
  151.5804  139.5912  157.1204 C   0  0  0  0  0  0  0  0  0  0  0  0
  151.2727  141.0278  157.0750 N   0  0  0  0  0  0  0  0  0  0  0  0
  150.4951  141.7463  156.2165 C   0  0  0  0  0  0  0  0  0  0  0  0
  149.5579  141.1267  154.8575 S   0  0  0  0  0  0  0  0  0  0  0  0
  147.8280  141.5531  155.2191 C   0  0  2  0  0  0  0  0  0  0  0  0
  147.4897  141.2150  156.6789 C   0  0  0  0  0  0  0  0  0  0  0  0
  146.8575  140.8647  154.2516 C   0  0  0  0  0  0  0  0  0  0  0  0
  145.5539  141.0958  154.4282 N   0  0  0  0  0  0  0  0  0  0  0  0
  147.2768  140.1499  153.3434 O   0  0  0  0  0  0  0  0  0  0  0  0
  150.5597  143.0526  156.5919 N   0  3  0  0  0  0  0  0  0  0  0  0
  151.3882  143.1754  157.7082 C   0  0  0  0  0  0  0  0  0  0  0  0
  151.7607  144.2938  158.4476 C   0  0  0  0  0  0  0  0  0  0  0  0
  152.6317  144.0722  159.5346 C   0  0  0  0  0  0  0  0  0  0  0  0
  153.0976  142.7795  159.8510 C   0  0  0  0  0  0  0  0  0  0  0  0
  152.7127  141.6527  159.0948 C   0  0  0  0  0  0  0  0  0  0  0  0
  151.8506  141.8798  158.0227 C   0  0  0  0  0  0  0  0  0  0  0  0
  150.2768  138.2207  153.5410 H   0  0  0  0  0  0  0  0  0  0  0  0
  150.1620  137.8514  155.2620 H   0  0  0  0  0  0  0  0  0  0  0  0
  151.5155  137.2226  154.3043 H   0  0  0  0  0  0  0  0  0  0  0  0
  152.7063  138.0962  156.0360 H   0  0  0  0  0  0  0  0  0  0  0  0
  153.2949  139.7363  155.8006 H   0  0  0  0  0  0  0  0  0  0  0  0
  150.6388  139.0457  157.1602 H   0  0  0  0  0  0  0  0  0  0  0  0
  152.1056  139.3702  158.0500 H   0  0  0  0  0  0  0  0  0  0  0  0
  147.7277  142.6318  155.0949 H   0  0  0  0  0  0  0  0  0  0  0  0
  146.4515  141.4548  156.9121 H   0  0  0  0  0  0  0  0  0  0  0  0
  148.1182  141.7847  157.3641 H   0  0  0  0  0  0  0  0  0  0  0  0
  147.6445  140.1564  156.8925 H   0  0  0  0  0  0  0  0  0  0  0  0
  144.8774  140.6799  153.8048 H   0  0  0  0  0  0  0  0  0  0  0  0
  145.2503  141.7030  155.1760 H   0  0  0  0  0  0  0  0  0  0  0  0
  151.4070  145.2854  158.2064 H   0  0  0  0  0  0  0  0  0  0  0  0
  152.9501  144.9110  160.1369 H   0  0  0  0  0  0  0  0  0  0  0  0
  153.7653  142.6493  160.6905 H   0  0  0  0  0  0  0  0  0  0  0  0
  153.0772  140.6670  159.3438 H   0  0  0  0  0  0  0  0  0  0  0  0
  150.0698  143.8008  156.1184 H   0  0  0  0  0  0  0  0  0  0  0  0
  1  2  1  0  0  0  0
  1 20  1  0  0  0  0
  1 21  1  0  0  0  0
  1 22  1  0  0  0  0
  2  3  1  0  0  0  0
  3  4  1  0  0  0  0
  3 23  1  0  0  0  0
  3 24  1  0  0  0  0
  4  5  1  0  0  0  0
  4 25  1  0  0  0  0
  4 26  1  0  0  0  0
  5 19  1  0  0  0  0
  5  6  1  0  0  0  0
  6  7  1  0  0  0  0
  6 13  2  0  0  0  0
  7  8  1  0  0  0  0
  8  9  1  0  0  0  0
  8 10  1  0  0  0  0
  8 27  1  0  0  0  0
  9 28  1  0  0  0  0
  9 29  1  0  0  0  0
  9 30  1  0  0  0  0
 10 11  1  0  0  0  0
 10 12  2  0  0  0  0
 11 31  1  0  0  0  0
 11 32  1  0  0  0  0
 13 14  1  0  0  0  0
 13 37  1  0  0  0  0
 14 19  2  0  0  0  0
 14 15  1  0  0  0  0
 15 16  2  0  0  0  0
 15 33  1  0  0  0  0
 16 17  1  0  0  0  0
 16 34  1  0  0  0  0
 17 18  2  0  0  0  0
 17 35  1  0  0  0  0
 18 19  1  0  0  0  0
 18 36  1  0  0  0  0
M  CHG  1  13   1
M  END
> <s_m_source_file>
AV-unprocessed.smi

> <i_m_source_file_index>
2962

> <i_lp_mmshare_version>
43012

> <i_f3d_flags>
0

> <s_epik_input>
W2NIXTFbY0hdW2NIXVtjSF1jKGMxMiluKFtDSDJdW0NIMl1PW0NIM10pYyhuMilTW0NASF0oW0NIM10pQyg9TylbTkgyXQ==

> <s_epik_cmdline>
J2VwaWtfcHl0aG9uJywgJy1waCcsICc3LjAnLCAnLXRuJywgJzgnLCAnLW1hJywgJzIwMCcsICctbWV0YWxfYmluZGluZycsICctaW1hZScsICc8aW5maWxlLm1hZT4nLCAnLW9tYWUnLCAnPG91dGZpbGUubWFlPic=

> <r_epik_Ionization_Penalty>
2.01771

> <r_epik_Ionization_Penalty_Charging>
2.01771

> <r_epik_Ionization_Penalty_Neutral>
3.318e-07

> <r_epik_State_Penalty>
2.14773

> <r_epik_Charging_Adjusted_Penalty>
4.16544

> <i_epik_Tot_Q>
1

> <i_epik_Tot_abs_Q>
1

> <r_epik_Metal_State_Penalty>
2.1675

> <b_epik_Metal_Only>
0

> <s_lp_Force_Field>
OPLS_2005

> <r_lp_Energy>
8.01651

> <b_lp_Chiralities_Consistent>
1

> <s_lp_Variant>
AV-unprocessed.smi:2962-3

> <Gold.Version>
5.8.1

> <Gold.Id.Protein>
6NUR|6NUR_protein|mol2

> <Gold.PLP.Fitness>
54.2213

> <Gold.PLP.PLP>
-42.7035

> <Gold.PLP.part.hbond>
-2.9910

> <Gold.PLP.part.metal>
0.0000

> <Gold.PLP.part.buried>
-5.0411

> <Gold.PLP.part.nonpolar>
-36.0288

> <Gold.PLP.part.repulsive>
0.8582

> <Gold.PLP.ligand.clash>
0.0000

> <Gold.PLP.ligand.torsion>
0.3383

> <Gold.PLP.Chemscore.Hbond>
4.0000

> <Gold.PLP.Chemscore.CHOScore>
0.0000

> <Gold.PLP.Chemscore.Metal>
0.0000

> <Gold.Chemscore.Hbonds>
donor molecule, donor type, donor heavy atom, donor atom, acceptor molecule, acceptor atom, score
      L1  H    11    31       P1 10175  1.00
      L1  H    13    37       P1  8028  2.00
      P1  H  7989  7998       L1     2  1.00

> <Gold.PLP.Chemscore.Internal.Correction>
0.1944

> <Gold.Rescore>
     Score         DG    S(hbond)    S(metal)    S(lipo)     H(rot)  DE(clash)    DE(int)     intcor
     18.90     -20.73       2.92        0.00     103.18       2.57       0.09       1.74       ----

> <Gold.Chemscore.Fitness>
18.8987

> <Gold.Chemscore.DG>
-20.7267

> <Gold.Chemscore.ZeroCoef>
-5.4800

> <Gold.Chemscore.Hbond>
2.9220

> <Gold.Chemscore.Metal>
0.0000

> <Gold.Chemscore.Lipo>
103.1801

> <Gold.Chemscore.Internal_Hbond>
0.0000

> <Gold.Chemscore.DEClash>
0.0895

> <Gold.Chemscore.DEInternal>
1.7384

> <Gold.Chemscore.Rot>
2.5723

> <Gold.Chemscore.Internal.Correction>
   9.000000E+99

> <Gold.Chemscore.Hbonds>
donor molecule, donor type, donor heavy atom, donor atom, acceptor molecule, acceptor atom, score
      L1  H    11    31       P1 10175  0.98
      L1  H    13    37       P1  8028  0.96
      P1  H  7989  7998       L1     2  0.91

> <Gold.Chemscore.Hbond.Weighted>
-9.7596

> <Gold.Chemscore.Metal.Weighted>
-0.0000

> <Gold.Chemscore.Lipo.Weighted>
-12.0721

> <Gold.Chemscore.Internal_Hbond.Weighted>
0.0000

> <Gold.Chemscore.DEClash.Weighted>
0.0895

> <Gold.Chemscore.DEInternal.Weighted>
1.7384

> <Gold.Chemscore.Rot.Weighted>
6.5850

> <Gold.Chemscore.Internal.Correction.Weighted>
   9.000000E+99

> <Gold.Protein.RotatedTorsions>
[ 6907 6896 6895 6894 ] final -130.29 input  -60.11 | X-H torsion
[ 7974 7965 7964 7962 ] final  -70.92 input  175.53 | X-H torsion
[ 8008 7997 7996 7995 ] final  141.31 input   59.86 | X-H torsion
[ 10167 10162 10161 10158 ] final  153.11 input  -65.29 | X-H torsion
[ 10718 10713 10712 10709 ] final  -16.51 input   66.30 | X-H torsion
[ 10763 10752 10751 10750 ] final  100.26 input  -60.55 | X-H torsion
[ 11005 11000 10999 10996 ] final  -32.69 input  -57.11 | X-H torsion

> <Gold.Protein.ActiveResidues>
 VAL166  LYS551  ARG553  GLY616  TRP617  ASP618  TYR619  PRO620  LYS621  CYS622 
 ASP623  PHE694  ASN695  SER759  ASP760  ASP761  ALA762  ILE779  LEU786  VAL792 
 PHE793  MET794  SER795  GLU796  ALA797  LYS798  CYS799  TRP800  GLU811  SER814 

> <Gold.Protein.RotatedAtoms>
  150.9382  133.6688  159.2796 H   0  0  0  0  0  0  0  0  0  0  0  0  # atno 6907 bound_to 6896
  151.4086  135.0980  159.9588 H   0  0  0  0  0  0  0  0  0  0  0  0  # atno 6908 bound_to 6896
  152.5057  133.8860  159.7425 H   0  0  0  0  0  0  0  0  0  0  0  0  # atno 6909 bound_to 6896
  145.6847  140.9175  143.0813 H   0  0  0  0  0  0  0  0  0  0  0  0  # atno 7974 bound_to 7965
  156.2967  140.2318  156.4543 H   0  0  0  0  0  0  0  0  0  0  0  0  # atno 8008 bound_to 7997
  154.8074  140.0445  157.1338 H   0  0  0  0  0  0  0  0  0  0  0  0  # atno 8009 bound_to 7997
  154.9463  140.3036  155.5100 H   0  0  0  0  0  0  0  0  0  0  0  0  # atno 8010 bound_to 7997
  139.4829  144.5301  151.7737 H   0  0  0  0  0  0  0  0  0  0  0  0  # atno 10167 bound_to 10162
  156.5866  130.4788  149.6297 H   0  0  0  0  0  0  0  0  0  0  0  0  # atno 10718 bound_to 10713
  153.3117  135.4085  155.1341 H   0  0  0  0  0  0  0  0  0  0  0  0  # atno 10763 bound_to 10752
  154.8577  135.3566  154.5715 H   0  0  0  0  0  0  0  0  0  0  0  0  # atno 10764 bound_to 10752
  153.6144  135.7066  153.5393 H   0  0  0  0  0  0  0  0  0  0  0  0  # atno 10765 bound_to 10752
  140.9573  133.7185  156.1314 H   0  0  0  0  0  0  0  0  0  0  0  0  # atno 11005 bound_to 11000
  144.7015  139.8743  143.7443 LP  0  0  0  0  0  0  0  0  0  0  0  0  # atno 17320 bound_to 7965
  146.0934  139.3924  143.0392 LP  0  0  0  0  0  0  0  0  0  0  0  0  # atno 17321 bound_to 7965
  140.4826  144.1427  150.5935 LP  0  0  0  0  0  0  0  0  0  0  0  0  # atno 17342 bound_to 10162
  140.4261  143.2589  151.9655 LP  0  0  0  0  0  0  0  0  0  0  0  0  # atno 17343 bound_to 10162
  156.2585  130.6949  151.1710 LP  0  0  0  0  0  0  0  0  0  0  0  0  # atno 17370 bound_to 10713
  157.7314  131.0609  150.5681 LP  0  0  0  0  0  0  0  0  0  0  0  0  # atno 17371 bound_to 10713
  140.7517  134.4037  157.5540 LP  0  0  0  0  0  0  0  0  0  0  0  0  # atno 17394 bound_to 11000
  139.8866  134.8904  156.2573 LP  0  0  0  0  0  0  0  0  0  0  0  0  # atno 17395 bound_to 11000

$$$$
