AV-unprocessed.smi:1768|AV-procd|sdf|7148|dock6
  -GOLD-   22720 8383D 1   1.00000     0.00000
 Structure written by MMmdl.
 32 33  0  0  0  0  0  0  0  0  2 V2000
  150.2771  134.2123  155.6832 C   0  0  0  0  0  0  0  0  0  0  0  0
  150.6234  135.5798  156.1633 C   0  0  0  0  0  0  0  0  0  0  0  0
  151.5546  136.3363  155.5773 N   0  0  0  0  0  0  0  0  0  0  0  0
  151.6992  137.5656  156.2041 N   0  0  0  0  0  0  0  0  0  0  0  0
  150.8870  137.7167  157.2598 C   0  0  0  0  0  0  0  0  0  0  0  0
  150.8711  138.8367  158.0013 N   0  5  0  0  0  0  0  0  0  0  0  0
  151.6677  139.8786  157.6702 C   0  0  0  0  0  0  0  0  0  0  0  0
  152.5062  139.8979  156.7663 O   0  0  0  0  0  0  0  0  0  0  0  0
  151.4788  140.9653  158.4329 N   0  0  0  0  0  0  0  0  0  0  0  0
  152.1913  142.2361  158.3188 C   0  0  1  0  0  0  0  0  0  0  0  0
  151.2235  143.3312  157.8352 C   0  0  0  0  0  0  0  0  0  0  0  0
  152.8260  142.5810  159.6797 C   0  0  2  0  0  0  0  0  0  0  0  0
  153.6988  141.4769  160.2800 C   0  0  0  0  0  0  0  0  0  0  0  0
  153.6389  141.7390  161.7774 C   0  0  0  0  0  0  0  0  0  0  0  0
  152.4807  142.7265  161.9381 C   0  0  0  0  0  0  0  0  0  0  0  0
  151.8276  142.7345  160.6773 O   0  0  0  0  0  0  0  0  0  0  0  0
  149.8431  136.3248  157.5482 S   0  0  0  0  0  0  0  0  0  0  0  0
  151.0360  133.5008  156.0088 H   0  0  0  0  0  0  0  0  0  0  0  0
  150.2230  134.1964  154.5943 H   0  0  0  0  0  0  0  0  0  0  0  0
  149.3117  133.9028  156.0839 H   0  0  0  0  0  0  0  0  0  0  0  0
  150.7852  140.8999  159.1631 H   0  0  0  0  0  0  0  0  0  0  0  0
  152.9935  142.1294  157.5862 H   0  0  0  0  0  0  0  0  0  0  0  0
  151.7360  144.2837  157.7015 H   0  0  0  0  0  0  0  0  0  0  0  0
  150.4126  143.4856  158.5477 H   0  0  0  0  0  0  0  0  0  0  0  0
  150.7767  143.0689  156.8759 H   0  0  0  0  0  0  0  0  0  0  0  0
  153.3988  143.5082  159.6097 H   0  0  0  0  0  0  0  0  0  0  0  0
  153.2688  140.4977  160.0650 H   0  0  0  0  0  0  0  0  0  0  0  0
  154.7169  141.4892  159.8901 H   0  0  0  0  0  0  0  0  0  0  0  0
  153.4568  140.8138  162.3249 H   0  0  0  0  0  0  0  0  0  0  0  0
  154.5688  142.1714  162.1481 H   0  0  0  0  0  0  0  0  0  0  0  0
  151.7937  142.4420  162.7353 H   0  0  0  0  0  0  0  0  0  0  0  0
  152.8566  143.7276  162.1530 H   0  0  0  0  0  0  0  0  0  0  0  0
  1  2  1  0  0  0  0
  1 18  1  0  0  0  0
  1 19  1  0  0  0  0
  1 20  1  0  0  0  0
  2 17  1  0  0  0  0
  2  3  2  0  0  0  0
  3  4  1  0  0  0  0
  4  5  2  0  0  0  0
  5  6  1  0  0  0  0
  5 17  1  0  0  0  0
  6  7  1  0  0  0  0
  7  8  2  0  0  0  0
  7  9  1  0  0  0  0
  9 10  1  0  0  0  0
  9 21  1  0  0  0  0
 10 11  1  0  0  0  0
 10 12  1  0  0  0  0
 10 22  1  0  0  0  0
 11 23  1  0  0  0  0
 11 24  1  0  0  0  0
 11 25  1  0  0  0  0
 12 16  1  0  0  0  0
 12 13  1  0  0  0  0
 12 26  1  0  0  0  0
 13 14  1  0  0  0  0
 13 27  1  0  0  0  0
 13 28  1  0  0  0  0
 14 15  1  0  0  0  0
 14 29  1  0  0  0  0
 14 30  1  0  0  0  0
 15 16  1  0  0  0  0
 15 31  1  0  0  0  0
 15 32  1  0  0  0  0
M  CHG  1   6  -1
M  END
> <s_m_source_file>
AV-unprocessed.smi

> <i_m_source_file_index>
1768

> <i_lp_mmshare_version>
43012

> <i_f3d_flags>
0

> <s_epik_input>
W0NIM11jMW5uYyhzMSlbTkhdQyg9TylbTkhdW0NASF0oW0NIM10pW0NAQEhdMltDSDJdW0NIMl1bQ0gyXU8y

> <s_epik_cmdline>
J2VwaWtfcHl0aG9uJywgJy1waCcsICc3LjAnLCAnLXRuJywgJzgnLCAnLW1hJywgJzIwMCcsICctbWV0YWxfYmluZGluZycsICctaW1hZScsICc8aW5maWxlLm1hZT4nLCAnLW9tYWUnLCAnPG91dGZpbGUubWFlPic=

> <r_lp_tautomer_probability>
1

> <r_epik_Ionization_Penalty>
4.3376

> <r_epik_Ionization_Penalty_Charging>
4.19392

> <r_epik_Ionization_Penalty_Neutral>
0.143681

> <r_epik_State_Penalty>
4.19342

> <r_epik_Charging_Adjusted_Penalty>
8.38735

> <i_epik_Tot_Q>
-1

> <i_epik_Tot_abs_Q>
1

> <r_epik_Metal_State_Penalty>
0.686065

> <b_epik_Metal_Only>
1

> <s_lp_Force_Field>
OPLS_2005

> <r_lp_Energy>
16.4206

> <b_lp_Chiralities_Consistent>
1

> <s_lp_Variant>
AV-unprocessed.smi:1768-6

> <Gold.Version>
5.8.1

> <Gold.Id.Protein>
6NUR|6NUR_protein|mol2

> <Gold.PLP.Fitness>
36.2905

> <Gold.PLP.PLP>
-30.3857

> <Gold.PLP.part.hbond>
-2.6474

> <Gold.PLP.part.metal>
0.0000

> <Gold.PLP.part.buried>
-5.0827

> <Gold.PLP.part.nonpolar>
-22.1083

> <Gold.PLP.part.repulsive>
0.2397

> <Gold.PLP.ligand.clash>
0.0000

> <Gold.PLP.ligand.torsion>
0.0661

> <Gold.PLP.Chemscore.Hbond>
2.0000

> <Gold.PLP.Chemscore.CHOScore>
0.0000

> <Gold.PLP.Chemscore.Metal>
0.0000

> <Gold.Chemscore.Hbonds>
donor molecule, donor type, donor heavy atom, donor atom, acceptor molecule, acceptor atom, score
      P1  H  7997  8008       L1     8  1.00
      P1  H 10752 10763       L1     3  1.00

> <Gold.PLP.Chemscore.Internal.Correction>
0.0369

> <Gold.Rescore>
     Score         DG    S(hbond)    S(metal)    S(lipo)     H(rot)  DE(clash)    DE(int)     intcor
     16.25     -18.01       1.98        0.00      78.46       1.28       0.00       1.76       ----

> <Gold.Chemscore.Fitness>
16.2491

> <Gold.Chemscore.DG>
-18.0107

> <Gold.Chemscore.ZeroCoef>
-5.4800

> <Gold.Chemscore.Hbond>
1.9824

> <Gold.Chemscore.Metal>
0.0000

> <Gold.Chemscore.Lipo>
78.4626

> <Gold.Chemscore.Internal_Hbond>
0.0000

> <Gold.Chemscore.DEClash>
0.0000

> <Gold.Chemscore.DEInternal>
1.7615

> <Gold.Chemscore.Rot>
1.2776

> <Gold.Chemscore.Internal.Correction>
   9.000000E+99

> <Gold.Chemscore.Hbonds>
donor molecule, donor type, donor heavy atom, donor atom, acceptor molecule, acceptor atom, score
      P1  H  7997  8008       L1     8  0.99
      P1  H 10752 10763       L1     3  0.96

> <Gold.Chemscore.Hbond.Weighted>
-6.6211

> <Gold.Chemscore.Metal.Weighted>
-0.0000

> <Gold.Chemscore.Lipo.Weighted>
-9.1801

> <Gold.Chemscore.Internal_Hbond.Weighted>
0.0000

> <Gold.Chemscore.DEClash.Weighted>
0.0000

> <Gold.Chemscore.DEInternal.Weighted>
1.7615

> <Gold.Chemscore.Rot.Weighted>
3.2706

> <Gold.Chemscore.Internal.Correction.Weighted>
   9.000000E+99

> <Gold.Protein.RotatedTorsions>
[ 6907 6896 6895 6894 ] final  130.70 input  -60.11 | X-H torsion
[ 7974 7965 7964 7962 ] final -170.11 input  175.53 | X-H torsion
[ 8008 7997 7996 7995 ] final  -42.60 input   59.86 | X-H torsion
[ 10167 10162 10161 10158 ] final  132.48 input  -65.29 | X-H torsion
[ 10718 10713 10712 10709 ] final   93.39 input   66.30 | X-H torsion
[ 10763 10752 10751 10750 ] final   69.68 input  -60.55 | X-H torsion
[ 11005 11000 10999 10996 ] final -149.13 input  -57.11 | X-H torsion

> <Gold.Protein.ActiveResidues>
 VAL166  LYS551  ARG553  GLY616  TRP617  ASP618  TYR619  PRO620  LYS621  CYS622 
 ASP623  PHE694  ASN695  SER759  ASP760  ASP761  ALA762  ILE779  LEU786  VAL792 
 PHE793  MET794  SER795  GLU796  ALA797  LYS798  CYS799  TRP800  GLU811  SER814 

> <Gold.Protein.RotatedAtoms>
  152.3500  133.6168  159.5937 H   0  0  0  0  0  0  0  0  0  0  0  0  # atno 6907 bound_to 6896
  150.7531  133.9590  159.3518 H   0  0  0  0  0  0  0  0  0  0  0  0  # atno 6908 bound_to 6896
  151.7443  135.0848  160.0372 H   0  0  0  0  0  0  0  0  0  0  0  0  # atno 6909 bound_to 6896
  144.7175  140.2121  143.6326 H   0  0  0  0  0  0  0  0  0  0  0  0  # atno 7974 bound_to 7965
  154.3998  140.1469  156.3382 H   0  0  0  0  0  0  0  0  0  0  0  0  # atno 8008 bound_to 7997
  155.8381  140.3463  155.5593 H   0  0  0  0  0  0  0  0  0  0  0  0  # atno 8009 bound_to 7997
  155.8117  140.0885  157.1891 H   0  0  0  0  0  0  0  0  0  0  0  0  # atno 8010 bound_to 7997
  139.5338  144.6660  151.4857 H   0  0  0  0  0  0  0  0  0  0  0  0  # atno 10167 bound_to 10162
  157.6955  131.0477  150.4027 H   0  0  0  0  0  0  0  0  0  0  0  0  # atno 10718 bound_to 10713
  153.0300  135.5201  154.7326 H   0  0  0  0  0  0  0  0  0  0  0  0  # atno 10763 bound_to 10752
  154.6349  135.2905  155.0175 H   0  0  0  0  0  0  0  0  0  0  0  0  # atno 10764 bound_to 10752
  154.1114  135.6621  153.4938 H   0  0  0  0  0  0  0  0  0  0  0  0  # atno 10765 bound_to 10752
  140.7539  134.3375  157.5119 H   0  0  0  0  0  0  0  0  0  0  0  0  # atno 11005 bound_to 11000
  145.8581  139.2209  143.1733 LP  0  0  0  0  0  0  0  0  0  0  0  0  # atno 17320 bound_to 7965
  146.0199  140.8358  142.9928 LP  0  0  0  0  0  0  0  0  0  0  0  0  # atno 17321 bound_to 7965
  140.6532  143.8653  150.6808 LP  0  0  0  0  0  0  0  0  0  0  0  0  # atno 17342 bound_to 10162
  140.2024  143.3948  152.1781 LP  0  0  0  0  0  0  0  0  0  0  0  0  # atno 17343 bound_to 10162
  156.4419  130.3993  149.6692 LP  0  0  0  0  0  0  0  0  0  0  0  0  # atno 17370 bound_to 10713
  156.3872  130.7609  151.2607 LP  0  0  0  0  0  0  0  0  0  0  0  0  # atno 17371 bound_to 10713
  139.8782  134.9160  156.3143 LP  0  0  0  0  0  0  0  0  0  0  0  0  # atno 17394 bound_to 11000
  140.9725  133.7318  156.0555 LP  0  0  0  0  0  0  0  0  0  0  0  0  # atno 17395 bound_to 11000

$$$$
