AV-unprocessed.smi:1424|AV-procd|sdf|5801|dock3
  -GOLD-   22720 5453D 1   1.00000     0.00000
 Structure written by MMmdl.
 46 48  0  0  0  0  0  0  0  0  2 V2000
  146.3107  137.3161  150.8574 O   0  0  0  0  0  0  0  0  0  0  0  0
  146.3887  136.9490  152.0295 C   0  0  0  0  0  0  0  0  0  0  0  0
  146.7320  137.7608  153.0392 N   0  0  0  0  0  0  0  0  0  0  0  0
  147.0535  139.1781  152.9034 C   0  0  0  0  0  0  0  0  0  0  0  0
  146.8967  139.9562  154.2307 C   0  0  2  0  0  0  0  0  0  0  0  0
  147.2062  141.4633  154.0803 C   0  0  0  0  0  0  0  0  0  0  0  0
  148.7268  141.6689  154.0586 C   0  0  0  0  0  0  0  0  0  0  0  0
  149.4279  140.3288  155.0943 S   0  0  0  0  0  0  0  0  0  0  0  0
  150.3481  139.5268  154.2738 O   0  0  0  0  0  0  0  0  0  0  0  0
  149.8499  140.8741  156.3933 O   0  0  0  0  0  0  0  0  0  0  0  0
  147.8511  139.4181  155.3088 C   0  0  0  0  0  0  0  0  0  0  0  0
  146.1679  135.6969  152.4643 N   0  0  0  0  0  0  0  0  0  0  0  0
  145.8116  134.5492  151.6997 C   0  0  0  0  0  0  0  0  0  0  0  0
  144.9051  134.6403  150.6117 C   0  0  0  0  0  0  0  0  0  0  0  0
  144.5886  133.4924  149.8612 C   0  0  0  0  0  0  0  0  0  0  0  0
  145.1799  132.2670  150.2114 C   0  0  0  0  0  0  0  0  0  0  0  0
  146.0220  132.2080  151.2634 N   0  3  0  0  0  0  0  0  0  0  0  0
  146.3542  133.2738  152.0342 C   0  0  0  0  0  0  0  0  0  0  0  0
  147.2399  133.0548  153.1143 N   0  0  0  0  0  0  0  0  0  0  0  0
  148.6765  132.9548  152.8833 C   0  0  0  0  0  0  0  0  0  0  0  0
  149.2456  132.3729  154.1743 C   0  0  0  0  0  0  0  0  0  0  0  0
  148.1384  131.4238  154.6219 C   0  0  0  0  0  0  0  0  0  0  0  0
  146.8533  132.1269  154.1724 C   0  0  0  0  0  0  0  0  0  0  0  0
  146.7729  137.3749  153.9711 H   0  0  0  0  0  0  0  0  0  0  0  0
  148.0712  139.2826  152.5234 H   0  0  0  0  0  0  0  0  0  0  0  0
  146.4010  139.5969  152.1369 H   0  0  0  0  0  0  0  0  0  0  0  0
  145.8702  139.8307  154.5772 H   0  0  0  0  0  0  0  0  0  0  0  0
  146.7277  141.9107  153.2091 H   0  0  0  0  0  0  0  0  0  0  0  0
  146.8026  141.9831  154.9500 H   0  0  0  0  0  0  0  0  0  0  0  0
  149.1222  141.5579  153.0489 H   0  0  0  0  0  0  0  0  0  0  0  0
  149.0292  142.6418  154.4463 H   0  0  0  0  0  0  0  0  0  0  0  0
  147.4694  139.6478  156.3039 H   0  0  0  0  0  0  0  0  0  0  0  0
  148.0226  138.3432  155.2489 H   0  0  0  0  0  0  0  0  0  0  0  0
  146.3703  135.5250  153.4380 H   0  0  0  0  0  0  0  0  0  0  0  0
  144.4396  135.5761  150.3419 H   0  0  0  0  0  0  0  0  0  0  0  0
  143.9036  133.5533  149.0281 H   0  0  0  0  0  0  0  0  0  0  0  0
  145.0005  131.3368  149.6919 H   0  0  0  0  0  0  0  0  0  0  0  0
  148.8845  132.2769  152.0544 H   0  0  0  0  0  0  0  0  0  0  0  0
  149.1119  133.9271  152.6510 H   0  0  0  0  0  0  0  0  0  0  0  0
  150.2048  131.8747  154.0303 H   0  0  0  0  0  0  0  0  0  0  0  0
  149.3806  133.1633  154.9142 H   0  0  0  0  0  0  0  0  0  0  0  0
  148.2393  130.4724  154.0978 H   0  0  0  0  0  0  0  0  0  0  0  0
  148.1578  131.2203  155.6930 H   0  0  0  0  0  0  0  0  0  0  0  0
  146.4325  132.6965  155.0012 H   0  0  0  0  0  0  0  0  0  0  0  0
  146.1050  131.4079  153.8362 H   0  0  0  0  0  0  0  0  0  0  0  0
  146.4271  131.3019  151.4988 H   0  0  0  0  0  0  0  0  0  0  0  0
  1  2  2  0  0  0  0
  2  3  1  0  0  0  0
  2 12  1  0  0  0  0
  3  4  1  0  0  0  0
  3 24  1  0  0  0  0
  4  5  1  0  0  0  0
  4 25  1  0  0  0  0
  4 26  1  0  0  0  0
  5 11  1  0  0  0  0
  5  6  1  0  0  0  0
  5 27  1  0  0  0  0
  6  7  1  0  0  0  0
  6 28  1  0  0  0  0
  6 29  1  0  0  0  0
  7  8  1  0  0  0  0
  7 30  1  0  0  0  0
  7 31  1  0  0  0  0
  8  9  2  0  0  0  0
  8 10  2  0  0  0  0
  8 11  1  0  0  0  0
 11 32  1  0  0  0  0
 11 33  1  0  0  0  0
 12 13  1  0  0  0  0
 12 34  1  0  0  0  0
 13 18  1  0  0  0  0
 13 14  2  0  0  0  0
 14 15  1  0  0  0  0
 14 35  1  0  0  0  0
 15 16  2  0  0  0  0
 15 36  1  0  0  0  0
 16 17  1  0  0  0  0
 16 37  1  0  0  0  0
 17 18  2  0  0  0  0
 17 46  1  0  0  0  0
 18 19  1  0  0  0  0
 19 23  1  0  0  0  0
 19 20  1  0  0  0  0
 20 21  1  0  0  0  0
 20 38  1  0  0  0  0
 20 39  1  0  0  0  0
 21 22  1  0  0  0  0
 21 40  1  0  0  0  0
 21 41  1  0  0  0  0
 22 23  1  0  0  0  0
 22 42  1  0  0  0  0
 22 43  1  0  0  0  0
 23 44  1  0  0  0  0
 23 45  1  0  0  0  0
M  CHG  1  17   1
M  END
> <s_m_source_file>
AV-unprocessed.smi

> <i_m_source_file_index>
1424

> <i_lp_mmshare_version>
43012

> <i_f3d_flags>
0

> <s_epik_input>
Tz1TMSg9TylbQ0gyXVtDSDJdW0NASF0oW0NIMl0xKVtDSDJdW05IXUMoPU8pW05IXWMyW2NIXVtjSF1bY0hdbmMyTjNbQ0gyXVtDSDJdW0NIMl1bQ0gyXTM=

> <s_epik_cmdline>
J2VwaWtfcHl0aG9uJywgJy1waCcsICc3LjAnLCAnLXRuJywgJzgnLCAnLW1hJywgJzIwMCcsICctbWV0YWxfYmluZGluZycsICctaW1hZScsICc8aW5maWxlLm1hZT4nLCAnLW9tYWUnLCAnPG91dGZpbGUubWFlPic=

> <r_lp_tautomer_probability>
0.999994

> <r_epik_Ionization_Penalty>
1.12573

> <r_epik_Ionization_Penalty_Charging>
1.12571

> <r_epik_Ionization_Penalty_Neutral>
1.92863e-05

> <r_epik_State_Penalty>
1.18495

> <r_epik_Charging_Adjusted_Penalty>
2.31065

> <i_epik_Tot_Q>
1

> <i_epik_Tot_abs_Q>
1

> <r_epik_Metal_State_Penalty>
1.26881

> <b_epik_Metal_Only>
0

> <s_lp_Force_Field>
OPLS_2005

> <r_lp_Energy>
41.4787

> <b_lp_Chiralities_Consistent>
1

> <s_lp_Variant>
AV-unprocessed.smi:1424-3

> <Gold.Version>
5.8.1

> <Gold.Id.Protein>
6NUR|6NUR_protein|mol2

> <Gold.PLP.Fitness>
36.4265

> <Gold.PLP.PLP>
-32.0913

> <Gold.PLP.part.hbond>
-3.9608

> <Gold.PLP.part.metal>
0.0000

> <Gold.PLP.part.buried>
2.0200

> <Gold.PLP.part.nonpolar>
-32.3556

> <Gold.PLP.part.repulsive>
3.1734

> <Gold.PLP.ligand.clash>
0.0000

> <Gold.PLP.ligand.torsion>
0.7212

> <Gold.PLP.Chemscore.Hbond>
1.7963

> <Gold.PLP.Chemscore.CHOScore>
0.0000

> <Gold.PLP.Chemscore.Metal>
0.0000

> <Gold.Chemscore.Hbonds>
donor molecule, donor type, donor heavy atom, donor atom, acceptor molecule, acceptor atom, score
      P1  H  7954  7966       L1     1  0.68
      P1  H  7989  7998       L1     9  1.00

> <Gold.PLP.Chemscore.Internal.Correction>
0.3888

> <Gold.Rescore>
     Score         DG    S(hbond)    S(metal)    S(lipo)     H(rot)  DE(clash)    DE(int)     intcor
     11.13     -16.45       1.73        0.00      77.09       1.50       3.72       1.60       ----

> <Gold.Chemscore.Fitness>
11.1298

> <Gold.Chemscore.DG>
-16.4476

> <Gold.Chemscore.ZeroCoef>
-5.4800

> <Gold.Chemscore.Hbond>
1.7300

> <Gold.Chemscore.Metal>
0.0000

> <Gold.Chemscore.Lipo>
77.0911

> <Gold.Chemscore.Internal_Hbond>
0.0000

> <Gold.Chemscore.DEClash>
3.7169

> <Gold.Chemscore.DEInternal>
1.6010

> <Gold.Chemscore.Rot>
1.4962

> <Gold.Chemscore.Internal.Correction>
   9.000000E+99

> <Gold.Chemscore.Hbonds>
donor molecule, donor type, donor heavy atom, donor atom, acceptor molecule, acceptor atom, score
      P1  H  7954  7966       L1     1  0.63
      P1  H  7989  7998       L1     9  0.48

> <Gold.Chemscore.Hbond.Weighted>
-5.7783

> <Gold.Chemscore.Metal.Weighted>
-0.0000

> <Gold.Chemscore.Lipo.Weighted>
-9.0197

> <Gold.Chemscore.Internal_Hbond.Weighted>
0.0000

> <Gold.Chemscore.DEClash.Weighted>
3.7169

> <Gold.Chemscore.DEInternal.Weighted>
1.6010

> <Gold.Chemscore.Rot.Weighted>
3.8303

> <Gold.Chemscore.Internal.Correction.Weighted>
   9.000000E+99

> <Gold.Protein.RotatedTorsions>
[ 6907 6896 6895 6894 ] final  129.62 input  -60.11 | X-H torsion
[ 7974 7965 7964 7962 ] final  -70.29 input  175.53 | X-H torsion
[ 8008 7997 7996 7995 ] final   88.74 input   59.86 | X-H torsion
[ 10167 10162 10161 10158 ] final  149.53 input  -65.29 | X-H torsion
[ 10718 10713 10712 10709 ] final   35.09 input   66.30 | X-H torsion
[ 10763 10752 10751 10750 ] final -102.58 input  -60.55 | X-H torsion
[ 11005 11000 10999 10996 ] final   15.66 input  -57.11 | X-H torsion

> <Gold.Protein.ActiveResidues>
 VAL166  LYS551  ARG553  GLY616  TRP617  ASP618  TYR619  PRO620  LYS621  CYS622 
 ASP623  PHE694  ASN695  SER759  ASP760  ASP761  ALA762  ILE779  LEU786  VAL792 
 PHE793  MET794  SER795  GLU796  ALA797  LYS798  CYS799  TRP800  GLU811  SER814 

> <Gold.Protein.RotatedAtoms>
  152.3606  133.6292  159.6011 H   0  0  0  0  0  0  0  0  0  0  0  0  # atno 6907 bound_to 6896
  150.7598  133.9430  159.3471 H   0  0  0  0  0  0  0  0  0  0  0  0  # atno 6908 bound_to 6896
  151.7268  135.0884  160.0344 H   0  0  0  0  0  0  0  0  0  0  0  0  # atno 6909 bound_to 6896
  145.6928  140.9146  143.0772 H   0  0  0  0  0  0  0  0  0  0  0  0  # atno 7974 bound_to 7965
  155.9915  140.3368  155.6757 H   0  0  0  0  0  0  0  0  0  0  0  0  # atno 8008 bound_to 7997
  155.6414  140.0695  157.2635 H   0  0  0  0  0  0  0  0  0  0  0  0  # atno 8009 bound_to 7997
  154.4221  140.1742  156.1565 H   0  0  0  0  0  0  0  0  0  0  0  0  # atno 8010 bound_to 7997
  139.4860  144.5595  151.7258 H   0  0  0  0  0  0  0  0  0  0  0  0  # atno 10167 bound_to 10162
  157.3184  130.7435  149.6769 H   0  0  0  0  0  0  0  0  0  0  0  0  # atno 10718 bound_to 10713
  154.7744  135.4855  153.9714 H   0  0  0  0  0  0  0  0  0  0  0  0  # atno 10763 bound_to 10752
  153.1409  135.6772  153.9036 H   0  0  0  0  0  0  0  0  0  0  0  0  # atno 10764 bound_to 10752
  153.8710  135.3143  155.3420 H   0  0  0  0  0  0  0  0  0  0  0  0  # atno 10765 bound_to 10752
  140.4559  134.1177  155.7709 H   0  0  0  0  0  0  0  0  0  0  0  0  # atno 11005 bound_to 11000
  144.6991  139.8845  143.7449 LP  0  0  0  0  0  0  0  0  0  0  0  0  # atno 17320 bound_to 7965
  146.0866  139.3855  143.0431 LP  0  0  0  0  0  0  0  0  0  0  0  0  # atno 17321 bound_to 7965
  140.5162  144.0950  150.6009 LP  0  0  0  0  0  0  0  0  0  0  0  0  # atno 17342 bound_to 10162
  140.3892  143.2761  152.0080 LP  0  0  0  0  0  0  0  0  0  0  0  0  # atno 17343 bound_to 10162
  155.9683  130.4230  150.4544 LP  0  0  0  0  0  0  0  0  0  0  0  0  # atno 17370 bound_to 10713
  157.2555  131.0555  151.2353 LP  0  0  0  0  0  0  0  0  0  0  0  0  # atno 17371 bound_to 10713
  141.1643  133.8732  157.1758 LP  0  0  0  0  0  0  0  0  0  0  0  0  # atno 17394 bound_to 11000
  139.9977  135.0040  157.0119 LP  0  0  0  0  0  0  0  0  0  0  0  0  # atno 17395 bound_to 11000

$$$$
