AV-unprocessed.smi:926|AV-procd|sdf|4186|dock10
  -GOLD-   22720 2 93D 1   1.00000     0.00000
 Structure written by MMmdl.
 37 39  0  0  0  0  0  0  0  0  1 V2000
  155.4303  139.7505  159.2386 O   0  0  0  0  0  0  0  0  0  0  0  0
  154.7374  139.2745  160.1398 C   0  0  0  0  0  0  0  0  0  0  0  0
  154.6177  137.7583  160.3352 C   0  0  0  0  0  0  0  0  0  0  0  0
  154.1601  137.0692  159.1408 N   0  0  0  0  0  0  0  0  0  0  0  0
  154.6898  136.9851  157.9183 C   0  0  0  0  0  0  0  0  0  0  0  0
  153.9424  136.2478  157.1112 N   0  0  0  0  0  0  0  0  0  0  0  0
  152.8864  135.8660  157.9219 N   0  0  0  0  0  0  0  0  0  0  0  0
  153.0103  136.3503  159.1274 N   0  0  0  0  0  0  0  0  0  0  0  0
  154.0508  140.0295  161.0108 N   0  0  0  0  0  0  0  0  0  0  0  0
  154.0274  141.4871  161.0144 C   0  0  0  0  0  0  0  0  0  0  0  0
  153.3972  142.0455  159.7267 C   0  0  0  0  0  0  0  0  0  0  0  0
  152.0056  142.6700  159.9501 C   0  0  1  0  0  0  0  0  0  0  0  0
  151.9949  143.8319  160.9670 C   0  0  0  0  0  0  0  0  0  0  0  0
  151.2538  144.9482  160.2076 C   0  0  1  0  0  0  0  0  0  0  0  0
  152.1810  145.5198  159.1189 C   0  0  0  0  0  0  0  0  0  0  0  0
  152.2010  144.3953  158.0676 C   0  0  0  0  0  0  0  0  0  0  0  0
  151.3206  143.3068  158.7152 C   0  0  2  0  0  0  0  0  0  0  0  0
  150.2447  144.1584  159.3815 C   0  0  0  0  0  0  0  0  0  0  0  0
  155.5899  137.3523  160.6170 H   0  0  0  0  0  0  0  0  0  0  0  0
  153.9288  137.5475  161.1549 H   0  0  0  0  0  0  0  0  0  0  0  0
  155.6124  137.4626  157.6228 H   0  0  0  0  0  0  0  0  0  0  0  0
  153.5057  139.5622  161.7211 H   0  0  0  0  0  0  0  0  0  0  0  0
  153.4907  141.8423  161.8955 H   0  0  0  0  0  0  0  0  0  0  0  0
  155.0530  141.8440  161.1116 H   0  0  0  0  0  0  0  0  0  0  0  0
  154.0580  142.8085  159.3131 H   0  0  0  0  0  0  0  0  0  0  0  0
  153.3427  141.2666  158.9664 H   0  0  0  0  0  0  0  0  0  0  0  0
  151.3482  141.8846  160.3275 H   0  0  0  0  0  0  0  0  0  0  0  0
  151.4506  143.5457  161.8679 H   0  0  0  0  0  0  0  0  0  0  0  0
  152.9950  144.1430  161.2714 H   0  0  0  0  0  0  0  0  0  0  0  0
  150.8239  145.7094  160.8591 H   0  0  0  0  0  0  0  0  0  0  0  0
  151.7671  146.4349  158.6934 H   0  0  0  0  0  0  0  0  0  0  0  0
  153.1763  145.7491  159.5018 H   0  0  0  0  0  0  0  0  0  0  0  0
  151.7492  144.7431  157.1376 H   0  0  0  0  0  0  0  0  0  0  0  0
  153.2075  144.0554  157.8263 H   0  0  0  0  0  0  0  0  0  0  0  0
  150.9375  142.5761  158.0025 H   0  0  0  0  0  0  0  0  0  0  0  0
  149.5454  143.5804  159.9884 H   0  0  0  0  0  0  0  0  0  0  0  0
  149.6821  144.7759  158.6789 H   0  0  0  0  0  0  0  0  0  0  0  0
  1  2  2  0  0  0  0
  2  3  1  0  0  0  0
  2  9  1  0  0  0  0
  3  4  1  0  0  0  0
  3 19  1  0  0  0  0
  3 20  1  0  0  0  0
  4  8  1  0  0  0  0
  4  5  1  0  0  0  0
  5  6  2  0  0  0  0
  5 21  1  0  0  0  0
  6  7  1  0  0  0  0
  7  8  2  0  0  0  0
  9 10  1  0  0  0  0
  9 22  1  0  0  0  0
 10 11  1  0  0  0  0
 10 23  1  0  0  0  0
 10 24  1  0  0  0  0
 11 12  1  0  0  0  0
 11 25  1  0  0  0  0
 11 26  1  0  0  0  0
 12 17  1  0  0  0  0
 12 13  1  0  0  0  0
 12 27  1  0  0  0  0
 13 14  1  0  0  0  0
 13 28  1  0  0  0  0
 13 29  1  0  0  0  0
 14 18  1  0  0  0  0
 14 15  1  0  0  0  0
 14 30  1  0  0  0  0
 15 16  1  0  0  0  0
 15 31  1  0  0  0  0
 15 32  1  0  0  0  0
 16 17  1  0  0  0  0
 16 33  1  0  0  0  0
 16 34  1  0  0  0  0
 17 18  1  0  0  0  0
 17 35  1  0  0  0  0
 18 36  1  0  0  0  0
 18 37  1  0  0  0  0
M  END
> <s_m_source_file>
AV-unprocessed.smi

> <i_m_source_file_index>
926

> <i_lp_mmshare_version>
43012

> <i_f3d_flags>
0

> <s_epik_input>
bjFubltjSF1uMVtDSDJdQyg9TylbTkhdW0NIMl1bQ0gyXVtDQEhdKFtDSDJdW0NASF0yMylbQ0BIXShbQ0gyXTMpW0NIMl1bQ0gyXTI=

> <s_epik_cmdline>
J2VwaWtfcHl0aG9uJywgJy1waCcsICc3LjAnLCAnLXRuJywgJzgnLCAnLW1hJywgJzIwMCcsICctbWV0YWxfYmluZGluZycsICctaW1hZScsICc8aW5maWxlLm1hZT4nLCAnLW9tYWUnLCAnPG91dGZpbGUubWFlPic=

> <r_lp_tautomer_probability>
1

> <r_epik_Ionization_Penalty>
4.22645e-07

> <r_epik_Ionization_Penalty_Charging>
0

> <r_epik_Ionization_Penalty_Neutral>
4.22645e-07

> <r_epik_State_Penalty>
-0

> <r_epik_Charging_Adjusted_Penalty>
0

> <i_epik_Tot_Q>
0

> <i_epik_Tot_abs_Q>
0

> <r_epik_Metal_State_Penalty>
-0

> <b_epik_Metal_Only>
0

> <s_lp_Force_Field>
OPLS_2005

> <r_lp_Energy>
51.6894

> <b_lp_Chiralities_Consistent>
1

> <s_lp_Variant>
AV-unprocessed.smi:926-4

> <Gold.Version>
5.8.1

> <Gold.Id.Protein>
6NUR|6NUR_protein|mol2

> <Gold.PLP.Fitness>
47.2789

> <Gold.PLP.PLP>
-39.3651

> <Gold.PLP.part.hbond>
-4.0000

> <Gold.PLP.part.metal>
0.0000

> <Gold.PLP.part.buried>
-5.4372

> <Gold.PLP.part.nonpolar>
-29.8487

> <Gold.PLP.part.repulsive>
0.0267

> <Gold.PLP.ligand.clash>
0.0000

> <Gold.PLP.ligand.torsion>
0.3707

> <Gold.PLP.Chemscore.Hbond>
2.8800

> <Gold.PLP.Chemscore.CHOScore>
0.0000

> <Gold.PLP.Chemscore.Metal>
0.0000

> <Gold.Chemscore.Hbonds>
donor molecule, donor type, donor heavy atom, donor atom, acceptor molecule, acceptor atom, score
      P1  H  6896  6907       L1     8  0.78
      P1  H  7997  8010       L1     1  1.00
      P1  H 10752 10764       L1     6  0.96

> <Gold.PLP.Chemscore.Internal.Correction>
0.0152

> <Gold.Rescore>
     Score         DG    S(hbond)    S(metal)    S(lipo)     H(rot)  DE(clash)    DE(int)     intcor
     19.13     -19.49       2.45        0.00     105.43       2.54       0.01       0.34       ----

> <Gold.Chemscore.Fitness>
19.1319

> <Gold.Chemscore.DG>
-19.4905

> <Gold.Chemscore.ZeroCoef>
-5.4800

> <Gold.Chemscore.Hbond>
2.4513

> <Gold.Chemscore.Metal>
0.0000

> <Gold.Chemscore.Lipo>
105.4262

> <Gold.Chemscore.Internal_Hbond>
0.0000

> <Gold.Chemscore.DEClash>
0.0137

> <Gold.Chemscore.DEInternal>
0.3450

> <Gold.Chemscore.Rot>
2.5436

> <Gold.Chemscore.Internal.Correction>
   9.000000E+99

> <Gold.Chemscore.Hbonds>
donor molecule, donor type, donor heavy atom, donor atom, acceptor molecule, acceptor atom, score
      P1  H  6896  6907       L1     8  0.13
      P1  H  7997  8010       L1     1  0.99
      P1  H 10752 10764       L1     6  0.45

> <Gold.Chemscore.Hbond.Weighted>
-8.1874

> <Gold.Chemscore.Metal.Weighted>
-0.0000

> <Gold.Chemscore.Lipo.Weighted>
-12.3349

> <Gold.Chemscore.Internal_Hbond.Weighted>
0.0000

> <Gold.Chemscore.DEClash.Weighted>
0.0137

> <Gold.Chemscore.DEInternal.Weighted>
0.3450

> <Gold.Chemscore.Rot.Weighted>
6.5117

> <Gold.Chemscore.Internal.Correction.Weighted>
   9.000000E+99

> <Gold.Protein.RotatedTorsions>
[ 6907 6896 6895 6894 ] final   32.87 input  -60.11 | X-H torsion
[ 7974 7965 7964 7962 ] final   68.57 input  175.53 | X-H torsion
[ 8008 7997 7996 7995 ] final  -13.74 input   59.86 | X-H torsion
[ 10167 10162 10161 10158 ] final  132.23 input  -65.29 | X-H torsion
[ 10718 10713 10712 10709 ] final   47.98 input   66.30 | X-H torsion
[ 10763 10752 10751 10750 ] final   -0.29 input  -60.55 | X-H torsion
[ 11005 11000 10999 10996 ] final  176.80 input  -57.11 | X-H torsion

> <Gold.Protein.ActiveResidues>
 VAL166  LYS551  ARG553  GLY616  TRP617  ASP618  TYR619  PRO620  LYS621  CYS622 
 ASP623  PHE694  ASN695  SER759  ASP760  ASP761  ALA762  ILE779  LEU786  VAL792 
 PHE793  MET794  SER795  GLU796  ALA797  LYS798  CYS799  TRP800  GLU811  SER814 

> <Gold.Protein.RotatedAtoms>
  152.0806  134.9473  160.0573 H   0  0  0  0  0  0  0  0  0  0  0  0  # atno 6907 bound_to 6896
  152.0764  133.4126  159.4490 H   0  0  0  0  0  0  0  0  0  0  0  0  # atno 6908 bound_to 6896
  150.6836  134.2953  159.4727 H   0  0  0  0  0  0  0  0  0  0  0  0  # atno 6909 bound_to 6896
  145.8010  139.2982  143.1155 H   0  0  0  0  0  0  0  0  0  0  0  0  # atno 7974 bound_to 7965
  154.5267  140.2241  155.8877 H   0  0  0  0  0  0  0  0  0  0  0  0  # atno 8008 bound_to 7997
  156.1721  140.3119  155.8956 H   0  0  0  0  0  0  0  0  0  0  0  0  # atno 8009 bound_to 7997
  155.3536  140.0457  157.3037 H   0  0  0  0  0  0  0  0  0  0  0  0  # atno 8010 bound_to 7997
  139.5349  144.6671  151.4821 H   0  0  0  0  0  0  0  0  0  0  0  0  # atno 10167 bound_to 10162
  157.4640  130.8214  149.7916 H   0  0  0  0  0  0  0  0  0  0  0  0  # atno 10718 bound_to 10713
  153.3300  135.6974  153.6956 H   0  0  0  0  0  0  0  0  0  0  0  0  # atno 10763 bound_to 10752
  153.5762  135.3507  155.2858 H   0  0  0  0  0  0  0  0  0  0  0  0  # atno 10764 bound_to 10752
  154.8616  135.4284  154.2487 H   0  0  0  0  0  0  0  0  0  0  0  0  # atno 10765 bound_to 10752
  140.3771  134.6979  157.4428 H   0  0  0  0  0  0  0  0  0  0  0  0  # atno 11005 bound_to 11000
  145.9878  140.8629  143.0082 LP  0  0  0  0  0  0  0  0  0  0  0  0  # atno 17320 bound_to 7965
  144.6769  140.2172  143.7370 LP  0  0  0  0  0  0  0  0  0  0  0  0  # atno 17321 bound_to 7965
  140.6549  143.8619  150.6825 LP  0  0  0  0  0  0  0  0  0  0  0  0  # atno 17342 bound_to 10162
  140.1996  143.3970  152.1802 LP  0  0  0  0  0  0  0  0  0  0  0  0  # atno 17343 bound_to 10162
  156.0041  130.3864  150.2494 LP  0  0  0  0  0  0  0  0  0  0  0  0  # atno 17370 bound_to 10713
  157.0673  131.0107  151.3202 LP  0  0  0  0  0  0  0  0  0  0  0  0  # atno 17371 bound_to 10713
  140.0506  134.6135  155.8866 LP  0  0  0  0  0  0  0  0  0  0  0  0  # atno 17394 bound_to 11000
  141.1935  133.6579  156.5553 LP  0  0  0  0  0  0  0  0  0  0  0  0  # atno 17395 bound_to 11000

$$$$
