AV-unprocessed.smi:1624|AV-procd|sdf|6504|dock8
  -GOLD-   22720 7173D 1   1.00000     0.00000
 Structure written by MMmdl.
 35 36  0  0  0  0  0  0  0  0  2 V2000
  150.3207  136.4371  158.8477 O   0  0  0  0  0  0  0  0  0  0  0  0
  149.7546  137.3081  158.1826 C   0  0  0  0  0  0  0  0  0  0  0  0
  148.4314  137.2369  157.9766 N   0  0  0  0  0  0  0  0  0  0  0  0
  147.5453  136.1963  158.4861 C   0  0  0  0  0  0  0  0  0  0  0  0
  146.4065  136.7910  159.3350 C   0  0  0  0  0  0  0  0  0  0  0  0
  146.5271  136.3974  160.7429 N   0  0  0  0  0  0  0  0  0  0  0  0
  145.3114  135.8463  161.3611 C   0  0  0  0  0  0  0  0  0  0  0  0
  145.3920  134.3279  161.6352 C   0  0  0  0  0  0  0  0  0  0  0  0
  146.7896  133.7748  161.9773 C   0  0  0  0  0  0  0  0  0  0  0  0
  147.5375  134.5346  163.0931 C   0  0  0  0  0  0  0  0  0  0  0  0
  147.7305  136.0577  162.8894 C   0  0  0  0  0  0  0  0  0  0  0  0
  147.6927  136.5211  161.4233 C   0  0  0  0  0  0  0  0  0  0  0  0
  148.7166  136.9872  160.9229 O   0  0  0  0  0  0  0  0  0  0  0  0
  150.3398  138.3853  157.6110 N   0  5  0  0  0  0  0  0  0  0  0  0
  150.2514  138.5702  156.2835 C   0  0  0  0  0  0  0  0  0  0  0  0
  150.7094  139.6781  155.6787 N   0  0  0  0  0  0  0  0  0  0  0  0
  150.5214  139.6664  154.3029 N   0  0  0  0  0  0  0  0  0  0  0  0
  149.9321  138.5401  153.9026 C   0  0  0  0  0  0  0  0  0  0  0  0
  149.5553  137.3908  155.1687 S   0  0  0  0  0  0  0  0  0  0  0  0
  148.0070  137.9696  157.4269 H   0  0  0  0  0  0  0  0  0  0  0  0
  147.1365  135.6534  157.6338 H   0  0  0  0  0  0  0  0  0  0  0  0
  148.1192  135.4724  159.0672 H   0  0  0  0  0  0  0  0  0  0  0  0
  146.4038  137.8790  159.2561 H   0  0  0  0  0  0  0  0  0  0  0  0
  145.4407  136.4765  158.9358 H   0  0  0  0  0  0  0  0  0  0  0  0
  145.1088  136.3782  162.2908 H   0  0  0  0  0  0  0  0  0  0  0  0
  144.4347  136.0535  160.7460 H   0  0  0  0  0  0  0  0  0  0  0  0
  144.6937  134.0778  162.4344 H   0  0  0  0  0  0  0  0  0  0  0  0
  145.0320  133.7971  160.7534 H   0  0  0  0  0  0  0  0  0  0  0  0
  146.6904  132.7287  162.2683 H   0  0  0  0  0  0  0  0  0  0  0  0
  147.4029  133.7586  161.0751 H   0  0  0  0  0  0  0  0  0  0  0  0
  147.0173  134.3747  164.0379 H   0  0  0  0  0  0  0  0  0  0  0  0
  148.5175  134.0733  163.2193 H   0  0  0  0  0  0  0  0  0  0  0  0
  146.9757  136.6088  163.4500 H   0  0  0  0  0  0  0  0  0  0  0  0
  148.6799  136.3594  163.3336 H   0  0  0  0  0  0  0  0  0  0  0  0
  149.7208  138.3834  152.8553 H   0  0  0  0  0  0  0  0  0  0  0  0
  1  2  2  0  0  0  0
  2  3  1  0  0  0  0
  2 14  1  0  0  0  0
  3  4  1  0  0  0  0
  3 20  1  0  0  0  0
  4  5  1  0  0  0  0
  4 21  1  0  0  0  0
  4 22  1  0  0  0  0
  5  6  1  0  0  0  0
  5 23  1  0  0  0  0
  5 24  1  0  0  0  0
  6 12  1  0  0  0  0
  6  7  1  0  0  0  0
  7  8  1  0  0  0  0
  7 25  1  0  0  0  0
  7 26  1  0  0  0  0
  8  9  1  0  0  0  0
  8 27  1  0  0  0  0
  8 28  1  0  0  0  0
  9 10  1  0  0  0  0
  9 29  1  0  0  0  0
  9 30  1  0  0  0  0
 10 11  1  0  0  0  0
 10 31  1  0  0  0  0
 10 32  1  0  0  0  0
 11 12  1  0  0  0  0
 11 33  1  0  0  0  0
 11 34  1  0  0  0  0
 12 13  2  0  0  0  0
 14 15  1  0  0  0  0
 15 19  1  0  0  0  0
 15 16  2  0  0  0  0
 16 17  1  0  0  0  0
 17 18  2  0  0  0  0
 18 19  1  0  0  0  0
 18 35  1  0  0  0  0
M  CHG  1  14  -1
M  END
> <s_m_source_file>
AV-unprocessed.smi

> <i_m_source_file_index>
1624

> <i_lp_mmshare_version>
43012

> <i_f3d_flags>
0

> <s_epik_input>
czFbY0hdbm5jMVtOSF1DKD1PKVtOSF1bQ0gyXVtDSDJdTjJbQ0gyXVtDSDJdW0NIMl1bQ0gyXVtDSDJdQzI9Tw==

> <s_epik_cmdline>
J2VwaWtfcHl0aG9uJywgJy1waCcsICc3LjAnLCAnLXRuJywgJzgnLCAnLW1hJywgJzIwMCcsICctbWV0YWxfYmluZGluZycsICctaW1hZScsICc8aW5maWxlLm1hZT4nLCAnLW9tYWUnLCAnPG91dGZpbGUubWFlPic=

> <r_lp_tautomer_probability>
1

> <r_epik_Ionization_Penalty>
3.35684

> <r_epik_Ionization_Penalty_Charging>
3.31562

> <r_epik_Ionization_Penalty_Neutral>
0.0412242

> <r_epik_State_Penalty>
3.31341

> <r_epik_Charging_Adjusted_Penalty>
6.62903

> <i_epik_Tot_Q>
-1

> <i_epik_Tot_abs_Q>
1

> <r_epik_Metal_State_Penalty>
0.484053

> <b_epik_Metal_Only>
1

> <s_lp_Force_Field>
OPLS_2005

> <r_lp_Energy>
19.6576

> <b_lp_Chiralities_Consistent>
1

> <s_lp_Variant>
AV-unprocessed.smi:1624-2

> <Gold.Version>
5.8.1

> <Gold.Id.Protein>
6NUR|6NUR_protein|mol2

> <Gold.PLP.Fitness>
39.3761

> <Gold.PLP.PLP>
-26.6563

> <Gold.PLP.part.hbond>
-3.4238

> <Gold.PLP.part.metal>
0.0000

> <Gold.PLP.part.buried>
-3.9274

> <Gold.PLP.part.nonpolar>
-20.8032

> <Gold.PLP.part.repulsive>
0.2075

> <Gold.PLP.ligand.clash>
0.0000

> <Gold.PLP.ligand.torsion>
1.0277

> <Gold.PLP.Chemscore.Hbond>
3.0000

> <Gold.PLP.Chemscore.CHOScore>
1.9184

> <Gold.PLP.Chemscore.Metal>
0.0000

> <Gold.Chemscore.Hbonds>
donor molecule, donor type, donor heavy atom, donor atom, acceptor molecule, acceptor atom, score
      P1  H  6896  6907       L1     1  1.00
      P1  H  6931  6943       L1    13  0.96
      P1  H  7989  7998       L1    17  1.00
      L1  C    18    35       P1  7948  0.92
      L1  C    18    35       P1  7957  0.96

> <Gold.PLP.Chemscore.Internal.Correction>
0.0200

> <Gold.Rescore>
     Score         DG    S(hbond)    S(metal)    S(lipo)     H(rot)  DE(clash)    DE(int)     intcor
     18.21     -19.37       3.67        0.00      51.89       1.73       0.01       1.14       ----

> <Gold.Chemscore.Fitness>
18.2129

> <Gold.Chemscore.DG>
-19.3697

> <Gold.Chemscore.ZeroCoef>
-5.4800

> <Gold.Chemscore.Hbond>
3.6705

> <Gold.Chemscore.Metal>
0.0000

> <Gold.Chemscore.Lipo>
51.8874

> <Gold.Chemscore.Internal_Hbond>
0.0000

> <Gold.Chemscore.DEClash>
0.0133

> <Gold.Chemscore.DEInternal>
1.1435

> <Gold.Chemscore.Rot>
1.7346

> <Gold.Chemscore.Internal.Correction>
   9.000000E+99

> <Gold.Chemscore.Hbonds>
donor molecule, donor type, donor heavy atom, donor atom, acceptor molecule, acceptor atom, score
      P1  H  6896  6907       L1     1  0.98
      P1  H  6931  6943       L1    13  0.36
      P1  H  7989  7998       L1    17  0.78

> <Gold.Chemscore.Hbond.Weighted>
-12.2595

> <Gold.Chemscore.Metal.Weighted>
-0.0000

> <Gold.Chemscore.Lipo.Weighted>
-6.0708

> <Gold.Chemscore.Internal_Hbond.Weighted>
0.0000

> <Gold.Chemscore.DEClash.Weighted>
0.0133

> <Gold.Chemscore.DEInternal.Weighted>
1.1435

> <Gold.Chemscore.Rot.Weighted>
4.4406

> <Gold.Chemscore.Internal.Correction.Weighted>
   9.000000E+99

> <Gold.Protein.RotatedTorsions>
[ 6907 6896 6895 6894 ] final  -50.70 input  -60.11 | X-H torsion
[ 7974 7965 7964 7962 ] final  113.58 input  175.53 | X-H torsion
[ 8008 7997 7996 7995 ] final  172.46 input   59.86 | X-H torsion
[ 10167 10162 10161 10158 ] final -149.03 input  -65.29 | X-H torsion
[ 10718 10713 10712 10709 ] final  -72.14 input   66.30 | X-H torsion
[ 10763 10752 10751 10750 ] final  -74.26 input  -60.55 | X-H torsion
[ 11005 11000 10999 10996 ] final  103.63 input  -57.11 | X-H torsion

> <Gold.Protein.ActiveResidues>
 VAL166  LYS551  ARG553  GLY616  TRP617  ASP618  TYR619  PRO620  LYS621  CYS622 
 ASP623  PHE694  ASN695  SER759  ASP760  ASP761  ALA762  ILE779  LEU786  VAL792 
 PHE793  MET794  SER795  GLU796  ALA797  LYS798  CYS799  TRP800  GLU811  SER814 

> <Gold.Protein.RotatedAtoms>
  150.8682  134.8050  159.7134 H   0  0  0  0  0  0  0  0  0  0  0  0  # atno 6907 bound_to 6896
  152.4696  134.4989  159.9728 H   0  0  0  0  0  0  0  0  0  0  0  0  # atno 6908 bound_to 6896
  151.5082  133.3452  159.2916 H   0  0  0  0  0  0  0  0  0  0  0  0  # atno 6909 bound_to 6896
  145.2151  139.2888  143.4247 H   0  0  0  0  0  0  0  0  0  0  0  0  # atno 7974 bound_to 7965
  156.1172  140.1485  156.9256 H   0  0  0  0  0  0  0  0  0  0  0  0  # atno 8008 bound_to 7997
  154.4809  140.0879  156.7417 H   0  0  0  0  0  0  0  0  0  0  0  0  # atno 8009 bound_to 7997
  155.4492  140.3434  155.4301 H   0  0  0  0  0  0  0  0  0  0  0  0  # atno 8010 bound_to 7997
  139.7479  143.8562  152.2579 H   0  0  0  0  0  0  0  0  0  0  0  0  # atno 10167 bound_to 10162
  156.0333  130.4366  150.2549 H   0  0  0  0  0  0  0  0  0  0  0  0  # atno 10718 bound_to 10713
  154.4707  135.5870  153.6320 H   0  0  0  0  0  0  0  0  0  0  0  0  # atno 10763 bound_to 10752
  152.9834  135.6066  154.3370 H   0  0  0  0  0  0  0  0  0  0  0  0  # atno 10764 bound_to 10752
  154.3251  135.2843  155.2479 H   0  0  0  0  0  0  0  0  0  0  0  0  # atno 10765 bound_to 10752
  139.8785  134.9270  156.5238 H   0  0  0  0  0  0  0  0  0  0  0  0  # atno 11005 bound_to 11000
  146.3389  140.2440  142.8596 LP  0  0  0  0  0  0  0  0  0  0  0  0  # atno 17320 bound_to 7965
  144.9818  140.8466  143.5392 LP  0  0  0  0  0  0  0  0  0  0  0  0  # atno 17321 bound_to 7965
  139.8532  144.7154  150.9188 LP  0  0  0  0  0  0  0  0  0  0  0  0  # atno 17342 bound_to 10162
  140.7794  143.3881  151.1358 LP  0  0  0  0  0  0  0  0  0  0  0  0  # atno 17343 bound_to 10162
  157.0650  131.0100  151.3210 LP  0  0  0  0  0  0  0  0  0  0  0  0  # atno 17370 bound_to 10713
  157.5042  130.7899  149.7637 LP  0  0  0  0  0  0  0  0  0  0  0  0  # atno 17371 bound_to 10713
  140.8431  133.8190  155.9094 LP  0  0  0  0  0  0  0  0  0  0  0  0  # atno 17394 bound_to 11000
  140.9218  134.2132  157.4921 LP  0  0  0  0  0  0  0  0  0  0  0  0  # atno 17395 bound_to 11000

$$$$
