AV-unprocessed.smi:2216|AV-procd|sdf|8967|dock5
  -GOLD-   2272012183D 1   1.00000     0.00000
 Structure written by MMmdl.
 40 41  0  0  0  0  0  0  0  0  2 V2000
  150.1464  141.8143  158.2850 C   0  0  0  0  0  0  0  0  0  0  0  0
  150.5935  141.0246  157.0665 C   0  0  0  0  0  0  0  0  0  0  0  0
  149.7490  140.7643  156.0372 C   0  0  0  0  0  0  0  0  0  0  0  0
  150.1742  140.0115  154.8572 C   0  0  0  0  0  0  0  0  0  0  0  0
  149.3993  139.6902  153.7351 N   0  0  0  0  0  0  0  0  0  0  0  0
  148.1623  139.1648  153.6918 C   0  0  0  0  0  0  0  0  0  0  0  0
  147.4852  138.8305  154.6637 O   0  0  0  0  0  0  0  0  0  0  0  0
  147.7443  139.0331  152.4249 N   0  0  0  0  0  0  0  0  0  0  0  0
  146.4608  138.4727  152.0183 C   0  0  0  0  0  0  0  0  0  0  0  0
  146.1016  137.2324  152.8537 C   0  0  0  0  0  0  0  0  0  0  0  0
  145.0632  136.3300  152.1690 C   0  0  1  0  0  0  0  0  0  0  0  0
  145.6721  135.5393  150.9946 C   0  0  0  0  0  0  0  0  0  0  0  0
  144.6324  134.5926  150.3843 C   0  0  0  0  0  0  0  0  0  0  0  0
  144.0245  133.7151  151.4835 C   0  0  0  0  0  0  0  0  0  0  0  0
  143.5048  134.5876  152.6370 C   0  0  0  0  0  0  0  0  0  0  0  0
  144.5547  135.4114  153.1348 O   0  0  0  0  0  0  0  0  0  0  0  0
  151.4975  139.6251  154.9238 C   0  0  0  0  0  0  0  0  0  0  0  0
  152.3951  139.8421  155.9092 N   0  5  0  0  0  0  0  0  0  0  0  0
  151.9868  140.5382  157.0088 C   0  0  0  0  0  0  0  0  0  0  0  0
  152.7472  140.7697  157.9479 O   0  0  0  0  0  0  0  0  0  0  0  0
  149.1005  142.1120  158.2049 H   0  0  0  0  0  0  0  0  0  0  0  0
  150.7464  142.7183  158.3938 H   0  0  0  0  0  0  0  0  0  0  0  0
  150.2576  141.2153  159.1893 H   0  0  0  0  0  0  0  0  0  0  0  0
  148.7431  141.1444  156.1097 H   0  0  0  0  0  0  0  0  0  0  0  0
  149.8396  139.8822  152.8473 H   0  0  0  0  0  0  0  0  0  0  0  0
  148.3644  139.3348  151.6878 H   0  0  0  0  0  0  0  0  0  0  0  0
  145.6785  139.2299  152.0939 H   0  0  0  0  0  0  0  0  0  0  0  0
  146.5292  138.2039  150.9640 H   0  0  0  0  0  0  0  0  0  0  0  0
  147.0099  136.6576  153.0379 H   0  0  0  0  0  0  0  0  0  0  0  0
  145.7283  137.5378  153.8321 H   0  0  0  0  0  0  0  0  0  0  0  0
  144.2458  136.9520  151.7991 H   0  0  0  0  0  0  0  0  0  0  0  0
  146.0455  136.2224  150.2311 H   0  0  0  0  0  0  0  0  0  0  0  0
  146.5295  134.9626  151.3439 H   0  0  0  0  0  0  0  0  0  0  0  0
  143.8460  135.1730  149.9003 H   0  0  0  0  0  0  0  0  0  0  0  0
  145.0881  133.9735  149.6110 H   0  0  0  0  0  0  0  0  0  0  0  0
  143.2178  133.1047  151.0769 H   0  0  0  0  0  0  0  0  0  0  0  0
  144.7797  133.0248  151.8615 H   0  0  0  0  0  0  0  0  0  0  0  0
  142.6672  135.2061  152.3110 H   0  0  0  0  0  0  0  0  0  0  0  0
  143.1381  133.9576  153.4475 H   0  0  0  0  0  0  0  0  0  0  0  0
  151.8932  139.0524  154.0574 H   0  0  0  0  0  0  0  0  0  0  0  0
  1  2  1  0  0  0  0
  1 21  1  0  0  0  0
  1 22  1  0  0  0  0
  1 23  1  0  0  0  0
  2 19  1  0  0  0  0
  2  3  2  0  0  0  0
  3  4  1  0  0  0  0
  3 24  1  0  0  0  0
  4  5  1  0  0  0  0
  4 17  2  0  0  0  0
  5  6  1  0  0  0  0
  5 25  1  0  0  0  0
  6  7  2  0  0  0  0
  6  8  1  0  0  0  0
  8  9  1  0  0  0  0
  8 26  1  0  0  0  0
  9 10  1  0  0  0  0
  9 27  1  0  0  0  0
  9 28  1  0  0  0  0
 10 11  1  0  0  0  0
 10 29  1  0  0  0  0
 10 30  1  0  0  0  0
 11 16  1  0  0  0  0
 11 12  1  0  0  0  0
 11 31  1  0  0  0  0
 12 13  1  0  0  0  0
 12 32  1  0  0  0  0
 12 33  1  0  0  0  0
 13 14  1  0  0  0  0
 13 34  1  0  0  0  0
 13 35  1  0  0  0  0
 14 15  1  0  0  0  0
 14 36  1  0  0  0  0
 14 37  1  0  0  0  0
 15 16  1  0  0  0  0
 15 38  1  0  0  0  0
 15 39  1  0  0  0  0
 17 18  1  0  0  0  0
 17 40  1  0  0  0  0
 18 19  1  0  0  0  0
 19 20  2  0  0  0  0
M  CHG  1  18  -1
M  END
> <s_m_source_file>
AV-unprocessed.smi

> <i_m_source_file_index>
2216

> <i_lp_mmshare_version>
43012

> <i_f3d_flags>
0

> <s_epik_input>
Tz1jMVtuSF1bY0hdYyhbY0hdYzFbQ0gzXSlbTkhdQyg9TylbTkhdW0NIMl1bQ0gyXVtDQEBIXTJbQ0gyXVtDSDJdW0NIMl1bQ0gyXU8y

> <s_epik_cmdline>
J2VwaWtfcHl0aG9uJywgJy1waCcsICc3LjAnLCAnLXRuJywgJzgnLCAnLW1hJywgJzIwMCcsICctbWV0YWxfYmluZGluZycsICctaW1hZScsICc8aW5maWxlLm1hZT4nLCAnLW9tYWUnLCAnPG91dGZpbGUubWFlPic=

> <r_lp_tautomer_probability>
1

> <r_epik_Ionization_Penalty>
7.55627

> <r_epik_Ionization_Penalty_Charging>
1.50531

> <r_epik_Ionization_Penalty_Neutral>
6.05097

> <r_epik_State_Penalty>
6.05091

> <r_epik_Charging_Adjusted_Penalty>
7.55622

> <i_epik_Tot_Q>
-1

> <i_epik_Tot_abs_Q>
1

> <r_epik_Metal_State_Penalty>
2.00009

> <b_epik_Metal_Only>
1

> <s_lp_Force_Field>
OPLS_2005

> <r_lp_Energy>
20.9745

> <b_lp_Chiralities_Consistent>
1

> <s_lp_Variant>
AV-unprocessed.smi:2216-4

> <Gold.Version>
5.8.1

> <Gold.Id.Protein>
6NUR|6NUR_protein|mol2

> <Gold.PLP.Fitness>
43.9486

> <Gold.PLP.PLP>
-33.9723

> <Gold.PLP.part.hbond>
-4.5185

> <Gold.PLP.part.metal>
0.0000

> <Gold.PLP.part.buried>
-2.4763

> <Gold.PLP.part.nonpolar>
-27.5818

> <Gold.PLP.part.repulsive>
0.3409

> <Gold.PLP.ligand.clash>
0.0000

> <Gold.PLP.ligand.torsion>
0.7292

> <Gold.PLP.Chemscore.Hbond>
3.8050

> <Gold.PLP.Chemscore.CHOScore>
0.0000

> <Gold.PLP.Chemscore.Metal>
0.0000

> <Gold.Chemscore.Hbonds>
donor molecule, donor type, donor heavy atom, donor atom, acceptor molecule, acceptor atom, score
      L1  H     5    25       P1  7957  0.93
      L1  H     8    26       P1  7957  0.91
      P1  H  7997  8010       L1    18  1.60

> <Gold.PLP.Chemscore.Internal.Correction>
0.0197

> <Gold.Rescore>
     Score         DG    S(hbond)    S(metal)    S(lipo)     H(rot)  DE(clash)    DE(int)     intcor
     14.83     -17.24       2.30        0.00      67.09       1.47       0.31       2.10       ----

> <Gold.Chemscore.Fitness>
14.8313

> <Gold.Chemscore.DG>
-17.2406

> <Gold.Chemscore.ZeroCoef>
-5.4800

> <Gold.Chemscore.Hbond>
2.2983

> <Gold.Chemscore.Metal>
0.0000

> <Gold.Chemscore.Lipo>
67.0901

> <Gold.Chemscore.Internal_Hbond>
0.0000

> <Gold.Chemscore.DEClash>
0.3061

> <Gold.Chemscore.DEInternal>
2.1032

> <Gold.Chemscore.Rot>
1.4709

> <Gold.Chemscore.Internal.Correction>
   9.000000E+99

> <Gold.Chemscore.Hbonds>
donor molecule, donor type, donor heavy atom, donor atom, acceptor molecule, acceptor atom, score
      L1  H     5    25       P1  7957  0.90
      L1  H     8    26       P1  7957  0.84
      P1  H  7997  8010       L1    18  0.11

> <Gold.Chemscore.Hbond.Weighted>
-7.6765

> <Gold.Chemscore.Metal.Weighted>
-0.0000

> <Gold.Chemscore.Lipo.Weighted>
-7.8495

> <Gold.Chemscore.Internal_Hbond.Weighted>
0.0000

> <Gold.Chemscore.DEClash.Weighted>
0.3061

> <Gold.Chemscore.DEInternal.Weighted>
2.1032

> <Gold.Chemscore.Rot.Weighted>
3.7654

> <Gold.Chemscore.Internal.Correction.Weighted>
   9.000000E+99

> <Gold.Protein.RotatedTorsions>
[ 6907 6896 6895 6894 ] final  -94.62 input  -60.11 | X-H torsion
[ 7974 7965 7964 7962 ] final  -62.21 input  175.53 | X-H torsion
[ 8008 7997 7996 7995 ] final   87.50 input   59.86 | X-H torsion
[ 10167 10162 10161 10158 ] final  -42.02 input  -65.29 | X-H torsion
[ 10718 10713 10712 10709 ] final  -35.41 input   66.30 | X-H torsion
[ 10763 10752 10751 10750 ] final   39.86 input  -60.55 | X-H torsion
[ 11005 11000 10999 10996 ] final  -23.87 input  -57.11 | X-H torsion

> <Gold.Protein.ActiveResidues>
 VAL166  LYS551  ARG553  GLY616  TRP617  ASP618  TYR619  PRO620  LYS621  CYS622 
 ASP623  PHE694  ASN695  SER759  ASP760  ASP761  ALA762  ILE779  LEU786  VAL792 
 PHE793  MET794  SER795  GLU796  ALA797  LYS798  CYS799  TRP800  GLU811  SER814 

> <Gold.Protein.RotatedAtoms>
  150.6945  134.1784  159.4239 H   0  0  0  0  0  0  0  0  0  0  0  0  # atno 6907 bound_to 6896
  151.9760  135.0050  160.0564 H   0  0  0  0  0  0  0  0  0  0  0  0  # atno 6908 bound_to 6896
  152.1798  133.4665  159.4989 H   0  0  0  0  0  0  0  0  0  0  0  0  # atno 6909 bound_to 6896
  145.7940  140.8693  143.0266 H   0  0  0  0  0  0  0  0  0  0  0  0  # atno 7974 bound_to 7965
  155.9762  140.3381  155.6621 H   0  0  0  0  0  0  0  0  0  0  0  0  # atno 8008 bound_to 7997
  155.6609  140.0716  157.2572 H   0  0  0  0  0  0  0  0  0  0  0  0  # atno 8009 bound_to 7997
  154.4179  140.1709  156.1763 H   0  0  0  0  0  0  0  0  0  0  0  0  # atno 8010 bound_to 7997
  140.6983  143.3061  151.3149 H   0  0  0  0  0  0  0  0  0  0  0  0  # atno 10167 bound_to 10162
  156.3390  130.4290  149.7804 H   0  0  0  0  0  0  0  0  0  0  0  0  # atno 10718 bound_to 10713
  152.9954  135.6208  154.2534 H   0  0  0  0  0  0  0  0  0  0  0  0  # atno 10763 bound_to 10752
  154.2272  135.2793  155.2905 H   0  0  0  0  0  0  0  0  0  0  0  0  # atno 10764 bound_to 10752
  154.5480  135.5741  153.6955 H   0  0  0  0  0  0  0  0  0  0  0  0  # atno 10765 bound_to 10752
  140.8792  133.7666  156.0281 H   0  0  0  0  0  0  0  0  0  0  0  0  # atno 11005 bound_to 11000
  144.6778  140.0164  143.7484 LP  0  0  0  0  0  0  0  0  0  0  0  0  # atno 17320 bound_to 7965
  145.9947  139.3043  143.0964 LP  0  0  0  0  0  0  0  0  0  0  0  0  # atno 17321 bound_to 7965
  139.6467  144.0437  152.2596 LP  0  0  0  0  0  0  0  0  0  0  0  0  # atno 17342 bound_to 10162
  139.9960  144.6327  150.7772 LP  0  0  0  0  0  0  0  0  0  0  0  0  # atno 17343 bound_to 10162
  156.5048  130.8145  151.3146 LP  0  0  0  0  0  0  0  0  0  0  0  0  # atno 17370 bound_to 10713
  157.7443  130.9933  150.2666 LP  0  0  0  0  0  0  0  0  0  0  0  0  # atno 17371 bound_to 10713
  140.8481  134.2986  157.5286 LP  0  0  0  0  0  0  0  0  0  0  0  0  # atno 17394 bound_to 11000
  139.8718  134.9453  156.3905 LP  0  0  0  0  0  0  0  0  0  0  0  0  # atno 17395 bound_to 11000

$$$$
