AV-unprocessed.smi:632|AV-procd|sdf|3128|dock6
  -GOLD-   22720 0 53D 1   1.00000     0.00000
 Structure written by MMmdl.
 41 42  0  0  0  0  0  0  0  0  2 V2000
  152.9853  129.5117  154.9312 C   0  0  0  0  0  0  0  0  0  0  0  0
  152.2073  130.1768  156.0834 C   0  0  0  0  0  0  0  0  0  0  0  0
  151.2997  129.0976  156.7137 C   0  0  0  0  0  0  0  0  0  0  0  0
  153.1738  130.6680  157.1785 C   0  0  0  0  0  0  0  0  0  0  0  0
  151.3993  131.3385  155.5537 C   0  0  0  0  0  0  0  0  0  0  0  0
  151.5728  132.5879  156.0025 N   0  0  0  0  0  0  0  0  0  0  0  0
  150.7319  133.5005  155.3842 N   0  0  0  0  0  0  0  0  0  0  0  0
  149.9327  132.9413  154.4665 C   0  0  0  0  0  0  0  0  0  0  0  0
  149.0429  133.6539  153.7558 N   0  5  0  0  0  0  0  0  0  0  0  0
  147.8431  133.1149  153.4409 C   0  0  0  0  0  0  0  0  0  0  0  0
  147.3464  132.1001  153.9349 O   0  0  0  0  0  0  0  0  0  0  0  0
  147.1779  133.7948  152.4955 N   0  0  0  0  0  0  0  0  0  0  0  0
  145.8634  133.4576  151.9553 C   0  0  2  0  0  0  0  0  0  0  0  0
  145.8195  131.9809  151.5095 C   0  0  0  0  0  0  0  0  0  0  0  0
  144.4687  131.6277  150.8663 C   0  0  0  0  0  0  0  0  0  0  0  0
  144.1514  132.5677  149.6907 C   0  0  1  0  0  0  0  0  0  0  0  0
  142.8748  132.2601  149.1713 O   0  0  0  0  0  0  0  0  0  0  0  0
  144.1841  134.0401  150.1352 C   0  0  0  0  0  0  0  0  0  0  0  0
  145.5354  134.3942  150.7770 C   0  0  0  0  0  0  0  0  0  0  0  0
  150.1524  131.2002  154.3136 S   0  0  0  0  0  0  0  0  0  0  0  0
  153.5653  128.6578  155.2829 H   0  0  0  0  0  0  0  0  0  0  0  0
  153.6842  130.2082  154.4667 H   0  0  0  0  0  0  0  0  0  0  0  0
  152.3111  129.1543  154.1522 H   0  0  0  0  0  0  0  0  0  0  0  0
  150.5936  128.6916  155.9885 H   0  0  0  0  0  0  0  0  0  0  0  0
  150.7259  129.4936  157.5524 H   0  0  0  0  0  0  0  0  0  0  0  0
  151.8857  128.2602  157.0939 H   0  0  0  0  0  0  0  0  0  0  0  0
  153.7599  129.8460  157.5907 H   0  0  0  0  0  0  0  0  0  0  0  0
  152.6334  131.1345  158.0030 H   0  0  0  0  0  0  0  0  0  0  0  0
  153.8776  131.4045  156.7895 H   0  0  0  0  0  0  0  0  0  0  0  0
  147.6256  134.6182  152.1206 H   0  0  0  0  0  0  0  0  0  0  0  0
  145.1102  133.6154  152.7296 H   0  0  0  0  0  0  0  0  0  0  0  0
  146.6218  131.7870  150.7960 H   0  0  0  0  0  0  0  0  0  0  0  0
  145.9995  131.3237  152.3610 H   0  0  0  0  0  0  0  0  0  0  0  0
  144.4824  130.5915  150.5261 H   0  0  0  0  0  0  0  0  0  0  0  0
  143.6830  131.6966  151.6201 H   0  0  0  0  0  0  0  0  0  0  0  0
  144.8830  132.4131  148.8966 H   0  0  0  0  0  0  0  0  0  0  0  0
  142.3266  133.0254  149.2528 H   0  0  0  0  0  0  0  0  0  0  0  0
  143.9982  134.6940  149.2824 H   0  0  0  0  0  0  0  0  0  0  0  0
  143.3841  134.2303  150.8521 H   0  0  0  0  0  0  0  0  0  0  0  0
  145.5192  135.4304  151.1170 H   0  0  0  0  0  0  0  0  0  0  0  0
  146.3210  134.3287  150.0227 H   0  0  0  0  0  0  0  0  0  0  0  0
  1  2  1  0  0  0  0
  1 21  1  0  0  0  0
  1 22  1  0  0  0  0
  1 23  1  0  0  0  0
  2  3  1  0  0  0  0
  2  4  1  0  0  0  0
  2  5  1  0  0  0  0
  3 24  1  0  0  0  0
  3 25  1  0  0  0  0
  3 26  1  0  0  0  0
  4 27  1  0  0  0  0
  4 28  1  0  0  0  0
  4 29  1  0  0  0  0
  5 20  1  0  0  0  0
  5  6  2  0  0  0  0
  6  7  1  0  0  0  0
  7  8  2  0  0  0  0
  8  9  1  0  0  0  0
  8 20  1  0  0  0  0
  9 10  1  0  0  0  0
 10 11  2  0  0  0  0
 10 12  1  0  0  0  0
 12 13  1  0  0  0  0
 12 30  1  0  0  0  0
 13 19  1  0  0  0  0
 13 14  1  0  0  0  0
 13 31  1  0  0  0  0
 14 15  1  0  0  0  0
 14 32  1  0  0  0  0
 14 33  1  0  0  0  0
 15 16  1  0  0  0  0
 15 34  1  0  0  0  0
 15 35  1  0  0  0  0
 16 17  1  0  0  0  0
 16 18  1  0  0  0  0
 16 36  1  0  0  0  0
 17 37  1  0  0  0  0
 18 19  1  0  0  0  0
 18 38  1  0  0  0  0
 18 39  1  0  0  0  0
 19 40  1  0  0  0  0
 19 41  1  0  0  0  0
M  CHG  1   9  -1
M  END
> <s_m_source_file>
AV-unprocessed.smi

> <i_m_source_file_index>
632

> <i_lp_mmshare_version>
43012

> <i_f3d_flags>
0

> <s_epik_input>
W0NIM11DKFtDSDNdKShbQ0gzXSljMW5uYyhzMSlbTkhdQyg9TylbTkhdW0NAQEhdMltDSDJdW0NIMl1bQ0BASF0oW09IXSlbQ0gyXVtDSDJdMg==

> <s_epik_cmdline>
J2VwaWtfcHl0aG9uJywgJy1waCcsICc3LjAnLCAnLXRuJywgJzgnLCAnLW1hJywgJzIwMCcsICctbWV0YWxfYmluZGluZycsICctaW1hZScsICc8aW5maWxlLm1hZT4nLCAnLW9tYWUnLCAnPG91dGZpbGUubWFlPic=

> <r_lp_tautomer_probability>
1

> <r_epik_Ionization_Penalty>
4.62389

> <r_epik_Ionization_Penalty_Charging>
4.45204

> <r_epik_Ionization_Penalty_Neutral>
0.171842

> <r_epik_State_Penalty>
4.45172

> <r_epik_Charging_Adjusted_Penalty>
8.90376

> <i_epik_Tot_Q>
-1

> <i_epik_Tot_abs_Q>
1

> <r_epik_Metal_State_Penalty>
0.795834

> <b_epik_Metal_Only>
1

> <s_lp_Force_Field>
OPLS_2005

> <r_lp_Energy>
0.241417

> <b_lp_Chiralities_Consistent>
1

> <s_lp_Variant>
AV-unprocessed.smi:632-3

> <Gold.Version>
5.8.1

> <Gold.Id.Protein>
6NUR|6NUR_protein|mol2

> <Gold.PLP.Fitness>
41.1665

> <Gold.PLP.PLP>
-33.5876

> <Gold.PLP.part.hbond>
-3.8841

> <Gold.PLP.part.metal>
0.0000

> <Gold.PLP.part.buried>
-5.2875

> <Gold.PLP.part.nonpolar>
-24.9265

> <Gold.PLP.part.repulsive>
0.2642

> <Gold.PLP.ligand.clash>
0.0000

> <Gold.PLP.ligand.torsion>
0.3667

> <Gold.PLP.Chemscore.Hbond>
2.7625

> <Gold.PLP.Chemscore.CHOScore>
0.0000

> <Gold.PLP.Chemscore.Metal>
0.0000

> <Gold.Chemscore.Hbonds>
donor molecule, donor type, donor heavy atom, donor atom, acceptor molecule, acceptor atom, score
      L1  H    12    30       P1  7948  0.93
      L1  H    17    37       P1 10186  1.00
      P1  H 10785 10796       L1    17  0.59

> <Gold.PLP.Chemscore.Internal.Correction>
0.0248

> <Gold.Rescore>
     Score         DG    S(hbond)    S(metal)    S(lipo)     H(rot)  DE(clash)    DE(int)     intcor
     13.69     -15.26       1.81        0.00      68.59       1.67       0.07       1.50       ----

> <Gold.Chemscore.Fitness>
13.6861

> <Gold.Chemscore.DG>
-15.2631

> <Gold.Chemscore.ZeroCoef>
-5.4800

> <Gold.Chemscore.Hbond>
1.8093

> <Gold.Chemscore.Metal>
0.0000

> <Gold.Chemscore.Lipo>
68.5891

> <Gold.Chemscore.Internal_Hbond>
0.0000

> <Gold.Chemscore.DEClash>
0.0739

> <Gold.Chemscore.DEInternal>
1.5031

> <Gold.Chemscore.Rot>
1.6737

> <Gold.Chemscore.Internal.Correction>
   9.000000E+99

> <Gold.Chemscore.Hbonds>
donor molecule, donor type, donor heavy atom, donor atom, acceptor molecule, acceptor atom, score
      L1  H    12    30       P1  7948  0.58
      L1  H    17    37       P1 10186  0.99
      P1  H 10785 10796       L1    17  0.13

> <Gold.Chemscore.Hbond.Weighted>
-6.0430

> <Gold.Chemscore.Metal.Weighted>
-0.0000

> <Gold.Chemscore.Lipo.Weighted>
-8.0249

> <Gold.Chemscore.Internal_Hbond.Weighted>
0.0000

> <Gold.Chemscore.DEClash.Weighted>
0.0739

> <Gold.Chemscore.DEInternal.Weighted>
1.5031

> <Gold.Chemscore.Rot.Weighted>
4.2848

> <Gold.Chemscore.Internal.Correction.Weighted>
   9.000000E+99

> <Gold.Protein.RotatedTorsions>
[ 6907 6896 6895 6894 ] final  -43.19 input  -60.11 | X-H torsion
[ 7974 7965 7964 7962 ] final -167.58 input  175.53 | X-H torsion
[ 8008 7997 7996 7995 ] final   63.92 input   59.86 | X-H torsion
[ 10167 10162 10161 10158 ] final -177.91 input  -65.29 | X-H torsion
[ 10718 10713 10712 10709 ] final  -92.91 input   66.30 | X-H torsion
[ 10763 10752 10751 10750 ] final -106.78 input  -60.55 | X-H torsion
[ 11005 11000 10999 10996 ] final -109.60 input  -57.11 | X-H torsion

> <Gold.Protein.ActiveResidues>
 VAL166  LYS551  ARG553  GLY616  TRP617  ASP618  TYR619  PRO620  LYS621  CYS622 
 ASP623  PHE694  ASN695  SER759  ASP760  ASP761  ALA762  ILE779  LEU786  VAL792 
 PHE793  MET794  SER795  GLU796  ALA797  LYS798  CYS799  TRP800  GLU811  SER814 

> <Gold.Protein.RotatedAtoms>
  150.9468  134.8872  159.7646 H   0  0  0  0  0  0  0  0  0  0  0  0  # atno 6907 bound_to 6896
  152.5103  134.3864  159.9379 H   0  0  0  0  0  0  0  0  0  0  0  0  # atno 6908 bound_to 6896
  151.3882  133.3758  159.2752 H   0  0  0  0  0  0  0  0  0  0  0  0  # atno 6909 bound_to 6896
  144.7220  140.2497  143.6280 H   0  0  0  0  0  0  0  0  0  0  0  0  # atno 7974 bound_to 7965
  155.6379  140.3496  155.4705 H   0  0  0  0  0  0  0  0  0  0  0  0  # atno 8008 bound_to 7997
  155.9950  140.1201  157.0626 H   0  0  0  0  0  0  0  0  0  0  0  0  # atno 8009 bound_to 7997
  154.4230  140.1112  156.5604 H   0  0  0  0  0  0  0  0  0  0  0  0  # atno 8010 bound_to 7997
  139.5457  144.2242  152.0983 H   0  0  0  0  0  0  0  0  0  0  0  0  # atno 10167 bound_to 10162
  156.0007  130.5006  150.5697 H   0  0  0  0  0  0  0  0  0  0  0  0  # atno 10718 bound_to 10713
  154.8034  135.4699  154.0332 H   0  0  0  0  0  0  0  0  0  0  0  0  # atno 10763 bound_to 10752
  153.1820  135.6842  153.8473 H   0  0  0  0  0  0  0  0  0  0  0  0  # atno 10764 bound_to 10752
  153.8020  135.3228  155.3369 H   0  0  0  0  0  0  0  0  0  0  0  0  # atno 10765 bound_to 10752
  141.0838  133.9174  157.2230 H   0  0  0  0  0  0  0  0  0  0  0  0  # atno 11005 bound_to 11000
  145.8240  139.2056  143.1921 LP  0  0  0  0  0  0  0  0  0  0  0  0  # atno 17320 bound_to 7965
  146.0489  140.8089  142.9791 LP  0  0  0  0  0  0  0  0  0  0  0  0  # atno 17321 bound_to 7965
  140.1728  144.4919  150.6570 LP  0  0  0  0  0  0  0  0  0  0  0  0  # atno 17342 bound_to 10162
  140.6704  143.2284  151.5638 LP  0  0  0  0  0  0  0  0  0  0  0  0  # atno 17343 bound_to 10162
  157.3594  131.0747  151.1649 LP  0  0  0  0  0  0  0  0  0  0  0  0  # atno 17370 bound_to 10713
  157.2439  130.6582  149.5902 LP  0  0  0  0  0  0  0  0  0  0  0  0  # atno 17371 bound_to 10713
  139.9654  135.0143  156.9374 LP  0  0  0  0  0  0  0  0  0  0  0  0  # atno 17394 bound_to 11000
  140.5408  134.0721  155.7341 LP  0  0  0  0  0  0  0  0  0  0  0  0  # atno 17395 bound_to 11000

$$$$
