AV-unprocessed.smi:1632|AV-procd|sdf|6531|dock1
  -GOLD-   22720 7213D 1   1.00000     0.00000
 Structure written by MMmdl.
 43 45  0  0  0  0  0  0  0  0  2 V2000
  150.8289  135.0285  155.1340 O   0  0  0  0  0  0  0  0  0  0  0  0
  150.6553  136.0278  156.1148 C   0  0  0  0  0  0  0  0  0  0  0  0
  151.8019  137.0426  156.0278 C   0  0  0  0  0  0  0  0  0  0  0  0
  151.8615  137.7437  154.6620 C   0  0  0  0  0  0  0  0  0  0  0  0
  150.7058  138.6731  154.4539 C   0  0  0  0  0  0  0  0  0  0  0  0
  149.6429  138.4489  153.6292 N   0  3  0  0  0  0  0  0  0  0  0  0
  148.7567  139.5241  153.6919 C   0  0  0  0  0  0  0  0  0  0  0  0
  147.5532  139.7537  153.0319 C   0  0  0  0  0  0  0  0  0  0  0  0
  146.8913  140.9638  153.3265 C   0  0  0  0  0  0  0  0  0  0  0  0
  147.4275  141.8893  154.2453 C   0  0  0  0  0  0  0  0  0  0  0  0
  148.6485  141.6448  154.9080 C   0  0  0  0  0  0  0  0  0  0  0  0
  149.2966  140.4462  154.6104 C   0  0  0  0  0  0  0  0  0  0  0  0
  150.4946  139.8793  155.0599 N   0  0  0  0  0  0  0  0  0  0  0  0
  151.3031  140.6180  156.0436 C   0  0  0  0  0  0  0  0  0  0  0  0
  150.4701  141.1238  157.2388 C   0  0  1  0  0  0  0  0  0  0  0  0
  149.8026  140.0150  157.8051 O   0  0  0  0  0  0  0  0  0  0  0  0
  151.3164  141.8750  158.2606 C   0  0  0  0  0  0  0  0  0  0  0  0
  151.2007  143.2776  158.3888 C   0  0  0  0  0  0  0  0  0  0  0  0
  151.9667  143.9715  159.3450 C   0  0  0  0  0  0  0  0  0  0  0  0
  152.8562  143.2687  160.1790 C   0  0  0  0  0  0  0  0  0  0  0  0
  152.9771  141.8715  160.0575 C   0  0  0  0  0  0  0  0  0  0  0  0
  152.2079  141.1745  159.1052 C   0  0  0  0  0  0  0  0  0  0  0  0
  152.3233  139.8273  159.0164 F   0  0  0  0  0  0  0  0  0  0  0  0
  150.0747  134.4587  155.1469 H   0  0  0  0  0  0  0  0  0  0  0  0
  149.6935  136.5174  155.9596 H   0  0  0  0  0  0  0  0  0  0  0  0
  150.6302  135.5578  157.0984 H   0  0  0  0  0  0  0  0  0  0  0  0
  151.6752  137.7891  156.8122 H   0  0  0  0  0  0  0  0  0  0  0  0
  152.7501  136.5415  156.2278 H   0  0  0  0  0  0  0  0  0  0  0  0
  152.7885  138.3100  154.5688 H   0  0  0  0  0  0  0  0  0  0  0  0
  151.8736  136.9941  153.8720 H   0  0  0  0  0  0  0  0  0  0  0  0
  147.1406  139.0463  152.3277 H   0  0  0  0  0  0  0  0  0  0  0  0
  145.9535  141.1865  152.8383 H   0  0  0  0  0  0  0  0  0  0  0  0
  146.8923  142.8061  154.4462 H   0  0  0  0  0  0  0  0  0  0  0  0
  149.0521  142.3607  155.6086 H   0  0  0  0  0  0  0  0  0  0  0  0
  152.1044  139.9598  156.3821 H   0  0  0  0  0  0  0  0  0  0  0  0
  151.7945  141.4465  155.5337 H   0  0  0  0  0  0  0  0  0  0  0  0
  149.6857  141.7868  156.8732 H   0  0  0  0  0  0  0  0  0  0  0  0
  150.3842  139.5983  158.4230 H   0  0  0  0  0  0  0  0  0  0  0  0
  150.5165  143.8267  157.7587 H   0  0  0  0  0  0  0  0  0  0  0  0
  151.8700  145.0431  159.4397 H   0  0  0  0  0  0  0  0  0  0  0  0
  153.4428  143.8001  160.9139 H   0  0  0  0  0  0  0  0  0  0  0  0
  153.6558  141.3320  160.7015 H   0  0  0  0  0  0  0  0  0  0  0  0
  149.5384  137.6197  153.0585 H   0  0  0  0  0  0  0  0  0  0  0  0
  1  2  1  0  0  0  0
  1 24  1  0  0  0  0
  2  3  1  0  0  0  0
  2 25  1  0  0  0  0
  2 26  1  0  0  0  0
  3  4  1  0  0  0  0
  3 27  1  0  0  0  0
  3 28  1  0  0  0  0
  4  5  1  0  0  0  0
  4 29  1  0  0  0  0
  4 30  1  0  0  0  0
  5 13  1  0  0  0  0
  5  6  2  0  0  0  0
  6  7  1  0  0  0  0
  6 43  1  0  0  0  0
  7 12  2  0  0  0  0
  7  8  1  0  0  0  0
  8  9  2  0  0  0  0
  8 31  1  0  0  0  0
  9 10  1  0  0  0  0
  9 32  1  0  0  0  0
 10 11  2  0  0  0  0
 10 33  1  0  0  0  0
 11 12  1  0  0  0  0
 11 34  1  0  0  0  0
 12 13  1  0  0  0  0
 13 14  1  0  0  0  0
 14 15  1  0  0  0  0
 14 35  1  0  0  0  0
 14 36  1  0  0  0  0
 15 16  1  0  0  0  0
 15 17  1  0  0  0  0
 15 37  1  0  0  0  0
 16 38  1  0  0  0  0
 17 22  1  0  0  0  0
 17 18  2  0  0  0  0
 18 19  1  0  0  0  0
 18 39  1  0  0  0  0
 19 20  2  0  0  0  0
 19 40  1  0  0  0  0
 20 21  1  0  0  0  0
 20 41  1  0  0  0  0
 21 22  2  0  0  0  0
 21 42  1  0  0  0  0
 22 23  1  0  0  0  0
M  CHG  1   6   1
M  END
> <s_m_source_file>
AV-unprocessed.smi

> <i_m_source_file_index>
1632

> <i_lp_mmshare_version>
43012

> <i_f3d_flags>
0

> <s_epik_input>
W09IXVtDSDJdW0NIMl1bQ0gyXWMobjEpbihjKGMxMilbY0hdW2NIXVtjSF1bY0hdMilbQ0gyXVtDQEhdKFtPSF0pYzNbY0hdW2NIXVtjSF1bY0hdYzNG

> <s_epik_cmdline>
J2VwaWtfcHl0aG9uJywgJy1waCcsICc3LjAnLCAnLXRuJywgJzgnLCAnLW1hJywgJzIwMCcsICctbWV0YWxfYmluZGluZycsICctaW1hZScsICc8aW5maWxlLm1hZT4nLCAnLW9tYWUnLCAnPG91dGZpbGUubWFlPic=

> <r_epik_Ionization_Penalty>
0.786441

> <r_epik_Ionization_Penalty_Charging>
0.786439

> <r_epik_Ionization_Penalty_Neutral>
1.50852e-06

> <r_epik_State_Penalty>
0.816472

> <r_epik_Charging_Adjusted_Penalty>
1.60291

> <i_epik_Tot_Q>
1

> <i_epik_Tot_abs_Q>
1

> <r_epik_Metal_State_Penalty>
4.73733

> <b_epik_Metal_Only>
0

> <s_lp_Force_Field>
OPLS_2005

> <r_lp_Energy>
15.9798

> <b_lp_Chiralities_Consistent>
1

> <s_lp_Variant>
AV-unprocessed.smi:1632-4

> <Gold.Version>
5.8.1

> <Gold.Id.Protein>
6NUR|6NUR_protein|mol2

> <Gold.PLP.Fitness>
58.3570

> <Gold.PLP.PLP>
-50.2768

> <Gold.PLP.part.hbond>
-3.0000

> <Gold.PLP.part.metal>
0.0000

> <Gold.PLP.part.buried>
2.9967

> <Gold.PLP.part.nonpolar>
-50.3351

> <Gold.PLP.part.repulsive>
0.0743

> <Gold.PLP.ligand.clash>
0.0000

> <Gold.PLP.ligand.torsion>
0.5400

> <Gold.PLP.Chemscore.Hbond>
2.9913

> <Gold.PLP.Chemscore.CHOScore>
0.0000

> <Gold.PLP.Chemscore.Metal>
0.0000

> <Gold.Chemscore.Hbonds>
donor molecule, donor type, donor heavy atom, donor atom, acceptor molecule, acceptor atom, score
      L1  H     6    43       P1  7948  2.00
      P1  H 10752 10764       L1     1  0.38

> <Gold.PLP.Chemscore.Internal.Correction>
0.1865

> <Gold.Rescore>
     Score         DG    S(hbond)    S(metal)    S(lipo)     H(rot)  DE(clash)    DE(int)     intcor
     15.35     -17.30       1.34        0.00     131.89       3.16       0.38       1.57       ----

> <Gold.Chemscore.Fitness>
15.3543

> <Gold.Chemscore.DG>
-17.2989

> <Gold.Chemscore.ZeroCoef>
-5.4800

> <Gold.Chemscore.Hbond>
1.3407

> <Gold.Chemscore.Metal>
0.0000

> <Gold.Chemscore.Lipo>
131.8938

> <Gold.Chemscore.Internal_Hbond>
0.0000

> <Gold.Chemscore.DEClash>
0.3755

> <Gold.Chemscore.DEInternal>
1.5690

> <Gold.Chemscore.Rot>
3.1604

> <Gold.Chemscore.Internal.Correction>
   9.000000E+99

> <Gold.Chemscore.Hbonds>
donor molecule, donor type, donor heavy atom, donor atom, acceptor molecule, acceptor atom, score
      L1  H     6    43       P1  7948  0.82
      P1  H 10752 10764       L1     1  0.05

> <Gold.Chemscore.Hbond.Weighted>
-4.4780

> <Gold.Chemscore.Metal.Weighted>
-0.0000

> <Gold.Chemscore.Lipo.Weighted>
-15.4316

> <Gold.Chemscore.Internal_Hbond.Weighted>
0.0000

> <Gold.Chemscore.DEClash.Weighted>
0.3755

> <Gold.Chemscore.DEInternal.Weighted>
1.5690

> <Gold.Chemscore.Rot.Weighted>
8.0907

> <Gold.Chemscore.Internal.Correction.Weighted>
   9.000000E+99

> <Gold.Protein.RotatedTorsions>
[ 6907 6896 6895 6894 ] final -130.85 input  -60.11 | X-H torsion
[ 7974 7965 7964 7962 ] final   66.07 input  175.53 | X-H torsion
[ 8008 7997 7996 7995 ] final   94.48 input   59.86 | X-H torsion
[ 10167 10162 10161 10158 ] final  123.82 input  -65.29 | X-H torsion
[ 10718 10713 10712 10709 ] final   96.27 input   66.30 | X-H torsion
[ 10763 10752 10751 10750 ] final  -55.18 input  -60.55 | X-H torsion
[ 11005 11000 10999 10996 ] final   47.16 input  -57.11 | X-H torsion

> <Gold.Protein.ActiveResidues>
 VAL166  LYS551  ARG553  GLY616  TRP617  ASP618  TYR619  PRO620  LYS621  CYS622 
 ASP623  PHE694  ASN695  SER759  ASP760  ASP761  ALA762  ILE779  LEU786  VAL792 
 PHE793  MET794  SER795  GLU796  ALA797  LYS798  CYS799  TRP800  GLU811  SER814 

> <Gold.Protein.RotatedAtoms>
  150.9443  133.6620  159.2784 H   0  0  0  0  0  0  0  0  0  0  0  0  # atno 6907 bound_to 6896
  151.3999  135.0968  159.9562 H   0  0  0  0  0  0  0  0  0  0  0  0  # atno 6908 bound_to 6896
  152.5083  133.8940  159.7462 H   0  0  0  0  0  0  0  0  0  0  0  0  # atno 6909 bound_to 6896
  145.8310  139.3139  143.0987 H   0  0  0  0  0  0  0  0  0  0  0  0  # atno 7974 bound_to 7965
  156.0583  140.3299  155.7432 H   0  0  0  0  0  0  0  0  0  0  0  0  # atno 8008 bound_to 7997
  155.5494  140.0609  157.2871 H   0  0  0  0  0  0  0  0  0  0  0  0  # atno 8009 bound_to 7997
  154.4469  140.1897  156.0659 H   0  0  0  0  0  0  0  0  0  0  0  0  # atno 8010 bound_to 7997
  139.5777  144.6971  151.3610 H   0  0  0  0  0  0  0  0  0  0  0  0  # atno 10167 bound_to 10162
  157.6929  131.0573  150.4466 H   0  0  0  0  0  0  0  0  0  0  0  0  # atno 10718 bound_to 10713
  154.1867  135.6434  153.5048 H   0  0  0  0  0  0  0  0  0  0  0  0  # atno 10763 bound_to 10752
  153.0045  135.5419  154.6458 H   0  0  0  0  0  0  0  0  0  0  0  0  # atno 10764 bound_to 10752
  154.5836  135.2927  155.0680 H   0  0  0  0  0  0  0  0  0  0  0  0  # atno 10765 bound_to 10752
  140.1304  134.4713  155.8526 H   0  0  0  0  0  0  0  0  0  0  0  0  # atno 11005 bound_to 11000
  145.9571  140.8864  143.0229 LP  0  0  0  0  0  0  0  0  0  0  0  0  # atno 17320 bound_to 7965
  144.6740  140.1761  143.7410 LP  0  0  0  0  0  0  0  0  0  0  0  0  # atno 17321 bound_to 7965
  140.7058  143.7517  150.7480 LP  0  0  0  0  0  0  0  0  0  0  0  0  # atno 17342 bound_to 10162
  140.1041  143.4760  152.2408 LP  0  0  0  0  0  0  0  0  0  0  0  0  # atno 17343 bound_to 10162
  156.4821  130.4076  149.6455 LP  0  0  0  0  0  0  0  0  0  0  0  0  # atno 17370 bound_to 10713
  156.3497  130.7425  151.2383 LP  0  0  0  0  0  0  0  0  0  0  0  0  # atno 17371 bound_to 10713
  141.2169  133.6794  156.7059 LP  0  0  0  0  0  0  0  0  0  0  0  0  # atno 17394 bound_to 11000
  140.2849  134.8287  157.3966 LP  0  0  0  0  0  0  0  0  0  0  0  0  # atno 17395 bound_to 11000

$$$$
