AV-unprocessed.smi:3303|AV-procd|sdf|12676|dock3
  -GOLD-   2272019 13D 1   1.00000     0.00000
 Structure written by MMmdl.
 44 45  0  0  0  0  0  0  0  0  2 V2000
  151.4664  138.2521  154.8531 C   0  0  0  0  0  0  0  0  0  0  0  0
  150.4333  139.2976  154.4025 C   0  0  1  0  0  0  0  0  0  0  0  0
  149.0192  138.6999  154.2730 C   0  0  0  0  0  0  0  0  0  0  0  0
  148.0802  139.6789  153.7177 N   0  0  0  0  0  0  0  0  0  0  0  0
  146.7989  138.9988  153.5456 C   0  0  0  0  0  0  0  0  0  0  0  0
  147.9651  140.8574  154.5953 C   0  0  2  0  0  0  0  0  0  0  0  0
  146.9679  141.8943  154.0400 C   0  0  0  0  0  0  0  0  0  0  0  0
  149.3520  141.5215  154.7633 C   0  0  0  0  0  0  0  0  0  0  0  0
  150.4139  140.5504  155.2987 C   0  0  1  0  0  0  0  0  0  0  0  0
  150.1378  140.2132  156.7153 N   0  3  0  0  0  0  0  0  0  0  0  0
  149.9639  141.3753  157.6092 C   0  0  0  0  0  0  0  0  0  0  0  0
  151.0387  142.4380  157.3448 C   0  0  0  0  0  0  0  0  0  0  0  0
  151.4470  143.1678  158.6102 C   0  0  0  0  0  0  0  0  0  0  0  0
  151.4056  144.5768  158.6761 C   0  0  0  0  0  0  0  0  0  0  0  0
  151.7905  145.2034  159.8774 C   0  0  0  0  0  0  0  0  0  0  0  0
  152.1990  144.4010  160.9602 C   0  0  0  0  0  0  0  0  0  0  0  0
  152.2029  143.0017  160.7938 C   0  0  0  0  0  0  0  0  0  0  0  0
  151.8338  142.3908  159.6467 N   0  0  0  0  0  0  0  0  0  0  0  0
  151.2208  137.8343  155.8297 H   0  0  0  0  0  0  0  0  0  0  0  0
  152.4636  138.6883  154.9171 H   0  0  0  0  0  0  0  0  0  0  0  0
  151.5160  137.4237  154.1459 H   0  0  0  0  0  0  0  0  0  0  0  0
  150.7382  139.6191  153.4047 H   0  0  0  0  0  0  0  0  0  0  0  0
  149.0624  137.8329  153.6120 H   0  0  0  0  0  0  0  0  0  0  0  0
  148.6634  138.3417  155.2404 H   0  0  0  0  0  0  0  0  0  0  0  0
  146.0842  139.6222  153.0097 H   0  0  0  0  0  0  0  0  0  0  0  0
  146.3638  138.7216  154.5071 H   0  0  0  0  0  0  0  0  0  0  0  0
  146.9210  138.0904  152.9545 H   0  0  0  0  0  0  0  0  0  0  0  0
  147.6095  140.5313  155.5740 H   0  0  0  0  0  0  0  0  0  0  0  0
  146.9956  142.8125  154.6275 H   0  0  0  0  0  0  0  0  0  0  0  0
  145.9388  141.5378  154.0756 H   0  0  0  0  0  0  0  0  0  0  0  0
  147.2002  142.1587  153.0076 H   0  0  0  0  0  0  0  0  0  0  0  0
  149.6818  141.9114  153.7988 H   0  0  0  0  0  0  0  0  0  0  0  0
  149.2787  142.3855  155.4255 H   0  0  0  0  0  0  0  0  0  0  0  0
  151.3866  141.0410  155.2320 H   0  0  0  0  0  0  0  0  0  0  0  0
  149.2969  139.6548  156.7506 H   0  0  0  0  0  0  0  0  0  0  0  0
  148.9730  141.8045  157.4534 H   0  0  0  0  0  0  0  0  0  0  0  0
  150.0135  141.0382  158.6457 H   0  0  0  0  0  0  0  0  0  0  0  0
  151.9230  141.9751  156.9042 H   0  0  0  0  0  0  0  0  0  0  0  0
  150.6754  143.1625  156.6145 H   0  0  0  0  0  0  0  0  0  0  0  0
  151.0871  145.1664  157.8288 H   0  0  0  0  0  0  0  0  0  0  0  0
  151.7737  146.2796  159.9665 H   0  0  0  0  0  0  0  0  0  0  0  0
  152.5026  144.8469  161.8960 H   0  0  0  0  0  0  0  0  0  0  0  0
  152.5100  142.3560  161.6031 H   0  0  0  0  0  0  0  0  0  0  0  0
  150.9061  139.6563  157.0608 H   0  0  0  0  0  0  0  0  0  0  0  0
  1  2  1  0  0  0  0
  1 19  1  0  0  0  0
  1 20  1  0  0  0  0
  1 21  1  0  0  0  0
  2  9  1  0  0  0  0
  2  3  1  0  0  0  0
  2 22  1  0  0  0  0
  3  4  1  0  0  0  0
  3 23  1  0  0  0  0
  3 24  1  0  0  0  0
  4  5  1  0  0  0  0
  4  6  1  0  0  0  0
  5 25  1  0  0  0  0
  5 26  1  0  0  0  0
  5 27  1  0  0  0  0
  6  7  1  0  0  0  0
  6  8  1  0  0  0  0
  6 28  1  0  0  0  0
  7 29  1  0  0  0  0
  7 30  1  0  0  0  0
  7 31  1  0  0  0  0
  8  9  1  0  0  0  0
  8 32  1  0  0  0  0
  8 33  1  0  0  0  0
  9 10  1  0  0  0  0
  9 34  1  0  0  0  0
 10 11  1  0  0  0  0
 10 35  1  0  0  0  0
 10 44  1  0  0  0  0
 11 12  1  0  0  0  0
 11 36  1  0  0  0  0
 11 37  1  0  0  0  0
 12 13  1  0  0  0  0
 12 38  1  0  0  0  0
 12 39  1  0  0  0  0
 13 18  1  0  0  0  0
 13 14  2  0  0  0  0
 14 15  1  0  0  0  0
 14 40  1  0  0  0  0
 15 16  2  0  0  0  0
 15 41  1  0  0  0  0
 16 17  1  0  0  0  0
 16 42  1  0  0  0  0
 17 18  2  0  0  0  0
 17 43  1  0  0  0  0
M  CHG  1  10   1
M  END
> <s_m_source_file>
AV-unprocessed.smi

> <i_m_source_file_index>
3303

> <i_lp_mmshare_version>
43012

> <i_f3d_flags>
0

> <s_epik_input>
W0NIM11bQ0BASF0xW0NIMl1OKFtDSDNdKVtDQEBIXShbQ0gzXSlbQ0gyXVtDQEhdMVtOSF1bQ0gyXVtDSDJdYzJbY0hdW2NIXVtjSF1bY0hdbjI=

> <s_epik_cmdline>
J2VwaWtfcHl0aG9uJywgJy1waCcsICc3LjAnLCAnLXRuJywgJzgnLCAnLW1hJywgJzIwMCcsICctbWV0YWxfYmluZGluZycsICctaW1hZScsICc8aW5maWxlLm1hZT4nLCAnLW9tYWUnLCAnPG91dGZpbGUubWFlPic=

> <r_epik_Ionization_Penalty>
1.37325

> <r_epik_Ionization_Penalty_Charging>
0.000251572

> <r_epik_Ionization_Penalty_Neutral>
1.373

> <r_epik_State_Penalty>
1.46343

> <r_epik_Charging_Adjusted_Penalty>
1.46368

> <i_epik_Tot_Q>
1

> <i_epik_Tot_abs_Q>
1

> <r_epik_Metal_State_Penalty>
1.46331

> <b_epik_Metal_Only>
0

> <s_lp_Force_Field>
OPLS_2005

> <r_lp_Energy>
25.9316

> <b_lp_Chiralities_Consistent>
1

> <s_lp_Variant>
AV-unprocessed.smi:3303-20

> <Gold.Version>
5.8.1

> <Gold.Id.Protein>
6NUR|6NUR_protein|mol2

> <Gold.PLP.Fitness>
41.6860

> <Gold.PLP.PLP>
-42.3733

> <Gold.PLP.part.hbond>
0.0000

> <Gold.PLP.part.metal>
0.0000

> <Gold.PLP.part.buried>
-5.2921

> <Gold.PLP.part.nonpolar>
-38.4394

> <Gold.PLP.part.repulsive>
1.0208

> <Gold.PLP.ligand.clash>
0.0000

> <Gold.PLP.ligand.torsion>
0.3484

> <Gold.PLP.Chemscore.Hbond>
0.0000

> <Gold.PLP.Chemscore.CHOScore>
0.0000

> <Gold.PLP.Chemscore.Metal>
0.0000

> <Gold.PLP.Chemscore.Internal.Correction>
0.0095

> <Gold.Rescore>
     Score         DG    S(hbond)    S(metal)    S(lipo)     H(rot)  DE(clash)    DE(int)     intcor
     16.18     -16.77       0.00        0.00     125.63       1.33       0.20       0.40       ----

> <Gold.Chemscore.Fitness>
16.1787

> <Gold.Chemscore.DG>
-16.7744

> <Gold.Chemscore.ZeroCoef>
-5.4800

> <Gold.Chemscore.Hbond>
0.0000

> <Gold.Chemscore.Metal>
0.0000

> <Gold.Chemscore.Lipo>
125.6298

> <Gold.Chemscore.Internal_Hbond>
0.0000

> <Gold.Chemscore.DEClash>
0.1979

> <Gold.Chemscore.DEInternal>
0.3977

> <Gold.Chemscore.Rot>
1.3298

> <Gold.Chemscore.Internal.Correction>
   9.000000E+99

> <Gold.Chemscore.Hbond.Weighted>
-0.0000

> <Gold.Chemscore.Metal.Weighted>
-0.0000

> <Gold.Chemscore.Lipo.Weighted>
-14.6987

> <Gold.Chemscore.Internal_Hbond.Weighted>
0.0000

> <Gold.Chemscore.DEClash.Weighted>
0.1979

> <Gold.Chemscore.DEInternal.Weighted>
0.3977

> <Gold.Chemscore.Rot.Weighted>
3.4043

> <Gold.Chemscore.Internal.Correction.Weighted>
   9.000000E+99

> <Gold.Protein.RotatedTorsions>
[ 6907 6896 6895 6894 ] final   22.86 input  -60.11 | X-H torsion
[ 7974 7965 7964 7962 ] final -177.44 input  175.53 | X-H torsion
[ 8008 7997 7996 7995 ] final -101.86 input   59.86 | X-H torsion
[ 10167 10162 10161 10158 ] final  -23.10 input  -65.29 | X-H torsion
[ 10718 10713 10712 10709 ] final -106.67 input   66.30 | X-H torsion
[ 10763 10752 10751 10750 ] final -146.34 input  -60.55 | X-H torsion
[ 11005 11000 10999 10996 ] final -156.95 input  -57.11 | X-H torsion

> <Gold.Protein.ActiveResidues>
 VAL166  LYS551  ARG553  GLY616  TRP617  ASP618  TYR619  PRO620  LYS621  CYS622 
 ASP623  PHE694  ASN695  SER759  ASP760  ASP761  ALA762  ILE779  LEU786  VAL792 
 PHE793  MET794  SER795  GLU796  ALA797  LYS798  CYS799  TRP800  GLU811  SER814 

> <Gold.Protein.RotatedAtoms>
  151.9335  135.0246  160.0530 H   0  0  0  0  0  0  0  0  0  0  0  0  # atno 6907 bound_to 6896
  152.2098  133.4898  159.5112 H   0  0  0  0  0  0  0  0  0  0  0  0  # atno 6908 bound_to 6896
  150.6973  134.1399  159.4144 H   0  0  0  0  0  0  0  0  0  0  0  0  # atno 6909 bound_to 6896
  144.7128  140.1019  143.6416 H   0  0  0  0  0  0  0  0  0  0  0  0  # atno 7974 bound_to 7965
  154.8485  140.0432  157.1588 H   0  0  0  0  0  0  0  0  0  0  0  0  # atno 8008 bound_to 7997
  154.8969  140.2994  155.5319 H   0  0  0  0  0  0  0  0  0  0  0  0  # atno 8009 bound_to 7997
  156.2995  140.2383  156.3991 H   0  0  0  0  0  0  0  0  0  0  0  0  # atno 8010 bound_to 7997
  140.7287  143.4474  151.0567 H   0  0  0  0  0  0  0  0  0  0  0  0  # atno 10167 bound_to 10162
  156.0401  130.5624  150.7714 H   0  0  0  0  0  0  0  0  0  0  0  0  # atno 10718 bound_to 10713
  154.8341  135.3389  154.6645 H   0  0  0  0  0  0  0  0  0  0  0  0  # atno 10763 bound_to 10752
  153.7262  135.6955  153.5005 H   0  0  0  0  0  0  0  0  0  0  0  0  # atno 10764 bound_to 10752
  153.2345  135.4405  155.0584 H   0  0  0  0  0  0  0  0  0  0  0  0  # atno 10765 bound_to 10752
  140.6699  134.4258  157.5232 H   0  0  0  0  0  0  0  0  0  0  0  0  # atno 11005 bound_to 11000
  145.9531  139.2747  143.1200 LP  0  0  0  0  0  0  0  0  0  0  0  0  # atno 17320 bound_to 7965
  145.9302  140.9054  143.0360 LP  0  0  0  0  0  0  0  0  0  0  0  0  # atno 17321 bound_to 7965
  139.8146  143.7903  152.3173 LP  0  0  0  0  0  0  0  0  0  0  0  0  # atno 17342 bound_to 10162
  139.7965  144.7391  150.9884 LP  0  0  0  0  0  0  0  0  0  0  0  0  # atno 17343 bound_to 10162
  157.5207  131.0931  151.0082 LP  0  0  0  0  0  0  0  0  0  0  0  0  # atno 17370 bound_to 10713
  157.0414  130.5750  149.5356 LP  0  0  0  0  0  0  0  0  0  0  0  0  # atno 17371 bound_to 10713
  139.8985  134.8612  156.2000 LP  0  0  0  0  0  0  0  0  0  0  0  0  # atno 17394 bound_to 11000
  141.0400  133.6943  156.1581 LP  0  0  0  0  0  0  0  0  0  0  0  0  # atno 17395 bound_to 11000

$$$$
