AV-unprocessed.smi:1753|AV-procd|sdf|7062|dock7
  -GOLD-   22720 8283D 1   1.00000     0.00000
 Structure written by MMmdl.
 37 38  0  0  0  0  0  0  0  0  1 V2000
  153.9476  141.6992  160.3784 C   0  0  0  0  0  0  0  0  0  0  0  0
  152.9104  142.3417  159.5057 C   0  0  0  0  0  0  0  0  0  0  0  0
  152.0965  141.7259  158.5108 C   0  0  0  0  0  0  0  0  0  0  0  0
  151.3496  142.7724  158.0430 C   0  0  0  0  0  0  0  0  0  0  0  0
  150.3960  142.7770  157.0741 N   0  0  0  0  0  0  0  0  0  0  0  0
  149.7354  141.7350  156.5401 C   0  0  0  0  0  0  0  0  0  0  0  0
  149.8805  140.5554  156.8611 O   0  0  0  0  0  0  0  0  0  0  0  0
  148.8803  142.1403  155.5905 N   0  0  0  0  0  0  0  0  0  0  0  0
  148.0192  141.2604  154.8068 C   0  0  0  0  0  0  0  0  0  0  0  0
  146.5800  141.8003  154.6827 C   0  0  2  0  0  0  0  0  0  0  0  0
  146.4914  143.1611  153.9600 C   0  0  0  0  0  0  0  0  0  0  0  0
  145.0820  143.7268  154.1563 C   0  0  0  0  0  0  0  0  0  0  0  0
  144.5730  143.2023  155.8345 S   0  0  0  0  0  0  0  0  0  0  0  0
  144.8052  144.3027  156.7822 O   0  0  0  0  0  0  0  0  0  0  0  0
  143.2642  142.5363  155.7533 O   0  0  0  0  0  0  0  0  0  0  0  0
  145.8922  141.9466  156.0497 C   0  0  0  0  0  0  0  0  0  0  0  0
  151.7085  143.9146  158.7234 N   0  0  0  0  0  0  0  0  0  0  0  0
  151.2039  145.2666  158.5832 C   0  0  0  0  0  0  0  0  0  0  0  0
  152.6747  143.6434  159.6272 N   0  0  0  0  0  0  0  0  0  0  0  0
  154.0604  140.6409  160.1424 H   0  0  0  0  0  0  0  0  0  0  0  0
  153.6767  141.7768  161.4315 H   0  0  0  0  0  0  0  0  0  0  0  0
  154.9206  142.1733  160.2471 H   0  0  0  0  0  0  0  0  0  0  0  0
  152.0812  140.6897  158.2083 H   0  0  0  0  0  0  0  0  0  0  0  0
  150.1619  143.6877  156.7073 H   0  0  0  0  0  0  0  0  0  0  0  0
  148.8213  143.1284  155.3921 H   0  0  0  0  0  0  0  0  0  0  0  0
  148.4528  141.1088  153.8168 H   0  0  0  0  0  0  0  0  0  0  0  0
  148.0107  140.2833  155.2903 H   0  0  0  0  0  0  0  0  0  0  0  0
  145.9883  141.0897  154.1034 H   0  0  0  0  0  0  0  0  0  0  0  0
  147.2133  143.8495  154.4013 H   0  0  0  0  0  0  0  0  0  0  0  0
  146.7363  143.0770  152.9007 H   0  0  0  0  0  0  0  0  0  0  0  0
  145.0376  144.8124  154.0679 H   0  0  0  0  0  0  0  0  0  0  0  0
  144.3870  143.2874  153.4403 H   0  0  0  0  0  0  0  0  0  0  0  0
  145.4640  141.0110  156.4096 H   0  0  0  0  0  0  0  0  0  0  0  0
  146.5853  142.3218  156.8032 H   0  0  0  0  0  0  0  0  0  0  0  0
  150.1226  145.2708  158.7238 H   0  0  0  0  0  0  0  0  0  0  0  0
  151.4360  145.6418  157.5862 H   0  0  0  0  0  0  0  0  0  0  0  0
  151.6587  145.9255  159.3247 H   0  0  0  0  0  0  0  0  0  0  0  0
  1  2  1  0  0  0  0
  1 20  1  0  0  0  0
  1 21  1  0  0  0  0
  1 22  1  0  0  0  0
  2 19  2  0  0  0  0
  2  3  1  0  0  0  0
  3  4  2  0  0  0  0
  3 23  1  0  0  0  0
  4  5  1  0  0  0  0
  4 17  1  0  0  0  0
  5  6  1  0  0  0  0
  5 24  1  0  0  0  0
  6  7  2  0  0  0  0
  6  8  1  0  0  0  0
  8  9  1  0  0  0  0
  8 25  1  0  0  0  0
  9 10  1  0  0  0  0
  9 26  1  0  0  0  0
  9 27  1  0  0  0  0
 10 16  1  0  0  0  0
 10 11  1  0  0  0  0
 10 28  1  0  0  0  0
 11 12  1  0  0  0  0
 11 29  1  0  0  0  0
 11 30  1  0  0  0  0
 12 13  1  0  0  0  0
 12 31  1  0  0  0  0
 12 32  1  0  0  0  0
 13 14  2  0  0  0  0
 13 15  2  0  0  0  0
 13 16  1  0  0  0  0
 16 33  1  0  0  0  0
 16 34  1  0  0  0  0
 17 18  1  0  0  0  0
 17 19  1  0  0  0  0
 18 35  1  0  0  0  0
 18 36  1  0  0  0  0
 18 37  1  0  0  0  0
M  END
> <s_m_source_file>
AV-unprocessed.smi

> <i_m_source_file_index>
1753

> <i_lp_mmshare_version>
43012

> <i_f3d_flags>
0

> <s_epik_input>
W0NIM11jMVtjSF1jKG4objEpW0NIM10pW05IXUMoPU8pW05IXVtDSDJdW0NAQEhdKFtDSDJdMilbQ0gyXVtDSDJdUzIoPU8pPU8=

> <s_epik_cmdline>
J2VwaWtfcHl0aG9uJywgJy1waCcsICc3LjAnLCAnLXRuJywgJzgnLCAnLW1hJywgJzIwMCcsICctbWV0YWxfYmluZGluZycsICctaW1hZScsICc8aW5maWxlLm1hZT4nLCAnLW9tYWUnLCAnPG91dGZpbGUubWFlPic=

> <r_lp_tautomer_probability>
1

> <r_epik_Ionization_Penalty>
9.06651e-05

> <r_epik_Ionization_Penalty_Charging>
0

> <r_epik_Ionization_Penalty_Neutral>
9.06651e-05

> <r_epik_State_Penalty>
-0

> <r_epik_Charging_Adjusted_Penalty>
0

> <i_epik_Tot_Q>
0

> <i_epik_Tot_abs_Q>
0

> <r_epik_Metal_State_Penalty>
-0

> <b_epik_Metal_Only>
0

> <s_lp_Force_Field>
OPLS_2005

> <r_lp_Energy>
5.34898

> <b_lp_Chiralities_Consistent>
1

> <s_lp_Variant>
AV-unprocessed.smi:1753-1

> <Gold.Version>
5.8.1

> <Gold.Id.Protein>
6NUR|6NUR_protein|mol2

> <Gold.PLP.Fitness>
42.6978

> <Gold.PLP.PLP>
-37.1755

> <Gold.PLP.part.hbond>
-2.0000

> <Gold.PLP.part.metal>
0.0000

> <Gold.PLP.part.buried>
-5.4883

> <Gold.PLP.part.nonpolar>
-29.5588

> <Gold.PLP.part.repulsive>
0.4313

> <Gold.PLP.ligand.clash>
0.0000

> <Gold.PLP.ligand.torsion>
0.1572

> <Gold.PLP.Chemscore.Hbond>
1.9440

> <Gold.PLP.Chemscore.CHOScore>
0.0000

> <Gold.PLP.Chemscore.Metal>
0.0000

> <Gold.Chemscore.Hbonds>
donor molecule, donor type, donor heavy atom, donor atom, acceptor molecule, acceptor atom, score
      L1  H     5    24       P1  8028  0.93
      L1  H     8    25       P1  8028  1.00

> <Gold.PLP.Chemscore.Internal.Correction>
0.0047

> <Gold.Rescore>
     Score         DG    S(hbond)    S(metal)    S(lipo)     H(rot)  DE(clash)    DE(int)     intcor
     15.14     -16.46       1.96        0.00      66.48       1.31       0.08       1.24       ----

> <Gold.Chemscore.Fitness>
15.1367

> <Gold.Chemscore.DG>
-16.4580

> <Gold.Chemscore.ZeroCoef>
-5.4800

> <Gold.Chemscore.Hbond>
1.9605

> <Gold.Chemscore.Metal>
0.0000

> <Gold.Chemscore.Lipo>
66.4813

> <Gold.Chemscore.Internal_Hbond>
0.0000

> <Gold.Chemscore.DEClash>
0.0782

> <Gold.Chemscore.DEInternal>
1.2431

> <Gold.Chemscore.Rot>
1.3080

> <Gold.Chemscore.Internal.Correction>
   9.000000E+99

> <Gold.Chemscore.Hbonds>
donor molecule, donor type, donor heavy atom, donor atom, acceptor molecule, acceptor atom, score
      L1  H     5    24       P1  8028  0.90
      L1  H     8    25       P1  8028  0.98

> <Gold.Chemscore.Hbond.Weighted>
-6.5482

> <Gold.Chemscore.Metal.Weighted>
-0.0000

> <Gold.Chemscore.Lipo.Weighted>
-7.7783

> <Gold.Chemscore.Internal_Hbond.Weighted>
0.0000

> <Gold.Chemscore.DEClash.Weighted>
0.0782

> <Gold.Chemscore.DEInternal.Weighted>
1.2431

> <Gold.Chemscore.Rot.Weighted>
3.3485

> <Gold.Chemscore.Internal.Correction.Weighted>
   9.000000E+99

> <Gold.Protein.RotatedTorsions>
[ 6907 6896 6895 6894 ] final   40.93 input  -60.11 | X-H torsion
[ 7974 7965 7964 7962 ] final  -42.56 input  175.53 | X-H torsion
[ 8008 7997 7996 7995 ] final  117.15 input   59.86 | X-H torsion
[ 10167 10162 10161 10158 ] final  172.51 input  -65.29 | X-H torsion
[ 10718 10713 10712 10709 ] final   -8.40 input   66.30 | X-H torsion
[ 10763 10752 10751 10750 ] final  159.61 input  -60.55 | X-H torsion
[ 11005 11000 10999 10996 ] final  -71.60 input  -57.11 | X-H torsion

> <Gold.Protein.ActiveResidues>
 VAL166  LYS551  ARG553  GLY616  TRP617  ASP618  TYR619  PRO620  LYS621  CYS622 
 ASP623  PHE694  ASN695  SER759  ASP760  ASP761  ALA762  ILE779  LEU786  VAL792 
 PHE793  MET794  SER795  GLU796  ALA797  LYS798  CYS799  TRP800  GLU811  SER814 

> <Gold.Protein.RotatedAtoms>
  152.1887  134.8691  160.0519 H   0  0  0  0  0  0  0  0  0  0  0  0  # atno 6907 bound_to 6896
  151.9587  133.3683  159.4035 H   0  0  0  0  0  0  0  0  0  0  0  0  # atno 6908 bound_to 6896
  150.6931  134.4187  159.5239 H   0  0  0  0  0  0  0  0  0  0  0  0  # atno 6909 bound_to 6896
  146.0103  140.6971  142.9227 H   0  0  0  0  0  0  0  0  0  0  0  0  # atno 7974 bound_to 7965
  156.2478  140.2902  156.0634 H   0  0  0  0  0  0  0  0  0  0  0  0  # atno 8008 bound_to 7997
  155.1751  140.0403  157.2888 H   0  0  0  0  0  0  0  0  0  0  0  0  # atno 8009 bound_to 7997
  154.6299  140.2496  155.7454 H   0  0  0  0  0  0  0  0  0  0  0  0  # atno 8010 bound_to 7997
  139.5079  144.3366  152.0060 H   0  0  0  0  0  0  0  0  0  0  0  0  # atno 10167 bound_to 10162
  156.7032  130.5099  149.5912 H   0  0  0  0  0  0  0  0  0  0  0  0  # atno 10718 bound_to 10713
  154.2345  135.2777  155.2877 H   0  0  0  0  0  0  0  0  0  0  0  0  # atno 10763 bound_to 10752
  154.5596  135.5651  153.6999 H   0  0  0  0  0  0  0  0  0  0  0  0  # atno 10764 bound_to 10752
  153.0013  135.6294  154.2488 H   0  0  0  0  0  0  0  0  0  0  0  0  # atno 10765 bound_to 10752
  141.1595  133.6822  156.6931 H   0  0  0  0  0  0  0  0  0  0  0  0  # atno 11005 bound_to 11000
  144.6951  140.3387  143.7203 LP  0  0  0  0  0  0  0  0  0  0  0  0  # atno 17320 bound_to 7965
  145.7352  139.1748  143.2408 LP  0  0  0  0  0  0  0  0  0  0  0  0  # atno 17321 bound_to 7965
  140.2804  144.3866  150.6121 LP  0  0  0  0  0  0  0  0  0  0  0  0  # atno 17342 bound_to 10162
  140.6022  143.2167  151.7050 LP  0  0  0  0  0  0  0  0  0  0  0  0  # atno 17343 bound_to 10162
  156.1714  130.6439  151.0842 LP  0  0  0  0  0  0  0  0  0  0  0  0  # atno 17370 bound_to 10713
  157.6965  131.0792  150.6953 LP  0  0  0  0  0  0  0  0  0  0  0  0  # atno 17371 bound_to 10713
  140.3015  134.8159  157.4102 LP  0  0  0  0  0  0  0  0  0  0  0  0  # atno 17394 bound_to 11000
  140.1257  134.5161  155.8146 LP  0  0  0  0  0  0  0  0  0  0  0  0  # atno 17395 bound_to 11000

$$$$
