AV-unprocessed.smi:3104|AV-procd|sdf|11816|dock3
  -GOLD-   2272017183D 1   1.00000     0.00000
 Structure written by MMmdl.
 37 38  0  0  0  0  0  0  0  0  2 V2000
  149.3988  136.1485  155.0403 C   0  0  0  0  0  0  0  0  0  0  0  0
  149.7408  137.5877  154.7827 C   0  0  0  0  0  0  0  0  0  0  0  0
  150.7005  138.1092  153.8698 C   0  0  0  0  0  0  0  0  0  0  0  0
  150.7651  139.4305  153.8922 N   0  0  0  0  0  0  0  0  0  0  0  0
  149.8404  139.8025  154.8034 N   0  0  0  0  0  0  0  0  0  0  0  0
  149.6588  141.2169  155.1116 C   0  0  1  0  0  0  0  0  0  0  0  0
  148.3482  141.7230  154.4796 C   0  0  0  0  0  0  0  0  0  0  0  0
  149.7461  141.4585  156.6415 C   0  0  2  0  0  0  0  0  0  0  0  0
  148.3646  141.6754  157.2881 C   0  0  0  0  0  0  0  0  0  0  0  0
  150.6179  142.6259  156.9151 N   0  3  0  0  0  0  0  0  0  0  0  0
  151.0644  142.7671  158.3155 C   0  0  0  0  0  0  0  0  0  0  0  0
  152.1914  143.7727  158.4227 C   0  0  0  0  0  0  0  0  0  0  0  0
  152.7196  144.1778  159.7795 C   0  0  0  0  0  0  0  0  0  0  0  0
  151.9448  145.1688  158.9474 C   0  0  0  0  0  0  0  0  0  0  0  0
  149.2151  138.7063  155.3640 C   0  0  0  0  0  0  0  0  0  0  0  0
  149.8035  135.4912  154.2705 H   0  0  0  0  0  0  0  0  0  0  0  0
  148.3207  135.9883  155.0631 H   0  0  0  0  0  0  0  0  0  0  0  0
  149.7954  135.8064  155.9964 H   0  0  0  0  0  0  0  0  0  0  0  0
  151.3529  137.5690  153.1993 H   0  0  0  0  0  0  0  0  0  0  0  0
  150.4745  141.7643  154.6346 H   0  0  0  0  0  0  0  0  0  0  0  0
  148.2692  142.8084  154.5317 H   0  0  0  0  0  0  0  0  0  0  0  0
  147.4732  141.3001  154.9742 H   0  0  0  0  0  0  0  0  0  0  0  0
  148.2953  141.4537  153.4241 H   0  0  0  0  0  0  0  0  0  0  0  0
  150.2047  140.5775  157.0938 H   0  0  0  0  0  0  0  0  0  0  0  0
  147.7302  140.7957  157.1852 H   0  0  0  0  0  0  0  0  0  0  0  0
  147.8427  142.5188  156.8347 H   0  0  0  0  0  0  0  0  0  0  0  0
  148.4459  141.8734  158.3568 H   0  0  0  0  0  0  0  0  0  0  0  0
  151.4478  142.5214  156.3477 H   0  0  0  0  0  0  0  0  0  0  0  0
  150.2368  143.0738  158.9555 H   0  0  0  0  0  0  0  0  0  0  0  0
  151.4226  141.8038  158.6808 H   0  0  0  0  0  0  0  0  0  0  0  0
  152.9460  143.6733  157.6442 H   0  0  0  0  0  0  0  0  0  0  0  0
  152.2268  143.7699  160.6599 H   0  0  0  0  0  0  0  0  0  0  0  0
  153.7923  144.3327  159.8758 H   0  0  0  0  0  0  0  0  0  0  0  0
  152.5011  145.9833  158.4876 H   0  0  0  0  0  0  0  0  0  0  0  0
  150.9377  145.4194  159.2747 H   0  0  0  0  0  0  0  0  0  0  0  0
  148.4556  138.8103  156.1251 H   0  0  0  0  0  0  0  0  0  0  0  0
  150.1409  143.4678  156.6255 H   0  0  0  0  0  0  0  0  0  0  0  0
  1  2  1  0  0  0  0
  1 16  1  0  0  0  0
  1 17  1  0  0  0  0
  1 18  1  0  0  0  0
  2 15  2  0  0  0  0
  2  3  1  0  0  0  0
  3  4  2  0  0  0  0
  3 19  1  0  0  0  0
  4  5  1  0  0  0  0
  5  6  1  0  0  0  0
  5 15  1  0  0  0  0
  6  7  1  0  0  0  0
  6  8  1  0  0  0  0
  6 20  1  0  0  0  0
  7 21  1  0  0  0  0
  7 22  1  0  0  0  0
  7 23  1  0  0  0  0
  8  9  1  0  0  0  0
  8 10  1  0  0  0  0
  8 24  1  0  0  0  0
  9 25  1  0  0  0  0
  9 26  1  0  0  0  0
  9 27  1  0  0  0  0
 10 11  1  0  0  0  0
 10 28  1  0  0  0  0
 10 37  1  0  0  0  0
 11 12  1  0  0  0  0
 11 29  1  0  0  0  0
 11 30  1  0  0  0  0
 12 14  1  0  0  0  0
 12 13  1  0  0  0  0
 12 31  1  0  0  0  0
 13 14  1  0  0  0  0
 13 32  1  0  0  0  0
 13 33  1  0  0  0  0
 14 34  1  0  0  0  0
 14 35  1  0  0  0  0
 15 36  1  0  0  0  0
M  CHG  1  10   1
M  END
> <s_m_source_file>
AV-unprocessed.smi

> <i_m_source_file_index>
3104

> <i_lp_mmshare_version>
43012

> <i_f3d_flags>
0

> <s_epik_input>
W0NIM11jMVtjSF1ubihbY0hdMSlbQ0BIXShbQ0gzXSlbQ0BIXShbQ0gzXSlbTkhdW0NIMl1bQ0hdMltDSDJdW0NIMl0y

> <s_epik_cmdline>
J2VwaWtfcHl0aG9uJywgJy1waCcsICc3LjAnLCAnLXRuJywgJzgnLCAnLW1hJywgJzIwMCcsICctbWV0YWxfYmluZGluZycsICctaW1hZScsICc8aW5maWxlLm1hZT4nLCAnLW9tYWUnLCAnPG91dGZpbGUubWFlPic=

> <r_lp_tautomer_probability>
1

> <r_epik_Ionization_Penalty>
0.00120445

> <r_epik_Ionization_Penalty_Charging>
0.00118273

> <r_epik_Ionization_Penalty_Neutral>
2.17265e-05

> <r_epik_State_Penalty>
-0

> <r_epik_Charging_Adjusted_Penalty>
0.00118273

> <i_epik_Tot_Q>
1

> <i_epik_Tot_abs_Q>
1

> <r_epik_Metal_State_Penalty>
-0

> <b_epik_Metal_Only>
0

> <s_lp_Force_Field>
OPLS_2005

> <r_lp_Energy>
20.526

> <b_lp_Chiralities_Consistent>
1

> <s_lp_Variant>
AV-unprocessed.smi:3104-2

> <Gold.Version>
5.8.1

> <Gold.Id.Protein>
6NUR|6NUR_protein|mol2

> <Gold.PLP.Fitness>
41.3691

> <Gold.PLP.PLP>
-32.4944

> <Gold.PLP.part.hbond>
-2.0000

> <Gold.PLP.part.metal>
0.0000

> <Gold.PLP.part.buried>
-2.5671

> <Gold.PLP.part.nonpolar>
-27.7780

> <Gold.PLP.part.repulsive>
0.2188

> <Gold.PLP.ligand.clash>
0.0000

> <Gold.PLP.ligand.torsion>
1.9198

> <Gold.PLP.Chemscore.Hbond>
3.0000

> <Gold.PLP.Chemscore.CHOScore>
0.9905

> <Gold.PLP.Chemscore.Metal>
0.0000

> <Gold.Chemscore.Hbonds>
donor molecule, donor type, donor heavy atom, donor atom, acceptor molecule, acceptor atom, score
      L1  H    10    37       P1  8028  2.00
      P1  H  7989  7998       L1     4  1.00
      L1  C     3    19       P1  7949  1.00

> <Gold.PLP.Chemscore.Internal.Correction>
0.7428

> <Gold.Rescore>
     Score         DG    S(hbond)    S(metal)    S(lipo)     H(rot)  DE(clash)    DE(int)     intcor
     16.31     -18.34       1.88        0.00      88.90       1.49       0.08       1.95       ----

> <Gold.Chemscore.Fitness>
16.3129

> <Gold.Chemscore.DG>
-18.3409

> <Gold.Chemscore.ZeroCoef>
-5.4800

> <Gold.Chemscore.Hbond>
1.8803

> <Gold.Chemscore.Metal>
0.0000

> <Gold.Chemscore.Lipo>
88.8989

> <Gold.Chemscore.Internal_Hbond>
0.0000

> <Gold.Chemscore.DEClash>
0.0751

> <Gold.Chemscore.DEInternal>
1.9529

> <Gold.Chemscore.Rot>
1.4923

> <Gold.Chemscore.Internal.Correction>
   9.000000E+99

> <Gold.Chemscore.Hbonds>
donor molecule, donor type, donor heavy atom, donor atom, acceptor molecule, acceptor atom, score
      L1  H    10    37       P1  8028  0.95
      P1  H  7989  7998       L1     4  0.59

> <Gold.Chemscore.Hbond.Weighted>
-6.2801

> <Gold.Chemscore.Metal.Weighted>
-0.0000

> <Gold.Chemscore.Lipo.Weighted>
-10.4012

> <Gold.Chemscore.Internal_Hbond.Weighted>
0.0000

> <Gold.Chemscore.DEClash.Weighted>
0.0751

> <Gold.Chemscore.DEInternal.Weighted>
1.9529

> <Gold.Chemscore.Rot.Weighted>
3.8204

> <Gold.Chemscore.Internal.Correction.Weighted>
   9.000000E+99

> <Gold.Protein.RotatedTorsions>
[ 6907 6896 6895 6894 ] final  -87.74 input  -60.11 | X-H torsion
[ 7974 7965 7964 7962 ] final  147.93 input  175.53 | X-H torsion
[ 8008 7997 7996 7995 ] final -153.80 input   59.86 | X-H torsion
[ 10167 10162 10161 10158 ] final   37.55 input  -65.29 | X-H torsion
[ 10718 10713 10712 10709 ] final  176.02 input   66.30 | X-H torsion
[ 10763 10752 10751 10750 ] final  159.90 input  -60.55 | X-H torsion
[ 11005 11000 10999 10996 ] final  -79.17 input  -57.11 | X-H torsion

> <Gold.Protein.ActiveResidues>
 VAL166  LYS551  ARG553  GLY616  TRP617  ASP618  TYR619  PRO620  LYS621  CYS622 
 ASP623  PHE694  ASN695  SER759  ASP760  ASP761  ALA762  ILE779  LEU786  VAL792 
 PHE793  MET794  SER795  GLU796  ALA797  LYS798  CYS799  TRP800  GLU811  SER814 

> <Gold.Protein.RotatedAtoms>
  150.6867  134.2850  159.4642 H   0  0  0  0  0  0  0  0  0  0  0  0  # atno 6907 bound_to 6896
  152.0760  134.9500  160.0583 H   0  0  0  0  0  0  0  0  0  0  0  0  # atno 6908 bound_to 6896
  152.0871  133.4147  159.4564 H   0  0  0  0  0  0  0  0  0  0  0  0  # atno 6909 bound_to 6896
  144.8553  139.6090  143.5955 H   0  0  0  0  0  0  0  0  0  0  0  0  # atno 7974 bound_to 7965
  155.6765  140.0739  157.2501 H   0  0  0  0  0  0  0  0  0  0  0  0  # atno 8008 bound_to 7997
  154.4113  140.1689  156.1987 H   0  0  0  0  0  0  0  0  0  0  0  0  # atno 8009 bound_to 7997
  155.9572  140.3372  155.6462 H   0  0  0  0  0  0  0  0  0  0  0  0  # atno 8010 bound_to 7997
  140.4022  144.1708  150.6134 H   0  0  0  0  0  0  0  0  0  0  0  0  # atno 10167 bound_to 10162
  156.9263  130.9957  151.2995 H   0  0  0  0  0  0  0  0  0  0  0  0  # atno 10718 bound_to 10713
  154.2390  135.2775  155.2861 H   0  0  0  0  0  0  0  0  0  0  0  0  # atno 10763 bound_to 10752
  154.5561  135.5661  153.6968 H   0  0  0  0  0  0  0  0  0  0  0  0  # atno 10764 bound_to 10752
  153.0004  135.6286  154.2534 H   0  0  0  0  0  0  0  0  0  0  0  0  # atno 10765 bound_to 10752
  141.1667  133.7094  156.8083 H   0  0  0  0  0  0  0  0  0  0  0  0  # atno 11005 bound_to 11000
  146.2818  139.6897  142.9224 LP  0  0  0  0  0  0  0  0  0  0  0  0  # atno 17320 bound_to 7965
  145.4419  141.0423  143.2853 LP  0  0  0  0  0  0  0  0  0  0  0  0  # atno 17321 bound_to 7965
  140.4728  143.2407  151.9065 LP  0  0  0  0  0  0  0  0  0  0  0  0  # atno 17342 bound_to 10162
  139.4784  144.5352  151.8609 LP  0  0  0  0  0  0  0  0  0  0  0  0  # atno 17343 bound_to 10162
  157.5875  130.8420  149.8611 LP  0  0  0  0  0  0  0  0  0  0  0  0  # atno 17370 bound_to 10713
  156.0467  130.3726  150.1299 LP  0  0  0  0  0  0  0  0  0  0  0  0  # atno 17371 bound_to 10713
  140.2206  134.8759  157.3373 LP  0  0  0  0  0  0  0  0  0  0  0  0  # atno 17394 bound_to 11000
  140.1991  134.4276  155.7672 LP  0  0  0  0  0  0  0  0  0  0  0  0  # atno 17395 bound_to 11000

$$$$
