AV-unprocessed.smi:1607|AV-procd|sdf|6464|dock10
  -GOLD-   22720 7123D 1   1.00000     0.00000
 Structure written by MMmdl.
 39 40  0  0  0  0  0  0  0  0  2 V2000
  151.6069  141.6263  159.1985 C   0  0  0  0  0  0  0  0  0  0  0  0
  152.2149  142.7842  160.0093 C   0  0  1  0  0  0  0  0  0  0  0  0
  153.1523  143.6732  159.1709 C   0  0  0  0  0  0  0  0  0  0  0  0
  152.3588  144.5719  158.2119 C   0  0  0  0  0  0  0  0  0  0  0  0
  151.2855  145.3732  158.9658 C   0  0  0  0  0  0  0  0  0  0  0  0
  150.3806  144.4729  159.7260 N   0  3  2  0  0  0  0  0  0  0  0  0
  149.2399  145.2034  160.3340 C   0  0  0  0  0  0  0  0  0  0  0  0
  148.2289  144.2550  161.0080 C   0  0  0  0  0  0  0  0  0  0  0  0
  146.8685  144.7748  160.9293 N   0  0  0  0  0  0  0  0  0  0  0  0
  145.8002  144.0704  160.5247 C   0  0  0  0  0  0  0  0  0  0  0  0
  145.8664  142.8970  160.1587 O   0  0  0  0  0  0  0  0  0  0  0  0
  144.4541  144.7983  160.5334 C   0  0  0  0  0  0  0  0  0  0  0  0
  143.4235  144.0059  159.8883 N   0  0  0  0  0  0  0  0  0  0  0  0
  143.4203  143.3486  158.7267 C   0  0  0  0  0  0  0  0  0  0  0  0
  142.2610  142.7472  158.5080 N   0  0  0  0  0  0  0  0  0  0  0  0
  141.5197  143.0755  159.6308 N   0  0  0  0  0  0  0  0  0  0  0  0
  142.2044  143.8216  160.4535 N   0  0  0  0  0  0  0  0  0  0  0  0
  151.1344  143.6398  160.7022 C   0  0  0  0  0  0  0  0  0  0  0  0
  150.9612  141.9843  158.3965 H   0  0  0  0  0  0  0  0  0  0  0  0
  151.0079  140.9754  159.8360 H   0  0  0  0  0  0  0  0  0  0  0  0
  152.3869  141.0123  158.7473 H   0  0  0  0  0  0  0  0  0  0  0  0
  152.8196  142.3247  160.7923 H   0  0  0  0  0  0  0  0  0  0  0  0
  153.7426  144.3014  159.8394 H   0  0  0  0  0  0  0  0  0  0  0  0
  153.8662  143.0631  158.6164 H   0  0  0  0  0  0  0  0  0  0  0  0
  153.0369  145.2537  157.6977 H   0  0  0  0  0  0  0  0  0  0  0  0
  151.8895  143.9668  157.4358 H   0  0  0  0  0  0  0  0  0  0  0  0
  151.7535  146.0831  159.6498 H   0  0  0  0  0  0  0  0  0  0  0  0
  150.7104  145.9576  158.2465 H   0  0  0  0  0  0  0  0  0  0  0  0
  149.6098  145.9461  161.0425 H   0  0  0  0  0  0  0  0  0  0  0  0
  148.7197  145.7581  159.5519 H   0  0  0  0  0  0  0  0  0  0  0  0
  148.2746  143.2630  160.5551 H   0  0  0  0  0  0  0  0  0  0  0  0
  148.4617  144.1237  162.0640 H   0  0  0  0  0  0  0  0  0  0  0  0
  146.7267  145.7336  161.2138 H   0  0  0  0  0  0  0  0  0  0  0  0
  144.1358  145.0171  161.5540 H   0  0  0  0  0  0  0  0  0  0  0  0
  144.5546  145.7533  160.0156 H   0  0  0  0  0  0  0  0  0  0  0  0
  144.2587  143.3129  158.0467 H   0  0  0  0  0  0  0  0  0  0  0  0
  150.4596  142.9856  161.2533 H   0  0  0  0  0  0  0  0  0  0  0  0
  151.6008  144.2936  161.4412 H   0  0  0  0  0  0  0  0  0  0  0  0
  149.9819  143.8412  159.0461 H   0  0  0  0  0  0  0  0  0  0  0  0
  1  2  1  0  0  0  0
  1 19  1  0  0  0  0
  1 20  1  0  0  0  0
  1 21  1  0  0  0  0
  2 18  1  0  0  0  0
  2  3  1  0  0  0  0
  2 22  1  0  0  0  0
  3  4  1  0  0  0  0
  3 23  1  0  0  0  0
  3 24  1  0  0  0  0
  4  5  1  0  0  0  0
  4 25  1  0  0  0  0
  4 26  1  0  0  0  0
  5  6  1  0  0  0  0
  5 27  1  0  0  0  0
  5 28  1  0  0  0  0
  6  7  1  0  0  0  0
  6 18  1  0  0  0  0
  6 39  1  0  0  0  0
  7  8  1  0  0  0  0
  7 29  1  0  0  0  0
  7 30  1  0  0  0  0
  8  9  1  0  0  0  0
  8 31  1  0  0  0  0
  8 32  1  0  0  0  0
  9 10  1  0  0  0  0
  9 33  1  0  0  0  0
 10 11  2  0  0  0  0
 10 12  1  0  0  0  0
 12 13  1  0  0  0  0
 12 34  1  0  0  0  0
 12 35  1  0  0  0  0
 13 17  1  0  0  0  0
 13 14  1  0  0  0  0
 14 15  2  0  0  0  0
 14 36  1  0  0  0  0
 15 16  1  0  0  0  0
 16 17  2  0  0  0  0
 18 37  1  0  0  0  0
 18 38  1  0  0  0  0
M  CHG  1   6   1
M  END
> <s_m_source_file>
AV-unprocessed.smi

> <i_m_source_file_index>
1607

> <i_lp_mmshare_version>
43012

> <i_f3d_flags>
0

> <s_epik_input>
W0NIM11bQ0BASF0xW0NIMl1bQ0gyXVtDSDJdTihbQ0gyXTEpW0NIMl1bQ0gyXVtOSF1DKD1PKVtDSDJdbjJbY0hdbm5uMg==

> <s_epik_cmdline>
J2VwaWtfcHl0aG9uJywgJy1waCcsICc3LjAnLCAnLXRuJywgJzgnLCAnLW1hJywgJzIwMCcsICctbWV0YWxfYmluZGluZycsICctaW1hZScsICc8aW5maWxlLm1hZT4nLCAnLW9tYWUnLCAnPG91dGZpbGUubWFlPic=

> <r_lp_tautomer_probability>
1

> <r_epik_Ionization_Penalty>
0.00268321

> <r_epik_Ionization_Penalty_Charging>
0.00267875

> <r_epik_Ionization_Penalty_Neutral>
4.46125e-06

> <r_epik_State_Penalty>
0.00186642

> <r_epik_Charging_Adjusted_Penalty>
0.00454517

> <i_epik_Tot_Q>
1

> <i_epik_Tot_abs_Q>
1

> <r_epik_Metal_State_Penalty>
-0

> <b_epik_Metal_Only>
0

> <s_lp_Force_Field>
OPLS_2005

> <r_lp_Energy>
22.4706

> <b_lp_Chiralities_Consistent>
1

> <s_lp_Variant>
AV-unprocessed.smi:1607-2

> <Gold.Version>
5.8.1

> <Gold.Id.Protein>
6NUR|6NUR_protein|mol2

> <Gold.PLP.Fitness>
40.3009

> <Gold.PLP.PLP>
-37.6951

> <Gold.PLP.part.hbond>
-5.2573

> <Gold.PLP.part.metal>
0.0000

> <Gold.PLP.part.buried>
-1.8717

> <Gold.PLP.part.nonpolar>
-29.9146

> <Gold.PLP.part.repulsive>
0.4120

> <Gold.PLP.ligand.clash>
0.0000

> <Gold.PLP.ligand.torsion>
0.4853

> <Gold.PLP.Chemscore.Hbond>
1.1763

> <Gold.PLP.Chemscore.CHOScore>
0.0000

> <Gold.PLP.Chemscore.Metal>
0.0000

> <Gold.Chemscore.Hbonds>
donor molecule, donor type, donor heavy atom, donor atom, acceptor molecule, acceptor atom, score
      P1  H  6934  6946       L1    11  0.19

> <Gold.PLP.Chemscore.Internal.Correction>
0.0475

> <Gold.Rescore>
     Score         DG    S(hbond)    S(metal)    S(lipo)     H(rot)  DE(clash)    DE(int)     intcor
     11.21     -13.64       1.40        0.00      88.75       2.69       0.12       2.31       ----

> <Gold.Chemscore.Fitness>
11.2110

> <Gold.Chemscore.DG>
-13.6433

> <Gold.Chemscore.ZeroCoef>
-5.4800

> <Gold.Chemscore.Hbond>
1.3993

> <Gold.Chemscore.Metal>
0.0000

> <Gold.Chemscore.Lipo>
88.7534

> <Gold.Chemscore.Internal_Hbond>
0.0000

> <Gold.Chemscore.DEClash>
0.1226

> <Gold.Chemscore.DEInternal>
2.3098

> <Gold.Chemscore.Rot>
2.6932

> <Gold.Chemscore.Internal.Correction>
   9.000000E+99

> <Gold.Chemscore.Hbonds>
donor molecule, donor type, donor heavy atom, donor atom, acceptor molecule, acceptor atom, score
      P1  H  6934  6946       L1    11  0.21

> <Gold.Chemscore.Hbond.Weighted>
-4.6737

> <Gold.Chemscore.Metal.Weighted>
-0.0000

> <Gold.Chemscore.Lipo.Weighted>
-10.3841

> <Gold.Chemscore.Internal_Hbond.Weighted>
0.0000

> <Gold.Chemscore.DEClash.Weighted>
0.1226

> <Gold.Chemscore.DEInternal.Weighted>
2.3098

> <Gold.Chemscore.Rot.Weighted>
6.8945

> <Gold.Chemscore.Internal.Correction.Weighted>
   9.000000E+99

> <Gold.Protein.RotatedTorsions>
[ 6907 6896 6895 6894 ] final  118.20 input  -60.11 | X-H torsion
[ 7974 7965 7964 7962 ] final   71.98 input  175.53 | X-H torsion
[ 8008 7997 7996 7995 ] final  -92.66 input   59.86 | X-H torsion
[ 10167 10162 10161 10158 ] final  -49.70 input  -65.29 | X-H torsion
[ 10718 10713 10712 10709 ] final   -0.07 input   66.30 | X-H torsion
[ 10763 10752 10751 10750 ] final  -38.15 input  -60.55 | X-H torsion
[ 11005 11000 10999 10996 ] final  -43.98 input  -57.11 | X-H torsion

> <Gold.Protein.ActiveResidues>
 VAL166  LYS551  ARG553  GLY616  TRP617  ASP618  TYR619  PRO620  LYS621  CYS622 
 ASP623  PHE694  ASN695  SER759  ASP760  ASP761  ALA762  ILE779  LEU786  VAL792 
 PHE793  MET794  SER795  GLU796  ALA797  LYS798  CYS799  TRP800  GLU811  SER814 

> <Gold.Protein.RotatedAtoms>
  152.4559  133.7722  159.6804 H   0  0  0  0  0  0  0  0  0  0  0  0  # atno 6907 bound_to 6896
  150.8485  133.7813  159.3040 H   0  0  0  0  0  0  0  0  0  0  0  0  # atno 6908 bound_to 6896
  151.5416  135.1071  159.9979 H   0  0  0  0  0  0  0  0  0  0  0  0  # atno 6909 bound_to 6896
  145.7590  139.2792  143.1387 H   0  0  0  0  0  0  0  0  0  0  0  0  # atno 7974 bound_to 7965
  154.7259  140.0506  157.0682 H   0  0  0  0  0  0  0  0  0  0  0  0  # atno 8008 bound_to 7997
  155.0366  140.3164  155.4720 H   0  0  0  0  0  0  0  0  0  0  0  0  # atno 8009 bound_to 7997
  156.2829  140.2140  156.5488 H   0  0  0  0  0  0  0  0  0  0  0  0  # atno 8010 bound_to 7997
  140.6672  143.2687  151.4253 H   0  0  0  0  0  0  0  0  0  0  0  0  # atno 10167 bound_to 10162
  156.8258  130.5472  149.5692 H   0  0  0  0  0  0  0  0  0  0  0  0  # atno 10718 bound_to 10713
  153.9081  135.6795  153.4752 H   0  0  0  0  0  0  0  0  0  0  0  0  # atno 10763 bound_to 10752
  153.1093  135.4790  154.9004 H   0  0  0  0  0  0  0  0  0  0  0  0  # atno 10764 bound_to 10752
  154.7541  135.3192  154.8458 H   0  0  0  0  0  0  0  0  0  0  0  0  # atno 10765 bound_to 10752
  141.0420  133.6776  156.2809 H   0  0  0  0  0  0  0  0  0  0  0  0  # atno 11005 bound_to 11000
  146.0282  140.8283  142.9889 LP  0  0  0  0  0  0  0  0  0  0  0  0  # atno 17320 bound_to 7965
  144.6834  140.2730  143.7303 LP  0  0  0  0  0  0  0  0  0  0  0  0  # atno 17321 bound_to 7965
  139.5926  144.1466  152.2106 LP  0  0  0  0  0  0  0  0  0  0  0  0  # atno 17342 bound_to 10162
  140.0825  144.5688  150.7112 LP  0  0  0  0  0  0  0  0  0  0  0  0  # atno 17343 bound_to 10162
  156.0962  130.5934  150.9818 LP  0  0  0  0  0  0  0  0  0  0  0  0  # atno 17370 bound_to 10713
  157.6433  131.0907  150.8207 LP  0  0  0  0  0  0  0  0  0  0  0  0  # atno 17371 bound_to 10713
  140.6217  134.5355  157.5548 LP  0  0  0  0  0  0  0  0  0  0  0  0  # atno 17394 bound_to 11000
  139.9283  134.8013  156.1004 LP  0  0  0  0  0  0  0  0  0  0  0  0  # atno 17395 bound_to 11000

$$$$
