AV-unprocessed.smi:674|AV-procd|sdf|3299|dock5
  -GOLD-   22720 0263D 1   1.00000     0.00000
 Structure written by MMmdl.
 47 48  0  0  0  0  0  0  0  0  1 V2000
  150.6619  141.7183  157.4369 C   0  0  0  0  0  0  0  0  0  0  0  0
  150.4371  141.8550  155.9266 C   0  0  0  0  0  0  0  0  0  0  0  0
  149.7956  140.6287  155.3408 C   0  0  0  0  0  0  0  0  0  0  0  0
  150.3112  139.3004  155.3122 C   0  0  0  0  0  0  0  0  0  0  0  0
  149.3315  138.6097  154.6524 C   0  0  0  0  0  0  0  0  0  0  0  0
  149.2947  137.2915  154.3204 N   0  0  0  0  0  0  0  0  0  0  0  0
  149.4123  136.2189  155.1223 C   0  0  0  0  0  0  0  0  0  0  0  0
  149.5290  136.2510  156.3475 O   0  0  0  0  0  0  0  0  0  0  0  0
  149.3787  135.0809  154.4158 N   0  0  0  0  0  0  0  0  0  0  0  0
  149.4834  133.7485  155.0008 C   0  0  2  0  0  0  0  0  0  0  0  0
  150.8281  133.0808  154.7185 C   0  0  0  0  0  0  0  0  0  0  0  0
  150.0527  131.7567  154.5744 C   0  0  1  0  0  0  0  0  0  0  0  0
  150.5566  130.6910  153.5931 C   0  0  0  0  0  0  0  0  0  0  0  0
  149.8151  131.1786  155.8654 O   0  0  0  0  0  0  0  0  0  0  0  0
  150.9229  130.5796  156.5268 C   0  0  0  0  0  0  0  0  0  0  0  0
  148.8079  132.6189  154.1820 C   0  0  0  0  0  0  0  0  0  0  0  0
  147.4484  132.1363  154.6992 C   0  0  0  0  0  0  0  0  0  0  0  0
  148.6134  132.8781  152.6759 C   0  0  0  0  0  0  0  0  0  0  0  0
  148.3160  139.4825  154.3249 N   0  0  0  0  0  0  0  0  0  0  0  0
  147.0713  139.2468  153.6193 C   0  0  0  0  0  0  0  0  0  0  0  0
  148.6080  140.7289  154.7535 N   0  0  0  0  0  0  0  0  0  0  0  0
  151.1241  142.6176  157.8440 H   0  0  0  0  0  0  0  0  0  0  0  0
  151.3164  140.8762  157.6639 H   0  0  0  0  0  0  0  0  0  0  0  0
  149.7191  141.5609  157.9615 H   0  0  0  0  0  0  0  0  0  0  0  0
  149.8126  142.7276  155.7330 H   0  0  0  0  0  0  0  0  0  0  0  0
  151.3902  142.0509  155.4339 H   0  0  0  0  0  0  0  0  0  0  0  0
  151.2488  138.9399  155.7076 H   0  0  0  0  0  0  0  0  0  0  0  0
  149.1771  137.0995  153.3367 H   0  0  0  0  0  0  0  0  0  0  0  0
  149.2772  135.1369  153.4131 H   0  0  0  0  0  0  0  0  0  0  0  0
  149.2329  133.7112  156.0638 H   0  0  0  0  0  0  0  0  0  0  0  0
  151.2911  133.4047  153.7846 H   0  0  0  0  0  0  0  0  0  0  0  0
  151.5361  133.1371  155.5447 H   0  0  0  0  0  0  0  0  0  0  0  0
  150.6431  131.0811  152.5797 H   0  0  0  0  0  0  0  0  0  0  0  0
  149.8817  129.8356  153.5578 H   0  0  0  0  0  0  0  0  0  0  0  0
  151.5474  130.3254  153.8612 H   0  0  0  0  0  0  0  0  0  0  0  0
  150.6348  130.3339  157.5488 H   0  0  0  0  0  0  0  0  0  0  0  0
  151.7863  131.2421  156.5782 H   0  0  0  0  0  0  0  0  0  0  0  0
  151.2230  129.6493  156.0450 H   0  0  0  0  0  0  0  0  0  0  0  0
  147.1868  131.1633  154.2823 H   0  0  0  0  0  0  0  0  0  0  0  0
  146.6501  132.8327  154.4402 H   0  0  0  0  0  0  0  0  0  0  0  0
  147.4357  132.0382  155.7849 H   0  0  0  0  0  0  0  0  0  0  0  0
  148.3082  131.9723  152.1512 H   0  0  0  0  0  0  0  0  0  0  0  0
  149.5253  133.2344  152.1969 H   0  0  0  0  0  0  0  0  0  0  0  0
  147.8444  133.6295  152.4929 H   0  0  0  0  0  0  0  0  0  0  0  0
  146.8513  138.1801  153.5753 H   0  0  0  0  0  0  0  0  0  0  0  0
  147.1481  139.6365  152.6037 H   0  0  0  0  0  0  0  0  0  0  0  0
  146.2520  139.7509  154.1335 H   0  0  0  0  0  0  0  0  0  0  0  0
  1  2  1  0  0  0  0
  1 22  1  0  0  0  0
  1 23  1  0  0  0  0
  1 24  1  0  0  0  0
  2  3  1  0  0  0  0
  2 25  1  0  0  0  0
  2 26  1  0  0  0  0
  3 21  2  0  0  0  0
  3  4  1  0  0  0  0
  4  5  2  0  0  0  0
  4 27  1  0  0  0  0
  5  6  1  0  0  0  0
  5 19  1  0  0  0  0
  6  7  1  0  0  0  0
  6 28  1  0  0  0  0
  7  8  2  0  0  0  0
  7  9  1  0  0  0  0
  9 10  1  0  0  0  0
  9 29  1  0  0  0  0
 10 16  1  0  0  0  0
 10 11  1  0  0  0  0
 10 30  1  0  0  0  0
 11 12  1  0  0  0  0
 11 31  1  0  0  0  0
 11 32  1  0  0  0  0
 12 13  1  0  0  0  0
 12 14  1  0  0  0  0
 12 16  1  0  0  0  0
 13 33  1  0  0  0  0
 13 34  1  0  0  0  0
 13 35  1  0  0  0  0
 14 15  1  0  0  0  0
 15 36  1  0  0  0  0
 15 37  1  0  0  0  0
 15 38  1  0  0  0  0
 16 17  1  0  0  0  0
 16 18  1  0  0  0  0
 17 39  1  0  0  0  0
 17 40  1  0  0  0  0
 17 41  1  0  0  0  0
 18 42  1  0  0  0  0
 18 43  1  0  0  0  0
 18 44  1  0  0  0  0
 19 20  1  0  0  0  0
 19 21  1  0  0  0  0
 20 45  1  0  0  0  0
 20 46  1  0  0  0  0
 20 47  1  0  0  0  0
M  END
> <s_m_source_file>
AV-unprocessed.smi

> <i_m_source_file_index>
674

> <i_lp_mmshare_version>
43012

> <i_f3d_flags>
0

> <s_epik_input>
W0NIM11bQ0gyXWMxW2NIXWMobihuMSlbQ0gzXSlbTkhdQyg9TylbTkhdW0NAQEhdKEMyKFtDSDNdKVtDSDNdKVtDSDJdW0NAQF0yKFtDSDNdKU9bQ0gzXQ==

> <s_epik_cmdline>
J2VwaWtfcHl0aG9uJywgJy1waCcsICc3LjAnLCAnLXRuJywgJzgnLCAnLW1hJywgJzIwMCcsICctbWV0YWxfYmluZGluZycsICctaW1hZScsICc8aW5maWxlLm1hZT4nLCAnLW9tYWUnLCAnPG91dGZpbGUubWFlPic=

> <r_lp_tautomer_probability>
1

> <r_epik_Ionization_Penalty>
0.000101626

> <r_epik_Ionization_Penalty_Charging>
0

> <r_epik_Ionization_Penalty_Neutral>
0.000101626

> <r_epik_State_Penalty>
-0

> <r_epik_Charging_Adjusted_Penalty>
0

> <i_epik_Tot_Q>
0

> <i_epik_Tot_abs_Q>
0

> <r_epik_Metal_State_Penalty>
-0

> <b_epik_Metal_Only>
0

> <s_lp_Force_Field>
OPLS_2005

> <r_lp_Energy>
22.7412

> <b_lp_Chiralities_Consistent>
1

> <s_lp_Variant>
AV-unprocessed.smi:674-1

> <Gold.Version>
5.8.1

> <Gold.Id.Protein>
6NUR|6NUR_protein|mol2

> <Gold.PLP.Fitness>
34.3834

> <Gold.PLP.PLP>
-29.7188

> <Gold.PLP.part.hbond>
-2.0000

> <Gold.PLP.part.metal>
0.0000

> <Gold.PLP.part.buried>
-2.4795

> <Gold.PLP.part.nonpolar>
-24.5008

> <Gold.PLP.part.repulsive>
0.1540

> <Gold.PLP.ligand.clash>
0.0000

> <Gold.PLP.ligand.torsion>
0.8502

> <Gold.PLP.Chemscore.Hbond>
1.9920

> <Gold.PLP.Chemscore.CHOScore>
0.0000

> <Gold.PLP.Chemscore.Metal>
0.0000

> <Gold.Chemscore.Hbonds>
donor molecule, donor type, donor heavy atom, donor atom, acceptor molecule, acceptor atom, score
      L1  H     6    28       P1  7948  1.00
      L1  H     9    29       P1  7948  0.84

> <Gold.PLP.Chemscore.Internal.Correction>
0.3890

> <Gold.Rescore>
     Score         DG    S(hbond)    S(metal)    S(lipo)     H(rot)  DE(clash)    DE(int)     intcor
     14.44     -15.41       1.59        0.00      69.30       1.37       0.05       0.93       ----

> <Gold.Chemscore.Fitness>
14.4384

> <Gold.Chemscore.DG>
-15.4140

> <Gold.Chemscore.ZeroCoef>
-5.4800

> <Gold.Chemscore.Hbond>
1.5936

> <Gold.Chemscore.Metal>
0.0000

> <Gold.Chemscore.Lipo>
69.2964

> <Gold.Chemscore.Internal_Hbond>
0.0000

> <Gold.Chemscore.DEClash>
0.0476

> <Gold.Chemscore.DEInternal>
0.9280

> <Gold.Chemscore.Rot>
1.3658

> <Gold.Chemscore.Internal.Correction>
   9.000000E+99

> <Gold.Chemscore.Hbonds>
donor molecule, donor type, donor heavy atom, donor atom, acceptor molecule, acceptor atom, score
      L1  H     6    28       P1  7948  0.99
      L1  H     9    29       P1  7948  0.14

> <Gold.Chemscore.Hbond.Weighted>
-5.3226

> <Gold.Chemscore.Metal.Weighted>
-0.0000

> <Gold.Chemscore.Lipo.Weighted>
-8.1077

> <Gold.Chemscore.Internal_Hbond.Weighted>
0.0000

> <Gold.Chemscore.DEClash.Weighted>
0.0476

> <Gold.Chemscore.DEInternal.Weighted>
0.9280

> <Gold.Chemscore.Rot.Weighted>
3.4963

> <Gold.Chemscore.Internal.Correction.Weighted>
   9.000000E+99

> <Gold.Protein.RotatedTorsions>
[ 6907 6896 6895 6894 ] final -142.06 input  -60.11 | X-H torsion
[ 7974 7965 7964 7962 ] final   35.43 input  175.53 | X-H torsion
[ 8008 7997 7996 7995 ] final  -37.67 input   59.86 | X-H torsion
[ 10167 10162 10161 10158 ] final -129.35 input  -65.29 | X-H torsion
[ 10718 10713 10712 10709 ] final  -94.66 input   66.30 | X-H torsion
[ 10763 10752 10751 10750 ] final -108.90 input  -60.55 | X-H torsion
[ 11005 11000 10999 10996 ] final -105.86 input  -57.11 | X-H torsion

> <Gold.Protein.ActiveResidues>
 VAL166  LYS551  ARG553  GLY616  TRP617  ASP618  TYR619  PRO620  LYS621  CYS622 
 ASP623  PHE694  ASN695  SER759  ASP760  ASP761  ALA762  ILE779  LEU786  VAL792 
 PHE793  MET794  SER795  GLU796  ALA797  LYS798  CYS799  TRP800  GLU811  SER814 

> <Gold.Protein.RotatedAtoms>
  151.0820  133.5382  159.2619 H   0  0  0  0  0  0  0  0  0  0  0  0  # atno 6907 bound_to 6896
  151.2282  135.0544  159.8987 H   0  0  0  0  0  0  0  0  0  0  0  0  # atno 6908 bound_to 6896
  152.5425  134.0613  159.8207 H   0  0  0  0  0  0  0  0  0  0  0  0  # atno 6909 bound_to 6896
  146.1283  139.6143  142.9243 H   0  0  0  0  0  0  0  0  0  0  0  0  # atno 7974 bound_to 7965
  154.4049  140.1598  156.2574 H   0  0  0  0  0  0  0  0  0  0  0  0  # atno 8008 bound_to 7997
  155.9066  140.3430  155.6044 H   0  0  0  0  0  0  0  0  0  0  0  0  # atno 8009 bound_to 7997
  155.7385  140.0789  157.2247 H   0  0  0  0  0  0  0  0  0  0  0  0  # atno 8010 bound_to 7997
  139.9407  143.6166  152.2504 H   0  0  0  0  0  0  0  0  0  0  0  0  # atno 10167 bound_to 10162
  156.0030  130.5077  150.5960 H   0  0  0  0  0  0  0  0  0  0  0  0  # atno 10718 bound_to 10713
  154.8162  135.4621  154.0650 H   0  0  0  0  0  0  0  0  0  0  0  0  # atno 10763 bound_to 10752
  153.2041  135.6873  153.8201 H   0  0  0  0  0  0  0  0  0  0  0  0  # atno 10764 bound_to 10752
  153.7675  135.3275  155.3324 H   0  0  0  0  0  0  0  0  0  0  0  0  # atno 10765 bound_to 10752
  141.1033  133.8844  157.1786 H   0  0  0  0  0  0  0  0  0  0  0  0  # atno 11005 bound_to 11000
  145.5316  141.0426  143.2380 LP  0  0  0  0  0  0  0  0  0  0  0  0  # atno 17320 bound_to 7965
  144.7665  139.6834  143.7213 LP  0  0  0  0  0  0  0  0  0  0  0  0  # atno 17321 bound_to 7965
  139.6707  144.7661  151.1789 LP  0  0  0  0  0  0  0  0  0  0  0  0  # atno 17342 bound_to 10162
  140.7611  143.5870  150.8835 LP  0  0  0  0  0  0  0  0  0  0  0  0  # atno 17343 bound_to 10162
  157.3817  131.0782  151.1471 LP  0  0  0  0  0  0  0  0  0  0  0  0  # atno 17370 bound_to 10713
  157.2191  130.6473  149.5804 LP  0  0  0  0  0  0  0  0  0  0  0  0  # atno 17371 bound_to 10713
  139.9892  135.0071  156.9936 LP  0  0  0  0  0  0  0  0  0  0  0  0  # atno 17394 bound_to 11000
  140.4967  134.1138  155.7243 LP  0  0  0  0  0  0  0  0  0  0  0  0  # atno 17395 bound_to 11000

$$$$
