AV-unprocessed.smi:249|AV-procd|sdf|1902|dock4
  -GOLD-   2262020583D 1   1.00000     0.00000
 Structure written by MMmdl.
 64 67  0  0  0  0  0  0  0  0  2 V2000
  152.4400  145.1922  160.0799 C   0  0  0  0  0  0  0  0  0  0  0  0
  152.9860  145.0167  158.6534 C   0  0  0  0  0  0  0  0  0  0  0  0
  152.6455  143.6980  158.0436 N   0  3  2  0  0  0  0  0  0  0  0  0
  151.3214  143.7321  157.3580 C   0  0  0  0  0  0  0  0  0  0  0  0
  151.0172  142.4229  156.6181 C   0  0  0  0  0  0  0  0  0  0  0  0
  151.0564  141.2315  157.5883 C   0  0  1  0  0  0  0  0  0  0  0  0
  150.6867  139.9548  156.9626 N   0  0  0  0  0  0  0  0  0  0  0  0
  151.1800  139.7074  155.6124 C   0  0  0  0  0  0  0  0  0  0  0  0
  150.6822  138.8511  157.7479 C   0  0  0  0  0  0  0  0  0  0  0  0
  151.8249  138.4585  158.3705 N   0  0  0  0  0  0  0  0  0  0  0  0
  151.8238  137.3706  159.1472 C   0  0  0  0  0  0  0  0  0  0  0  0
  150.8117  136.5470  159.4289 N   0  0  0  0  0  0  0  0  0  0  0  0
  149.6672  136.9348  158.7966 C   0  0  0  0  0  0  0  0  0  0  0  0
  149.5161  138.0641  157.9450 C   0  0  0  0  0  0  0  0  0  0  0  0
  148.2088  138.1401  157.4811 N   0  0  0  0  0  0  0  0  0  0  0  0
  147.6193  137.1105  158.0264 C   0  0  0  0  0  0  0  0  0  0  0  0
  148.4210  136.3370  158.8357 N   0  0  0  0  0  0  0  0  0  0  0  0
  148.0335  135.1418  159.5634 C   0  0  0  0  0  0  0  0  0  0  0  0
  146.7572  135.3362  160.4187 C   0  0  1  0  0  0  0  0  0  0  0  0
  145.7587  134.1625  160.2724 C   0  0  0  0  0  0  0  0  0  0  0  0
  145.3658  133.9828  158.9272 O   0  0  0  0  0  0  0  0  0  0  0  0
  147.1077  135.6377  161.8977 C   0  0  2  0  0  0  0  0  0  0  0  0
  148.3282  136.5180  162.1026 C   0  0  0  0  0  0  0  0  0  0  0  0
  148.6811  136.2409  163.5592 C   0  0  0  0  0  0  0  0  0  0  0  0
  148.3333  134.8797  163.7821 O   0  0  0  0  0  0  0  0  0  0  0  0
  147.5103  134.4075  162.7195 C   0  0  0  0  0  0  0  0  0  0  0  0
  152.4322  141.2122  158.2776 C   0  0  0  0  0  0  0  0  0  0  0  0
  152.7385  142.5437  158.9973 C   0  0  1  0  0  0  0  0  0  0  0  0
  154.1164  142.4245  159.6817 C   0  0  0  0  0  0  0  0  0  0  0  0
  152.5804  146.2200  160.4156 H   0  0  0  0  0  0  0  0  0  0  0  0
  152.9477  144.5555  160.8034 H   0  0  0  0  0  0  0  0  0  0  0  0
  151.3720  144.9763  160.1237 H   0  0  0  0  0  0  0  0  0  0  0  0
  152.5523  145.8272  158.0726 H   0  0  0  0  0  0  0  0  0  0  0  0
  154.0665  145.1667  158.6371 H   0  0  0  0  0  0  0  0  0  0  0  0
  150.5380  143.9383  158.0892 H   0  0  0  0  0  0  0  0  0  0  0  0
  151.2863  144.5366  156.6256 H   0  0  0  0  0  0  0  0  0  0  0  0
  150.0384  142.4986  156.1441 H   0  0  0  0  0  0  0  0  0  0  0  0
  151.7427  142.2884  155.8151 H   0  0  0  0  0  0  0  0  0  0  0  0
  150.3093  141.4094  158.3634 H   0  0  0  0  0  0  0  0  0  0  0  0
  150.6767  138.8464  155.1706 H   0  0  0  0  0  0  0  0  0  0  0  0
  152.2532  139.5151  155.6084 H   0  0  0  0  0  0  0  0  0  0  0  0
  150.9872  140.5693  154.9733 H   0  0  0  0  0  0  0  0  0  0  0  0
  152.7690  137.1235  159.6081 H   0  0  0  0  0  0  0  0  0  0  0  0
  146.5755  136.8877  157.8572 H   0  0  0  0  0  0  0  0  0  0  0  0
  147.8905  134.3313  158.8476 H   0  0  0  0  0  0  0  0  0  0  0  0
  148.8767  134.8517  160.1905 H   0  0  0  0  0  0  0  0  0  0  0  0
  146.2466  136.2177  160.0280 H   0  0  0  0  0  0  0  0  0  0  0  0
  146.1951  133.2329  160.6369 H   0  0  0  0  0  0  0  0  0  0  0  0
  144.8679  134.3298  160.8780 H   0  0  0  0  0  0  0  0  0  0  0  0
  144.5194  134.3853  158.8045 H   0  0  0  0  0  0  0  0  0  0  0  0
  146.2557  136.1141  162.3858 H   0  0  0  0  0  0  0  0  0  0  0  0
  149.1442  136.1990  161.4525 H   0  0  0  0  0  0  0  0  0  0  0  0
  148.1342  137.5747  161.9167 H   0  0  0  0  0  0  0  0  0  0  0  0
  149.7324  136.4272  163.7787 H   0  0  0  0  0  0  0  0  0  0  0  0
  148.0798  136.8655  164.2205 H   0  0  0  0  0  0  0  0  0  0  0  0
  146.6470  133.8657  163.1067 H   0  0  0  0  0  0  0  0  0  0  0  0
  148.0999  133.7141  162.1179 H   0  0  0  0  0  0  0  0  0  0  0  0
  152.4603  140.3937  158.9978 H   0  0  0  0  0  0  0  0  0  0  0  0
  153.2200  141.0136  157.5494 H   0  0  0  0  0  0  0  0  0  0  0  0
  151.9879  142.6908  159.7758 H   0  0  0  0  0  0  0  0  0  0  0  0
  154.1938  141.4899  160.2384 H   0  0  0  0  0  0  0  0  0  0  0  0
  154.2922  143.2183  160.4069 H   0  0  0  0  0  0  0  0  0  0  0  0
  154.9274  142.4382  158.9527 H   0  0  0  0  0  0  0  0  0  0  0  0
  153.3379  143.5284  157.3280 H   0  0  0  0  0  0  0  0  0  0  0  0
  1  2  1  0  0  0  0
  1 30  1  0  0  0  0
  1 31  1  0  0  0  0
  1 32  1  0  0  0  0
  2  3  1  0  0  0  0
  2 33  1  0  0  0  0
  2 34  1  0  0  0  0
  3 28  1  0  0  0  0
  3  4  1  0  0  0  0
  3 64  1  0  0  0  0
  4  5  1  0  0  0  0
  4 35  1  0  0  0  0
  4 36  1  0  0  0  0
  5  6  1  0  0  0  0
  5 37  1  0  0  0  0
  5 38  1  0  0  0  0
  6  7  1  0  0  0  0
  6 27  1  0  0  0  0
  6 39  1  0  0  0  0
  7  8  1  0  0  0  0
  7  9  1  0  0  0  0
  8 40  1  0  0  0  0
  8 41  1  0  0  0  0
  8 42  1  0  0  0  0
  9 14  1  0  0  0  0
  9 10  2  0  0  0  0
 10 11  1  0  0  0  0
 11 12  2  0  0  0  0
 11 43  1  0  0  0  0
 12 13  1  0  0  0  0
 13 17  1  0  0  0  0
 13 14  2  0  0  0  0
 14 15  1  0  0  0  0
 15 16  2  0  0  0  0
 16 17  1  0  0  0  0
 16 44  1  0  0  0  0
 17 18  1  0  0  0  0
 18 19  1  0  0  0  0
 18 45  1  0  0  0  0
 18 46  1  0  0  0  0
 19 20  1  0  0  0  0
 19 22  1  0  0  0  0
 19 47  1  0  0  0  0
 20 21  1  0  0  0  0
 20 48  1  0  0  0  0
 20 49  1  0  0  0  0
 21 50  1  0  0  0  0
 22 26  1  0  0  0  0
 22 23  1  0  0  0  0
 22 51  1  0  0  0  0
 23 24  1  0  0  0  0
 23 52  1  0  0  0  0
 23 53  1  0  0  0  0
 24 25  1  0  0  0  0
 24 54  1  0  0  0  0
 24 55  1  0  0  0  0
 25 26  1  0  0  0  0
 26 56  1  0  0  0  0
 26 57  1  0  0  0  0
 27 28  1  0  0  0  0
 27 58  1  0  0  0  0
 27 59  1  0  0  0  0
 28 29  1  0  0  0  0
 28 60  1  0  0  0  0
 29 61  1  0  0  0  0
 29 62  1  0  0  0  0
 29 63  1  0  0  0  0
M  CHG  1   3   1
M  END
> <s_m_source_file>
AV-unprocessed.smi

> <i_m_source_file_index>
249

> <i_lp_mmshare_version>
43012

> <i_f3d_flags>
0

> <s_epik_input>
W0NIM11bQ0gyXU4xW0NIMl1bQ0gyXVtDQEhdKFtDSDJdW0NASF0xW0NIM10pTihbQ0gzXSljKG5bY0hdbjIpYyhjMjMpbltjSF1uM1tDSDJdW0NASF0oW0NIMl1bT0hdKVtDQEBIXTRbQ0gyXVtDSDJdT1tDSDJdNA==

> <s_epik_cmdline>
J2VwaWtfcHl0aG9uJywgJy1waCcsICc3LjAnLCAnLXRuJywgJzgnLCAnLW1hJywgJzIwMCcsICctbWV0YWxfYmluZGluZycsICctaW1hZScsICc8aW5maWxlLm1hZT4nLCAnLW9tYWUnLCAnPG91dGZpbGUubWFlPic=

> <r_lp_tautomer_probability>
1

> <r_epik_Ionization_Penalty>
0.00294688

> <r_epik_Ionization_Penalty_Charging>
0.00169971

> <r_epik_Ionization_Penalty_Neutral>
0.00124717

> <r_epik_State_Penalty>
-0

> <r_epik_Charging_Adjusted_Penalty>
0.00169971

> <i_epik_Tot_Q>
1

> <i_epik_Tot_abs_Q>
1

> <r_epik_Metal_State_Penalty>
-0

> <b_epik_Metal_Only>
0

> <s_lp_Force_Field>
OPLS_2005

> <r_lp_Energy>
53.6229

> <b_lp_Chiralities_Consistent>
1

> <s_lp_Variant>
AV-unprocessed.smi:249-5

> <Gold.Version>
5.8.1

> <Gold.Id.Protein>
6NUR|6NUR_protein|mol2

> <Gold.PLP.Fitness>
50.7241

> <Gold.PLP.PLP>
-50.3532

> <Gold.PLP.part.hbond>
-1.8741

> <Gold.PLP.part.metal>
0.0000

> <Gold.PLP.part.buried>
-5.5142

> <Gold.PLP.part.nonpolar>
-43.5077

> <Gold.PLP.part.repulsive>
0.0301

> <Gold.PLP.ligand.clash>
0.0000

> <Gold.PLP.ligand.torsion>
1.7632

> <Gold.PLP.Chemscore.Hbond>
1.0000

> <Gold.PLP.Chemscore.CHOScore>
0.0000

> <Gold.PLP.Chemscore.Metal>
0.0000

> <Gold.Chemscore.Hbonds>
donor molecule, donor type, donor heavy atom, donor atom, acceptor molecule, acceptor atom, score
      P1  H  6896  6908       L1    12  1.00

> <Gold.PLP.Chemscore.Internal.Correction>
0.8973

> <Gold.Rescore>
     Score         DG    S(hbond)    S(metal)    S(lipo)     H(rot)  DE(clash)    DE(int)     intcor
     13.23     -16.48       0.92        0.00     131.18       2.90       0.27       2.97       ----

> <Gold.Chemscore.Fitness>
13.2340

> <Gold.Chemscore.DG>
-16.4771

> <Gold.Chemscore.ZeroCoef>
-5.4800

> <Gold.Chemscore.Hbond>
0.9207

> <Gold.Chemscore.Metal>
0.0000

> <Gold.Chemscore.Lipo>
131.1764

> <Gold.Chemscore.Internal_Hbond>
0.0000

> <Gold.Chemscore.DEClash>
0.2684

> <Gold.Chemscore.DEInternal>
2.9747

> <Gold.Chemscore.Rot>
2.9006

> <Gold.Chemscore.Internal.Correction>
   9.000000E+99

> <Gold.Chemscore.Hbonds>
donor molecule, donor type, donor heavy atom, donor atom, acceptor molecule, acceptor atom, score
      P1  H  6896  6908       L1    12  0.93

> <Gold.Chemscore.Hbond.Weighted>
-3.0751

> <Gold.Chemscore.Metal.Weighted>
-0.0000

> <Gold.Chemscore.Lipo.Weighted>
-15.3476

> <Gold.Chemscore.Internal_Hbond.Weighted>
0.0000

> <Gold.Chemscore.DEClash.Weighted>
0.2684

> <Gold.Chemscore.DEInternal.Weighted>
2.9747

> <Gold.Chemscore.Rot.Weighted>
7.4256

> <Gold.Chemscore.Internal.Correction.Weighted>
   9.000000E+99

> <Gold.Protein.RotatedTorsions>
[ 6907 6896 6895 6894 ] final -153.18 input  -60.11 | X-H torsion
[ 7974 7965 7964 7962 ] final   29.76 input  175.53 | X-H torsion
[ 8008 7997 7996 7995 ] final  -92.03 input   59.86 | X-H torsion
[ 10167 10162 10161 10158 ] final -156.95 input  -65.29 | X-H torsion
[ 10718 10713 10712 10709 ] final  127.43 input   66.30 | X-H torsion
[ 10763 10752 10751 10750 ] final -127.60 input  -60.55 | X-H torsion
[ 11005 11000 10999 10996 ] final  -55.18 input  -57.11 | X-H torsion

> <Gold.Protein.ActiveResidues>
 VAL166  LYS551  ARG553  GLY616  TRP617  ASP618  TYR619  PRO620  LYS621  CYS622 
 ASP623  PHE694  ASN695  SER759  ASP760  ASP761  ALA762  ILE779  LEU786  VAL792 
 PHE793  MET794  SER795  GLU796  ALA797  LYS798  CYS799  TRP800  GLU811  SER814 

> <Gold.Protein.RotatedAtoms>
  151.2387  133.4411  159.2606 H   0  0  0  0  0  0  0  0  0  0  0  0  # atno 6907 bound_to 6896
  151.0726  134.9808  159.8326 H   0  0  0  0  0  0  0  0  0  0  0  0  # atno 6908 bound_to 6896
  152.5414  134.2331  159.8885 H   0  0  0  0  0  0  0  0  0  0  0  0  # atno 6909 bound_to 6896
  146.1652  139.6879  142.9005 H   0  0  0  0  0  0  0  0  0  0  0  0  # atno 7974 bound_to 7965
  154.7181  140.0513  157.0614 H   0  0  0  0  0  0  0  0  0  0  0  0  # atno 8008 bound_to 7997
  155.0464  140.3174  155.4688 H   0  0  0  0  0  0  0  0  0  0  0  0  # atno 8009 bound_to 7997
  156.2809  140.2123  156.5589 H   0  0  0  0  0  0  0  0  0  0  0  0  # atno 8010 bound_to 7997
  139.6809  143.9583  152.2336 H   0  0  0  0  0  0  0  0  0  0  0  0  # atno 10167 bound_to 10162
  157.5333  131.1098  150.8974 H   0  0  0  0  0  0  0  0  0  0  0  0  # atno 10718 bound_to 10713
  154.8753  135.3956  154.3620 H   0  0  0  0  0  0  0  0  0  0  0  0  # atno 10763 bound_to 10752
  153.4391  135.7026  153.6186 H   0  0  0  0  0  0  0  0  0  0  0  0  # atno 10764 bound_to 10752
  153.4774  135.3777  155.2393 H   0  0  0  0  0  0  0  0  0  0  0  0  # atno 10765 bound_to 10752
  141.1062  133.6613  156.4431 H   0  0  0  0  0  0  0  0  0  0  0  0  # atno 11005 bound_to 11000
  145.4484  141.0427  143.2818 LP  0  0  0  0  0  0  0  0  0  0  0  0  # atno 17320 bound_to 7965
  144.8083  139.6010  143.7041 LP  0  0  0  0  0  0  0  0  0  0  0  0  # atno 17321 bound_to 7965
  139.9373  144.6704  150.8302 LP  0  0  0  0  0  0  0  0  0  0  0  0  # atno 17342 bound_to 10162
  140.7652  143.3268  151.2498 LP  0  0  0  0  0  0  0  0  0  0  0  0  # atno 17343 bound_to 10162
  156.9549  130.5433  149.5283 LP  0  0  0  0  0  0  0  0  0  0  0  0  # atno 17370 bound_to 10713
  156.0439  130.5518  150.8836 LP  0  0  0  0  0  0  0  0  0  0  0  0  # atno 17371 bound_to 10713
  140.4897  134.6587  157.5205 LP  0  0  0  0  0  0  0  0  0  0  0  0  # atno 17394 bound_to 11000
  139.9933  134.6951  155.9653 LP  0  0  0  0  0  0  0  0  0  0  0  0  # atno 17395 bound_to 11000

$$$$
