AV-unprocessed.smi:157|AV-procd|sdf|1293|dock6
  -GOLD-   2262018573D 1   1.00000     0.00000
 Structure written by MMmdl.
 35 37  0  0  0  0  0  0  0  0  1 V2000
  151.6234  142.9789  162.0844 O   0  0  0  0  0  0  0  0  0  0  0  0
  152.7843  143.0211  161.2821 C   0  0  0  0  0  0  0  0  0  0  0  0
  152.4032  142.8918  159.7999 C   0  0  1  0  0  0  0  0  0  0  0  0
  151.5655  141.7542  159.6150 O   0  0  0  0  0  0  0  0  0  0  0  0
  150.7464  141.9354  158.4969 C   0  0  2  0  0  0  0  0  0  0  0  0
  151.2164  141.0298  157.3981 N   0  0  0  0  0  0  0  0  0  0  0  0
  150.9253  141.1299  156.0936 C   0  0  0  0  0  0  0  0  0  0  0  0
  151.4731  140.1957  155.3350 N   0  0  0  0  0  0  0  0  0  0  0  0
  152.1854  139.4065  156.2356 C   0  0  0  0  0  0  0  0  0  0  0  0
  152.0317  139.9012  157.5228 C   0  0  0  0  0  0  0  0  0  0  0  0
  152.4786  139.5552  158.7839 N   0  0  0  0  0  0  0  0  0  0  0  0
  152.9451  138.3591  158.9601 C   0  0  0  0  0  0  0  0  0  0  0  0
  153.1704  137.3396  158.0462 N   0  0  0  0  0  0  0  0  0  0  0  0
  153.8478  137.5351  156.7758 C   0  0  0  0  0  0  0  0  0  0  0  0
  152.9841  138.2428  155.7253 C   0  0  1  0  0  0  0  0  0  0  0  0
  152.0657  137.3208  155.1749 O   0  0  0  0  0  0  0  0  0  0  0  0
  150.8854  143.3986  158.0639 C   0  0  0  0  0  0  0  0  0  0  0  0
  151.5148  144.0280  159.2905 C   0  0  2  0  0  0  0  0  0  0  0  0
  152.2555  145.1798  158.9430 O   0  0  0  0  0  0  0  0  0  0  0  0
  153.2890  142.8031  159.1677 H   0  0  0  0  0  0  0  0  0  0  0  0
  149.7256  141.6255  158.7226 H   0  0  0  0  0  0  0  0  0  0  0  0
  153.6314  138.5681  154.9100 H   0  0  0  0  0  0  0  0  0  0  0  0
  150.7468  144.2774  160.0241 H   0  0  0  0  0  0  0  0  0  0  0  0
  151.8842  143.0105  162.9921 H   0  0  0  0  0  0  0  0  0  0  0  0
  153.3438  143.9381  161.4693 H   0  0  0  0  0  0  0  0  0  0  0  0
  153.4194  142.1869  161.5811 H   0  0  0  0  0  0  0  0  0  0  0  0
  150.2987  141.9086  155.6846 H   0  0  0  0  0  0  0  0  0  0  0  0
  153.2263  138.0582  159.9702 H   0  0  0  0  0  0  0  0  0  0  0  0
  153.3155  136.4039  158.3968 H   0  0  0  0  0  0  0  0  0  0  0  0
  154.7334  138.1420  156.9700 H   0  0  0  0  0  0  0  0  0  0  0  0
  154.2109  136.5788  156.3984 H   0  0  0  0  0  0  0  0  0  0  0  0
  151.2615  137.3771  155.6682 H   0  0  0  0  0  0  0  0  0  0  0  0
  151.5524  143.4686  157.2021 H   0  0  0  0  0  0  0  0  0  0  0  0
  149.9175  143.8249  157.7990 H   0  0  0  0  0  0  0  0  0  0  0  0
  151.6675  145.8088  158.5533 H   0  0  0  0  0  0  0  0  0  0  0  0
  1  2  1  0  0  0  0
  1 24  1  0  0  0  0
  2  3  1  0  0  0  0
  2 25  1  0  0  0  0
  2 26  1  0  0  0  0
  3 20  1  0  0  0  0
  3 18  1  0  0  0  0
  3  4  1  0  0  0  0
  4  5  1  0  0  0  0
  5 21  1  0  0  0  0
  5  6  1  0  0  0  0
  5 17  1  0  0  0  0
  6 10  1  0  0  0  0
  6  7  1  0  0  0  0
  7  8  2  0  0  0  0
  7 27  1  0  0  0  0
  8  9  1  0  0  0  0
  9 15  1  0  0  0  0
  9 10  2  0  0  0  0
 10 11  1  0  0  0  0
 11 12  2  0  0  0  0
 12 13  1  0  0  0  0
 12 28  1  0  0  0  0
 13 14  1  0  0  0  0
 13 29  1  0  0  0  0
 14 15  1  0  0  0  0
 14 30  1  0  0  0  0
 14 31  1  0  0  0  0
 15 22  1  0  0  0  0
 15 16  1  0  0  0  0
 16 32  1  0  0  0  0
 17 18  1  0  0  0  0
 17 33  1  0  0  0  0
 17 34  1  0  0  0  0
 18 23  1  0  0  0  0
 18 19  1  0  0  0  0
 19 35  1  0  0  0  0
M  END
> <s_m_source_file>
AV-unprocessed.smi

> <i_m_source_file_index>
157

> <i_lp_mmshare_version>
43012

> <i_f3d_flags>
0

> <s_epik_input>
W09IXVtDSDJdW0NASF0xT1tDQEhdKFtDSDJdW0NAQEhdMVtPSF0pbihbY0hdbjIpYyhjMjMpTj1bQ0hdW05IXVtDSDJdW0NASF0zW09IXQ==

> <s_epik_cmdline>
J2VwaWtfcHl0aG9uJywgJy1waCcsICc3LjAnLCAnLXRuJywgJzgnLCAnLW1hJywgJzIwMCcsICctbWV0YWxfYmluZGluZycsICctaW1hZScsICc8aW5maWxlLm1hZT4nLCAnLW9tYWUnLCAnPG91dGZpbGUubWFlPic=

> <r_lp_tautomer_probability>
1

> <r_epik_Ionization_Penalty>
0.0357149

> <r_epik_Ionization_Penalty_Charging>
0.0355056

> <r_epik_Ionization_Penalty_Neutral>
0.000209255

> <r_epik_State_Penalty>
0.0296046

> <r_epik_Charging_Adjusted_Penalty>
0.0651102

> <i_epik_Tot_Q>
0

> <i_epik_Tot_abs_Q>
0

> <r_epik_Metal_State_Penalty>
3.03559e-05

> <b_epik_Metal_Only>
0

> <s_epik_Chemistry_Notes>
This compound has an imine and may undergo hydrolysis. This compound contains an acetal/aminal-like group ( X-CH(R)-Y where X, Y are N, S, or O) that may be acid/base labile, releasing an aldehyde.

> <s_lp_Force_Field>
OPLS_2005

> <r_lp_Energy>
43.2358

> <b_lp_Chiralities_Consistent>
1

> <s_lp_Variant>
AV-unprocessed.smi:157-3

> <Gold.Version>
5.8.1

> <Gold.Id.Protein>
6NUR|6NUR_protein|mol2

> <Gold.PLP.Fitness>
42.5983

> <Gold.PLP.PLP>
-35.3602

> <Gold.PLP.part.hbond>
-4.4031

> <Gold.PLP.part.metal>
0.0000

> <Gold.PLP.part.buried>
-7.5084

> <Gold.PLP.part.nonpolar>
-25.4580

> <Gold.PLP.part.repulsive>
0.1503

> <Gold.PLP.ligand.clash>
0.0000

> <Gold.PLP.ligand.torsion>
0.4584

> <Gold.PLP.Chemscore.Hbond>
2.7120

> <Gold.PLP.Chemscore.CHOScore>
0.0000

> <Gold.PLP.Chemscore.Metal>
0.0000

> <Gold.Chemscore.Hbonds>
donor molecule, donor type, donor heavy atom, donor atom, acceptor molecule, acceptor atom, score
      P1  H  6933  6945       L1     1  0.78
      P1  H  7989  7998       L1     8  0.98
      P1  H 10752 10765       L1    16  0.86

> <Gold.PLP.Chemscore.Internal.Correction>
0.0190

> <Gold.Rescore>
     Score         DG    S(hbond)    S(metal)    S(lipo)     H(rot)  DE(clash)    DE(int)     intcor
      6.57     -10.25       2.07        0.00      61.09       3.64       1.42       2.25       ----

> <Gold.Chemscore.Fitness>
6.5733

> <Gold.Chemscore.DG>
-10.2487

> <Gold.Chemscore.ZeroCoef>
-5.4800

> <Gold.Chemscore.Hbond>
2.0749

> <Gold.Chemscore.Metal>
0.0000

> <Gold.Chemscore.Lipo>
61.0885

> <Gold.Chemscore.Internal_Hbond>
0.0000

> <Gold.Chemscore.DEClash>
1.4248

> <Gold.Chemscore.DEInternal>
2.2506

> <Gold.Chemscore.Rot>
3.6362

> <Gold.Chemscore.Internal.Correction>
   9.000000E+99

> <Gold.Chemscore.Hbonds>
donor molecule, donor type, donor heavy atom, donor atom, acceptor molecule, acceptor atom, score
      P1  H  6933  6945       L1     1  0.17
      P1  H  7989  7998       L1     8  0.64
      P1  H 10752 10765       L1    16  0.67

> <Gold.Chemscore.Hbond.Weighted>
-6.9300

> <Gold.Chemscore.Metal.Weighted>
-0.0000

> <Gold.Chemscore.Lipo.Weighted>
-7.1474

> <Gold.Chemscore.Internal_Hbond.Weighted>
0.0000

> <Gold.Chemscore.DEClash.Weighted>
1.4248

> <Gold.Chemscore.DEInternal.Weighted>
2.2506

> <Gold.Chemscore.Rot.Weighted>
9.3087

> <Gold.Chemscore.Internal.Correction.Weighted>
   9.000000E+99

> <Gold.Protein.RotatedTorsions>
[ 6907 6896 6895 6894 ] final    1.97 input  -60.11 | X-H torsion
[ 7974 7965 7964 7962 ] final  -38.94 input  175.53 | X-H torsion
[ 8008 7997 7996 7995 ] final    6.20 input   59.86 | X-H torsion
[ 10167 10162 10161 10158 ] final  -14.48 input  -65.29 | X-H torsion
[ 10718 10713 10712 10709 ] final  -84.34 input   66.30 | X-H torsion
[ 10763 10752 10751 10750 ] final -178.26 input  -60.55 | X-H torsion
[ 11005 11000 10999 10996 ] final  168.98 input  -57.11 | X-H torsion

> <Gold.Protein.ActiveResidues>
 VAL166  LYS551  ARG553  GLY616  TRP617  ASP618  TYR619  PRO620  LYS621  CYS622 
 ASP623  PHE694  ASN695  SER759  ASP760  ASP761  ALA762  ILE779  LEU786  VAL792 
 PHE793  MET794  SER795  GLU796  ALA797  LYS798  CYS799  TRP800  GLU811  SER814 

> <Gold.Protein.RotatedAtoms>
  151.6013  135.1047  160.0060 H   0  0  0  0  0  0  0  0  0  0  0  0  # atno 6907 bound_to 6896
  152.4256  133.7186  159.6531 H   0  0  0  0  0  0  0  0  0  0  0  0  # atno 6908 bound_to 6896
  150.8145  133.8289  159.3189 H   0  0  0  0  0  0  0  0  0  0  0  0  # atno 6909 bound_to 6896
  146.0441  140.6569  142.9073 H   0  0  0  0  0  0  0  0  0  0  0  0  # atno 7974 bound_to 7965
  154.7379  140.2743  155.6398 H   0  0  0  0  0  0  0  0  0  0  0  0  # atno 8008 bound_to 7997
  156.2866  140.2703  156.2024 H   0  0  0  0  0  0  0  0  0  0  0  0  # atno 8009 bound_to 7997
  155.0296  140.0371  157.2458 H   0  0  0  0  0  0  0  0  0  0  0  0  # atno 8010 bound_to 7997
  140.7202  143.5317  150.9512 H   0  0  0  0  0  0  0  0  0  0  0  0  # atno 10167 bound_to 10162
  156.0007  130.4695  150.4396 H   0  0  0  0  0  0  0  0  0  0  0  0  # atno 10718 bound_to 10713
  154.5499  135.2812  155.1018 H   0  0  0  0  0  0  0  0  0  0  0  0  # atno 10763 bound_to 10752
  154.2468  135.6347  153.5230 H   0  0  0  0  0  0  0  0  0  0  0  0  # atno 10764 bound_to 10752
  153.0000  135.5573  154.6062 H   0  0  0  0  0  0  0  0  0  0  0  0  # atno 10765 bound_to 10752
  140.2929  134.7658  157.3853 H   0  0  0  0  0  0  0  0  0  0  0  0  # atno 11005 bound_to 11000
  144.7089  140.3962  143.7096 LP  0  0  0  0  0  0  0  0  0  0  0  0  # atno 17320 bound_to 7965
  145.6835  139.1623  143.2687 LP  0  0  0  0  0  0  0  0  0  0  0  0  # atno 17321 bound_to 7965
  139.9038  143.6804  152.3127 LP  0  0  0  0  0  0  0  0  0  0  0  0  # atno 17342 bound_to 10162
  139.7163  144.7611  151.1029 LP  0  0  0  0  0  0  0  0  0  0  0  0  # atno 17343 bound_to 10162
  157.2438  131.0531  151.2421 LP  0  0  0  0  0  0  0  0  0  0  0  0  # atno 17370 bound_to 10713
  157.3595  130.7124  149.6492 LP  0  0  0  0  0  0  0  0  0  0  0  0  # atno 17371 bound_to 10713
  140.1179  134.5259  155.8209 LP  0  0  0  0  0  0  0  0  0  0  0  0  # atno 17394 bound_to 11000
  141.2143  133.6746  156.6811 LP  0  0  0  0  0  0  0  0  0  0  0  0  # atno 17395 bound_to 11000

$$$$
