AV-unprocessed.smi:3241|AV-procd|sdf|12387|dock10
  -GOLD-   2272018253D 1   1.00000     0.00000
 Structure written by MMmdl.
 44 45  0  0  0  0  0  0  0  0  2 V2000
  147.2090  134.2376  153.9079 C   0  0  0  0  0  0  0  0  0  0  0  0
  145.8708  133.9573  153.2054 C   0  0  2  0  0  0  0  0  0  0  0  0
  146.0707  133.2547  151.8476 C   0  0  0  0  0  0  0  0  0  0  0  0
  144.7259  132.9514  151.1679 C   0  0  0  0  0  0  0  0  0  0  0  0
  143.8810  134.2246  151.0081 C   0  0  0  0  0  0  0  0  0  0  0  0
  143.6768  134.9319  152.3583 C   0  0  0  0  0  0  0  0  0  0  0  0
  145.0203  135.2376  153.0519 C   0  0  2  0  0  0  0  0  0  0  0  0
  145.7581  136.1792  152.2813 O   0  0  0  0  0  0  0  0  0  0  0  0
  145.5719  137.5313  152.6688 C   0  0  0  0  0  0  0  0  0  0  0  0
  146.5361  138.4032  151.8591 C   0  0  0  0  0  0  0  0  0  0  0  0
  147.8543  138.4746  152.5182 N   0  3  0  0  0  0  0  0  0  0  0  0
  147.7963  138.7087  153.9748 C   0  0  0  0  0  0  0  0  0  0  0  0
  148.8072  139.7794  154.4165 C   0  0  0  0  0  0  0  0  0  0  0  0
  150.0796  139.2076  154.8201 N   0  0  0  0  0  0  0  0  0  0  0  0
  150.5065  137.9009  154.7110 C   0  0  0  0  0  0  0  0  0  0  0  0
  151.7725  137.8442  155.2199 C   0  0  0  0  0  0  0  0  0  0  0  0
  152.0369  139.1832  155.6219 C   0  0  0  0  0  0  0  0  0  0  0  0
  151.0229  139.9977  155.3781 N   0  0  0  0  0  0  0  0  0  0  0  0
  147.8399  134.9036  153.3182 H   0  0  0  0  0  0  0  0  0  0  0  0
  147.7655  133.3146  154.0724 H   0  0  0  0  0  0  0  0  0  0  0  0
  147.0511  134.7042  154.8805 H   0  0  0  0  0  0  0  0  0  0  0  0
  145.3144  133.2723  153.8469 H   0  0  0  0  0  0  0  0  0  0  0  0
  146.6787  133.8792  151.1916 H   0  0  0  0  0  0  0  0  0  0  0  0
  146.6251  132.3259  151.9869 H   0  0  0  0  0  0  0  0  0  0  0  0
  144.8972  132.4939  150.1933 H   0  0  0  0  0  0  0  0  0  0  0  0
  144.1749  132.2197  151.7600 H   0  0  0  0  0  0  0  0  0  0  0  0
  144.3708  134.9028  150.3082 H   0  0  0  0  0  0  0  0  0  0  0  0
  142.9143  133.9752  150.5695 H   0  0  0  0  0  0  0  0  0  0  0  0
  143.1000  135.8454  152.2157 H   0  0  0  0  0  0  0  0  0  0  0  0
  143.0756  134.2942  153.0075 H   0  0  0  0  0  0  0  0  0  0  0  0
  144.8280  135.6379  154.0492 H   0  0  0  0  0  0  0  0  0  0  0  0
  144.5438  137.8422  152.4809 H   0  0  0  0  0  0  0  0  0  0  0  0
  145.7632  137.6519  153.7363 H   0  0  0  0  0  0  0  0  0  0  0  0
  146.6510  138.0035  150.8507 H   0  0  0  0  0  0  0  0  0  0  0  0
  146.1271  139.4099  151.7643 H   0  0  0  0  0  0  0  0  0  0  0  0
  148.3481  137.6084  152.3551 H   0  0  0  0  0  0  0  0  0  0  0  0
  146.7891  139.0310  154.2416 H   0  0  0  0  0  0  0  0  0  0  0  0
  147.9830  137.7720  154.5018 H   0  0  0  0  0  0  0  0  0  0  0  0
  148.9776  140.5008  153.6157 H   0  0  0  0  0  0  0  0  0  0  0  0
  148.4046  140.3415  155.2599 H   0  0  0  0  0  0  0  0  0  0  0  0
  149.8823  137.1291  154.2855 H   0  0  0  0  0  0  0  0  0  0  0  0
  152.4125  136.9775  155.2955 H   0  0  0  0  0  0  0  0  0  0  0  0
  152.9292  139.5850  156.0788 H   0  0  0  0  0  0  0  0  0  0  0  0
  148.3799  139.2251  152.0924 H   0  0  0  0  0  0  0  0  0  0  0  0
  1  2  1  0  0  0  0
  1 19  1  0  0  0  0
  1 20  1  0  0  0  0
  1 21  1  0  0  0  0
  2  7  1  0  0  0  0
  2  3  1  0  0  0  0
  2 22  1  0  0  0  0
  3  4  1  0  0  0  0
  3 23  1  0  0  0  0
  3 24  1  0  0  0  0
  4  5  1  0  0  0  0
  4 25  1  0  0  0  0
  4 26  1  0  0  0  0
  5  6  1  0  0  0  0
  5 27  1  0  0  0  0
  5 28  1  0  0  0  0
  6  7  1  0  0  0  0
  6 29  1  0  0  0  0
  6 30  1  0  0  0  0
  7  8  1  0  0  0  0
  7 31  1  0  0  0  0
  8  9  1  0  0  0  0
  9 10  1  0  0  0  0
  9 32  1  0  0  0  0
  9 33  1  0  0  0  0
 10 11  1  0  0  0  0
 10 34  1  0  0  0  0
 10 35  1  0  0  0  0
 11 12  1  0  0  0  0
 11 36  1  0  0  0  0
 11 44  1  0  0  0  0
 12 13  1  0  0  0  0
 12 37  1  0  0  0  0
 12 38  1  0  0  0  0
 13 14  1  0  0  0  0
 13 39  1  0  0  0  0
 13 40  1  0  0  0  0
 14 18  1  0  0  0  0
 14 15  1  0  0  0  0
 15 16  2  0  0  0  0
 15 41  1  0  0  0  0
 16 17  1  0  0  0  0
 16 42  1  0  0  0  0
 17 18  2  0  0  0  0
 17 43  1  0  0  0  0
M  CHG  1  11   1
M  END
> <s_m_source_file>
AV-unprocessed.smi

> <i_m_source_file_index>
3241

> <i_lp_mmshare_version>
43012

> <i_f3d_flags>
0

> <s_epik_input>
W0NIM11bQ0BASF0xW0NIMl1bQ0gyXVtDSDJdW0NIMl1bQ0BIXTFPW0NIMl1bQ0gyXVtOSF1bQ0gyXVtDSDJdbjJbY0hdW2NIXVtjSF1uMg==

> <s_epik_cmdline>
J2VwaWtfcHl0aG9uJywgJy1waCcsICc3LjAnLCAnLXRuJywgJzgnLCAnLW1hJywgJzIwMCcsICctbWV0YWxfYmluZGluZycsICctaW1hZScsICc8aW5maWxlLm1hZT4nLCAnLW9tYWUnLCAnPG91dGZpbGUubWFlPic=

> <r_lp_tautomer_probability>
1

> <r_epik_Ionization_Penalty>
0.00924946

> <r_epik_Ionization_Penalty_Charging>
0.00924645

> <r_epik_Ionization_Penalty_Neutral>
3.00629e-06

> <r_epik_State_Penalty>
0.0070118

> <r_epik_Charging_Adjusted_Penalty>
0.0162583

> <i_epik_Tot_Q>
1

> <i_epik_Tot_abs_Q>
1

> <r_epik_Metal_State_Penalty>
0.00702523

> <b_epik_Metal_Only>
0

> <s_lp_Force_Field>
OPLS_2005

> <r_lp_Energy>
14.6648

> <b_lp_Chiralities_Consistent>
1

> <s_lp_Variant>
AV-unprocessed.smi:3241-3

> <Gold.Version>
5.8.1

> <Gold.Id.Protein>
6NUR|6NUR_protein|mol2

> <Gold.PLP.Fitness>
46.4626

> <Gold.PLP.PLP>
-33.9484

> <Gold.PLP.part.hbond>
-3.0000

> <Gold.PLP.part.metal>
0.0000

> <Gold.PLP.part.buried>
-2.1669

> <Gold.PLP.part.nonpolar>
-30.1221

> <Gold.PLP.part.repulsive>
0.3028

> <Gold.PLP.ligand.clash>
0.0000

> <Gold.PLP.ligand.torsion>
1.2691

> <Gold.PLP.Chemscore.Hbond>
4.0000

> <Gold.PLP.Chemscore.CHOScore>
1.0000

> <Gold.PLP.Chemscore.Metal>
0.0000

> <Gold.Chemscore.Hbonds>
donor molecule, donor type, donor heavy atom, donor atom, acceptor molecule, acceptor atom, score
      L1  H    11    36       P1  7948  2.00
      L1  H    11    44       P1  7957  1.00
      P1  H  7989  7998       L1    18  0.51
      L1  C    15    41       P1  7948  0.54

> <Gold.PLP.Chemscore.Internal.Correction>
0.0523

> <Gold.Rescore>
     Score         DG    S(hbond)    S(metal)    S(lipo)     H(rot)  DE(clash)    DE(int)     intcor
     16.17     -17.38       1.98        0.00      86.63       1.89       0.14       1.07       ----

> <Gold.Chemscore.Fitness>
16.1712

> <Gold.Chemscore.DG>
-17.3850

> <Gold.Chemscore.ZeroCoef>
-5.4800

> <Gold.Chemscore.Hbond>
1.9789

> <Gold.Chemscore.Metal>
0.0000

> <Gold.Chemscore.Lipo>
86.6285

> <Gold.Chemscore.Internal_Hbond>
0.0000

> <Gold.Chemscore.DEClash>
0.1404

> <Gold.Chemscore.DEInternal>
1.0734

> <Gold.Chemscore.Rot>
1.8906

> <Gold.Chemscore.Internal.Correction>
   9.000000E+99

> <Gold.Chemscore.Hbonds>
donor molecule, donor type, donor heavy atom, donor atom, acceptor molecule, acceptor atom, score
      L1  H    11    36       P1  7948  0.96
      L1  H    11    44       P1  7957  0.99
      P1  H  7989  7998       L1    18  0.02

> <Gold.Chemscore.Hbond.Weighted>
-6.6095

> <Gold.Chemscore.Metal.Weighted>
-0.0000

> <Gold.Chemscore.Lipo.Weighted>
-10.1355

> <Gold.Chemscore.Internal_Hbond.Weighted>
0.0000

> <Gold.Chemscore.DEClash.Weighted>
0.1404

> <Gold.Chemscore.DEInternal.Weighted>
1.0734

> <Gold.Chemscore.Rot.Weighted>
4.8400

> <Gold.Chemscore.Internal.Correction.Weighted>
   9.000000E+99

> <Gold.Protein.RotatedTorsions>
[ 6907 6896 6895 6894 ] final  105.49 input  -60.11 | X-H torsion
[ 7974 7965 7964 7962 ] final  -79.88 input  175.53 | X-H torsion
[ 8008 7997 7996 7995 ] final  -78.55 input   59.86 | X-H torsion
[ 10167 10162 10161 10158 ] final  -89.93 input  -65.29 | X-H torsion
[ 10718 10713 10712 10709 ] final   10.12 input   66.30 | X-H torsion
[ 10763 10752 10751 10750 ] final    4.63 input  -60.55 | X-H torsion
[ 11005 11000 10999 10996 ] final  128.27 input  -57.11 | X-H torsion

> <Gold.Protein.ActiveResidues>
 VAL166  LYS551  ARG553  GLY616  TRP617  ASP618  TYR619  PRO620  LYS621  CYS622 
 ASP623  PHE694  ASN695  SER759  ASP760  ASP761  ALA762  ILE779  LEU786  VAL792 
 PHE793  MET794  SER795  GLU796  ALA797  LYS798  CYS799  TRP800  GLU811  SER814 

> <Gold.Protein.RotatedAtoms>
  152.5228  133.9521  159.7676 H   0  0  0  0  0  0  0  0  0  0  0  0  # atno 6907 bound_to 6896
  150.9829  133.6219  159.2727 H   0  0  0  0  0  0  0  0  0  0  0  0  # atno 6908 bound_to 6896
  151.3390  135.0865  159.9417 H   0  0  0  0  0  0  0  0  0  0  0  0  # atno 6909 bound_to 6896
  145.5673  140.9472  143.1415 H   0  0  0  0  0  0  0  0  0  0  0  0  # atno 7974 bound_to 7965
  154.5700  140.0692  156.8950 H   0  0  0  0  0  0  0  0  0  0  0  0  # atno 8008 bound_to 7997
  155.2652  140.3361  155.4251 H   0  0  0  0  0  0  0  0  0  0  0  0  # atno 8009 bound_to 7997
  156.2111  140.1759  156.7679 H   0  0  0  0  0  0  0  0  0  0  0  0  # atno 8010 bound_to 7997
  140.3599  143.2847  151.9626 H   0  0  0  0  0  0  0  0  0  0  0  0  # atno 10167 bound_to 10162
  156.9763  130.5988  149.5673 H   0  0  0  0  0  0  0  0  0  0  0  0  # atno 10718 bound_to 10713
  153.2690  135.6930  153.7500 H   0  0  0  0  0  0  0  0  0  0  0  0  # atno 10763 bound_to 10752
  153.6531  135.3373  155.3106 H   0  0  0  0  0  0  0  0  0  0  0  0  # atno 10764 bound_to 10752
  154.8457  135.4459  154.1706 H   0  0  0  0  0  0  0  0  0  0  0  0  # atno 10765 bound_to 10752
  139.9552  134.9614  156.8978 H   0  0  0  0  0  0  0  0  0  0  0  0  # atno 11005 bound_to 11000
  144.7454  139.7334  143.7294 LP  0  0  0  0  0  0  0  0  0  0  0  0  # atno 17320 bound_to 7965
  146.1809  139.5001  142.9867 LP  0  0  0  0  0  0  0  0  0  0  0  0  # atno 17321 bound_to 7965
  139.4815  144.6001  151.7620 LP  0  0  0  0  0  0  0  0  0  0  0  0  # atno 17342 bound_to 10162
  140.5137  144.0986  150.6002 LP  0  0  0  0  0  0  0  0  0  0  0  0  # atno 17343 bound_to 10162
  156.0262  130.5356  150.8413 LP  0  0  0  0  0  0  0  0  0  0  0  0  # atno 17370 bound_to 10713
  157.5557  131.0945  150.9631 LP  0  0  0  0  0  0  0  0  0  0  0  0  # atno 17371 bound_to 10713
  140.5626  134.0520  155.7404 LP  0  0  0  0  0  0  0  0  0  0  0  0  # atno 17394 bound_to 11000
  141.1222  133.9442  157.2707 LP  0  0  0  0  0  0  0  0  0  0  0  0  # atno 17395 bound_to 11000

$$$$
