AV-unprocessed.smi:3004|AV-procd|sdf|11442|dock5
  -GOLD-   2272016373D 1   1.00000     0.00000
 Structure written by MMmdl.
 47 48  0  0  0  0  0  0  0  0  2 V2000
  151.4069  144.7035  158.4697 C   0  0  0  0  0  0  0  0  0  0  0  0
  151.9784  143.8589  159.5696 C   0  0  0  0  0  0  0  0  0  0  0  0
  152.1325  144.1888  160.9452 C   0  0  0  0  0  0  0  0  0  0  0  0
  152.6995  143.0754  161.4983 C   0  0  0  0  0  0  0  0  0  0  0  0
  153.1060  142.8019  162.9091 C   0  0  0  0  0  0  0  0  0  0  0  0
  152.8576  142.1560  160.4760 N   0  0  0  0  0  0  0  0  0  0  0  0
  153.4044  140.8096  160.5283 C   0  0  0  0  0  0  0  0  0  0  0  0
  153.4156  140.1648  159.1418 C   0  0  0  0  0  0  0  0  0  0  0  0
  154.4203  139.5749  158.7443 O   0  0  0  0  0  0  0  0  0  0  0  0
  152.2935  140.2843  158.4143 N   0  0  0  0  0  0  0  0  0  0  0  0
  152.0952  139.7198  157.0847 C   0  0  0  0  0  0  0  0  0  0  0  0
  151.4623  140.7404  156.1194 C   0  0  0  0  0  0  0  0  0  0  0  0
  150.0818  140.3424  155.7250 N   0  3  1  0  0  0  0  0  0  0  0  0
  149.2432  141.5469  155.4619 C   0  0  0  0  0  0  0  0  0  0  0  0
  147.7796  141.1856  155.1800 C   0  0  0  0  0  0  0  0  0  0  0  0
  147.6930  140.2341  153.9878 C   0  0  0  0  0  0  0  0  0  0  0  0
  148.5424  138.9937  154.2723 C   0  0  0  0  0  0  0  0  0  0  0  0
  150.0108  139.3435  154.6078 C   0  0  2  0  0  0  0  0  0  0  0  0
  150.7494  138.0254  154.9301 C   0  0  0  0  0  0  0  0  0  0  0  0
  152.4128  142.6399  159.2954 N   0  0  0  0  0  0  0  0  0  0  0  0
  151.1491  145.6992  158.8314 H   0  0  0  0  0  0  0  0  0  0  0  0
  150.5017  144.2546  158.0602 H   0  0  0  0  0  0  0  0  0  0  0  0
  152.1202  144.8220  157.6538 H   0  0  0  0  0  0  0  0  0  0  0  0
  151.8665  145.1058  161.4502 H   0  0  0  0  0  0  0  0  0  0  0  0
  152.8788  143.6530  163.5513 H   0  0  0  0  0  0  0  0  0  0  0  0
  154.1771  142.6106  162.9748 H   0  0  0  0  0  0  0  0  0  0  0  0
  152.5798  141.9335  163.3055 H   0  0  0  0  0  0  0  0  0  0  0  0
  154.4167  140.8441  160.9350 H   0  0  0  0  0  0  0  0  0  0  0  0
  152.8095  140.2077  161.2160 H   0  0  0  0  0  0  0  0  0  0  0  0
  151.5143  140.7791  158.8255 H   0  0  0  0  0  0  0  0  0  0  0  0
  153.0491  139.3642  156.6910 H   0  0  0  0  0  0  0  0  0  0  0  0
  151.4595  138.8420  157.1938 H   0  0  0  0  0  0  0  0  0  0  0  0
  151.4514  141.7364  156.5648 H   0  0  0  0  0  0  0  0  0  0  0  0
  152.1150  140.8223  155.2559 H   0  0  0  0  0  0  0  0  0  0  0  0
  149.2761  142.2228  156.3159 H   0  0  0  0  0  0  0  0  0  0  0  0
  149.6538  142.0971  154.6134 H   0  0  0  0  0  0  0  0  0  0  0  0
  147.3336  140.7229  156.0614 H   0  0  0  0  0  0  0  0  0  0  0  0
  147.2039  142.0891  154.9774 H   0  0  0  0  0  0  0  0  0  0  0  0
  146.6563  139.9487  153.8054 H   0  0  0  0  0  0  0  0  0  0  0  0
  148.0472  140.7308  153.0835 H   0  0  0  0  0  0  0  0  0  0  0  0
  148.0982  138.4402  155.1014 H   0  0  0  0  0  0  0  0  0  0  0  0
  148.5048  138.3293  153.4080 H   0  0  0  0  0  0  0  0  0  0  0  0
  150.4683  139.7918  153.7242 H   0  0  0  0  0  0  0  0  0  0  0  0
  150.5251  137.2631  154.1832 H   0  0  0  0  0  0  0  0  0  0  0  0
  150.4480  137.6279  155.9000 H   0  0  0  0  0  0  0  0  0  0  0  0
  151.8332  138.1294  154.9274 H   0  0  0  0  0  0  0  0  0  0  0  0
  149.6822  139.8776  156.5279 H   0  0  0  0  0  0  0  0  0  0  0  0
  1  2  1  0  0  0  0
  1 21  1  0  0  0  0
  1 22  1  0  0  0  0
  1 23  1  0  0  0  0
  2 20  2  0  0  0  0
  2  3  1  0  0  0  0
  3  4  2  0  0  0  0
  3 24  1  0  0  0  0
  4  5  1  0  0  0  0
  4  6  1  0  0  0  0
  5 25  1  0  0  0  0
  5 26  1  0  0  0  0
  5 27  1  0  0  0  0
  6  7  1  0  0  0  0
  6 20  1  0  0  0  0
  7  8  1  0  0  0  0
  7 28  1  0  0  0  0
  7 29  1  0  0  0  0
  8  9  2  0  0  0  0
  8 10  1  0  0  0  0
 10 11  1  0  0  0  0
 10 30  1  0  0  0  0
 11 12  1  0  0  0  0
 11 31  1  0  0  0  0
 11 32  1  0  0  0  0
 12 13  1  0  0  0  0
 12 33  1  0  0  0  0
 12 34  1  0  0  0  0
 13 18  1  0  0  0  0
 13 14  1  0  0  0  0
 13 47  1  0  0  0  0
 14 15  1  0  0  0  0
 14 35  1  0  0  0  0
 14 36  1  0  0  0  0
 15 16  1  0  0  0  0
 15 37  1  0  0  0  0
 15 38  1  0  0  0  0
 16 17  1  0  0  0  0
 16 39  1  0  0  0  0
 16 40  1  0  0  0  0
 17 18  1  0  0  0  0
 17 41  1  0  0  0  0
 17 42  1  0  0  0  0
 18 19  1  0  0  0  0
 18 43  1  0  0  0  0
 19 44  1  0  0  0  0
 19 45  1  0  0  0  0
 19 46  1  0  0  0  0
M  CHG  1  13   1
M  END
> <s_m_source_file>
AV-unprocessed.smi

> <i_m_source_file_index>
3004

> <i_lp_mmshare_version>
43012

> <i_f3d_flags>
0

> <s_epik_input>
W0NIM11jMVtjSF1jKFtDSDNdKW4objEpW0NIMl1DKD1PKVtOSF1bQ0gyXVtDSDJdTjJbQ0gyXVtDSDJdW0NIMl1bQ0gyXVtDQEhdMltDSDNd

> <s_epik_cmdline>
J2VwaWtfcHl0aG9uJywgJy1waCcsICc3LjAnLCAnLXRuJywgJzgnLCAnLW1hJywgJzIwMCcsICctbWV0YWxfYmluZGluZycsICctaW1hZScsICc8aW5maWxlLm1hZT4nLCAnLW9tYWUnLCAnPG91dGZpbGUubWFlPic=

> <r_lp_tautomer_probability>
1

> <r_epik_Ionization_Penalty>
0.00303644

> <r_epik_Ionization_Penalty_Charging>
0.00284254

> <r_epik_Ionization_Penalty_Neutral>
0.000193908

> <r_epik_State_Penalty>
-0

> <r_epik_Charging_Adjusted_Penalty>
0.00284254

> <i_epik_Tot_Q>
1

> <i_epik_Tot_abs_Q>
1

> <r_epik_Metal_State_Penalty>
-0

> <b_epik_Metal_Only>
0

> <s_lp_Force_Field>
OPLS_2005

> <r_lp_Energy>
17.2859

> <b_lp_Chiralities_Consistent>
1

> <s_lp_Variant>
AV-unprocessed.smi:3004-4

> <Gold.Version>
5.8.1

> <Gold.Id.Protein>
6NUR|6NUR_protein|mol2

> <Gold.PLP.Fitness>
49.2902

> <Gold.PLP.PLP>
-48.1027

> <Gold.PLP.part.hbond>
-1.0000

> <Gold.PLP.part.metal>
0.0000

> <Gold.PLP.part.buried>
-4.1343

> <Gold.PLP.part.nonpolar>
-42.5002

> <Gold.PLP.part.repulsive>
0.1941

> <Gold.PLP.ligand.clash>
0.0000

> <Gold.PLP.ligand.torsion>
0.9250

> <Gold.PLP.Chemscore.Hbond>
1.0000

> <Gold.PLP.Chemscore.CHOScore>
0.0000

> <Gold.PLP.Chemscore.Metal>
0.0000

> <Gold.Chemscore.Hbonds>
donor molecule, donor type, donor heavy atom, donor atom, acceptor molecule, acceptor atom, score
      P1  H  7997  8008       L1     9  1.00

> <Gold.PLP.Chemscore.Internal.Correction>
0.0375

> <Gold.Rescore>
     Score         DG    S(hbond)    S(metal)    S(lipo)     H(rot)  DE(clash)    DE(int)     intcor
     15.90     -18.90       0.93        0.00     124.52       1.67       0.21       2.79       ----

> <Gold.Chemscore.Fitness>
15.8982

> <Gold.Chemscore.DG>
-18.8987

> <Gold.Chemscore.ZeroCoef>
-5.4800

> <Gold.Chemscore.Hbond>
0.9322

> <Gold.Chemscore.Metal>
0.0000

> <Gold.Chemscore.Lipo>
124.5233

> <Gold.Chemscore.Internal_Hbond>
0.0000

> <Gold.Chemscore.DEClash>
0.2114

> <Gold.Chemscore.DEInternal>
2.7891

> <Gold.Chemscore.Rot>
1.6657

> <Gold.Chemscore.Internal.Correction>
   9.000000E+99

> <Gold.Chemscore.Hbonds>
donor molecule, donor type, donor heavy atom, donor atom, acceptor molecule, acceptor atom, score
      P1  H  7997  8008       L1     9  0.97

> <Gold.Chemscore.Hbond.Weighted>
-3.1135

> <Gold.Chemscore.Metal.Weighted>
-0.0000

> <Gold.Chemscore.Lipo.Weighted>
-14.5692

> <Gold.Chemscore.Internal_Hbond.Weighted>
0.0000

> <Gold.Chemscore.DEClash.Weighted>
0.2114

> <Gold.Chemscore.DEInternal.Weighted>
2.7891

> <Gold.Chemscore.Rot.Weighted>
4.2641

> <Gold.Chemscore.Internal.Correction.Weighted>
   9.000000E+99

> <Gold.Protein.RotatedTorsions>
[ 6907 6896 6895 6894 ] final  173.37 input  -60.11 | X-H torsion
[ 7974 7965 7964 7962 ] final  -98.93 input  175.53 | X-H torsion
[ 8008 7997 7996 7995 ] final -122.12 input   59.86 | X-H torsion
[ 10167 10162 10161 10158 ] final -107.26 input  -65.29 | X-H torsion
[ 10718 10713 10712 10709 ] final  122.41 input   66.30 | X-H torsion
[ 10763 10752 10751 10750 ] final  -58.43 input  -60.55 | X-H torsion
[ 11005 11000 10999 10996 ] final   38.94 input  -57.11 | X-H torsion

> <Gold.Protein.ActiveResidues>
 VAL166  LYS551  ARG553  GLY616  TRP617  ASP618  TYR619  PRO620  LYS621  CYS622 
 ASP623  PHE694  ASN695  SER759  ASP760  ASP761  ALA762  ILE779  LEU786  VAL792 
 PHE793  MET794  SER795  GLU796  ALA797  LYS798  CYS799  TRP800  GLU811  SER814 

> <Gold.Protein.RotatedAtoms>
  151.7694  133.3340  159.3439 H   0  0  0  0  0  0  0  0  0  0  0  0  # atno 6907 bound_to 6896
  150.7467  134.6033  159.6057 H   0  0  0  0  0  0  0  0  0  0  0  0  # atno 6908 bound_to 6896
  152.3352  134.7209  160.0330 H   0  0  0  0  0  0  0  0  0  0  0  0  # atno 6909 bound_to 6896
  145.3142  140.9407  143.2752 H   0  0  0  0  0  0  0  0  0  0  0  0  # atno 7974 bound_to 7965
  155.1591  140.0405  157.2838 H   0  0  0  0  0  0  0  0  0  0  0  0  # atno 8008 bound_to 7997
  154.6349  140.2533  155.7362 H   0  0  0  0  0  0  0  0  0  0  0  0  # atno 8009 bound_to 7997
  156.2504  140.2867  156.0718 H   0  0  0  0  0  0  0  0  0  0  0  0  # atno 8010 bound_to 7997
  140.1789  143.3983  152.1297 H   0  0  0  0  0  0  0  0  0  0  0  0  # atno 10167 bound_to 10162
  157.5744  131.1080  150.8307 H   0  0  0  0  0  0  0  0  0  0  0  0  # atno 10718 bound_to 10713
  154.2380  135.6348  153.5197 H   0  0  0  0  0  0  0  0  0  0  0  0  # atno 10763 bound_to 10752
  152.9935  135.5535  154.5941 H   0  0  0  0  0  0  0  0  0  0  0  0  # atno 10764 bound_to 10752
  154.5440  135.2897  155.1044 H   0  0  0  0  0  0  0  0  0  0  0  0  # atno 10765 bound_to 10752
  140.2077  134.3793  155.8064 H   0  0  0  0  0  0  0  0  0  0  0  0  # atno 11005 bound_to 11000
  144.8991  139.4673  143.6641 LP  0  0  0  0  0  0  0  0  0  0  0  0  # atno 17320 bound_to 7965
  146.3106  139.7734  142.9022 LP  0  0  0  0  0  0  0  0  0  0  0  0  # atno 17321 bound_to 7965
  139.5305  144.7153  151.5074 LP  0  0  0  0  0  0  0  0  0  0  0  0  # atno 17342 bound_to 10162
  140.6533  143.8652  150.6808 LP  0  0  0  0  0  0  0  0  0  0  0  0  # atno 17343 bound_to 10162
  156.8769  130.5166  149.5293 LP  0  0  0  0  0  0  0  0  0  0  0  0  # atno 17370 bound_to 10713
  156.0789  130.5804  150.9525 LP  0  0  0  0  0  0  0  0  0  0  0  0  # atno 17371 bound_to 10713
  141.2227  133.7126  156.8365 LP  0  0  0  0  0  0  0  0  0  0  0  0  # atno 17394 bound_to 11000
  140.1985  134.8914  157.3142 LP  0  0  0  0  0  0  0  0  0  0  0  0  # atno 17395 bound_to 11000

$$$$
