AV-unprocessed.smi:2709|AV-procd|sdf|10462|dock3
  -GOLD-   2272014503D 1   1.00000     0.00000
 Structure written by MMmdl.
 40 42  0  0  0  0  0  0  0  0  1 V2000
  144.2510  134.8526  155.3289 C   0  0  0  0  0  0  0  0  0  0  0  0
  144.9802  135.3796  154.2333 O   0  0  0  0  0  0  0  0  0  0  0  0
  144.1604  136.0019  153.2475 C   0  0  2  0  0  0  0  0  0  0  0  0
  143.3160  134.8987  152.6069 C   0  0  0  0  0  0  0  0  0  0  0  0
  144.2362  134.2821  151.5569 C   0  0  0  0  0  0  0  0  0  0  0  0
  145.0356  135.4631  150.9997 C   0  0  0  0  0  0  0  0  0  0  0  0
  145.0205  136.5550  152.0876 C   0  0  2  0  0  0  0  0  0  0  0  0
  146.3776  136.9085  152.4998 N   0  0  0  0  0  0  0  0  0  0  0  0
  146.6851  137.8804  153.3692 C   0  0  0  0  0  0  0  0  0  0  0  0
  145.8426  138.5931  153.9140 O   0  0  0  0  0  0  0  0  0  0  0  0
  148.0138  137.9668  153.5495 N   0  0  0  0  0  0  0  0  0  0  0  0
  148.7406  138.8713  154.3697 C   0  0  0  0  0  0  0  0  0  0  0  0
  150.0690  139.1905  154.0183 C   0  0  0  0  0  0  0  0  0  0  0  0
  150.8209  140.0388  154.7520 N   0  0  0  0  0  0  0  0  0  0  0  0
  150.2539  140.5546  155.8459 C   0  0  0  0  0  0  0  0  0  0  0  0
  151.0698  141.5380  156.6268 C   0  0  0  0  0  0  0  0  0  0  0  0
  151.5289  141.2239  158.0360 C   0  0  0  0  0  0  0  0  0  0  0  0
  150.4761  142.2734  157.8111 C   0  0  0  0  0  0  0  0  0  0  0  0
  149.0117  140.3269  156.2807 N   0  0  0  0  0  0  0  0  0  0  0  0
  148.2515  139.4808  155.5519 C   0  0  0  0  0  0  0  0  0  0  0  0
  144.9388  134.4078  156.0478 H   0  0  0  0  0  0  0  0  0  0  0  0
  143.5566  134.0781  155.0005 H   0  0  0  0  0  0  0  0  0  0  0  0
  143.6887  135.6348  155.8407 H   0  0  0  0  0  0  0  0  0  0  0  0
  143.5261  136.7811  153.6755 H   0  0  0  0  0  0  0  0  0  0  0  0
  142.9496  134.1690  153.3298 H   0  0  0  0  0  0  0  0  0  0  0  0
  142.4485  135.3408  152.1149 H   0  0  0  0  0  0  0  0  0  0  0  0
  144.9131  133.5734  152.0360 H   0  0  0  0  0  0  0  0  0  0  0  0
  143.6879  133.7445  150.7827 H   0  0  0  0  0  0  0  0  0  0  0  0
  146.0431  135.1560  150.7158 H   0  0  0  0  0  0  0  0  0  0  0  0
  144.5531  135.8429  150.0982 H   0  0  0  0  0  0  0  0  0  0  0  0
  144.5280  137.4346  151.6682 H   0  0  0  0  0  0  0  0  0  0  0  0
  147.1300  136.3650  152.1033 H   0  0  0  0  0  0  0  0  0  0  0  0
  148.5771  137.3422  152.9910 H   0  0  0  0  0  0  0  0  0  0  0  0
  150.5323  138.7686  153.1382 H   0  0  0  0  0  0  0  0  0  0  0  0
  151.7535  142.0848  155.9800 H   0  0  0  0  0  0  0  0  0  0  0  0
  151.2092  140.2820  158.4779 H   0  0  0  0  0  0  0  0  0  0  0  0
  152.5222  141.5609  158.3251 H   0  0  0  0  0  0  0  0  0  0  0  0
  150.7639  143.3136  157.9498 H   0  0  0  0  0  0  0  0  0  0  0  0
  149.4566  142.0292  158.1033 H   0  0  0  0  0  0  0  0  0  0  0  0
  147.2629  139.2974  155.9413 H   0  0  0  0  0  0  0  0  0  0  0  0
  1  2  1  0  0  0  0
  1 21  1  0  0  0  0
  1 22  1  0  0  0  0
  1 23  1  0  0  0  0
  2  3  1  0  0  0  0
  3  7  1  0  0  0  0
  3  4  1  0  0  0  0
  3 24  1  0  0  0  0
  4  5  1  0  0  0  0
  4 25  1  0  0  0  0
  4 26  1  0  0  0  0
  5  6  1  0  0  0  0
  5 27  1  0  0  0  0
  5 28  1  0  0  0  0
  6  7  1  0  0  0  0
  6 29  1  0  0  0  0
  6 30  1  0  0  0  0
  7  8  1  0  0  0  0
  7 31  1  0  0  0  0
  8  9  1  0  0  0  0
  8 32  1  0  0  0  0
  9 10  2  0  0  0  0
  9 11  1  0  0  0  0
 11 12  1  0  0  0  0
 11 33  1  0  0  0  0
 12 20  1  0  0  0  0
 12 13  2  0  0  0  0
 13 14  1  0  0  0  0
 13 34  1  0  0  0  0
 14 15  2  0  0  0  0
 15 16  1  0  0  0  0
 15 19  1  0  0  0  0
 16 18  1  0  0  0  0
 16 17  1  0  0  0  0
 16 35  1  0  0  0  0
 17 18  1  0  0  0  0
 17 36  1  0  0  0  0
 17 37  1  0  0  0  0
 18 38  1  0  0  0  0
 18 39  1  0  0  0  0
 19 20  2  0  0  0  0
 20 40  1  0  0  0  0
M  END
> <s_m_source_file>
AV-unprocessed.smi

> <i_m_source_file_index>
2709

> <i_lp_mmshare_version>
43012

> <i_f3d_flags>
0

> <s_epik_input>
W0NIM11PW0NAQEhdMVtDSDJdW0NIMl1bQ0gyXVtDQEhdMVtOSF1DKD1PKVtOSF1jMltjSF1uYyhuW2NIXTIpW0NIXTNbQ0gyXVtDSDJdMw==

> <s_epik_cmdline>
J2VwaWtfcHl0aG9uJywgJy1waCcsICc3LjAnLCAnLXRuJywgJzgnLCAnLW1hJywgJzIwMCcsICctbWV0YWxfYmluZGluZycsICctaW1hZScsICc8aW5maWxlLm1hZT4nLCAnLW9tYWUnLCAnPG91dGZpbGUubWFlPic=

> <r_lp_tautomer_probability>
1

> <r_epik_Ionization_Penalty>
2.49969e-05

> <r_epik_Ionization_Penalty_Charging>
0

> <r_epik_Ionization_Penalty_Neutral>
2.49969e-05

> <r_epik_State_Penalty>
-0

> <r_epik_Charging_Adjusted_Penalty>
0

> <i_epik_Tot_Q>
0

> <i_epik_Tot_abs_Q>
0

> <r_epik_Metal_State_Penalty>
-0

> <b_epik_Metal_Only>
0

> <s_lp_Force_Field>
OPLS_2005

> <r_lp_Energy>
20.8159

> <b_lp_Chiralities_Consistent>
1

> <s_lp_Variant>
AV-unprocessed.smi:2709-3

> <Gold.Version>
5.8.1

> <Gold.Id.Protein>
6NUR|6NUR_protein|mol2

> <Gold.PLP.Fitness>
37.0492

> <Gold.PLP.PLP>
-26.9486

> <Gold.PLP.part.hbond>
-3.0000

> <Gold.PLP.part.metal>
0.0000

> <Gold.PLP.part.buried>
-3.2452

> <Gold.PLP.part.nonpolar>
-21.5100

> <Gold.PLP.part.repulsive>
0.3631

> <Gold.PLP.ligand.clash>
0.0000

> <Gold.PLP.ligand.torsion>
0.2509

> <Gold.PLP.Chemscore.Hbond>
2.9440

> <Gold.PLP.Chemscore.CHOScore>
0.5446

> <Gold.PLP.Chemscore.Metal>
0.0000

> <Gold.Chemscore.Hbonds>
donor molecule, donor type, donor heavy atom, donor atom, acceptor molecule, acceptor atom, score
      L1  H     8    32       P1  7948  0.94
      L1  H    11    33       P1  7948  1.00
      P1  H  7989  7998       L1    14  1.00
      L1  C    13    34       P1  7957  0.55

> <Gold.PLP.Chemscore.Internal.Correction>
0.1365

> <Gold.Rescore>
     Score         DG    S(hbond)    S(metal)    S(lipo)     H(rot)  DE(clash)    DE(int)     intcor
     15.65     -17.39       2.48        0.00      61.93       1.41       1.34       0.39       ----

> <Gold.Chemscore.Fitness>
15.6528

> <Gold.Chemscore.DG>
-17.3899

> <Gold.Chemscore.ZeroCoef>
-5.4800

> <Gold.Chemscore.Hbond>
2.4783

> <Gold.Chemscore.Metal>
0.0000

> <Gold.Chemscore.Lipo>
61.9297

> <Gold.Chemscore.Internal_Hbond>
0.0000

> <Gold.Chemscore.DEClash>
1.3427

> <Gold.Chemscore.DEInternal>
0.3945

> <Gold.Chemscore.Rot>
1.4114

> <Gold.Chemscore.Internal.Correction>
   9.000000E+99

> <Gold.Chemscore.Hbonds>
donor molecule, donor type, donor heavy atom, donor atom, acceptor molecule, acceptor atom, score
      L1  H     8    32       P1  7948  0.91
      L1  H    11    33       P1  7948  0.99
      P1  H  7989  7998       L1    14  0.26

> <Gold.Chemscore.Hbond.Weighted>
-8.2774

> <Gold.Chemscore.Metal.Weighted>
-0.0000

> <Gold.Chemscore.Lipo.Weighted>
-7.2458

> <Gold.Chemscore.Internal_Hbond.Weighted>
0.0000

> <Gold.Chemscore.DEClash.Weighted>
1.3427

> <Gold.Chemscore.DEInternal.Weighted>
0.3945

> <Gold.Chemscore.Rot.Weighted>
3.6133

> <Gold.Chemscore.Internal.Correction.Weighted>
   9.000000E+99

> <Gold.Protein.RotatedTorsions>
[ 6907 6896 6895 6894 ] final  -51.18 input  -60.11 | X-H torsion
[ 7974 7965 7964 7962 ] final -129.50 input  175.53 | X-H torsion
[ 8008 7997 7996 7995 ] final  131.48 input   59.86 | X-H torsion
[ 10167 10162 10161 10158 ] final  103.70 input  -65.29 | X-H torsion
[ 10718 10713 10712 10709 ] final -143.61 input   66.30 | X-H torsion
[ 10763 10752 10751 10750 ] final   39.90 input  -60.55 | X-H torsion
[ 11005 11000 10999 10996 ] final -122.84 input  -57.11 | X-H torsion

> <Gold.Protein.ActiveResidues>
 VAL166  LYS551  ARG553  GLY616  TRP617  ASP618  TYR619  PRO620  LYS621  CYS622 
 ASP623  PHE694  ASN695  SER759  ASP760  ASP761  ALA762  ILE779  LEU786  VAL792 
 PHE793  MET794  SER795  GLU796  ALA797  LYS798  CYS799  TRP800  GLU811  SER814 

> <Gold.Protein.RotatedAtoms>
  150.8635  134.7993  159.7100 H   0  0  0  0  0  0  0  0  0  0  0  0  # atno 6907 bound_to 6896
  152.4664  134.5061  159.9749 H   0  0  0  0  0  0  0  0  0  0  0  0  # atno 6908 bound_to 6896
  151.5161  133.3437  159.2929 H   0  0  0  0  0  0  0  0  0  0  0  0  # atno 6909 bound_to 6896
  144.9566  140.7402  143.4755 H   0  0  0  0  0  0  0  0  0  0  0  0  # atno 7974 bound_to 7965
  156.2970  140.2570  156.2933 H   0  0  0  0  0  0  0  0  0  0  0  0  # atno 8008 bound_to 7997
  154.9488  140.0394  157.2152 H   0  0  0  0  0  0  0  0  0  0  0  0  # atno 8009 bound_to 7997
  154.8055  140.2835  155.5895 H   0  0  0  0  0  0  0  0  0  0  0  0  # atno 8010 bound_to 7997
  139.7241  144.7051  151.0826 H   0  0  0  0  0  0  0  0  0  0  0  0  # atno 10167 bound_to 10162
  156.3600  130.7733  151.1899 H   0  0  0  0  0  0  0  0  0  0  0  0  # atno 10718 bound_to 10713
  152.9952  135.6207  154.2540 H   0  0  0  0  0  0  0  0  0  0  0  0  # atno 10763 bound_to 10752
  154.2278  135.2793  155.2903 H   0  0  0  0  0  0  0  0  0  0  0  0  # atno 10764 bound_to 10752
  154.5475  135.5743  153.6951 H   0  0  0  0  0  0  0  0  0  0  0  0  # atno 10765 bound_to 10752
  140.9964  134.0465  157.3591 H   0  0  0  0  0  0  0  0  0  0  0  0  # atno 11005 bound_to 11000
  145.2763  139.1935  143.4815 LP  0  0  0  0  0  0  0  0  0  0  0  0  # atno 17320 bound_to 7965
  146.3339  140.2717  142.8606 LP  0  0  0  0  0  0  0  0  0  0  0  0  # atno 17321 bound_to 7965
  140.7759  143.5128  150.9631 LP  0  0  0  0  0  0  0  0  0  0  0  0  # atno 17342 bound_to 10162
  139.8816  143.7065  152.3156 LP  0  0  0  0  0  0  0  0  0  0  0  0  # atno 17343 bound_to 10162
  157.7472  131.0403  150.4590 LP  0  0  0  0  0  0  0  0  0  0  0  0  # atno 17370 bound_to 10713
  156.4799  130.4071  149.6467 LP  0  0  0  0  0  0  0  0  0  0  0  0  # atno 17371 bound_to 10713
  139.9017  135.0167  156.7299 LP  0  0  0  0  0  0  0  0  0  0  0  0  # atno 17394 bound_to 11000
  140.6958  133.9349  155.7994 LP  0  0  0  0  0  0  0  0  0  0  0  0  # atno 17395 bound_to 11000

$$$$
