AV-unprocessed.smi:1051|AV-procd|sdf|4614|dock2
  -GOLD-   22720 3113D 1   1.00000     0.00000
 Structure written by MMmdl.
 45 47  0  0  0  0  0  0  0  0  1 V2000
  143.5319  142.7297  156.7926 C   0  0  0  0  0  0  0  0  0  0  0  0
  144.9302  142.3688  157.2918 C   0  0  0  0  0  0  0  0  0  0  0  0
  145.1644  142.4461  158.4974 O   0  0  0  0  0  0  0  0  0  0  0  0
  145.9400  141.9391  156.2825 C   0  0  0  0  0  0  0  0  0  0  0  0
  145.6250  141.8513  154.9067 C   0  0  0  0  0  0  0  0  0  0  0  0
  146.6013  141.4427  153.9798 C   0  0  0  0  0  0  0  0  0  0  0  0
  147.8999  141.1171  154.4122 C   0  0  0  0  0  0  0  0  0  0  0  0
  148.2359  141.1976  155.7857 C   0  0  0  0  0  0  0  0  0  0  0  0
  149.4797  140.8965  156.2981 O   0  0  0  0  0  0  0  0  0  0  0  0
  150.4576  140.3501  155.4204 C   0  0  0  0  0  0  0  0  0  0  0  0
  151.8505  140.4188  156.0697 C   0  0  2  0  0  0  0  0  0  0  0  0
  152.7861  139.9057  155.1428 O   0  0  0  0  0  0  0  0  0  0  0  0
  151.9376  139.6490  157.4032 C   0  0  0  0  0  0  0  0  0  0  0  0
  152.4738  140.4868  158.4738 N   0  0  0  0  0  0  0  0  0  0  0  0
  153.4089  140.1289  159.3852 C   0  0  0  0  0  0  0  0  0  0  0  0
  153.9628  139.0322  159.4587 O   0  0  0  0  0  0  0  0  0  0  0  0
  153.6393  141.1931  160.1893 N   0  0  0  0  0  0  0  0  0  0  0  0
  154.5738  141.2635  161.3060 C   0  0  0  0  0  0  0  0  0  0  0  0
  152.8478  142.2684  159.7665 C   0  0  0  0  0  0  0  0  0  0  0  0
  152.7377  143.5813  160.2557 C   0  0  0  0  0  0  0  0  0  0  0  0
  151.8365  144.4448  159.5895 C   0  0  0  0  0  0  0  0  0  0  0  0
  151.0841  143.9909  158.4748 C   0  0  0  0  0  0  0  0  0  0  0  0
  151.2153  142.6635  158.0033 C   0  0  0  0  0  0  0  0  0  0  0  0
  152.1150  141.8260  158.6855 C   0  0  0  0  0  0  0  0  0  0  0  0
  147.2489  141.6100  156.7046 C   0  0  0  0  0  0  0  0  0  0  0  0
  143.5792  143.5658  156.0949 H   0  0  0  0  0  0  0  0  0  0  0  0
  142.8917  143.0183  157.6268 H   0  0  0  0  0  0  0  0  0  0  0  0
  143.0733  141.8775  156.2908 H   0  0  0  0  0  0  0  0  0  0  0  0
  144.6394  142.0926  154.5379 H   0  0  0  0  0  0  0  0  0  0  0  0
  146.3524  141.3784  152.9307 H   0  0  0  0  0  0  0  0  0  0  0  0
  148.6194  140.8083  153.6696 H   0  0  0  0  0  0  0  0  0  0  0  0
  150.2148  139.3208  155.1499 H   0  0  0  0  0  0  0  0  0  0  0  0
  150.4734  140.9380  154.5010 H   0  0  0  0  0  0  0  0  0  0  0  0
  152.0916  141.4708  156.2295 H   0  0  0  0  0  0  0  0  0  0  0  0
  152.7399  138.9617  155.1585 H   0  0  0  0  0  0  0  0  0  0  0  0
  150.9419  139.3233  157.7061 H   0  0  0  0  0  0  0  0  0  0  0  0
  152.5227  138.7342  157.2918 H   0  0  0  0  0  0  0  0  0  0  0  0
  154.0761  141.6599  162.1914 H   0  0  0  0  0  0  0  0  0  0  0  0
  155.4073  141.9215  161.0577 H   0  0  0  0  0  0  0  0  0  0  0  0
  154.9794  140.2838  161.5624 H   0  0  0  0  0  0  0  0  0  0  0  0
  153.3164  143.9198  161.1023 H   0  0  0  0  0  0  0  0  0  0  0  0
  151.7210  145.4624  159.9327 H   0  0  0  0  0  0  0  0  0  0  0  0
  150.4034  144.6679  157.9796 H   0  0  0  0  0  0  0  0  0  0  0  0
  150.6477  142.3140  157.1536 H   0  0  0  0  0  0  0  0  0  0  0  0
  147.5133  141.6690  157.7509 H   0  0  0  0  0  0  0  0  0  0  0  0
  1  2  1  0  0  0  0
  1 26  1  0  0  0  0
  1 27  1  0  0  0  0
  1 28  1  0  0  0  0
  2  3  2  0  0  0  0
  2  4  1  0  0  0  0
  4 25  1  0  0  0  0
  4  5  2  0  0  0  0
  5  6  1  0  0  0  0
  5 29  1  0  0  0  0
  6  7  2  0  0  0  0
  6 30  1  0  0  0  0
  7  8  1  0  0  0  0
  7 31  1  0  0  0  0
  8  9  1  0  0  0  0
  8 25  2  0  0  0  0
  9 10  1  0  0  0  0
 10 11  1  0  0  0  0
 10 32  1  0  0  0  0
 10 33  1  0  0  0  0
 11 12  1  0  0  0  0
 11 13  1  0  0  0  0
 11 34  1  0  0  0  0
 12 35  1  0  0  0  0
 13 14  1  0  0  0  0
 13 36  1  0  0  0  0
 13 37  1  0  0  0  0
 14 24  1  0  0  0  0
 14 15  1  0  0  0  0
 15 16  2  0  0  0  0
 15 17  1  0  0  0  0
 17 18  1  0  0  0  0
 17 19  1  0  0  0  0
 18 38  1  0  0  0  0
 18 39  1  0  0  0  0
 18 40  1  0  0  0  0
 19 24  2  0  0  0  0
 19 20  1  0  0  0  0
 20 21  2  0  0  0  0
 20 41  1  0  0  0  0
 21 22  1  0  0  0  0
 21 42  1  0  0  0  0
 22 23  2  0  0  0  0
 22 43  1  0  0  0  0
 23 24  1  0  0  0  0
 23 44  1  0  0  0  0
 25 45  1  0  0  0  0
M  END
> <s_m_source_file>
AV-unprocessed.smi

> <i_m_source_file_index>
1051

> <i_lp_mmshare_version>
43012

> <i_f3d_flags>
0

> <s_epik_input>
W0NIM11DKD1PKWMxW2NIXVtjSF1bY0hdYyhbY0hdMSlPW0NIMl1bQ0BIXShbT0hdKVtDSDJdbihjKD1PKW4yW0NIM10pYyhjMjMpW2NIXVtjSF1bY0hdW2NIXTM=

> <s_epik_cmdline>
J2VwaWtfcHl0aG9uJywgJy1waCcsICc3LjAnLCAnLXRuJywgJzgnLCAnLW1hJywgJzIwMCcsICctbWV0YWxfYmluZGluZycsICctaW1hZScsICc8aW5maWxlLm1hZT4nLCAnLW9tYWUnLCAnPG91dGZpbGUubWFlPic=

> <r_lp_tautomer_probability>
1

> <r_epik_Ionization_Penalty>
2.40143e-06

> <r_epik_Ionization_Penalty_Charging>
2.1343e-09

> <r_epik_Ionization_Penalty_Neutral>
2.3993e-06

> <r_epik_State_Penalty>
-0

> <r_epik_Charging_Adjusted_Penalty>
2.1343e-09

> <i_epik_Tot_Q>
0

> <i_epik_Tot_abs_Q>
0

> <r_epik_Metal_State_Penalty>
-0

> <b_epik_Metal_Only>
0

> <s_lp_Force_Field>
OPLS_2005

> <r_lp_Energy>
56.3875

> <b_lp_Chiralities_Consistent>
1

> <s_lp_Variant>
AV-unprocessed.smi:1051-1

> <Gold.Version>
5.8.1

> <Gold.Id.Protein>
6NUR|6NUR_protein|mol2

> <Gold.PLP.Fitness>
54.7752

> <Gold.PLP.PLP>
-53.7900

> <Gold.PLP.part.hbond>
-1.0000

> <Gold.PLP.part.metal>
0.0000

> <Gold.PLP.part.buried>
-4.1814

> <Gold.PLP.part.nonpolar>
-49.1449

> <Gold.PLP.part.repulsive>
0.1957

> <Gold.PLP.ligand.clash>
0.0000

> <Gold.PLP.ligand.torsion>
1.0240

> <Gold.PLP.Chemscore.Hbond>
1.0000

> <Gold.PLP.Chemscore.CHOScore>
0.0000

> <Gold.PLP.Chemscore.Metal>
0.0000

> <Gold.Chemscore.Hbonds>
donor molecule, donor type, donor heavy atom, donor atom, acceptor molecule, acceptor atom, score
      P1  H  7989  7998       L1    12  0.14
      P1  H  7997  8010       L1    12  1.00

> <Gold.PLP.Chemscore.Internal.Correction>
0.0333

> <Gold.Rescore>
     Score         DG    S(hbond)    S(metal)    S(lipo)     H(rot)  DE(clash)    DE(int)     intcor
     15.19     -16.21       0.64        0.00     123.68       2.30       0.10       0.93       ----

> <Gold.Chemscore.Fitness>
15.1887

> <Gold.Chemscore.DG>
-16.2125

> <Gold.Chemscore.ZeroCoef>
-5.4800

> <Gold.Chemscore.Hbond>
0.6426

> <Gold.Chemscore.Metal>
0.0000

> <Gold.Chemscore.Lipo>
123.6761

> <Gold.Chemscore.Internal_Hbond>
0.0000

> <Gold.Chemscore.DEClash>
0.0953

> <Gold.Chemscore.DEInternal>
0.9284

> <Gold.Chemscore.Rot>
2.2984

> <Gold.Chemscore.Internal.Correction>
   9.000000E+99

> <Gold.Chemscore.Hbonds>
donor molecule, donor type, donor heavy atom, donor atom, acceptor molecule, acceptor atom, score
      P1  H  7989  7998       L1    12  0.01
      P1  H  7997  8010       L1    12  0.07

> <Gold.Chemscore.Hbond.Weighted>
-2.1462

> <Gold.Chemscore.Metal.Weighted>
-0.0000

> <Gold.Chemscore.Lipo.Weighted>
-14.4701

> <Gold.Chemscore.Internal_Hbond.Weighted>
0.0000

> <Gold.Chemscore.DEClash.Weighted>
0.0953

> <Gold.Chemscore.DEInternal.Weighted>
0.9284

> <Gold.Chemscore.Rot.Weighted>
5.8839

> <Gold.Chemscore.Internal.Correction.Weighted>
   9.000000E+99

> <Gold.Protein.RotatedTorsions>
[ 6907 6896 6895 6894 ] final   44.62 input  -60.11 | X-H torsion
[ 7974 7965 7964 7962 ] final  169.29 input  175.53 | X-H torsion
[ 8008 7997 7996 7995 ] final   89.58 input   59.86 | X-H torsion
[ 10167 10162 10161 10158 ] final   55.35 input  -65.29 | X-H torsion
[ 10718 10713 10712 10709 ] final -154.79 input   66.30 | X-H torsion
[ 10763 10752 10751 10750 ] final   74.84 input  -60.55 | X-H torsion
[ 11005 11000 10999 10996 ] final -150.75 input  -57.11 | X-H torsion

> <Gold.Protein.ActiveResidues>
 VAL166  LYS551  ARG553  GLY616  TRP617  ASP618  TYR619  PRO620  LYS621  CYS622 
 ASP623  PHE694  ASN695  SER759  ASP760  ASP761  ALA762  ILE779  LEU786  VAL792 
 PHE793  MET794  SER795  GLU796  ALA797  LYS798  CYS799  TRP800  GLU811  SER814 

> <Gold.Protein.RotatedAtoms>
  152.2347  134.8288  160.0468 H   0  0  0  0  0  0  0  0  0  0  0  0  # atno 6907 bound_to 6896
  151.9024  133.3536  159.3843 H   0  0  0  0  0  0  0  0  0  0  0  0  # atno 6908 bound_to 6896
  150.7036  134.4740  159.5483 H   0  0  0  0  0  0  0  0  0  0  0  0  # atno 6909 bound_to 6896
  144.7360  139.9033  143.6410 H   0  0  0  0  0  0  0  0  0  0  0  0  # atno 7974 bound_to 7965
  156.0017  140.3359  155.6852 H   0  0  0  0  0  0  0  0  0  0  0  0  # atno 8008 bound_to 7997
  155.6281  140.0682  157.2675 H   0  0  0  0  0  0  0  0  0  0  0  0  # atno 8009 bound_to 7997
  154.4251  140.1764  156.1431 H   0  0  0  0  0  0  0  0  0  0  0  0  # atno 8010 bound_to 7997
  140.2204  144.3795  150.6453 H   0  0  0  0  0  0  0  0  0  0  0  0  # atno 10167 bound_to 10162
  156.5041  130.8405  151.2621 H   0  0  0  0  0  0  0  0  0  0  0  0  # atno 10718 bound_to 10713
  153.0614  135.5011  154.8101 H   0  0  0  0  0  0  0  0  0  0  0  0  # atno 10763 bound_to 10752
  154.6888  135.2981  154.9512 H   0  0  0  0  0  0  0  0  0  0  0  0  # atno 10764 bound_to 10752
  154.0274  135.6734  153.4830 H   0  0  0  0  0  0  0  0  0  0  0  0  # atno 10765 bound_to 10752
  140.7369  134.3558  157.5155 H   0  0  0  0  0  0  0  0  0  0  0  0  # atno 11005 bound_to 11000
  146.1055  139.4055  143.0320 LP  0  0  0  0  0  0  0  0  0  0  0  0  # atno 17320 bound_to 7965
  145.7517  140.9970  143.1247 LP  0  0  0  0  0  0  0  0  0  0  0  0  # atno 17321 bound_to 7965
  140.6259  143.2181  151.6597 LP  0  0  0  0  0  0  0  0  0  0  0  0  # atno 17342 bound_to 10162
  139.5146  144.3404  152.0745 LP  0  0  0  0  0  0  0  0  0  0  0  0  # atno 17343 bound_to 10162
  157.7459  130.9972  150.2807 LP  0  0  0  0  0  0  0  0  0  0  0  0  # atno 17370 bound_to 10713
  156.3304  130.3799  149.7496 LP  0  0  0  0  0  0  0  0  0  0  0  0  # atno 17371 bound_to 10713
  139.8814  134.9055  156.2901 LP  0  0  0  0  0  0  0  0  0  0  0  0  # atno 17394 bound_to 11000
  140.9872  133.7231  156.0759 LP  0  0  0  0  0  0  0  0  0  0  0  0  # atno 17395 bound_to 11000

$$$$
