AV-unprocessed.smi:869|AV-procd|sdf|4004|dock8
  -GOLD-   22720 1493D 1   1.00000     0.00000
 Structure written by MMmdl.
 46 48  0  0  0  0  0  0  0  0  1 V2000
  150.6621  136.3359  157.3885 C   0  0  0  0  0  0  0  0  0  0  0  0
  150.9866  135.7752  156.1289 O   0  0  0  0  0  0  0  0  0  0  0  0
  149.8372  135.5180  155.3374 C   0  0  0  0  0  0  0  0  0  0  0  0
  149.1424  136.8304  155.1100 C   0  0  0  0  0  0  0  0  0  0  0  0
  147.8218  136.9604  155.2557 N   0  0  0  0  0  0  0  0  0  0  0  0
  147.6088  138.2920  154.9609 C   0  0  0  0  0  0  0  0  0  0  0  0
  146.4161  139.0500  154.9438 C   0  0  0  0  0  0  0  0  0  0  0  0
  146.4452  140.4189  154.6059 C   0  0  0  0  0  0  0  0  0  0  0  0
  147.6646  141.0478  154.2805 C   0  0  0  0  0  0  0  0  0  0  0  0
  148.8640  140.3101  154.2903 C   0  0  0  0  0  0  0  0  0  0  0  0
  148.8291  138.9439  154.6286 C   0  0  0  0  0  0  0  0  0  0  0  0
  149.8031  137.9553  154.7296 N   0  0  0  0  0  0  0  0  0  0  0  0
  151.2251  138.1391  154.4707 C   0  0  0  0  0  0  0  0  0  0  0  0
  151.9831  138.6838  155.6992 C   0  0  1  0  0  0  0  0  0  0  0  0
  153.2695  139.1617  155.3598 O   0  0  0  0  0  0  0  0  0  0  0  0
  151.2220  139.7840  156.4565 C   0  0  0  0  0  0  0  0  0  0  0  0
  151.8411  140.0208  157.7153 O   0  0  0  0  0  0  0  0  0  0  0  0
  151.8721  141.3116  158.1973 C   0  0  0  0  0  0  0  0  0  0  0  0
  152.4731  141.5091  159.4574 C   0  0  0  0  0  0  0  0  0  0  0  0
  152.5493  142.7945  160.0271 C   0  0  0  0  0  0  0  0  0  0  0  0
  152.0224  143.9048  159.3391 C   0  0  0  0  0  0  0  0  0  0  0  0
  152.1031  145.2853  159.9572 C   0  0  0  0  0  0  0  0  0  0  0  0
  151.4186  143.7196  158.0792 C   0  0  0  0  0  0  0  0  0  0  0  0
  151.3432  142.4332  157.5099 C   0  0  0  0  0  0  0  0  0  0  0  0
  151.5751  136.5036  157.9599 H   0  0  0  0  0  0  0  0  0  0  0  0
  150.0218  135.6677  157.9661 H   0  0  0  0  0  0  0  0  0  0  0  0
  150.1554  137.2951  157.2735 H   0  0  0  0  0  0  0  0  0  0  0  0
  150.1414  135.0594  154.3975 H   0  0  0  0  0  0  0  0  0  0  0  0
  149.1557  134.8365  155.8487 H   0  0  0  0  0  0  0  0  0  0  0  0
  145.4777  138.5769  155.1922 H   0  0  0  0  0  0  0  0  0  0  0  0
  145.5277  140.9889  154.5971 H   0  0  0  0  0  0  0  0  0  0  0  0
  147.6785  142.0969  154.0236 H   0  0  0  0  0  0  0  0  0  0  0  0
  149.7998  140.7886  154.0418 H   0  0  0  0  0  0  0  0  0  0  0  0
  151.6549  137.2025  154.1170 H   0  0  0  0  0  0  0  0  0  0  0  0
  151.3285  138.8389  153.6405 H   0  0  0  0  0  0  0  0  0  0  0  0
  152.1467  137.8592  156.3942 H   0  0  0  0  0  0  0  0  0  0  0  0
  153.7214  138.4870  154.8764 H   0  0  0  0  0  0  0  0  0  0  0  0
  151.2534  140.7016  155.8667 H   0  0  0  0  0  0  0  0  0  0  0  0
  150.1744  139.5035  156.5793 H   0  0  0  0  0  0  0  0  0  0  0  0
  152.8807  140.6649  159.9941 H   0  0  0  0  0  0  0  0  0  0  0  0
  153.0129  142.9255  160.9940 H   0  0  0  0  0  0  0  0  0  0  0  0
  151.8327  146.0590  159.2380 H   0  0  0  0  0  0  0  0  0  0  0  0
  153.1161  145.4871  160.3066 H   0  0  0  0  0  0  0  0  0  0  0  0
  151.4251  145.3565  160.8080 H   0  0  0  0  0  0  0  0  0  0  0  0
  151.0095  144.5634  157.5432 H   0  0  0  0  0  0  0  0  0  0  0  0
  150.8727  142.3339  156.5436 H   0  0  0  0  0  0  0  0  0  0  0  0
  1  2  1  0  0  0  0
  1 25  1  0  0  0  0
  1 26  1  0  0  0  0
  1 27  1  0  0  0  0
  2  3  1  0  0  0  0
  3  4  1  0  0  0  0
  3 28  1  0  0  0  0
  3 29  1  0  0  0  0
  4 12  1  0  0  0  0
  4  5  2  0  0  0  0
  5  6  1  0  0  0  0
  6 11  2  0  0  0  0
  6  7  1  0  0  0  0
  7  8  2  0  0  0  0
  7 30  1  0  0  0  0
  8  9  1  0  0  0  0
  8 31  1  0  0  0  0
  9 10  2  0  0  0  0
  9 32  1  0  0  0  0
 10 11  1  0  0  0  0
 10 33  1  0  0  0  0
 11 12  1  0  0  0  0
 12 13  1  0  0  0  0
 13 14  1  0  0  0  0
 13 34  1  0  0  0  0
 13 35  1  0  0  0  0
 14 15  1  0  0  0  0
 14 16  1  0  0  0  0
 14 36  1  0  0  0  0
 15 37  1  0  0  0  0
 16 17  1  0  0  0  0
 16 38  1  0  0  0  0
 16 39  1  0  0  0  0
 17 18  1  0  0  0  0
 18 24  1  0  0  0  0
 18 19  2  0  0  0  0
 19 20  1  0  0  0  0
 19 40  1  0  0  0  0
 20 21  2  0  0  0  0
 20 41  1  0  0  0  0
 21 22  1  0  0  0  0
 21 23  1  0  0  0  0
 22 42  1  0  0  0  0
 22 43  1  0  0  0  0
 22 44  1  0  0  0  0
 23 24  2  0  0  0  0
 23 45  1  0  0  0  0
 24 46  1  0  0  0  0
M  END
> <s_m_source_file>
AV-unprocessed.smi

> <i_m_source_file_index>
869

> <i_lp_mmshare_version>
43012

> <i_f3d_flags>
0

> <s_epik_input>
W2NIXTFbY0hdW2NIXVtjSF1jKGMxMiluKGMobjIpW0NIMl1PW0NIM10pW0NIMl1bQ0BIXShbT0hdKVtDSDJdT2MzW2NIXVtjSF1jKFtDSDNdKVtjSF1bY0hdMw==

> <s_epik_cmdline>
J2VwaWtfcHl0aG9uJywgJy1waCcsICc3LjAnLCAnLXRuJywgJzgnLCAnLW1hJywgJzIwMCcsICctbWV0YWxfYmluZGluZycsICctaW1hZScsICc8aW5maWxlLm1hZT4nLCAnLW9tYWUnLCAnPG91dGZpbGUubWFlPic=

> <r_lp_tautomer_probability>
1

> <r_epik_Ionization_Penalty>
0.0446698

> <r_epik_Ionization_Penalty_Charging>
0

> <r_epik_Ionization_Penalty_Neutral>
0.0446698

> <r_epik_State_Penalty>
0.0378721

> <r_epik_Charging_Adjusted_Penalty>
0.0378721

> <i_epik_Tot_Q>
0

> <i_epik_Tot_abs_Q>
0

> <r_epik_Metal_State_Penalty>
3.91074e-05

> <b_epik_Metal_Only>
0

> <s_lp_Force_Field>
OPLS_2005

> <r_lp_Energy>
18.5204

> <b_lp_Chiralities_Consistent>
1

> <s_lp_Variant>
AV-unprocessed.smi:869-2

> <Gold.Version>
5.8.1

> <Gold.Id.Protein>
6NUR|6NUR_protein|mol2

> <Gold.PLP.Fitness>
49.6756

> <Gold.PLP.PLP>
-45.4868

> <Gold.PLP.part.hbond>
-2.4346

> <Gold.PLP.part.metal>
0.0000

> <Gold.PLP.part.buried>
-5.1851

> <Gold.PLP.part.nonpolar>
-38.5610

> <Gold.PLP.part.repulsive>
0.1267

> <Gold.PLP.ligand.clash>
0.0000

> <Gold.PLP.ligand.torsion>
0.9366

> <Gold.PLP.Chemscore.Hbond>
2.0000

> <Gold.PLP.Chemscore.CHOScore>
0.0000

> <Gold.PLP.Chemscore.Metal>
0.0000

> <Gold.Chemscore.Hbonds>
donor molecule, donor type, donor heavy atom, donor atom, acceptor molecule, acceptor atom, score
      P1  H  7997  8010       L1    15  1.00
      P1  H 10752 10763       L1     2  0.06

> <Gold.PLP.Chemscore.Internal.Correction>
0.0620

> <Gold.Rescore>
     Score         DG    S(hbond)    S(metal)    S(lipo)     H(rot)  DE(clash)    DE(int)     intcor
     18.49     -20.87       1.85        0.00     130.41       2.36       0.24       2.14       ----

> <Gold.Chemscore.Fitness>
18.4948

> <Gold.Chemscore.DG>
-20.8719

> <Gold.Chemscore.ZeroCoef>
-5.4800

> <Gold.Chemscore.Hbond>
1.8478

> <Gold.Chemscore.Metal>
0.0000

> <Gold.Chemscore.Lipo>
130.4115

> <Gold.Chemscore.Internal_Hbond>
0.0000

> <Gold.Chemscore.DEClash>
0.2385

> <Gold.Chemscore.DEInternal>
2.1386

> <Gold.Chemscore.Rot>
2.3585

> <Gold.Chemscore.Internal.Correction>
   9.000000E+99

> <Gold.Chemscore.Hbonds>
donor molecule, donor type, donor heavy atom, donor atom, acceptor molecule, acceptor atom, score
      P1  H  7997  8010       L1    15  0.69
      P1  H 10752 10763       L1     2  0.09

> <Gold.Chemscore.Hbond.Weighted>
-6.1716

> <Gold.Chemscore.Metal.Weighted>
-0.0000

> <Gold.Chemscore.Lipo.Weighted>
-15.2581

> <Gold.Chemscore.Internal_Hbond.Weighted>
0.0000

> <Gold.Chemscore.DEClash.Weighted>
0.2385

> <Gold.Chemscore.DEInternal.Weighted>
2.1386

> <Gold.Chemscore.Rot.Weighted>
6.0378

> <Gold.Chemscore.Internal.Correction.Weighted>
   9.000000E+99

> <Gold.Protein.RotatedTorsions>
[ 6907 6896 6895 6894 ] final   67.12 input  -60.11 | X-H torsion
[ 7974 7965 7964 7962 ] final -134.43 input  175.53 | X-H torsion
[ 8008 7997 7996 7995 ] final   91.41 input   59.86 | X-H torsion
[ 10167 10162 10161 10158 ] final   11.09 input  -65.29 | X-H torsion
[ 10718 10713 10712 10709 ] final  112.02 input   66.30 | X-H torsion
[ 10763 10752 10751 10750 ] final   84.33 input  -60.55 | X-H torsion
[ 11005 11000 10999 10996 ] final -161.73 input  -57.11 | X-H torsion

> <Gold.Protein.ActiveResidues>
 VAL166  LYS551  ARG553  GLY616  TRP617  ASP618  TYR619  PRO620  LYS621  CYS622 
 ASP623  PHE694  ASN695  SER759  ASP760  ASP761  ALA762  ILE779  LEU786  VAL792 
 PHE793  MET794  SER795  GLU796  ALA797  LYS798  CYS799  TRP800  GLU811  SER814 

> <Gold.Protein.RotatedAtoms>
  152.4529  134.5354  159.9823 H   0  0  0  0  0  0  0  0  0  0  0  0  # atno 6907 bound_to 6896
  151.5422  133.3425  159.2945 H   0  0  0  0  0  0  0  0  0  0  0  0  # atno 6908 bound_to 6896
  150.8464  134.7806  159.7037 H   0  0  0  0  0  0  0  0  0  0  0  0  # atno 6909 bound_to 6896
  144.9103  140.6886  143.5029 H   0  0  0  0  0  0  0  0  0  0  0  0  # atno 7974 bound_to 7965
  156.0235  140.3338  155.7063 H   0  0  0  0  0  0  0  0  0  0  0  0  # atno 8008 bound_to 7997
  155.5989  140.0653  157.2756 H   0  0  0  0  0  0  0  0  0  0  0  0  # atno 8009 bound_to 7997
  154.4325  140.1814  156.1140 H   0  0  0  0  0  0  0  0  0  0  0  0  # atno 8010 bound_to 7997
  140.6154  143.8319  150.7112 H   0  0  0  0  0  0  0  0  0  0  0  0  # atno 10167 bound_to 10162
  157.6414  131.0960  150.6834 H   0  0  0  0  0  0  0  0  0  0  0  0  # atno 10718 bound_to 10713
  153.1372  135.4658  154.9441 H   0  0  0  0  0  0  0  0  0  0  0  0  # atno 10763 bound_to 10752
  154.7716  135.3160  154.8180 H   0  0  0  0  0  0  0  0  0  0  0  0  # atno 10764 bound_to 10752
  153.8710  135.6903  153.4828 H   0  0  0  0  0  0  0  0  0  0  0  0  # atno 10765 bound_to 10752
  140.6171  134.4789  157.5220 H   0  0  0  0  0  0  0  0  0  0  0  0  # atno 11005 bound_to 11000
  145.3466  139.1717  143.4457 LP  0  0  0  0  0  0  0  0  0  0  0  0  # atno 17320 bound_to 7965
  146.3155  140.3513  142.8656 LP  0  0  0  0  0  0  0  0  0  0  0  0  # atno 17321 bound_to 7965
  140.1897  143.4046  152.1872 LP  0  0  0  0  0  0  0  0  0  0  0  0  # atno 17342 bound_to 10162
  139.5394  144.7242  151.4783 LP  0  0  0  0  0  0  0  0  0  0  0  0  # atno 17343 bound_to 10162
  156.7157  130.4665  149.5535 LP  0  0  0  0  0  0  0  0  0  0  0  0  # atno 17370 bound_to 10713
  156.1699  130.6430  151.0825 LP  0  0  0  0  0  0  0  0  0  0  0  0  # atno 17371 bound_to 10713
  139.9168  134.8229  156.1340 LP  0  0  0  0  0  0  0  0  0  0  0  0  # atno 17394 bound_to 11000
  141.0768  133.6772  156.2252 LP  0  0  0  0  0  0  0  0  0  0  0  0  # atno 17395 bound_to 11000

$$$$
