AV-unprocessed.smi:1644|AV-procd|sdf|6591|dock3
  -GOLD-   22720 7283D 1   1.00000     0.00000
 Structure written by MMmdl.
 50 52  0  0  0  0  0  0  0  0  2 V2000
  154.3031  135.7971  164.3407 C   0  0  0  0  0  0  0  0  0  0  0  0
  153.7222  136.8402  163.3803 C   0  0  0  0  0  0  0  0  0  0  0  0
  154.7072  137.2170  162.2546 C   0  0  0  0  0  0  0  0  0  0  0  0
  154.2189  138.3034  161.2689 C   0  0  1  0  0  0  0  0  0  0  0  0
  155.2997  138.9875  160.5868 N   0  0  0  0  0  0  0  0  0  0  0  0
  155.2079  138.8914  159.2536 C   0  0  0  0  0  0  0  0  0  0  0  0
  155.9881  139.4012  158.4511 O   0  0  0  0  0  0  0  0  0  0  0  0
  154.1241  138.1525  158.9552 N   0  0  0  0  0  0  0  0  0  0  0  0
  153.6891  137.8328  157.5924 C   0  0  0  0  0  0  0  0  0  0  0  0
  153.0598  139.0564  156.8959 C   0  0  1  0  0  0  0  0  0  0  0  0
  152.8388  138.7464  155.5340 O   0  0  0  0  0  0  0  0  0  0  0  0
  151.7080  139.4428  157.5271 C   0  0  0  0  0  0  0  0  0  0  0  0
  151.3597  140.8500  157.2969 N   0  0  0  0  0  0  0  0  0  0  0  0
  150.7203  141.4373  156.2494 C   0  0  0  0  0  0  0  0  0  0  0  0
  150.6439  142.7718  156.5128 N   0  3  0  0  0  0  0  0  0  0  0  0
  151.2452  143.0391  157.7451 C   0  0  0  0  0  0  0  0  0  0  0  0
  151.4181  144.2323  158.4366 C   0  0  0  0  0  0  0  0  0  0  0  0
  152.0826  144.1655  159.6824 C   0  0  0  0  0  0  0  0  0  0  0  0
  152.2889  145.4519  160.4640 C   0  0  0  0  0  0  0  0  0  0  0  0
  152.5497  142.9276  160.1961 C   0  0  0  0  0  0  0  0  0  0  0  0
  153.2672  142.8674  161.5339 C   0  0  0  0  0  0  0  0  0  0  0  0
  152.3609  141.7247  159.4792 C   0  0  0  0  0  0  0  0  0  0  0  0
  151.7053  141.8094  158.2535 C   0  0  0  0  0  0  0  0  0  0  0  0
  153.4753  137.7637  160.0612 C   0  0  0  0  0  0  0  0  0  0  0  0
  152.4443  137.0937  160.1256 O   0  0  0  0  0  0  0  0  0  0  0  0
  153.5895  135.5547  165.1286 H   0  0  0  0  0  0  0  0  0  0  0  0
  155.2126  136.1636  164.8178 H   0  0  0  0  0  0  0  0  0  0  0  0
  154.5473  134.8724  163.8171 H   0  0  0  0  0  0  0  0  0  0  0  0
  152.7986  136.4495  162.9526 H   0  0  0  0  0  0  0  0  0  0  0  0
  153.4469  137.7272  163.9515 H   0  0  0  0  0  0  0  0  0  0  0  0
  155.6497  137.5413  162.6982 H   0  0  0  0  0  0  0  0  0  0  0  0
  154.9462  136.3189  161.6838 H   0  0  0  0  0  0  0  0  0  0  0  0
  153.5928  139.0342  161.7823 H   0  0  0  0  0  0  0  0  0  0  0  0
  156.0260  139.4917  161.0748 H   0  0  0  0  0  0  0  0  0  0  0  0
  154.5039  137.4156  156.9970 H   0  0  0  0  0  0  0  0  0  0  0  0
  152.9531  137.0298  157.6617 H   0  0  0  0  0  0  0  0  0  0  0  0
  153.7353  139.9109  156.9512 H   0  0  0  0  0  0  0  0  0  0  0  0
  152.2369  139.3807  155.1746 H   0  0  0  0  0  0  0  0  0  0  0  0
  150.9037  138.8281  157.1201 H   0  0  0  0  0  0  0  0  0  0  0  0
  151.7161  139.2700  158.6041 H   0  0  0  0  0  0  0  0  0  0  0  0
  150.3459  140.9359  155.3686 H   0  0  0  0  0  0  0  0  0  0  0  0
  151.0611  145.1710  158.0387 H   0  0  0  0  0  0  0  0  0  0  0  0
  151.8276  145.3808  161.4494 H   0  0  0  0  0  0  0  0  0  0  0  0
  151.8467  146.3064  159.9508 H   0  0  0  0  0  0  0  0  0  0  0  0
  153.3526  145.6543  160.5929 H   0  0  0  0  0  0  0  0  0  0  0  0
  153.5847  141.8514  161.7708 H   0  0  0  0  0  0  0  0  0  0  0  0
  152.6110  143.2071  162.3356 H   0  0  0  0  0  0  0  0  0  0  0  0
  154.1560  143.4989  161.5215 H   0  0  0  0  0  0  0  0  0  0  0  0
  152.7156  140.7815  159.8686 H   0  0  0  0  0  0  0  0  0  0  0  0
  150.2143  143.4476  155.8940 H   0  0  0  0  0  0  0  0  0  0  0  0
  1  2  1  0  0  0  0
  1 26  1  0  0  0  0
  1 27  1  0  0  0  0
  1 28  1  0  0  0  0
  2  3  1  0  0  0  0
  2 29  1  0  0  0  0
  2 30  1  0  0  0  0
  3  4  1  0  0  0  0
  3 31  1  0  0  0  0
  3 32  1  0  0  0  0
  4 24  1  0  0  0  0
  4  5  1  0  0  0  0
  4 33  1  0  0  0  0
  5  6  1  0  0  0  0
  5 34  1  0  0  0  0
  6  7  2  0  0  0  0
  6  8  1  0  0  0  0
  8  9  1  0  0  0  0
  8 24  1  0  0  0  0
  9 10  1  0  0  0  0
  9 35  1  0  0  0  0
  9 36  1  0  0  0  0
 10 11  1  0  0  0  0
 10 12  1  0  0  0  0
 10 37  1  0  0  0  0
 11 38  1  0  0  0  0
 12 13  1  0  0  0  0
 12 39  1  0  0  0  0
 12 40  1  0  0  0  0
 13 23  1  0  0  0  0
 13 14  1  0  0  0  0
 14 15  2  0  0  0  0
 14 41  1  0  0  0  0
 15 16  1  0  0  0  0
 15 50  1  0  0  0  0
 16 23  2  0  0  0  0
 16 17  1  0  0  0  0
 17 18  2  0  0  0  0
 17 42  1  0  0  0  0
 18 19  1  0  0  0  0
 18 20  1  0  0  0  0
 19 43  1  0  0  0  0
 19 44  1  0  0  0  0
 19 45  1  0  0  0  0
 20 21  1  0  0  0  0
 20 22  2  0  0  0  0
 21 46  1  0  0  0  0
 21 47  1  0  0  0  0
 21 48  1  0  0  0  0
 22 23  1  0  0  0  0
 22 49  1  0  0  0  0
 24 25  2  0  0  0  0
M  CHG  1  15   1
M  END
> <s_m_source_file>
AV-unprocessed.smi

> <i_m_source_file_index>
1644

> <i_lp_mmshare_version>
43012

> <i_f3d_flags>
0

> <s_epik_input>
W0NIM11bQ0gyXVtDSDJdW0NAQEhdMVtOSF1DKD1PKU4oQzE9TylbQ0gyXVtDQEhdKFtPSF0pW0NIMl1uKFtjSF1uMiljKGMyMylbY0hdYyhbQ0gzXSljKFtjSF0zKVtDSDNd

> <s_epik_cmdline>
J2VwaWtfcHl0aG9uJywgJy1waCcsICc3LjAnLCAnLXRuJywgJzgnLCAnLW1hJywgJzIwMCcsICctbWV0YWxfYmluZGluZycsICctaW1hZScsICc8aW5maWxlLm1hZT4nLCAnLW9tYWUnLCAnPG91dGZpbGUubWFlPic=

> <r_lp_tautomer_probability>
1

> <r_epik_Ionization_Penalty>
1.06742

> <r_epik_Ionization_Penalty_Charging>
1.06736

> <r_epik_Ionization_Penalty_Neutral>
5.56132e-05

> <r_epik_State_Penalty>
1.12163

> <r_epik_Charging_Adjusted_Penalty>
2.18899

> <i_epik_Tot_Q>
1

> <i_epik_Tot_abs_Q>
1

> <r_epik_Metal_State_Penalty>
1.26636

> <b_epik_Metal_Only>
0

> <s_lp_Force_Field>
OPLS_2005

> <r_lp_Energy>
28.3475

> <b_lp_Chiralities_Consistent>
1

> <s_lp_Variant>
AV-unprocessed.smi:1644-8

> <Gold.Version>
5.8.1

> <Gold.Id.Protein>
6NUR|6NUR_protein|mol2

> <Gold.PLP.Fitness>
57.0455

> <Gold.PLP.PLP>
-47.8095

> <Gold.PLP.part.hbond>
-3.1825

> <Gold.PLP.part.metal>
0.0000

> <Gold.PLP.part.buried>
-3.7752

> <Gold.PLP.part.nonpolar>
-41.8738

> <Gold.PLP.part.repulsive>
0.1270

> <Gold.PLP.ligand.clash>
0.0000

> <Gold.PLP.ligand.torsion>
1.1329

> <Gold.PLP.Chemscore.Hbond>
3.7833

> <Gold.PLP.Chemscore.CHOScore>
0.0000

> <Gold.PLP.Chemscore.Metal>
0.0000

> <Gold.Chemscore.Hbonds>
donor molecule, donor type, donor heavy atom, donor atom, acceptor molecule, acceptor atom, score
      L1  H    15    50       P1  8028  1.92
      P1  H  6896  6907       L1    25  0.94
      P1  H  7997  8010       L1     7  0.65

> <Gold.PLP.Chemscore.Internal.Correction>
0.1521

> <Gold.Rescore>
     Score         DG    S(hbond)    S(metal)    S(lipo)     H(rot)  DE(clash)    DE(int)     intcor
     21.70     -23.33       2.95        0.00     129.47       2.80       0.46       1.17       ----

> <Gold.Chemscore.Fitness>
21.7033

> <Gold.Chemscore.DG>
-23.3327

> <Gold.Chemscore.ZeroCoef>
-5.4800

> <Gold.Chemscore.Hbond>
2.9530

> <Gold.Chemscore.Metal>
0.0000

> <Gold.Chemscore.Lipo>
129.4665

> <Gold.Chemscore.Internal_Hbond>
0.0000

> <Gold.Chemscore.DEClash>
0.4596

> <Gold.Chemscore.DEInternal>
1.1698

> <Gold.Chemscore.Rot>
2.7961

> <Gold.Chemscore.Internal.Correction>
   9.000000E+99

> <Gold.Chemscore.Hbonds>
donor molecule, donor type, donor heavy atom, donor atom, acceptor molecule, acceptor atom, score
      L1  H    15    50       P1  8028  0.92
      P1  H  6896  6907       L1    25  0.90
      P1  H  7997  8010       L1     7  0.64

> <Gold.Chemscore.Hbond.Weighted>
-9.8632

> <Gold.Chemscore.Metal.Weighted>
-0.0000

> <Gold.Chemscore.Lipo.Weighted>
-15.1476

> <Gold.Chemscore.Internal_Hbond.Weighted>
0.0000

> <Gold.Chemscore.DEClash.Weighted>
0.4596

> <Gold.Chemscore.DEInternal.Weighted>
1.1698

> <Gold.Chemscore.Rot.Weighted>
7.1580

> <Gold.Chemscore.Internal.Correction.Weighted>
   9.000000E+99

> <Gold.Protein.RotatedTorsions>
[ 6907 6896 6895 6894 ] final   15.60 input  -60.11 | X-H torsion
[ 7974 7965 7964 7962 ] final  142.68 input  175.53 | X-H torsion
[ 8008 7997 7996 7995 ] final  -44.36 input   59.86 | X-H torsion
[ 10167 10162 10161 10158 ] final  -73.40 input  -65.29 | X-H torsion
[ 10718 10713 10712 10709 ] final  -89.87 input   66.30 | X-H torsion
[ 10763 10752 10751 10750 ] final   61.76 input  -60.55 | X-H torsion
[ 11005 11000 10999 10996 ] final  101.22 input  -57.11 | X-H torsion

> <Gold.Protein.ActiveResidues>
 VAL166  LYS551  ARG553  GLY616  TRP617  ASP618  TYR619  PRO620  LYS621  CYS622 
 ASP623  PHE694  ASN695  SER759  ASP760  ASP761  ALA762  ILE779  LEU786  VAL792 
 PHE793  MET794  SER795  GLU796  ALA797  LYS798  CYS799  TRP800  GLU811  SER814 

> <Gold.Protein.RotatedAtoms>
  151.8206  135.0653  160.0424 H   0  0  0  0  0  0  0  0  0  0  0  0  # atno 6907 bound_to 6896
  152.2954  133.5598  159.5592 H   0  0  0  0  0  0  0  0  0  0  0  0  # atno 6908 bound_to 6896
  150.7249  134.0285  159.3767 H   0  0  0  0  0  0  0  0  0  0  0  0  # atno 6909 bound_to 6896
  144.8986  139.5455  143.5764 H   0  0  0  0  0  0  0  0  0  0  0  0  # atno 7974 bound_to 7965
  154.3997  140.1424  156.3671 H   0  0  0  0  0  0  0  0  0  0  0  0  # atno 8008 bound_to 7997
  155.8127  140.3472  155.5446 H   0  0  0  0  0  0  0  0  0  0  0  0  # atno 8009 bound_to 7997
  155.8369  140.0921  157.1749 H   0  0  0  0  0  0  0  0  0  0  0  0  # atno 8010 bound_to 7997
  140.5113  143.2344  151.7588 H   0  0  0  0  0  0  0  0  0  0  0  0  # atno 10167 bound_to 10162
  155.9985  130.4888  150.5236 H   0  0  0  0  0  0  0  0  0  0  0  0  # atno 10718 bound_to 10713
  152.9960  135.5489  154.6085 H   0  0  0  0  0  0  0  0  0  0  0  0  # atno 10763 bound_to 10752
  154.5411  135.2820  155.1097 H   0  0  0  0  0  0  0  0  0  0  0  0  # atno 10764 bound_to 10752
  154.2374  135.6422  153.5248 H   0  0  0  0  0  0  0  0  0  0  0  0  # atno 10765 bound_to 10752
  139.8773  134.9174  156.4874 H   0  0  0  0  0  0  0  0  0  0  0  0  # atno 11005 bound_to 11000
  146.3095  139.7697  142.9030 LP  0  0  0  0  0  0  0  0  0  0  0  0  # atno 17320 bound_to 7965
  145.3656  141.0334  143.3260 LP  0  0  0  0  0  0  0  0  0  0  0  0  # atno 17321 bound_to 7965
  139.4897  144.4386  151.9790 LP  0  0  0  0  0  0  0  0  0  0  0  0  # atno 17342 bound_to 10162
  140.3479  144.3125  150.5955 LP  0  0  0  0  0  0  0  0  0  0  0  0  # atno 17343 bound_to 10162
  157.3194  131.0679  151.1943 LP  0  0  0  0  0  0  0  0  0  0  0  0  # atno 17370 bound_to 10713
  157.2861  130.6773  149.6090 LP  0  0  0  0  0  0  0  0  0  0  0  0  # atno 17371 bound_to 10713
  140.8683  133.8007  155.9337 LP  0  0  0  0  0  0  0  0  0  0  0  0  # atno 17394 bound_to 11000
  140.8979  134.2415  157.5058 LP  0  0  0  0  0  0  0  0  0  0  0  0  # atno 17395 bound_to 11000

$$$$
