AV-unprocessed.smi:738|AV-procd|sdf|3539|dock2
  -GOLD-   22720 0533D 1   1.00000     0.00000
 Structure written by MMmdl.
 35 37  0  0  0  0  0  0  0  0  1 V2000
  151.4242  137.7960  153.4929 N   0  0  0  0  0  0  0  0  0  0  0  0
  151.4652  137.1787  154.6776 C   0  0  0  0  0  0  0  0  0  0  0  0
  151.3960  135.9560  154.7863 O   0  0  0  0  0  0  0  0  0  0  0  0
  151.6699  138.0578  155.8773 C   0  0  0  0  0  0  0  0  0  0  0  0
  151.8493  139.4502  155.7250 C   0  0  0  0  0  0  0  0  0  0  0  0
  152.0574  140.2928  156.7587 N   0  0  0  0  0  0  0  0  0  0  0  0
  152.1092  139.7802  158.0116 C   0  0  0  0  0  0  0  0  0  0  0  0
  152.3237  140.6688  159.0783 N   0  0  0  0  0  0  0  0  0  0  0  0
  153.5305  140.3592  159.8463 C   0  0  0  0  0  0  0  0  0  0  0  0
  153.7009  141.3324  161.0390 C   0  0  0  0  0  0  0  0  0  0  0  0
  153.6361  142.6954  160.6064 O   0  0  0  0  0  0  0  0  0  0  0  0
  152.3981  142.9390  159.9527 C   0  0  1  0  0  0  0  0  0  0  0  0
  152.1849  144.3435  159.3952 C   0  0  0  0  0  0  0  0  0  0  0  0
  151.1574  144.1426  158.2604 C   0  0  0  0  0  0  0  0  0  0  0  0
  151.0867  142.6244  157.9941 C   0  0  0  0  0  0  0  0  0  0  0  0
  152.3276  142.0763  158.7017 C   0  0  2  0  0  0  0  0  0  0  0  0
  151.9541  138.3984  158.2701 C   0  0  0  0  0  0  0  0  0  0  0  0
  152.0242  137.7650  159.8772 Cl  0  0  0  0  0  0  0  0  0  0  0  0
  151.7356  137.5273  157.1852 C   0  0  0  0  0  0  0  0  0  0  0  0
  151.2944  137.2534  152.6512 H   0  0  0  0  0  0  0  0  0  0  0  0
  151.5282  138.7986  153.4400 H   0  0  0  0  0  0  0  0  0  0  0  0
  151.8210  139.9099  154.7479 H   0  0  0  0  0  0  0  0  0  0  0  0
  153.4827  139.3310  160.2074 H   0  0  0  0  0  0  0  0  0  0  0  0
  154.4051  140.4291  159.1977 H   0  0  0  0  0  0  0  0  0  0  0  0
  152.9311  141.1502  161.7905 H   0  0  0  0  0  0  0  0  0  0  0  0
  154.6603  141.1612  161.5271 H   0  0  0  0  0  0  0  0  0  0  0  0
  151.5713  142.7030  160.6274 H   0  0  0  0  0  0  0  0  0  0  0  0
  151.8437  145.0464  160.1556 H   0  0  0  0  0  0  0  0  0  0  0  0
  153.1196  144.7257  158.9826 H   0  0  0  0  0  0  0  0  0  0  0  0
  150.1760  144.5232  158.5454 H   0  0  0  0  0  0  0  0  0  0  0  0
  151.4697  144.6845  157.3671 H   0  0  0  0  0  0  0  0  0  0  0  0
  150.1817  142.2124  158.4436 H   0  0  0  0  0  0  0  0  0  0  0  0
  151.0714  142.3849  156.9305 H   0  0  0  0  0  0  0  0  0  0  0  0
  153.2038  142.2781  158.0818 H   0  0  0  0  0  0  0  0  0  0  0  0
  151.6243  136.4680  157.3648 H   0  0  0  0  0  0  0  0  0  0  0  0
  1  2  1  0  0  0  0
  1 20  1  0  0  0  0
  1 21  1  0  0  0  0
  2  3  2  0  0  0  0
  2  4  1  0  0  0  0
  4 19  1  0  0  0  0
  4  5  2  0  0  0  0
  5  6  1  0  0  0  0
  5 22  1  0  0  0  0
  6  7  2  0  0  0  0
  7  8  1  0  0  0  0
  7 17  1  0  0  0  0
  8 16  1  0  0  0  0
  8  9  1  0  0  0  0
  9 10  1  0  0  0  0
  9 23  1  0  0  0  0
  9 24  1  0  0  0  0
 10 11  1  0  0  0  0
 10 25  1  0  0  0  0
 10 26  1  0  0  0  0
 11 12  1  0  0  0  0
 12 16  1  0  0  0  0
 12 13  1  0  0  0  0
 12 27  1  0  0  0  0
 13 14  1  0  0  0  0
 13 28  1  0  0  0  0
 13 29  1  0  0  0  0
 14 15  1  0  0  0  0
 14 30  1  0  0  0  0
 14 31  1  0  0  0  0
 15 16  1  0  0  0  0
 15 32  1  0  0  0  0
 15 33  1  0  0  0  0
 16 34  1  0  0  0  0
 17 18  1  0  0  0  0
 17 19  2  0  0  0  0
 19 35  1  0  0  0  0
M  END
> <s_m_source_file>
AV-unprocessed.smi

> <i_m_source_file_index>
738

> <i_lp_mmshare_version>
43012

> <i_f3d_flags>
0

> <s_epik_input>
W05IMl1DKD1PKWMxW2NIXW5jKGMoQ2wpW2NIXTEpTihbQ0gyXVtDSDJdTzIpW0NASF0oW0NASF0yMylbQ0gyXVtDSDJdW0NIMl0z

> <s_epik_cmdline>
J2VwaWtfcHl0aG9uJywgJy1waCcsICc3LjAnLCAnLXRuJywgJzgnLCAnLW1hJywgJzIwMCcsICctbWV0YWxfYmluZGluZycsICctaW1hZScsICc8aW5maWxlLm1hZT4nLCAnLW9tYWUnLCAnPG91dGZpbGUubWFlPic=

> <r_lp_tautomer_probability>
1

> <r_epik_Ionization_Penalty>
6.75978e-06

> <r_epik_Ionization_Penalty_Charging>
0

> <r_epik_Ionization_Penalty_Neutral>
6.75978e-06

> <r_epik_State_Penalty>
-0

> <r_epik_Charging_Adjusted_Penalty>
0

> <i_epik_Tot_Q>
0

> <i_epik_Tot_abs_Q>
0

> <r_epik_Metal_State_Penalty>
-0

> <b_epik_Metal_Only>
0

> <s_lp_Force_Field>
OPLS_2005

> <r_lp_Energy>
40.6009

> <b_lp_Chiralities_Consistent>
1

> <s_lp_Variant>
AV-unprocessed.smi:738-2

> <Gold.Version>
5.8.1

> <Gold.Id.Protein>
6NUR|6NUR_protein|mol2

> <Gold.PLP.Fitness>
39.1232

> <Gold.PLP.PLP>
-33.1611

> <Gold.PLP.part.hbond>
-2.6679

> <Gold.PLP.part.metal>
0.0000

> <Gold.PLP.part.buried>
-1.9568

> <Gold.PLP.part.nonpolar>
-29.3686

> <Gold.PLP.part.repulsive>
0.2868

> <Gold.PLP.ligand.clash>
0.0026

> <Gold.PLP.ligand.torsion>
0.0418

> <Gold.PLP.Chemscore.Hbond>
2.0000

> <Gold.PLP.Chemscore.CHOScore>
0.0000

> <Gold.PLP.Chemscore.Metal>
0.0000

> <Gold.Chemscore.Hbonds>
donor molecule, donor type, donor heavy atom, donor atom, acceptor molecule, acceptor atom, score
      L1  H     1    20       P1  7949  1.00
      P1  H 10752 10763       L1     3  1.00

> <Gold.PLP.Chemscore.Internal.Correction>
0.0482

> <Gold.Rescore>
     Score         DG    S(hbond)    S(metal)    S(lipo)     H(rot)  DE(clash)    DE(int)     intcor
     15.35     -17.31       0.97        0.00      95.37       1.00       0.47       1.49       ----

> <Gold.Chemscore.Fitness>
15.3515

> <Gold.Chemscore.DG>
-17.3081

> <Gold.Chemscore.ZeroCoef>
-5.4800

> <Gold.Chemscore.Hbond>
0.9668

> <Gold.Chemscore.Metal>
0.0000

> <Gold.Chemscore.Lipo>
95.3749

> <Gold.Chemscore.Internal_Hbond>
0.0000

> <Gold.Chemscore.DEClash>
0.4707

> <Gold.Chemscore.DEInternal>
1.4859

> <Gold.Chemscore.Rot>
1.0000

> <Gold.Chemscore.Internal.Correction>
   9.000000E+99

> <Gold.Chemscore.Hbonds>
donor molecule, donor type, donor heavy atom, donor atom, acceptor molecule, acceptor atom, score
      L1  H     1    20       P1  7949  0.70
      P1  H 10752 10763       L1     3  0.33

> <Gold.Chemscore.Hbond.Weighted>
-3.2292

> <Gold.Chemscore.Metal.Weighted>
-0.0000

> <Gold.Chemscore.Lipo.Weighted>
-11.1589

> <Gold.Chemscore.Internal_Hbond.Weighted>
0.0000

> <Gold.Chemscore.DEClash.Weighted>
0.4707

> <Gold.Chemscore.DEInternal.Weighted>
1.4859

> <Gold.Chemscore.Rot.Weighted>
2.5600

> <Gold.Chemscore.Internal.Correction.Weighted>
   9.000000E+99

> <Gold.Protein.RotatedTorsions>
[ 6907 6896 6895 6894 ] final  -22.78 input  -60.11 | X-H torsion
[ 7974 7965 7964 7962 ] final  173.12 input  175.53 | X-H torsion
[ 8008 7997 7996 7995 ] final  147.33 input   59.86 | X-H torsion
[ 10167 10162 10161 10158 ] final -114.47 input  -65.29 | X-H torsion
[ 10718 10713 10712 10709 ] final   90.53 input   66.30 | X-H torsion
[ 10763 10752 10751 10750 ] final   75.25 input  -60.55 | X-H torsion
[ 11005 11000 10999 10996 ] final -105.37 input  -57.11 | X-H torsion

> <Gold.Protein.ActiveResidues>
 VAL166  LYS551  ARG553  GLY616  TRP617  ASP618  TYR619  PRO620  LYS621  CYS622 
 ASP623  PHE694  ASN695  SER759  ASP760  ASP761  ALA762  ILE779  LEU786  VAL792 
 PHE793  MET794  SER795  GLU796  ALA797  LYS798  CYS799  TRP800  GLU811  SER814 

> <Gold.Protein.RotatedAtoms>
  151.2136  135.0491  159.8920 H   0  0  0  0  0  0  0  0  0  0  0  0  # atno 6907 bound_to 6896
  152.5422  134.0718  159.8207 H   0  0  0  0  0  0  0  0  0  0  0  0  # atno 6908 bound_to 6896
  151.0875  133.5294  159.2648 H   0  0  0  0  0  0  0  0  0  0  0  0  # atno 6909 bound_to 6896
  144.7251  139.9601  143.6434 H   0  0  0  0  0  0  0  0  0  0  0  0  # atno 7974 bound_to 7965
  156.2828  140.2158  156.5521 H   0  0  0  0  0  0  0  0  0  0  0  0  # atno 8008 bound_to 7997
  154.7283  140.0497  157.0725 H   0  0  0  0  0  0  0  0  0  0  0  0  # atno 8009 bound_to 7997
  155.0387  140.3143  155.4735 H   0  0  0  0  0  0  0  0  0  0  0  0  # atno 8010 bound_to 7997
  140.1006  143.4616  152.1814 H   0  0  0  0  0  0  0  0  0  0  0  0  # atno 10167 bound_to 10162
  157.6959  131.0374  150.3591 H   0  0  0  0  0  0  0  0  0  0  0  0  # atno 10718 bound_to 10713
  153.0642  135.4995  154.8162 H   0  0  0  0  0  0  0  0  0  0  0  0  # atno 10763 bound_to 10752
  154.6929  135.2987  154.9456 H   0  0  0  0  0  0  0  0  0  0  0  0  # atno 10764 bound_to 10752
  154.0205  135.6742  153.4825 H   0  0  0  0  0  0  0  0  0  0  0  0  # atno 10765 bound_to 10752
  141.1056  133.8802  157.1726 H   0  0  0  0  0  0  0  0  0  0  0  0  # atno 11005 bound_to 11000
  146.0644  139.3636  143.0561 LP  0  0  0  0  0  0  0  0  0  0  0  0  # atno 17320 bound_to 7965
  145.8050  140.9753  143.0978 LP  0  0  0  0  0  0  0  0  0  0  0  0  # atno 17321 bound_to 7965
  139.5673  144.7443  151.3986 LP  0  0  0  0  0  0  0  0  0  0  0  0  # atno 17342 bound_to 10162
  140.6980  143.7702  150.7357 LP  0  0  0  0  0  0  0  0  0  0  0  0  # atno 17343 bound_to 10162
  156.4030  130.3919  149.6946 LP  0  0  0  0  0  0  0  0  0  0  0  0  # atno 17370 bound_to 10713
  156.4257  130.7790  151.2809 LP  0  0  0  0  0  0  0  0  0  0  0  0  # atno 17371 bound_to 10713
  139.9925  135.0059  157.0008 LP  0  0  0  0  0  0  0  0  0  0  0  0  # atno 17394 bound_to 11000
  140.4910  134.1193  155.7233 LP  0  0  0  0  0  0  0  0  0  0  0  0  # atno 17395 bound_to 11000

$$$$
