AV-unprocessed.smi:1510|AV-procd|sdf|6095|dock3
  -GOLD-   22720 6223D 1   1.00000     0.00000
 Structure written by MMmdl.
 32 33  0  0  0  0  0  0  0  0  2 V2000
  149.6969  142.4811  159.0639 O   0  0  0  0  0  0  0  0  0  0  0  0
  150.2117  142.3072  157.9578 C   0  0  0  0  0  0  0  0  0  0  0  0
  149.8847  141.0689  157.1079 C   0  0  0  0  0  0  0  0  0  0  0  0
  148.9219  141.3155  156.0243 N   0  0  0  0  0  0  0  0  0  0  0  0
  147.6093  141.7539  156.4907 N   0  5  0  0  0  0  0  0  0  0  0  0
  146.6361  142.0171  155.5787 C   0  0  0  0  0  0  0  0  0  0  0  0
  145.5126  142.4013  155.8952 O   0  0  0  0  0  0  0  0  0  0  0  0
  146.9479  141.8283  154.1715 C   0  0  0  0  0  0  0  0  0  0  0  0
  148.1629  141.4053  153.7706 C   0  0  0  0  0  0  0  0  0  0  0  0
  149.2372  141.1153  154.7126 C   0  0  0  0  0  0  0  0  0  0  0  0
  150.3466  140.7200  154.3539 O   0  0  0  0  0  0  0  0  0  0  0  0
  151.0913  143.1639  157.4175 N   0  0  0  0  0  0  0  0  0  0  0  0
  151.5488  144.4021  158.0364 C   0  0  0  0  0  0  0  0  0  0  0  0
  152.4371  144.1287  159.2614 C   0  0  1  0  0  0  0  0  0  0  0  0
  151.7880  144.5071  160.5942 C   0  0  0  0  0  0  0  0  0  0  0  0
  152.3824  143.5203  161.5905 C   0  0  0  0  0  0  0  0  0  0  0  0
  153.1877  142.5507  160.7237 C   0  0  0  0  0  0  0  0  0  0  0  0
  152.6738  142.7376  159.4145 O   0  0  0  0  0  0  0  0  0  0  0  0
  150.8108  140.6727  156.6879 H   0  0  0  0  0  0  0  0  0  0  0  0
  149.5115  140.2907  157.7763 H   0  0  0  0  0  0  0  0  0  0  0  0
  146.1872  142.0293  153.4316 H   0  0  0  0  0  0  0  0  0  0  0  0
  148.3493  141.2767  152.7147 H   0  0  0  0  0  0  0  0  0  0  0  0
  151.4646  142.9448  156.5057 H   0  0  0  0  0  0  0  0  0  0  0  0
  152.0897  145.0034  157.3036 H   0  0  0  0  0  0  0  0  0  0  0  0
  150.6738  144.9832  158.3285 H   0  0  0  0  0  0  0  0  0  0  0  0
  153.3958  144.6423  159.1651 H   0  0  0  0  0  0  0  0  0  0  0  0
  151.9802  145.5460  160.8642 H   0  0  0  0  0  0  0  0  0  0  0  0
  150.7068  144.3695  160.5473 H   0  0  0  0  0  0  0  0  0  0  0  0
  153.0169  144.0107  162.3293 H   0  0  0  0  0  0  0  0  0  0  0  0
  151.5874  142.9985  162.1245 H   0  0  0  0  0  0  0  0  0  0  0  0
  154.2466  142.8137  160.7346 H   0  0  0  0  0  0  0  0  0  0  0  0
  153.0906  141.5144  161.0478 H   0  0  0  0  0  0  0  0  0  0  0  0
  1  2  2  0  0  0  0
  2  3  1  0  0  0  0
  2 12  1  0  0  0  0
  3 19  1  0  0  0  0
  3 20  1  0  0  0  0
  3  4  1  0  0  0  0
  4  5  1  0  0  0  0
  4 10  1  0  0  0  0
  5  6  1  0  0  0  0
  6  7  2  0  0  0  0
  6  8  1  0  0  0  0
  8 21  1  0  0  0  0
  8  9  2  0  0  0  0
  9 22  1  0  0  0  0
  9 10  1  0  0  0  0
 10 11  2  0  0  0  0
 12 13  1  0  0  0  0
 12 23  1  0  0  0  0
 13 14  1  0  0  0  0
 13 24  1  0  0  0  0
 13 25  1  0  0  0  0
 14 18  1  0  0  0  0
 14 15  1  0  0  0  0
 14 26  1  0  0  0  0
 15 16  1  0  0  0  0
 15 27  1  0  0  0  0
 15 28  1  0  0  0  0
 16 17  1  0  0  0  0
 16 29  1  0  0  0  0
 16 30  1  0  0  0  0
 17 18  1  0  0  0  0
 17 31  1  0  0  0  0
 17 32  1  0  0  0  0
M  CHG  1   5  -1
M  END
> <s_m_source_file>
AV-unprocessed.smi

> <i_m_source_file_index>
1510

> <i_lp_mmshare_version>
43012

> <i_f3d_flags>
0

> <s_epik_input>
TzFbQ0gyXVtDSDJdW0NIMl1bQ0BIXTFbQ0gyXVtOSF1DKD1PKVtDSDJdbjJbbkhdYyg9TylbY0hdW2NIXWMyPU8=

> <s_epik_cmdline>
J2VwaWtfcHl0aG9uJywgJy1waCcsICc3LjAnLCAnLXRuJywgJzgnLCAnLW1hJywgJzIwMCcsICctbWV0YWxfYmluZGluZycsICctaW1hZScsICc8aW5maWxlLm1hZT4nLCAnLW9tYWUnLCAnPG91dGZpbGUubWFlPic=

> <r_lp_tautomer_probability>
1

> <r_epik_Ionization_Penalty>
0.0970799

> <r_epik_Ionization_Penalty_Charging>
0.0970799

> <r_epik_Ionization_Penalty_Neutral>
2.6859e-08

> <r_epik_State_Penalty>
0.0341592

> <r_epik_Charging_Adjusted_Penalty>
0.131239

> <i_epik_Tot_Q>
-1

> <i_epik_Tot_abs_Q>
1

> <r_epik_Metal_State_Penalty>
0.0341592

> <b_epik_Metal_Only>
0

> <s_lp_Force_Field>
OPLS_2005

> <r_lp_Energy>
32.1041

> <b_lp_Chiralities_Consistent>
1

> <s_lp_Variant>
AV-unprocessed.smi:1510-2

> <Gold.Version>
5.8.1

> <Gold.Id.Protein>
6NUR|6NUR_protein|mol2

> <Gold.PLP.Fitness>
42.4284

> <Gold.PLP.PLP>
-41.5533

> <Gold.PLP.part.hbond>
-2.1559

> <Gold.PLP.part.metal>
0.0000

> <Gold.PLP.part.buried>
-5.3808

> <Gold.PLP.part.nonpolar>
-33.8291

> <Gold.PLP.part.repulsive>
0.9088

> <Gold.PLP.ligand.clash>
0.0000

> <Gold.PLP.ligand.torsion>
1.0314

> <Gold.PLP.Chemscore.Hbond>
0.9760

> <Gold.PLP.Chemscore.CHOScore>
0.0000

> <Gold.PLP.Chemscore.Metal>
0.0000

> <Gold.Chemscore.Hbonds>
donor molecule, donor type, donor heavy atom, donor atom, acceptor molecule, acceptor atom, score
      P1  H  7989  7998       L1    11  0.80

> <Gold.PLP.Chemscore.Internal.Correction>
0.0099

> <Gold.Rescore>
     Score         DG    S(hbond)    S(metal)    S(lipo)     H(rot)  DE(clash)    DE(int)     intcor
     12.11     -13.00       0.98        0.00      81.18       2.05       0.01       0.88       ----

> <Gold.Chemscore.Fitness>
12.1105

> <Gold.Chemscore.DG>
-12.9970

> <Gold.Chemscore.ZeroCoef>
-5.4800

> <Gold.Chemscore.Hbond>
0.9752

> <Gold.Chemscore.Metal>
0.0000

> <Gold.Chemscore.Lipo>
81.1836

> <Gold.Chemscore.Internal_Hbond>
0.0000

> <Gold.Chemscore.DEClash>
0.0057

> <Gold.Chemscore.DEInternal>
0.8807

> <Gold.Chemscore.Rot>
2.0463

> <Gold.Chemscore.Internal.Correction>
   9.000000E+99

> <Gold.Chemscore.Hbonds>
donor molecule, donor type, donor heavy atom, donor atom, acceptor molecule, acceptor atom, score
      P1  H  7989  7998       L1    11  0.75

> <Gold.Chemscore.Hbond.Weighted>
-3.2571

> <Gold.Chemscore.Metal.Weighted>
-0.0000

> <Gold.Chemscore.Lipo.Weighted>
-9.4985

> <Gold.Chemscore.Internal_Hbond.Weighted>
0.0000

> <Gold.Chemscore.DEClash.Weighted>
0.0057

> <Gold.Chemscore.DEInternal.Weighted>
0.8807

> <Gold.Chemscore.Rot.Weighted>
5.2386

> <Gold.Chemscore.Internal.Correction.Weighted>
   9.000000E+99

> <Gold.Protein.RotatedTorsions>
[ 6907 6896 6895 6894 ] final  -23.93 input  -60.11 | X-H torsion
[ 7974 7965 7964 7962 ] final  100.20 input  175.53 | X-H torsion
[ 8008 7997 7996 7995 ] final  153.67 input   59.86 | X-H torsion
[ 10167 10162 10161 10158 ] final   18.34 input  -65.29 | X-H torsion
[ 10718 10713 10712 10709 ] final   11.46 input   66.30 | X-H torsion
[ 10763 10752 10751 10750 ] final  -45.79 input  -60.55 | X-H torsion
[ 11005 11000 10999 10996 ] final    8.67 input  -57.11 | X-H torsion

> <Gold.Protein.ActiveResidues>
 VAL166  LYS551  ARG553  GLY616  TRP617  ASP618  TYR619  PRO620  LYS621  CYS622 
 ASP623  PHE694  ASN695  SER759  ASP760  ASP761  ALA762  ILE779  LEU786  VAL792 
 PHE793  MET794  SER795  GLU796  ALA797  LYS798  CYS799  TRP800  GLU811  SER814 

> <Gold.Protein.RotatedAtoms>
  151.1969  135.0426  159.8855 H   0  0  0  0  0  0  0  0  0  0  0  0  # atno 6907 bound_to 6896
  152.5435  134.0894  159.8280 H   0  0  0  0  0  0  0  0  0  0  0  0  # atno 6908 bound_to 6896
  151.1029  133.5182  159.2641 H   0  0  0  0  0  0  0  0  0  0  0  0  # atno 6909 bound_to 6896
  145.3888  139.2366  143.3363 H   0  0  0  0  0  0  0  0  0  0  0  0  # atno 7974 bound_to 7965
  156.2570  140.1987  156.6527 H   0  0  0  0  0  0  0  0  0  0  0  0  # atno 8008 bound_to 7997
  154.6524  140.0570  156.9996 H   0  0  0  0  0  0  0  0  0  0  0  0  # atno 8009 bound_to 7997
  155.1397  140.3241  155.4457 H   0  0  0  0  0  0  0  0  0  0  0  0  # atno 8010 bound_to 7997
  140.5660  143.9249  150.6677 H   0  0  0  0  0  0  0  0  0  0  0  0  # atno 10167 bound_to 10162
  156.9960  130.6061  149.5691 H   0  0  0  0  0  0  0  0  0  0  0  0  # atno 10718 bound_to 10713
  154.0344  135.6652  153.4784 H   0  0  0  0  0  0  0  0  0  0  0  0  # atno 10763 bound_to 10752
  153.0527  135.5074  154.7902 H   0  0  0  0  0  0  0  0  0  0  0  0  # atno 10764 bound_to 10752
  154.6858  135.3053  154.9515 H   0  0  0  0  0  0  0  0  0  0  0  0  # atno 10765 bound_to 10752
  140.5343  134.0436  155.7883 H   0  0  0  0  0  0  0  0  0  0  0  0  # atno 11005 bound_to 11000
  146.2807  140.4567  142.8777 LP  0  0  0  0  0  0  0  0  0  0  0  0  # atno 17320 bound_to 7965
  144.8455  140.6922  143.6202 LP  0  0  0  0  0  0  0  0  0  0  0  0  # atno 17321 bound_to 7965
  140.2712  143.3455  152.1236 LP  0  0  0  0  0  0  0  0  0  0  0  0  # atno 17342 bound_to 10162
  139.5093  144.6865  151.5872 LP  0  0  0  0  0  0  0  0  0  0  0  0  # atno 17343 bound_to 10162
  156.0189  130.5284  150.8217 LP  0  0  0  0  0  0  0  0  0  0  0  0  # atno 17370 bound_to 10713
  157.5425  131.0941  150.9808 LP  0  0  0  0  0  0  0  0  0  0  0  0  # atno 17371 bound_to 10713
  141.1263  133.9377  157.2628 LP  0  0  0  0  0  0  0  0  0  0  0  0  # atno 17394 bound_to 11000
  139.9537  135.0170  156.9068 LP  0  0  0  0  0  0  0  0  0  0  0  0  # atno 17395 bound_to 11000

$$$$
