AV-unprocessed.smi:2868|AV-procd|sdf|11027|dock5
  -GOLD-   2272015493D 1   1.00000     0.00000
 Structure written by MMmdl.
 49 50  0  0  0  0  0  0  0  0  1 V2000
  147.6953  134.1320  162.1057 C   0  0  0  0  0  0  0  0  0  0  0  0
  147.2399  135.5840  161.8778 C   0  0  0  0  0  0  0  0  0  0  0  0
  145.7064  135.6063  161.7059 C   0  0  0  0  0  0  0  0  0  0  0  0
  147.6647  136.4379  163.0912 C   0  0  0  0  0  0  0  0  0  0  0  0
  147.9049  136.0513  160.6556 N   0  0  0  0  0  0  0  0  0  0  0  0
  147.4608  136.9309  159.7367 C   0  0  0  0  0  0  0  0  0  0  0  0
  146.3703  137.4955  159.8304 O   0  0  0  0  0  0  0  0  0  0  0  0
  148.3202  137.1534  158.7093 N   0  0  0  0  0  0  0  0  0  0  0  0
  148.0299  137.8948  157.4702 C   0  0  0  0  0  0  0  0  0  0  0  0
  148.7161  139.2706  157.5449 C   0  0  0  0  0  0  0  0  0  0  0  0
  150.2348  139.1283  157.7868 C   0  0  0  0  0  0  0  0  0  0  0  0
  150.8149  140.4439  158.0369 N   0  0  0  0  0  0  0  0  0  0  0  0
  152.1244  140.7002  158.1807 C   0  0  0  0  0  0  0  0  0  0  0  0
  152.9974  139.8346  158.1238 O   0  0  0  0  0  0  0  0  0  0  0  0
  152.5107  142.1597  158.4204 C   0  0  0  0  0  0  0  0  0  0  0  0
  152.7457  142.4044  159.8998 C   0  0  0  0  0  0  0  0  0  0  0  0
  153.6007  141.5677  160.6471 C   0  0  0  0  0  0  0  0  0  0  0  0
  153.7843  141.8353  162.0173 C   0  0  0  0  0  0  0  0  0  0  0  0
  153.1038  142.9318  162.5835 C   0  0  0  0  0  0  0  0  0  0  0  0
  152.2835  143.7399  161.8780 N   0  0  0  0  0  0  0  0  0  0  0  0
  152.1121  143.4759  160.5649 C   0  0  0  0  0  0  0  0  0  0  0  0
  150.5328  138.1656  158.9601 C   0  0  0  0  0  0  0  0  0  0  0  0
  149.7519  136.8469  158.8137 C   0  0  0  0  0  0  0  0  0  0  0  0
  147.2475  133.7120  163.0071 H   0  0  0  0  0  0  0  0  0  0  0  0
  148.7783  134.0670  162.2179 H   0  0  0  0  0  0  0  0  0  0  0  0
  147.4123  133.4898  161.2706 H   0  0  0  0  0  0  0  0  0  0  0  0
  145.3966  135.0365  160.8291 H   0  0  0  0  0  0  0  0  0  0  0  0
  145.3202  136.6194  161.5940 H   0  0  0  0  0  0  0  0  0  0  0  0
  145.2082  135.1701  162.5723 H   0  0  0  0  0  0  0  0  0  0  0  0
  147.2584  136.0320  164.0184 H   0  0  0  0  0  0  0  0  0  0  0  0
  147.3122  137.4663  163.0133 H   0  0  0  0  0  0  0  0  0  0  0  0
  148.7498  136.4680  163.1950 H   0  0  0  0  0  0  0  0  0  0  0  0
  148.8165  135.6531  160.4832 H   0  0  0  0  0  0  0  0  0  0  0  0
  148.4182  137.3337  156.6189 H   0  0  0  0  0  0  0  0  0  0  0  0
  146.9667  138.0212  157.2669 H   0  0  0  0  0  0  0  0  0  0  0  0
  148.5353  139.8273  156.6247 H   0  0  0  0  0  0  0  0  0  0  0  0
  148.2636  139.8506  158.3509 H   0  0  0  0  0  0  0  0  0  0  0  0
  150.6756  138.7115  156.8790 H   0  0  0  0  0  0  0  0  0  0  0  0
  150.1721  141.2200  158.0991 H   0  0  0  0  0  0  0  0  0  0  0  0
  153.4073  142.4147  157.8534 H   0  0  0  0  0  0  0  0  0  0  0  0
  151.7142  142.8114  158.0588 H   0  0  0  0  0  0  0  0  0  0  0  0
  154.1048  140.7340  160.1805 H   0  0  0  0  0  0  0  0  0  0  0  0
  154.4306  141.2148  162.6204 H   0  0  0  0  0  0  0  0  0  0  0  0
  153.2216  143.1662  163.6312 H   0  0  0  0  0  0  0  0  0  0  0  0
  151.4481  144.1388  160.0297 H   0  0  0  0  0  0  0  0  0  0  0  0
  151.6016  137.9568  159.0161 H   0  0  0  0  0  0  0  0  0  0  0  0
  150.2608  138.6382  159.9054 H   0  0  0  0  0  0  0  0  0  0  0  0
  149.9829  136.1825  159.6473 H   0  0  0  0  0  0  0  0  0  0  0  0
  150.0773  136.3165  157.9175 H   0  0  0  0  0  0  0  0  0  0  0  0
  1  2  1  0  0  0  0
  1 24  1  0  0  0  0
  1 25  1  0  0  0  0
  1 26  1  0  0  0  0
  2  3  1  0  0  0  0
  2  4  1  0  0  0  0
  2  5  1  0  0  0  0
  3 27  1  0  0  0  0
  3 28  1  0  0  0  0
  3 29  1  0  0  0  0
  4 30  1  0  0  0  0
  4 31  1  0  0  0  0
  4 32  1  0  0  0  0
  5  6  1  0  0  0  0
  5 33  1  0  0  0  0
  6  7  2  0  0  0  0
  6  8  1  0  0  0  0
  8 23  1  0  0  0  0
  8  9  1  0  0  0  0
  9 10  1  0  0  0  0
  9 34  1  0  0  0  0
  9 35  1  0  0  0  0
 10 11  1  0  0  0  0
 10 36  1  0  0  0  0
 10 37  1  0  0  0  0
 11 12  1  0  0  0  0
 11 22  1  0  0  0  0
 11 38  1  0  0  0  0
 12 13  1  0  0  0  0
 12 39  1  0  0  0  0
 13 14  2  0  0  0  0
 13 15  1  0  0  0  0
 15 16  1  0  0  0  0
 15 40  1  0  0  0  0
 15 41  1  0  0  0  0
 16 21  1  0  0  0  0
 16 17  2  0  0  0  0
 17 18  1  0  0  0  0
 17 42  1  0  0  0  0
 18 19  2  0  0  0  0
 18 43  1  0  0  0  0
 19 20  1  0  0  0  0
 19 44  1  0  0  0  0
 20 21  2  0  0  0  0
 21 45  1  0  0  0  0
 22 23  1  0  0  0  0
 22 46  1  0  0  0  0
 22 47  1  0  0  0  0
 23 48  1  0  0  0  0
 23 49  1  0  0  0  0
M  END
> <s_m_source_file>
AV-unprocessed.smi

> <i_m_source_file_index>
2868

> <i_lp_mmshare_version>
43012

> <i_f3d_flags>
0

> <s_epik_input>
W0NIM11DKFtDSDNdKShbQ0gzXSlbTkhdQyg9TylOMVtDSDJdW0NIMl1bQ0hdKFtDSDJdW0NIMl0xKVtOSF1DKD1PKVtDSDJdYzJbY0hdW2NIXVtjSF1uW2NIXTI=

> <s_epik_cmdline>
J2VwaWtfcHl0aG9uJywgJy1waCcsICc3LjAnLCAnLXRuJywgJzgnLCAnLW1hJywgJzIwMCcsICctbWV0YWxfYmluZGluZycsICctaW1hZScsICc8aW5maWxlLm1hZT4nLCAnLW9tYWUnLCAnPG91dGZpbGUubWFlPic=

> <r_epik_Ionization_Penalty>
0.00419782

> <r_epik_Ionization_Penalty_Charging>
0

> <r_epik_Ionization_Penalty_Neutral>
0.00419782

> <r_epik_State_Penalty>
0.0029617

> <r_epik_Charging_Adjusted_Penalty>
0.0029617

> <i_epik_Tot_Q>
0

> <i_epik_Tot_abs_Q>
0

> <r_epik_Metal_State_Penalty>
-0

> <b_epik_Metal_Only>
0

> <s_lp_Force_Field>
OPLS_2005

> <r_lp_Energy>
29.348

> <b_lp_Chiralities_Consistent>
1

> <s_lp_Variant>
AV-unprocessed.smi:2868-1

> <Gold.Version>
5.8.1

> <Gold.Id.Protein>
6NUR|6NUR_protein|mol2

> <Gold.PLP.Fitness>
46.8422

> <Gold.PLP.PLP>
-45.0331

> <Gold.PLP.part.hbond>
-2.0000

> <Gold.PLP.part.metal>
0.0000

> <Gold.PLP.part.buried>
-7.1258

> <Gold.PLP.part.nonpolar>
-35.4151

> <Gold.PLP.part.repulsive>
0.4581

> <Gold.PLP.ligand.clash>
1.0647

> <Gold.PLP.ligand.torsion>
1.0652

> <Gold.PLP.Chemscore.Hbond>
1.6443

> <Gold.PLP.Chemscore.CHOScore>
0.0000

> <Gold.PLP.Chemscore.Metal>
0.0000

> <Gold.Chemscore.Hbonds>
donor molecule, donor type, donor heavy atom, donor atom, acceptor molecule, acceptor atom, score
      P1  H  6934  6947       L1     7  0.64
      P1  H  7997  8010       L1    14  1.00

> <Gold.PLP.Chemscore.Internal.Correction>
0.0712

> <Gold.Rescore>
     Score         DG    S(hbond)    S(metal)    S(lipo)     H(rot)  DE(clash)    DE(int)     intcor
     15.11     -17.86       0.98        0.00     111.17       1.52       0.16       2.58       ----

> <Gold.Chemscore.Fitness>
15.1127

> <Gold.Chemscore.DG>
-17.8594

> <Gold.Chemscore.ZeroCoef>
-5.4800

> <Gold.Chemscore.Hbond>
0.9769

> <Gold.Chemscore.Metal>
0.0000

> <Gold.Chemscore.Lipo>
111.1716

> <Gold.Chemscore.Internal_Hbond>
0.0000

> <Gold.Chemscore.DEClash>
0.1634

> <Gold.Chemscore.DEInternal>
2.5833

> <Gold.Chemscore.Rot>
1.5197

> <Gold.Chemscore.Internal.Correction>
   9.000000E+99

> <Gold.Chemscore.Hbonds>
donor molecule, donor type, donor heavy atom, donor atom, acceptor molecule, acceptor atom, score
      P1  H  6934  6947       L1     7  0.05
      P1  H  7997  8010       L1    14  0.89

> <Gold.Chemscore.Hbond.Weighted>
-3.2628

> <Gold.Chemscore.Metal.Weighted>
-0.0000

> <Gold.Chemscore.Lipo.Weighted>
-13.0071

> <Gold.Chemscore.Internal_Hbond.Weighted>
0.0000

> <Gold.Chemscore.DEClash.Weighted>
0.1634

> <Gold.Chemscore.DEInternal.Weighted>
2.5833

> <Gold.Chemscore.Rot.Weighted>
3.8904

> <Gold.Chemscore.Internal.Correction.Weighted>
   9.000000E+99

> <Gold.Protein.RotatedTorsions>
[ 6907 6896 6895 6894 ] final   17.83 input  -60.11 | X-H torsion
[ 7974 7965 7964 7962 ] final -173.40 input  175.53 | X-H torsion
[ 8008 7997 7996 7995 ] final   52.68 input   59.86 | X-H torsion
[ 10167 10162 10161 10158 ] final  -83.05 input  -65.29 | X-H torsion
[ 10718 10713 10712 10709 ] final  -41.85 input   66.30 | X-H torsion
[ 10763 10752 10751 10750 ] final   -6.35 input  -60.55 | X-H torsion
[ 11005 11000 10999 10996 ] final    0.75 input  -57.11 | X-H torsion

> <Gold.Protein.ActiveResidues>
 VAL166  LYS551  ARG553  GLY616  TRP617  ASP618  TYR619  PRO620  LYS621  CYS622 
 ASP623  PHE694  ASN695  SER759  ASP760  ASP761  ALA762  ILE779  LEU786  VAL792 
 PHE793  MET794  SER795  GLU796  ALA797  LYS798  CYS799  TRP800  GLU811  SER814 

> <Gold.Protein.RotatedAtoms>
  151.8558  135.0542  160.0463 H   0  0  0  0  0  0  0  0  0  0  0  0  # atno 6907 bound_to 6896
  152.2701  133.5370  159.5442 H   0  0  0  0  0  0  0  0  0  0  0  0  # atno 6908 bound_to 6896
  150.7148  134.0625  159.3878 H   0  0  0  0  0  0  0  0  0  0  0  0  # atno 6909 bound_to 6896
  144.7138  140.1628  143.6374 H   0  0  0  0  0  0  0  0  0  0  0  0  # atno 7974 bound_to 7965
  155.4557  140.3460  155.4306 H   0  0  0  0  0  0  0  0  0  0  0  0  # atno 8008 bound_to 7997
  156.1192  140.1482  156.9258 H   0  0  0  0  0  0  0  0  0  0  0  0  # atno 8009 bound_to 7997
  154.4811  140.0869  156.7359 H   0  0  0  0  0  0  0  0  0  0  0  0  # atno 8010 bound_to 7997
  140.4263  143.2565  151.8821 H   0  0  0  0  0  0  0  0  0  0  0  0  # atno 10167 bound_to 10162
  156.2659  130.4201  149.8490 H   0  0  0  0  0  0  0  0  0  0  0  0  # atno 10718 bound_to 10713
  153.4111  135.7007  153.6358 H   0  0  0  0  0  0  0  0  0  0  0  0  # atno 10763 bound_to 10752
  153.4852  135.3685  155.2463 H   0  0  0  0  0  0  0  0  0  0  0  0  # atno 10764 bound_to 10752
  154.8717  135.4075  154.3463 H   0  0  0  0  0  0  0  0  0  0  0  0  # atno 10765 bound_to 10752
  140.6231  133.9643  155.8235 H   0  0  0  0  0  0  0  0  0  0  0  0  # atno 11005 bound_to 11000
  145.9015  139.2433  143.1491 LP  0  0  0  0  0  0  0  0  0  0  0  0  # atno 17320 bound_to 7965
  145.9806  140.8685  143.0116 LP  0  0  0  0  0  0  0  0  0  0  0  0  # atno 17321 bound_to 7965
  139.4783  144.5383  151.8566 LP  0  0  0  0  0  0  0  0  0  0  0  0  # atno 17342 bound_to 10162
  140.4477  144.1898  150.5895 LP  0  0  0  0  0  0  0  0  0  0  0  0  # atno 17343 bound_to 10162
  156.5989  130.8538  151.3427 LP  0  0  0  0  0  0  0  0  0  0  0  0  # atno 17370 bound_to 10713
  157.7267  130.9633  150.1668 LP  0  0  0  0  0  0  0  0  0  0  0  0  # atno 17371 bound_to 10713
  141.0728  134.0179  157.3501 LP  0  0  0  0  0  0  0  0  0  0  0  0  # atno 17394 bound_to 11000
  139.9145  135.0195  156.7828 LP  0  0  0  0  0  0  0  0  0  0  0  0  # atno 17395 bound_to 11000

$$$$
