AV-unprocessed.smi:1577|AV-procd|sdf|6349|dock1
  -GOLD-   22720 6563D 1   1.00000     0.00000
 Structure written by MMmdl.
 39 40  0  0  0  0  0  0  0  0  1 V2000
  145.0064  134.4879  151.1097 C   0  0  0  0  0  0  0  0  0  0  0  0
  145.0383  135.9848  151.4452 C   0  0  0  0  0  0  0  0  0  0  0  0
  146.2090  136.3338  152.2410 N   0  0  0  0  0  0  0  0  0  0  0  0
  146.1840  137.0540  153.3711 C   0  0  0  0  0  0  0  0  0  0  0  0
  145.1578  137.5011  153.8837 O   0  0  0  0  0  0  0  0  0  0  0  0
  147.4141  137.2353  153.8697 N   0  0  0  0  0  0  0  0  0  0  0  0
  147.7299  138.0082  155.0665 C   0  0  0  0  0  0  0  0  0  0  0  0
  147.8696  139.5077  154.8206 C   0  0  0  0  0  0  0  0  0  0  0  0
  146.7907  140.2176  154.2519 C   0  0  0  0  0  0  0  0  0  0  0  0
  146.9171  141.6009  154.0307 C   0  0  0  0  0  0  0  0  0  0  0  0
  148.1250  142.2258  154.3902 C   0  0  0  0  0  0  0  0  0  0  0  0
  149.1659  141.5630  154.9354 N   0  0  0  0  0  0  0  0  0  0  0  0
  149.0469  140.2301  155.1493 C   0  0  0  0  0  0  0  0  0  0  0  0
  150.1504  139.5697  155.7125 N   0  0  0  0  0  0  0  0  0  0  0  0
  151.2233  139.3187  154.7589 C   0  0  0  0  0  0  0  0  0  0  0  0
  152.3042  138.4408  155.4115 C   0  0  0  0  0  0  0  0  0  0  0  0
  152.7734  139.0685  156.6019 O   0  0  0  0  0  0  0  0  0  0  0  0
  151.7328  139.2569  157.5576 C   0  0  0  0  0  0  0  0  0  0  0  0
  150.6339  140.1516  156.9577 C   0  0  0  0  0  0  0  0  0  0  0  0
  144.1465  134.2509  150.4831 H   0  0  0  0  0  0  0  0  0  0  0  0
  144.9340  133.8802  152.0122 H   0  0  0  0  0  0  0  0  0  0  0  0
  145.9048  134.1848  150.5713 H   0  0  0  0  0  0  0  0  0  0  0  0
  145.0679  136.5673  150.5242 H   0  0  0  0  0  0  0  0  0  0  0  0
  144.1260  136.2768  151.9678 H   0  0  0  0  0  0  0  0  0  0  0  0
  147.1034  136.0122  151.9013 H   0  0  0  0  0  0  0  0  0  0  0  0
  148.1934  136.8261  153.3757 H   0  0  0  0  0  0  0  0  0  0  0  0
  146.9719  137.8181  155.8285 H   0  0  0  0  0  0  0  0  0  0  0  0
  148.6700  137.6367  155.4745 H   0  0  0  0  0  0  0  0  0  0  0  0
  145.8754  139.7101  153.9845 H   0  0  0  0  0  0  0  0  0  0  0  0
  146.1079  142.1685  153.5956 H   0  0  0  0  0  0  0  0  0  0  0  0
  148.2592  143.2862  154.2356 H   0  0  0  0  0  0  0  0  0  0  0  0
  150.8261  138.8279  153.8697 H   0  0  0  0  0  0  0  0  0  0  0  0
  151.6586  140.2659  154.4371 H   0  0  0  0  0  0  0  0  0  0  0  0
  151.9117  137.4486  155.6403 H   0  0  0  0  0  0  0  0  0  0  0  0
  153.1412  138.3027  154.7271 H   0  0  0  0  0  0  0  0  0  0  0  0
  151.3253  138.2911  157.8608 H   0  0  0  0  0  0  0  0  0  0  0  0
  152.1502  139.7214  158.4509 H   0  0  0  0  0  0  0  0  0  0  0  0
  151.0312  141.1503  156.7705 H   0  0  0  0  0  0  0  0  0  0  0  0
  149.8080  140.2573  157.6619 H   0  0  0  0  0  0  0  0  0  0  0  0
  1  2  1  0  0  0  0
  1 20  1  0  0  0  0
  1 21  1  0  0  0  0
  1 22  1  0  0  0  0
  2  3  1  0  0  0  0
  2 23  1  0  0  0  0
  2 24  1  0  0  0  0
  3  4  1  0  0  0  0
  3 25  1  0  0  0  0
  4  5  2  0  0  0  0
  4  6  1  0  0  0  0
  6  7  1  0  0  0  0
  6 26  1  0  0  0  0
  7  8  1  0  0  0  0
  7 27  1  0  0  0  0
  7 28  1  0  0  0  0
  8 13  1  0  0  0  0
  8  9  2  0  0  0  0
  9 10  1  0  0  0  0
  9 29  1  0  0  0  0
 10 11  2  0  0  0  0
 10 30  1  0  0  0  0
 11 12  1  0  0  0  0
 11 31  1  0  0  0  0
 12 13  2  0  0  0  0
 13 14  1  0  0  0  0
 14 19  1  0  0  0  0
 14 15  1  0  0  0  0
 15 16  1  0  0  0  0
 15 32  1  0  0  0  0
 15 33  1  0  0  0  0
 16 17  1  0  0  0  0
 16 34  1  0  0  0  0
 16 35  1  0  0  0  0
 17 18  1  0  0  0  0
 18 19  1  0  0  0  0
 18 36  1  0  0  0  0
 18 37  1  0  0  0  0
 19 38  1  0  0  0  0
 19 39  1  0  0  0  0
M  END
> <s_m_source_file>
AV-unprocessed.smi

> <i_m_source_file_index>
1577

> <i_lp_mmshare_version>
43012

> <i_f3d_flags>
0

> <s_epik_input>
W0NIM11bQ0gyXVtOSF1DKD1PKVtOSF1bQ0gyXWMxW2NIXVtjSF1bY0hdbmMxTjJbQ0gyXVtDSDJdT1tDSDJdW0NIMl0y

> <s_epik_cmdline>
J2VwaWtfcHl0aG9uJywgJy1waCcsICc3LjAnLCAnLXRuJywgJzgnLCAnLW1hJywgJzIwMCcsICctbWV0YWxfYmluZGluZycsICctaW1hZScsICc8aW5maWxlLm1hZT4nLCAnLW9tYWUnLCAnPG91dGZpbGUubWFlPic=

> <r_lp_tautomer_probability>
1

> <r_epik_Ionization_Penalty>
0.00610239

> <r_epik_Ionization_Penalty_Charging>
0

> <r_epik_Ionization_Penalty_Neutral>
0.00610239

> <r_epik_State_Penalty>
0.00445678

> <r_epik_Charging_Adjusted_Penalty>
0.00445678

> <i_epik_Tot_Q>
0

> <i_epik_Tot_abs_Q>
0

> <r_epik_Metal_State_Penalty>
-0

> <b_epik_Metal_Only>
0

> <s_lp_Force_Field>
OPLS_2005

> <r_lp_Energy>
16.2097

> <b_lp_Chiralities_Consistent>
1

> <s_lp_Variant>
AV-unprocessed.smi:1577-1

> <Gold.Version>
5.8.1

> <Gold.Id.Protein>
6NUR|6NUR_protein|mol2

> <Gold.PLP.Fitness>
36.2567

> <Gold.PLP.PLP>
-25.2004

> <Gold.PLP.part.hbond>
-3.0000

> <Gold.PLP.part.metal>
0.0000

> <Gold.PLP.part.buried>
-0.4717

> <Gold.PLP.part.nonpolar>
-21.7876

> <Gold.PLP.part.repulsive>
0.3272

> <Gold.PLP.ligand.clash>
0.0000

> <Gold.PLP.ligand.torsion>
0.5031

> <Gold.PLP.Chemscore.Hbond>
2.9760

> <Gold.PLP.Chemscore.CHOScore>
1.0000

> <Gold.PLP.Chemscore.Metal>
0.0000

> <Gold.Chemscore.Hbonds>
donor molecule, donor type, donor heavy atom, donor atom, acceptor molecule, acceptor atom, score
      L1  H     3    25       P1  7948  0.99
      L1  H     6    26       P1  7948  1.00
      P1  H  7997  8009       L1    17  1.00
      L1  C    11    31       P1  8028  0.98

> <Gold.PLP.Chemscore.Internal.Correction>
0.1345

> <Gold.Rescore>
     Score         DG    S(hbond)    S(metal)    S(lipo)     H(rot)  DE(clash)    DE(int)     intcor
     16.19     -17.57       2.87        0.00      59.31       1.73       1.07       0.31       ----

> <Gold.Chemscore.Fitness>
16.1901

> <Gold.Chemscore.DG>
-17.5713

> <Gold.Chemscore.ZeroCoef>
-5.4800

> <Gold.Chemscore.Hbond>
2.8664

> <Gold.Chemscore.Metal>
0.0000

> <Gold.Chemscore.Lipo>
59.3125

> <Gold.Chemscore.Internal_Hbond>
0.0000

> <Gold.Chemscore.DEClash>
1.0695

> <Gold.Chemscore.DEInternal>
0.3117

> <Gold.Chemscore.Rot>
1.7274

> <Gold.Chemscore.Internal.Correction>
   9.000000E+99

> <Gold.Chemscore.Hbonds>
donor molecule, donor type, donor heavy atom, donor atom, acceptor molecule, acceptor atom, score
      L1  H     3    25       P1  7948  0.94
      L1  H     6    26       P1  7948  0.95
      P1  H  7997  8009       L1    17  0.97

> <Gold.Chemscore.Hbond.Weighted>
-9.5738

> <Gold.Chemscore.Metal.Weighted>
-0.0000

> <Gold.Chemscore.Lipo.Weighted>
-6.9396

> <Gold.Chemscore.Internal_Hbond.Weighted>
0.0000

> <Gold.Chemscore.DEClash.Weighted>
1.0695

> <Gold.Chemscore.DEInternal.Weighted>
0.3117

> <Gold.Chemscore.Rot.Weighted>
4.4221

> <Gold.Chemscore.Internal.Correction.Weighted>
   9.000000E+99

> <Gold.Protein.RotatedTorsions>
[ 6907 6896 6895 6894 ] final  -43.33 input  -60.11 | X-H torsion
[ 7974 7965 7964 7962 ] final -124.08 input  175.53 | X-H torsion
[ 8008 7997 7996 7995 ] final -175.84 input   59.86 | X-H torsion
[ 10167 10162 10161 10158 ] final   24.13 input  -65.29 | X-H torsion
[ 10718 10713 10712 10709 ] final -116.09 input   66.30 | X-H torsion
[ 10763 10752 10751 10750 ] final  137.56 input  -60.55 | X-H torsion
[ 11005 11000 10999 10996 ] final -111.89 input  -57.11 | X-H torsion

> <Gold.Protein.ActiveResidues>
 VAL166  LYS551  ARG553  GLY616  TRP617  ASP618  TYR619  PRO620  LYS621  CYS622 
 ASP623  PHE694  ASN695  SER759  ASP760  ASP761  ALA762  ILE779  LEU786  VAL792 
 PHE793  MET794  SER795  GLU796  ALA797  LYS798  CYS799  TRP800  GLU811  SER814 

> <Gold.Protein.RotatedAtoms>
  150.9451  134.8857  159.7636 H   0  0  0  0  0  0  0  0  0  0  0  0  # atno 6907 bound_to 6896
  152.5096  134.3886  159.9386 H   0  0  0  0  0  0  0  0  0  0  0  0  # atno 6908 bound_to 6896
  151.3905  133.3750  159.2755 H   0  0  0  0  0  0  0  0  0  0  0  0  # atno 6909 bound_to 6896
  145.0119  140.7913  143.4433 H   0  0  0  0  0  0  0  0  0  0  0  0  # atno 7974 bound_to 7965
  155.9875  140.1194  157.0669 H   0  0  0  0  0  0  0  0  0  0  0  0  # atno 8008 bound_to 7997
  154.4201  140.1132  156.5588 H   0  0  0  0  0  0  0  0  0  0  0  0  # atno 8009 bound_to 7997
  155.6388  140.3473  155.4710 H   0  0  0  0  0  0  0  0  0  0  0  0  # atno 8010 bound_to 7997
  140.5213  143.9998  150.6418 H   0  0  0  0  0  0  0  0  0  0  0  0  # atno 10167 bound_to 10162
  156.0940  130.6116  150.8991 H   0  0  0  0  0  0  0  0  0  0  0  0  # atno 10718 bound_to 10713
  153.8750  135.3051  155.3443 H   0  0  0  0  0  0  0  0  0  0  0  0  # atno 10763 bound_to 10752
  154.7788  135.4847  153.9803 H   0  0  0  0  0  0  0  0  0  0  0  0  # atno 10764 bound_to 10752
  153.1384  135.6819  153.9162 H   0  0  0  0  0  0  0  0  0  0  0  0  # atno 10765 bound_to 10752
  141.0708  133.9383  157.2489 H   0  0  0  0  0  0  0  0  0  0  0  0  # atno 11005 bound_to 11000
  145.2012  139.2251  143.5192 LP  0  0  0  0  0  0  0  0  0  0  0  0  # atno 17320 bound_to 7965
  146.3471  140.1830  142.8589 LP  0  0  0  0  0  0  0  0  0  0  0  0  # atno 17321 bound_to 7965
  140.3348  143.3056  152.0650 LP  0  0  0  0  0  0  0  0  0  0  0  0  # atno 17342 bound_to 10162
  139.4924  144.6484  151.6728 LP  0  0  0  0  0  0  0  0  0  0  0  0  # atno 17343 bound_to 10162
  157.6096  131.0937  150.8818 LP  0  0  0  0  0  0  0  0  0  0  0  0  # atno 17370 bound_to 10713
  156.8960  130.5230  149.5284 LP  0  0  0  0  0  0  0  0  0  0  0  0  # atno 17371 bound_to 10713
  139.9521  135.0173  156.9024 LP  0  0  0  0  0  0  0  0  0  0  0  0  # atno 17394 bound_to 11000
  140.5678  134.0473  155.7420 LP  0  0  0  0  0  0  0  0  0  0  0  0  # atno 17395 bound_to 11000

$$$$
