AV-unprocessed.smi:1513|AV-procd|sdf|6108|dock8
  -GOLD-   22720 6243D 1   1.00000     0.00000
 Structure written by MMmdl.
 34 35  0  0  0  0  0  0  0  0  1 V2000
  153.1612  138.2397  154.5459 N   0  0  0  0  0  0  0  0  0  0  0  0
  151.7233  138.4293  155.4674 S   0  0  0  0  0  0  0  0  0  0  0  0
  151.0953  139.7109  155.1130 O   0  0  0  0  0  0  0  0  0  0  0  0
  150.9696  137.1669  155.4346 O   0  0  0  0  0  0  0  0  0  0  0  0
  152.4348  138.5932  157.0257 N   0  0  0  0  0  0  0  0  0  0  0  0
  151.5955  138.9412  158.1709 C   0  0  0  0  0  0  0  0  0  0  0  0
  151.9039  140.3273  158.7156 C   0  0  0  0  0  0  0  0  0  0  0  0
  153.0891  140.5443  159.4496 C   0  0  0  0  0  0  0  0  0  0  0  0
  153.3558  141.8298  159.9555 C   0  0  0  0  0  0  0  0  0  0  0  0
  152.4212  142.8523  159.7072 C   0  0  0  0  0  0  0  0  0  0  0  0
  151.2832  142.6602  159.0077 N   0  0  0  0  0  0  0  0  0  0  0  0
  151.0241  141.4230  158.5192 C   0  0  0  0  0  0  0  0  0  0  0  0
  149.8408  141.2507  157.7830 N   0  0  0  0  0  0  0  0  0  0  0  0
  148.6097  141.5849  158.4874 C   0  0  0  0  0  0  0  0  0  0  0  0
  147.3985  141.1724  157.6345 C   0  0  0  0  0  0  0  0  0  0  0  0
  147.4791  141.8031  156.3589 O   0  0  0  0  0  0  0  0  0  0  0  0
  148.6527  141.4237  155.6445 C   0  0  0  0  0  0  0  0  0  0  0  0
  149.9033  141.8250  156.4463 C   0  0  0  0  0  0  0  0  0  0  0  0
  153.9998  138.4313  155.0938 H   0  0  0  0  0  0  0  0  0  0  0  0
  153.1254  138.7487  153.6630 H   0  0  0  0  0  0  0  0  0  0  0  0
  153.1588  137.9038  157.2257 H   0  0  0  0  0  0  0  0  0  0  0  0
  150.5485  138.8684  157.8753 H   0  0  0  0  0  0  0  0  0  0  0  0
  151.7436  138.2094  158.9657 H   0  0  0  0  0  0  0  0  0  0  0  0
  153.7852  139.7376  159.6264 H   0  0  0  0  0  0  0  0  0  0  0  0
  154.2545  142.0267  160.5212 H   0  0  0  0  0  0  0  0  0  0  0  0
  152.5919  143.8515  160.0796 H   0  0  0  0  0  0  0  0  0  0  0  0
  148.5843  141.0732  159.4503 H   0  0  0  0  0  0  0  0  0  0  0  0
  148.5741  142.6569  158.6859 H   0  0  0  0  0  0  0  0  0  0  0  0
  147.3571  140.0885  157.5151 H   0  0  0  0  0  0  0  0  0  0  0  0
  146.4728  141.4751  158.1236 H   0  0  0  0  0  0  0  0  0  0  0  0
  148.6420  140.3498  155.4536 H   0  0  0  0  0  0  0  0  0  0  0  0
  148.6539  141.9186  154.6735 H   0  0  0  0  0  0  0  0  0  0  0  0
  149.9670  142.9116  156.5206 H   0  0  0  0  0  0  0  0  0  0  0  0
  150.8030  141.4823  155.9340 H   0  0  0  0  0  0  0  0  0  0  0  0
  1  2  1  0  0  0  0
  1 19  1  0  0  0  0
  1 20  1  0  0  0  0
  2  3  2  0  0  0  0
  2  4  2  0  0  0  0
  2  5  1  0  0  0  0
  5  6  1  0  0  0  0
  5 21  1  0  0  0  0
  6  7  1  0  0  0  0
  6 22  1  0  0  0  0
  6 23  1  0  0  0  0
  7 12  1  0  0  0  0
  7  8  2  0  0  0  0
  8  9  1  0  0  0  0
  8 24  1  0  0  0  0
  9 10  2  0  0  0  0
  9 25  1  0  0  0  0
 10 11  1  0  0  0  0
 10 26  1  0  0  0  0
 11 12  2  0  0  0  0
 12 13  1  0  0  0  0
 13 18  1  0  0  0  0
 13 14  1  0  0  0  0
 14 15  1  0  0  0  0
 14 27  1  0  0  0  0
 14 28  1  0  0  0  0
 15 16  1  0  0  0  0
 15 29  1  0  0  0  0
 15 30  1  0  0  0  0
 16 17  1  0  0  0  0
 17 18  1  0  0  0  0
 17 31  1  0  0  0  0
 17 32  1  0  0  0  0
 18 33  1  0  0  0  0
 18 34  1  0  0  0  0
M  END
> <s_m_source_file>
AV-unprocessed.smi

> <i_m_source_file_index>
1513

> <i_lp_mmshare_version>
43012

> <i_f3d_flags>
0

> <s_epik_input>
W05IMl1TKD1PKSg9TylbTkhdW0NIMl1jMVtjSF1bY0hdW2NIXW5jMU4yW0NIMl1bQ0gyXU9bQ0gyXVtDSDJdMg==

> <s_epik_cmdline>
J2VwaWtfcHl0aG9uJywgJy1waCcsICc3LjAnLCAnLXRuJywgJzgnLCAnLW1hJywgJzIwMCcsICctbWV0YWxfYmluZGluZycsICctaW1hZScsICc8aW5maWxlLm1hZT4nLCAnLW9tYWUnLCAnPG91dGZpbGUubWFlPic=

> <r_lp_tautomer_probability>
1

> <r_epik_Ionization_Penalty>
0.193648

> <r_epik_Ionization_Penalty_Charging>
0

> <r_epik_Ionization_Penalty_Neutral>
0.193648

> <r_epik_State_Penalty>
0.187016

> <r_epik_Charging_Adjusted_Penalty>
0.187016

> <i_epik_Tot_Q>
0

> <i_epik_Tot_abs_Q>
0

> <r_epik_Metal_State_Penalty>
0.77957

> <b_epik_Metal_Only>
0

> <s_lp_Force_Field>
OPLS_2005

> <r_lp_Energy>
22.2983

> <b_lp_Chiralities_Consistent>
1

> <s_lp_Variant>
AV-unprocessed.smi:1513-1

> <Gold.Version>
5.8.1

> <Gold.Id.Protein>
6NUR|6NUR_protein|mol2

> <Gold.PLP.Fitness>
39.0497

> <Gold.PLP.PLP>
-32.9956

> <Gold.PLP.part.hbond>
-4.4393

> <Gold.PLP.part.metal>
0.0000

> <Gold.PLP.part.buried>
-6.1854

> <Gold.PLP.part.nonpolar>
-22.5149

> <Gold.PLP.part.repulsive>
0.3259

> <Gold.PLP.ligand.clash>
0.0000

> <Gold.PLP.ligand.torsion>
0.8035

> <Gold.PLP.Chemscore.Hbond>
2.4670

> <Gold.PLP.Chemscore.CHOScore>
0.0000

> <Gold.PLP.Chemscore.Metal>
0.0000

> <Gold.Chemscore.Hbonds>
donor molecule, donor type, donor heavy atom, donor atom, acceptor molecule, acceptor atom, score
      P1  H  7989  7998       L1     3  0.93

> <Gold.PLP.Chemscore.Internal.Correction>
0.2601

> <Gold.Rescore>
     Score         DG    S(hbond)    S(metal)    S(lipo)     H(rot)  DE(clash)    DE(int)     intcor
     11.84     -12.61       1.89        0.00      60.83       2.47       0.02       0.75       ----

> <Gold.Chemscore.Fitness>
11.8387

> <Gold.Chemscore.DG>
-12.6071

> <Gold.Chemscore.ZeroCoef>
-5.4800

> <Gold.Chemscore.Hbond>
1.8939

> <Gold.Chemscore.Metal>
0.0000

> <Gold.Chemscore.Lipo>
60.8309

> <Gold.Chemscore.Internal_Hbond>
0.0000

> <Gold.Chemscore.DEClash>
0.0207

> <Gold.Chemscore.DEInternal>
0.7477

> <Gold.Chemscore.Rot>
2.4671

> <Gold.Chemscore.Internal.Correction>
   9.000000E+99

> <Gold.Chemscore.Hbonds>
donor molecule, donor type, donor heavy atom, donor atom, acceptor molecule, acceptor atom, score
      P1  H  7989  7998       L1     3  0.88

> <Gold.Chemscore.Hbond.Weighted>
-6.3256

> <Gold.Chemscore.Metal.Weighted>
-0.0000

> <Gold.Chemscore.Lipo.Weighted>
-7.1172

> <Gold.Chemscore.Internal_Hbond.Weighted>
0.0000

> <Gold.Chemscore.DEClash.Weighted>
0.0207

> <Gold.Chemscore.DEInternal.Weighted>
0.7477

> <Gold.Chemscore.Rot.Weighted>
6.3157

> <Gold.Chemscore.Internal.Correction.Weighted>
   9.000000E+99

> <Gold.Protein.RotatedTorsions>
[ 6907 6896 6895 6894 ] final   21.79 input  -60.11 | X-H torsion
[ 7974 7965 7964 7962 ] final -167.00 input  175.53 | X-H torsion
[ 8008 7997 7996 7995 ] final -177.37 input   59.86 | X-H torsion
[ 10167 10162 10161 10158 ] final   16.88 input  -65.29 | X-H torsion
[ 10718 10713 10712 10709 ] final   17.20 input   66.30 | X-H torsion
[ 10763 10752 10751 10750 ] final  176.74 input  -60.55 | X-H torsion
[ 11005 11000 10999 10996 ] final    6.17 input  -57.11 | X-H torsion

> <Gold.Protein.ActiveResidues>
 VAL166  LYS551  ARG553  GLY616  TRP617  ASP618  TYR619  PRO620  LYS621  CYS622 
 ASP623  PHE694  ASN695  SER759  ASP760  ASP761  ALA762  ILE779  LEU786  VAL792 
 PHE793  MET794  SER795  GLU796  ALA797  LYS798  CYS799  TRP800  GLU811  SER814 

> <Gold.Protein.RotatedAtoms>
  151.9172  135.0314  160.0518 H   0  0  0  0  0  0  0  0  0  0  0  0  # atno 6907 bound_to 6896
  152.2230  133.4994  159.5181 H   0  0  0  0  0  0  0  0  0  0  0  0  # atno 6908 bound_to 6896
  150.7005  134.1234  159.4086 H   0  0  0  0  0  0  0  0  0  0  0  0  # atno 6909 bound_to 6896
  144.7232  140.2583  143.6268 H   0  0  0  0  0  0  0  0  0  0  0  0  # atno 7974 bound_to 7965
  156.0062  140.1231  157.0499 H   0  0  0  0  0  0  0  0  0  0  0  0  # atno 8008 bound_to 7997
  154.4259  140.1097  156.5834 H   0  0  0  0  0  0  0  0  0  0  0  0  # atno 8009 bound_to 7997
  155.6144  140.3472  155.4634 H   0  0  0  0  0  0  0  0  0  0  0  0  # atno 8010 bound_to 7997
  140.5766  143.9061  150.6755 H   0  0  0  0  0  0  0  0  0  0  0  0  # atno 10167 bound_to 10162
  157.0787  130.6379  149.5821 H   0  0  0  0  0  0  0  0  0  0  0  0  # atno 10718 bound_to 10713
  154.4852  135.2776  155.1539 H   0  0  0  0  0  0  0  0  0  0  0  0  # atno 10763 bound_to 10752
  154.3233  135.6205  153.5521 H   0  0  0  0  0  0  0  0  0  0  0  0  # atno 10764 bound_to 10752
  152.9880  135.5748  154.5262 H   0  0  0  0  0  0  0  0  0  0  0  0  # atno 10765 bound_to 10752
  140.5625  134.0179  155.7977 H   0  0  0  0  0  0  0  0  0  0  0  0  # atno 11005 bound_to 11000
  145.8161  139.2023  143.1965 LP  0  0  0  0  0  0  0  0  0  0  0  0  # atno 17320 bound_to 7965
  146.0554  140.8026  142.9761 LP  0  0  0  0  0  0  0  0  0  0  0  0  # atno 17321 bound_to 7965
  140.2550  143.3565  152.1373 LP  0  0  0  0  0  0  0  0  0  0  0  0  # atno 17342 bound_to 10162
  139.5146  144.6950  151.5655 LP  0  0  0  0  0  0  0  0  0  0  0  0  # atno 17343 bound_to 10162
  155.9929  130.4989  150.7361 LP  0  0  0  0  0  0  0  0  0  0  0  0  # atno 17370 bound_to 10713
  157.4818  131.0903  151.0528 LP  0  0  0  0  0  0  0  0  0  0  0  0  # atno 17371 bound_to 10713
  141.1106  133.9623  157.2917 LP  0  0  0  0  0  0  0  0  0  0  0  0  # atno 17394 bound_to 11000
  139.9401  135.0192  156.8680 LP  0  0  0  0  0  0  0  0  0  0  0  0  # atno 17395 bound_to 11000

$$$$
