AV-unprocessed.smi:94|AV-procd|sdf|853|dock10
  -GOLD-   2262017303D 1   1.00000     0.00000
 Structure written by MMmdl.
 53 55  0  0  0  0  0  0  0  0  1 V2000
  146.7507  137.7533  163.5052 C   0  0  0  0  0  0  0  0  0  0  0  0
  146.8958  137.3116  162.1633 O   0  0  0  0  0  0  0  0  0  0  0  0
  147.0949  135.9653  161.9310 C   0  0  0  0  0  0  0  0  0  0  0  0
  147.1412  134.9957  162.9656 C   0  0  0  0  0  0  0  0  0  0  0  0
  147.3384  133.6342  162.6688 C   0  0  0  0  0  0  0  0  0  0  0  0
  147.4870  133.2170  161.3334 C   0  0  0  0  0  0  0  0  0  0  0  0
  147.6908  131.7538  160.9990 C   0  0  0  0  0  0  0  0  0  0  0  0
  147.4395  134.1697  160.3002 C   0  0  0  0  0  0  0  0  0  0  0  0
  147.2566  135.5443  160.5870 C   0  0  0  0  0  0  0  0  0  0  0  0
  147.2126  136.5669  159.4501 C   0  0  2  0  0  0  0  0  0  0  0  0
  146.2511  136.1094  158.3405 C   0  0  0  0  0  0  0  0  0  0  0  0
  148.5435  136.8061  158.9039 N   0  0  0  0  0  0  0  0  0  0  0  0
  149.1268  137.9865  158.6438 C   0  0  0  0  0  0  0  0  0  0  0  0
  148.5684  139.0669  158.8282 O   0  0  0  0  0  0  0  0  0  0  0  0
  150.5666  137.9559  158.0958 C   0  0  0  0  0  0  0  0  0  0  0  0
  151.5271  138.7887  158.8611 N   0  0  0  0  0  0  0  0  0  0  0  0
  152.4768  138.1377  159.6876 C   0  0  0  0  0  0  0  0  0  0  0  0
  152.4984  136.9107  159.7927 O   0  0  0  0  0  0  0  0  0  0  0  0
  153.4147  139.0137  160.3798 C   0  0  0  0  0  0  0  0  0  0  0  0
  154.3333  138.4861  161.2065 F   0  0  0  0  0  0  0  0  0  0  0  0
  153.3791  140.3495  160.1992 C   0  0  0  0  0  0  0  0  0  0  0  0
  152.4757  140.9704  159.3592 N   0  0  0  0  0  0  0  0  0  0  0  0
  152.5186  142.4764  159.2235 C   0  0  1  0  0  0  0  0  0  0  0  0
  151.1321  143.1351  159.2749 C   0  0  0  0  0  0  0  0  0  0  0  0
  151.4484  144.4306  159.9903 C   0  0  0  0  0  0  0  0  0  0  0  0
  152.5429  143.9996  160.9609 C   0  0  0  0  0  0  0  0  0  0  0  0
  153.2932  143.0125  160.2572 O   0  0  0  0  0  0  0  0  0  0  0  0
  151.4992  140.1947  158.6917 C   0  0  0  0  0  0  0  0  0  0  0  0
  150.6549  140.7196  157.9651 O   0  0  0  0  0  0  0  0  0  0  0  0
  146.6055  138.8335  163.5137 H   0  0  0  0  0  0  0  0  0  0  0  0
  147.6427  137.5364  164.0947 H   0  0  0  0  0  0  0  0  0  0  0  0
  145.8808  137.3010  163.9831 H   0  0  0  0  0  0  0  0  0  0  0  0
  147.0262  135.2704  164.0029 H   0  0  0  0  0  0  0  0  0  0  0  0
  147.3698  132.9124  163.4716 H   0  0  0  0  0  0  0  0  0  0  0  0
  146.7833  131.3403  160.5583 H   0  0  0  0  0  0  0  0  0  0  0  0
  147.9351  131.1733  161.8894 H   0  0  0  0  0  0  0  0  0  0  0  0
  148.5050  131.6361  160.2827 H   0  0  0  0  0  0  0  0  0  0  0  0
  147.5423  133.8281  159.2803 H   0  0  0  0  0  0  0  0  0  0  0  0
  146.8571  137.5155  159.8558 H   0  0  0  0  0  0  0  0  0  0  0  0
  145.2436  135.9651  158.7316 H   0  0  0  0  0  0  0  0  0  0  0  0
  146.5752  135.1653  157.9009 H   0  0  0  0  0  0  0  0  0  0  0  0
  146.1859  136.8452  157.5386 H   0  0  0  0  0  0  0  0  0  0  0  0
  149.0918  135.9798  158.7154 H   0  0  0  0  0  0  0  0  0  0  0  0
  150.8953  136.9161  158.0692 H   0  0  0  0  0  0  0  0  0  0  0  0
  150.5400  138.2475  157.0449 H   0  0  0  0  0  0  0  0  0  0  0  0
  154.0987  140.9522  160.7340 H   0  0  0  0  0  0  0  0  0  0  0  0
  153.0289  142.6804  158.2813 H   0  0  0  0  0  0  0  0  0  0  0  0
  150.7304  143.2777  158.2717 H   0  0  0  0  0  0  0  0  0  0  0  0
  150.4254  142.5403  159.8522 H   0  0  0  0  0  0  0  0  0  0  0  0
  151.8421  145.1621  159.2835 H   0  0  0  0  0  0  0  0  0  0  0  0
  150.5829  144.8670  160.4896 H   0  0  0  0  0  0  0  0  0  0  0  0
  153.1751  144.8307  161.2734 H   0  0  0  0  0  0  0  0  0  0  0  0
  152.1071  143.5558  161.8561 H   0  0  0  0  0  0  0  0  0  0  0  0
  1  2  1  0  0  0  0
  1 30  1  0  0  0  0
  1 31  1  0  0  0  0
  1 32  1  0  0  0  0
  2  3  1  0  0  0  0
  3  9  1  0  0  0  0
  3  4  2  0  0  0  0
  4  5  1  0  0  0  0
  4 33  1  0  0  0  0
  5  6  2  0  0  0  0
  5 34  1  0  0  0  0
  6  7  1  0  0  0  0
  6  8  1  0  0  0  0
  7 35  1  0  0  0  0
  7 36  1  0  0  0  0
  7 37  1  0  0  0  0
  8  9  2  0  0  0  0
  8 38  1  0  0  0  0
  9 10  1  0  0  0  0
 10 11  1  0  0  0  0
 10 12  1  0  0  0  0
 10 39  1  0  0  0  0
 11 40  1  0  0  0  0
 11 41  1  0  0  0  0
 11 42  1  0  0  0  0
 12 13  1  0  0  0  0
 12 43  1  0  0  0  0
 13 14  2  0  0  0  0
 13 15  1  0  0  0  0
 15 16  1  0  0  0  0
 15 44  1  0  0  0  0
 15 45  1  0  0  0  0
 16 28  1  0  0  0  0
 16 17  1  0  0  0  0
 17 18  2  0  0  0  0
 17 19  1  0  0  0  0
 19 20  1  0  0  0  0
 19 21  2  0  0  0  0
 21 22  1  0  0  0  0
 21 46  1  0  0  0  0
 22 23  1  0  0  0  0
 22 28  1  0  0  0  0
 23 27  1  0  0  0  0
 23 24  1  0  0  0  0
 23 47  1  0  0  0  0
 24 25  1  0  0  0  0
 24 48  1  0  0  0  0
 24 49  1  0  0  0  0
 25 26  1  0  0  0  0
 25 50  1  0  0  0  0
 25 51  1  0  0  0  0
 26 27  1  0  0  0  0
 26 52  1  0  0  0  0
 26 53  1  0  0  0  0
 28 29  2  0  0  0  0
M  END
> <s_m_source_file>
AV-unprocessed.smi

> <i_m_source_file_index>
94

> <i_lp_mmshare_version>
43012

> <i_f3d_flags>
0

> <s_epik_input>
W0NIM11PYzFbY0hdW2NIXWMoW0NIM10pW2NIXWMxW0NASF0oW0NIM10pW05IXUMoPU8pW0NIMl1uMmMoPU8pYyhGKVtjSF1uKGMyPU8pW0NAQEhdM1tDSDJdW0NIMl1bQ0gyXU8z

> <s_epik_cmdline>
J2VwaWtfcHl0aG9uJywgJy1waCcsICc3LjAnLCAnLXRuJywgJzgnLCAnLW1hJywgJzIwMCcsICctbWV0YWxfYmluZGluZycsICctaW1hZScsICc8aW5maWxlLm1hZT4nLCAnLW9tYWUnLCAnPG91dGZpbGUubWFlPic=

> <r_lp_tautomer_probability>
1

> <r_epik_Ionization_Penalty>
3.37009e-08

> <r_epik_Ionization_Penalty_Charging>
3.59856e-09

> <r_epik_Ionization_Penalty_Neutral>
3.01024e-08

> <r_epik_State_Penalty>
-0

> <r_epik_Charging_Adjusted_Penalty>
3.59856e-09

> <i_epik_Tot_Q>
0

> <i_epik_Tot_abs_Q>
0

> <r_epik_Metal_State_Penalty>
-0

> <b_epik_Metal_Only>
0

> <s_epik_Chemistry_Notes>
This compound contains an acetal/aminal-like group ( X-CH(R)-Y where X, Y are N, S, or O) that may be acid/base labile, releasing an aldehyde.

> <s_lp_Force_Field>
OPLS_2005

> <r_lp_Energy>
25.2965

> <b_lp_Chiralities_Consistent>
1

> <s_lp_Variant>
AV-unprocessed.smi:94-3

> <Gold.Version>
5.8.1

> <Gold.Id.Protein>
6NUR|6NUR_protein|mol2

> <Gold.PLP.Fitness>
53.1729

> <Gold.PLP.PLP>
-49.4395

> <Gold.PLP.part.hbond>
-3.8770

> <Gold.PLP.part.metal>
0.0000

> <Gold.PLP.part.buried>
-6.7286

> <Gold.PLP.part.nonpolar>
-39.2377

> <Gold.PLP.part.repulsive>
0.1392

> <Gold.PLP.ligand.clash>
0.0000

> <Gold.PLP.ligand.torsion>
1.0977

> <Gold.PLP.Chemscore.Hbond>
1.9537

> <Gold.PLP.Chemscore.CHOScore>
0.0000

> <Gold.PLP.Chemscore.Metal>
0.0000

> <Gold.Chemscore.Hbonds>
donor molecule, donor type, donor heavy atom, donor atom, acceptor molecule, acceptor atom, score
      P1  H  6896  6909       L1    18  1.00
      P1  H  6931  6943       L1     2  0.11
      P1  H  6934  6947       L1     2  0.59

> <Gold.PLP.Chemscore.Internal.Correction>
0.0677

> <Gold.Rescore>
     Score         DG    S(hbond)    S(metal)    S(lipo)     H(rot)  DE(clash)    DE(int)     intcor
     13.86     -17.57       1.53        0.00     110.90       2.34       0.17       3.54       ----

> <Gold.Chemscore.Fitness>
13.8604

> <Gold.Chemscore.DG>
-17.5672

> <Gold.Chemscore.ZeroCoef>
-5.4800

> <Gold.Chemscore.Hbond>
1.5252

> <Gold.Chemscore.Metal>
0.0000

> <Gold.Chemscore.Lipo>
110.9027

> <Gold.Chemscore.Internal_Hbond>
0.0000

> <Gold.Chemscore.DEClash>
0.1680

> <Gold.Chemscore.DEInternal>
3.5389

> <Gold.Chemscore.Rot>
2.3370

> <Gold.Chemscore.Internal.Correction>
   9.000000E+99

> <Gold.Chemscore.Hbonds>
donor molecule, donor type, donor heavy atom, donor atom, acceptor molecule, acceptor atom, score
      P1  H  6896  6909       L1    18  1.00
      P1  H  6934  6947       L1     2  0.35

> <Gold.Chemscore.Hbond.Weighted>
-5.0943

> <Gold.Chemscore.Metal.Weighted>
-0.0000

> <Gold.Chemscore.Lipo.Weighted>
-12.9756

> <Gold.Chemscore.Internal_Hbond.Weighted>
0.0000

> <Gold.Chemscore.DEClash.Weighted>
0.1680

> <Gold.Chemscore.DEInternal.Weighted>
3.5389

> <Gold.Chemscore.Rot.Weighted>
5.9827

> <Gold.Chemscore.Internal.Correction.Weighted>
   9.000000E+99

> <Gold.Protein.RotatedTorsions>
[ 6907 6896 6895 6894 ] final  130.93 input  -60.11 | X-H torsion
[ 7974 7965 7964 7962 ] final  -22.32 input  175.53 | X-H torsion
[ 8008 7997 7996 7995 ] final   -6.75 input   59.86 | X-H torsion
[ 10167 10162 10161 10158 ] final  -48.21 input  -65.29 | X-H torsion
[ 10718 10713 10712 10709 ] final -122.39 input   66.30 | X-H torsion
[ 10763 10752 10751 10750 ] final   88.67 input  -60.55 | X-H torsion
[ 11005 11000 10999 10996 ] final -136.82 input  -57.11 | X-H torsion

> <Gold.Protein.ActiveResidues>
 VAL166  LYS551  ARG553  GLY616  TRP617  ASP618  TYR619  PRO620  LYS621  CYS622 
 ASP623  PHE694  ASN695  SER759  ASP760  ASP761  ALA762  ILE779  LEU786  VAL792 
 PHE793  MET794  SER795  GLU796  ALA797  LYS798  CYS799  TRP800  GLU811  SER814 

> <Gold.Protein.RotatedAtoms>
  152.3477  133.6142  159.5922 H   0  0  0  0  0  0  0  0  0  0  0  0  # atno 6907 bound_to 6896
  150.7518  133.9623  159.3528 H   0  0  0  0  0  0  0  0  0  0  0  0  # atno 6908 bound_to 6896
  151.7479  135.0840  160.0377 H   0  0  0  0  0  0  0  0  0  0  0  0  # atno 6909 bound_to 6896
  146.1682  140.4462  142.8543 H   0  0  0  0  0  0  0  0  0  0  0  0  # atno 7974 bound_to 7965
  154.5906  140.2425  155.7926 H   0  0  0  0  0  0  0  0  0  0  0  0  # atno 8008 bound_to 7997
  156.2244  140.2987  155.9986 H   0  0  0  0  0  0  0  0  0  0  0  0  # atno 8009 bound_to 7997
  155.2380  140.0406  157.2961 H   0  0  0  0  0  0  0  0  0  0  0  0  # atno 8010 bound_to 7997
  140.6741  143.2750  151.4038 H   0  0  0  0  0  0  0  0  0  0  0  0  # atno 10167 bound_to 10162
  156.1415  130.6469  150.9778 H   0  0  0  0  0  0  0  0  0  0  0  0  # atno 10718 bound_to 10713
  153.1792  135.4498  155.0006 H   0  0  0  0  0  0  0  0  0  0  0  0  # atno 10763 bound_to 10752
  154.8019  135.3259  154.7531 H   0  0  0  0  0  0  0  0  0  0  0  0  # atno 10764 bound_to 10752
  153.7998  135.6963  153.4912 H   0  0  0  0  0  0  0  0  0  0  0  0  # atno 10765 bound_to 10752
  140.8769  134.1981  157.4616 H   0  0  0  0  0  0  0  0  0  0  0  0  # atno 11005 bound_to 11000
  144.8124  140.6409  143.6406 LP  0  0  0  0  0  0  0  0  0  0  0  0  # atno 17320 bound_to 7965
  145.4410  139.1536  143.3970 LP  0  0  0  0  0  0  0  0  0  0  0  0  # atno 17321 bound_to 7965
  139.6024  144.1268  152.2212 LP  0  0  0  0  0  0  0  0  0  0  0  0  # atno 17342 bound_to 10162
  140.0656  144.5821  150.7230 LP  0  0  0  0  0  0  0  0  0  0  0  0  # atno 17343 bound_to 10162
  157.6580  131.0886  150.7904 LP  0  0  0  0  0  0  0  0  0  0  0  0  # atno 17370 bound_to 10713
  156.7979  130.4911  149.5374 LP  0  0  0  0  0  0  0  0  0  0  0  0  # atno 17371 bound_to 10713
  139.8716  134.9799  156.5057 LP  0  0  0  0  0  0  0  0  0  0  0  0  # atno 17394 bound_to 11000
  140.8508  133.8134  155.9166 LP  0  0  0  0  0  0  0  0  0  0  0  0  # atno 17395 bound_to 11000

$$$$
