AV-unprocessed.smi:1493|AV-procd|sdf|6048|dock2
  -GOLD-   22720 6163D 1   1.00000     0.00000
 Structure written by MMmdl.
 33 33  0  0  0  0  0  0  0  0  2 V2000
  153.0433  142.7332  162.3045 C   0  0  0  0  0  0  0  0  0  0  0  0
  152.3417  142.7982  160.9434 C   0  0  0  0  0  0  0  0  0  0  0  0
  153.3358  142.8105  159.7693 C   0  0  0  0  0  0  0  0  0  0  0  0
  152.6810  143.0809  158.4012 C   0  0  2  0  0  0  0  0  0  0  0  0
  152.2081  144.5387  158.2836 C   0  0  0  0  0  0  0  0  0  0  0  0
  151.5569  142.1720  158.1886 N   0  0  0  0  0  0  0  0  0  0  0  0
  151.6296  140.8318  158.1760 C   0  0  0  0  0  0  0  0  0  0  0  0
  152.6782  140.2119  158.3614 O   0  0  0  0  0  0  0  0  0  0  0  0
  150.3050  140.0925  157.9295 C   0  0  0  0  0  0  0  0  0  0  0  0
  149.6392  140.4666  156.6730 N   0  0  0  0  0  0  0  0  0  0  0  0
  148.3192  141.0634  156.8583 N   0  5  0  0  0  0  0  0  0  0  0  0
  147.5986  141.4303  155.7654 C   0  0  0  0  0  0  0  0  0  0  0  0
  146.4747  141.9213  155.8422 O   0  0  0  0  0  0  0  0  0  0  0  0
  148.1955  141.2339  154.4547 C   0  0  0  0  0  0  0  0  0  0  0  0
  149.4275  140.7063  154.3146 C   0  0  0  0  0  0  0  0  0  0  0  0
  150.2341  140.2959  155.4575 C   0  0  0  0  0  0  0  0  0  0  0  0
  151.3664  139.8273  155.3373 O   0  0  0  0  0  0  0  0  0  0  0  0
  152.3153  142.7249  163.1159 H   0  0  0  0  0  0  0  0  0  0  0  0
  153.6970  143.5932  162.4527 H   0  0  0  0  0  0  0  0  0  0  0  0
  153.6496  141.8313  162.3919 H   0  0  0  0  0  0  0  0  0  0  0  0
  151.6706  141.9444  160.8449 H   0  0  0  0  0  0  0  0  0  0  0  0
  151.7130  143.6885  160.9115 H   0  0  0  0  0  0  0  0  0  0  0  0
  154.1116  143.5540  159.9580 H   0  0  0  0  0  0  0  0  0  0  0  0
  153.8449  141.8466  159.7310 H   0  0  0  0  0  0  0  0  0  0  0  0
  153.4333  142.9030  157.6304 H   0  0  0  0  0  0  0  0  0  0  0  0
  153.0377  145.2322  158.4232 H   0  0  0  0  0  0  0  0  0  0  0  0
  151.4497  144.7712  159.0320 H   0  0  0  0  0  0  0  0  0  0  0  0
  151.7781  144.7374  157.3012 H   0  0  0  0  0  0  0  0  0  0  0  0
  150.6533  142.5951  158.0340 H   0  0  0  0  0  0  0  0  0  0  0  0
  150.5110  139.0210  157.9507 H   0  0  0  0  0  0  0  0  0  0  0  0
  149.6260  140.2770  158.7640 H   0  0  0  0  0  0  0  0  0  0  0  0
  147.6397  141.5194  153.5738 H   0  0  0  0  0  0  0  0  0  0  0  0
  149.8320  140.5803  153.3216 H   0  0  0  0  0  0  0  0  0  0  0  0
  1  2  1  0  0  0  0
  1 18  1  0  0  0  0
  1 19  1  0  0  0  0
  1 20  1  0  0  0  0
  2  3  1  0  0  0  0
  2 21  1  0  0  0  0
  2 22  1  0  0  0  0
  3  4  1  0  0  0  0
  3 23  1  0  0  0  0
  3 24  1  0  0  0  0
  4  5  1  0  0  0  0
  4  6  1  0  0  0  0
  4 25  1  0  0  0  0
  5 26  1  0  0  0  0
  5 27  1  0  0  0  0
  5 28  1  0  0  0  0
  6  7  1  0  0  0  0
  6 29  1  0  0  0  0
  7  8  2  0  0  0  0
  7  9  1  0  0  0  0
  9 30  1  0  0  0  0
  9 31  1  0  0  0  0
  9 10  1  0  0  0  0
 10 11  1  0  0  0  0
 10 16  1  0  0  0  0
 11 12  1  0  0  0  0
 12 13  2  0  0  0  0
 12 14  1  0  0  0  0
 14 32  1  0  0  0  0
 14 15  2  0  0  0  0
 15 33  1  0  0  0  0
 15 16  1  0  0  0  0
 16 17  2  0  0  0  0
M  CHG  1  11  -1
M  END
> <s_m_source_file>
AV-unprocessed.smi

> <i_m_source_file_index>
1493

> <i_lp_mmshare_version>
43012

> <i_f3d_flags>
0

> <s_epik_input>
W0NIM11bQ0gyXVtDSDJdW0NASF0oW0NIM10pW05IXUMoPU8pW0NIMl1uMVtuSF1jKD1PKVtjSF1bY0hdYzE9Tw==

> <s_epik_cmdline>
J2VwaWtfcHl0aG9uJywgJy1waCcsICc3LjAnLCAnLXRuJywgJzgnLCAnLW1hJywgJzIwMCcsICctbWV0YWxfYmluZGluZycsICctaW1hZScsICc8aW5maWxlLm1hZT4nLCAnLW9tYWUnLCAnPG91dGZpbGUubWFlPic=

> <r_lp_tautomer_probability>
1

> <r_epik_Ionization_Penalty>
0.0986298

> <r_epik_Ionization_Penalty_Charging>
0.0986298

> <r_epik_Ionization_Penalty_Neutral>
1.93017e-08

> <r_epik_State_Penalty>
0.0347731

> <r_epik_Charging_Adjusted_Penalty>
0.133403

> <i_epik_Tot_Q>
-1

> <i_epik_Tot_abs_Q>
1

> <r_epik_Metal_State_Penalty>
0.0347731

> <b_epik_Metal_Only>
0

> <s_lp_Force_Field>
OPLS_2005

> <r_lp_Energy>
18.8288

> <b_lp_Chiralities_Consistent>
1

> <s_lp_Variant>
AV-unprocessed.smi:1493-1

> <Gold.Version>
5.8.1

> <Gold.Id.Protein>
6NUR|6NUR_protein|mol2

> <Gold.PLP.Fitness>
42.0311

> <Gold.PLP.PLP>
-37.0571

> <Gold.PLP.part.hbond>
-2.0000

> <Gold.PLP.part.metal>
0.0000

> <Gold.PLP.part.buried>
-2.2418

> <Gold.PLP.part.nonpolar>
-31.0043

> <Gold.PLP.part.repulsive>
0.2773

> <Gold.PLP.ligand.clash>
0.0000

> <Gold.PLP.ligand.torsion>
0.0803

> <Gold.PLP.Chemscore.Hbond>
1.6948

> <Gold.PLP.Chemscore.CHOScore>
0.0000

> <Gold.PLP.Chemscore.Metal>
0.0000

> <Gold.Chemscore.Hbonds>
donor molecule, donor type, donor heavy atom, donor atom, acceptor molecule, acceptor atom, score
      P1  H  7989  7998       L1    17  0.42
      P1  H  7997  8009       L1     8  0.25

> <Gold.PLP.Chemscore.Internal.Correction>
0.0503

> <Gold.Rescore>
     Score         DG    S(hbond)    S(metal)    S(lipo)     H(rot)  DE(clash)    DE(int)     intcor
     14.72     -15.05       1.80        0.00      77.21       2.14       0.02       0.32       ----

> <Gold.Chemscore.Fitness>
14.7164

> <Gold.Chemscore.DG>
-15.0522

> <Gold.Chemscore.ZeroCoef>
-5.4800

> <Gold.Chemscore.Hbond>
1.7995

> <Gold.Chemscore.Metal>
0.0000

> <Gold.Chemscore.Lipo>
77.2072

> <Gold.Chemscore.Internal_Hbond>
0.0000

> <Gold.Chemscore.DEClash>
0.0153

> <Gold.Chemscore.DEInternal>
0.3205

> <Gold.Chemscore.Rot>
2.1372

> <Gold.Chemscore.Internal.Correction>
   9.000000E+99

> <Gold.Chemscore.Hbonds>
donor molecule, donor type, donor heavy atom, donor atom, acceptor molecule, acceptor atom, score
      P1  H  7989  7998       L1    17  0.02
      P1  H  7997  8009       L1     8  0.25

> <Gold.Chemscore.Hbond.Weighted>
-6.0103

> <Gold.Chemscore.Metal.Weighted>
-0.0000

> <Gold.Chemscore.Lipo.Weighted>
-9.0332

> <Gold.Chemscore.Internal_Hbond.Weighted>
0.0000

> <Gold.Chemscore.DEClash.Weighted>
0.0153

> <Gold.Chemscore.DEInternal.Weighted>
0.3205

> <Gold.Chemscore.Rot.Weighted>
5.4713

> <Gold.Chemscore.Internal.Correction.Weighted>
   9.000000E+99

> <Gold.Protein.RotatedTorsions>
[ 6907 6896 6895 6894 ] final    8.77 input  -60.11 | X-H torsion
[ 7974 7965 7964 7962 ] final   51.47 input  175.53 | X-H torsion
[ 8008 7997 7996 7995 ] final  163.25 input   59.86 | X-H torsion
[ 10167 10162 10161 10158 ] final  177.46 input  -65.29 | X-H torsion
[ 10718 10713 10712 10709 ] final   78.98 input   66.30 | X-H torsion
[ 10763 10752 10751 10750 ] final   58.11 input  -60.55 | X-H torsion
[ 11005 11000 10999 10996 ] final  -75.64 input  -57.11 | X-H torsion

> <Gold.Protein.ActiveResidues>
 VAL166  LYS551  ARG553  GLY616  TRP617  ASP618  TYR619  PRO620  LYS621  CYS622 
 ASP623  PHE694  ASN695  SER759  ASP760  ASP761  ALA762  ILE779  LEU786  VAL792 
 PHE793  MET794  SER795  GLU796  ALA797  LYS798  CYS799  TRP800  GLU811  SER814 

> <Gold.Protein.RotatedAtoms>
  151.7114  135.0912  160.0268 H   0  0  0  0  0  0  0  0  0  0  0  0  # atno 6907 bound_to 6896
  152.3659  133.6352  159.6059 H   0  0  0  0  0  0  0  0  0  0  0  0  # atno 6908 bound_to 6896
  150.7638  133.9265  159.3455 H   0  0  0  0  0  0  0  0  0  0  0  0  # atno 6909 bound_to 6896
  145.9910  139.4338  143.0074 H   0  0  0  0  0  0  0  0  0  0  0  0  # atno 7974 bound_to 7965
  156.1971  140.1728  156.7975 H   0  0  0  0  0  0  0  0  0  0  0  0  # atno 8008 bound_to 7997
  154.5544  140.0711  156.8750 H   0  0  0  0  0  0  0  0  0  0  0  0  # atno 8009 bound_to 7997
  155.2967  140.3359  155.4252 H   0  0  0  0  0  0  0  0  0  0  0  0  # atno 8010 bound_to 7997
  139.5254  144.2796  152.0558 H   0  0  0  0  0  0  0  0  0  0  0  0  # atno 10167 bound_to 10162
  157.6762  130.9893  150.1865 H   0  0  0  0  0  0  0  0  0  0  0  0  # atno 10718 bound_to 10713
  152.9864  135.5618  154.5500 H   0  0  0  0  0  0  0  0  0  0  0  0  # atno 10763 bound_to 10752
  154.4939  135.2794  155.1477 H   0  0  0  0  0  0  0  0  0  0  0  0  # atno 10764 bound_to 10752
  154.2935  135.6321  153.5448 H   0  0  0  0  0  0  0  0  0  0  0  0  # atno 10765 bound_to 10752
  141.1647  133.6954  156.7548 H   0  0  0  0  0  0  0  0  0  0  0  0  # atno 11005 bound_to 11000
  145.7630  140.9927  143.1189 LP  0  0  0  0  0  0  0  0  0  0  0  0  # atno 17320 bound_to 7965
  144.6889  139.9354  143.7473 LP  0  0  0  0  0  0  0  0  0  0  0  0  # atno 17321 bound_to 7965
  140.2252  144.4425  150.6324 LP  0  0  0  0  0  0  0  0  0  0  0  0  # atno 17342 bound_to 10162
  140.6392  143.2200  151.6327 LP  0  0  0  0  0  0  0  0  0  0  0  0  # atno 17343 bound_to 10162
  156.2586  130.3708  149.8155 LP  0  0  0  0  0  0  0  0  0  0  0  0  # atno 17370 bound_to 10713
  156.5906  130.8505  151.3407 LP  0  0  0  0  0  0  0  0  0  0  0  0  # atno 17371 bound_to 10713
  140.2577  134.8491  157.3729 LP  0  0  0  0  0  0  0  0  0  0  0  0  # atno 17394 bound_to 11000
  140.1641  134.4691  155.7875 LP  0  0  0  0  0  0  0  0  0  0  0  0  # atno 17395 bound_to 11000

$$$$
