AV-unprocessed.smi:2746|AV-procd|sdf|10575|dock4
  -GOLD-   2272015 23D 1   1.00000     0.00000
 Structure written by MMmdl.
 38 39  0  0  0  0  0  0  0  0  3 V2000
  152.8070  142.7224  160.3985 C   0  0  0  0  0  0  0  0  0  0  0  0
  153.2251  143.4735  159.3633 C   0  0  0  0  0  0  0  0  0  0  0  0
  152.3663  144.3624  158.4722 C   0  0  2  0  0  0  0  0  0  0  0  0
  151.5589  145.3477  159.3296 C   0  0  0  0  0  0  0  0  0  0  0  0
  151.4396  143.6631  157.5768 N   0  5  0  0  0  0  0  0  0  0  0  0
  150.5590  142.7002  157.9686 C   0  0  0  0  0  0  0  0  0  0  0  0
  150.0825  142.4730  159.0864 O   0  0  0  0  0  0  0  0  0  0  0  0
  150.1998  141.7639  156.8472 C   0  0  0  0  0  0  0  0  0  0  0  0
  150.4620  140.3723  156.8905 C   0  0  0  0  0  0  0  0  0  0  0  0
  150.1255  139.5449  155.7920 C   0  0  0  0  0  0  0  0  0  0  0  0
  150.3854  138.1592  155.8496 N   0  0  0  0  0  0  0  0  0  0  0  0
  150.9918  137.6763  157.0880 C   0  0  0  0  0  0  0  0  0  0  0  0
  150.9089  136.1416  157.1612 C   0  0  0  0  0  0  0  0  0  0  0  0
  151.4923  135.5709  155.9942 O   0  0  0  0  0  0  0  0  0  0  0  0
  150.8083  135.9693  154.8109 C   0  0  0  0  0  0  0  0  0  0  0  0
  150.8961  137.4968  154.6532 C   0  0  0  0  0  0  0  0  0  0  0  0
  149.5269  140.1570  154.6612 C   0  0  0  0  0  0  0  0  0  0  0  0
  149.3015  141.5471  154.6581 C   0  0  0  0  0  0  0  0  0  0  0  0
  149.6462  142.2873  155.7311 N   0  3  0  0  0  0  0  0  0  0  0  0
  151.7723  142.6787  160.7090 H   0  0  0  0  0  0  0  0  0  0  0  0
  153.5135  142.1293  160.9596 H   0  0  0  0  0  0  0  0  0  0  0  0
  154.2774  143.4597  159.1199 H   0  0  0  0  0  0  0  0  0  0  0  0
  153.0846  144.9590  157.9079 H   0  0  0  0  0  0  0  0  0  0  0  0
  152.2130  145.9330  159.9766 H   0  0  0  0  0  0  0  0  0  0  0  0
  150.8415  144.8281  159.9661 H   0  0  0  0  0  0  0  0  0  0  0  0
  151.0040  146.0512  158.7076 H   0  0  0  0  0  0  0  0  0  0  0  0
  150.9092  139.9409  157.7743 H   0  0  0  0  0  0  0  0  0  0  0  0
  152.0352  137.9936  157.1147 H   0  0  0  0  0  0  0  0  0  0  0  0
  150.5103  138.1007  157.9679 H   0  0  0  0  0  0  0  0  0  0  0  0
  151.4438  135.7788  158.0390 H   0  0  0  0  0  0  0  0  0  0  0  0
  149.8732  135.8126  157.2614 H   0  0  0  0  0  0  0  0  0  0  0  0
  151.2650  135.4760  153.9529 H   0  0  0  0  0  0  0  0  0  0  0  0
  149.7682  135.6413  154.8503 H   0  0  0  0  0  0  0  0  0  0  0  0
  150.3218  137.8035  153.7781 H   0  0  0  0  0  0  0  0  0  0  0  0
  151.9329  137.7935  154.4886 H   0  0  0  0  0  0  0  0  0  0  0  0
  149.2494  139.5874  153.7873 H   0  0  0  0  0  0  0  0  0  0  0  0
  148.8610  142.0865  153.8327 H   0  0  0  0  0  0  0  0  0  0  0  0
  149.4790  143.2936  155.7087 H   0  0  0  0  0  0  0  0  0  0  0  0
  1  2  2  0  0  0  0
  1 20  1  0  0  0  0
  1 21  1  0  0  0  0
  2  3  1  0  0  0  0
  2 22  1  0  0  0  0
  3  4  1  0  0  0  0
  3  5  1  0  0  0  0
  3 23  1  0  0  0  0
  4 24  1  0  0  0  0
  4 25  1  0  0  0  0
  4 26  1  0  0  0  0
  5  6  1  0  0  0  0
  6  7  2  0  0  0  0
  6  8  1  0  0  0  0
  8 19  1  0  0  0  0
  8  9  2  0  0  0  0
  9 10  1  0  0  0  0
  9 27  1  0  0  0  0
 10 11  1  0  0  0  0
 10 17  2  0  0  0  0
 11 16  1  0  0  0  0
 11 12  1  0  0  0  0
 12 13  1  0  0  0  0
 12 28  1  0  0  0  0
 12 29  1  0  0  0  0
 13 14  1  0  0  0  0
 13 30  1  0  0  0  0
 13 31  1  0  0  0  0
 14 15  1  0  0  0  0
 15 16  1  0  0  0  0
 15 32  1  0  0  0  0
 15 33  1  0  0  0  0
 16 34  1  0  0  0  0
 16 35  1  0  0  0  0
 17 18  1  0  0  0  0
 17 36  1  0  0  0  0
 18 19  2  0  0  0  0
 18 37  1  0  0  0  0
 19 38  1  0  0  0  0
M  CHG  1   5  -1
M  CHG  1  19   1
M  END
> <s_m_source_file>
AV-unprocessed.smi

> <i_m_source_file_index>
2746

> <i_lp_mmshare_version>
43012

> <i_f3d_flags>
0

> <s_epik_input>
W0NIMl09W0NIXVtDQEhdKFtDSDNdKVtOSF1DKD1PKWMxW2NIXWMoW2NIXVtjSF1uMSlOMltDSDJdW0NIMl1PW0NIMl1bQ0gyXTI=

> <s_epik_cmdline>
J2VwaWtfcHl0aG9uJywgJy1waCcsICc3LjAnLCAnLXRuJywgJzgnLCAnLW1hJywgJzIwMCcsICctbWV0YWxfYmluZGluZycsICctaW1hZScsICc8aW5maWxlLm1hZT4nLCAnLW9tYWUnLCAnPG91dGZpbGUubWFlPic=

> <r_lp_tautomer_probability>
1

> <r_epik_Ionization_Penalty>
4.23471

> <r_epik_Ionization_Penalty_Charging>
4.23471

> <r_epik_Ionization_Penalty_Neutral>
3.18831e-12

> <r_epik_State_Penalty>
4.68748

> <r_epik_Charging_Adjusted_Penalty>
8.92219

> <i_epik_Tot_Q>
0

> <i_epik_Tot_abs_Q>
2

> <r_epik_Metal_State_Penalty>
1.16626

> <b_epik_Metal_Only>
1

> <s_lp_Force_Field>
OPLS_2005

> <r_lp_Energy>
19.089

> <b_lp_Chiralities_Consistent>
1

> <s_lp_Variant>
AV-unprocessed.smi:2746-5

> <Gold.Version>
5.8.1

> <Gold.Id.Protein>
6NUR|6NUR_protein|mol2

> <Gold.PLP.Fitness>
44.7281

> <Gold.PLP.PLP>
-38.3436

> <Gold.PLP.part.hbond>
-2.9701

> <Gold.PLP.part.metal>
0.0000

> <Gold.PLP.part.buried>
-3.9170

> <Gold.PLP.part.nonpolar>
-32.7173

> <Gold.PLP.part.repulsive>
0.4278

> <Gold.PLP.ligand.clash>
0.0000

> <Gold.PLP.ligand.torsion>
1.6540

> <Gold.PLP.Chemscore.Hbond>
2.9920

> <Gold.PLP.Chemscore.CHOScore>
0.0000

> <Gold.PLP.Chemscore.Metal>
0.0000

> <Gold.Chemscore.Hbonds>
donor molecule, donor type, donor heavy atom, donor atom, acceptor molecule, acceptor atom, score
      L1  H    19    38       P1  8028  2.00
      P1  H 10752 10763       L1    14  0.75

> <Gold.PLP.Chemscore.Internal.Correction>
0.7165

> <Gold.Rescore>
     Score         DG    S(hbond)    S(metal)    S(lipo)     H(rot)  DE(clash)    DE(int)     intcor
     17.93     -20.15       1.87        0.00      99.83       1.27       0.35       1.87       ----

> <Gold.Chemscore.Fitness>
17.9301

> <Gold.Chemscore.DG>
-20.1532

> <Gold.Chemscore.ZeroCoef>
-5.4800

> <Gold.Chemscore.Hbond>
1.8726

> <Gold.Chemscore.Metal>
0.0000

> <Gold.Chemscore.Lipo>
99.8348

> <Gold.Chemscore.Internal_Hbond>
0.0000

> <Gold.Chemscore.DEClash>
0.3503

> <Gold.Chemscore.DEInternal>
1.8728

> <Gold.Chemscore.Rot>
1.2742

> <Gold.Chemscore.Internal.Correction>
   9.000000E+99

> <Gold.Chemscore.Hbonds>
donor molecule, donor type, donor heavy atom, donor atom, acceptor molecule, acceptor atom, score
      L1  H    19    38       P1  8028  0.94
      P1  H 10752 10763       L1    14  0.09

> <Gold.Chemscore.Hbond.Weighted>
-6.2545

> <Gold.Chemscore.Metal.Weighted>
-0.0000

> <Gold.Chemscore.Lipo.Weighted>
-11.6807

> <Gold.Chemscore.Internal_Hbond.Weighted>
0.0000

> <Gold.Chemscore.DEClash.Weighted>
0.3503

> <Gold.Chemscore.DEInternal.Weighted>
1.8728

> <Gold.Chemscore.Rot.Weighted>
3.2619

> <Gold.Chemscore.Internal.Correction.Weighted>
   9.000000E+99

> <Gold.Protein.RotatedTorsions>
[ 6907 6896 6895 6894 ] final   -8.50 input  -60.11 | X-H torsion
[ 7974 7965 7964 7962 ] final   67.32 input  175.53 | X-H torsion
[ 8008 7997 7996 7995 ] final   -2.56 input   59.86 | X-H torsion
[ 10167 10162 10161 10158 ] final  -79.25 input  -65.29 | X-H torsion
[ 10718 10713 10712 10709 ] final   70.98 input   66.30 | X-H torsion
[ 10763 10752 10751 10750 ] final   98.02 input  -60.55 | X-H torsion
[ 11005 11000 10999 10996 ] final  170.16 input  -57.11 | X-H torsion

> <Gold.Protein.ActiveResidues>
 VAL166  LYS551  ARG553  GLY616  TRP617  ASP618  TYR619  PRO620  LYS621  CYS622 
 ASP623  PHE694  ASN695  SER759  ASP760  ASP761  ALA762  ILE779  LEU786  VAL792 
 PHE793  MET794  SER795  GLU796  ALA797  LYS798  CYS799  TRP800  GLU811  SER814 

> <Gold.Protein.RotatedAtoms>
  151.4326  135.1011  159.9646 H   0  0  0  0  0  0  0  0  0  0  0  0  # atno 6907 bound_to 6896
  152.4951  133.8603  159.7257 H   0  0  0  0  0  0  0  0  0  0  0  0  # atno 6908 bound_to 6896
  150.9144  133.6899  159.2874 H   0  0  0  0  0  0  0  0  0  0  0  0  # atno 6909 bound_to 6896
  145.8161  139.3059  143.1071 H   0  0  0  0  0  0  0  0  0  0  0  0  # atno 7974 bound_to 7965
  154.6344  140.2531  155.7396 H   0  0  0  0  0  0  0  0  0  0  0  0  # atno 8008 bound_to 7997
  156.2496  140.2900  156.0630 H   0  0  0  0  0  0  0  0  0  0  0  0  # atno 8009 bound_to 7997
  155.1694  140.0386  157.2850 H   0  0  0  0  0  0  0  0  0  0  0  0  # atno 8010 bound_to 7997
  140.4610  143.2453  151.8348 H   0  0  0  0  0  0  0  0  0  0  0  0  # atno 10167 bound_to 10162
  157.6428  130.9505  150.0725 H   0  0  0  0  0  0  0  0  0  0  0  0  # atno 10718 bound_to 10713
  153.2839  135.4163  155.1104 H   0  0  0  0  0  0  0  0  0  0  0  0  # atno 10763 bound_to 10752
  154.8498  135.3502  154.6074 H   0  0  0  0  0  0  0  0  0  0  0  0  # atno 10764 bound_to 10752
  153.6495  135.7053  153.5271 H   0  0  0  0  0  0  0  0  0  0  0  0  # atno 10765 bound_to 10752
  140.3054  134.7560  157.3949 H   0  0  0  0  0  0  0  0  0  0  0  0  # atno 11005 bound_to 11000
  145.9725  140.8748  143.0155 LP  0  0  0  0  0  0  0  0  0  0  0  0  # atno 17320 bound_to 7965
  144.6752  140.1966  143.7391 LP  0  0  0  0  0  0  0  0  0  0  0  0  # atno 17321 bound_to 7965
  139.4806  144.5007  151.9064 LP  0  0  0  0  0  0  0  0  0  0  0  0  # atno 17342 bound_to 10162
  140.4093  144.2390  150.5889 LP  0  0  0  0  0  0  0  0  0  0  0  0  # atno 17343 bound_to 10162
  156.1725  130.3647  149.9145 LP  0  0  0  0  0  0  0  0  0  0  0  0  # atno 17370 bound_to 10713
  156.7117  130.8972  151.3610 LP  0  0  0  0  0  0  0  0  0  0  0  0  # atno 17371 bound_to 10713
  140.1072  134.5394  155.8299 LP  0  0  0  0  0  0  0  0  0  0  0  0  # atno 17394 bound_to 11000
  141.2119  133.6713  156.6620 LP  0  0  0  0  0  0  0  0  0  0  0  0  # atno 17395 bound_to 11000

$$$$
