AV-unprocessed.smi:1354|AV-procd|sdf|5535|dock4
  -GOLD-   22720 5123D 1   1.00000     0.00000
 Structure written by MMmdl.
 40 42  0  0  0  0  0  0  0  0  2 V2000
  154.2163  138.2625  155.3126 O   0  0  0  0  0  0  0  0  0  0  0  0
  153.1278  138.9319  154.7143 C   0  0  0  0  0  0  0  0  0  0  0  0
  151.8444  138.1131  154.9100 C   0  0  0  0  0  0  0  0  0  0  0  0
  150.6291  138.9012  154.5422 C   0  0  0  0  0  0  0  0  0  0  0  0
  149.6137  138.4737  153.7396 N   0  3  0  0  0  0  0  0  0  0  0  0
  148.6455  139.4726  153.6292 C   0  0  0  0  0  0  0  0  0  0  0  0
  147.4469  139.5050  152.9233 C   0  0  0  0  0  0  0  0  0  0  0  0
  146.6872  140.6894  153.0199 C   0  0  0  0  0  0  0  0  0  0  0  0
  147.1253  141.7807  153.7973 C   0  0  0  0  0  0  0  0  0  0  0  0
  148.3405  141.7346  154.5112 C   0  0  0  0  0  0  0  0  0  0  0  0
  149.0879  140.5613  154.4083 C   0  0  0  0  0  0  0  0  0  0  0  0
  150.3148  140.1637  154.9535 N   0  0  0  0  0  0  0  0  0  0  0  0
  151.0565  141.0896  155.8233 C   0  0  0  0  0  0  0  0  0  0  0  0
  150.1724  141.6859  156.9284 C   0  0  0  0  0  0  0  0  0  0  0  0
  150.8828  142.7167  157.6016 O   0  0  0  0  0  0  0  0  0  0  0  0
  151.7976  142.3631  158.5710 C   0  0  0  0  0  0  0  0  0  0  0  0
  152.1453  141.0226  158.8777 C   0  0  0  0  0  0  0  0  0  0  0  0
  153.0890  140.7416  159.8846 C   0  0  0  0  0  0  0  0  0  0  0  0
  153.6962  141.7916  160.5969 C   0  0  0  0  0  0  0  0  0  0  0  0
  153.3589  143.1245  160.3004 C   0  0  0  0  0  0  0  0  0  0  0  0
  152.4158  143.4087  159.2932 C   0  0  0  0  0  0  0  0  0  0  0  0
  152.0242  145.0551  158.9469 Cl  0  0  0  0  0  0  0  0  0  0  0  0
  154.4386  137.5128  154.7813 H   0  0  0  0  0  0  0  0  0  0  0  0
  153.0277  139.9204  155.1638 H   0  0  0  0  0  0  0  0  0  0  0  0
  153.3397  139.0746  153.6543 H   0  0  0  0  0  0  0  0  0  0  0  0
  151.8771  137.2056  154.3064 H   0  0  0  0  0  0  0  0  0  0  0  0
  151.7574  137.7934  155.9491 H   0  0  0  0  0  0  0  0  0  0  0  0
  147.1097  138.6704  152.3263 H   0  0  0  0  0  0  0  0  0  0  0  0
  145.7506  140.7626  152.4865 H   0  0  0  0  0  0  0  0  0  0  0  0
  146.5191  142.6740  153.8443 H   0  0  0  0  0  0  0  0  0  0  0  0
  148.6698  142.5808  155.0958 H   0  0  0  0  0  0  0  0  0  0  0  0
  151.9183  140.5731  156.2459 H   0  0  0  0  0  0  0  0  0  0  0  0
  151.4564  141.8873  155.1971 H   0  0  0  0  0  0  0  0  0  0  0  0
  149.2595  142.0852  156.4850 H   0  0  0  0  0  0  0  0  0  0  0  0
  149.8913  140.9013  157.6327 H   0  0  0  0  0  0  0  0  0  0  0  0
  151.7008  140.1892  158.3556 H   0  0  0  0  0  0  0  0  0  0  0  0
  153.3473  139.7176  160.1110 H   0  0  0  0  0  0  0  0  0  0  0  0
  154.4193  141.5751  161.3694 H   0  0  0  0  0  0  0  0  0  0  0  0
  153.8260  143.9304  160.8476 H   0  0  0  0  0  0  0  0  0  0  0  0
  149.5894  137.5642  153.2965 H   0  0  0  0  0  0  0  0  0  0  0  0
  1  2  1  0  0  0  0
  1 23  1  0  0  0  0
  2  3  1  0  0  0  0
  2 24  1  0  0  0  0
  2 25  1  0  0  0  0
  3  4  1  0  0  0  0
  3 26  1  0  0  0  0
  3 27  1  0  0  0  0
  4 12  1  0  0  0  0
  4  5  2  0  0  0  0
  5  6  1  0  0  0  0
  5 40  1  0  0  0  0
  6 11  2  0  0  0  0
  6  7  1  0  0  0  0
  7  8  2  0  0  0  0
  7 28  1  0  0  0  0
  8  9  1  0  0  0  0
  8 29  1  0  0  0  0
  9 10  2  0  0  0  0
  9 30  1  0  0  0  0
 10 11  1  0  0  0  0
 10 31  1  0  0  0  0
 11 12  1  0  0  0  0
 12 13  1  0  0  0  0
 13 14  1  0  0  0  0
 13 32  1  0  0  0  0
 13 33  1  0  0  0  0
 14 15  1  0  0  0  0
 14 34  1  0  0  0  0
 14 35  1  0  0  0  0
 15 16  1  0  0  0  0
 16 21  1  0  0  0  0
 16 17  2  0  0  0  0
 17 18  1  0  0  0  0
 17 36  1  0  0  0  0
 18 19  2  0  0  0  0
 18 37  1  0  0  0  0
 19 20  1  0  0  0  0
 19 38  1  0  0  0  0
 20 21  2  0  0  0  0
 20 39  1  0  0  0  0
 21 22  1  0  0  0  0
M  CHG  1   5   1
M  END
> <s_m_source_file>
AV-unprocessed.smi

> <i_m_source_file_index>
1354

> <i_lp_mmshare_version>
43012

> <i_f3d_flags>
0

> <s_epik_input>
W2NIXTFbY0hdW2NIXVtjSF1jKGMxMiluKGMobjIpW0NIMl1bQ0gyXVtPSF0pW0NIMl1bQ0gyXU9jM1tjSF1bY0hdW2NIXVtjSF1jM0Ns

> <s_epik_cmdline>
J2VwaWtfcHl0aG9uJywgJy1waCcsICc3LjAnLCAnLXRuJywgJzgnLCAnLW1hJywgJzIwMCcsICctbWV0YWxfYmluZGluZycsICctaW1hZScsICc8aW5maWxlLm1hZT4nLCAnLW9tYWUnLCAnPG91dGZpbGUubWFlPic=

> <r_lp_tautomer_probability>
1

> <r_epik_Ionization_Penalty>
0.752951

> <r_epik_Ionization_Penalty_Charging>
0.752951

> <r_epik_Ionization_Penalty_Neutral>
5.89567e-08

> <r_epik_State_Penalty>
0.780107

> <r_epik_Charging_Adjusted_Penalty>
1.53306

> <i_epik_Tot_Q>
1

> <i_epik_Tot_abs_Q>
1

> <r_epik_Metal_State_Penalty>
4.68821

> <b_epik_Metal_Only>
0

> <s_lp_Force_Field>
OPLS_2005

> <r_lp_Energy>
19.8379

> <b_lp_Chiralities_Consistent>
1

> <s_lp_Variant>
AV-unprocessed.smi:1354-2

> <Gold.Version>
5.8.1

> <Gold.Id.Protein>
6NUR|6NUR_protein|mol2

> <Gold.PLP.Fitness>
60.0092

> <Gold.PLP.PLP>
-54.7043

> <Gold.PLP.part.hbond>
-3.9990

> <Gold.PLP.part.metal>
0.0000

> <Gold.PLP.part.buried>
2.2733

> <Gold.PLP.part.nonpolar>
-52.2805

> <Gold.PLP.part.repulsive>
0.1602

> <Gold.PLP.ligand.clash>
0.0000

> <Gold.PLP.ligand.torsion>
0.3915

> <Gold.PLP.Chemscore.Hbond>
2.0000

> <Gold.PLP.Chemscore.CHOScore>
0.0000

> <Gold.PLP.Chemscore.Metal>
0.0000

> <Gold.Chemscore.Hbonds>
donor molecule, donor type, donor heavy atom, donor atom, acceptor molecule, acceptor atom, score
      L1  H     5    40       P1  7948  2.00

> <Gold.PLP.Chemscore.Internal.Correction>
0.0879

> <Gold.Rescore>
     Score         DG    S(hbond)    S(metal)    S(lipo)     H(rot)  DE(clash)    DE(int)     intcor
     17.68     -19.63       0.92        0.00     147.20       2.39       1.65       0.30       ----

> <Gold.Chemscore.Fitness>
17.6841

> <Gold.Chemscore.DG>
-19.6331

> <Gold.Chemscore.ZeroCoef>
-5.4800

> <Gold.Chemscore.Hbond>
0.9167

> <Gold.Chemscore.Metal>
0.0000

> <Gold.Chemscore.Lipo>
147.1967

> <Gold.Chemscore.Internal_Hbond>
0.0000

> <Gold.Chemscore.DEClash>
1.6485

> <Gold.Chemscore.DEInternal>
0.3005

> <Gold.Chemscore.Rot>
2.3948

> <Gold.Chemscore.Internal.Correction>
   9.000000E+99

> <Gold.Chemscore.Hbonds>
donor molecule, donor type, donor heavy atom, donor atom, acceptor molecule, acceptor atom, score
      L1  H     5    40       P1  7948  0.78

> <Gold.Chemscore.Hbond.Weighted>
-3.0619

> <Gold.Chemscore.Metal.Weighted>
-0.0000

> <Gold.Chemscore.Lipo.Weighted>
-17.2220

> <Gold.Chemscore.Internal_Hbond.Weighted>
0.0000

> <Gold.Chemscore.DEClash.Weighted>
1.6485

> <Gold.Chemscore.DEInternal.Weighted>
0.3005

> <Gold.Chemscore.Rot.Weighted>
6.1308

> <Gold.Chemscore.Internal.Correction.Weighted>
   9.000000E+99

> <Gold.Protein.RotatedTorsions>
[ 6907 6896 6895 6894 ] final   27.98 input  -60.11 | X-H torsion
[ 7974 7965 7964 7962 ] final -166.85 input  175.53 | X-H torsion
[ 8008 7997 7996 7995 ] final -146.30 input   59.86 | X-H torsion
[ 10167 10162 10161 10158 ] final -151.42 input  -65.29 | X-H torsion
[ 10718 10713 10712 10709 ] final  125.39 input   66.30 | X-H torsion
[ 10763 10752 10751 10750 ] final -136.91 input  -60.55 | X-H torsion
[ 11005 11000 10999 10996 ] final   73.62 input  -57.11 | X-H torsion

> <Gold.Protein.ActiveResidues>
 VAL166  LYS551  ARG553  GLY616  TRP617  ASP618  TYR619  PRO620  LYS621  CYS622 
 ASP623  PHE694  ASN695  SER759  ASP760  ASP761  ALA762  ILE779  LEU786  VAL792 
 PHE793  MET794  SER795  GLU796  ALA797  LYS798  CYS799  TRP800  GLU811  SER814 

> <Gold.Protein.RotatedAtoms>
  152.0103  134.9880  160.0567 H   0  0  0  0  0  0  0  0  0  0  0  0  # atno 6907 bound_to 6896
  152.1435  133.4474  159.4787 H   0  0  0  0  0  0  0  0  0  0  0  0  # atno 6908 bound_to 6896
  150.6867  134.2194  159.4434 H   0  0  0  0  0  0  0  0  0  0  0  0  # atno 6909 bound_to 6896
  144.7236  140.2605  143.6265 H   0  0  0  0  0  0  0  0  0  0  0  0  # atno 7974 bound_to 7965
  155.5572  140.0622  157.2837 H   0  0  0  0  0  0  0  0  0  0  0  0  # atno 8008 bound_to 7997
  154.4402  140.1892  156.0791 H   0  0  0  0  0  0  0  0  0  0  0  0  # atno 8009 bound_to 7997
  156.0473  140.3288  155.7315 H   0  0  0  0  0  0  0  0  0  0  0  0  # atno 8010 bound_to 7997
  139.7268  143.8870  152.2522 H   0  0  0  0  0  0  0  0  0  0  0  0  # atno 10167 bound_to 10162
  157.5507  131.1094  150.8706 H   0  0  0  0  0  0  0  0  0  0  0  0  # atno 10718 bound_to 10713
  154.8674  135.3658  154.5137 H   0  0  0  0  0  0  0  0  0  0  0  0  # atno 10763 bound_to 10752
  153.5771  135.7019  153.5484 H   0  0  0  0  0  0  0  0  0  0  0  0  # atno 10764 bound_to 10752
  153.3490  135.4077  155.1594 H   0  0  0  0  0  0  0  0  0  0  0  0  # atno 10765 bound_to 10752
  139.9431  134.7363  156.1049 H   0  0  0  0  0  0  0  0  0  0  0  0  # atno 11005 bound_to 11000
  145.8140  139.2015  143.1976 LP  0  0  0  0  0  0  0  0  0  0  0  0  # atno 17320 bound_to 7965
  146.0571  140.8009  142.9753 LP  0  0  0  0  0  0  0  0  0  0  0  0  # atno 17321 bound_to 7965
  139.8782  144.7032  150.8909 LP  0  0  0  0  0  0  0  0  0  0  0  0  # atno 17342 bound_to 10162
  140.7764  143.3683  151.1698 LP  0  0  0  0  0  0  0  0  0  0  0  0  # atno 17343 bound_to 10162
  156.9232  130.5322  149.5279 LP  0  0  0  0  0  0  0  0  0  0  0  0  # atno 17370 bound_to 10713
  156.0574  130.5633  150.9121 LP  0  0  0  0  0  0  0  0  0  0  0  0  # atno 17371 bound_to 10713
  141.1072  133.6656  156.2892 LP  0  0  0  0  0  0  0  0  0  0  0  0  # atno 17394 bound_to 11000
  140.5902  134.5658  157.5498 LP  0  0  0  0  0  0  0  0  0  0  0  0  # atno 17395 bound_to 11000

$$$$
