AV-unprocessed.smi:2526|AV-procd|sdf|9941|dock2
  -GOLD-   2272013583D 1   1.00000     0.00000
 Structure written by MMmdl.
 28 29  0  0  0  0  0  0  0  0  1 V2000
  151.5416  145.6162  159.8461 C   0  0  0  0  0  0  0  0  0  0  0  0
  151.4200  144.2645  159.3433 N   0  0  0  0  0  0  0  0  0  0  0  0
  150.4458  143.7379  158.5238 C   0  0  0  0  0  0  0  0  0  0  0  0
  150.7435  142.4179  158.3212 C   0  0  0  0  0  0  0  0  0  0  0  0
  150.0068  141.3835  157.5024 C   0  0  1  0  0  0  0  0  0  0  0  0
  149.7619  141.8772  156.1432 N   0  0  0  0  0  0  0  0  0  0  0  0
  149.8192  141.1723  154.9991 C   0  0  0  0  0  0  0  0  0  0  0  0
  149.5459  141.6846  153.9161 O   0  0  0  0  0  0  0  0  0  0  0  0
  150.2667  139.7043  155.0475 C   0  0  0  0  0  0  0  0  0  0  0  0
  150.1664  139.0856  156.4493 C   0  0  0  0  0  0  0  0  0  0  0  0
  150.7608  140.0321  157.4983 C   0  0  2  0  0  0  0  0  0  0  0  0
  150.7136  139.4040  158.8066 N   0  0  0  0  0  0  0  0  0  0  0  0
  151.9413  142.2377  159.0720 C   0  0  0  0  0  0  0  0  0  0  0  0
  152.3409  143.3406  159.6836 N   0  0  0  0  0  0  0  0  0  0  0  0
  150.9668  146.2993  159.2198 H   0  0  0  0  0  0  0  0  0  0  0  0
  152.5870  145.9269  159.8389 H   0  0  0  0  0  0  0  0  0  0  0  0
  151.1604  145.6625  160.8665 H   0  0  0  0  0  0  0  0  0  0  0  0
  149.6282  144.3399  158.1548 H   0  0  0  0  0  0  0  0  0  0  0  0
  149.0156  141.2198  157.9284 H   0  0  0  0  0  0  0  0  0  0  0  0
  149.4838  142.8451  156.0691 H   0  0  0  0  0  0  0  0  0  0  0  0
  149.6793  139.1201  154.3383 H   0  0  0  0  0  0  0  0  0  0  0  0
  151.3012  139.6635  154.7049 H   0  0  0  0  0  0  0  0  0  0  0  0
  149.1220  138.8720  156.6829 H   0  0  0  0  0  0  0  0  0  0  0  0
  150.6895  138.1286  156.4610 H   0  0  0  0  0  0  0  0  0  0  0  0
  151.8091  140.2056  157.2507 H   0  0  0  0  0  0  0  0  0  0  0  0
  150.4585  140.0891  159.5034 H   0  0  0  0  0  0  0  0  0  0  0  0
  149.9890  138.7005  158.8186 H   0  0  0  0  0  0  0  0  0  0  0  0
  152.5284  141.3390  159.1904 H   0  0  0  0  0  0  0  0  0  0  0  0
  1  2  1  0  0  0  0
  1 15  1  0  0  0  0
  1 16  1  0  0  0  0
  1 17  1  0  0  0  0
  2 14  1  0  0  0  0
  2  3  1  0  0  0  0
  3  4  2  0  0  0  0
  3 18  1  0  0  0  0
  4  5  1  0  0  0  0
  4 13  1  0  0  0  0
  5 11  1  0  0  0  0
  5  6  1  0  0  0  0
  5 19  1  0  0  0  0
  6  7  1  0  0  0  0
  6 20  1  0  0  0  0
  7  8  2  0  0  0  0
  7  9  1  0  0  0  0
  9 10  1  0  0  0  0
  9 21  1  0  0  0  0
  9 22  1  0  0  0  0
 10 11  1  0  0  0  0
 10 23  1  0  0  0  0
 10 24  1  0  0  0  0
 11 12  1  0  0  0  0
 11 25  1  0  0  0  0
 12 26  1  0  0  0  0
 12 27  1  0  0  0  0
 13 14  2  0  0  0  0
 13 28  1  0  0  0  0
M  END
> <s_m_source_file>
AV-unprocessed.smi

> <i_m_source_file_index>
2526

> <i_lp_mmshare_version>
43012

> <i_f3d_flags>
0

> <s_epik_input>
W0NIM11uMVtjSF1jKFtjSF1uMSlbQ0BASF0yW05IXUMoPU8pW0NIMl1bQ0gyXVtDQEhdMltOSDJd

> <s_epik_cmdline>
J2VwaWtfcHl0aG9uJywgJy1waCcsICc3LjAnLCAnLXRuJywgJzgnLCAnLW1hJywgJzIwMCcsICctbWV0YWxfYmluZGluZycsICctaW1hZScsICc8aW5maWxlLm1hZT4nLCAnLW9tYWUnLCAnPG91dGZpbGUubWFlPic=

> <r_lp_tautomer_probability>
1

> <r_epik_Ionization_Penalty>
2.50279

> <r_epik_Ionization_Penalty_Charging>
0

> <r_epik_Ionization_Penalty_Neutral>
2.50279

> <r_epik_State_Penalty>
2.66754

> <r_epik_Charging_Adjusted_Penalty>
2.66754

> <i_epik_Tot_Q>
0

> <i_epik_Tot_abs_Q>
0

> <r_epik_Metal_State_Penalty>
2.66721

> <b_epik_Metal_Only>
0

> <s_lp_Force_Field>
OPLS_2005

> <r_lp_Energy>
8.34042

> <b_lp_Chiralities_Consistent>
1

> <s_lp_Variant>
AV-unprocessed.smi:2526-8

> <Gold.Version>
5.8.1

> <Gold.Id.Protein>
6NUR|6NUR_protein|mol2

> <Gold.PLP.Fitness>
34.9653

> <Gold.PLP.PLP>
-26.5955

> <Gold.PLP.part.hbond>
-3.0000

> <Gold.PLP.part.metal>
0.0000

> <Gold.PLP.part.buried>
-3.8880

> <Gold.PLP.part.nonpolar>
-20.7135

> <Gold.PLP.part.repulsive>
0.2879

> <Gold.PLP.ligand.clash>
0.0000

> <Gold.PLP.ligand.torsion>
0.0713

> <Gold.PLP.Chemscore.Hbond>
1.6560

> <Gold.PLP.Chemscore.CHOScore>
1.1728

> <Gold.PLP.Chemscore.Metal>
0.0000

> <Gold.Chemscore.Hbonds>
donor molecule, donor type, donor heavy atom, donor atom, acceptor molecule, acceptor atom, score
      L1  H     6    20       P1  8028  1.00
      P1  H  8011  8017       L1     8  0.59
      L1  C     3    18       P1  8028  0.44
      L1  C     3    18       P1  8029  0.72

> <Gold.PLP.Chemscore.Internal.Correction>
0.0260

> <Gold.Rescore>
     Score         DG    S(hbond)    S(metal)    S(lipo)     H(rot)  DE(clash)    DE(int)     intcor
     15.19     -15.20       1.65        0.00      57.80       1.00       0.00       0.01       ----

> <Gold.Chemscore.Fitness>
15.1882

> <Gold.Chemscore.DG>
-15.2031

> <Gold.Chemscore.ZeroCoef>
-5.4800

> <Gold.Chemscore.Hbond>
1.6527

> <Gold.Chemscore.Metal>
0.0000

> <Gold.Chemscore.Lipo>
57.8026

> <Gold.Chemscore.Internal_Hbond>
0.0000

> <Gold.Chemscore.DEClash>
0.0019

> <Gold.Chemscore.DEInternal>
0.0130

> <Gold.Chemscore.Rot>
1.0000

> <Gold.Chemscore.Internal.Correction>
   9.000000E+99

> <Gold.Chemscore.Hbonds>
donor molecule, donor type, donor heavy atom, donor atom, acceptor molecule, acceptor atom, score
      L1  H     6    20       P1  8028  0.95
      P1  H  8011  8017       L1     8  0.60

> <Gold.Chemscore.Hbond.Weighted>
-5.5202

> <Gold.Chemscore.Metal.Weighted>
-0.0000

> <Gold.Chemscore.Lipo.Weighted>
-6.7629

> <Gold.Chemscore.Internal_Hbond.Weighted>
0.0000

> <Gold.Chemscore.DEClash.Weighted>
0.0019

> <Gold.Chemscore.DEInternal.Weighted>
0.0130

> <Gold.Chemscore.Rot.Weighted>
2.5600

> <Gold.Chemscore.Internal.Correction.Weighted>
   9.000000E+99

> <Gold.Protein.RotatedTorsions>
[ 6907 6896 6895 6894 ] final -104.66 input  -60.11 | X-H torsion
[ 7974 7965 7964 7962 ] final   72.14 input  175.53 | X-H torsion
[ 8008 7997 7996 7995 ] final   82.75 input   59.86 | X-H torsion
[ 10167 10162 10161 10158 ] final  -76.12 input  -65.29 | X-H torsion
[ 10718 10713 10712 10709 ] final   87.05 input   66.30 | X-H torsion
[ 10763 10752 10751 10750 ] final -129.65 input  -60.55 | X-H torsion
[ 11005 11000 10999 10996 ] final  131.14 input  -57.11 | X-H torsion

> <Gold.Protein.ActiveResidues>
 VAL166  LYS551  ARG553  GLY616  TRP617  ASP618  TYR619  PRO620  LYS621  CYS622 
 ASP623  PHE694  ASN695  SER759  ASP760  ASP761  ALA762  ILE779  LEU786  VAL792 
 PHE793  MET794  SER795  GLU796  ALA797  LYS798  CYS799  TRP800  GLU811  SER814 

> <Gold.Protein.RotatedAtoms>
  150.7298  134.0245  159.3712 H   0  0  0  0  0  0  0  0  0  0  0  0  # atno 6907 bound_to 6896
  151.8211  135.0649  160.0434 H   0  0  0  0  0  0  0  0  0  0  0  0  # atno 6908 bound_to 6896
  152.3003  133.5612  159.5650 H   0  0  0  0  0  0  0  0  0  0  0  0  # atno 6909 bound_to 6896
  145.7570  139.2784  143.1398 H   0  0  0  0  0  0  0  0  0  0  0  0  # atno 7974 bound_to 7965
  155.9148  140.3425  155.6127 H   0  0  0  0  0  0  0  0  0  0  0  0  # atno 8008 bound_to 7997
  155.7344  140.0799  157.2293 H   0  0  0  0  0  0  0  0  0  0  0  0  # atno 8009 bound_to 7997
  154.4061  140.1582  156.2532 H   0  0  0  0  0  0  0  0  0  0  0  0  # atno 8010 bound_to 7997
  140.4884  143.2386  151.7946 H   0  0  0  0  0  0  0  0  0  0  0  0  # atno 10167 bound_to 10162
  157.6936  131.0240  150.3066 H   0  0  0  0  0  0  0  0  0  0  0  0  # atno 10718 bound_to 10713
  154.8757  135.3888  154.3954 H   0  0  0  0  0  0  0  0  0  0  0  0  # atno 10763 bound_to 10752
  153.4685  135.7030  153.6013 H   0  0  0  0  0  0  0  0  0  0  0  0  # atno 10764 bound_to 10752
  153.4480  135.3840  155.2235 H   0  0  0  0  0  0  0  0  0  0  0  0  # atno 10765 bound_to 10752
  139.9713  134.9576  156.9395 H   0  0  0  0  0  0  0  0  0  0  0  0  # atno 11005 bound_to 11000
  146.0301  140.8266  142.9880 LP  0  0  0  0  0  0  0  0  0  0  0  0  # atno 17320 bound_to 7965
  144.6838  140.2756  143.7299 LP  0  0  0  0  0  0  0  0  0  0  0  0  # atno 17321 bound_to 7965
  139.4846  144.4681  151.9458 LP  0  0  0  0  0  0  0  0  0  0  0  0  # atno 17342 bound_to 10162
  140.3768  144.2787  150.5913 LP  0  0  0  0  0  0  0  0  0  0  0  0  # atno 17343 bound_to 10162
  156.3573  130.3841  149.7280 LP  0  0  0  0  0  0  0  0  0  0  0  0  # atno 17370 bound_to 10713
  156.4737  130.8009  151.3026 LP  0  0  0  0  0  0  0  0  0  0  0  0  # atno 17371 bound_to 10713
  140.5288  134.0834  155.7310 LP  0  0  0  0  0  0  0  0  0  0  0  0  # atno 17394 bound_to 11000
  141.1392  133.9168  157.2365 LP  0  0  0  0  0  0  0  0  0  0  0  0  # atno 17395 bound_to 11000

$$$$
