AV-unprocessed.smi:1851|AV-procd|sdf|7523|dock2
  -GOLD-   22720 9233D 1   1.00000     0.00000
 Structure written by MMmdl.
 39 41  0  0  0  0  0  0  0  0  1 V2000
  156.4081  135.6554  156.0518 O   0  0  0  0  0  0  0  0  0  0  0  0
  156.7288  136.6336  156.7248 C   0  0  0  0  0  0  0  0  0  0  0  0
  155.9539  137.1986  157.6618 N   0  0  0  0  0  0  0  0  0  0  0  0
  154.6133  136.7500  158.0238 C   0  0  0  0  0  0  0  0  0  0  0  0
  154.5245  136.6156  159.5161 C   0  0  0  0  0  0  0  0  0  0  0  0
  155.4288  135.9321  160.2188 N   0  0  0  0  0  0  0  0  0  0  0  0
  154.9762  136.0721  161.5162 C   0  0  0  0  0  0  0  0  0  0  0  0
  155.5024  135.5779  162.7313 C   0  0  0  0  0  0  0  0  0  0  0  0
  154.8602  135.8613  163.9547 C   0  0  0  0  0  0  0  0  0  0  0  0
  153.6851  136.6401  163.9807 C   0  0  0  0  0  0  0  0  0  0  0  0
  153.1431  137.1403  162.7811 C   0  0  0  0  0  0  0  0  0  0  0  0
  153.7876  136.8540  161.5628 C   0  0  0  0  0  0  0  0  0  0  0  0
  153.5260  137.1853  160.2374 N   0  0  0  0  0  0  0  0  0  0  0  0
  152.4124  137.9885  159.7588 C   0  0  0  0  0  0  0  0  0  0  0  0
  152.9000  139.2316  159.0052 C   0  0  0  0  0  0  0  0  0  0  0  0
  153.6146  140.0605  159.9108 O   0  0  0  0  0  0  0  0  0  0  0  0
  153.2795  141.3961  159.9750 C   0  0  0  0  0  0  0  0  0  0  0  0
  152.7787  141.9878  158.7966 C   0  0  0  0  0  0  0  0  0  0  0  0
  152.4126  143.3473  158.7711 C   0  0  0  0  0  0  0  0  0  0  0  0
  152.5441  144.1330  159.9313 C   0  0  0  0  0  0  0  0  0  0  0  0
  152.0971  145.7993  159.9029 Cl  0  0  0  0  0  0  0  0  0  0  0  0
  153.0412  143.5557  161.1146 C   0  0  0  0  0  0  0  0  0  0  0  0
  153.4076  142.1956  161.1395 C   0  0  0  0  0  0  0  0  0  0  0  0
  157.6903  137.1628  156.6403 H   0  0  0  0  0  0  0  0  0  0  0  0
  156.3160  138.0013  158.1558 H   0  0  0  0  0  0  0  0  0  0  0  0
  153.8545  137.4492  157.6677 H   0  0  0  0  0  0  0  0  0  0  0  0
  154.4055  135.7925  157.5468 H   0  0  0  0  0  0  0  0  0  0  0  0
  156.4025  134.9812  162.7221 H   0  0  0  0  0  0  0  0  0  0  0  0
  155.2717  135.4801  164.8778 H   0  0  0  0  0  0  0  0  0  0  0  0
  153.2001  136.8535  164.9219 H   0  0  0  0  0  0  0  0  0  0  0  0
  152.2435  137.7373  162.7974 H   0  0  0  0  0  0  0  0  0  0  0  0
  151.7708  137.3798  159.1219 H   0  0  0  0  0  0  0  0  0  0  0  0
  151.8031  138.2831  160.6138 H   0  0  0  0  0  0  0  0  0  0  0  0
  153.5458  138.9308  158.1785 H   0  0  0  0  0  0  0  0  0  0  0  0
  152.0469  139.7726  158.5927 H   0  0  0  0  0  0  0  0  0  0  0  0
  152.6748  141.3927  157.9012 H   0  0  0  0  0  0  0  0  0  0  0  0
  152.0311  143.7857  157.8606 H   0  0  0  0  0  0  0  0  0  0  0  0
  153.1430  144.1553  162.0072 H   0  0  0  0  0  0  0  0  0  0  0  0
  153.7844  141.7898  162.0659 H   0  0  0  0  0  0  0  0  0  0  0  0
  1  2  2  0  0  0  0
  2  3  1  0  0  0  0
  2 24  1  0  0  0  0
  3  4  1  0  0  0  0
  3 25  1  0  0  0  0
  4  5  1  0  0  0  0
  4 26  1  0  0  0  0
  4 27  1  0  0  0  0
  5 13  1  0  0  0  0
  5  6  2  0  0  0  0
  6  7  1  0  0  0  0
  7 12  2  0  0  0  0
  7  8  1  0  0  0  0
  8  9  2  0  0  0  0
  8 28  1  0  0  0  0
  9 10  1  0  0  0  0
  9 29  1  0  0  0  0
 10 11  2  0  0  0  0
 10 30  1  0  0  0  0
 11 12  1  0  0  0  0
 11 31  1  0  0  0  0
 12 13  1  0  0  0  0
 13 14  1  0  0  0  0
 14 15  1  0  0  0  0
 14 32  1  0  0  0  0
 14 33  1  0  0  0  0
 15 16  1  0  0  0  0
 15 34  1  0  0  0  0
 15 35  1  0  0  0  0
 16 17  1  0  0  0  0
 17 23  1  0  0  0  0
 17 18  2  0  0  0  0
 18 19  1  0  0  0  0
 18 36  1  0  0  0  0
 19 20  2  0  0  0  0
 19 37  1  0  0  0  0
 20 21  1  0  0  0  0
 20 22  1  0  0  0  0
 22 23  2  0  0  0  0
 22 38  1  0  0  0  0
 23 39  1  0  0  0  0
M  END
> <s_m_source_file>
AV-unprocessed.smi

> <i_m_source_file_index>
1851

> <i_lp_mmshare_version>
43012

> <i_f3d_flags>
0

> <s_epik_input>
Tz1bQ0hdW05IXVtDSDJdYyhuMSluKGMoYzEyKVtjSF1bY0hdW2NIXVtjSF0yKVtDSDJdW0NIMl1PYzNbY0hdW2NIXWMoQ2wpW2NIXVtjSF0z

> <s_epik_cmdline>
J2VwaWtfcHl0aG9uJywgJy1waCcsICc3LjAnLCAnLXRuJywgJzgnLCAnLW1hJywgJzIwMCcsICctbWV0YWxfYmluZGluZycsICctaW1hZScsICc8aW5maWxlLm1hZT4nLCAnLW9tYWUnLCAnPG91dGZpbGUubWFlPic=

> <r_lp_tautomer_probability>
1

> <r_epik_Ionization_Penalty>
0.0670201

> <r_epik_Ionization_Penalty_Charging>
0

> <r_epik_Ionization_Penalty_Neutral>
0.0670201

> <r_epik_State_Penalty>
0.0585513

> <r_epik_Charging_Adjusted_Penalty>
0.0585513

> <i_epik_Tot_Q>
0

> <i_epik_Tot_abs_Q>
0

> <r_epik_Metal_State_Penalty>
0.0525581

> <b_epik_Metal_Only>
0

> <s_lp_Force_Field>
OPLS_2005

> <r_lp_Energy>
12.626

> <b_lp_Chiralities_Consistent>
1

> <s_lp_Variant>
AV-unprocessed.smi:1851-1

> <Gold.Version>
5.8.1

> <Gold.Id.Protein>
6NUR|6NUR_protein|mol2

> <Gold.PLP.Fitness>
46.6913

> <Gold.PLP.PLP>
-45.3262

> <Gold.PLP.part.hbond>
-1.0000

> <Gold.PLP.part.metal>
0.0000

> <Gold.PLP.part.buried>
-5.8801

> <Gold.PLP.part.nonpolar>
-38.6755

> <Gold.PLP.part.repulsive>
0.1085

> <Gold.PLP.ligand.clash>
0.0000

> <Gold.PLP.ligand.torsion>
0.8647

> <Gold.PLP.Chemscore.Hbond>
1.0000

> <Gold.PLP.Chemscore.CHOScore>
0.0000

> <Gold.PLP.Chemscore.Metal>
0.0000

> <Gold.Chemscore.Hbonds>
donor molecule, donor type, donor heavy atom, donor atom, acceptor molecule, acceptor atom, score
      P1  H 10752 10763       L1     1  1.00

> <Gold.PLP.Chemscore.Internal.Correction>
0.0944

> <Gold.Rescore>
     Score         DG    S(hbond)    S(metal)    S(lipo)     H(rot)  DE(clash)    DE(int)     intcor
     17.87     -18.77       1.00        0.00     138.09       2.42       0.15       0.75       ----

> <Gold.Chemscore.Fitness>
17.8695

> <Gold.Chemscore.DG>
-18.7708

> <Gold.Chemscore.ZeroCoef>
-5.4800

> <Gold.Chemscore.Hbond>
0.9972

> <Gold.Chemscore.Metal>
0.0000

> <Gold.Chemscore.Lipo>
138.0925

> <Gold.Chemscore.Internal_Hbond>
0.0000

> <Gold.Chemscore.DEClash>
0.1503

> <Gold.Chemscore.DEInternal>
0.7510

> <Gold.Chemscore.Rot>
2.4205

> <Gold.Chemscore.Internal.Correction>
   9.000000E+99

> <Gold.Chemscore.Hbonds>
donor molecule, donor type, donor heavy atom, donor atom, acceptor molecule, acceptor atom, score
      P1  H 10752 10763       L1     1  0.95

> <Gold.Chemscore.Hbond.Weighted>
-3.3305

> <Gold.Chemscore.Metal.Weighted>
-0.0000

> <Gold.Chemscore.Lipo.Weighted>
-16.1568

> <Gold.Chemscore.Internal_Hbond.Weighted>
0.0000

> <Gold.Chemscore.DEClash.Weighted>
0.1503

> <Gold.Chemscore.DEInternal.Weighted>
0.7510

> <Gold.Chemscore.Rot.Weighted>
6.1965

> <Gold.Chemscore.Internal.Correction.Weighted>
   9.000000E+99

> <Gold.Protein.RotatedTorsions>
[ 6907 6896 6895 6894 ] final   20.88 input  -60.11 | X-H torsion
[ 7974 7965 7964 7962 ] final  -15.27 input  175.53 | X-H torsion
[ 8008 7997 7996 7995 ] final   78.14 input   59.86 | X-H torsion
[ 10167 10162 10161 10158 ] final  142.58 input  -65.29 | X-H torsion
[ 10718 10713 10712 10709 ] final  100.38 input   66.30 | X-H torsion
[ 10763 10752 10751 10750 ] final -168.36 input  -60.55 | X-H torsion
[ 11005 11000 10999 10996 ] final  -99.60 input  -57.11 | X-H torsion

> <Gold.Protein.ActiveResidues>
 VAL166  LYS551  ARG553  GLY616  TRP617  ASP618  TYR619  PRO620  LYS621  CYS622 
 ASP623  PHE694  ASN695  SER759  ASP760  ASP761  ALA762  ILE779  LEU786  VAL792 
 PHE793  MET794  SER795  GLU796  ALA797  LYS798  CYS799  TRP800  GLU811  SER814 

> <Gold.Protein.RotatedAtoms>
  151.9033  135.0369  160.0507 H   0  0  0  0  0  0  0  0  0  0  0  0  # atno 6907 bound_to 6896
  152.2340  133.5077  159.5240 H   0  0  0  0  0  0  0  0  0  0  0  0  # atno 6908 bound_to 6896
  150.7034  134.1094  159.4037 H   0  0  0  0  0  0  0  0  0  0  0  0  # atno 6909 bound_to 6896
  146.2039  140.3469  142.8414 H   0  0  0  0  0  0  0  0  0  0  0  0  # atno 7974 bound_to 7965
  155.8516  140.3458  155.5697 H   0  0  0  0  0  0  0  0  0  0  0  0  # atno 8008 bound_to 7997
  155.8032  140.0888  157.1965 H   0  0  0  0  0  0  0  0  0  0  0  0  # atno 8009 bound_to 7997
  154.4008  140.1461  156.3286 H   0  0  0  0  0  0  0  0  0  0  0  0  # atno 8010 bound_to 7997
  139.4991  144.6097  151.6298 H   0  0  0  0  0  0  0  0  0  0  0  0  # atno 10167 bound_to 10162
  157.6855  131.0696  150.5091 H   0  0  0  0  0  0  0  0  0  0  0  0  # atno 10718 bound_to 10713
  154.6636  135.2928  154.9834 H   0  0  0  0  0  0  0  0  0  0  0  0  # atno 10763 bound_to 10752
  154.0885  135.6594  153.4852 H   0  0  0  0  0  0  0  0  0  0  0  0  # atno 10764 bound_to 10752
  153.0444  135.5214  154.7599 H   0  0  0  0  0  0  0  0  0  0  0  0  # atno 10765 bound_to 10752
  141.1303  133.8334  157.0992 H   0  0  0  0  0  0  0  0  0  0  0  0  # atno 11005 bound_to 11000
  144.8746  140.7319  143.6025 LP  0  0  0  0  0  0  0  0  0  0  0  0  # atno 17320 bound_to 7965
  145.3388  139.1738  143.4497 LP  0  0  0  0  0  0  0  0  0  0  0  0  # atno 17321 bound_to 7965
  140.5769  144.0013  150.6246 LP  0  0  0  0  0  0  0  0  0  0  0  0  # atno 17342 bound_to 10162
  140.3149  143.3174  152.0842 LP  0  0  0  0  0  0  0  0  0  0  0  0  # atno 17343 bound_to 10162
  156.5409  130.4208  149.6154 LP  0  0  0  0  0  0  0  0  0  0  0  0  # atno 17370 bound_to 10713
  156.2986  130.7164  151.2030 LP  0  0  0  0  0  0  0  0  0  0  0  0  # atno 17371 bound_to 10713
  140.0344  134.9885  157.0842 LP  0  0  0  0  0  0  0  0  0  0  0  0  # atno 17394 bound_to 11000
  140.4234  134.1856  155.7165 LP  0  0  0  0  0  0  0  0  0  0  0  0  # atno 17395 bound_to 11000

$$$$
