AV-unprocessed.smi:359|AV-procd|sdf|2418|dock3
  -GOLD-   2262022353D 1   1.00000     0.00000
 Structure written by MMmdl.
 33 34  0  0  0  0  0  0  0  0  1 V2000
  147.2134  138.7916  152.8218 C   0  0  0  0  0  0  0  0  0  0  0  0
  148.4853  138.5987  153.4967 N   0  0  0  0  0  0  0  0  0  0  0  0
  149.1681  139.5055  154.2968 C   0  0  0  0  0  0  0  0  0  0  0  0
  148.6607  140.8406  154.5724 C   0  0  0  0  0  0  0  0  0  0  0  0
  149.2882  141.6859  155.3143 N   0  0  0  0  0  0  0  0  0  0  0  0
  150.4925  141.3282  155.8865 N   0  0  0  0  0  0  0  0  0  0  0  0
  151.0853  142.3714  156.7319 C   0  0  0  0  0  0  0  0  0  0  0  0
  151.3787  141.8575  158.1510 C   0  0  0  0  0  0  0  0  0  0  0  0
  151.6719  142.9648  158.9934 O   0  0  0  0  0  0  0  0  0  0  0  0
  152.2045  142.7162  160.2397 C   0  0  0  0  0  0  0  0  0  0  0  0
  151.9080  143.6460  161.2578 C   0  0  0  0  0  0  0  0  0  0  0  0
  152.4062  143.4697  162.5631 C   0  0  0  0  0  0  0  0  0  0  0  0
  153.2121  142.3558  162.8637 C   0  0  0  0  0  0  0  0  0  0  0  0
  153.8211  142.1346  164.4630 Cl  0  0  0  0  0  0  0  0  0  0  0  0
  153.5203  141.4227  161.8558 C   0  0  0  0  0  0  0  0  0  0  0  0
  153.0210  141.5993  160.5504 C   0  0  0  0  0  0  0  0  0  0  0  0
  151.1016  140.1166  155.7237 C   0  0  0  0  0  0  0  0  0  0  0  0
  152.1764  139.8413  156.2588 O   0  0  0  0  0  0  0  0  0  0  0  0
  150.3597  139.1804  154.8666 C   0  0  0  0  0  0  0  0  0  0  0  0
  151.0575  137.6169  154.6028 Cl  0  0  0  0  0  0  0  0  0  0  0  0
  146.9343  137.8853  152.2844 H   0  0  0  0  0  0  0  0  0  0  0  0
  147.2778  139.6101  152.1043 H   0  0  0  0  0  0  0  0  0  0  0  0
  146.4276  139.0182  153.5428 H   0  0  0  0  0  0  0  0  0  0  0  0
  148.9008  137.6848  153.3807 H   0  0  0  0  0  0  0  0  0  0  0  0
  147.7066  141.0950  154.1116 H   0  0  0  0  0  0  0  0  0  0  0  0
  152.0057  142.7418  156.2771 H   0  0  0  0  0  0  0  0  0  0  0  0
  150.4233  143.2376  156.7868 H   0  0  0  0  0  0  0  0  0  0  0  0
  150.5258  141.2947  158.5338 H   0  0  0  0  0  0  0  0  0  0  0  0
  152.2368  141.1847  158.1187 H   0  0  0  0  0  0  0  0  0  0  0  0
  151.2895  144.5032  161.0361 H   0  0  0  0  0  0  0  0  0  0  0  0
  152.1679  144.1898  163.3319 H   0  0  0  0  0  0  0  0  0  0  0  0
  154.1410  140.5682  162.0823 H   0  0  0  0  0  0  0  0  0  0  0  0
  153.2800  140.8634  159.8045 H   0  0  0  0  0  0  0  0  0  0  0  0
  1  2  1  0  0  0  0
  1 21  1  0  0  0  0
  1 22  1  0  0  0  0
  1 23  1  0  0  0  0
  2  3  1  0  0  0  0
  2 24  1  0  0  0  0
  3 19  2  0  0  0  0
  3  4  1  0  0  0  0
  4  5  2  0  0  0  0
  4 25  1  0  0  0  0
  5  6  1  0  0  0  0
  6  7  1  0  0  0  0
  6 17  1  0  0  0  0
  7  8  1  0  0  0  0
  7 26  1  0  0  0  0
  7 27  1  0  0  0  0
  8  9  1  0  0  0  0
  8 28  1  0  0  0  0
  8 29  1  0  0  0  0
  9 10  1  0  0  0  0
 10 16  1  0  0  0  0
 10 11  2  0  0  0  0
 11 12  1  0  0  0  0
 11 30  1  0  0  0  0
 12 13  2  0  0  0  0
 12 31  1  0  0  0  0
 13 14  1  0  0  0  0
 13 15  1  0  0  0  0
 15 16  2  0  0  0  0
 15 32  1  0  0  0  0
 16 33  1  0  0  0  0
 17 18  2  0  0  0  0
 17 19  1  0  0  0  0
 19 20  1  0  0  0  0
M  END
> <s_m_source_file>
AV-unprocessed.smi

> <i_m_source_file_index>
359

> <i_lp_mmshare_version>
43012

> <i_f3d_flags>
0

> <s_epik_input>
W0NIM11bTkhdYzFbY0hdbm4oYyg9TyljMUNsKVtDSDJdW0NIMl1PYzJbY0hdW2NIXWMoQ2wpW2NIXVtjSF0y

> <s_epik_cmdline>
J2VwaWtfcHl0aG9uJywgJy1waCcsICc3LjAnLCAnLXRuJywgJzgnLCAnLW1hJywgJzIwMCcsICctbWV0YWxfYmluZGluZycsICctaW1hZScsICc8aW5maWxlLm1hZT4nLCAnLW9tYWUnLCAnPG91dGZpbGUubWFlPic=

> <r_lp_tautomer_probability>
1

> <r_epik_Ionization_Penalty>
1.57682e-05

> <r_epik_Ionization_Penalty_Charging>
1.04488e-09

> <r_epik_Ionization_Penalty_Neutral>
1.57671e-05

> <r_epik_State_Penalty>
-0

> <r_epik_Charging_Adjusted_Penalty>
1.04488e-09

> <i_epik_Tot_Q>
0

> <i_epik_Tot_abs_Q>
0

> <r_epik_Metal_State_Penalty>
-0

> <b_epik_Metal_Only>
0

> <s_lp_Force_Field>
OPLS_2005

> <r_lp_Energy>
30.271

> <b_lp_Chiralities_Consistent>
1

> <s_lp_Variant>
AV-unprocessed.smi:359-1

> <Gold.Version>
5.8.1

> <Gold.Id.Protein>
6NUR|6NUR_protein|mol2

> <Gold.PLP.Fitness>
54.9713

> <Gold.PLP.PLP>
-50.6455

> <Gold.PLP.part.hbond>
-3.0000

> <Gold.PLP.part.metal>
0.0000

> <Gold.PLP.part.buried>
-1.9298

> <Gold.PLP.part.nonpolar>
-45.2972

> <Gold.PLP.part.repulsive>
0.5018

> <Gold.PLP.ligand.clash>
0.0000

> <Gold.PLP.ligand.torsion>
0.4769

> <Gold.PLP.Chemscore.Hbond>
1.7557

> <Gold.PLP.Chemscore.CHOScore>
0.0000

> <Gold.PLP.Chemscore.Metal>
0.0000

> <Gold.Chemscore.Hbonds>
donor molecule, donor type, donor heavy atom, donor atom, acceptor molecule, acceptor atom, score
      L1  H     2    24       P1  7948  0.62
      P1  H  7997  8009       L1    18  0.63

> <Gold.PLP.Chemscore.Internal.Correction>
0.0126

> <Gold.Rescore>
     Score         DG    S(hbond)    S(metal)    S(lipo)     H(rot)  DE(clash)    DE(int)     intcor
     19.95     -21.90       1.49        0.00     132.46       1.58       0.25       1.70       ----

> <Gold.Chemscore.Fitness>
19.9460

> <Gold.Chemscore.DG>
-21.9012

> <Gold.Chemscore.ZeroCoef>
-5.4800

> <Gold.Chemscore.Hbond>
1.4862

> <Gold.Chemscore.Metal>
0.0000

> <Gold.Chemscore.Lipo>
132.4646

> <Gold.Chemscore.Internal_Hbond>
0.0000

> <Gold.Chemscore.DEClash>
0.2522

> <Gold.Chemscore.DEInternal>
1.7030

> <Gold.Chemscore.Rot>
1.5785

> <Gold.Chemscore.Internal.Correction>
   9.000000E+99

> <Gold.Chemscore.Hbonds>
donor molecule, donor type, donor heavy atom, donor atom, acceptor molecule, acceptor atom, score
      L1  H     2    24       P1  7948  0.60
      P1  H  7997  8009       L1    18  0.65

> <Gold.Chemscore.Hbond.Weighted>
-4.9639

> <Gold.Chemscore.Metal.Weighted>
-0.0000

> <Gold.Chemscore.Lipo.Weighted>
-15.4984

> <Gold.Chemscore.Internal_Hbond.Weighted>
0.0000

> <Gold.Chemscore.DEClash.Weighted>
0.2522

> <Gold.Chemscore.DEInternal.Weighted>
1.7030

> <Gold.Chemscore.Rot.Weighted>
4.0411

> <Gold.Chemscore.Internal.Correction.Weighted>
   9.000000E+99

> <Gold.Protein.RotatedTorsions>
[ 6907 6896 6895 6894 ] final  -82.15 input  -60.11 | X-H torsion
[ 7974 7965 7964 7962 ] final  127.36 input  175.53 | X-H torsion
[ 8008 7997 7996 7995 ] final -164.55 input   59.86 | X-H torsion
[ 10167 10162 10161 10158 ] final -134.55 input  -65.29 | X-H torsion
[ 10718 10713 10712 10709 ] final   -5.40 input   66.30 | X-H torsion
[ 10763 10752 10751 10750 ] final -175.31 input  -60.55 | X-H torsion
[ 11005 11000 10999 10996 ] final   92.99 input  -57.11 | X-H torsion

> <Gold.Protein.ActiveResidues>
 VAL166  LYS551  ARG553  GLY616  TRP617  ASP618  TYR619  PRO620  LYS621  CYS622 
 ASP623  PHE694  ASN695  SER759  ASP760  ASP761  ALA762  ILE779  LEU786  VAL792 
 PHE793  MET794  SER795  GLU796  ALA797  LYS798  CYS799  TRP800  GLU811  SER814 

> <Gold.Protein.RotatedAtoms>
  150.6901  134.3709  159.4991 H   0  0  0  0  0  0  0  0  0  0  0  0  # atno 6907 bound_to 6896
  152.1525  134.8974  160.0556 H   0  0  0  0  0  0  0  0  0  0  0  0  # atno 6908 bound_to 6896
  152.0066  133.3811  159.4240 H   0  0  0  0  0  0  0  0  0  0  0  0  # atno 6909 bound_to 6896
  145.0514  139.3880  143.5052 H   0  0  0  0  0  0  0  0  0  0  0  0  # atno 7974 bound_to 7965
  155.8372  140.0943  157.1757 H   0  0  0  0  0  0  0  0  0  0  0  0  # atno 8008 bound_to 7997
  154.3981  140.1408  156.3745 H   0  0  0  0  0  0  0  0  0  0  0  0  # atno 8009 bound_to 7997
  155.8103  140.3450  155.5456 H   0  0  0  0  0  0  0  0  0  0  0  0  # atno 8010 bound_to 7997
  139.8869  143.6770  152.2618 H   0  0  0  0  0  0  0  0  0  0  0  0  # atno 10167 bound_to 10162
  156.7471  130.5227  149.5812 H   0  0  0  0  0  0  0  0  0  0  0  0  # atno 10718 bound_to 10713
  154.5859  135.2840  155.0685 H   0  0  0  0  0  0  0  0  0  0  0  0  # atno 10763 bound_to 10752
  154.2004  135.6425  153.5089 H   0  0  0  0  0  0  0  0  0  0  0  0  # atno 10764 bound_to 10752
  153.0104  135.5467  154.6528 H   0  0  0  0  0  0  0  0  0  0  0  0  # atno 10765 bound_to 10752
  139.8816  134.8764  156.3653 H   0  0  0  0  0  0  0  0  0  0  0  0  # atno 11005 bound_to 11000
  146.3518  140.0166  142.8662 LP  0  0  0  0  0  0  0  0  0  0  0  0  # atno 17320 bound_to 7965
  145.1522  140.9629  143.4426 LP  0  0  0  0  0  0  0  0  0  0  0  0  # atno 17321 bound_to 7965
  139.7145  144.7614  151.1057 LP  0  0  0  0  0  0  0  0  0  0  0  0  # atno 17342 bound_to 10162
  140.7734  143.5288  150.9448 LP  0  0  0  0  0  0  0  0  0  0  0  0  # atno 17343 bound_to 10162
  156.1426  130.6255  151.0488 LP  0  0  0  0  0  0  0  0  0  0  0  0  # atno 17370 bound_to 10713
  157.6793  131.0842  150.7411 LP  0  0  0  0  0  0  0  0  0  0  0  0  # atno 17371 bound_to 10713
  140.9502  133.7456  156.0261 LP  0  0  0  0  0  0  0  0  0  0  0  0  # atno 17394 bound_to 11000
  140.8115  134.3394  157.5410 LP  0  0  0  0  0  0  0  0  0  0  0  0  # atno 17395 bound_to 11000

$$$$
