AV-unprocessed.smi:302|AV-procd|sdf|2273|dock5
  -GOLD-   2262022163D 1   1.00000     0.00000
 Structure written by MMmdl.
 44 45  0  0  0  0  0  0  0  0  1 V2000
  136.5577  140.4803  154.5369 C   0  0  0  0  0  0  0  0  0  0  0  0
  137.8801  140.0238  153.9166 C   0  0  0  0  0  0  0  0  0  0  0  0
  138.9442  140.4000  154.7831 O   0  0  0  0  0  0  0  0  0  0  0  0
  140.2555  140.2535  154.2423 C   0  0  1  0  0  0  0  0  0  0  0  0
  141.2225  140.9872  155.1940 C   0  0  0  0  0  0  0  0  0  0  0  0
  140.8436  142.4504  155.4703 C   0  0  0  0  0  0  0  0  0  0  0  0
  140.6008  138.7607  154.0970 C   0  0  0  0  0  0  0  0  0  0  0  0
  139.8353  137.9124  154.5542 O   0  0  0  0  0  0  0  0  0  0  0  0
  141.7576  138.4870  153.4657 N   0  0  0  0  0  0  0  0  0  0  0  0
  142.3435  137.2201  153.2000 C   0  0  0  0  0  0  0  0  0  0  0  0
  141.7407  135.9806  153.5210 C   0  0  0  0  0  0  0  0  0  0  0  0
  142.4179  134.7900  153.1951 C   0  0  0  0  0  0  0  0  0  0  0  0
  143.6694  134.8729  152.5512 C   0  0  0  0  0  0  0  0  0  0  0  0
  144.3493  133.6891  152.2323 N   0  0  0  0  0  0  0  0  0  0  0  0
  145.7146  133.9106  151.7727 C   0  0  0  0  0  0  0  0  0  0  0  0
  146.4273  132.5620  151.5719 C   0  0  0  0  0  0  0  0  0  0  0  0
  145.6754  131.7528  150.6716 O   0  0  0  0  0  0  0  0  0  0  0  0
  144.3653  131.4814  151.1623 C   0  0  0  0  0  0  0  0  0  0  0  0
  143.6009  132.8034  151.3490 C   0  0  0  0  0  0  0  0  0  0  0  0
  144.2445  136.0548  152.2257 N   0  0  0  0  0  0  0  0  0  0  0  0
  143.5899  137.1923  152.5408 C   0  0  0  0  0  0  0  0  0  0  0  0
  135.7159  140.2202  153.8949 H   0  0  0  0  0  0  0  0  0  0  0  0
  136.5456  141.5604  154.6836 H   0  0  0  0  0  0  0  0  0  0  0  0
  136.3972  140.0081  155.5064 H   0  0  0  0  0  0  0  0  0  0  0  0
  137.8568  138.9441  153.7658 H   0  0  0  0  0  0  0  0  0  0  0  0
  138.0101  140.4913  152.9396 H   0  0  0  0  0  0  0  0  0  0  0  0
  140.2952  140.7436  153.2673 H   0  0  0  0  0  0  0  0  0  0  0  0
  141.2483  140.4535  156.1445 H   0  0  0  0  0  0  0  0  0  0  0  0
  142.2398  140.9439  154.8021 H   0  0  0  0  0  0  0  0  0  0  0  0
  141.5302  142.8967  156.1898 H   0  0  0  0  0  0  0  0  0  0  0  0
  139.8371  142.5244  155.8823 H   0  0  0  0  0  0  0  0  0  0  0  0
  140.8815  143.0556  154.5642 H   0  0  0  0  0  0  0  0  0  0  0  0
  142.3198  139.2863  153.2112 H   0  0  0  0  0  0  0  0  0  0  0  0
  140.7745  135.9176  153.9962 H   0  0  0  0  0  0  0  0  0  0  0  0
  141.9806  133.8315  153.4339 H   0  0  0  0  0  0  0  0  0  0  0  0
  145.7034  134.4659  150.8334 H   0  0  0  0  0  0  0  0  0  0  0  0
  146.2565  134.5161  152.5003 H   0  0  0  0  0  0  0  0  0  0  0  0
  147.4237  132.7207  151.1599 H   0  0  0  0  0  0  0  0  0  0  0  0
  146.5544  132.0438  152.5238 H   0  0  0  0  0  0  0  0  0  0  0  0
  143.8436  130.8423  150.4500 H   0  0  0  0  0  0  0  0  0  0  0  0
  144.4242  130.9297  152.1022 H   0  0  0  0  0  0  0  0  0  0  0  0
  142.6134  132.6097  151.7695 H   0  0  0  0  0  0  0  0  0  0  0  0
  143.4527  133.2838  150.3808 H   0  0  0  0  0  0  0  0  0  0  0  0
  144.0835  138.1118  152.2621 H   0  0  0  0  0  0  0  0  0  0  0  0
  1  2  1  0  0  0  0
  1 22  1  0  0  0  0
  1 23  1  0  0  0  0
  1 24  1  0  0  0  0
  2  3  1  0  0  0  0
  2 25  1  0  0  0  0
  2 26  1  0  0  0  0
  3  4  1  0  0  0  0
  4  5  1  0  0  0  0
  4  7  1  0  0  0  0
  4 27  1  0  0  0  0
  5  6  1  0  0  0  0
  5 28  1  0  0  0  0
  5 29  1  0  0  0  0
  6 30  1  0  0  0  0
  6 31  1  0  0  0  0
  6 32  1  0  0  0  0
  7  8  2  0  0  0  0
  7  9  1  0  0  0  0
  9 10  1  0  0  0  0
  9 33  1  0  0  0  0
 10 21  1  0  0  0  0
 10 11  2  0  0  0  0
 11 12  1  0  0  0  0
 11 34  1  0  0  0  0
 12 13  2  0  0  0  0
 12 35  1  0  0  0  0
 13 14  1  0  0  0  0
 13 20  1  0  0  0  0
 14 19  1  0  0  0  0
 14 15  1  0  0  0  0
 15 16  1  0  0  0  0
 15 36  1  0  0  0  0
 15 37  1  0  0  0  0
 16 17  1  0  0  0  0
 16 38  1  0  0  0  0
 16 39  1  0  0  0  0
 17 18  1  0  0  0  0
 18 19  1  0  0  0  0
 18 40  1  0  0  0  0
 18 41  1  0  0  0  0
 19 42  1  0  0  0  0
 19 43  1  0  0  0  0
 20 21  2  0  0  0  0
 21 44  1  0  0  0  0
M  END
> <s_m_source_file>
AV-unprocessed.smi

> <i_m_source_file_index>
302

> <i_lp_mmshare_version>
43012

> <i_f3d_flags>
0

> <s_epik_input>
W0NIM11bQ0gyXU9bQ0BIXShbQ0gyXVtDSDNdKUMoPU8pW05IXWMxW2NIXVtjSF1jKG5bY0hdMSlOMltDSDJdW0NIMl1PW0NIMl1bQ0gyXTI=

> <s_epik_cmdline>
J2VwaWtfcHl0aG9uJywgJy1waCcsICc3LjAnLCAnLXRuJywgJzgnLCAnLW1hJywgJzIwMCcsICctbWV0YWxfYmluZGluZycsICctaW1hZScsICc8aW5maWxlLm1hZT4nLCAnLW9tYWUnLCAnPG91dGZpbGUubWFlPic=

> <r_lp_tautomer_probability>
1

> <r_epik_Ionization_Penalty>
0.000497413

> <r_epik_Ionization_Penalty_Charging>
0

> <r_epik_Ionization_Penalty_Neutral>
0.000497413

> <r_epik_State_Penalty>
0.000308489

> <r_epik_Charging_Adjusted_Penalty>
0.000308489

> <i_epik_Tot_Q>
0

> <i_epik_Tot_abs_Q>
0

> <r_epik_Metal_State_Penalty>
-0

> <b_epik_Metal_Only>
0

> <s_lp_Force_Field>
OPLS_2005

> <r_lp_Energy>
26.1218

> <b_lp_Chiralities_Consistent>
1

> <s_lp_Variant>
AV-unprocessed.smi:302-2

> <Gold.Version>
5.8.1

> <Gold.Id.Protein>
6NUR|6NUR_protein|mol2

> <Gold.PLP.Fitness>
39.5070

> <Gold.PLP.PLP>
-32.2425

> <Gold.PLP.part.hbond>
-1.0000

> <Gold.PLP.part.metal>
0.0000

> <Gold.PLP.part.buried>
-5.4492

> <Gold.PLP.part.nonpolar>
-25.9303

> <Gold.PLP.part.repulsive>
0.5116

> <Gold.PLP.ligand.clash>
0.0000

> <Gold.PLP.ligand.torsion>
0.2942

> <Gold.PLP.Chemscore.Hbond>
1.0000

> <Gold.PLP.Chemscore.CHOScore>
1.5692

> <Gold.PLP.Chemscore.Metal>
0.0000

> <Gold.Chemscore.Hbonds>
donor molecule, donor type, donor heavy atom, donor atom, acceptor molecule, acceptor atom, score
      L1  H     9    33       P1 10175  1.00
      L1  C    21    44       P1 10171  0.64
      L1  C    21    44       P1 10175  1.00

> <Gold.PLP.Chemscore.Internal.Correction>
0.1453

> <Gold.Rescore>
     Score         DG    S(hbond)    S(metal)    S(lipo)     H(rot)  DE(clash)    DE(int)     intcor
     11.23     -12.95       1.00        0.00      70.89       1.63       0.05       1.67       ----

> <Gold.Chemscore.Fitness>
11.2294

> <Gold.Chemscore.DG>
-12.9485

> <Gold.Chemscore.ZeroCoef>
-5.4800

> <Gold.Chemscore.Hbond>
0.9992

> <Gold.Chemscore.Metal>
0.0000

> <Gold.Chemscore.Lipo>
70.8865

> <Gold.Chemscore.Internal_Hbond>
0.0000

> <Gold.Chemscore.DEClash>
0.0524

> <Gold.Chemscore.DEInternal>
1.6668

> <Gold.Chemscore.Rot>
1.6260

> <Gold.Chemscore.Internal.Correction>
   9.000000E+99

> <Gold.Chemscore.Hbonds>
donor molecule, donor type, donor heavy atom, donor atom, acceptor molecule, acceptor atom, score
      L1  H     9    33       P1 10175  0.99

> <Gold.Chemscore.Hbond.Weighted>
-3.3374

> <Gold.Chemscore.Metal.Weighted>
-0.0000

> <Gold.Chemscore.Lipo.Weighted>
-8.2937

> <Gold.Chemscore.Internal_Hbond.Weighted>
0.0000

> <Gold.Chemscore.DEClash.Weighted>
0.0524

> <Gold.Chemscore.DEInternal.Weighted>
1.6668

> <Gold.Chemscore.Rot.Weighted>
4.1626

> <Gold.Chemscore.Internal.Correction.Weighted>
   9.000000E+99

> <Gold.Protein.RotatedTorsions>
[ 6907 6896 6895 6894 ] final    5.63 input  -60.11 | X-H torsion
[ 7974 7965 7964 7962 ] final  -35.74 input  175.53 | X-H torsion
[ 8008 7997 7996 7995 ] final   56.37 input   59.86 | X-H torsion
[ 10167 10162 10161 10158 ] final   -2.75 input  -65.29 | X-H torsion
[ 10718 10713 10712 10709 ] final  -71.51 input   66.30 | X-H torsion
[ 10763 10752 10751 10750 ] final   61.75 input  -60.55 | X-H torsion
[ 11005 11000 10999 10996 ] final  156.07 input  -57.11 | X-H torsion

> <Gold.Protein.ActiveResidues>
 VAL166  LYS551  ARG553  GLY616  TRP617  ASP618  TYR619  PRO620  LYS621  CYS622 
 ASP623  PHE694  ASN695  SER759  ASP760  ASP761  ALA762  ILE779  LEU786  VAL792 
 PHE793  MET794  SER795  GLU796  ALA797  LYS798  CYS799  TRP800  GLU811  SER814 

> <Gold.Protein.RotatedAtoms>
  151.6606  135.0990  160.0178 H   0  0  0  0  0  0  0  0  0  0  0  0  # atno 6907 bound_to 6896
  152.3949  133.6727  159.6276 H   0  0  0  0  0  0  0  0  0  0  0  0  # atno 6908 bound_to 6896
  150.7857  133.8808  159.3326 H   0  0  0  0  0  0  0  0  0  0  0  0  # atno 6909 bound_to 6896
  146.0721  140.6195  142.8948 H   0  0  0  0  0  0  0  0  0  0  0  0  # atno 7974 bound_to 7965
  155.5164  140.3478  155.4398 H   0  0  0  0  0  0  0  0  0  0  0  0  # atno 8008 bound_to 7997
  156.0815  140.1387  156.9734 H   0  0  0  0  0  0  0  0  0  0  0  0  # atno 8009 bound_to 7997
  154.4582  140.0945  156.6795 H   0  0  0  0  0  0  0  0  0  0  0  0  # atno 8010 bound_to 7997
  140.6863  143.6621  150.8258 H   0  0  0  0  0  0  0  0  0  0  0  0  # atno 10167 bound_to 10162
  156.0360  130.4353  150.2454 H   0  0  0  0  0  0  0  0  0  0  0  0  # atno 10718 bound_to 10713
  152.9960  135.5489  154.6084 H   0  0  0  0  0  0  0  0  0  0  0  0  # atno 10763 bound_to 10752
  154.5410  135.2820  155.1097 H   0  0  0  0  0  0  0  0  0  0  0  0  # atno 10764 bound_to 10752
  154.2375  135.6422  153.5248 H   0  0  0  0  0  0  0  0  0  0  0  0  # atno 10765 bound_to 10752
  140.1641  134.8589  157.2610 H   0  0  0  0  0  0  0  0  0  0  0  0  # atno 11005 bound_to 11000
  144.7238  140.4459  143.6988 LP  0  0  0  0  0  0  0  0  0  0  0  0  # atno 17320 bound_to 7965
  145.6373  139.1545  143.2935 LP  0  0  0  0  0  0  0  0  0  0  0  0  # atno 17321 bound_to 7965
  140.0328  143.5426  152.2752 LP  0  0  0  0  0  0  0  0  0  0  0  0  # atno 17342 bound_to 10162
  139.6225  144.7631  151.2710 LP  0  0  0  0  0  0  0  0  0  0  0  0  # atno 17343 bound_to 10162
  157.0553  131.0074  151.3240 LP  0  0  0  0  0  0  0  0  0  0  0  0  # atno 17370 bound_to 10713
  157.5110  130.7939  149.7705 LP  0  0  0  0  0  0  0  0  0  0  0  0  # atno 17371 bound_to 10713
  140.2455  134.3745  155.7463 LP  0  0  0  0  0  0  0  0  0  0  0  0  # atno 17394 bound_to 11000
  141.2212  133.7288  156.8855 LP  0  0  0  0  0  0  0  0  0  0  0  0  # atno 17395 bound_to 11000

$$$$
