AV-unprocessed.smi:1042|AV-procd|sdf|4536|dock4
  -GOLD-   22720 2563D 1   1.00000     0.00000
 Structure written by MMmdl.
 40 42  0  0  0  0  0  0  0  0  2 V2000
  146.6287  138.9006  154.6454 O   0  0  0  0  0  0  0  0  0  0  0  0
  147.3880  138.1647  154.0144 C   0  0  0  0  0  0  0  0  0  0  0  0
  146.9619  137.1759  153.2146 N   0  0  0  0  0  0  0  0  0  0  0  0
  145.5653  136.8266  152.9711 C   0  0  0  0  0  0  0  0  0  0  0  0
  145.3699  136.1393  151.6056 C   0  0  2  0  0  0  0  0  0  0  0  0
  143.9502  135.6499  151.3165 C   0  0  0  0  0  0  0  0  0  0  0  0
  144.1334  134.5648  150.2504 C   0  0  0  0  0  0  0  0  0  0  0  0
  145.5459  134.1250  150.3276 N   0  3  2  0  0  0  0  0  0  0  0  0
  145.7212  132.6586  150.3932 C   0  0  0  0  0  0  0  0  0  0  0  0
  144.6208  131.8876  149.7048 C   0  0  0  0  0  0  0  0  0  0  0  0
  144.6653  131.9601  151.2160 C   0  0  0  0  0  0  0  0  0  0  0  0
  146.1825  134.8546  151.4438 C   0  0  0  0  0  0  0  0  0  0  0  0
  148.7306  138.2389  154.0245 N   0  0  0  0  0  0  0  0  0  0  0  0
  149.5526  139.1779  154.7030 C   0  0  0  0  0  0  0  0  0  0  0  0
  150.8869  138.7628  154.9146 C   0  0  0  0  0  0  0  0  0  0  0  0
  151.7848  139.6247  155.5736 C   0  0  0  0  0  0  0  0  0  0  0  0
  151.3245  140.8812  156.0058 C   0  0  0  0  0  0  0  0  0  0  0  0
  149.9812  141.2168  155.7559 C   0  0  0  0  0  0  0  0  0  0  0  0
  149.1191  140.3928  155.1232 N   0  0  0  0  0  0  0  0  0  0  0  0
  147.6574  136.6193  152.7394 H   0  0  0  0  0  0  0  0  0  0  0  0
  145.2525  136.1491  153.7659 H   0  0  0  0  0  0  0  0  0  0  0  0
  144.9259  137.7071  153.0554 H   0  0  0  0  0  0  0  0  0  0  0  0
  145.6640  136.8299  150.8130 H   0  0  0  0  0  0  0  0  0  0  0  0
  143.5202  135.2041  152.2146 H   0  0  0  0  0  0  0  0  0  0  0  0
  143.2838  136.4491  150.9905 H   0  0  0  0  0  0  0  0  0  0  0  0
  143.4320  133.7431  150.4033 H   0  0  0  0  0  0  0  0  0  0  0  0
  143.9543  134.9694  149.2540 H   0  0  0  0  0  0  0  0  0  0  0  0
  146.7458  132.2908  150.3843 H   0  0  0  0  0  0  0  0  0  0  0  0
  143.8374  132.4482  149.1976 H   0  0  0  0  0  0  0  0  0  0  0  0
  144.8866  130.9389  149.2431 H   0  0  0  0  0  0  0  0  0  0  0  0
  144.9597  131.0585  151.7493 H   0  0  0  0  0  0  0  0  0  0  0  0
  143.9133  132.5697  151.7134 H   0  0  0  0  0  0  0  0  0  0  0  0
  147.2366  135.0478  151.2427 H   0  0  0  0  0  0  0  0  0  0  0  0
  146.1187  134.2581  152.3559 H   0  0  0  0  0  0  0  0  0  0  0  0
  149.2227  137.5553  153.4686 H   0  0  0  0  0  0  0  0  0  0  0  0
  151.2244  137.7941  154.5754 H   0  0  0  0  0  0  0  0  0  0  0  0
  152.8087  139.3262  155.7440 H   0  0  0  0  0  0  0  0  0  0  0  0
  151.9830  141.5692  156.5148 H   0  0  0  0  0  0  0  0  0  0  0  0
  149.5881  142.1720  156.0711 H   0  0  0  0  0  0  0  0  0  0  0  0
  145.9894  134.4477  149.4795 H   0  0  0  0  0  0  0  0  0  0  0  0
  1  2  2  0  0  0  0
  2  3  1  0  0  0  0
  2 13  1  0  0  0  0
  3  4  1  0  0  0  0
  3 20  1  0  0  0  0
  4  5  1  0  0  0  0
  4 21  1  0  0  0  0
  4 22  1  0  0  0  0
  5 12  1  0  0  0  0
  5  6  1  0  0  0  0
  5 23  1  0  0  0  0
  6  7  1  0  0  0  0
  6 24  1  0  0  0  0
  6 25  1  0  0  0  0
  7  8  1  0  0  0  0
  7 26  1  0  0  0  0
  7 27  1  0  0  0  0
  8  9  1  0  0  0  0
  8 12  1  0  0  0  0
  8 40  1  0  0  0  0
  9 11  1  0  0  0  0
  9 10  1  0  0  0  0
  9 28  1  0  0  0  0
 10 11  1  0  0  0  0
 10 29  1  0  0  0  0
 10 30  1  0  0  0  0
 11 31  1  0  0  0  0
 11 32  1  0  0  0  0
 12 33  1  0  0  0  0
 12 34  1  0  0  0  0
 13 14  1  0  0  0  0
 13 35  1  0  0  0  0
 14 19  1  0  0  0  0
 14 15  2  0  0  0  0
 15 16  1  0  0  0  0
 15 36  1  0  0  0  0
 16 17  2  0  0  0  0
 16 37  1  0  0  0  0
 17 18  1  0  0  0  0
 17 38  1  0  0  0  0
 18 19  2  0  0  0  0
 18 39  1  0  0  0  0
M  CHG  1   8   1
M  END
> <s_m_source_file>
AV-unprocessed.smi

> <i_m_source_file_index>
1042

> <i_lp_mmshare_version>
43012

> <i_f3d_flags>
0

> <s_epik_input>
bjFbY0hdW2NIXVtjSF1bY0hdYzFbTkhdQyg9TylbTkhdW0NIMl1bQ0BASF0yW0NIMl1bQ0gyXU4oW0NIMl0yKVtDSF0zW0NIMl1bQ0gyXTM=

> <s_epik_cmdline>
J2VwaWtfcHl0aG9uJywgJy1waCcsICc3LjAnLCAnLXRuJywgJzgnLCAnLW1hJywgJzIwMCcsICctbWV0YWxfYmluZGluZycsICctaW1hZScsICc8aW5maWxlLm1hZT4nLCAnLW9tYWUnLCAnPG91dGZpbGUubWFlPic=

> <r_lp_tautomer_probability>
1

> <r_epik_Ionization_Penalty>
0.000244736

> <r_epik_Ionization_Penalty_Charging>
0.000203384

> <r_epik_Ionization_Penalty_Neutral>
4.13519e-05

> <r_epik_State_Penalty>
-0

> <r_epik_Charging_Adjusted_Penalty>
0.000203384

> <i_epik_Tot_Q>
1

> <i_epik_Tot_abs_Q>
1

> <r_epik_Metal_State_Penalty>
-0

> <b_epik_Metal_Only>
0

> <s_lp_Force_Field>
OPLS_2005

> <r_lp_Energy>
38.723

> <b_lp_Chiralities_Consistent>
1

> <s_lp_Variant>
AV-unprocessed.smi:1042-1

> <Gold.Version>
5.8.1

> <Gold.Id.Protein>
6NUR|6NUR_protein|mol2

> <Gold.PLP.Fitness>
43.9660

> <Gold.PLP.PLP>
-33.2492

> <Gold.PLP.part.hbond>
-3.0000

> <Gold.PLP.part.metal>
0.0000

> <Gold.PLP.part.buried>
-1.0817

> <Gold.PLP.part.nonpolar>
-29.5355

> <Gold.PLP.part.repulsive>
0.3312

> <Gold.PLP.ligand.clash>
0.0000

> <Gold.PLP.ligand.torsion>
0.9080

> <Gold.PLP.Chemscore.Hbond>
2.7571

> <Gold.PLP.Chemscore.CHOScore>
1.0000

> <Gold.PLP.Chemscore.Metal>
0.0000

> <Gold.Chemscore.Hbonds>
donor molecule, donor type, donor heavy atom, donor atom, acceptor molecule, acceptor atom, score
      L1  H     3    20       P1  7948  1.00
      L1  H     8    40       P1  7921  1.00
      L1  H    13    35       P1  7948  0.77
      L1  C    18    39       P1  8028  0.64

> <Gold.PLP.Chemscore.Internal.Correction>
1.2613

> <Gold.Rescore>
     Score         DG    S(hbond)    S(metal)    S(lipo)     H(rot)  DE(clash)    DE(int)     intcor
     18.53     -20.73       2.79        0.00      82.79       1.47       0.10       2.10       ----

> <Gold.Chemscore.Fitness>
18.5265

> <Gold.Chemscore.DG>
-20.7287

> <Gold.Chemscore.ZeroCoef>
-5.4800

> <Gold.Chemscore.Hbond>
2.7927

> <Gold.Chemscore.Metal>
0.0000

> <Gold.Chemscore.Lipo>
82.7867

> <Gold.Chemscore.Internal_Hbond>
0.0000

> <Gold.Chemscore.DEClash>
0.1028

> <Gold.Chemscore.DEInternal>
2.0994

> <Gold.Chemscore.Rot>
1.4707

> <Gold.Chemscore.Internal.Correction>
   9.000000E+99

> <Gold.Chemscore.Hbonds>
donor molecule, donor type, donor heavy atom, donor atom, acceptor molecule, acceptor atom, score
      L1  H     3    20       P1  7948  0.98
      L1  H     8    40       P1  7921  0.49
      L1  H    13    35       P1  7948  0.72

> <Gold.Chemscore.Hbond.Weighted>
-9.3277

> <Gold.Chemscore.Metal.Weighted>
-0.0000

> <Gold.Chemscore.Lipo.Weighted>
-9.6860

> <Gold.Chemscore.Internal_Hbond.Weighted>
0.0000

> <Gold.Chemscore.DEClash.Weighted>
0.1028

> <Gold.Chemscore.DEInternal.Weighted>
2.0994

> <Gold.Chemscore.Rot.Weighted>
3.7650

> <Gold.Chemscore.Internal.Correction.Weighted>
   9.000000E+99

> <Gold.Protein.RotatedTorsions>
[ 6907 6896 6895 6894 ] final   17.74 input  -60.11 | X-H torsion
[ 7974 7965 7964 7962 ] final   34.73 input  175.53 | X-H torsion
[ 8008 7997 7996 7995 ] final   48.51 input   59.86 | X-H torsion
[ 10167 10162 10161 10158 ] final -144.02 input  -65.29 | X-H torsion
[ 10718 10713 10712 10709 ] final  -74.54 input   66.30 | X-H torsion
[ 10763 10752 10751 10750 ] final -143.73 input  -60.55 | X-H torsion
[ 11005 11000 10999 10996 ] final -125.02 input  -57.11 | X-H torsion

> <Gold.Protein.ActiveResidues>
 VAL166  LYS551  ARG553  GLY616  TRP617  ASP618  TYR619  PRO620  LYS621  CYS622 
 ASP623  PHE694  ASN695  SER759  ASP760  ASP761  ALA762  ILE779  LEU786  VAL792 
 PHE793  MET794  SER795  GLU796  ALA797  LYS798  CYS799  TRP800  GLU811  SER814 

> <Gold.Protein.RotatedAtoms>
  151.8544  135.0546  160.0462 H   0  0  0  0  0  0  0  0  0  0  0  0  # atno 6907 bound_to 6896
  152.2712  133.5379  159.5448 H   0  0  0  0  0  0  0  0  0  0  0  0  # atno 6908 bound_to 6896
  150.7152  134.0612  159.3874 H   0  0  0  0  0  0  0  0  0  0  0  0  # atno 6909 bound_to 6896
  146.1332  139.6232  142.9212 H   0  0  0  0  0  0  0  0  0  0  0  0  # atno 7974 bound_to 7965
  155.3868  140.3431  155.4249 H   0  0  0  0  0  0  0  0  0  0  0  0  # atno 8008 bound_to 7997
  156.1579  140.1591  156.8694 H   0  0  0  0  0  0  0  0  0  0  0  0  # atno 8009 bound_to 7997
  154.5112  140.0789  156.7976 H   0  0  0  0  0  0  0  0  0  0  0  0  # atno 8010 bound_to 7997
  139.7938  143.7928  152.2652 H   0  0  0  0  0  0  0  0  0  0  0  0  # atno 10167 bound_to 10162
  156.0239  130.4419  150.2908 H   0  0  0  0  0  0  0  0  0  0  0  0  # atno 10718 bound_to 10713
  154.8458  135.3460  154.6234 H   0  0  0  0  0  0  0  0  0  0  0  0  # atno 10763 bound_to 10752
  153.6843  135.6978  153.5113 H   0  0  0  0  0  0  0  0  0  0  0  0  # atno 10764 bound_to 10752
  153.2644  135.4313  155.0882 H   0  0  0  0  0  0  0  0  0  0  0  0  # atno 10765 bound_to 10752
  140.9795  134.0693  157.3780 H   0  0  0  0  0  0  0  0  0  0  0  0  # atno 11005 bound_to 11000
  145.5214  141.0431  143.2433 LP  0  0  0  0  0  0  0  0  0  0  0  0  # atno 17320 bound_to 7965
  144.7712  139.6730  143.7194 LP  0  0  0  0  0  0  0  0  0  0  0  0  # atno 17321 bound_to 7965
  139.8028  144.7367  150.9802 LP  0  0  0  0  0  0  0  0  0  0  0  0  # atno 17342 bound_to 10162
  140.7820  143.4328  151.0668 LP  0  0  0  0  0  0  0  0  0  0  0  0  # atno 17343 bound_to 10162
  157.1011  131.0196  151.3085 LP  0  0  0  0  0  0  0  0  0  0  0  0  # atno 17370 bound_to 10713
  157.4779  130.7747  149.7385 LP  0  0  0  0  0  0  0  0  0  0  0  0  # atno 17371 bound_to 10713
  139.8944  135.0136  156.6950 LP  0  0  0  0  0  0  0  0  0  0  0  0  # atno 17394 bound_to 11000
  140.7208  133.9143  155.8145 LP  0  0  0  0  0  0  0  0  0  0  0  0  # atno 17395 bound_to 11000

$$$$
