AV-unprocessed.smi:2922|AV-procd|sdf|11201|dock9
  -GOLD-   2272016 93D 1   1.00000     0.00000
 Structure written by MMmdl.
 30 31  0  0  0  0  0  0  0  0  1 V2000
  148.7420  137.0963  154.6710 N   0  0  0  0  0  0  0  0  0  0  0  0
  148.9697  138.2460  155.3131 C   0  0  0  0  0  0  0  0  0  0  0  0
  148.8930  138.3309  156.5373 O   0  0  0  0  0  0  0  0  0  0  0  0
  149.3076  139.4823  154.4606 C   0  0  1  0  0  0  0  0  0  0  0  0
  148.2073  140.5628  154.4601 C   0  0  0  0  0  0  0  0  0  0  0  0
  148.9056  141.8018  154.9948 C   0  0  0  0  0  0  0  0  0  0  0  0
  150.0498  141.2170  155.8139 C   0  0  2  0  0  0  0  0  0  0  0  0
  151.2061  142.1991  156.0573 C   0  0  0  0  0  0  0  0  0  0  0  0
  150.9759  143.0331  157.2293 N   0  0  0  0  0  0  0  0  0  0  0  0
  151.5920  142.8508  158.4544 C   0  0  0  0  0  0  0  0  0  0  0  0
  151.4756  143.8136  159.3774 N   0  0  0  0  0  0  0  0  0  0  0  0
  152.0958  143.6115  160.5602 C   0  0  0  0  0  0  0  0  0  0  0  0
  152.8309  142.4369  160.8150 C   0  0  0  0  0  0  0  0  0  0  0  0
  153.6278  142.1732  162.3221 Cl  0  0  0  0  0  0  0  0  0  0  0  0
  152.8812  141.4891  159.7734 C   0  0  0  0  0  0  0  0  0  0  0  0
  152.2586  141.7013  158.5928 N   0  0  0  0  0  0  0  0  0  0  0  0
  150.4613  140.1374  154.9879 O   0  0  0  0  0  0  0  0  0  0  0  0
  148.5207  136.2619  155.1947 H   0  0  0  0  0  0  0  0  0  0  0  0
  148.7964  137.0686  153.6629 H   0  0  0  0  0  0  0  0  0  0  0  0
  149.5299  139.1532  153.4451 H   0  0  0  0  0  0  0  0  0  0  0  0
  147.8006  140.7319  153.4626 H   0  0  0  0  0  0  0  0  0  0  0  0
  147.3726  140.3026  155.1128 H   0  0  0  0  0  0  0  0  0  0  0  0
  149.3000  142.3903  154.1650 H   0  0  0  0  0  0  0  0  0  0  0  0
  148.2462  142.4420  155.5817 H   0  0  0  0  0  0  0  0  0  0  0  0
  149.6645  140.8319  156.7602 H   0  0  0  0  0  0  0  0  0  0  0  0
  152.1573  141.6714  156.1364 H   0  0  0  0  0  0  0  0  0  0  0  0
  151.2955  142.8677  155.2010 H   0  0  0  0  0  0  0  0  0  0  0  0
  150.1653  143.6351  157.2181 H   0  0  0  0  0  0  0  0  0  0  0  0
  152.0049  144.3902  161.3032 H   0  0  0  0  0  0  0  0  0  0  0  0
  153.4220  140.5610  159.8848 H   0  0  0  0  0  0  0  0  0  0  0  0
  1  2  1  0  0  0  0
  1 18  1  0  0  0  0
  1 19  1  0  0  0  0
  2  3  2  0  0  0  0
  2  4  1  0  0  0  0
  4 17  1  0  0  0  0
  4  5  1  0  0  0  0
  4 20  1  0  0  0  0
  5  6  1  0  0  0  0
  5 21  1  0  0  0  0
  5 22  1  0  0  0  0
  6  7  1  0  0  0  0
  6 23  1  0  0  0  0
  6 24  1  0  0  0  0
  7  8  1  0  0  0  0
  7 17  1  0  0  0  0
  7 25  1  0  0  0  0
  8  9  1  0  0  0  0
  8 26  1  0  0  0  0
  8 27  1  0  0  0  0
  9 10  1  0  0  0  0
  9 28  1  0  0  0  0
 10 16  1  0  0  0  0
 10 11  2  0  0  0  0
 11 12  1  0  0  0  0
 12 13  2  0  0  0  0
 12 29  1  0  0  0  0
 13 14  1  0  0  0  0
 13 15  1  0  0  0  0
 15 16  2  0  0  0  0
 15 30  1  0  0  0  0
M  END
> <s_m_source_file>
AV-unprocessed.smi

> <i_m_source_file_index>
2922

> <i_lp_mmshare_version>
43012

> <i_f3d_flags>
0

> <s_epik_input>
W05IMl1DKD1PKVtDQEBIXTFbQ0gyXVtDSDJdW0NASF0oTzEpW0NIMl1bTkhdYzJuW2NIXWMoQ2wpW2NIXW4y

> <s_epik_cmdline>
J2VwaWtfcHl0aG9uJywgJy1waCcsICc3LjAnLCAnLXRuJywgJzgnLCAnLW1hJywgJzIwMCcsICctbWV0YWxfYmluZGluZycsICctaW1hZScsICc8aW5maWxlLm1hZT4nLCAnLW9tYWUnLCAnPG91dGZpbGUubWFlPic=

> <r_lp_tautomer_probability>
1

> <r_epik_Ionization_Penalty>
6.13883e-06

> <r_epik_Ionization_Penalty_Charging>
0

> <r_epik_Ionization_Penalty_Neutral>
6.13883e-06

> <r_epik_State_Penalty>
-0

> <r_epik_Charging_Adjusted_Penalty>
0

> <i_epik_Tot_Q>
0

> <i_epik_Tot_abs_Q>
0

> <r_epik_Metal_State_Penalty>
-0

> <b_epik_Metal_Only>
0

> <s_lp_Force_Field>
OPLS_2005

> <r_lp_Energy>
9.79995

> <b_lp_Chiralities_Consistent>
1

> <s_lp_Variant>
AV-unprocessed.smi:2922-4

> <Gold.Version>
5.8.1

> <Gold.Id.Protein>
6NUR|6NUR_protein|mol2

> <Gold.PLP.Fitness>
40.3251

> <Gold.PLP.PLP>
-32.7099

> <Gold.PLP.part.hbond>
-3.0000

> <Gold.PLP.part.metal>
0.0000

> <Gold.PLP.part.buried>
-5.3568

> <Gold.PLP.part.nonpolar>
-23.8619

> <Gold.PLP.part.repulsive>
0.1660

> <Gold.PLP.ligand.clash>
0.0000

> <Gold.PLP.ligand.torsion>
0.5504

> <Gold.PLP.Chemscore.Hbond>
2.8960

> <Gold.PLP.Chemscore.CHOScore>
0.0000

> <Gold.PLP.Chemscore.Metal>
0.0000

> <Gold.Chemscore.Hbonds>
donor molecule, donor type, donor heavy atom, donor atom, acceptor molecule, acceptor atom, score
      L1  H     1    19       P1  7948  1.00
      L1  H     9    28       P1  8028  0.30
      P1  H  7989  7998       L1    17  1.00

> <Gold.PLP.Chemscore.Internal.Correction>
0.0281

> <Gold.Rescore>
     Score         DG    S(hbond)    S(metal)    S(lipo)     H(rot)  DE(clash)    DE(int)     intcor
     15.00     -17.79       2.24        0.00      83.18       1.91       1.52       1.27       ----

> <Gold.Chemscore.Fitness>
15.0032

> <Gold.Chemscore.DG>
-17.7902

> <Gold.Chemscore.ZeroCoef>
-5.4800

> <Gold.Chemscore.Hbond>
2.2392

> <Gold.Chemscore.Metal>
0.0000

> <Gold.Chemscore.Lipo>
83.1763

> <Gold.Chemscore.Internal_Hbond>
0.0000

> <Gold.Chemscore.DEClash>
1.5211

> <Gold.Chemscore.DEInternal>
1.2659

> <Gold.Chemscore.Rot>
1.9142

> <Gold.Chemscore.Internal.Correction>
   9.000000E+99

> <Gold.Chemscore.Hbonds>
donor molecule, donor type, donor heavy atom, donor atom, acceptor molecule, acceptor atom, score
      L1  H     1    19       P1  7948  0.96
      L1  H     9    28       P1  8028  0.29
      P1  H  7989  7998       L1    17  0.48

> <Gold.Chemscore.Hbond.Weighted>
-7.4788

> <Gold.Chemscore.Metal.Weighted>
-0.0000

> <Gold.Chemscore.Lipo.Weighted>
-9.7316

> <Gold.Chemscore.Internal_Hbond.Weighted>
0.0000

> <Gold.Chemscore.DEClash.Weighted>
1.5211

> <Gold.Chemscore.DEInternal.Weighted>
1.2659

> <Gold.Chemscore.Rot.Weighted>
4.9002

> <Gold.Chemscore.Internal.Correction.Weighted>
   9.000000E+99

> <Gold.Protein.RotatedTorsions>
[ 6907 6896 6895 6894 ] final   11.54 input  -60.11 | X-H torsion
[ 7974 7965 7964 7962 ] final -122.12 input  175.53 | X-H torsion
[ 8008 7997 7996 7995 ] final    4.84 input   59.86 | X-H torsion
[ 10167 10162 10161 10158 ] final -113.63 input  -65.29 | X-H torsion
[ 10718 10713 10712 10709 ] final  112.04 input   66.30 | X-H torsion
[ 10763 10752 10751 10750 ] final  -91.61 input  -60.55 | X-H torsion
[ 11005 11000 10999 10996 ] final  173.77 input  -57.11 | X-H torsion

> <Gold.Protein.ActiveResidues>
 VAL166  LYS551  ARG553  GLY616  TRP617  ASP618  TYR619  PRO620  LYS621  CYS622 
 ASP623  PHE694  ASN695  SER759  ASP760  ASP761  ALA762  ILE779  LEU786  VAL792 
 PHE793  MET794  SER795  GLU796  ALA797  LYS798  CYS799  TRP800  GLU811  SER814 

> <Gold.Protein.RotatedAtoms>
  151.7559  135.0821  160.0337 H   0  0  0  0  0  0  0  0  0  0  0  0  # atno 6907 bound_to 6896
  152.3386  133.6036  159.5868 H   0  0  0  0  0  0  0  0  0  0  0  0  # atno 6908 bound_to 6896
  150.7465  133.9674  159.3576 H   0  0  0  0  0  0  0  0  0  0  0  0  # atno 6909 bound_to 6896
  145.0329  140.8082  143.4313 H   0  0  0  0  0  0  0  0  0  0  0  0  # atno 7974 bound_to 7965
  154.7209  140.2711  155.6542 H   0  0  0  0  0  0  0  0  0  0  0  0  # atno 8008 bound_to 7997
  156.2823  140.2734  156.1805 H   0  0  0  0  0  0  0  0  0  0  0  0  # atno 8009 bound_to 7997
  155.0508  140.0371  157.2533 H   0  0  0  0  0  0  0  0  0  0  0  0  # atno 8010 bound_to 7997
  140.1097  143.4538  152.1760 H   0  0  0  0  0  0  0  0  0  0  0  0  # atno 10167 bound_to 10162
  157.6413  131.0961  150.6837 H   0  0  0  0  0  0  0  0  0  0  0  0  # atno 10718 bound_to 10713
  154.6778  135.5261  153.8222 H   0  0  0  0  0  0  0  0  0  0  0  0  # atno 10763 bound_to 10752
  153.0544  135.6545  154.0624 H   0  0  0  0  0  0  0  0  0  0  0  0  # atno 10764 bound_to 10752
  154.0515  135.2969  155.3319 H   0  0  0  0  0  0  0  0  0  0  0  0  # atno 10765 bound_to 10752
  140.3441  134.7251  157.4222 H   0  0  0  0  0  0  0  0  0  0  0  0  # atno 11005 bound_to 11000
  145.1748  139.2384  143.5323 LP  0  0  0  0  0  0  0  0  0  0  0  0  # atno 17320 bound_to 7965
  146.3500  140.1507  142.8592 LP  0  0  0  0  0  0  0  0  0  0  0  0  # atno 17321 bound_to 7965
  139.5626  144.7415  151.4113 LP  0  0  0  0  0  0  0  0  0  0  0  0  # atno 17342 bound_to 10162
  140.6932  143.7811  150.7287 LP  0  0  0  0  0  0  0  0  0  0  0  0  # atno 17343 bound_to 10162
  156.7161  130.4666  149.5535 LP  0  0  0  0  0  0  0  0  0  0  0  0  # atno 17370 bound_to 10713
  156.1697  130.6429  151.0822 LP  0  0  0  0  0  0  0  0  0  0  0  0  # atno 17371 bound_to 10713
  140.0757  134.5801  155.8594 LP  0  0  0  0  0  0  0  0  0  0  0  0  # atno 17394 bound_to 11000
  141.2030  133.6629  156.6040 LP  0  0  0  0  0  0  0  0  0  0  0  0  # atno 17395 bound_to 11000

$$$$
