AV-unprocessed.smi:17|AV-procd|sdf|99|dock9
  -GOLD-   2262015243D 1   1.00000     0.00000
 Structure written by MMmdl.
 57 59  0  0  0  0  0  0  0  0  1 V2000
  147.8792  137.3394  155.6418 C   0  0  0  0  0  0  0  0  0  0  0  0
  147.6298  137.0614  157.1311 C   0  0  0  0  0  0  0  0  0  0  0  0
  148.8552  136.6823  157.8402 N   0  0  0  0  0  0  0  0  0  0  0  0
  149.9017  137.5525  157.8484 C   0  0  0  0  0  0  0  0  0  0  0  0
  151.1599  137.0416  157.7882 N   0  0  0  0  0  0  0  0  0  0  0  0
  152.2229  137.8497  157.7752 C   0  0  0  0  0  0  0  0  0  0  0  0
  152.2572  139.1814  157.8221 N   0  0  0  0  0  0  0  0  0  0  0  0
  151.0012  139.7048  157.9031 C   0  0  0  0  0  0  0  0  0  0  0  0
  149.7792  138.9721  157.9264 C   0  0  0  0  0  0  0  0  0  0  0  0
  148.7105  139.8557  158.0417 N   0  0  0  0  0  0  0  0  0  0  0  0
  149.2649  141.0362  158.0610 C   0  0  0  0  0  0  0  0  0  0  0  0
  150.6371  141.0379  157.9743 N   0  0  0  0  0  0  0  0  0  0  0  0
  151.5023  142.2044  157.9706 C   0  0  0  0  0  0  0  0  0  0  0  0
  151.4411  143.0128  159.2906 C   0  0  2  0  0  0  0  0  0  0  0  0
  151.0720  144.5001  159.0669 C   0  0  0  0  0  0  0  0  0  0  0  0
  149.7102  144.7439  159.3536 O   0  0  0  0  0  0  0  0  0  0  0  0
  152.7402  142.8504  160.1194 C   0  0  2  0  0  0  0  0  0  0  0  0
  153.2201  141.4188  160.2811 C   0  0  0  0  0  0  0  0  0  0  0  0
  154.1722  141.5361  161.4648 C   0  0  0  0  0  0  0  0  0  0  0  0
  153.6075  142.5355  162.3051 O   0  0  0  0  0  0  0  0  0  0  0  0
  152.6237  143.2759  161.5877 C   0  0  0  0  0  0  0  0  0  0  0  0
  148.9855  135.3709  158.4853 C   0  0  2  0  0  0  0  0  0  0  0  0
  149.1225  134.2495  157.4421 C   0  0  0  0  0  0  0  0  0  0  0  0
  147.8456  135.0808  159.4854 C   0  0  0  0  0  0  0  0  0  0  0  0
  147.9756  136.0647  161.0490 S   0  0  0  0  0  0  0  0  0  0  0  0
  147.9641  134.7614  162.3487 C   0  0  0  0  0  0  0  0  0  0  0  0
  149.3015  136.7002  161.0738 O   0  0  0  0  0  0  0  0  0  0  0  0
  146.7671  136.8879  161.2112 O   0  0  0  0  0  0  0  0  0  0  0  0
  146.9468  137.5881  155.1352 H   0  0  0  0  0  0  0  0  0  0  0  0
  148.3063  136.4695  155.1426 H   0  0  0  0  0  0  0  0  0  0  0  0
  148.5638  138.1763  155.5011 H   0  0  0  0  0  0  0  0  0  0  0  0
  147.1716  137.9309  157.6022 H   0  0  0  0  0  0  0  0  0  0  0  0
  146.8967  136.2603  157.2175 H   0  0  0  0  0  0  0  0  0  0  0  0
  153.1834  137.3594  157.7174 H   0  0  0  0  0  0  0  0  0  0  0  0
  148.6850  141.9447  158.1363 H   0  0  0  0  0  0  0  0  0  0  0  0
  152.5177  141.8574  157.7790 H   0  0  0  0  0  0  0  0  0  0  0  0
  151.2313  142.8392  157.1264 H   0  0  0  0  0  0  0  0  0  0  0  0
  150.6300  142.5847  159.8815 H   0  0  0  0  0  0  0  0  0  0  0  0
  151.6830  145.1547  159.6886 H   0  0  0  0  0  0  0  0  0  0  0  0
  151.2691  144.7977  158.0374 H   0  0  0  0  0  0  0  0  0  0  0  0
  149.3037  145.1176  158.5864 H   0  0  0  0  0  0  0  0  0  0  0  0
  153.5433  143.4256  159.6552 H   0  0  0  0  0  0  0  0  0  0  0  0
  152.3874  140.7605  160.5333 H   0  0  0  0  0  0  0  0  0  0  0  0
  153.7117  141.0248  159.3913 H   0  0  0  0  0  0  0  0  0  0  0  0
  154.3014  140.5918  161.9941 H   0  0  0  0  0  0  0  0  0  0  0  0
  155.1535  141.8755  161.1306 H   0  0  0  0  0  0  0  0  0  0  0  0
  152.7683  144.3484  161.7207 H   0  0  0  0  0  0  0  0  0  0  0  0
  151.6442  143.0164  161.9915 H   0  0  0  0  0  0  0  0  0  0  0  0
  149.8973  135.3495  159.0781 H   0  0  0  0  0  0  0  0  0  0  0  0
  149.3181  133.2909  157.9227 H   0  0  0  0  0  0  0  0  0  0  0  0
  149.9489  134.4471  156.7588 H   0  0  0  0  0  0  0  0  0  0  0  0
  148.2159  134.1404  156.8466 H   0  0  0  0  0  0  0  0  0  0  0  0
  146.8559  135.2266  159.0546 H   0  0  0  0  0  0  0  0  0  0  0  0
  147.9004  134.0335  159.7837 H   0  0  0  0  0  0  0  0  0  0  0  0
  148.1396  135.2229  163.3201 H   0  0  0  0  0  0  0  0  0  0  0  0
  148.7520  134.0357  162.1487 H   0  0  0  0  0  0  0  0  0  0  0  0
  147.0006  134.2576  162.3667 H   0  0  0  0  0  0  0  0  0  0  0  0
  1  2  1  0  0  0  0
  1 29  1  0  0  0  0
  1 30  1  0  0  0  0
  1 31  1  0  0  0  0
  2  3  1  0  0  0  0
  2 32  1  0  0  0  0
  2 33  1  0  0  0  0
  3  4  1  0  0  0  0
  3 22  1  0  0  0  0
  4  9  1  0  0  0  0
  4  5  2  0  0  0  0
  5  6  1  0  0  0  0
  6  7  2  0  0  0  0
  6 34  1  0  0  0  0
  7  8  1  0  0  0  0
  8 12  1  0  0  0  0
  8  9  2  0  0  0  0
  9 10  1  0  0  0  0
 10 11  2  0  0  0  0
 11 12  1  0  0  0  0
 11 35  1  0  0  0  0
 12 13  1  0  0  0  0
 13 14  1  0  0  0  0
 13 36  1  0  0  0  0
 13 37  1  0  0  0  0
 14 15  1  0  0  0  0
 14 17  1  0  0  0  0
 14 38  1  0  0  0  0
 15 16  1  0  0  0  0
 15 39  1  0  0  0  0
 15 40  1  0  0  0  0
 16 41  1  0  0  0  0
 17 21  1  0  0  0  0
 17 18  1  0  0  0  0
 17 42  1  0  0  0  0
 18 19  1  0  0  0  0
 18 43  1  0  0  0  0
 18 44  1  0  0  0  0
 19 20  1  0  0  0  0
 19 45  1  0  0  0  0
 19 46  1  0  0  0  0
 20 21  1  0  0  0  0
 21 47  1  0  0  0  0
 21 48  1  0  0  0  0
 22 23  1  0  0  0  0
 22 24  1  0  0  0  0
 22 49  1  0  0  0  0
 23 50  1  0  0  0  0
 23 51  1  0  0  0  0
 23 52  1  0  0  0  0
 24 25  1  0  0  0  0
 24 53  1  0  0  0  0
 24 54  1  0  0  0  0
 25 26  1  0  0  0  0
 25 27  2  0  0  0  0
 25 28  2  0  0  0  0
 26 55  1  0  0  0  0
 26 56  1  0  0  0  0
 26 57  1  0  0  0  0
M  END
> <s_m_source_file>
AV-unprocessed.smi

> <i_m_source_file_index>
17

> <i_lp_mmshare_version>
43012

> <i_f3d_flags>
0

> <s_epik_input>
W0NIM11TKD1PKSg9TylbQ0gyXVtDQEBIXShbQ0gzXSlOKFtDSDJdW0NIM10pYyhuW2NIXW4xKWMoYzEyKW5bY0hdbjJbQ0gyXVtDQEhdKFtDSDJdW09IXSlbQ0BASF0zW0NIMl1bQ0gyXU9bQ0gyXTM=

> <s_epik_cmdline>
J2VwaWtfcHl0aG9uJywgJy1waCcsICc3LjAnLCAnLXRuJywgJzgnLCAnLW1hJywgJzIwMCcsICctbWV0YWxfYmluZGluZycsICctaW1hZScsICc8aW5maWxlLm1hZT4nLCAnLW9tYWUnLCAnPG91dGZpbGUubWFlPic=

> <r_lp_tautomer_probability>
1

> <r_epik_Ionization_Penalty>
0.00119955

> <r_epik_Ionization_Penalty_Charging>
0

> <r_epik_Ionization_Penalty_Neutral>
0.00119955

> <r_epik_State_Penalty>
0.000665399

> <r_epik_Charging_Adjusted_Penalty>
0.000665399

> <i_epik_Tot_Q>
0

> <i_epik_Tot_abs_Q>
0

> <r_epik_Metal_State_Penalty>
-0

> <b_epik_Metal_Only>
0

> <s_lp_Force_Field>
OPLS_2005

> <r_lp_Energy>
33.2615

> <b_lp_Chiralities_Consistent>
1

> <s_lp_Variant>
AV-unprocessed.smi:17-1

> <Gold.Version>
5.8.1

> <Gold.Id.Protein>
6NUR|6NUR_protein|mol2

> <Gold.PLP.Fitness>
49.7915

> <Gold.PLP.PLP>
-44.9416

> <Gold.PLP.part.hbond>
-3.2883

> <Gold.PLP.part.metal>
0.0000

> <Gold.PLP.part.buried>
-7.0764

> <Gold.PLP.part.nonpolar>
-33.9001

> <Gold.PLP.part.repulsive>
0.0569

> <Gold.PLP.ligand.clash>
0.0000

> <Gold.PLP.ligand.torsion>
2.3684

> <Gold.PLP.Chemscore.Hbond>
3.0000

> <Gold.PLP.Chemscore.CHOScore>
0.0000

> <Gold.PLP.Chemscore.Metal>
0.0000

> <Gold.Chemscore.Hbonds>
donor molecule, donor type, donor heavy atom, donor atom, acceptor molecule, acceptor atom, score
      L1  H    16    41       P1  8029  0.86
      P1  H  6931  6943       L1    27  0.86
      P1  H  6934  6947       L1    28  0.60

> <Gold.PLP.Chemscore.Internal.Correction>
0.5867

> <Gold.Rescore>
     Score         DG    S(hbond)    S(metal)    S(lipo)     H(rot)  DE(clash)    DE(int)     intcor
     13.10     -15.71       2.48        0.00      93.28       3.51       0.02       2.59       ----

> <Gold.Chemscore.Fitness>
13.0992

> <Gold.Chemscore.DG>
-15.7080

> <Gold.Chemscore.ZeroCoef>
-5.4800

> <Gold.Chemscore.Hbond>
2.4816

> <Gold.Chemscore.Metal>
0.0000

> <Gold.Chemscore.Lipo>
93.2846

> <Gold.Chemscore.Internal_Hbond>
0.0000

> <Gold.Chemscore.DEClash>
0.0153

> <Gold.Chemscore.DEInternal>
2.5935

> <Gold.Chemscore.Rot>
3.5059

> <Gold.Chemscore.Internal.Correction>
   9.000000E+99

> <Gold.Chemscore.Hbonds>
donor molecule, donor type, donor heavy atom, donor atom, acceptor molecule, acceptor atom, score
      L1  H    16    41       P1  8029  0.74
      P1  H  6931  6943       L1    27  0.48
      P1  H  6934  6947       L1    28  0.50

> <Gold.Chemscore.Hbond.Weighted>
-8.2887

> <Gold.Chemscore.Metal.Weighted>
-0.0000

> <Gold.Chemscore.Lipo.Weighted>
-10.9143

> <Gold.Chemscore.Internal_Hbond.Weighted>
0.0000

> <Gold.Chemscore.DEClash.Weighted>
0.0153

> <Gold.Chemscore.DEInternal.Weighted>
2.5935

> <Gold.Chemscore.Rot.Weighted>
8.9750

> <Gold.Chemscore.Internal.Correction.Weighted>
   9.000000E+99

> <Gold.Protein.RotatedTorsions>
[ 6907 6896 6895 6894 ] final  145.29 input  -60.11 | X-H torsion
[ 7974 7965 7964 7962 ] final   80.02 input  175.53 | X-H torsion
[ 8008 7997 7996 7995 ] final -170.84 input   59.86 | X-H torsion
[ 10167 10162 10161 10158 ] final -102.88 input  -65.29 | X-H torsion
[ 10718 10713 10712 10709 ] final   99.44 input   66.30 | X-H torsion
[ 10763 10752 10751 10750 ] final -117.34 input  -60.55 | X-H torsion
[ 11005 11000 10999 10996 ] final  -82.20 input  -57.11 | X-H torsion

> <Gold.Protein.ActiveResidues>
 VAL166  LYS551  ARG553  GLY616  TRP617  ASP618  TYR619  PRO620  LYS621  CYS622 
 ASP623  PHE694  ASN695  SER759  ASP760  ASP761  ALA762  ILE779  LEU786  VAL792 
 PHE793  MET794  SER795  GLU796  ALA797  LYS798  CYS799  TRP800  GLU811  SER814 

> <Gold.Protein.RotatedAtoms>
  152.1828  133.4719  159.4966 H   0  0  0  0  0  0  0  0  0  0  0  0  # atno 6907 bound_to 6896
  150.6937  134.1811  159.4258 H   0  0  0  0  0  0  0  0  0  0  0  0  # atno 6908 bound_to 6896
  151.9723  135.0070  160.0604 H   0  0  0  0  0  0  0  0  0  0  0  0  # atno 6909 bound_to 6896
  145.6566  139.2461  143.1946 H   0  0  0  0  0  0  0  0  0  0  0  0  # atno 7974 bound_to 7965
  155.9237  140.1079  157.1187 H   0  0  0  0  0  0  0  0  0  0  0  0  # atno 8008 bound_to 7997
  154.4058  140.1251  156.4778 H   0  0  0  0  0  0  0  0  0  0  0  0  # atno 8009 bound_to 7997
  155.7164  140.3470  155.4999 H   0  0  0  0  0  0  0  0  0  0  0  0  # atno 8010 bound_to 7997
  140.2259  143.3642  152.0929 H   0  0  0  0  0  0  0  0  0  0  0  0  # atno 10167 bound_to 10162
  157.6876  131.0669  150.4948 H   0  0  0  0  0  0  0  0  0  0  0  0  # atno 10718 bound_to 10713
  154.8551  135.4313  154.1964 H   0  0  0  0  0  0  0  0  0  0  0  0  # atno 10763 bound_to 10752
  153.3020  135.6969  153.7200 H   0  0  0  0  0  0  0  0  0  0  0  0  # atno 10764 bound_to 10752
  153.6326  135.3482  155.3021 H   0  0  0  0  0  0  0  0  0  0  0  0  # atno 10765 bound_to 10752
  141.1664  133.7233  156.8536 H   0  0  0  0  0  0  0  0  0  0  0  0  # atno 11005 bound_to 11000
  146.1160  140.7369  142.9480 LP  0  0  0  0  0  0  0  0  0  0  0  0  # atno 17320 bound_to 7965
  144.7103  140.4015  143.7085 LP  0  0  0  0  0  0  0  0  0  0  0  0  # atno 17321 bound_to 7965
  139.5127  144.6921  151.5731 LP  0  0  0  0  0  0  0  0  0  0  0  0  # atno 17342 bound_to 10162
  140.6221  143.9239  150.6534 LP  0  0  0  0  0  0  0  0  0  0  0  0  # atno 17343 bound_to 10162
  156.5273  130.4176  149.6220 LP  0  0  0  0  0  0  0  0  0  0  0  0  # atno 17370 bound_to 10713
  156.3101  130.7224  151.2115 LP  0  0  0  0  0  0  0  0  0  0  0  0  # atno 17371 bound_to 10713
  140.1898  134.8974  157.3047 LP  0  0  0  0  0  0  0  0  0  0  0  0  # atno 17394 bound_to 11000
  140.2303  134.3917  155.7525 LP  0  0  0  0  0  0  0  0  0  0  0  0  # atno 17395 bound_to 11000

$$$$
