AV-unprocessed.smi:37|AV-procd|sdf|309|dock5
  -GOLD-   2262016123D 1   1.00000     0.00000
 Structure written by MMmdl.
 44 45  0  0  0  0  0  0  0  0  1 V2000
  143.0784  140.3820  158.8672 C   0  0  0  0  0  0  0  0  0  0  0  0
  143.8385  139.6907  157.7275 C   0  0  0  0  0  0  0  0  0  0  0  0
  144.6083  138.4625  158.2075 C   0  0  0  0  0  0  0  0  0  0  0  0
  144.5624  138.0971  159.3824 O   0  0  0  0  0  0  0  0  0  0  0  0
  145.3132  137.8775  157.2236 O   0  0  0  0  0  0  0  0  0  0  0  0
  146.0570  136.6961  157.4806 C   0  0  0  0  0  0  0  0  0  0  0  0
  146.9610  136.9253  158.6989 C   0  0  2  0  0  0  0  0  0  0  0  0
  147.9123  137.9331  158.3603 O   0  0  0  0  0  0  0  0  0  0  0  0
  149.2025  137.4516  158.5643 C   0  0  2  0  0  0  0  0  0  0  0  0
  150.1727  138.0928  157.5939 N   0  0  0  0  0  0  0  0  0  0  0  0
  149.6911  138.9858  156.6472 C   0  0  0  0  0  0  0  0  0  0  0  0
  150.4817  139.5917  155.7302 C   0  0  0  0  0  0  0  0  0  0  0  0
  149.9397  140.4524  154.8522 F   0  0  0  0  0  0  0  0  0  0  0  0
  151.9147  139.3188  155.6871 C   0  0  0  0  0  0  0  0  0  0  0  0
  152.7125  139.8190  154.8969 O   0  0  0  0  0  0  0  0  0  0  0  0
  152.3557  138.4035  156.6465 N   0  0  0  0  0  0  0  0  0  0  0  0
  151.5521  137.7705  157.5964 C   0  0  0  0  0  0  0  0  0  0  0  0
  152.0585  136.9706  158.3815 O   0  0  0  0  0  0  0  0  0  0  0  0
  149.1489  135.9175  158.5306 C   0  0  2  0  0  0  0  0  0  0  0  0
  149.2521  135.0949  156.7143 Br  0  0  0  0  0  0  0  0  0  0  0  0
  147.7602  135.6708  159.0990 C   0  0  1  0  0  0  0  0  0  0  0  0
  147.8011  135.5929  160.5201 O   0  0  0  0  0  0  0  0  0  0  0  0
  146.6608  135.5238  161.2307 C   0  0  0  0  0  0  0  0  0  0  0  0
  145.5798  136.0156  160.9025 O   0  0  0  0  0  0  0  0  0  0  0  0
  146.8437  134.7374  162.5303 C   0  0  0  0  0  0  0  0  0  0  0  0
  147.4234  133.3306  162.3209 C   0  0  0  0  0  0  0  0  0  0  0  0
  153.3397  138.1771  156.6500 H   0  0  0  0  0  0  0  0  0  0  0  0
  142.5528  141.2625  158.4978 H   0  0  0  0  0  0  0  0  0  0  0  0
  143.7579  140.7097  159.6548 H   0  0  0  0  0  0  0  0  0  0  0  0
  142.3365  139.7196  159.3147 H   0  0  0  0  0  0  0  0  0  0  0  0
  143.1424  139.3851  156.9462 H   0  0  0  0  0  0  0  0  0  0  0  0
  144.5388  140.3906  157.2709 H   0  0  0  0  0  0  0  0  0  0  0  0
  145.4075  135.8386  157.6590 H   0  0  0  0  0  0  0  0  0  0  0  0
  146.6593  136.4649  156.6018 H   0  0  0  0  0  0  0  0  0  0  0  0
  146.3526  137.2839  159.5305 H   0  0  0  0  0  0  0  0  0  0  0  0
  149.5013  137.8103  159.5512 H   0  0  0  0  0  0  0  0  0  0  0  0
  148.6370  139.2244  156.6402 H   0  0  0  0  0  0  0  0  0  0  0  0
  149.9541  135.4906  159.1295 H   0  0  0  0  0  0  0  0  0  0  0  0
  147.3098  134.7633  158.6936 H   0  0  0  0  0  0  0  0  0  0  0  0
  147.4962  135.3082  163.1915 H   0  0  0  0  0  0  0  0  0  0  0  0
  145.8764  134.6643  163.0280 H   0  0  0  0  0  0  0  0  0  0  0  0
  147.5233  132.8111  163.2740 H   0  0  0  0  0  0  0  0  0  0  0  0
  148.4124  133.3716  161.8629 H   0  0  0  0  0  0  0  0  0  0  0  0
  146.7791  132.7252  161.6824 H   0  0  0  0  0  0  0  0  0  0  0  0
  1  2  1  0  0  0  0
  1 28  1  0  0  0  0
  1 29  1  0  0  0  0
  1 30  1  0  0  0  0
  2  3  1  0  0  0  0
  2 31  1  0  0  0  0
  2 32  1  0  0  0  0
  3  4  2  0  0  0  0
  3  5  1  0  0  0  0
  5  6  1  0  0  0  0
  6  7  1  0  0  0  0
  6 33  1  0  0  0  0
  6 34  1  0  0  0  0
  7 21  1  0  0  0  0
  7  8  1  0  0  0  0
  7 35  1  0  0  0  0
  8  9  1  0  0  0  0
  9 10  1  0  0  0  0
  9 19  1  0  0  0  0
  9 36  1  0  0  0  0
 10 17  1  0  0  0  0
 10 11  1  0  0  0  0
 11 12  2  0  0  0  0
 11 37  1  0  0  0  0
 12 13  1  0  0  0  0
 12 14  1  0  0  0  0
 14 15  2  0  0  0  0
 14 16  1  0  0  0  0
 16 27  1  0  0  0  0
 16 17  1  0  0  0  0
 17 18  2  0  0  0  0
 19 20  1  0  0  0  0
 19 21  1  0  0  0  0
 19 38  1  0  0  0  0
 21 22  1  0  0  0  0
 21 39  1  0  0  0  0
 22 23  1  0  0  0  0
 23 24  2  0  0  0  0
 23 25  1  0  0  0  0
 25 26  1  0  0  0  0
 25 40  1  0  0  0  0
 25 41  1  0  0  0  0
 26 42  1  0  0  0  0
 26 43  1  0  0  0  0
 26 44  1  0  0  0  0
M  END
> <s_m_source_file>
AV-unprocessed.smi

> <i_m_source_file_index>
37

> <i_lp_mmshare_version>
43012

> <i_f3d_flags>
0

> <s_epik_input>
W0NIM11bQ0gyXUMoPU8pT1tDSDJdW0NAQEhdMU9bQ0BASF0objJbY0hdYyhGKWMoPU8pW25IXWMyPU8pW0NAQEhdKEJyKVtDQEhdMU9DKD1PKVtDSDJdW0NIM10=

> <s_epik_cmdline>
J2VwaWtfcHl0aG9uJywgJy1waCcsICc3LjAnLCAnLXRuJywgJzgnLCAnLW1hJywgJzIwMCcsICctbWV0YWxfYmluZGluZycsICctaW1hZScsICc8aW5maWxlLm1hZT4nLCAnLW9tYWUnLCAnPG91dGZpbGUubWFlPic=

> <r_lp_tautomer_probability>
0.999537

> <r_epik_Ionization_Penalty>
0.104106

> <r_epik_Ionization_Penalty_Charging>
0.104106

> <r_epik_Ionization_Penalty_Neutral>
3.94675e-16

> <r_epik_State_Penalty>
0.0940182

> <r_epik_Charging_Adjusted_Penalty>
0.198124

> <i_epik_Tot_Q>
0

> <i_epik_Tot_abs_Q>
0

> <r_epik_Metal_State_Penalty>
3.05314

> <b_epik_Metal_Only>
0

> <s_epik_Chemistry_Notes>
This compound has an ester and may undergo hydrolysis at high or low pH. This compound contains an acetal/aminal-like group ( X-CH(R)-Y where X, Y are N, S, or O) that may be acid/base labile, releasing an aldehyde.

> <s_lp_Force_Field>
OPLS_2005

> <r_lp_Energy>
23.3394

> <b_lp_Chiralities_Consistent>
1

> <s_lp_Variant>
AV-unprocessed.smi:37-7

> <Gold.Version>
5.8.1

> <Gold.Id.Protein>
6NUR|6NUR_protein|mol2

> <Gold.PLP.Fitness>
33.3155

> <Gold.PLP.PLP>
-28.8866

> <Gold.PLP.part.hbond>
-4.5212

> <Gold.PLP.part.metal>
0.0000

> <Gold.PLP.part.buried>
-3.5073

> <Gold.PLP.part.nonpolar>
-21.5894

> <Gold.PLP.part.repulsive>
0.1563

> <Gold.PLP.ligand.clash>
0.0000

> <Gold.PLP.ligand.torsion>
0.4588

> <Gold.PLP.Chemscore.Hbond>
1.7335

> <Gold.PLP.Chemscore.CHOScore>
0.0000

> <Gold.PLP.Chemscore.Metal>
0.0000

> <Gold.Chemscore.Hbonds>
donor molecule, donor type, donor heavy atom, donor atom, acceptor molecule, acceptor atom, score
      P1  H  7989  7998       L1    15  0.50
      P1  H  7997  8009       L1    15  0.99

> <Gold.PLP.Chemscore.Internal.Correction>
0.1459

> <Gold.Rescore>
     Score         DG    S(hbond)    S(metal)    S(lipo)     H(rot)  DE(clash)    DE(int)     intcor
      3.69      -5.49       1.24        0.00      37.48       3.33       0.00       1.79       ----

> <Gold.Chemscore.Fitness>
3.6922

> <Gold.Chemscore.DG>
-5.4862

> <Gold.Chemscore.ZeroCoef>
-5.4800

> <Gold.Chemscore.Hbond>
1.2414

> <Gold.Chemscore.Metal>
0.0000

> <Gold.Chemscore.Lipo>
37.4826

> <Gold.Chemscore.Internal_Hbond>
0.0000

> <Gold.Chemscore.DEClash>
0.0021

> <Gold.Chemscore.DEInternal>
1.7919

> <Gold.Chemscore.Rot>
3.3303

> <Gold.Chemscore.Internal.Correction>
   9.000000E+99

> <Gold.Chemscore.Hbonds>
donor molecule, donor type, donor heavy atom, donor atom, acceptor molecule, acceptor atom, score
      P1  H  7989  7998       L1    15  0.33
      P1  H  7997  8009       L1    15  0.69

> <Gold.Chemscore.Hbond.Weighted>
-4.1463

> <Gold.Chemscore.Metal.Weighted>
-0.0000

> <Gold.Chemscore.Lipo.Weighted>
-4.3855

> <Gold.Chemscore.Internal_Hbond.Weighted>
0.0000

> <Gold.Chemscore.DEClash.Weighted>
0.0021

> <Gold.Chemscore.DEInternal.Weighted>
1.7919

> <Gold.Chemscore.Rot.Weighted>
8.5256

> <Gold.Chemscore.Internal.Correction.Weighted>
   9.000000E+99

> <Gold.Protein.RotatedTorsions>
[ 6907 6896 6895 6894 ] final  -63.98 input  -60.11 | X-H torsion
[ 7974 7965 7964 7962 ] final  -12.37 input  175.53 | X-H torsion
[ 8008 7997 7996 7995 ] final -133.14 input   59.86 | X-H torsion
[ 10167 10162 10161 10158 ] final   41.80 input  -65.29 | X-H torsion
[ 10718 10713 10712 10709 ] final -178.30 input   66.30 | X-H torsion
[ 10763 10752 10751 10750 ] final    5.96 input  -60.55 | X-H torsion
[ 11005 11000 10999 10996 ] final    8.59 input  -57.11 | X-H torsion

> <Gold.Protein.ActiveResidues>
 VAL166  LYS551  ARG553  GLY616  TRP617  ASP618  TYR619  PRO620  LYS621  CYS622 
 ASP623  PHE694  ASN695  SER759  ASP760  ASP761  ALA762  ILE779  LEU786  VAL792 
 PHE793  MET794  SER795  GLU796  ALA797  LYS798  CYS799  TRP800  GLU811  SER814 

> <Gold.Protein.RotatedAtoms>
  150.7614  134.6361  159.6211 H   0  0  0  0  0  0  0  0  0  0  0  0  # atno 6907 bound_to 6896
  152.3624  134.6850  160.0212 H   0  0  0  0  0  0  0  0  0  0  0  0  # atno 6908 bound_to 6896
  151.7236  133.3279  159.3358 H   0  0  0  0  0  0  0  0  0  0  0  0  # atno 6909 bound_to 6896
  146.2154  140.3047  142.8378 H   0  0  0  0  0  0  0  0  0  0  0  0  # atno 7974 bound_to 7965
  155.3405  140.0472  157.3045 H   0  0  0  0  0  0  0  0  0  0  0  0  # atno 8008 bound_to 7997
  154.5280  140.2247  155.8821 H   0  0  0  0  0  0  0  0  0  0  0  0  # atno 8009 bound_to 7997
  156.1759  140.3085  155.9064 H   0  0  0  0  0  0  0  0  0  0  0  0  # atno 8010 bound_to 7997
  140.3607  144.2232  150.6138 H   0  0  0  0  0  0  0  0  0  0  0  0  # atno 10167 bound_to 10162
  156.8423  130.9690  151.3099 H   0  0  0  0  0  0  0  0  0  0  0  0  # atno 10718 bound_to 10713
  153.2533  135.6916  153.7656 H   0  0  0  0  0  0  0  0  0  0  0  0  # atno 10763 bound_to 10752
  153.6743  135.3339  155.3162 H   0  0  0  0  0  0  0  0  0  0  0  0  # atno 10764 bound_to 10752
  154.8402  135.4507  154.1497 H   0  0  0  0  0  0  0  0  0  0  0  0  # atno 10765 bound_to 10752
  140.5353  134.0427  155.7886 H   0  0  0  0  0  0  0  0  0  0  0  0  # atno 11005 bound_to 11000
  144.9031  140.7667  143.5854 LP  0  0  0  0  0  0  0  0  0  0  0  0  # atno 17320 bound_to 7965
  145.2974  139.1862  143.4708 LP  0  0  0  0  0  0  0  0  0  0  0  0  # atno 17321 bound_to 7965
  140.5130  143.2285  151.8506 LP  0  0  0  0  0  0  0  0  0  0  0  0  # atno 17342 bound_to 10162
  139.4814  144.4927  151.9163 LP  0  0  0  0  0  0  0  0  0  0  0  0  # atno 17343 bound_to 10162
  157.6349  130.8759  149.9341 LP  0  0  0  0  0  0  0  0  0  0  0  0  # atno 17370 bound_to 10713
  156.0874  130.3666  150.0461 LP  0  0  0  0  0  0  0  0  0  0  0  0  # atno 17371 bound_to 10713
  141.1258  133.9385  157.2638 LP  0  0  0  0  0  0  0  0  0  0  0  0  # atno 17394 bound_to 11000
  139.9532  135.0171  156.9054 LP  0  0  0  0  0  0  0  0  0  0  0  0  # atno 17395 bound_to 11000

$$$$
