AV-unprocessed.smi:1464|AV-procd|sdf|5937|dock4
  -GOLD-   22720 6 23D 1   1.00000     0.00000
 Structure written by MMmdl.
 40 41  0  0  0  0  0  0  0  0  2 V2000
  153.0242  142.8604  162.1279 C   0  0  0  0  0  0  0  0  0  0  0  0
  152.8433  143.4291  160.7083 C   0  0  2  0  0  0  0  0  0  0  0  0
  152.0447  144.7463  160.7804 C   0  0  0  0  0  0  0  0  0  0  0  0
  151.8630  145.3795  159.3970 C   0  0  0  0  0  0  0  0  0  0  0  0
  151.1691  144.4012  158.4451 C   0  0  0  0  0  0  0  0  0  0  0  0
  151.9494  143.0776  158.3347 C   0  0  2  0  0  0  0  0  0  0  0  0
  151.2275  142.1672  157.4471 N   0  0  0  0  0  0  0  0  0  0  0  0
  150.0080  141.6567  157.6773 C   0  0  0  0  0  0  0  0  0  0  0  0
  149.3558  141.9052  158.6929 O   0  0  0  0  0  0  0  0  0  0  0  0
  149.4618  140.7283  156.5807 C   0  0  0  0  0  0  0  0  0  0  0  0
  148.3091  141.2713  155.8469 N   0  0  0  0  0  0  0  0  0  0  0  0
  147.1616  141.5793  156.6963 N   0  5  0  0  0  0  0  0  0  0  0  0
  146.0284  142.0692  156.1270 C   0  0  0  0  0  0  0  0  0  0  0  0
  145.0187  142.3360  156.7746 O   0  0  0  0  0  0  0  0  0  0  0  0
  146.0236  142.2868  154.6899 C   0  0  0  0  0  0  0  0  0  0  0  0
  147.1052  142.0145  153.9335 C   0  0  0  0  0  0  0  0  0  0  0  0
  148.3391  141.4837  154.5001 C   0  0  0  0  0  0  0  0  0  0  0  0
  149.3338  141.2412  153.8161 O   0  0  0  0  0  0  0  0  0  0  0  0
  152.1789  142.4233  159.7247 C   0  0  1  0  0  0  0  0  0  0  0  0
  152.9937  141.1175  159.5931 C   0  0  0  0  0  0  0  0  0  0  0  0
  152.0758  142.5160  162.5412 H   0  0  0  0  0  0  0  0  0  0  0  0
  153.4232  143.6170  162.8040 H   0  0  0  0  0  0  0  0  0  0  0  0
  153.7239  142.0257  162.1470 H   0  0  0  0  0  0  0  0  0  0  0  0
  153.8363  143.6690  160.3244 H   0  0  0  0  0  0  0  0  0  0  0  0
  151.0664  144.5617  161.2264 H   0  0  0  0  0  0  0  0  0  0  0  0
  152.5518  145.4557  161.4354 H   0  0  0  0  0  0  0  0  0  0  0  0
  151.2781  146.2958  159.4799 H   0  0  0  0  0  0  0  0  0  0  0  0
  152.8337  145.6657  158.9899 H   0  0  0  0  0  0  0  0  0  0  0  0
  150.1562  144.2063  158.8006 H   0  0  0  0  0  0  0  0  0  0  0  0
  151.0680  144.8619  157.4614 H   0  0  0  0  0  0  0  0  0  0  0  0
  152.9299  143.2916  157.9040 H   0  0  0  0  0  0  0  0  0  0  0  0
  151.6887  141.9107  156.5864 H   0  0  0  0  0  0  0  0  0  0  0  0
  150.2759  140.5032  155.8890 H   0  0  0  0  0  0  0  0  0  0  0  0
  149.1923  139.7720  157.0323 H   0  0  0  0  0  0  0  0  0  0  0  0
  145.1338  142.6774  154.2186 H   0  0  0  0  0  0  0  0  0  0  0  0
  147.0567  142.1922  152.8694 H   0  0  0  0  0  0  0  0  0  0  0  0
  151.2017  142.1584  160.1321 H   0  0  0  0  0  0  0  0  0  0  0  0
  154.0004  141.3168  159.2245 H   0  0  0  0  0  0  0  0  0  0  0  0
  152.5260  140.4141  158.9045 H   0  0  0  0  0  0  0  0  0  0  0  0
  153.0824  140.5943  160.5441 H   0  0  0  0  0  0  0  0  0  0  0  0
  1  2  1  0  0  0  0
  1 21  1  0  0  0  0
  1 22  1  0  0  0  0
  1 23  1  0  0  0  0
  2 19  1  0  0  0  0
  2  3  1  0  0  0  0
  2 24  1  0  0  0  0
  3  4  1  0  0  0  0
  3 25  1  0  0  0  0
  3 26  1  0  0  0  0
  4  5  1  0  0  0  0
  4 27  1  0  0  0  0
  4 28  1  0  0  0  0
  5  6  1  0  0  0  0
  5 29  1  0  0  0  0
  5 30  1  0  0  0  0
  6  7  1  0  0  0  0
  6 19  1  0  0  0  0
  6 31  1  0  0  0  0
  7  8  1  0  0  0  0
  7 32  1  0  0  0  0
  8  9  2  0  0  0  0
  8 10  1  0  0  0  0
 10 33  1  0  0  0  0
 10 34  1  0  0  0  0
 10 11  1  0  0  0  0
 11 12  1  0  0  0  0
 11 17  1  0  0  0  0
 12 13  1  0  0  0  0
 13 14  2  0  0  0  0
 13 15  1  0  0  0  0
 15 35  1  0  0  0  0
 15 16  2  0  0  0  0
 16 36  1  0  0  0  0
 16 17  1  0  0  0  0
 17 18  2  0  0  0  0
 19 20  1  0  0  0  0
 19 37  1  0  0  0  0
 20 38  1  0  0  0  0
 20 39  1  0  0  0  0
 20 40  1  0  0  0  0
M  CHG  1  12  -1
M  END
> <s_m_source_file>
AV-unprocessed.smi

> <i_m_source_file_index>
1464

> <i_lp_mmshare_version>
43012

> <i_f3d_flags>
0

> <s_epik_input>
W0NIM11bQ0BASF0xW0NIMl1bQ0gyXVtDSDJdW0NASF0oW0NASF0xW0NIM10pW05IXUMoPU8pW0NIMl1uMltuSF1jKD1PKVtjSF1bY0hdYzI9Tw==

> <s_epik_cmdline>
J2VwaWtfcHl0aG9uJywgJy1waCcsICc3LjAnLCAnLXRuJywgJzgnLCAnLW1hJywgJzIwMCcsICctbWV0YWxfYmluZGluZycsICctaW1hZScsICc8aW5maWxlLm1hZT4nLCAnLW9tYWUnLCAnPG91dGZpbGUubWFlPic=

> <r_lp_tautomer_probability>
1

> <r_epik_Ionization_Penalty>
0.101366

> <r_epik_Ionization_Penalty_Charging>
0.101366

> <r_epik_Ionization_Penalty_Neutral>
1.90469e-08

> <r_epik_State_Penalty>
0.035861

> <r_epik_Charging_Adjusted_Penalty>
0.137227

> <i_epik_Tot_Q>
-1

> <i_epik_Tot_abs_Q>
1

> <r_epik_Metal_State_Penalty>
0.035861

> <b_epik_Metal_Only>
0

> <s_lp_Force_Field>
OPLS_2005

> <r_lp_Energy>
28.4396

> <b_lp_Chiralities_Consistent>
1

> <s_lp_Variant>
AV-unprocessed.smi:1464-3

> <Gold.Version>
5.8.1

> <Gold.Id.Protein>
6NUR|6NUR_protein|mol2

> <Gold.PLP.Fitness>
48.7439

> <Gold.PLP.PLP>
-45.3543

> <Gold.PLP.part.hbond>
-2.5640

> <Gold.PLP.part.metal>
0.0000

> <Gold.PLP.part.buried>
-7.5591

> <Gold.PLP.part.nonpolar>
-37.3728

> <Gold.PLP.part.repulsive>
2.3980

> <Gold.PLP.ligand.clash>
0.0000

> <Gold.PLP.ligand.torsion>
0.0683

> <Gold.PLP.Chemscore.Hbond>
1.1724

> <Gold.PLP.Chemscore.CHOScore>
0.0000

> <Gold.PLP.Chemscore.Metal>
0.0000

> <Gold.Chemscore.Hbonds>
donor molecule, donor type, donor heavy atom, donor atom, acceptor molecule, acceptor atom, score
      P1  H  7989  7998       L1    18  0.08
      P1  H  8011  8017       L1    18  0.86

> <Gold.PLP.Chemscore.Internal.Correction>
0.0090

> <Gold.Rescore>
     Score         DG    S(hbond)    S(metal)    S(lipo)     H(rot)  DE(clash)    DE(int)     intcor
     15.14     -16.87       0.93        0.00     106.79       1.64       0.08       1.65       ----

> <Gold.Chemscore.Fitness>
15.1416

> <Gold.Chemscore.DG>
-16.8707

> <Gold.Chemscore.ZeroCoef>
-5.4800

> <Gold.Chemscore.Hbond>
0.9294

> <Gold.Chemscore.Metal>
0.0000

> <Gold.Chemscore.Lipo>
106.7915

> <Gold.Chemscore.Internal_Hbond>
0.0000

> <Gold.Chemscore.DEClash>
0.0785

> <Gold.Chemscore.DEInternal>
1.6507

> <Gold.Chemscore.Rot>
1.6438

> <Gold.Chemscore.Internal.Correction>
   9.000000E+99

> <Gold.Chemscore.Hbonds>
donor molecule, donor type, donor heavy atom, donor atom, acceptor molecule, acceptor atom, score
      P1  H  7989  7998       L1    18  0.08
      P1  H  8011  8017       L1    18  0.82

> <Gold.Chemscore.Hbond.Weighted>
-3.1041

> <Gold.Chemscore.Metal.Weighted>
-0.0000

> <Gold.Chemscore.Lipo.Weighted>
-12.4946

> <Gold.Chemscore.Internal_Hbond.Weighted>
0.0000

> <Gold.Chemscore.DEClash.Weighted>
0.0785

> <Gold.Chemscore.DEInternal.Weighted>
1.6507

> <Gold.Chemscore.Rot.Weighted>
4.2080

> <Gold.Chemscore.Internal.Correction.Weighted>
   9.000000E+99

> <Gold.Protein.RotatedTorsions>
[ 6907 6896 6895 6894 ] final -165.32 input  -60.11 | X-H torsion
[ 7974 7965 7964 7962 ] final -133.32 input  175.53 | X-H torsion
[ 8008 7997 7996 7995 ] final   56.69 input   59.86 | X-H torsion
[ 10167 10162 10161 10158 ] final   58.31 input  -65.29 | X-H torsion
[ 10718 10713 10712 10709 ] final  -94.56 input   66.30 | X-H torsion
[ 10763 10752 10751 10750 ] final   19.18 input  -60.55 | X-H torsion
[ 11005 11000 10999 10996 ] final -135.91 input  -57.11 | X-H torsion

> <Gold.Protein.ActiveResidues>
 VAL166  LYS551  ARG553  GLY616  TRP617  ASP618  TYR619  PRO620  LYS621  CYS622 
 ASP623  PHE694  ASN695  SER759  ASP760  ASP761  ALA762  ILE779  LEU786  VAL792 
 PHE793  MET794  SER795  GLU796  ALA797  LYS798  CYS799  TRP800  GLU811  SER814 

> <Gold.Protein.RotatedAtoms>
  151.4257  133.3685  159.2761 H   0  0  0  0  0  0  0  0  0  0  0  0  # atno 6907 bound_to 6896
  150.9261  134.8679  159.7531 H   0  0  0  0  0  0  0  0  0  0  0  0  # atno 6908 bound_to 6896
  152.5005  134.4199  159.9529 H   0  0  0  0  0  0  0  0  0  0  0  0  # atno 6909 bound_to 6896
  144.9204  140.7007  143.4969 H   0  0  0  0  0  0  0  0  0  0  0  0  # atno 7974 bound_to 7965
  155.5216  140.3480  155.4408 H   0  0  0  0  0  0  0  0  0  0  0  0  # atno 8008 bound_to 7997
  156.0780  140.1379  156.9774 H   0  0  0  0  0  0  0  0  0  0  0  0  # atno 8009 bound_to 7997
  154.4564  140.0952  156.6745 H   0  0  0  0  0  0  0  0  0  0  0  0  # atno 8010 bound_to 7997
  140.1886  144.4108  150.6581 H   0  0  0  0  0  0  0  0  0  0  0  0  # atno 10167 bound_to 10162
  156.0029  130.5073  150.5945 H   0  0  0  0  0  0  0  0  0  0  0  0  # atno 10718 bound_to 10713
  153.1184  135.6713  153.9378 H   0  0  0  0  0  0  0  0  0  0  0  0  # atno 10763 bound_to 10752
  153.8900  135.3048  155.3448 H   0  0  0  0  0  0  0  0  0  0  0  0  # atno 10764 bound_to 10752
  154.7598  135.4993  153.9522 H   0  0  0  0  0  0  0  0  0  0  0  0  # atno 10765 bound_to 10752
  140.8854  134.1879  157.4563 H   0  0  0  0  0  0  0  0  0  0  0  0  # atno 11005 bound_to 11000
  145.3306  139.1761  143.4539 LP  0  0  0  0  0  0  0  0  0  0  0  0  # atno 17320 bound_to 7965
  146.3202  140.3335  142.8642 LP  0  0  0  0  0  0  0  0  0  0  0  0  # atno 17321 bound_to 7965
  140.6471  143.2216  151.6161 LP  0  0  0  0  0  0  0  0  0  0  0  0  # atno 17342 bound_to 10162
  139.5265  144.3043  152.1047 LP  0  0  0  0  0  0  0  0  0  0  0  0  # atno 17343 bound_to 10162
  157.3804  131.0780  151.1481 LP  0  0  0  0  0  0  0  0  0  0  0  0  # atno 17370 bound_to 10713
  157.2206  130.6479  149.5809 LP  0  0  0  0  0  0  0  0  0  0  0  0  # atno 17371 bound_to 10713
  139.8724  134.9835  156.5202 LP  0  0  0  0  0  0  0  0  0  0  0  0  # atno 17394 bound_to 11000
  140.8411  133.8204  155.9076 LP  0  0  0  0  0  0  0  0  0  0  0  0  # atno 17395 bound_to 11000

$$$$
