AV-unprocessed.smi:1385|AV-procd|sdf|5635|dock8
  -GOLD-   22720 5253D 1   1.00000     0.00000
 Structure written by MMmdl.
 38 39  0  0  0  0  0  0  0  0  3 V2000
  154.0621  140.9947  160.4598 C   0  0  0  0  0  0  0  0  0  0  0  0
  153.0492  141.0424  159.3675 C   0  0  0  0  0  0  0  0  0  0  0  0
  153.1236  140.2714  158.2757 N   0  0  0  0  0  0  0  0  0  0  0  0
  152.0691  140.4943  157.4013 N   0  0  0  0  0  0  0  0  0  0  0  0
  151.2266  141.4285  157.8628 C   0  0  0  0  0  0  0  0  0  0  0  0
  150.0641  141.8557  157.1684 N   0  0  0  0  0  0  0  0  0  0  0  0
  149.6578  141.5117  155.9336 C   0  0  0  0  0  0  0  0  0  0  0  0
  150.2421  140.7315  155.1816 O   0  0  0  0  0  0  0  0  0  0  0  0
  148.5155  142.1348  155.6086 N   0  0  0  0  0  0  0  0  0  0  0  0
  147.8016  141.9853  154.3407 C   0  0  2  0  0  0  0  0  0  0  0  0
  146.3503  142.4945  154.4382 C   0  0  0  0  0  0  0  0  0  0  0  0
  145.4748  141.5776  155.3108 C   0  0  0  0  0  0  0  0  0  0  0  0
  145.5070  140.1735  154.8183 N   0  3  2  0  0  0  0  0  0  0  0  0
  144.5845  139.2746  155.5561 C   0  0  0  0  0  0  0  0  0  0  0  0
  144.6011  137.8707  154.9416 C   0  0  0  0  0  0  0  0  0  0  0  0
  144.1623  137.8615  153.6685 N   0  5  0  0  0  0  0  0  0  0  0  0
  145.0019  136.9197  155.6099 O   0  0  0  0  0  0  0  0  0  0  0  0
  146.8923  139.6398  154.7738 C   0  0  0  0  0  0  0  0  0  0  0  0
  147.8034  140.5141  153.8926 C   0  0  0  0  0  0  0  0  0  0  0  0
  151.6563  142.1161  159.4195 S   0  0  0  0  0  0  0  0  0  0  0  0
  155.0057  140.5920  160.0900 H   0  0  0  0  0  0  0  0  0  0  0  0
  153.7040  140.3609  161.2710 H   0  0  0  0  0  0  0  0  0  0  0  0
  154.2408  141.9971  160.8496 H   0  0  0  0  0  0  0  0  0  0  0  0
  149.4778  142.5071  157.6689 H   0  0  0  0  0  0  0  0  0  0  0  0
  148.1057  142.7559  156.2908 H   0  0  0  0  0  0  0  0  0  0  0  0
  148.3299  142.5691  153.5846 H   0  0  0  0  0  0  0  0  0  0  0  0
  146.3248  143.5141  154.8248 H   0  0  0  0  0  0  0  0  0  0  0  0
  145.9218  142.5434  153.4362 H   0  0  0  0  0  0  0  0  0  0  0  0
  145.8107  141.6098  156.3483 H   0  0  0  0  0  0  0  0  0  0  0  0
  144.4526  141.9563  155.3026 H   0  0  0  0  0  0  0  0  0  0  0  0
  144.9158  139.1681  156.5898 H   0  0  0  0  0  0  0  0  0  0  0  0
  143.5825  139.7077  155.5955 H   0  0  0  0  0  0  0  0  0  0  0  0
  144.3070  138.6984  153.0909 H   0  0  0  0  0  0  0  0  0  0  0  0
  147.2902  139.5756  155.7878 H   0  0  0  0  0  0  0  0  0  0  0  0
  146.8813  138.6248  154.3750 H   0  0  0  0  0  0  0  0  0  0  0  0
  147.4593  140.4555  152.8591 H   0  0  0  0  0  0  0  0  0  0  0  0
  148.8200  140.1187  153.8953 H   0  0  0  0  0  0  0  0  0  0  0  0
  145.1739  140.1879  153.8647 H   0  0  0  0  0  0  0  0  0  0  0  0
  1  2  1  0  0  0  0
  1 21  1  0  0  0  0
  1 22  1  0  0  0  0
  1 23  1  0  0  0  0
  2 20  1  0  0  0  0
  2  3  2  0  0  0  0
  3  4  1  0  0  0  0
  4  5  2  0  0  0  0
  5  6  1  0  0  0  0
  5 20  1  0  0  0  0
  6  7  1  0  0  0  0
  6 24  1  0  0  0  0
  7  8  2  0  0  0  0
  7  9  1  0  0  0  0
  9 10  1  0  0  0  0
  9 25  1  0  0  0  0
 10 19  1  0  0  0  0
 10 11  1  0  0  0  0
 10 26  1  0  0  0  0
 11 12  1  0  0  0  0
 11 27  1  0  0  0  0
 11 28  1  0  0  0  0
 12 13  1  0  0  0  0
 12 29  1  0  0  0  0
 12 30  1  0  0  0  0
 13 14  1  0  0  0  0
 13 18  1  0  0  0  0
 13 38  1  0  0  0  0
 14 15  1  0  0  0  0
 14 31  1  0  0  0  0
 14 32  1  0  0  0  0
 15 16  1  0  0  0  0
 15 17  2  0  0  0  0
 16 33  1  0  0  0  0
 18 19  1  0  0  0  0
 18 34  1  0  0  0  0
 18 35  1  0  0  0  0
 19 36  1  0  0  0  0
 19 37  1  0  0  0  0
M  CHG  1  13   1
M  CHG  1  16  -1
M  END
> <s_m_source_file>
AV-unprocessed.smi

> <i_m_source_file_index>
1385

> <i_lp_mmshare_version>
43012

> <i_f3d_flags>
0

> <s_epik_input>
W0NIM11jMW5uYyhzMSlbTkhdQyg9TylbTkhdW0NIXTJbQ0gyXVtDSDJdTihbQ0gyXVtDSDJdMilbQ0gyXUMoPU8pW05IMl0=

> <s_epik_cmdline>
J2VwaWtfcHl0aG9uJywgJy1waCcsICc3LjAnLCAnLXRuJywgJzgnLCAnLW1hJywgJzIwMCcsICctbWV0YWxfYmluZGluZycsICctaW1hZScsICc8aW5maWxlLm1hZT4nLCAnLW9tYWUnLCAnPG91dGZpbGUubWFlPic=

> <r_lp_tautomer_probability>
1

> <r_epik_Ionization_Penalty>
5.73549

> <r_epik_Ionization_Penalty_Charging>
5.73152

> <r_epik_Ionization_Penalty_Neutral>
0.00396448

> <r_epik_State_Penalty>
6.57436

> <r_epik_Charging_Adjusted_Penalty>
12.3059

> <i_epik_Tot_Q>
0

> <i_epik_Tot_abs_Q>
2

> <r_epik_Metal_State_Penalty>
2.87628

> <b_epik_Metal_Only>
1

> <s_lp_Force_Field>
OPLS_2005

> <r_lp_Energy>
6.46457

> <b_lp_Chiralities_Consistent>
1

> <s_lp_Variant>
AV-unprocessed.smi:1385-8

> <Gold.Version>
5.8.1

> <Gold.Id.Protein>
6NUR|6NUR_protein|mol2

> <Gold.PLP.Fitness>
45.7326

> <Gold.PLP.PLP>
-29.4998

> <Gold.PLP.part.hbond>
-5.2797

> <Gold.PLP.part.metal>
0.0000

> <Gold.PLP.part.buried>
-2.7951

> <Gold.PLP.part.nonpolar>
-19.8939

> <Gold.PLP.part.repulsive>
0.3269

> <Gold.PLP.ligand.clash>
0.0000

> <Gold.PLP.ligand.torsion>
0.2668

> <Gold.PLP.Chemscore.Hbond>
5.5808

> <Gold.PLP.Chemscore.CHOScore>
0.0000

> <Gold.PLP.Chemscore.Metal>
0.0000

> <Gold.Chemscore.Hbonds>
donor molecule, donor type, donor heavy atom, donor atom, acceptor molecule, acceptor atom, score
      L1  H     9    25       P1  8028  0.04
      L1  H    13    38       P1 10175  1.85
      L1  H    16    33       P1 10175  0.98
      P1  H  7989  7998       L1     8  0.54
      P1  H  7997  8009       L1     3  0.93

> <Gold.PLP.Chemscore.Internal.Correction>
0.0242

> <Gold.Rescore>
     Score         DG    S(hbond)    S(metal)    S(lipo)     H(rot)  DE(clash)    DE(int)     intcor
     16.81     -20.82       4.12        0.00      58.02       2.04       0.83       3.19       ----

> <Gold.Chemscore.Fitness>
16.8053

> <Gold.Chemscore.DG>
-20.8221

> <Gold.Chemscore.ZeroCoef>
-5.4800

> <Gold.Chemscore.Hbond>
4.1222

> <Gold.Chemscore.Metal>
0.0000

> <Gold.Chemscore.Lipo>
58.0214

> <Gold.Chemscore.Internal_Hbond>
0.0000

> <Gold.Chemscore.DEClash>
0.8295

> <Gold.Chemscore.DEInternal>
3.1873

> <Gold.Chemscore.Rot>
2.0369

> <Gold.Chemscore.Internal.Correction>
   9.000000E+99

> <Gold.Chemscore.Hbonds>
donor molecule, donor type, donor heavy atom, donor atom, acceptor molecule, acceptor atom, score
      L1  H     9    25       P1  8028  0.04
      L1  H    13    38       P1 10175  0.84
      L1  H    16    33       P1 10175  0.92
      P1  H  7989  7998       L1     8  0.53
      P1  H  7997  8009       L1     3  0.23

> <Gold.Chemscore.Hbond.Weighted>
-13.7680

> <Gold.Chemscore.Metal.Weighted>
-0.0000

> <Gold.Chemscore.Lipo.Weighted>
-6.7885

> <Gold.Chemscore.Internal_Hbond.Weighted>
0.0000

> <Gold.Chemscore.DEClash.Weighted>
0.8295

> <Gold.Chemscore.DEInternal.Weighted>
3.1873

> <Gold.Chemscore.Rot.Weighted>
5.2144

> <Gold.Chemscore.Internal.Correction.Weighted>
   9.000000E+99

> <Gold.Protein.RotatedTorsions>
[ 6907 6896 6895 6894 ] final  -18.14 input  -60.11 | X-H torsion
[ 7974 7965 7964 7962 ] final   -9.32 input  175.53 | X-H torsion
[ 8008 7997 7996 7995 ] final  155.79 input   59.86 | X-H torsion
[ 10167 10162 10161 10158 ] final -134.86 input  -65.29 | X-H torsion
[ 10718 10713 10712 10709 ] final   52.66 input   66.30 | X-H torsion
[ 10763 10752 10751 10750 ] final  127.23 input  -60.55 | X-H torsion
[ 11005 11000 10999 10996 ] final   45.26 input  -57.11 | X-H torsion

> <Gold.Protein.ActiveResidues>
 VAL166  LYS551  ARG553  GLY616  TRP617  ASP618  TYR619  PRO620  LYS621  CYS622 
 ASP623  PHE694  ASN695  SER759  ASP760  ASP761  ALA762  ILE779  LEU786  VAL792 
 PHE793  MET794  SER795  GLU796  ALA797  LYS798  CYS799  TRP800  GLU811  SER814 

> <Gold.Protein.RotatedAtoms>
  151.2826  135.0718  159.9174 H   0  0  0  0  0  0  0  0  0  0  0  0  # atno 6907 bound_to 6896
  152.5331  134.0014  159.7907 H   0  0  0  0  0  0  0  0  0  0  0  0  # atno 6908 bound_to 6896
  151.0271  133.5773  159.2695 H   0  0  0  0  0  0  0  0  0  0  0  0  # atno 6909 bound_to 6896
  146.2255  140.2599  142.8351 H   0  0  0  0  0  0  0  0  0  0  0  0  # atno 7974 bound_to 7965
  156.2458  140.1930  156.6856 H   0  0  0  0  0  0  0  0  0  0  0  0  # atno 8008 bound_to 7997
  154.6289  140.0598  156.9734 H   0  0  0  0  0  0  0  0  0  0  0  0  # atno 8009 bound_to 7997
  155.1742  140.3271  155.4389 H   0  0  0  0  0  0  0  0  0  0  0  0  # atno 8010 bound_to 7997
  139.8837  143.6807  152.2623 H   0  0  0  0  0  0  0  0  0  0  0  0  # atno 10167 bound_to 10162
  157.5095  130.8491  149.8417 H   0  0  0  0  0  0  0  0  0  0  0  0  # atno 10718 bound_to 10713
  153.7061  135.3275  155.3236 H   0  0  0  0  0  0  0  0  0  0  0  0  # atno 10763 bound_to 10752
  154.8399  135.4466  154.1361 H   0  0  0  0  0  0  0  0  0  0  0  0  # atno 10764 bound_to 10752
  153.2442  135.6974  153.7828 H   0  0  0  0  0  0  0  0  0  0  0  0  # atno 10765 bound_to 10752
  140.1476  134.4502  155.8404 H   0  0  0  0  0  0  0  0  0  0  0  0  # atno 11005 bound_to 11000
  144.9347  140.8014  143.5667 LP  0  0  0  0  0  0  0  0  0  0  0  0  # atno 17320 bound_to 7965
  145.2545  139.2017  143.4924 LP  0  0  0  0  0  0  0  0  0  0  0  0  # atno 17321 bound_to 7965
  139.7172  144.7609  151.1014 LP  0  0  0  0  0  0  0  0  0  0  0  0  # atno 17342 bound_to 10162
  140.7740  143.5254  150.9486 LP  0  0  0  0  0  0  0  0  0  0  0  0  # atno 17343 bound_to 10162
  156.0280  130.3773  150.1768 LP  0  0  0  0  0  0  0  0  0  0  0  0  # atno 17370 bound_to 10713
  156.9958  130.9907  151.3403 LP  0  0  0  0  0  0  0  0  0  0  0  0  # atno 17371 bound_to 10713
  141.2195  133.6859  156.7363 LP  0  0  0  0  0  0  0  0  0  0  0  0  # atno 17394 bound_to 11000
  140.2644  134.8441  157.3789 LP  0  0  0  0  0  0  0  0  0  0  0  0  # atno 17395 bound_to 11000

$$$$
