AV-unprocessed.smi:880|AV-procd|sdf|4034|dock9
  -GOLD-   22720 1523D 1   1.00000     0.00000
 Structure written by MMmdl.
 32 33  0  0  0  0  0  0  0  0  1 V2000
  152.9248  143.7317  163.1357 C   0  0  0  0  0  0  0  0  0  0  0  0
  152.6163  142.8633  161.9059 C   0  0  0  0  0  0  0  0  0  0  0  0
  153.7828  141.9178  161.5838 C   0  0  0  0  0  0  0  0  0  0  0  0
  152.2567  143.6963  160.7003 C   0  0  0  0  0  0  0  0  0  0  0  0
  152.0201  145.1003  160.6181 C   0  0  0  0  0  0  0  0  0  0  0  0
  151.7604  145.3177  159.2957 C   0  0  0  0  0  0  0  0  0  0  0  0
  151.8466  144.0998  158.6569 N   0  0  0  0  0  0  0  0  0  0  0  0
  151.6733  143.8061  157.2450 C   0  0  0  0  0  0  0  0  0  0  0  0
  150.9283  142.4856  157.0385 C   0  0  0  0  0  0  0  0  0  0  0  0
  151.3460  141.4556  157.5673 O   0  0  0  0  0  0  0  0  0  0  0  0
  149.8330  142.5327  156.2653 N   0  0  0  0  0  0  0  0  0  0  0  0
  148.9845  141.4288  155.9554 C   0  0  0  0  0  0  0  0  0  0  0  0
  149.0339  140.8802  154.5460 C   0  0  0  0  0  0  0  0  0  0  0  0
  147.8393  141.6744  154.9967 C   0  0  0  0  0  0  0  0  0  0  0  0
  152.1500  143.1054  159.5188 N   0  0  0  0  0  0  0  0  0  0  0  0
  152.0809  144.3766  163.3825 H   0  0  0  0  0  0  0  0  0  0  0  0
  153.7956  144.3670  162.9705 H   0  0  0  0  0  0  0  0  0  0  0  0
  153.1304  143.1124  164.0090 H   0  0  0  0  0  0  0  0  0  0  0  0
  151.7576  142.2419  162.1650 H   0  0  0  0  0  0  0  0  0  0  0  0
  153.5357  141.2555  160.7534 H   0  0  0  0  0  0  0  0  0  0  0  0
  154.0299  141.2913  162.4414 H   0  0  0  0  0  0  0  0  0  0  0  0
  154.6792  142.4747  161.3090 H   0  0  0  0  0  0  0  0  0  0  0  0
  152.0429  145.8371  161.4073 H   0  0  0  0  0  0  0  0  0  0  0  0
  151.5303  146.2275  158.7609 H   0  0  0  0  0  0  0  0  0  0  0  0
  151.1262  144.6201  156.7665 H   0  0  0  0  0  0  0  0  0  0  0  0
  152.6564  143.7592  156.7747 H   0  0  0  0  0  0  0  0  0  0  0  0
  149.5715  143.4285  155.8790 H   0  0  0  0  0  0  0  0  0  0  0  0
  148.7985  140.7031  156.7459 H   0  0  0  0  0  0  0  0  0  0  0  0
  149.7132  141.3527  153.8389 H   0  0  0  0  0  0  0  0  0  0  0  0
  148.9057  139.8070  154.4211 H   0  0  0  0  0  0  0  0  0  0  0  0
  146.9125  141.1313  155.1719 H   0  0  0  0  0  0  0  0  0  0  0  0
  147.7207  142.6777  154.5920 H   0  0  0  0  0  0  0  0  0  0  0  0
  1  2  1  0  0  0  0
  1 16  1  0  0  0  0
  1 17  1  0  0  0  0
  1 18  1  0  0  0  0
  2  3  1  0  0  0  0
  2  4  1  0  0  0  0
  2 19  1  0  0  0  0
  3 20  1  0  0  0  0
  3 21  1  0  0  0  0
  3 22  1  0  0  0  0
  4 15  2  0  0  0  0
  4  5  1  0  0  0  0
  5  6  2  0  0  0  0
  5 23  1  0  0  0  0
  6  7  1  0  0  0  0
  6 24  1  0  0  0  0
  7  8  1  0  0  0  0
  7 15  1  0  0  0  0
  8  9  1  0  0  0  0
  8 25  1  0  0  0  0
  8 26  1  0  0  0  0
  9 10  2  0  0  0  0
  9 11  1  0  0  0  0
 11 12  1  0  0  0  0
 11 27  1  0  0  0  0
 12 14  1  0  0  0  0
 12 13  1  0  0  0  0
 12 28  1  0  0  0  0
 13 14  1  0  0  0  0
 13 29  1  0  0  0  0
 13 30  1  0  0  0  0
 14 31  1  0  0  0  0
 14 32  1  0  0  0  0
M  END
> <s_m_source_file>
AV-unprocessed.smi

> <i_m_source_file_index>
880

> <i_lp_mmshare_version>
43012

> <i_f3d_flags>
0

> <s_epik_input>
W0NIM11bQ0hdKFtDSDNdKWMxW2NIXVtjSF1uKG4xKVtDSDJdQyg9TylbTkhdW0NIXTJbQ0gyXVtDSDJdMg==

> <s_epik_cmdline>
J2VwaWtfcHl0aG9uJywgJy1waCcsICc3LjAnLCAnLXRuJywgJzgnLCAnLW1hJywgJzIwMCcsICctbWV0YWxfYmluZGluZycsICctaW1hZScsICc8aW5maWxlLm1hZT4nLCAnLW9tYWUnLCAnPG91dGZpbGUubWFlPic=

> <r_lp_tautomer_probability>
1

> <r_epik_Ionization_Penalty>
5.52855e-05

> <r_epik_Ionization_Penalty_Charging>
0

> <r_epik_Ionization_Penalty_Neutral>
5.52855e-05

> <r_epik_State_Penalty>
-0

> <r_epik_Charging_Adjusted_Penalty>
0

> <i_epik_Tot_Q>
0

> <i_epik_Tot_abs_Q>
0

> <r_epik_Metal_State_Penalty>
-0

> <b_epik_Metal_Only>
0

> <s_lp_Force_Field>
OPLS_2005

> <r_lp_Energy>
12.9381

> <b_lp_Chiralities_Consistent>
1

> <s_lp_Variant>
AV-unprocessed.smi:880-1

> <Gold.Version>
5.8.1

> <Gold.Id.Protein>
6NUR|6NUR_protein|mol2

> <Gold.PLP.Fitness>
43.6743

> <Gold.PLP.PLP>
-41.8708

> <Gold.PLP.part.hbond>
-0.8636

> <Gold.PLP.part.metal>
0.0000

> <Gold.PLP.part.buried>
-4.1718

> <Gold.PLP.part.nonpolar>
-37.6217

> <Gold.PLP.part.repulsive>
0.1392

> <Gold.PLP.ligand.clash>
0.0000

> <Gold.PLP.ligand.torsion>
0.6300

> <Gold.PLP.Chemscore.Hbond>
1.0000

> <Gold.PLP.Chemscore.CHOScore>
0.0000

> <Gold.PLP.Chemscore.Metal>
0.0000

> <Gold.Chemscore.Hbonds>
donor molecule, donor type, donor heavy atom, donor atom, acceptor molecule, acceptor atom, score
      L1  H    11    27       P1  8028  0.86

> <Gold.PLP.Chemscore.Internal.Correction>
0.0636

> <Gold.Rescore>
     Score         DG    S(hbond)    S(metal)    S(lipo)     H(rot)  DE(clash)    DE(int)     intcor
     13.74     -17.14       0.98        0.00     104.45       1.50       1.54       1.86       ----

> <Gold.Chemscore.Fitness>
13.7400

> <Gold.Chemscore.DG>
-17.1399

> <Gold.Chemscore.ZeroCoef>
-5.4800

> <Gold.Chemscore.Hbond>
0.9840

> <Gold.Chemscore.Metal>
0.0000

> <Gold.Chemscore.Lipo>
104.4460

> <Gold.Chemscore.Internal_Hbond>
0.0000

> <Gold.Chemscore.DEClash>
1.5417

> <Gold.Chemscore.DEInternal>
1.8582

> <Gold.Chemscore.Rot>
1.5026

> <Gold.Chemscore.Internal.Correction>
   9.000000E+99

> <Gold.Chemscore.Hbonds>
donor molecule, donor type, donor heavy atom, donor atom, acceptor molecule, acceptor atom, score
      L1  H    11    27       P1  8028  0.84

> <Gold.Chemscore.Hbond.Weighted>
-3.2865

> <Gold.Chemscore.Metal.Weighted>
-0.0000

> <Gold.Chemscore.Lipo.Weighted>
-12.2202

> <Gold.Chemscore.Internal_Hbond.Weighted>
0.0000

> <Gold.Chemscore.DEClash.Weighted>
1.5417

> <Gold.Chemscore.DEInternal.Weighted>
1.8582

> <Gold.Chemscore.Rot.Weighted>
3.8468

> <Gold.Chemscore.Internal.Correction.Weighted>
   9.000000E+99

> <Gold.Protein.RotatedTorsions>
[ 6907 6896 6895 6894 ] final  125.49 input  -60.11 | X-H torsion
[ 7974 7965 7964 7962 ] final  -64.38 input  175.53 | X-H torsion
[ 8008 7997 7996 7995 ] final  166.66 input   59.86 | X-H torsion
[ 10167 10162 10161 10158 ] final -110.31 input  -65.29 | X-H torsion
[ 10718 10713 10712 10709 ] final   38.12 input   66.30 | X-H torsion
[ 10763 10752 10751 10750 ] final  -56.16 input  -60.55 | X-H torsion
[ 11005 11000 10999 10996 ] final    7.52 input  -57.11 | X-H torsion

> <Gold.Protein.ActiveResidues>
 VAL166  LYS551  ARG553  GLY616  TRP617  ASP618  TYR619  PRO620  LYS621  CYS622 
 ASP623  PHE694  ASN695  SER759  ASP760  ASP761  ALA762  ILE779  LEU786  VAL792 
 PHE793  MET794  SER795  GLU796  ALA797  LYS798  CYS799  TRP800  GLU811  SER814 

> <Gold.Protein.RotatedAtoms>
  152.3988  133.6786  159.6298 H   0  0  0  0  0  0  0  0  0  0  0  0  # atno 6907 bound_to 6896
  150.7882  133.8828  159.3299 H   0  0  0  0  0  0  0  0  0  0  0  0  # atno 6908 bound_to 6896
  151.6598  135.0992  160.0229 H   0  0  0  0  0  0  0  0  0  0  0  0  # atno 6909 bound_to 6896
  145.7674  140.8830  143.0398 H   0  0  0  0  0  0  0  0  0  0  0  0  # atno 7974 bound_to 7965
  156.1700  140.1637  156.8464 H   0  0  0  0  0  0  0  0  0  0  0  0  # atno 8008 bound_to 7997
  154.5247  140.0770  156.8270 H   0  0  0  0  0  0  0  0  0  0  0  0  # atno 8009 bound_to 7997
  155.3533  140.3391  155.4242 H   0  0  0  0  0  0  0  0  0  0  0  0  # atno 8010 bound_to 7997
  140.1458  143.4240  152.1529 H   0  0  0  0  0  0  0  0  0  0  0  0  # atno 10167 bound_to 10162
  157.3551  130.7619  149.7006 H   0  0  0  0  0  0  0  0  0  0  0  0  # atno 10718 bound_to 10713
  154.2022  135.6409  153.5090 H   0  0  0  0  0  0  0  0  0  0  0  0  # atno 10763 bound_to 10752
  153.0009  135.5454  154.6303 H   0  0  0  0  0  0  0  0  0  0  0  0  # atno 10764 bound_to 10752
  154.5719  135.2917  155.0792 H   0  0  0  0  0  0  0  0  0  0  0  0  # atno 10765 bound_to 10752
  140.5473  134.0316  155.7924 H   0  0  0  0  0  0  0  0  0  0  0  0  # atno 11005 bound_to 11000
  144.6819  139.9807  143.7483 LP  0  0  0  0  0  0  0  0  0  0  0  0  # atno 17320 bound_to 7965
  146.0204  139.3246  143.0816 LP  0  0  0  0  0  0  0  0  0  0  0  0  # atno 17321 bound_to 7965
  139.5449  144.7290  151.4614 LP  0  0  0  0  0  0  0  0  0  0  0  0  # atno 17342 bound_to 10162
  140.6732  143.8247  150.7026 LP  0  0  0  0  0  0  0  0  0  0  0  0  # atno 17343 bound_to 10162
  155.9728  130.4129  150.4058 LP  0  0  0  0  0  0  0  0  0  0  0  0  # atno 17370 bound_to 10713
  157.2127  131.0464  151.2590 LP  0  0  0  0  0  0  0  0  0  0  0  0  # atno 17371 bound_to 10713
  141.1192  133.9490  157.2763 LP  0  0  0  0  0  0  0  0  0  0  0  0  # atno 17394 bound_to 11000
  139.9473  135.0182  156.8890 LP  0  0  0  0  0  0  0  0  0  0  0  0  # atno 17395 bound_to 11000

$$$$
