AV-unprocessed.smi:618|AV-procd|sdf|3080|dock4
  -GOLD-   22720 0 03D 1   1.00000     0.00000
 Structure written by MMmdl.
 41 43  0  0  0  0  0  0  0  0  2 V2000
  144.5796  136.6374  151.8198 O   0  0  0  0  0  0  0  0  0  0  0  0
  145.7888  136.4179  151.7513 C   0  0  0  0  0  0  0  0  0  0  0  0
  146.7200  137.3331  152.0547 N   0  0  0  0  0  0  0  0  0  0  0  0
  146.4354  138.6937  152.4985 C   0  0  0  0  0  0  0  0  0  0  0  0
  146.8825  138.9276  153.9592 C   0  0  2  0  0  0  0  0  0  0  0  0
  145.7026  139.2498  154.9086 C   0  0  0  0  0  0  0  0  0  0  0  0
  145.2650  140.6401  154.6848 N   0  3  1  0  0  0  0  0  0  0  0  0
  144.1444  141.1535  155.4919 C   0  0  0  0  0  0  0  0  0  0  0  0
  144.3349  142.6832  155.5083 C   0  0  0  0  0  0  0  0  0  0  0  0
  145.6806  142.9437  154.8084 C   0  0  0  0  0  0  0  0  0  0  0  0
  146.3690  141.5840  154.8695 C   0  0  2  0  0  0  0  0  0  0  0  0
  147.4626  141.2827  153.8387 C   0  0  0  0  0  0  0  0  0  0  0  0
  147.9015  139.9368  154.0444 O   0  0  0  0  0  0  0  0  0  0  0  0
  146.3488  135.2498  151.3942 N   0  0  0  0  0  0  0  0  0  0  0  0
  145.7026  134.0504  150.9895 C   0  0  0  0  0  0  0  0  0  0  0  0
  144.3053  133.9257  150.7963 C   0  0  0  0  0  0  0  0  0  0  0  0
  143.7852  132.6870  150.3744 C   0  0  0  0  0  0  0  0  0  0  0  0
  144.6797  131.6216  150.1546 C   0  0  0  0  0  0  0  0  0  0  0  0
  146.0148  131.7301  150.3211 N   0  0  0  0  0  0  0  0  0  0  0  0
  146.5063  132.9211  150.7243 C   0  0  0  0  0  0  0  0  0  0  0  0
  147.6916  137.0700  151.9753 H   0  0  0  0  0  0  0  0  0  0  0  0
  146.9302  139.3868  151.8191 H   0  0  0  0  0  0  0  0  0  0  0  0
  145.3668  138.8913  152.3984 H   0  0  0  0  0  0  0  0  0  0  0  0
  147.3361  138.0027  154.3168 H   0  0  0  0  0  0  0  0  0  0  0  0
  144.8713  138.5630  154.7454 H   0  0  0  0  0  0  0  0  0  0  0  0
  146.0165  139.1320  155.9469 H   0  0  0  0  0  0  0  0  0  0  0  0
  143.1871  140.8551  155.0640 H   0  0  0  0  0  0  0  0  0  0  0  0
  144.2018  140.7576  156.5071 H   0  0  0  0  0  0  0  0  0  0  0  0
  143.5216  143.1980  154.9956 H   0  0  0  0  0  0  0  0  0  0  0  0
  144.3572  143.0464  156.5364 H   0  0  0  0  0  0  0  0  0  0  0  0
  145.5081  143.2331  153.7706 H   0  0  0  0  0  0  0  0  0  0  0  0
  146.2617  143.7328  155.2866 H   0  0  0  0  0  0  0  0  0  0  0  0
  146.7788  141.4509  155.8735 H   0  0  0  0  0  0  0  0  0  0  0  0
  147.1031  141.4251  152.8192 H   0  0  0  0  0  0  0  0  0  0  0  0
  148.3090  141.9560  153.9744 H   0  0  0  0  0  0  0  0  0  0  0  0
  147.3538  135.1940  151.4725 H   0  0  0  0  0  0  0  0  0  0  0  0
  143.6283  134.7520  150.9479 H   0  0  0  0  0  0  0  0  0  0  0  0
  142.7245  132.5579  150.2188 H   0  0  0  0  0  0  0  0  0  0  0  0
  144.3135  130.6589  149.8303 H   0  0  0  0  0  0  0  0  0  0  0  0
  147.5788  132.9715  150.8442 H   0  0  0  0  0  0  0  0  0  0  0  0
  144.9807  140.7175  153.7186 H   0  0  0  0  0  0  0  0  0  0  0  0
  1  2  2  0  0  0  0
  2  3  1  0  0  0  0
  2 14  1  0  0  0  0
  3  4  1  0  0  0  0
  3 21  1  0  0  0  0
  4  5  1  0  0  0  0
  4 22  1  0  0  0  0
  4 23  1  0  0  0  0
  5 13  1  0  0  0  0
  5  6  1  0  0  0  0
  5 24  1  0  0  0  0
  6  7  1  0  0  0  0
  6 25  1  0  0  0  0
  6 26  1  0  0  0  0
  7 11  1  0  0  0  0
  7  8  1  0  0  0  0
  7 41  1  0  0  0  0
  8  9  1  0  0  0  0
  8 27  1  0  0  0  0
  8 28  1  0  0  0  0
  9 10  1  0  0  0  0
  9 29  1  0  0  0  0
  9 30  1  0  0  0  0
 10 11  1  0  0  0  0
 10 31  1  0  0  0  0
 10 32  1  0  0  0  0
 11 12  1  0  0  0  0
 11 33  1  0  0  0  0
 12 13  1  0  0  0  0
 12 34  1  0  0  0  0
 12 35  1  0  0  0  0
 14 15  1  0  0  0  0
 14 36  1  0  0  0  0
 15 20  1  0  0  0  0
 15 16  2  0  0  0  0
 16 17  1  0  0  0  0
 16 37  1  0  0  0  0
 17 18  2  0  0  0  0
 17 38  1  0  0  0  0
 18 19  1  0  0  0  0
 18 39  1  0  0  0  0
 19 20  2  0  0  0  0
 20 40  1  0  0  0  0
M  CHG  1   7   1
M  END
> <s_m_source_file>
AV-unprocessed.smi

> <i_m_source_file_index>
618

> <i_lp_mmshare_version>
43012

> <i_f3d_flags>
0

> <s_epik_input>
W2NIXTFuW2NIXVtjSF1bY0hdYzFbTkhdQyg9TylbTkhdW0NIMl1bQ0BIXShbQ0gyXTIpT1tDSDJdW0NAQEhdKE4yMylbQ0gyXVtDSDJdW0NIMl0z

> <s_epik_cmdline>
J2VwaWtfcHl0aG9uJywgJy1waCcsICc3LjAnLCAnLXRuJywgJzgnLCAnLW1hJywgJzIwMCcsICctbWV0YWxfYmluZGluZycsICctaW1hZScsICc8aW5maWxlLm1hZT4nLCAnLW9tYWUnLCAnPG91dGZpbGUubWFlPic=

> <r_epik_Ionization_Penalty>
0.111044

> <r_epik_Ionization_Penalty_Charging>
0.10673

> <r_epik_Ionization_Penalty_Neutral>
0.00431361

> <r_epik_State_Penalty>
0.0978747

> <r_epik_Charging_Adjusted_Penalty>
0.204605

> <i_epik_Tot_Q>
1

> <i_epik_Tot_abs_Q>
1

> <r_epik_Metal_State_Penalty>
0.0947591

> <b_epik_Metal_Only>
0

> <s_lp_Force_Field>
OPLS_2005

> <r_lp_Energy>
41.554

> <b_lp_Chiralities_Consistent>
1

> <s_lp_Variant>
AV-unprocessed.smi:618-7

> <Gold.Version>
5.8.1

> <Gold.Id.Protein>
6NUR|6NUR_protein|mol2

> <Gold.PLP.Fitness>
45.6852

> <Gold.PLP.PLP>
-33.8069

> <Gold.PLP.part.hbond>
-2.9439

> <Gold.PLP.part.metal>
0.0000

> <Gold.PLP.part.buried>
-7.7663

> <Gold.PLP.part.nonpolar>
-25.5257

> <Gold.PLP.part.repulsive>
1.4934

> <Gold.PLP.ligand.clash>
0.0000

> <Gold.PLP.ligand.torsion>
0.7690

> <Gold.PLP.Chemscore.Hbond>
3.8960

> <Gold.PLP.Chemscore.CHOScore>
0.5727

> <Gold.PLP.Chemscore.Metal>
0.0000

> <Gold.Chemscore.Hbonds>
donor molecule, donor type, donor heavy atom, donor atom, acceptor molecule, acceptor atom, score
      L1  H     3    21       P1  7948  0.93
      L1  H     7    41       P1 10175  1.92
      L1  H    14    36       P1  7948  0.90
      L1  C    20    40       P1 10747  0.66

> <Gold.PLP.Chemscore.Internal.Correction>
0.0101

> <Gold.Rescore>
     Score         DG    S(hbond)    S(metal)    S(lipo)     H(rot)  DE(clash)    DE(int)     intcor
     17.58     -19.99       2.76        0.00      72.81       1.27       0.50       1.92       ----

> <Gold.Chemscore.Fitness>
17.5758

> <Gold.Chemscore.DG>
-19.9918

> <Gold.Chemscore.ZeroCoef>
-5.4800

> <Gold.Chemscore.Hbond>
2.7644

> <Gold.Chemscore.Metal>
0.0000

> <Gold.Chemscore.Lipo>
72.8076

> <Gold.Chemscore.Internal_Hbond>
0.0000

> <Gold.Chemscore.DEClash>
0.4987

> <Gold.Chemscore.DEInternal>
1.9174

> <Gold.Chemscore.Rot>
1.2656

> <Gold.Chemscore.Internal.Correction>
   9.000000E+99

> <Gold.Chemscore.Hbonds>
donor molecule, donor type, donor heavy atom, donor atom, acceptor molecule, acceptor atom, score
      L1  H     3    21       P1  7948  0.88
      L1  H     7    41       P1 10175  0.89
      L1  H    14    36       P1  7948  0.72

> <Gold.Chemscore.Hbond.Weighted>
-9.2332

> <Gold.Chemscore.Metal.Weighted>
-0.0000

> <Gold.Chemscore.Lipo.Weighted>
-8.5185

> <Gold.Chemscore.Internal_Hbond.Weighted>
0.0000

> <Gold.Chemscore.DEClash.Weighted>
0.4987

> <Gold.Chemscore.DEInternal.Weighted>
1.9174

> <Gold.Chemscore.Rot.Weighted>
3.2399

> <Gold.Chemscore.Internal.Correction.Weighted>
   9.000000E+99

> <Gold.Protein.RotatedTorsions>
[ 6907 6896 6895 6894 ] final   10.05 input  -60.11 | X-H torsion
[ 7974 7965 7964 7962 ] final  -29.15 input  175.53 | X-H torsion
[ 8008 7997 7996 7995 ] final  168.15 input   59.86 | X-H torsion
[ 10167 10162 10161 10158 ] final -121.45 input  -65.29 | X-H torsion
[ 10718 10713 10712 10709 ] final -101.76 input   66.30 | X-H torsion
[ 10763 10752 10751 10750 ] final  -10.81 input  -60.55 | X-H torsion
[ 11005 11000 10999 10996 ] final  -39.10 input  -57.11 | X-H torsion

> <Gold.Protein.ActiveResidues>
 VAL166  LYS551  ARG553  GLY616  TRP617  ASP618  TYR619  PRO620  LYS621  CYS622 
 ASP623  PHE694  ASN695  SER759  ASP760  ASP761  ALA762  ILE779  LEU786  VAL792 
 PHE793  MET794  SER795  GLU796  ALA797  LYS798  CYS799  TRP800  GLU811  SER814 

> <Gold.Protein.RotatedAtoms>
  151.7321  135.0872  160.0301 H   0  0  0  0  0  0  0  0  0  0  0  0  # atno 6907 bound_to 6896
  152.3535  133.6204  159.5970 H   0  0  0  0  0  0  0  0  0  0  0  0  # atno 6908 bound_to 6896
  150.7555  133.9454  159.3510 H   0  0  0  0  0  0  0  0  0  0  0  0  # atno 6909 bound_to 6896
  146.1237  140.5375  142.8724 H   0  0  0  0  0  0  0  0  0  0  0  0  # atno 7974 bound_to 7965
  156.1572  140.1598  156.8673 H   0  0  0  0  0  0  0  0  0  0  0  0  # atno 8008 bound_to 7997
  154.5126  140.0797  156.8055 H   0  0  0  0  0  0  0  0  0  0  0  0  # atno 8009 bound_to 7997
  155.3780  140.3403  155.4248 H   0  0  0  0  0  0  0  0  0  0  0  0  # atno 8010 bound_to 7997
  140.0249  143.5307  152.2203 H   0  0  0  0  0  0  0  0  0  0  0  0  # atno 10167 bound_to 10162
  156.0205  130.5389  150.7010 H   0  0  0  0  0  0  0  0  0  0  0  0  # atno 10718 bound_to 10713
  153.4747  135.7017  153.5973 H   0  0  0  0  0  0  0  0  0  0  0  0  # atno 10763 bound_to 10752
  153.4212  135.3825  155.2112 H   0  0  0  0  0  0  0  0  0  0  0  0  # atno 10764 bound_to 10752
  154.8724  135.3928  154.4189 H   0  0  0  0  0  0  0  0  0  0  0  0  # atno 10765 bound_to 10752
  141.0077  133.6923  156.2141 H   0  0  0  0  0  0  0  0  0  0  0  0  # atno 11005 bound_to 11000
  144.7622  140.5447  143.6728 LP  0  0  0  0  0  0  0  0  0  0  0  0  # atno 17320 bound_to 7965
  145.5411  139.1475  143.3446 LP  0  0  0  0  0  0  0  0  0  0  0  0  # atno 17321 bound_to 7965
  139.6115  144.7609  151.2942 LP  0  0  0  0  0  0  0  0  0  0  0  0  # atno 17342 bound_to 10162
  140.7327  143.6816  150.7996 LP  0  0  0  0  0  0  0  0  0  0  0  0  # atno 17343 bound_to 10162
  157.4670  131.0889  151.0683 LP  0  0  0  0  0  0  0  0  0  0  0  0  # atno 17370 bound_to 10713
  157.1155  130.6039  149.5492 LP  0  0  0  0  0  0  0  0  0  0  0  0  # atno 17371 bound_to 10713
  140.6786  134.4792  157.5588 LP  0  0  0  0  0  0  0  0  0  0  0  0  # atno 17394 bound_to 11000
  139.9072  134.8423  156.1661 LP  0  0  0  0  0  0  0  0  0  0  0  0  # atno 17395 bound_to 11000

$$$$
