AV-unprocessed.smi:153|AV-procd|sdf|1255|dock5
  -GOLD-   2262018493D 1   1.00000     0.00000
 Structure written by MMmdl.
 60 63  0  0  0  0  0  0  0  0  2 V2000
  151.5347  139.1603  155.5905 C   0  0  0  0  0  0  0  0  0  0  0  0
  150.0399  139.4913  155.7313 C   0  0  1  0  0  0  0  0  0  0  0  0
  149.8231  140.7901  155.1836 O   0  0  0  0  0  0  0  0  0  0  0  0
  148.5469  140.8292  154.5703 C   0  0  0  0  0  0  0  0  0  0  0  0
  148.4513  139.4551  153.9291 C   0  0  0  0  0  0  0  0  0  0  0  0
  149.0480  138.5432  155.0009 C   0  0  1  0  0  0  0  0  0  0  0  0
  149.7000  137.4636  154.3543 O   0  0  0  0  0  0  0  0  0  0  0  0
  148.0009  137.9633  155.9903 C   0  0  0  0  0  0  0  0  0  0  0  0
  146.7082  137.6634  155.3914 N   0  0  0  0  0  0  0  0  0  0  0  0
  146.4803  136.8806  154.2840 C   0  0  0  0  0  0  0  0  0  0  0  0
  145.2278  136.7508  153.9460 N   0  0  0  0  0  0  0  0  0  0  0  0
  144.5320  137.5212  154.8726 C   0  0  0  0  0  0  0  0  0  0  0  0
  143.1522  137.8185  155.1016 C   0  0  0  0  0  0  0  0  0  0  0  0
  142.1100  137.3465  154.3597 N   0  0  0  0  0  0  0  0  0  0  0  0
  140.7981  137.9735  154.4684 C   0  0  0  0  0  0  0  0  0  0  0  0
  142.3892  136.5381  153.1704 C   0  0  0  0  0  0  0  0  0  0  0  0
  142.8083  135.0952  153.5198 C   0  0  1  0  0  0  0  0  0  0  0  0
  141.7352  134.4692  154.1959 O   0  0  0  0  0  0  0  0  0  0  0  0
  143.1005  134.2695  152.2506 C   0  0  0  0  0  0  0  0  0  0  0  0
  144.1784  133.2670  152.4518 N   0  3  0  0  0  0  0  0  0  0  0  0
  144.3720  132.3979  151.2666 C   0  0  0  0  0  0  0  0  0  0  0  0
  145.4480  131.3355  151.5481 C   0  0  0  0  0  0  0  0  0  0  0  0
  146.6621  131.9745  151.9221 O   0  0  0  0  0  0  0  0  0  0  0  0
  146.5140  132.7449  153.1080 C   0  0  0  0  0  0  0  0  0  0  0  0
  145.4730  133.8540  152.8790 C   0  0  0  0  0  0  0  0  0  0  0  0
  142.8676  138.6334  156.1525 N   0  0  0  0  0  0  0  0  0  0  0  0
  143.8405  139.1266  156.9222 C   0  0  0  0  0  0  0  0  0  0  0  0
  145.1547  138.9297  156.8290 N   0  0  0  0  0  0  0  0  0  0  0  0
  145.4580  138.1093  155.7842 C   0  0  0  0  0  0  0  0  0  0  0  0
  151.7650  138.1822  156.0134 H   0  0  0  0  0  0  0  0  0  0  0  0
  152.1447  139.8966  156.1141 H   0  0  0  0  0  0  0  0  0  0  0  0
  151.8446  139.1598  154.5448 H   0  0  0  0  0  0  0  0  0  0  0  0
  149.7952  139.5401  156.7935 H   0  0  0  0  0  0  0  0  0  0  0  0
  147.7731  140.9673  155.3268 H   0  0  0  0  0  0  0  0  0  0  0  0
  148.4736  141.6397  153.8450 H   0  0  0  0  0  0  0  0  0  0  0  0
  147.4393  139.2004  153.6189 H   0  0  0  0  0  0  0  0  0  0  0  0
  149.0740  139.4491  153.0326 H   0  0  0  0  0  0  0  0  0  0  0  0
  149.3016  137.3354  153.5070 H   0  0  0  0  0  0  0  0  0  0  0  0
  148.3840  137.0507  156.4493 H   0  0  0  0  0  0  0  0  0  0  0  0
  147.8321  138.6636  156.8095 H   0  0  0  0  0  0  0  0  0  0  0  0
  147.2764  136.3930  153.7399 H   0  0  0  0  0  0  0  0  0  0  0  0
  140.5060  138.0868  155.5128 H   0  0  0  0  0  0  0  0  0  0  0  0
  140.0356  137.3645  153.9827 H   0  0  0  0  0  0  0  0  0  0  0  0
  140.7965  138.9541  153.9917 H   0  0  0  0  0  0  0  0  0  0  0  0
  141.5644  136.5504  152.4568 H   0  0  0  0  0  0  0  0  0  0  0  0
  143.2133  137.0265  152.6495 H   0  0  0  0  0  0  0  0  0  0  0  0
  143.6833  135.1142  154.1686 H   0  0  0  0  0  0  0  0  0  0  0  0
  142.0109  133.6042  154.4605 H   0  0  0  0  0  0  0  0  0  0  0  0
  142.1824  133.7618  151.9491 H   0  0  0  0  0  0  0  0  0  0  0  0
  143.3719  134.9245  151.4210 H   0  0  0  0  0  0  0  0  0  0  0  0
  143.4332  131.9063  151.0086 H   0  0  0  0  0  0  0  0  0  0  0  0
  144.6626  133.0071  150.4092 H   0  0  0  0  0  0  0  0  0  0  0  0
  145.1249  130.6507  152.3337 H   0  0  0  0  0  0  0  0  0  0  0  0
  145.6253  130.7352  150.6556 H   0  0  0  0  0  0  0  0  0  0  0  0
  146.2217  132.1022  153.9402 H   0  0  0  0  0  0  0  0  0  0  0  0
  147.4780  133.1825  153.3678 H   0  0  0  0  0  0  0  0  0  0  0  0
  145.8312  134.5478  152.1166 H   0  0  0  0  0  0  0  0  0  0  0  0
  145.3524  134.4248  153.7987 H   0  0  0  0  0  0  0  0  0  0  0  0
  143.5194  139.7669  157.7306 H   0  0  0  0  0  0  0  0  0  0  0  0
  143.8649  132.6624  153.1982 H   0  0  0  0  0  0  0  0  0  0  0  0
  1  2  1  0  0  0  0
  1 30  1  0  0  0  0
  1 31  1  0  0  0  0
  1 32  1  0  0  0  0
  2  6  1  0  0  0  0
  2  3  1  0  0  0  0
  2 33  1  0  0  0  0
  3  4  1  0  0  0  0
  4  5  1  0  0  0  0
  4 34  1  0  0  0  0
  4 35  1  0  0  0  0
  5  6  1  0  0  0  0
  5 36  1  0  0  0  0
  5 37  1  0  0  0  0
  6  7  1  0  0  0  0
  6  8  1  0  0  0  0
  7 38  1  0  0  0  0
  8  9  1  0  0  0  0
  8 39  1  0  0  0  0
  8 40  1  0  0  0  0
  9 29  1  0  0  0  0
  9 10  1  0  0  0  0
 10 11  2  0  0  0  0
 10 41  1  0  0  0  0
 11 12  1  0  0  0  0
 12 29  2  0  0  0  0
 12 13  1  0  0  0  0
 13 14  1  0  0  0  0
 13 26  2  0  0  0  0
 14 15  1  0  0  0  0
 14 16  1  0  0  0  0
 15 42  1  0  0  0  0
 15 43  1  0  0  0  0
 15 44  1  0  0  0  0
 16 17  1  0  0  0  0
 16 45  1  0  0  0  0
 16 46  1  0  0  0  0
 17 18  1  0  0  0  0
 17 19  1  0  0  0  0
 17 47  1  0  0  0  0
 18 48  1  0  0  0  0
 19 20  1  0  0  0  0
 19 49  1  0  0  0  0
 19 50  1  0  0  0  0
 20 25  1  0  0  0  0
 20 21  1  0  0  0  0
 20 60  1  0  0  0  0
 21 22  1  0  0  0  0
 21 51  1  0  0  0  0
 21 52  1  0  0  0  0
 22 23  1  0  0  0  0
 22 53  1  0  0  0  0
 22 54  1  0  0  0  0
 23 24  1  0  0  0  0
 24 25  1  0  0  0  0
 24 55  1  0  0  0  0
 24 56  1  0  0  0  0
 25 57  1  0  0  0  0
 25 58  1  0  0  0  0
 26 27  1  0  0  0  0
 27 28  2  0  0  0  0
 27 59  1  0  0  0  0
 28 29  1  0  0  0  0
M  CHG  1  20   1
M  END
> <s_m_source_file>
AV-unprocessed.smi

> <i_m_source_file_index>
153

> <i_lp_mmshare_version>
43012

> <i_f3d_flags>
0

> <s_epik_input>
W0NIMl0xW0NIMl1PW0NAQEhdKFtDSDNdKVtDQEBdMShbT0hdKVtDSDJdbihbY0hdbjIpYyhjMjMpbltjSF1uYzNOKFtDSDNdKVtDSDJdW0NASF0oW09IXSlbQ0gyXU40W0NIMl1bQ0gyXU9bQ0gyXVtDSDJdNA==

> <s_epik_cmdline>
J2VwaWtfcHl0aG9uJywgJy1waCcsICc3LjAnLCAnLXRuJywgJzgnLCAnLW1hJywgJzIwMCcsICctbWV0YWxfYmluZGluZycsICctaW1hZScsICc8aW5maWxlLm1hZT4nLCAnLW9tYWUnLCAnPG91dGZpbGUubWFlPic=

> <r_lp_tautomer_probability>
1

> <r_epik_Ionization_Penalty>
0.403509

> <r_epik_Ionization_Penalty_Charging>
0.40072

> <r_epik_Ionization_Penalty_Neutral>
0.00278876

> <r_epik_State_Penalty>
0.400058

> <r_epik_Charging_Adjusted_Penalty>
0.800778

> <i_epik_Tot_Q>
1

> <i_epik_Tot_abs_Q>
1

> <r_epik_Metal_State_Penalty>
0.400321

> <b_epik_Metal_Only>
0

> <s_lp_Force_Field>
OPLS_2005

> <r_lp_Energy>
46.896

> <b_lp_Chiralities_Consistent>
1

> <s_lp_Variant>
AV-unprocessed.smi:153-6

> <Gold.Version>
5.8.1

> <Gold.Id.Protein>
6NUR|6NUR_protein|mol2

> <Gold.PLP.Fitness>
48.2093

> <Gold.PLP.PLP>
-32.0230

> <Gold.PLP.part.hbond>
-5.3336

> <Gold.PLP.part.metal>
0.0000

> <Gold.PLP.part.buried>
-3.5003

> <Gold.PLP.part.nonpolar>
-25.1576

> <Gold.PLP.part.repulsive>
0.3826

> <Gold.PLP.ligand.clash>
0.0000

> <Gold.PLP.ligand.torsion>
1.1290

> <Gold.PLP.Chemscore.Hbond>
4.9905

> <Gold.PLP.Chemscore.CHOScore>
1.0000

> <Gold.PLP.Chemscore.Metal>
0.0000

> <Gold.Chemscore.Hbonds>
donor molecule, donor type, donor heavy atom, donor atom, acceptor molecule, acceptor atom, score
      L1  H     7    38       P1  7948  1.00
      L1  H    18    48       P1 10957  1.00
      L1  H    20    60       P1 10957  1.30
      P1  H 11000 11005       L1    18  0.15
      L1  C    10    41       P1  7948  1.00

> <Gold.PLP.Chemscore.Internal.Correction>
0.4726

> <Gold.Rescore>
     Score         DG    S(hbond)    S(metal)    S(lipo)     H(rot)  DE(clash)    DE(int)     intcor
      9.98     -13.94       2.70        0.00      74.29       3.62       1.64       2.33       ----

> <Gold.Chemscore.Fitness>
9.9766

> <Gold.Chemscore.DG>
-13.9430

> <Gold.Chemscore.ZeroCoef>
-5.4800

> <Gold.Chemscore.Hbond>
2.7047

> <Gold.Chemscore.Metal>
0.0000

> <Gold.Chemscore.Lipo>
74.2899

> <Gold.Chemscore.Internal_Hbond>
0.0000

> <Gold.Chemscore.DEClash>
1.6381

> <Gold.Chemscore.DEInternal>
2.3283

> <Gold.Chemscore.Rot>
3.6182

> <Gold.Chemscore.Internal.Correction>
   9.000000E+99

> <Gold.Chemscore.Hbonds>
donor molecule, donor type, donor heavy atom, donor atom, acceptor molecule, acceptor atom, score
      L1  H     7    38       P1  7948  0.91
      L1  H    18    48       P1 10957  0.99
      L1  H    20    60       P1 10957  0.19
      P1  H  7989  7998       L1     3  0.01

> <Gold.Chemscore.Hbond.Weighted>
-9.0336

> <Gold.Chemscore.Metal.Weighted>
-0.0000

> <Gold.Chemscore.Lipo.Weighted>
-8.6919

> <Gold.Chemscore.Internal_Hbond.Weighted>
0.0000

> <Gold.Chemscore.DEClash.Weighted>
1.6381

> <Gold.Chemscore.DEInternal.Weighted>
2.3283

> <Gold.Chemscore.Rot.Weighted>
9.2625

> <Gold.Chemscore.Internal.Correction.Weighted>
   9.000000E+99

> <Gold.Protein.RotatedTorsions>
[ 6907 6896 6895 6894 ] final -103.98 input  -60.11 | X-H torsion
[ 7974 7965 7964 7962 ] final -119.04 input  175.53 | X-H torsion
[ 8008 7997 7996 7995 ] final  -70.10 input   59.86 | X-H torsion
[ 10167 10162 10161 10158 ] final  -75.88 input  -65.29 | X-H torsion
[ 10718 10713 10712 10709 ] final  -71.18 input   66.30 | X-H torsion
[ 10763 10752 10751 10750 ] final   72.88 input  -60.55 | X-H torsion
[ 11005 11000 10999 10996 ] final   39.77 input  -57.11 | X-H torsion

> <Gold.Protein.ActiveResidues>
 VAL166  LYS551  ARG553  GLY616  TRP617  ASP618  TYR619  PRO620  LYS621  CYS622 
 ASP623  PHE694  ASN695  SER759  ASP760  ASP761  ALA762  ILE779  LEU786  VAL792 
 PHE793  MET794  SER795  GLU796  ALA797  LYS798  CYS799  TRP800  GLU811  SER814 

> <Gold.Protein.RotatedAtoms>
  150.7265  134.0347  159.3745 H   0  0  0  0  0  0  0  0  0  0  0  0  # atno 6907 bound_to 6896
  151.8318  135.0617  160.0447 H   0  0  0  0  0  0  0  0  0  0  0  0  # atno 6908 bound_to 6896
  152.2928  133.5541  159.5604 H   0  0  0  0  0  0  0  0  0  0  0  0  # atno 6909 bound_to 6896
  145.0671  140.8332  143.4118 H   0  0  0  0  0  0  0  0  0  0  0  0  # atno 7974 bound_to 7965
  154.4987  140.0841  156.7752 H   0  0  0  0  0  0  0  0  0  0  0  0  # atno 8008 bound_to 7997
  155.4055  140.3439  155.4241 H   0  0  0  0  0  0  0  0  0  0  0  0  # atno 8009 bound_to 7997
  156.1428  140.1534  156.8882 H   0  0  0  0  0  0  0  0  0  0  0  0  # atno 8010 bound_to 7997
  140.4905  143.2381  151.7915 H   0  0  0  0  0  0  0  0  0  0  0  0  # atno 10167 bound_to 10162
  156.0374  130.4346  150.2406 H   0  0  0  0  0  0  0  0  0  0  0  0  # atno 10718 bound_to 10713
  153.0486  135.5083  154.7810 H   0  0  0  0  0  0  0  0  0  0  0  0  # atno 10763 bound_to 10752
  154.6690  135.2950  154.9769 H   0  0  0  0  0  0  0  0  0  0  0  0  # atno 10764 bound_to 10752
  154.0594  135.6693  153.4862 H   0  0  0  0  0  0  0  0  0  0  0  0  # atno 10765 bound_to 10752
  140.1996  134.3887  155.8103 H   0  0  0  0  0  0  0  0  0  0  0  0  # atno 11005 bound_to 11000
  145.1338  139.2615  143.5525 LP  0  0  0  0  0  0  0  0  0  0  0  0  # atno 17320 bound_to 7965
  146.3527  140.0996  142.8608 LP  0  0  0  0  0  0  0  0  0  0  0  0  # atno 17321 bound_to 7965
  139.4850  144.4655  151.9489 LP  0  0  0  0  0  0  0  0  0  0  0  0  # atno 17342 bound_to 10162
  140.3742  144.2817  150.5916 LP  0  0  0  0  0  0  0  0  0  0  0  0  # atno 17343 bound_to 10162
  157.0504  131.0061  151.3255 LP  0  0  0  0  0  0  0  0  0  0  0  0  # atno 17370 bound_to 10713
  157.5144  130.7959  149.7740 LP  0  0  0  0  0  0  0  0  0  0  0  0  # atno 17371 bound_to 10713
  141.2227  133.7087  156.8235 LP  0  0  0  0  0  0  0  0  0  0  0  0  # atno 17394 bound_to 11000
  140.2069  134.8856  157.3231 LP  0  0  0  0  0  0  0  0  0  0  0  0  # atno 17395 bound_to 11000

$$$$
