AV-unprocessed.smi:2074|AV-procd|sdf|8455|dock7
  -GOLD-   2272011153D 1   1.00000     0.00000
 Structure written by MMmdl.
 44 45  0  0  0  0  0  0  0  0  2 V2000
  144.6898  130.0557  152.1336 C   0  0  0  0  0  0  0  0  0  0  0  0
  144.3878  131.3996  151.5349 C   0  0  0  0  0  0  0  0  0  0  0  0
  143.3651  131.5288  150.7069 N   0  0  0  0  0  0  0  0  0  0  0  0
  143.3446  132.8749  150.3298 O   0  0  0  0  0  0  0  0  0  0  0  0
  144.3663  133.5119  150.9564 C   0  0  0  0  0  0  0  0  0  0  0  0
  144.5127  134.9706  150.6816 C   0  0  0  0  0  0  0  0  0  0  0  0
  145.0680  132.6351  151.7379 C   0  0  0  0  0  0  0  0  0  0  0  0
  146.2700  132.9050  152.6062 C   0  0  0  0  0  0  0  0  0  0  0  0
  145.9728  134.0727  153.5467 C   0  0  0  0  0  0  0  0  0  0  0  0
  144.9879  134.0331  154.2834 O   0  0  0  0  0  0  0  0  0  0  0  0
  146.8312  135.1046  153.5112 N   0  0  0  0  0  0  0  0  0  0  0  0
  146.7639  136.2937  154.3577 C   0  0  0  0  0  0  0  0  0  0  0  0
  148.0524  136.5304  155.1960 C   0  0  1  0  0  0  0  0  0  0  0  0
  148.6688  135.1821  155.6425 C   0  0  0  0  0  0  0  0  0  0  0  0
  149.0627  137.3745  154.4719 N   0  3  0  0  0  0  0  0  0  0  0  0
  148.6970  138.8158  154.3626 C   0  0  0  0  0  0  0  0  0  0  0  0
  149.7727  139.6202  153.6129 C   0  0  0  0  0  0  0  0  0  0  0  0
  151.0264  139.4665  154.2579 O   0  0  0  0  0  0  0  0  0  0  0  0
  151.4458  138.1116  154.2447 C   0  0  0  0  0  0  0  0  0  0  0  0
  150.4402  137.2519  155.0281 C   0  0  0  0  0  0  0  0  0  0  0  0
  145.7616  129.8574  152.1313 H   0  0  0  0  0  0  0  0  0  0  0  0
  144.2059  129.2498  151.5801 H   0  0  0  0  0  0  0  0  0  0  0  0
  144.3446  130.0040  153.1661 H   0  0  0  0  0  0  0  0  0  0  0  0
  144.9389  135.4884  151.5409 H   0  0  0  0  0  0  0  0  0  0  0  0
  143.5468  135.4256  150.4619 H   0  0  0  0  0  0  0  0  0  0  0  0
  145.1685  135.1375  149.8271 H   0  0  0  0  0  0  0  0  0  0  0  0
  146.5468  132.0290  153.1941 H   0  0  0  0  0  0  0  0  0  0  0  0
  147.1453  133.1502  152.0035 H   0  0  0  0  0  0  0  0  0  0  0  0
  147.6088  135.0460  152.8696 H   0  0  0  0  0  0  0  0  0  0  0  0
  146.5264  137.1824  153.7706 H   0  0  0  0  0  0  0  0  0  0  0  0
  145.9081  136.1145  155.0071 H   0  0  0  0  0  0  0  0  0  0  0  0
  147.7572  137.0752  156.0942 H   0  0  0  0  0  0  0  0  0  0  0  0
  147.9430  134.5497  156.1517 H   0  0  0  0  0  0  0  0  0  0  0  0
  149.4801  135.3052  156.3575 H   0  0  0  0  0  0  0  0  0  0  0  0
  149.0508  134.6206  154.7894 H   0  0  0  0  0  0  0  0  0  0  0  0
  147.7680  138.9425  153.8094 H   0  0  0  0  0  0  0  0  0  0  0  0
  148.5457  139.2314  155.3600 H   0  0  0  0  0  0  0  0  0  0  0  0
  149.8419  139.3030  152.5709 H   0  0  0  0  0  0  0  0  0  0  0  0
  149.5099  140.6781  153.6044 H   0  0  0  0  0  0  0  0  0  0  0  0
  151.5490  137.7558  153.2180 H   0  0  0  0  0  0  0  0  0  0  0  0
  152.4326  138.0449  154.7035 H   0  0  0  0  0  0  0  0  0  0  0  0
  150.4380  137.5478  156.0783 H   0  0  0  0  0  0  0  0  0  0  0  0
  150.7943  136.2242  154.9849 H   0  0  0  0  0  0  0  0  0  0  0  0
  149.1017  137.0234  153.5255 H   0  0  0  0  0  0  0  0  0  0  0  0
  1  2  1  0  0  0  0
  1 21  1  0  0  0  0
  1 22  1  0  0  0  0
  1 23  1  0  0  0  0
  2  7  1  0  0  0  0
  2  3  2  0  0  0  0
  3  4  1  0  0  0  0
  4  5  1  0  0  0  0
  5  6  1  0  0  0  0
  5  7  2  0  0  0  0
  6 24  1  0  0  0  0
  6 25  1  0  0  0  0
  6 26  1  0  0  0  0
  7  8  1  0  0  0  0
  8  9  1  0  0  0  0
  8 27  1  0  0  0  0
  8 28  1  0  0  0  0
  9 10  2  0  0  0  0
  9 11  1  0  0  0  0
 11 12  1  0  0  0  0
 11 29  1  0  0  0  0
 12 13  1  0  0  0  0
 12 30  1  0  0  0  0
 12 31  1  0  0  0  0
 13 14  1  0  0  0  0
 13 15  1  0  0  0  0
 13 32  1  0  0  0  0
 14 33  1  0  0  0  0
 14 34  1  0  0  0  0
 14 35  1  0  0  0  0
 15 20  1  0  0  0  0
 15 16  1  0  0  0  0
 15 44  1  0  0  0  0
 16 17  1  0  0  0  0
 16 36  1  0  0  0  0
 16 37  1  0  0  0  0
 17 18  1  0  0  0  0
 17 38  1  0  0  0  0
 17 39  1  0  0  0  0
 18 19  1  0  0  0  0
 19 20  1  0  0  0  0
 19 40  1  0  0  0  0
 19 41  1  0  0  0  0
 20 42  1  0  0  0  0
 20 43  1  0  0  0  0
M  CHG  1  15   1
M  END
> <s_m_source_file>
AV-unprocessed.smi

> <i_m_source_file_index>
2074

> <i_lp_mmshare_version>
43012

> <i_f3d_flags>
0

> <s_epik_input>
W0NIM11jMW5vYyhbQ0gzXSljMVtDSDJdQyg9TylbTkhdW0NIMl1bQ0BIXShbQ0gzXSlOMltDSDJdW0NIMl1PW0NIMl1bQ0gyXTI=

> <s_epik_cmdline>
J2VwaWtfcHl0aG9uJywgJy1waCcsICc3LjAnLCAnLXRuJywgJzgnLCAnLW1hJywgJzIwMCcsICctbWV0YWxfYmluZGluZycsICctaW1hZScsICc8aW5maWxlLm1hZT4nLCAnLW9tYWUnLCAnPG91dGZpbGUubWFlPic=

> <r_epik_Ionization_Penalty>
0.663207

> <r_epik_Ionization_Penalty_Charging>
0.663207

> <r_epik_Ionization_Penalty_Neutral>
1.0751e-07

> <r_epik_State_Penalty>
0.682743

> <r_epik_Charging_Adjusted_Penalty>
1.34595

> <i_epik_Tot_Q>
1

> <i_epik_Tot_abs_Q>
1

> <r_epik_Metal_State_Penalty>
0.682743

> <b_epik_Metal_Only>
0

> <s_lp_Force_Field>
OPLS_2005

> <r_lp_Energy>
15.6967

> <b_lp_Chiralities_Consistent>
1

> <s_lp_Variant>
AV-unprocessed.smi:2074-4

> <Gold.Version>
5.8.1

> <Gold.Id.Protein>
6NUR|6NUR_protein|mol2

> <Gold.PLP.Fitness>
41.6000

> <Gold.PLP.PLP>
-29.2767

> <Gold.PLP.part.hbond>
-4.0000

> <Gold.PLP.part.metal>
0.0000

> <Gold.PLP.part.buried>
-3.7806

> <Gold.PLP.part.nonpolar>
-22.5257

> <Gold.PLP.part.repulsive>
0.5571

> <Gold.PLP.ligand.clash>
0.0000

> <Gold.PLP.ligand.torsion>
0.7140

> <Gold.PLP.Chemscore.Hbond>
4.5616

> <Gold.PLP.Chemscore.CHOScore>
0.0000

> <Gold.PLP.Chemscore.Metal>
0.0000

> <Gold.Chemscore.Hbonds>
donor molecule, donor type, donor heavy atom, donor atom, acceptor molecule, acceptor atom, score
      L1  H    11    29       P1  7948  0.84
      L1  H    15    44       P1  7948  2.00
      P1  H  7989  7998       L1    18  0.55
      P1  H 10785 10796       L1     3  0.07

> <Gold.PLP.Chemscore.Internal.Correction>
0.0665

> <Gold.Rescore>
     Score         DG    S(hbond)    S(metal)    S(lipo)     H(rot)  DE(clash)    DE(int)     intcor
     17.73     -20.52       3.04        0.00      81.02       1.80       2.06       0.74       ----

> <Gold.Chemscore.Fitness>
17.7261

> <Gold.Chemscore.DG>
-20.5205

> <Gold.Chemscore.ZeroCoef>
-5.4800

> <Gold.Chemscore.Hbond>
3.0416

> <Gold.Chemscore.Metal>
0.0000

> <Gold.Chemscore.Lipo>
81.0219

> <Gold.Chemscore.Internal_Hbond>
0.0000

> <Gold.Chemscore.DEClash>
2.0564

> <Gold.Chemscore.DEInternal>
0.7381

> <Gold.Chemscore.Rot>
1.7961

> <Gold.Chemscore.Internal.Correction>
   9.000000E+99

> <Gold.Chemscore.Hbonds>
donor molecule, donor type, donor heavy atom, donor atom, acceptor molecule, acceptor atom, score
      L1  H    11    29       P1  7948  0.78
      L1  H    15    44       P1  7948  1.00
      P1  H  7989  7998       L1    18  0.03
      P1  H 10785 10796       L1     3  0.07

> <Gold.Chemscore.Hbond.Weighted>
-10.1590

> <Gold.Chemscore.Metal.Weighted>
-0.0000

> <Gold.Chemscore.Lipo.Weighted>
-9.4796

> <Gold.Chemscore.Internal_Hbond.Weighted>
0.0000

> <Gold.Chemscore.DEClash.Weighted>
2.0564

> <Gold.Chemscore.DEInternal.Weighted>
0.7381

> <Gold.Chemscore.Rot.Weighted>
4.5980

> <Gold.Chemscore.Internal.Correction.Weighted>
   9.000000E+99

> <Gold.Protein.RotatedTorsions>
[ 6907 6896 6895 6894 ] final    6.76 input  -60.11 | X-H torsion
[ 7974 7965 7964 7962 ] final -152.30 input  175.53 | X-H torsion
[ 8008 7997 7996 7995 ] final  -88.39 input   59.86 | X-H torsion
[ 10167 10162 10161 10158 ] final -103.97 input  -65.29 | X-H torsion
[ 10718 10713 10712 10709 ] final -171.09 input   66.30 | X-H torsion
[ 10763 10752 10751 10750 ] final  -44.27 input  -60.55 | X-H torsion
[ 11005 11000 10999 10996 ] final   34.21 input  -57.11 | X-H torsion

> <Gold.Protein.ActiveResidues>
 VAL166  LYS551  ARG553  GLY616  TRP617  ASP618  TYR619  PRO620  LYS621  CYS622 
 ASP623  PHE694  ASN695  SER759  ASP760  ASP761  ALA762  ILE779  LEU786  VAL792 
 PHE793  MET794  SER795  GLU796  ALA797  LYS798  CYS799  TRP800  GLU811  SER814 

> <Gold.Protein.RotatedAtoms>
  151.6789  135.0965  160.0211 H   0  0  0  0  0  0  0  0  0  0  0  0  # atno 6907 bound_to 6896
  152.3847  133.6591  159.6198 H   0  0  0  0  0  0  0  0  0  0  0  0  # atno 6908 bound_to 6896
  150.7776  133.8971  159.3371 H   0  0  0  0  0  0  0  0  0  0  0  0  # atno 6909 bound_to 6896
  144.7802  140.4681  143.5845 H   0  0  0  0  0  0  0  0  0  0  0  0  # atno 7974 bound_to 7965
  154.6743  140.0554  157.0199 H   0  0  0  0  0  0  0  0  0  0  0  0  # atno 8008 bound_to 7997
  155.1043  140.3232  155.4520 H   0  0  0  0  0  0  0  0  0  0  0  0  # atno 8009 bound_to 7997
  156.2670  140.2025  156.6169 H   0  0  0  0  0  0  0  0  0  0  0  0  # atno 8010 bound_to 7997
  140.2143  143.3723  152.1024 H   0  0  0  0  0  0  0  0  0  0  0  0  # atno 10167 bound_to 10162
  156.7358  130.9323  151.3107 H   0  0  0  0  0  0  0  0  0  0  0  0  # atno 10718 bound_to 10713
  154.0093  135.6683  153.4764 H   0  0  0  0  0  0  0  0  0  0  0  0  # atno 10763 bound_to 10752
  153.0628  135.5018  154.8128 H   0  0  0  0  0  0  0  0  0  0  0  0  # atno 10764 bound_to 10752
  154.7005  135.3078  154.9311 H   0  0  0  0  0  0  0  0  0  0  0  0  # atno 10765 bound_to 10752
  140.2552  134.3257  155.7876 H   0  0  0  0  0  0  0  0  0  0  0  0  # atno 11005 bound_to 11000
  145.6073  139.1509  143.3096 LP  0  0  0  0  0  0  0  0  0  0  0  0  # atno 17320 bound_to 7965
  146.2005  140.6191  142.9104 LP  0  0  0  0  0  0  0  0  0  0  0  0  # atno 17321 bound_to 7965
  139.5168  144.6983  151.5568 LP  0  0  0  0  0  0  0  0  0  0  0  0  # atno 17342 bound_to 10162
  140.6301  143.9092  150.6598 LP  0  0  0  0  0  0  0  0  0  0  0  0  # atno 17343 bound_to 10162
  157.6840  130.9167  150.0338 LP  0  0  0  0  0  0  0  0  0  0  0  0  # atno 17370 bound_to 10713
  156.1498  130.3642  149.9455 LP  0  0  0  0  0  0  0  0  0  0  0  0  # atno 17371 bound_to 10713
  141.2197  133.7377  156.9100 LP  0  0  0  0  0  0  0  0  0  0  0  0  # atno 17394 bound_to 11000
  140.1519  134.9224  157.2603 LP  0  0  0  0  0  0  0  0  0  0  0  0  # atno 17395 bound_to 11000

$$$$
