AV-unprocessed.smi:38|AV-procd|sdf|350|dock6
  -GOLD-   2262016193D 1   1.00000     0.00000
 Structure written by MMmdl.
 27 28  0  0  0  0  0  0  0  0  2 V2000
  151.6780  135.0025  157.3175 O   0  0  0  0  0  0  0  0  0  0  0  0
  151.6968  136.1953  157.0181 C   0  0  0  0  0  0  0  0  0  0  0  0
  152.6319  136.7327  156.1823 N   0  5  0  0  0  0  0  0  0  0  0  0
  152.6505  138.0570  155.8502 C   0  0  0  0  0  0  0  0  0  0  0  0
  153.5020  138.5526  155.1119 O   0  0  0  0  0  0  0  0  0  0  0  0
  151.6496  138.9145  156.3844 N   0  0  0  0  0  0  0  0  0  0  0  0
  151.6669  140.3855  156.0236 C   0  0  2  0  0  0  0  0  0  0  0  0
  151.1162  141.2234  157.1804 C   0  0  0  0  0  0  0  0  0  0  0  0
  149.6693  141.3999  156.7699 C   0  0  1  0  0  0  0  0  0  0  0  0
  149.1144  142.5564  157.3621 O   0  0  0  0  0  0  0  0  0  0  0  0
  149.7893  141.5181  155.2486 C   0  0  2  0  0  0  0  0  0  0  0  0
  148.4996  141.1484  154.4987 C   0  0  0  0  0  0  0  0  0  0  0  0
  148.6602  141.3697  153.1137 O   0  0  0  0  0  0  0  0  0  0  0  0
  150.8361  140.6049  154.9182 O   0  0  0  0  0  0  0  0  0  0  0  0
  150.6949  138.3976  157.2445 C   0  0  0  0  0  0  0  0  0  0  0  0
  150.6838  137.0900  157.5741 C   0  0  0  0  0  0  0  0  0  0  0  0
  149.7449  136.6194  158.4130 F   0  0  0  0  0  0  0  0  0  0  0  0
  152.6987  140.6201  155.7575 H   0  0  0  0  0  0  0  0  0  0  0  0
  149.0890  140.5186  157.0471 H   0  0  0  0  0  0  0  0  0  0  0  0
  150.1173  142.5274  154.9911 H   0  0  0  0  0  0  0  0  0  0  0  0
  151.2491  140.7411  158.1498 H   0  0  0  0  0  0  0  0  0  0  0  0
  151.6420  142.1795  157.1873 H   0  0  0  0  0  0  0  0  0  0  0  0
  149.3330  143.3016  156.8238 H   0  0  0  0  0  0  0  0  0  0  0  0
  148.2082  140.1151  154.6862 H   0  0  0  0  0  0  0  0  0  0  0  0
  147.6778  141.7806  154.8354 H   0  0  0  0  0  0  0  0  0  0  0  0
  148.8742  140.5471  152.7012 H   0  0  0  0  0  0  0  0  0  0  0  0
  149.9421  139.0413  157.6710 H   0  0  0  0  0  0  0  0  0  0  0  0
  1  2  2  0  0  0  0
  2 16  1  0  0  0  0
  2  3  1  0  0  0  0
  3  4  1  0  0  0  0
  4  5  2  0  0  0  0
  4  6  1  0  0  0  0
  6  7  1  0  0  0  0
  6 15  1  0  0  0  0
  7 18  1  0  0  0  0
  7 14  1  0  0  0  0
  7  8  1  0  0  0  0
  8  9  1  0  0  0  0
  8 21  1  0  0  0  0
  8 22  1  0  0  0  0
  9 19  1  0  0  0  0
  9 10  1  0  0  0  0
  9 11  1  0  0  0  0
 10 23  1  0  0  0  0
 11 20  1  0  0  0  0
 11 12  1  0  0  0  0
 11 14  1  0  0  0  0
 12 13  1  0  0  0  0
 12 24  1  0  0  0  0
 12 25  1  0  0  0  0
 13 26  1  0  0  0  0
 15 16  2  0  0  0  0
 15 27  1  0  0  0  0
 16 17  1  0  0  0  0
M  CHG  1   3  -1
M  END
> <s_m_source_file>
AV-unprocessed.smi

> <i_m_source_file_index>
38

> <i_lp_mmshare_version>
43012

> <i_f3d_flags>
0

> <s_epik_input>
Tz1jMVtuSF1jKD1PKW4oW2NIXWMxRilbQ0BIXTJbQ0gyXVtDQEhdKFtPSF0pW0NASF0oTzIpW0NIMl1bT0hd

> <s_epik_cmdline>
J2VwaWtfcHl0aG9uJywgJy1waCcsICc3LjAnLCAnLXRuJywgJzgnLCAnLW1hJywgJzIwMCcsICctbWV0YWxfYmluZGluZycsICctaW1hZScsICc8aW5maWxlLm1hZT4nLCAnLW9tYWUnLCAnPG91dGZpbGUubWFlPic=

> <r_epik_Ionization_Penalty>
1.68146

> <r_epik_Ionization_Penalty_Charging>
3.4211e-08

> <r_epik_Ionization_Penalty_Neutral>
1.68146

> <r_epik_State_Penalty>
1.78593

> <r_epik_Charging_Adjusted_Penalty>
1.78593

> <i_epik_Tot_Q>
-1

> <i_epik_Tot_abs_Q>
1

> <r_epik_Metal_State_Penalty>
0.0113696

> <b_epik_Metal_Only>
0

> <s_epik_Chemistry_Notes>
This compound contains an acetal/aminal-like group ( X-CH(R)-Y where X, Y are N, S, or O) that may be acid/base labile, releasing an aldehyde.

> <s_lp_Force_Field>
OPLS_2005

> <r_lp_Energy>
36.3433

> <b_lp_Chiralities_Consistent>
1

> <s_lp_Variant>
AV-unprocessed.smi:38-16

> <Gold.Version>
5.8.1

> <Gold.Id.Protein>
6NUR|6NUR_protein|mol2

> <Gold.PLP.Fitness>
42.6107

> <Gold.PLP.PLP>
-24.9905

> <Gold.PLP.part.hbond>
-6.9253

> <Gold.PLP.part.metal>
0.0000

> <Gold.PLP.part.buried>
-2.2267

> <Gold.PLP.part.nonpolar>
-16.0604

> <Gold.PLP.part.repulsive>
0.0765

> <Gold.PLP.ligand.clash>
0.0000

> <Gold.PLP.ligand.torsion>
0.7591

> <Gold.PLP.Chemscore.Hbond>
6.3760

> <Gold.PLP.Chemscore.CHOScore>
0.0000

> <Gold.PLP.Chemscore.Metal>
0.0000

> <Gold.Chemscore.Hbonds>
donor molecule, donor type, donor heavy atom, donor atom, acceptor molecule, acceptor atom, score
      L1  H    10    23       P1  8028  1.00
      L1  H    13    26       P1  7957  0.70
      P1  H  7989  7998       L1    14  0.98
      P1  H  7997  8009       L1     5  0.89
      P1  H  8011  8017       L1    13  0.91
      P1  H 10752 10764       L1     3  1.89

> <Gold.PLP.Chemscore.Internal.Correction>
0.0104

> <Gold.Rescore>
     Score         DG    S(hbond)    S(metal)    S(lipo)     H(rot)  DE(clash)    DE(int)     intcor
     16.00     -17.03       4.55        0.00      31.87       2.88       0.28       0.74       ----

> <Gold.Chemscore.Fitness>
16.0030

> <Gold.Chemscore.DG>
-17.0316

> <Gold.Chemscore.ZeroCoef>
-5.4800

> <Gold.Chemscore.Hbond>
4.5505

> <Gold.Chemscore.Metal>
0.0000

> <Gold.Chemscore.Lipo>
31.8750

> <Gold.Chemscore.Internal_Hbond>
0.0000

> <Gold.Chemscore.DEClash>
0.2842

> <Gold.Chemscore.DEInternal>
0.7443

> <Gold.Chemscore.Rot>
2.8815

> <Gold.Chemscore.Internal.Correction>
   9.000000E+99

> <Gold.Chemscore.Hbonds>
donor molecule, donor type, donor heavy atom, donor atom, acceptor molecule, acceptor atom, score
      L1  H    10    23       P1  8028  0.95
      L1  H    13    26       P1  7957  0.70
      P1  H  7989  7998       L1    14  0.78
      P1  H  7997  8009       L1     5  0.72
      P1  H  8011  8017       L1    13  0.23
      P1  H 10752 10764       L1     3  0.64

> <Gold.Chemscore.Hbond.Weighted>
-15.1988

> <Gold.Chemscore.Metal.Weighted>
-0.0000

> <Gold.Chemscore.Lipo.Weighted>
-3.7294

> <Gold.Chemscore.Internal_Hbond.Weighted>
0.0000

> <Gold.Chemscore.DEClash.Weighted>
0.2842

> <Gold.Chemscore.DEInternal.Weighted>
0.7443

> <Gold.Chemscore.Rot.Weighted>
7.3765

> <Gold.Chemscore.Internal.Correction.Weighted>
   9.000000E+99

> <Gold.Protein.RotatedTorsions>
[ 6907 6896 6895 6894 ] final  107.97 input  -60.11 | X-H torsion
[ 7974 7965 7964 7962 ] final  140.65 input  175.53 | X-H torsion
[ 8008 7997 7996 7995 ] final -137.35 input   59.86 | X-H torsion
[ 10167 10162 10161 10158 ] final   82.99 input  -65.29 | X-H torsion
[ 10718 10713 10712 10709 ] final    7.68 input   66.30 | X-H torsion
[ 10763 10752 10751 10750 ] final  -20.65 input  -60.55 | X-H torsion
[ 11005 11000 10999 10996 ] final  148.39 input  -57.11 | X-H torsion

> <Gold.Protein.ActiveResidues>
 VAL166  LYS551  ARG553  GLY616  TRP617  ASP618  TYR619  PRO620  LYS621  CYS622 
 ASP623  PHE694  ASN695  SER759  ASP760  ASP761  ALA762  ILE779  LEU786  VAL792 
 PHE793  MET794  SER795  GLU796  ALA797  LYS798  CYS799  TRP800  GLU811  SER814 

> <Gold.Protein.RotatedAtoms>
  152.5132  133.9156  159.7509 H   0  0  0  0  0  0  0  0  0  0  0  0  # atno 6907 bound_to 6896
  150.9539  133.6510  159.2773 H   0  0  0  0  0  0  0  0  0  0  0  0  # atno 6908 bound_to 6896
  151.3778  135.0939  159.9539 H   0  0  0  0  0  0  0  0  0  0  0  0  # atno 6909 bound_to 6896
  144.9167  139.5221  143.5683 H   0  0  0  0  0  0  0  0  0  0  0  0  # atno 7974 bound_to 7965
  155.4104  140.0512  157.3032 H   0  0  0  0  0  0  0  0  0  0  0  0  # atno 8008 bound_to 7997
  154.4949  140.2134  155.9429 H   0  0  0  0  0  0  0  0  0  0  0  0  # atno 8009 bound_to 7997
  156.1392  140.3157  155.8473 H   0  0  0  0  0  0  0  0  0  0  0  0  # atno 8010 bound_to 7997
  139.9231  144.6200  150.8420 H   0  0  0  0  0  0  0  0  0  0  0  0  # atno 10167 bound_to 10162
  156.9404  130.5859  149.5652 H   0  0  0  0  0  0  0  0  0  0  0  0  # atno 10718 bound_to 10713
  153.6238  135.6991  153.5300 H   0  0  0  0  0  0  0  0  0  0  0  0  # atno 10763 bound_to 10752
  153.2915  135.4155  155.1171 H   0  0  0  0  0  0  0  0  0  0  0  0  # atno 10764 bound_to 10752
  154.8537  135.3626  154.5780 H   0  0  0  0  0  0  0  0  0  0  0  0  # atno 10765 bound_to 10752
  140.0955  134.9015  157.1717 H   0  0  0  0  0  0  0  0  0  0  0  0  # atno 11005 bound_to 11000
  146.3185  139.8015  142.8964 LP  0  0  0  0  0  0  0  0  0  0  0  0  # atno 17320 bound_to 7965
  145.3364  141.0278  143.3417 LP  0  0  0  0  0  0  0  0  0  0  0  0  # atno 17321 bound_to 7965
  140.7657  143.3283  151.2467 LP  0  0  0  0  0  0  0  0  0  0  0  0  # atno 17342 bound_to 10162
  139.6845  143.9797  152.2826 LP  0  0  0  0  0  0  0  0  0  0  0  0  # atno 17343 bound_to 10162
  156.0407  130.5489  150.8763 LP  0  0  0  0  0  0  0  0  0  0  0  0  # atno 17370 bound_to 10713
  157.5788  131.0946  150.9303 LP  0  0  0  0  0  0  0  0  0  0  0  0  # atno 17371 bound_to 10713
  140.3292  134.2829  155.7231 LP  0  0  0  0  0  0  0  0  0  0  0  0  # atno 17394 bound_to 11000
  141.2091  133.7759  157.0019 LP  0  0  0  0  0  0  0  0  0  0  0  0  # atno 17395 bound_to 11000

$$$$
