AV-unprocessed.smi:3089|AV-procd|sdf|11772|dock9
  -GOLD-   2272017153D 1   1.00000     0.00000
 Structure written by MMmdl.
 24 24  0  0  0  0  0  0  0  0  1 V2000
  151.9108  142.7688  157.9349 C   0  0  0  0  0  0  0  0  0  0  0  0
  151.3207  141.8187  157.0168 N   0  0  0  0  0  0  0  0  0  0  0  0
  150.2421  141.9901  156.1769 C   0  0  0  0  0  0  0  0  0  0  0  0
  150.0552  140.8184  155.4961 C   0  0  0  0  0  0  0  0  0  0  0  0
  149.0067  140.4897  154.4541 C   0  0  1  0  0  0  0  0  0  0  0  0
  147.6237  140.9545  154.9433 C   0  0  0  0  0  0  0  0  0  0  0  0
  149.2240  141.1773  153.2366 O   0  0  0  0  0  0  0  0  0  0  0  0
  148.9708  138.9807  154.1245 C   0  0  0  0  0  0  0  0  0  0  0  0
  148.1902  138.6569  152.9181 N   0  0  0  0  0  0  0  0  0  0  0  0
  151.0889  139.9799  156.0086 C   0  0  0  0  0  0  0  0  0  0  0  0
  151.8432  140.5804  156.9148 N   0  0  0  0  0  0  0  0  0  0  0  0
  151.3779  143.7185  157.8839 H   0  0  0  0  0  0  0  0  0  0  0  0
  152.9561  142.9351  157.6726 H   0  0  0  0  0  0  0  0  0  0  0  0
  151.8524  142.3840  158.9534 H   0  0  0  0  0  0  0  0  0  0  0  0
  149.7004  142.9233  156.1302 H   0  0  0  0  0  0  0  0  0  0  0  0
  147.3387  140.4507  155.8676 H   0  0  0  0  0  0  0  0  0  0  0  0
  146.8472  140.7447  154.2065 H   0  0  0  0  0  0  0  0  0  0  0  0
  147.6116  142.0279  155.1387 H   0  0  0  0  0  0  0  0  0  0  0  0
  149.4142  140.5422  152.5635 H   0  0  0  0  0  0  0  0  0  0  0  0
  149.9918  138.6267  153.9776 H   0  0  0  0  0  0  0  0  0  0  0  0
  148.5836  138.4234  154.9783 H   0  0  0  0  0  0  0  0  0  0  0  0
  148.3971  139.3175  152.1706 H   0  0  0  0  0  0  0  0  0  0  0  0
  148.4372  137.7293  152.5757 H   0  0  0  0  0  0  0  0  0  0  0  0
  151.3126  138.9558  155.7480 H   0  0  0  0  0  0  0  0  0  0  0  0
  1  2  1  0  0  0  0
  1 12  1  0  0  0  0
  1 13  1  0  0  0  0
  1 14  1  0  0  0  0
  2 11  1  0  0  0  0
  2  3  1  0  0  0  0
  3  4  2  0  0  0  0
  3 15  1  0  0  0  0
  4  5  1  0  0  0  0
  4 10  1  0  0  0  0
  5  6  1  0  0  0  0
  5  7  1  0  0  0  0
  5  8  1  0  0  0  0
  6 16  1  0  0  0  0
  6 17  1  0  0  0  0
  6 18  1  0  0  0  0
  7 19  1  0  0  0  0
  8  9  1  0  0  0  0
  8 20  1  0  0  0  0
  8 21  1  0  0  0  0
  9 22  1  0  0  0  0
  9 23  1  0  0  0  0
 10 11  2  0  0  0  0
 10 24  1  0  0  0  0
M  END
> <s_m_source_file>
AV-unprocessed.smi

> <i_m_source_file_index>
3089

> <i_lp_mmshare_version>
43012

> <i_f3d_flags>
0

> <s_epik_input>
W0NIM11uMVtjSF1jKFtjSF1uMSlbQ0BAXShbQ0gzXSkoW09IXSlbQ0gyXVtOSDJd

> <s_epik_cmdline>
J2VwaWtfcHl0aG9uJywgJy1waCcsICc3LjAnLCAnLXRuJywgJzgnLCAnLW1hJywgJzIwMCcsICctbWV0YWxfYmluZGluZycsICctaW1hZScsICc8aW5maWxlLm1hZT4nLCAnLW9tYWUnLCAnPG91dGZpbGUubWFlPic=

> <r_lp_tautomer_probability>
1

> <r_epik_Ionization_Penalty>
2.22427

> <r_epik_Ionization_Penalty_Charging>
0

> <r_epik_Ionization_Penalty_Neutral>
2.22427

> <r_epik_State_Penalty>
2.36938

> <r_epik_Charging_Adjusted_Penalty>
2.36938

> <i_epik_Tot_Q>
0

> <i_epik_Tot_abs_Q>
0

> <r_epik_Metal_State_Penalty>
2.36933

> <b_epik_Metal_Only>
0

> <s_lp_Force_Field>
OPLS_2005

> <r_lp_Energy>
8.30458

> <b_lp_Chiralities_Consistent>
1

> <s_lp_Variant>
AV-unprocessed.smi:3089-3

> <Gold.Version>
5.8.1

> <Gold.Id.Protein>
6NUR|6NUR_protein|mol2

> <Gold.PLP.Fitness>
35.3112

> <Gold.PLP.PLP>
-22.3913

> <Gold.PLP.part.hbond>
-4.5004

> <Gold.PLP.part.metal>
0.0000

> <Gold.PLP.part.buried>
-2.6847

> <Gold.PLP.part.nonpolar>
-14.8493

> <Gold.PLP.part.repulsive>
0.0000

> <Gold.PLP.ligand.clash>
0.0000

> <Gold.PLP.ligand.torsion>
0.4899

> <Gold.PLP.Chemscore.Hbond>
3.6263

> <Gold.PLP.Chemscore.CHOScore>
1.0000

> <Gold.PLP.Chemscore.Metal>
0.0000

> <Gold.Chemscore.Hbonds>
donor molecule, donor type, donor heavy atom, donor atom, acceptor molecule, acceptor atom, score
      L1  H     7    19       P1  7957  0.93
      L1  H     9    22       P1  7957  0.96
      L1  H     9    23       P1  7948  1.00
      P1  H  8011  8017       L1     7  0.60
      L1  C     3    15       P1  8028  0.99

> <Gold.PLP.Chemscore.Internal.Correction>
0.0209

> <Gold.Rescore>
     Score         DG    S(hbond)    S(metal)    S(lipo)     H(rot)  DE(clash)    DE(int)     intcor
     15.98     -16.40       2.99        0.00      48.30       1.84       0.02       0.40       ----

> <Gold.Chemscore.Fitness>
15.9825

> <Gold.Chemscore.DG>
-16.4041

> <Gold.Chemscore.ZeroCoef>
-5.4800

> <Gold.Chemscore.Hbond>
2.9881

> <Gold.Chemscore.Metal>
0.0000

> <Gold.Chemscore.Lipo>
48.2970

> <Gold.Chemscore.Internal_Hbond>
0.0000

> <Gold.Chemscore.DEClash>
0.0231

> <Gold.Chemscore.DEInternal>
0.3985

> <Gold.Chemscore.Rot>
1.8386

> <Gold.Chemscore.Internal.Correction>
   9.000000E+99

> <Gold.Chemscore.Hbonds>
donor molecule, donor type, donor heavy atom, donor atom, acceptor molecule, acceptor atom, score
      L1  H     7    19       P1  7957  0.87
      L1  H     9    22       P1  7957  0.92
      L1  H     9    23       P1  7948  1.00
      P1  H  8011  8017       L1     7  0.04

> <Gold.Chemscore.Hbond.Weighted>
-9.9803

> <Gold.Chemscore.Metal.Weighted>
-0.0000

> <Gold.Chemscore.Lipo.Weighted>
-5.6508

> <Gold.Chemscore.Internal_Hbond.Weighted>
0.0000

> <Gold.Chemscore.DEClash.Weighted>
0.0231

> <Gold.Chemscore.DEInternal.Weighted>
0.3985

> <Gold.Chemscore.Rot.Weighted>
4.7069

> <Gold.Chemscore.Internal.Correction.Weighted>
   9.000000E+99

> <Gold.Protein.RotatedTorsions>
[ 6907 6896 6895 6894 ] final -132.95 input  -60.11 | X-H torsion
[ 7974 7965 7964 7962 ] final   94.21 input  175.53 | X-H torsion
[ 8008 7997 7996 7995 ] final -146.34 input   59.86 | X-H torsion
[ 10167 10162 10161 10158 ] final   62.56 input  -65.29 | X-H torsion
[ 10718 10713 10712 10709 ] final -162.89 input   66.30 | X-H torsion
[ 10763 10752 10751 10750 ] final -109.12 input  -60.55 | X-H torsion
[ 11005 11000 10999 10996 ] final -164.54 input  -57.11 | X-H torsion

> <Gold.Protein.ActiveResidues>
 VAL166  LYS551  ARG553  GLY616  TRP617  ASP618  TYR619  PRO620  LYS621  CYS622 
 ASP623  PHE694  ASN695  SER759  ASP760  ASP761  ALA762  ILE779  LEU786  VAL792 
 PHE793  MET794  SER795  GLU796  ALA797  LYS798  CYS799  TRP800  GLU811  SER814 

> <Gold.Protein.RotatedAtoms>
  150.9683  133.6371  159.2742 H   0  0  0  0  0  0  0  0  0  0  0  0  # atno 6907 bound_to 6896
  151.3668  135.0914  159.9462 H   0  0  0  0  0  0  0  0  0  0  0  0  # atno 6908 bound_to 6896
  152.5174  133.9246  159.7605 H   0  0  0  0  0  0  0  0  0  0  0  0  # atno 6909 bound_to 6896
  145.4686  139.2283  143.2947 H   0  0  0  0  0  0  0  0  0  0  0  0  # atno 7974 bound_to 7965
  155.5577  140.0622  157.2836 H   0  0  0  0  0  0  0  0  0  0  0  0  # atno 8008 bound_to 7997
  154.4400  140.1891  156.0796 H   0  0  0  0  0  0  0  0  0  0  0  0  # atno 8009 bound_to 7997
  156.0469  140.3289  155.7311 H   0  0  0  0  0  0  0  0  0  0  0  0  # atno 8010 bound_to 7997
  140.1426  144.4539  150.6803 H   0  0  0  0  0  0  0  0  0  0  0  0  # atno 10167 bound_to 10162
  156.6169  130.8874  151.2949 H   0  0  0  0  0  0  0  0  0  0  0  0  # atno 10718 bound_to 10713
  154.8175  135.4613  154.0684 H   0  0  0  0  0  0  0  0  0  0  0  0  # atno 10763 bound_to 10752
  153.2065  135.6876  153.8173 H   0  0  0  0  0  0  0  0  0  0  0  0  # atno 10764 bound_to 10752
  153.7639  135.3280  155.3318 H   0  0  0  0  0  0  0  0  0  0  0  0  # atno 10765 bound_to 10752
  140.5858  134.5095  157.5185 H   0  0  0  0  0  0  0  0  0  0  0  0  # atno 11005 bound_to 11000
  146.2409  140.5462  142.8934 LP  0  0  0  0  0  0  0  0  0  0  0  0  # atno 17320 bound_to 7965
  144.7959  140.6121  143.6510 LP  0  0  0  0  0  0  0  0  0  0  0  0  # atno 17321 bound_to 7965
  140.6751  143.2302  151.5527 LP  0  0  0  0  0  0  0  0  0  0  0  0  # atno 17342 bound_to 10162
  139.5464  144.2509  152.1451 LP  0  0  0  0  0  0  0  0  0  0  0  0  # atno 17343 bound_to 10162
  157.7239  130.9595  150.1550 LP  0  0  0  0  0  0  0  0  0  0  0  0  # atno 17370 bound_to 10713
  156.2343  130.3685  149.8408 LP  0  0  0  0  0  0  0  0  0  0  0  0  # atno 17371 bound_to 10713
  139.9296  134.7988  156.0968 LP  0  0  0  0  0  0  0  0  0  0  0  0  # atno 17394 bound_to 11000
  141.0967  133.6693  156.2661 LP  0  0  0  0  0  0  0  0  0  0  0  0  # atno 17395 bound_to 11000

$$$$
