AV-unprocessed.smi:910|AV-procd|sdf|4122|dock5
  -GOLD-   22720 2 23D 1   1.00000     0.00000
 Structure written by MMmdl.
 46 47  0  0  0  0  0  0  0  0  1 V2000
  146.4968  138.8058  152.2292 C   0  0  0  0  0  0  0  0  0  0  0  0
  147.6938  139.2233  153.0549 C   0  0  0  0  0  0  0  0  0  0  0  0
  148.7137  138.3574  153.3429 N   0  0  0  0  0  0  0  0  0  0  0  0
  149.6468  139.0301  154.1162 C   0  0  0  0  0  0  0  0  0  0  0  0
  150.7632  138.5735  154.5925 N   0  0  0  0  0  0  0  0  0  0  0  0
  151.5432  139.4239  155.3580 C   0  0  0  0  0  0  0  0  0  0  0  0
  152.6916  139.8107  155.1187 O   0  0  0  0  0  0  0  0  0  0  0  0
  150.9018  139.7585  156.4879 N   0  0  0  0  0  0  0  0  0  0  0  0
  151.4569  140.5612  157.5729 C   0  0  0  0  0  0  0  0  0  0  0  0
  150.5500  141.7559  157.8989 C   0  0  0  0  0  0  0  0  0  0  0  0
  151.0704  142.4428  159.0264 O   0  0  0  0  0  0  0  0  0  0  0  0
  152.3820  142.9641  158.8515 C   0  0  2  0  0  0  0  0  0  0  0  0
  153.3680  141.9734  159.4982 C   0  0  0  0  0  0  0  0  0  0  0  0
  153.1923  141.8999  161.0246 C   0  0  0  0  0  0  0  0  0  0  0  0
  153.3050  143.2905  161.6661 C   0  0  0  0  0  0  0  0  0  0  0  0
  152.3083  144.2735  161.0344 C   0  0  0  0  0  0  0  0  0  0  0  0
  152.4868  144.3625  159.5065 C   0  0  2  0  0  0  0  0  0  0  0  0
  151.5226  145.3852  158.8863 C   0  0  0  0  0  0  0  0  0  0  0  0
  149.1661  140.3090  154.2803 O   0  0  0  0  0  0  0  0  0  0  0  0
  147.9770  140.3931  153.6228 C   0  0  0  0  0  0  0  0  0  0  0  0
  147.2212  141.7026  153.6534 C   0  0  0  0  0  0  0  0  0  0  0  0
  145.5791  138.9391  152.8022 H   0  0  0  0  0  0  0  0  0  0  0  0
  146.5701  137.7586  151.9354 H   0  0  0  0  0  0  0  0  0  0  0  0
  146.4313  139.4130  151.3264 H   0  0  0  0  0  0  0  0  0  0  0  0
  148.7379  137.3988  153.0276 H   0  0  0  0  0  0  0  0  0  0  0  0
  149.9686  139.3969  156.6223 H   0  0  0  0  0  0  0  0  0  0  0  0
  151.6349  139.9556  158.4631 H   0  0  0  0  0  0  0  0  0  0  0  0
  152.4315  140.9248  157.2473 H   0  0  0  0  0  0  0  0  0  0  0  0
  150.5127  142.4399  157.0502 H   0  0  0  0  0  0  0  0  0  0  0  0
  149.5317  141.4112  158.0836 H   0  0  0  0  0  0  0  0  0  0  0  0
  152.6304  143.0416  157.7909 H   0  0  0  0  0  0  0  0  0  0  0  0
  153.2404  140.9825  159.0614 H   0  0  0  0  0  0  0  0  0  0  0  0
  154.3892  142.2799  159.2691 H   0  0  0  0  0  0  0  0  0  0  0  0
  152.2195  141.4671  161.2625 H   0  0  0  0  0  0  0  0  0  0  0  0
  153.9395  141.2314  161.4530 H   0  0  0  0  0  0  0  0  0  0  0  0
  153.1267  143.2204  162.7396 H   0  0  0  0  0  0  0  0  0  0  0  0
  154.3205  143.6693  161.5446 H   0  0  0  0  0  0  0  0  0  0  0  0
  151.2927  143.9545  161.2673 H   0  0  0  0  0  0  0  0  0  0  0  0
  152.4331  145.2595  161.4828 H   0  0  0  0  0  0  0  0  0  0  0  0
  153.4966  144.7304  159.3186 H   0  0  0  0  0  0  0  0  0  0  0  0
  150.4824  145.1181  159.0735 H   0  0  0  0  0  0  0  0  0  0  0  0
  151.6632  145.4548  157.8076 H   0  0  0  0  0  0  0  0  0  0  0  0
  151.6854  146.3788  159.3043 H   0  0  0  0  0  0  0  0  0  0  0  0
  146.5382  141.7736  152.8069 H   0  0  0  0  0  0  0  0  0  0  0  0
  147.9130  142.5431  153.6093 H   0  0  0  0  0  0  0  0  0  0  0  0
  146.6425  141.7803  154.5737 H   0  0  0  0  0  0  0  0  0  0  0  0
  1 22  1  0  0  0  0
  1 23  1  0  0  0  0
  1 24  1  0  0  0  0
  1  2  1  0  0  0  0
  2  3  1  0  0  0  0
  2 20  2  0  0  0  0
  3 25  1  0  0  0  0
  3  4  1  0  0  0  0
  4 19  1  0  0  0  0
  4  5  2  0  0  0  0
  5  6  1  0  0  0  0
  6  8  1  0  0  0  0
  6  7  2  0  0  0  0
  8  9  1  0  0  0  0
  8 26  1  0  0  0  0
  9 10  1  0  0  0  0
  9 27  1  0  0  0  0
  9 28  1  0  0  0  0
 10 11  1  0  0  0  0
 10 29  1  0  0  0  0
 10 30  1  0  0  0  0
 11 12  1  0  0  0  0
 12 17  1  0  0  0  0
 12 13  1  0  0  0  0
 12 31  1  0  0  0  0
 13 14  1  0  0  0  0
 13 32  1  0  0  0  0
 13 33  1  0  0  0  0
 14 15  1  0  0  0  0
 14 34  1  0  0  0  0
 14 35  1  0  0  0  0
 15 16  1  0  0  0  0
 15 36  1  0  0  0  0
 15 37  1  0  0  0  0
 16 17  1  0  0  0  0
 16 38  1  0  0  0  0
 16 39  1  0  0  0  0
 17 18  1  0  0  0  0
 17 40  1  0  0  0  0
 18 41  1  0  0  0  0
 18 42  1  0  0  0  0
 18 43  1  0  0  0  0
 19 20  1  0  0  0  0
 20 21  1  0  0  0  0
 21 44  1  0  0  0  0
 21 45  1  0  0  0  0
 21 46  1  0  0  0  0
M  END
> <s_m_source_file>
AV-unprocessed.smi

> <i_m_source_file_index>
910

> <i_lp_mmshare_version>
43012

> <i_f3d_flags>
0

> <s_epik_input>
W0NIM11jMW5jKG9jMVtDSDNdKVtOSF1DKD1PKVtOSF1bQ0gyXVtDSDJdT1tDQEBIXTJbQ0gyXVtDSDJdW0NIMl1bQ0gyXVtDQEhdMltDSDNd

> <s_epik_cmdline>
J2VwaWtfcHl0aG9uJywgJy1waCcsICc3LjAnLCAnLXRuJywgJzgnLCAnLW1hJywgJzIwMCcsICctbWV0YWxfYmluZGluZycsICctaW1hZScsICc8aW5maWxlLm1hZT4nLCAnLW9tYWUnLCAnPG91dGZpbGUubWFlPic=

> <r_lp_tautomer_probability>
0.107061

> <r_epik_Ionization_Penalty>
0.727192

> <r_epik_Ionization_Penalty_Charging>
0.726719

> <r_epik_Ionization_Penalty_Neutral>
0.000473387

> <r_epik_State_Penalty>
2.53712

> <r_epik_Charging_Adjusted_Penalty>
3.26383

> <i_epik_Tot_Q>
0

> <i_epik_Tot_abs_Q>
0

> <r_epik_Metal_State_Penalty>
3.71015

> <b_epik_Metal_Only>
0

> <s_lp_Force_Field>
OPLS_2005

> <r_lp_Energy>
29.3715

> <b_lp_Chiralities_Consistent>
1

> <s_lp_Variant>
AV-unprocessed.smi:910-7

> <Gold.Version>
5.8.1

> <Gold.Id.Protein>
6NUR|6NUR_protein|mol2

> <Gold.PLP.Fitness>
53.3076

> <Gold.PLP.PLP>
-49.3910

> <Gold.PLP.part.hbond>
-4.5976

> <Gold.PLP.part.metal>
0.0000

> <Gold.PLP.part.buried>
-2.5417

> <Gold.PLP.part.nonpolar>
-42.3165

> <Gold.PLP.part.repulsive>
0.4072

> <Gold.PLP.ligand.clash>
0.0000

> <Gold.PLP.ligand.torsion>
1.1715

> <Gold.PLP.Chemscore.Hbond>
2.0673

> <Gold.PLP.Chemscore.CHOScore>
0.0000

> <Gold.PLP.Chemscore.Metal>
0.0000

> <Gold.Chemscore.Hbonds>
donor molecule, donor type, donor heavy atom, donor atom, acceptor molecule, acceptor atom, score
      L1  H     3    25       P1  7948  1.00
      P1  H  7989  7998       L1     7  0.05
      P1  H  7997  8008       L1     7  1.00

> <Gold.PLP.Chemscore.Internal.Correction>
0.0575

> <Gold.Rescore>
     Score         DG    S(hbond)    S(metal)    S(lipo)     H(rot)  DE(clash)    DE(int)     intcor
     17.86     -21.64       1.98        0.00     117.70       1.66       0.15       3.63       ----

> <Gold.Chemscore.Fitness>
17.8584

> <Gold.Chemscore.DG>
-21.6358

> <Gold.Chemscore.ZeroCoef>
-5.4800

> <Gold.Chemscore.Hbond>
1.9845

> <Gold.Chemscore.Metal>
0.0000

> <Gold.Chemscore.Lipo>
117.7027

> <Gold.Chemscore.Internal_Hbond>
0.0000

> <Gold.Chemscore.DEClash>
0.1481

> <Gold.Chemscore.DEInternal>
3.6293

> <Gold.Chemscore.Rot>
1.6576

> <Gold.Chemscore.Internal.Correction>
   9.000000E+99

> <Gold.Chemscore.Hbonds>
donor molecule, donor type, donor heavy atom, donor atom, acceptor molecule, acceptor atom, score
      L1  H     3    25       P1  7948  0.96
      P1  H  7997  8008       L1     7  0.99

> <Gold.Chemscore.Hbond.Weighted>
-6.6281

> <Gold.Chemscore.Metal.Weighted>
-0.0000

> <Gold.Chemscore.Lipo.Weighted>
-13.7712

> <Gold.Chemscore.Internal_Hbond.Weighted>
0.0000

> <Gold.Chemscore.DEClash.Weighted>
0.1481

> <Gold.Chemscore.DEInternal.Weighted>
3.6293

> <Gold.Chemscore.Rot.Weighted>
4.2436

> <Gold.Chemscore.Internal.Correction.Weighted>
   9.000000E+99

> <Gold.Protein.RotatedTorsions>
[ 6907 6896 6895 6894 ] final  -12.03 input  -60.11 | X-H torsion
[ 7974 7965 7964 7962 ] final  -68.67 input  175.53 | X-H torsion
[ 8008 7997 7996 7995 ] final  -21.94 input   59.86 | X-H torsion
[ 10167 10162 10161 10158 ] final  -28.72 input  -65.29 | X-H torsion
[ 10718 10713 10712 10709 ] final -138.61 input   66.30 | X-H torsion
[ 10763 10752 10751 10750 ] final  -11.99 input  -60.55 | X-H torsion
[ 11005 11000 10999 10996 ] final  172.11 input  -57.11 | X-H torsion

> <Gold.Protein.ActiveResidues>
 VAL166  LYS551  ARG553  GLY616  TRP617  ASP618  TYR619  PRO620  LYS621  CYS622 
 ASP623  PHE694  ASN695  SER759  ASP760  ASP761  ALA762  ILE779  LEU786  VAL792 
 PHE793  MET794  SER795  GLU796  ALA797  LYS798  CYS799  TRP800  GLU811  SER814 

> <Gold.Protein.RotatedAtoms>
  151.3770  135.0933  159.9483 H   0  0  0  0  0  0  0  0  0  0  0  0  # atno 6907 bound_to 6896
  152.5119  133.9109  159.7498 H   0  0  0  0  0  0  0  0  0  0  0  0  # atno 6908 bound_to 6896
  150.9535  133.6468  159.2796 H   0  0  0  0  0  0  0  0  0  0  0  0  # atno 6909 bound_to 6896
  145.7135  140.9068  143.0668 H   0  0  0  0  0  0  0  0  0  0  0  0  # atno 7974 bound_to 7965
  154.4675  140.2021  156.0081 H   0  0  0  0  0  0  0  0  0  0  0  0  # atno 8008 bound_to 7997
  156.0952  140.3252  155.7839 H   0  0  0  0  0  0  0  0  0  0  0  0  # atno 8009 bound_to 7997
  155.4890  140.0544  157.2947 H   0  0  0  0  0  0  0  0  0  0  0  0  # atno 8010 bound_to 7997
  140.7267  143.3987  151.1303 H   0  0  0  0  0  0  0  0  0  0  0  0  # atno 10167 bound_to 10162
  156.3014  130.7430  151.1483 H   0  0  0  0  0  0  0  0  0  0  0  0  # atno 10718 bound_to 10713
  153.4919  135.7017  153.5879 H   0  0  0  0  0  0  0  0  0  0  0  0  # atno 10763 bound_to 10752
  153.4048  135.3863  155.2012 H   0  0  0  0  0  0  0  0  0  0  0  0  # atno 10764 bound_to 10752
  154.8716  135.3890  154.4380 H   0  0  0  0  0  0  0  0  0  0  0  0  # atno 10765 bound_to 10752
  140.3262  134.7395  157.4101 H   0  0  0  0  0  0  0  0  0  0  0  0  # atno 11005 bound_to 11000
  144.6935  139.9107  143.7463 LP  0  0  0  0  0  0  0  0  0  0  0  0  # atno 17320 bound_to 7965
  146.0690  139.3680  143.0534 LP  0  0  0  0  0  0  0  0  0  0  0  0  # atno 17321 bound_to 7965
  139.7603  143.8645  152.3098 LP  0  0  0  0  0  0  0  0  0  0  0  0  # atno 17342 bound_to 10162
  139.8529  144.7155  150.9192 LP  0  0  0  0  0  0  0  0  0  0  0  0  # atno 17343 bound_to 10162
  157.7369  131.0558  150.5389 LP  0  0  0  0  0  0  0  0  0  0  0  0  # atno 17370 bound_to 10713
  156.5517  130.4233  149.6105 LP  0  0  0  0  0  0  0  0  0  0  0  0  # atno 17371 bound_to 10713
  140.0899  134.5615  155.8454 LP  0  0  0  0  0  0  0  0  0  0  0  0  # atno 17394 bound_to 11000
  141.2074  133.6664  156.6307 LP  0  0  0  0  0  0  0  0  0  0  0  0  # atno 17395 bound_to 11000

$$$$
