AV-unprocessed.smi:806|AV-procd|sdf|3800|dock5
  -GOLD-   22720 1233D 1   1.00000     0.00000
 Structure written by MMmdl.
 45 46  0  0  0  0  0  0  0  0  2 V2000
  147.4451  140.9194  152.8951 C   0  0  0  0  0  0  0  0  0  0  0  0
  147.8170  139.7389  153.6985 N   0  0  0  0  0  0  0  0  0  0  0  0
  147.1895  138.5377  153.5375 C   0  0  0  0  0  0  0  0  0  0  0  0
  147.5030  137.5390  154.1875 O   0  0  0  0  0  0  0  0  0  0  0  0
  146.0419  138.3951  152.5176 C   0  0  0  0  0  0  0  0  0  0  0  0
  146.1857  137.2157  151.6359 N   0  3  0  0  0  0  0  0  0  0  0  0
  145.4017  136.0299  152.0449 C   0  0  0  0  0  0  0  0  0  0  0  0
  146.1801  134.7315  151.7781 C   0  0  0  0  0  0  0  0  0  0  0  0
  145.2992  133.6223  151.4571 N   0  0  0  0  0  0  0  0  0  0  0  0
  145.6333  132.3154  151.1695 C   0  0  0  0  0  0  0  0  0  0  0  0
  144.4704  131.6442  150.9220 C   0  0  0  0  0  0  0  0  0  0  0  0
  143.4641  132.6351  151.0946 C   0  0  0  0  0  0  0  0  0  0  0  0
  143.9637  133.8170  151.4180 N   0  0  0  0  0  0  0  0  0  0  0  0
  148.9347  139.9069  154.6833 C   0  0  0  0  0  0  0  0  0  0  0  0
  148.4638  139.6191  156.0571 C   0  0  0  0  0  0  0  0  0  0  0  0
  148.0971  139.3940  157.1319 N   0  0  0  0  0  0  0  0  0  0  0  0
  150.0969  138.9464  154.3008 C   0  0  0  0  0  0  0  0  0  0  0  0
  151.3074  139.0598  155.2450 C   0  0  0  0  0  0  0  0  0  0  0  0
  151.8370  140.4984  155.3034 C   0  0  0  0  0  0  0  0  0  0  0  0
  150.7225  141.4831  155.6801 C   0  0  0  0  0  0  0  0  0  0  0  0
  149.5262  141.3509  154.7198 C   0  0  0  0  0  0  0  0  0  0  0  0
  146.6506  140.7737  152.1673 H   0  0  0  0  0  0  0  0  0  0  0  0
  148.3043  141.2666  152.3211 H   0  0  0  0  0  0  0  0  0  0  0  0
  147.1041  141.7312  153.5372 H   0  0  0  0  0  0  0  0  0  0  0  0
  145.1085  138.2684  153.0669 H   0  0  0  0  0  0  0  0  0  0  0  0
  145.9515  139.2940  151.9062 H   0  0  0  0  0  0  0  0  0  0  0  0
  145.8991  137.4882  150.7059 H   0  0  0  0  0  0  0  0  0  0  0  0
  145.1659  136.1108  153.1064 H   0  0  0  0  0  0  0  0  0  0  0  0
  144.4488  136.0058  151.5147 H   0  0  0  0  0  0  0  0  0  0  0  0
  146.8852  134.8714  150.9577 H   0  0  0  0  0  0  0  0  0  0  0  0
  146.7681  134.4587  152.6555 H   0  0  0  0  0  0  0  0  0  0  0  0
  146.6586  131.9756  151.1589 H   0  0  0  0  0  0  0  0  0  0  0  0
  144.3550  130.6029  150.6598 H   0  0  0  0  0  0  0  0  0  0  0  0
  142.3936  132.5318  150.9960 H   0  0  0  0  0  0  0  0  0  0  0  0
  149.7662  137.9084  154.3003 H   0  0  0  0  0  0  0  0  0  0  0  0
  150.4204  139.1569  153.2804 H   0  0  0  0  0  0  0  0  0  0  0  0
  151.0303  138.7286  156.2464 H   0  0  0  0  0  0  0  0  0  0  0  0
  152.0998  138.3895  154.9110 H   0  0  0  0  0  0  0  0  0  0  0  0
  152.6543  140.5664  156.0222 H   0  0  0  0  0  0  0  0  0  0  0  0
  152.2544  140.7729  154.3338 H   0  0  0  0  0  0  0  0  0  0  0  0
  150.4061  141.3077  156.7088 H   0  0  0  0  0  0  0  0  0  0  0  0
  151.1079  142.5027  155.6510 H   0  0  0  0  0  0  0  0  0  0  0  0
  149.8749  141.6603  153.7348 H   0  0  0  0  0  0  0  0  0  0  0  0
  148.7594  142.0651  155.0223 H   0  0  0  0  0  0  0  0  0  0  0  0
  147.1593  136.9493  151.6094 H   0  0  0  0  0  0  0  0  0  0  0  0
  1  2  1  0  0  0  0
  1 22  1  0  0  0  0
  1 23  1  0  0  0  0
  1 24  1  0  0  0  0
  2  3  1  0  0  0  0
  2 14  1  0  0  0  0
  3  4  2  0  0  0  0
  3  5  1  0  0  0  0
  5  6  1  0  0  0  0
  5 25  1  0  0  0  0
  5 26  1  0  0  0  0
  6  7  1  0  0  0  0
  6 27  1  0  0  0  0
  6 45  1  0  0  0  0
  7  8  1  0  0  0  0
  7 28  1  0  0  0  0
  7 29  1  0  0  0  0
  8  9  1  0  0  0  0
  8 30  1  0  0  0  0
  8 31  1  0  0  0  0
  9 13  1  0  0  0  0
  9 10  1  0  0  0  0
 10 11  2  0  0  0  0
 10 32  1  0  0  0  0
 11 12  1  0  0  0  0
 11 33  1  0  0  0  0
 12 13  2  0  0  0  0
 12 34  1  0  0  0  0
 14 21  1  0  0  0  0
 14 15  1  0  0  0  0
 14 17  1  0  0  0  0
 15 16  3  0  0  0  0
 17 18  1  0  0  0  0
 17 35  1  0  0  0  0
 17 36  1  0  0  0  0
 18 19  1  0  0  0  0
 18 37  1  0  0  0  0
 18 38  1  0  0  0  0
 19 20  1  0  0  0  0
 19 39  1  0  0  0  0
 19 40  1  0  0  0  0
 20 21  1  0  0  0  0
 20 41  1  0  0  0  0
 20 42  1  0  0  0  0
 21 43  1  0  0  0  0
 21 44  1  0  0  0  0
M  CHG  1   6   1
M  END
> <s_m_source_file>
AV-unprocessed.smi

> <i_m_source_file_index>
806

> <i_lp_mmshare_version>
43012

> <i_f3d_flags>
0

> <s_epik_input>
W0NIMl0xW0NIMl1bQ0gyXVtDSDJdW0NIMl1DMShDI04pTihbQ0gzXSlDKD1PKVtDSDJdW05IXVtDSDJdW0NIMl1uMltjSF1bY0hdW2NIXW4y

> <s_epik_cmdline>
J2VwaWtfcHl0aG9uJywgJy1waCcsICc3LjAnLCAnLXRuJywgJzgnLCAnLW1hJywgJzIwMCcsICctbWV0YWxfYmluZGluZycsICctaW1hZScsICc8aW5maWxlLm1hZT4nLCAnLW9tYWUnLCAnPG91dGZpbGUubWFlPic=

> <r_lp_tautomer_probability>
1

> <r_epik_Ionization_Penalty>
0.349033

> <r_epik_Ionization_Penalty_Charging>
0.349031

> <r_epik_Ionization_Penalty_Neutral>
2.24604e-06

> <r_epik_State_Penalty>
0.345151

> <r_epik_Charging_Adjusted_Penalty>
0.694182

> <i_epik_Tot_Q>
1

> <i_epik_Tot_abs_Q>
1

> <r_epik_Metal_State_Penalty>
0.345887

> <b_epik_Metal_Only>
0

> <s_lp_Force_Field>
OPLS_2005

> <r_lp_Energy>
26.3561

> <b_lp_Chiralities_Consistent>
1

> <s_lp_Variant>
AV-unprocessed.smi:806-1

> <Gold.Version>
5.8.1

> <Gold.Id.Protein>
6NUR|6NUR_protein|mol2

> <Gold.PLP.Fitness>
45.3851

> <Gold.PLP.PLP>
-35.1259

> <Gold.PLP.part.hbond>
-1.4374

> <Gold.PLP.part.metal>
0.0000

> <Gold.PLP.part.buried>
-1.3346

> <Gold.PLP.part.nonpolar>
-34.0520

> <Gold.PLP.part.repulsive>
1.3805

> <Gold.PLP.ligand.clash>
0.0000

> <Gold.PLP.ligand.torsion>
0.8462

> <Gold.PLP.Chemscore.Hbond>
2.0000

> <Gold.PLP.Chemscore.CHOScore>
1.9556

> <Gold.PLP.Chemscore.Metal>
0.0000

> <Gold.Chemscore.Hbonds>
donor molecule, donor type, donor heavy atom, donor atom, acceptor molecule, acceptor atom, score
      L1  H     6    45       P1  7948  2.00
      L1  C    10    32       P1 10747  0.52
      L1  C    12    34       P1 10186  0.37

> <Gold.PLP.Chemscore.Internal.Correction>
0.0848

> <Gold.Rescore>
     Score         DG    S(hbond)    S(metal)    S(lipo)     H(rot)  DE(clash)    DE(int)     intcor
     10.37     -14.13       1.07        0.00      88.95       2.09       0.63       3.13       ----

> <Gold.Chemscore.Fitness>
10.3668

> <Gold.Chemscore.DG>
-14.1279

> <Gold.Chemscore.ZeroCoef>
-5.4800

> <Gold.Chemscore.Hbond>
1.0747

> <Gold.Chemscore.Metal>
0.0000

> <Gold.Chemscore.Lipo>
88.9474

> <Gold.Chemscore.Internal_Hbond>
0.0000

> <Gold.Chemscore.DEClash>
0.6325

> <Gold.Chemscore.DEInternal>
3.1286

> <Gold.Chemscore.Rot>
2.0893

> <Gold.Chemscore.Internal.Correction>
   9.000000E+99

> <Gold.Chemscore.Hbonds>
donor molecule, donor type, donor heavy atom, donor atom, acceptor molecule, acceptor atom, score
      L1  H     6    27       P1 10171  0.02
      L1  H     6    45       P1  7948  1.00

> <Gold.Chemscore.Hbond.Weighted>
-3.5897

> <Gold.Chemscore.Metal.Weighted>
-0.0000

> <Gold.Chemscore.Lipo.Weighted>
-10.4068

> <Gold.Chemscore.Internal_Hbond.Weighted>
0.0000

> <Gold.Chemscore.DEClash.Weighted>
0.6325

> <Gold.Chemscore.DEInternal.Weighted>
3.1286

> <Gold.Chemscore.Rot.Weighted>
5.3486

> <Gold.Chemscore.Internal.Correction.Weighted>
   9.000000E+99

> <Gold.Protein.RotatedTorsions>
[ 6907 6896 6895 6894 ] final  -98.98 input  -60.11 | X-H torsion
[ 7974 7965 7964 7962 ] final   53.03 input  175.53 | X-H torsion
[ 8008 7997 7996 7995 ] final -167.06 input   59.86 | X-H torsion
[ 10167 10162 10161 10158 ] final    5.46 input  -65.29 | X-H torsion
[ 10718 10713 10712 10709 ] final   92.00 input   66.30 | X-H torsion
[ 10763 10752 10751 10750 ] final   54.19 input  -60.55 | X-H torsion
[ 11005 11000 10999 10996 ] final  130.66 input  -57.11 | X-H torsion

> <Gold.Protein.ActiveResidues>
 VAL166  LYS551  ARG553  GLY616  TRP617  ASP618  TYR619  PRO620  LYS621  CYS622 
 ASP623  PHE694  ASN695  SER759  ASP760  ASP761  ALA762  ILE779  LEU786  VAL792 
 PHE793  MET794  SER795  GLU796  ALA797  LYS798  CYS799  TRP800  GLU811  SER814 

> <Gold.Protein.RotatedAtoms>
  150.7064  134.1111  159.4000 H   0  0  0  0  0  0  0  0  0  0  0  0  # atno 6907 bound_to 6896
  151.9097  135.0341  160.0523 H   0  0  0  0  0  0  0  0  0  0  0  0  # atno 6908 bound_to 6896
  152.2346  133.5050  159.5271 H   0  0  0  0  0  0  0  0  0  0  0  0  # atno 6909 bound_to 6896
  145.9753  139.4189  143.0165 H   0  0  0  0  0  0  0  0  0  0  0  0  # atno 7974 bound_to 7965
  155.8725  140.0995  157.1541 H   0  0  0  0  0  0  0  0  0  0  0  0  # atno 8008 bound_to 7997
  154.3998  140.1344  156.4158 H   0  0  0  0  0  0  0  0  0  0  0  0  # atno 8009 bound_to 7997
  155.7735  140.3460  155.5261 H   0  0  0  0  0  0  0  0  0  0  0  0  # atno 8010 bound_to 7997
  140.6480  143.7614  150.7530 H   0  0  0  0  0  0  0  0  0  0  0  0  # atno 10167 bound_to 10162
  157.6959  131.0428  150.3816 H   0  0  0  0  0  0  0  0  0  0  0  0  # atno 10718 bound_to 10713
  152.9802  135.5753  154.4864 H   0  0  0  0  0  0  0  0  0  0  0  0  # atno 10763 bound_to 10752
  154.4405  135.2776  155.1853 H   0  0  0  0  0  0  0  0  0  0  0  0  # atno 10764 bound_to 10752
  154.3522  135.6206  153.5702 H   0  0  0  0  0  0  0  0  0  0  0  0  # atno 10765 bound_to 10752
  139.9685  134.9584  156.9325 H   0  0  0  0  0  0  0  0  0  0  0  0  # atno 11005 bound_to 11000
  145.7847  140.9841  143.1080 LP  0  0  0  0  0  0  0  0  0  0  0  0  # atno 17320 bound_to 7965
  144.6847  139.9608  143.7480 LP  0  0  0  0  0  0  0  0  0  0  0  0  # atno 17321 bound_to 7965
  140.1259  143.4570  152.2285 LP  0  0  0  0  0  0  0  0  0  0  0  0  # atno 17342 bound_to 10162
  139.5693  144.7453  151.3936 LP  0  0  0  0  0  0  0  0  0  0  0  0  # atno 17343 bound_to 10162
  156.4229  130.3956  149.6813 LP  0  0  0  0  0  0  0  0  0  0  0  0  # atno 17370 bound_to 10713
  156.4057  130.7697  151.2707 LP  0  0  0  0  0  0  0  0  0  0  0  0  # atno 17371 bound_to 10713
  140.5345  134.0780  155.7324 LP  0  0  0  0  0  0  0  0  0  0  0  0  # atno 17394 bound_to 11000
  141.1364  133.9213  157.2423 LP  0  0  0  0  0  0  0  0  0  0  0  0  # atno 17395 bound_to 11000

$$$$
