AV-unprocessed.smi:3240|AV-procd|sdf|12383|dock6
  -GOLD-   2272018243D 1   1.00000     0.00000
 Structure written by MMmdl.
 43 44  0  0  0  0  0  0  0  0  1 V2000
  144.1314  132.4405  150.0070 C   0  0  0  0  0  0  0  0  0  0  0  0
  144.2215  133.6431  150.9010 C   0  0  0  0  0  0  0  0  0  0  0  0
  143.5528  133.8643  152.1385 C   0  0  0  0  0  0  0  0  0  0  0  0
  143.8494  135.0335  152.6819 N   0  0  0  0  0  0  0  0  0  0  0  0
  144.7096  135.6029  151.8103 N   0  0  0  0  0  0  0  0  0  0  0  0
  145.2544  136.9236  152.0835 C   0  0  0  0  0  0  0  0  0  0  0  0
  146.0903  136.9943  153.3864 C   0  0  2  0  0  0  0  0  0  0  0  0
  146.8559  138.3202  153.5192 C   0  0  0  0  0  0  0  0  0  0  0  0
  147.0311  135.8771  153.5231 N   0  0  0  0  0  0  0  0  0  0  0  0
  147.4199  135.5351  154.8934 C   0  0  0  0  0  0  0  0  0  0  0  0
  148.6342  134.5803  154.9388 C   0  0  0  0  0  0  0  0  0  0  0  0
  149.7501  135.3005  154.4464 O   0  0  0  0  0  0  0  0  0  0  0  0
  148.9343  134.2021  156.4088 C   0  0  0  0  0  0  0  0  0  0  0  0
  150.0722  133.1750  156.5490 C   0  0  0  0  0  0  0  0  0  0  0  0
  149.7916  131.9167  155.7164 C   0  0  0  0  0  0  0  0  0  0  0  0
  149.5559  132.2773  154.2435 C   0  0  0  0  0  0  0  0  0  0  0  0
  148.4164  133.3008  154.0907 C   0  0  0  0  0  0  0  0  0  0  0  0
  144.9571  134.7812  150.7309 C   0  0  0  0  0  0  0  0  0  0  0  0
  143.0983  132.1250  149.8600 H   0  0  0  0  0  0  0  0  0  0  0  0
  144.6720  131.5901  150.4228 H   0  0  0  0  0  0  0  0  0  0  0  0
  144.5499  132.6364  149.0194 H   0  0  0  0  0  0  0  0  0  0  0  0
  142.8649  133.2119  152.6558 H   0  0  0  0  0  0  0  0  0  0  0  0
  145.8803  137.2169  151.2391 H   0  0  0  0  0  0  0  0  0  0  0  0
  144.4340  137.6405  152.0948 H   0  0  0  0  0  0  0  0  0  0  0  0
  145.3885  136.9524  154.2201 H   0  0  0  0  0  0  0  0  0  0  0  0
  146.1840  139.1727  153.4171 H   0  0  0  0  0  0  0  0  0  0  0  0
  147.6332  138.4159  152.7601 H   0  0  0  0  0  0  0  0  0  0  0  0
  147.3379  138.3972  154.4944 H   0  0  0  0  0  0  0  0  0  0  0  0
  147.8661  136.0669  152.9775 H   0  0  0  0  0  0  0  0  0  0  0  0
  147.6483  136.4433  155.4527 H   0  0  0  0  0  0  0  0  0  0  0  0
  146.5862  135.0590  155.4080 H   0  0  0  0  0  0  0  0  0  0  0  0
  149.4851  135.7647  153.6673 H   0  0  0  0  0  0  0  0  0  0  0  0
  149.1732  135.0952  156.9879 H   0  0  0  0  0  0  0  0  0  0  0  0
  148.0344  133.7832  156.8615 H   0  0  0  0  0  0  0  0  0  0  0  0
  151.0163  133.6207  156.2336 H   0  0  0  0  0  0  0  0  0  0  0  0
  150.1975  132.9040  157.5978 H   0  0  0  0  0  0  0  0  0  0  0  0
  150.6256  131.2194  155.8009 H   0  0  0  0  0  0  0  0  0  0  0  0
  148.9151  131.4024  156.1129 H   0  0  0  0  0  0  0  0  0  0  0  0
  150.4739  132.6792  153.8134 H   0  0  0  0  0  0  0  0  0  0  0  0
  149.3209  131.3767  153.6757 H   0  0  0  0  0  0  0  0  0  0  0  0
  147.4806  132.8281  154.3911 H   0  0  0  0  0  0  0  0  0  0  0  0
  148.3028  133.5514  153.0354 H   0  0  0  0  0  0  0  0  0  0  0  0
  145.6268  135.0738  149.9361 H   0  0  0  0  0  0  0  0  0  0  0  0
  1  2  1  0  0  0  0
  1 19  1  0  0  0  0
  1 20  1  0  0  0  0
  1 21  1  0  0  0  0
  2 18  2  0  0  0  0
  2  3  1  0  0  0  0
  3  4  2  0  0  0  0
  3 22  1  0  0  0  0
  4  5  1  0  0  0  0
  5  6  1  0  0  0  0
  5 18  1  0  0  0  0
  6  7  1  0  0  0  0
  6 23  1  0  0  0  0
  6 24  1  0  0  0  0
  7  8  1  0  0  0  0
  7  9  1  0  0  0  0
  7 25  1  0  0  0  0
  8 26  1  0  0  0  0
  8 27  1  0  0  0  0
  8 28  1  0  0  0  0
  9 10  1  0  0  0  0
  9 29  1  0  0  0  0
 10 11  1  0  0  0  0
 10 30  1  0  0  0  0
 10 31  1  0  0  0  0
 11 17  1  0  0  0  0
 11 12  1  0  0  0  0
 11 13  1  0  0  0  0
 12 32  1  0  0  0  0
 13 14  1  0  0  0  0
 13 33  1  0  0  0  0
 13 34  1  0  0  0  0
 14 15  1  0  0  0  0
 14 35  1  0  0  0  0
 14 36  1  0  0  0  0
 15 16  1  0  0  0  0
 15 37  1  0  0  0  0
 15 38  1  0  0  0  0
 16 17  1  0  0  0  0
 16 39  1  0  0  0  0
 16 40  1  0  0  0  0
 17 41  1  0  0  0  0
 17 42  1  0  0  0  0
 18 43  1  0  0  0  0
M  END
> <s_m_source_file>
AV-unprocessed.smi

> <i_m_source_file_index>
3240

> <i_lp_mmshare_version>
43012

> <i_f3d_flags>
0

> <s_epik_input>
W0NIM11jMVtjSF1ubihbY0hdMSlbQ0gyXVtDQEhdKFtDSDNdKVtOSF1bQ0gyXUMyKFtPSF0pW0NIMl1bQ0gyXVtDSDJdW0NIMl1bQ0gyXTI=

> <s_epik_cmdline>
J2VwaWtfcHl0aG9uJywgJy1waCcsICc3LjAnLCAnLXRuJywgJzgnLCAnLW1hJywgJzIwMCcsICctbWV0YWxfYmluZGluZycsICctaW1hZScsICc8aW5maWxlLm1hZT4nLCAnLW9tYWUnLCAnPG91dGZpbGUubWFlPic=

> <r_lp_tautomer_probability>
1

> <r_epik_Ionization_Penalty>
2.35969

> <r_epik_Ionization_Penalty_Charging>
0

> <r_epik_Ionization_Penalty_Neutral>
2.35969

> <r_epik_State_Penalty>
2.51455

> <r_epik_Charging_Adjusted_Penalty>
2.51455

> <i_epik_Tot_Q>
0

> <i_epik_Tot_abs_Q>
0

> <r_epik_Metal_State_Penalty>
2.51446

> <b_epik_Metal_Only>
0

> <s_lp_Force_Field>
OPLS_2005

> <r_lp_Energy>
22.0798

> <b_lp_Chiralities_Consistent>
1

> <s_lp_Variant>
AV-unprocessed.smi:3240-3

> <Gold.Version>
5.8.1

> <Gold.Id.Protein>
6NUR|6NUR_protein|mol2

> <Gold.PLP.Fitness>
39.7084

> <Gold.PLP.PLP>
-28.3856

> <Gold.PLP.part.hbond>
-2.1465

> <Gold.PLP.part.metal>
0.0000

> <Gold.PLP.part.buried>
-4.1125

> <Gold.PLP.part.nonpolar>
-23.5261

> <Gold.PLP.part.repulsive>
0.1039

> <Gold.PLP.ligand.clash>
0.0000

> <Gold.PLP.ligand.torsion>
0.3759

> <Gold.PLP.Chemscore.Hbond>
2.0000

> <Gold.PLP.Chemscore.CHOScore>
1.9984

> <Gold.PLP.Chemscore.Metal>
0.0000

> <Gold.Chemscore.Hbonds>
donor molecule, donor type, donor heavy atom, donor atom, acceptor molecule, acceptor atom, score
      L1  H     9    29       P1  7948  1.00
      L1  H    12    32       P1  7948  1.00
      L1  C     3    22       P1 10957  0.92
      L1  C    18    43       P1  7921  1.00

> <Gold.PLP.Chemscore.Internal.Correction>
0.0795

> <Gold.Rescore>
     Score         DG    S(hbond)    S(metal)    S(lipo)     H(rot)  DE(clash)    DE(int)     intcor
     14.68     -15.04       1.92        0.00      71.66       2.04       0.05       0.31       ----

> <Gold.Chemscore.Fitness>
14.6824

> <Gold.Chemscore.DG>
-15.0415

> <Gold.Chemscore.ZeroCoef>
-5.4800

> <Gold.Chemscore.Hbond>
1.9197

> <Gold.Chemscore.Metal>
0.0000

> <Gold.Chemscore.Lipo>
71.6600

> <Gold.Chemscore.Internal_Hbond>
0.0000

> <Gold.Chemscore.DEClash>
0.0507

> <Gold.Chemscore.DEInternal>
0.3084

> <Gold.Chemscore.Rot>
2.0447

> <Gold.Chemscore.Internal.Correction>
   9.000000E+99

> <Gold.Chemscore.Hbonds>
donor molecule, donor type, donor heavy atom, donor atom, acceptor molecule, acceptor atom, score
      L1  H     9    29       P1  7948  0.96
      L1  H    12    32       P1  7948  0.35

> <Gold.Chemscore.Hbond.Weighted>
-6.4117

> <Gold.Chemscore.Metal.Weighted>
-0.0000

> <Gold.Chemscore.Lipo.Weighted>
-8.3842

> <Gold.Chemscore.Internal_Hbond.Weighted>
0.0000

> <Gold.Chemscore.DEClash.Weighted>
0.0507

> <Gold.Chemscore.DEInternal.Weighted>
0.3084

> <Gold.Chemscore.Rot.Weighted>
5.2344

> <Gold.Chemscore.Internal.Correction.Weighted>
   9.000000E+99

> <Gold.Protein.RotatedTorsions>
[ 6907 6896 6895 6894 ] final   -9.85 input  -60.11 | X-H torsion
[ 7974 7965 7964 7962 ] final  162.11 input  175.53 | X-H torsion
[ 8008 7997 7996 7995 ] final   14.40 input   59.86 | X-H torsion
[ 10167 10162 10161 10158 ] final   74.37 input  -65.29 | X-H torsion
[ 10718 10713 10712 10709 ] final   31.37 input   66.30 | X-H torsion
[ 10763 10752 10751 10750 ] final  -20.32 input  -60.55 | X-H torsion
[ 11005 11000 10999 10996 ] final    3.67 input  -57.11 | X-H torsion

> <Gold.Protein.ActiveResidues>
 VAL166  LYS551  ARG553  GLY616  TRP617  ASP618  TYR619  PRO620  LYS621  CYS622 
 ASP623  PHE694  ASN695  SER759  ASP760  ASP761  ALA762  ILE779  LEU786  VAL792 
 PHE793  MET794  SER795  GLU796  ALA797  LYS798  CYS799  TRP800  GLU811  SER814 

> <Gold.Protein.RotatedAtoms>
  151.4112  135.0985  159.9585 H   0  0  0  0  0  0  0  0  0  0  0  0  # atno 6907 bound_to 6896
  152.5019  133.8795  159.7350 H   0  0  0  0  0  0  0  0  0  0  0  0  # atno 6908 bound_to 6896
  150.9291  133.6731  159.2843 H   0  0  0  0  0  0  0  0  0  0  0  0  # atno 6909 bound_to 6896
  144.7653  139.7993  143.6317 H   0  0  0  0  0  0  0  0  0  0  0  0  # atno 7974 bound_to 7965
  154.8480  140.2925  155.5617 H   0  0  0  0  0  0  0  0  0  0  0  0  # atno 8008 bound_to 7997
  156.3015  140.2501  156.3365 H   0  0  0  0  0  0  0  0  0  0  0  0  # atno 8009 bound_to 7997
  154.9053  140.0390  157.1905 H   0  0  0  0  0  0  0  0  0  0  0  0  # atno 8010 bound_to 7997
  140.0144  144.5589  150.7632 H   0  0  0  0  0  0  0  0  0  0  0  0  # atno 10167 bound_to 10162
  157.2717  130.7211  149.6507 H   0  0  0  0  0  0  0  0  0  0  0  0  # atno 10718 bound_to 10713
  153.6186  135.6993  153.5319 H   0  0  0  0  0  0  0  0  0  0  0  0  # atno 10763 bound_to 10752
  153.2956  135.4144  155.1206 H   0  0  0  0  0  0  0  0  0  0  0  0  # atno 10764 bound_to 10752
  154.8548  135.3636  154.5727 H   0  0  0  0  0  0  0  0  0  0  0  0  # atno 10765 bound_to 10752
  140.5906  133.9928  155.8087 H   0  0  0  0  0  0  0  0  0  0  0  0  # atno 11005 bound_to 11000
  146.1754  139.4922  142.9901 LP  0  0  0  0  0  0  0  0  0  0  0  0  # atno 17320 bound_to 7965
  145.6491  141.0267  143.1770 LP  0  0  0  0  0  0  0  0  0  0  0  0  # atno 17321 bound_to 7965
  140.7368  143.2757  151.3748 LP  0  0  0  0  0  0  0  0  0  0  0  0  # atno 17342 bound_to 10162
  139.6182  144.0959  152.2366 LP  0  0  0  0  0  0  0  0  0  0  0  0  # atno 17343 bound_to 10162
  155.9663  130.4366  150.5139 LP  0  0  0  0  0  0  0  0  0  0  0  0  # atno 17370 bound_to 10713
  157.3064  131.0655  151.2032 LP  0  0  0  0  0  0  0  0  0  0  0  0  # atno 17371 bound_to 10713
  141.0938  133.9876  157.3194 LP  0  0  0  0  0  0  0  0  0  0  0  0  # atno 17394 bound_to 11000
  139.9276  135.0201  156.8289 LP  0  0  0  0  0  0  0  0  0  0  0  0  # atno 17395 bound_to 11000

$$$$
