AV-unprocessed.smi:165|AV-procd|sdf|1387|dock5
  -GOLD-   2262019123D 1   1.00000     0.00000
 Structure written by MMmdl.
 55 59  0  0  0  0  0  0  0  0  1 V2000
  144.0579  132.9080  152.5547 O   0  0  0  0  0  0  0  0  0  0  0  0
  143.4839  134.0604  151.9729 C   0  0  0  0  0  0  0  0  0  0  0  0
  143.3379  135.2092  152.9865 C   0  0  0  0  0  0  0  0  0  0  0  0
  141.8621  135.3225  153.4232 C   0  0  0  0  0  0  0  0  0  0  0  0
  141.3313  134.0850  153.8508 O   0  0  0  0  0  0  0  0  0  0  0  0
  144.3321  135.1416  154.1688 C   0  0  0  0  0  0  0  0  0  0  0  0
  144.5407  136.6536  154.0703 C   0  0  0  0  0  0  0  0  0  0  0  0
  145.8053  137.2559  154.3896 N   0  0  0  0  0  0  0  0  0  0  0  0
  146.1528  138.5743  154.1947 C   0  0  0  0  0  0  0  0  0  0  0  0
  147.3617  138.8942  154.5665 N   0  0  0  0  0  0  0  0  0  0  0  0
  147.8895  137.7079  155.0614 C   0  0  0  0  0  0  0  0  0  0  0  0
  149.1467  137.3434  155.6206 C   0  0  0  0  0  0  0  0  0  0  0  0
  150.1517  138.2371  155.7976 N   0  0  0  0  0  0  0  0  0  0  0  0
  151.2592  138.2314  154.8492 C   0  0  0  0  0  0  0  0  0  0  0  0
  152.0950  139.5078  155.0190 C   0  0  0  0  0  0  0  0  0  0  0  0
  152.4986  139.6546  156.3796 O   0  0  0  0  0  0  0  0  0  0  0  0
  151.4388  139.6810  157.3463 C   0  0  1  0  0  0  0  0  0  0  0  0
  152.1071  139.6780  158.7338 C   0  0  0  0  0  0  0  0  0  0  0  0
  152.8309  141.0032  158.9998 C   0  0  0  0  0  0  0  0  0  0  0  0
  151.8777  142.1853  158.7790 C   0  0  0  0  0  0  0  0  0  0  0  0
  151.3418  142.1314  157.4628 O   0  0  0  0  0  0  0  0  0  0  0  0
  150.5695  140.9600  157.2168 C   0  0  0  0  0  0  0  0  0  0  0  0
  150.5903  138.4004  157.1792 C   0  0  0  0  0  0  0  0  0  0  0  0
  149.3176  136.0446  155.9853 N   0  0  0  0  0  0  0  0  0  0  0  0
  148.3247  135.1647  155.8274 C   0  0  0  0  0  0  0  0  0  0  0  0
  147.1027  135.3661  155.3315 N   0  0  0  0  0  0  0  0  0  0  0  0
  146.9265  136.6648  154.9521 C   0  0  0  0  0  0  0  0  0  0  0  0
  144.0523  136.5330  152.6262 C   0  0  0  0  0  0  0  0  0  0  0  0
  143.7196  132.8139  153.4320 H   0  0  0  0  0  0  0  0  0  0  0  0
  144.0856  134.3619  151.1149 H   0  0  0  0  0  0  0  0  0  0  0  0
  142.5104  133.7701  151.5763 H   0  0  0  0  0  0  0  0  0  0  0  0
  141.7457  136.0495  154.2277 H   0  0  0  0  0  0  0  0  0  0  0  0
  141.2371  135.6781  152.6035 H   0  0  0  0  0  0  0  0  0  0  0  0
  142.0105  133.4307  153.7946 H   0  0  0  0  0  0  0  0  0  0  0  0
  143.9000  134.8086  155.1130 H   0  0  0  0  0  0  0  0  0  0  0  0
  145.2358  134.5755  153.9389 H   0  0  0  0  0  0  0  0  0  0  0  0
  143.7904  137.1719  154.6703 H   0  0  0  0  0  0  0  0  0  0  0  0
  145.4779  139.2999  153.7643 H   0  0  0  0  0  0  0  0  0  0  0  0
  151.8813  137.3527  155.0241 H   0  0  0  0  0  0  0  0  0  0  0  0
  150.8851  138.1702  153.8264 H   0  0  0  0  0  0  0  0  0  0  0  0
  152.9877  139.4512  154.3963 H   0  0  0  0  0  0  0  0  0  0  0  0
  151.5430  140.3844  154.6813 H   0  0  0  0  0  0  0  0  0  0  0  0
  151.3503  139.5269  159.5049 H   0  0  0  0  0  0  0  0  0  0  0  0
  152.8057  138.8449  158.8200 H   0  0  0  0  0  0  0  0  0  0  0  0
  153.2203  141.0199  160.0178 H   0  0  0  0  0  0  0  0  0  0  0  0
  153.6901  141.0967  158.3345 H   0  0  0  0  0  0  0  0  0  0  0  0
  151.0704  142.1783  159.5128 H   0  0  0  0  0  0  0  0  0  0  0  0
  152.4131  143.1267  158.9032 H   0  0  0  0  0  0  0  0  0  0  0  0
  150.1085  141.0414  156.2335 H   0  0  0  0  0  0  0  0  0  0  0  0
  149.7417  140.9247  157.9269 H   0  0  0  0  0  0  0  0  0  0  0  0
  149.7468  138.4258  157.8686 H   0  0  0  0  0  0  0  0  0  0  0  0
  151.1822  137.5251  157.4507 H   0  0  0  0  0  0  0  0  0  0  0  0
  148.5400  134.1551  156.1450 H   0  0  0  0  0  0  0  0  0  0  0  0
  144.8627  136.3920  151.9096 H   0  0  0  0  0  0  0  0  0  0  0  0
  143.3931  137.3409  152.3075 H   0  0  0  0  0  0  0  0  0  0  0  0
  1  2  1  0  0  0  0
  1 29  1  0  0  0  0
  2  3  1  0  0  0  0
  2 30  1  0  0  0  0
  2 31  1  0  0  0  0
  3 28  1  0  0  0  0
  3  4  1  0  0  0  0
  3  6  1  0  0  0  0
  4  5  1  0  0  0  0
  4 32  1  0  0  0  0
  4 33  1  0  0  0  0
  5 34  1  0  0  0  0
  6  7  1  0  0  0  0
  6 35  1  0  0  0  0
  6 36  1  0  0  0  0
  7  8  1  0  0  0  0
  7 28  1  0  0  0  0
  7 37  1  0  0  0  0
  8 27  1  0  0  0  0
  8  9  1  0  0  0  0
  9 10  2  0  0  0  0
  9 38  1  0  0  0  0
 10 11  1  0  0  0  0
 11 27  2  0  0  0  0
 11 12  1  0  0  0  0
 12 13  1  0  0  0  0
 12 24  2  0  0  0  0
 13 23  1  0  0  0  0
 13 14  1  0  0  0  0
 14 15  1  0  0  0  0
 14 39  1  0  0  0  0
 14 40  1  0  0  0  0
 15 16  1  0  0  0  0
 15 41  1  0  0  0  0
 15 42  1  0  0  0  0
 16 17  1  0  0  0  0
 17 22  1  0  0  0  0
 17 18  1  0  0  0  0
 17 23  1  0  0  0  0
 18 19  1  0  0  0  0
 18 43  1  0  0  0  0
 18 44  1  0  0  0  0
 19 20  1  0  0  0  0
 19 45  1  0  0  0  0
 19 46  1  0  0  0  0
 20 21  1  0  0  0  0
 20 47  1  0  0  0  0
 20 48  1  0  0  0  0
 21 22  1  0  0  0  0
 22 49  1  0  0  0  0
 22 50  1  0  0  0  0
 23 51  1  0  0  0  0
 23 52  1  0  0  0  0
 24 25  1  0  0  0  0
 25 26  2  0  0  0  0
 25 53  1  0  0  0  0
 26 27  1  0  0  0  0
 28 54  1  0  0  0  0
 28 55  1  0  0  0  0
M  END
> <s_m_source_file>
AV-unprocessed.smi

> <i_m_source_file_index>
165

> <i_lp_mmshare_version>
43012

> <i_f3d_flags>
0

> <s_epik_input>
W09IXVtDSDJdQzEoW0NIMl1bT0hdKVtDSDJdW0NIXShbQ0gyXTEpbihbY0hdbjIpYyhjMjMpbltjSF1uYzNOKFtDSDJdNClbQ0gyXVtDSDJdT1tDQEBdNDVbQ0gyXVtDSDJdW0NIMl1PW0NIMl01

> <s_epik_cmdline>
J2VwaWtfcHl0aG9uJywgJy1waCcsICc3LjAnLCAnLXRuJywgJzgnLCAnLW1hJywgJzIwMCcsICctbWV0YWxfYmluZGluZycsICctaW1hZScsICc8aW5maWxlLm1hZT4nLCAnLW9tYWUnLCAnPG91dGZpbGUubWFlPic=

> <r_lp_tautomer_probability>
1

> <r_epik_Ionization_Penalty>
0.00466923

> <r_epik_Ionization_Penalty_Charging>
0

> <r_epik_Ionization_Penalty_Neutral>
0.00466923

> <r_epik_State_Penalty>
0.0032353

> <r_epik_Charging_Adjusted_Penalty>
0.0032353

> <i_epik_Tot_Q>
0

> <i_epik_Tot_abs_Q>
0

> <r_epik_Metal_State_Penalty>
-0

> <b_epik_Metal_Only>
0

> <s_lp_Force_Field>
OPLS_2005

> <r_lp_Energy>
53.1571

> <b_lp_Chiralities_Consistent>
1

> <s_lp_Variant>
AV-unprocessed.smi:165-2

> <Gold.Version>
5.8.1

> <Gold.Id.Protein>
6NUR|6NUR_protein|mol2

> <Gold.PLP.Fitness>
43.3510

> <Gold.PLP.PLP>
-31.0451

> <Gold.PLP.part.hbond>
-4.7163

> <Gold.PLP.part.metal>
0.0000

> <Gold.PLP.part.buried>
-5.6415

> <Gold.PLP.part.nonpolar>
-22.1877

> <Gold.PLP.part.repulsive>
0.2824

> <Gold.PLP.ligand.clash>
0.0000

> <Gold.PLP.ligand.torsion>
1.3457

> <Gold.PLP.Chemscore.Hbond>
3.7513

> <Gold.PLP.Chemscore.CHOScore>
1.0000

> <Gold.PLP.Chemscore.Metal>
0.0000

> <Gold.Chemscore.Hbonds>
donor molecule, donor type, donor heavy atom, donor atom, acceptor molecule, acceptor atom, score
      L1  H     1    29       P1 10957  0.98
      L1  H     5    34       P1 10957  0.78
      P1  H  7997  8010       L1    16  1.00
      P1  H 11000 11005       L1     5  1.00
      L1  C     9    38       P1 10175  1.00

> <Gold.PLP.Chemscore.Internal.Correction>
0.7435

> <Gold.Rescore>
     Score         DG    S(hbond)    S(metal)    S(lipo)     H(rot)  DE(clash)    DE(int)     intcor
     14.54     -18.28       3.52        0.00      77.47       3.14       1.40       2.34       ----

> <Gold.Chemscore.Fitness>
14.5353

> <Gold.Chemscore.DG>
-18.2764

> <Gold.Chemscore.ZeroCoef>
-5.4800

> <Gold.Chemscore.Hbond>
3.5206

> <Gold.Chemscore.Metal>
0.0000

> <Gold.Chemscore.Lipo>
77.4678

> <Gold.Chemscore.Internal_Hbond>
0.0000

> <Gold.Chemscore.DEClash>
1.4025

> <Gold.Chemscore.DEInternal>
2.3386

> <Gold.Chemscore.Rot>
3.1351

> <Gold.Chemscore.Internal.Correction>
   9.000000E+99

> <Gold.Chemscore.Hbonds>
donor molecule, donor type, donor heavy atom, donor atom, acceptor molecule, acceptor atom, score
      L1  H     1    29       P1 10957  0.59
      L1  H     5    34       P1 10957  0.72
      P1  H  7997  8010       L1    16  0.30
      P1  H 11000 11005       L1     5  0.61

> <Gold.Chemscore.Hbond.Weighted>
-11.7587

> <Gold.Chemscore.Metal.Weighted>
-0.0000

> <Gold.Chemscore.Lipo.Weighted>
-9.0637

> <Gold.Chemscore.Internal_Hbond.Weighted>
0.0000

> <Gold.Chemscore.DEClash.Weighted>
1.4025

> <Gold.Chemscore.DEInternal.Weighted>
2.3386

> <Gold.Chemscore.Rot.Weighted>
8.0260

> <Gold.Chemscore.Internal.Correction.Weighted>
   9.000000E+99

> <Gold.Protein.RotatedTorsions>
[ 6907 6896 6895 6894 ] final  168.75 input  -60.11 | X-H torsion
[ 7974 7965 7964 7962 ] final   -4.89 input  175.53 | X-H torsion
[ 8008 7997 7996 7995 ] final   88.13 input   59.86 | X-H torsion
[ 10167 10162 10161 10158 ] final  165.18 input  -65.29 | X-H torsion
[ 10718 10713 10712 10709 ] final  -88.55 input   66.30 | X-H torsion
[ 10763 10752 10751 10750 ] final   41.13 input  -60.55 | X-H torsion
[ 11005 11000 10999 10996 ] final    9.07 input  -57.11 | X-H torsion

> <Gold.Protein.ActiveResidues>
 VAL166  LYS551  ARG553  GLY616  TRP617  ASP618  TYR619  PRO620  LYS621  CYS622 
 ASP623  PHE694  ASN695  SER759  ASP760  ASP761  ALA762  ILE779  LEU786  VAL792 
 PHE793  MET794  SER795  GLU796  ALA797  LYS798  CYS799  TRP800  GLU811  SER814 

> <Gold.Protein.RotatedAtoms>
  151.8427  133.3426  159.3647 H   0  0  0  0  0  0  0  0  0  0  0  0  # atno 6907 bound_to 6896
  150.7230  134.5376  159.5740 H   0  0  0  0  0  0  0  0  0  0  0  0  # atno 6908 bound_to 6896
  152.2853  134.7784  160.0440 H   0  0  0  0  0  0  0  0  0  0  0  0  # atno 6909 bound_to 6896
  146.2363  140.1940  142.8333 H   0  0  0  0  0  0  0  0  0  0  0  0  # atno 7974 bound_to 7965
  155.9840  140.3375  155.6690 H   0  0  0  0  0  0  0  0  0  0  0  0  # atno 8008 bound_to 7997
  155.6510  140.0705  157.2605 H   0  0  0  0  0  0  0  0  0  0  0  0  # atno 8009 bound_to 7997
  154.4200  140.1725  156.1662 H   0  0  0  0  0  0  0  0  0  0  0  0  # atno 8010 bound_to 7997
  139.4901  144.4159  151.9245 H   0  0  0  0  0  0  0  0  0  0  0  0  # atno 10167 bound_to 10162
  155.9983  130.4840  150.5037 H   0  0  0  0  0  0  0  0  0  0  0  0  # atno 10718 bound_to 10713
  152.9916  135.6171  154.2738 H   0  0  0  0  0  0  0  0  0  0  0  0  # atno 10763 bound_to 10752
  154.2470  135.2786  155.2833 H   0  0  0  0  0  0  0  0  0  0  0  0  # atno 10764 bound_to 10752
  154.5320  135.5785  153.6825 H   0  0  0  0  0  0  0  0  0  0  0  0  # atno 10765 bound_to 10752
  140.5298  134.0477  155.7870 H   0  0  0  0  0  0  0  0  0  0  0  0  # atno 11005 bound_to 11000
  144.9835  140.8481  143.5383 LP  0  0  0  0  0  0  0  0  0  0  0  0  # atno 17320 bound_to 7965
  145.1936  139.2288  143.5230 LP  0  0  0  0  0  0  0  0  0  0  0  0  # atno 17321 bound_to 7965
  140.3601  144.2983  150.5935 LP  0  0  0  0  0  0  0  0  0  0  0  0  # atno 17342 bound_to 10162
  140.5410  143.2223  151.8085 LP  0  0  0  0  0  0  0  0  0  0  0  0  # atno 17343 bound_to 10162
  157.3018  131.0647  151.2063 LP  0  0  0  0  0  0  0  0  0  0  0  0  # atno 17370 bound_to 10713
  157.3039  130.6856  149.6179 LP  0  0  0  0  0  0  0  0  0  0  0  0  # atno 17371 bound_to 10713
  141.1288  133.9338  157.2580 LP  0  0  0  0  0  0  0  0  0  0  0  0  # atno 17394 bound_to 11000
  139.9560  135.0165  156.9130 LP  0  0  0  0  0  0  0  0  0  0  0  0  # atno 17395 bound_to 11000

$$$$
