AV-unprocessed.smi:1176|AV-procd|sdf|4952|dock3
  -GOLD-   22720 3543D 1   1.00000     0.00000
 Structure written by MMmdl.
 50 51  0  0  0  0  0  0  0  0  2 V2000
  143.5953  134.7926  152.0907 C   0  0  0  0  0  0  0  0  0  0  0  0
  144.7290  135.8252  152.1794 C   0  0  0  0  0  0  0  0  0  0  0  0
  145.5209  135.8666  150.8617 C   0  0  0  0  0  0  0  0  0  0  0  0
  145.6403  135.5259  153.3897 C   0  0  0  0  0  0  0  0  0  0  0  0
  146.6993  136.5489  153.5920 N   0  3  2  0  0  0  0  0  0  0  0  0
  147.3814  136.3967  154.9036 C   0  0  0  0  0  0  0  0  0  0  0  0
  148.5602  137.3751  155.0388 C   0  0  0  0  0  0  0  0  0  0  0  0
  148.0990  138.8295  154.8363 C   0  0  1  0  0  0  0  0  0  0  0  0
  149.2306  139.7506  154.8784 N   0  0  0  0  0  0  0  0  0  0  0  0
  149.8108  140.2084  155.9982 C   0  0  0  0  0  0  0  0  0  0  0  0
  149.4581  139.8660  157.1276 O   0  0  0  0  0  0  0  0  0  0  0  0
  150.9788  141.1847  155.8023 C   0  0  0  0  0  0  0  0  0  0  0  0
  151.4486  141.7772  157.0613 N   0  0  0  0  0  0  0  0  0  0  0  0
  151.0454  143.0532  157.4107 C   0  0  0  0  0  0  0  0  0  0  0  0
  151.4482  143.6791  158.5381 C   0  0  0  0  0  0  0  0  0  0  0  0
  152.3517  143.0238  159.4759 C   0  0  0  0  0  0  0  0  0  0  0  0
  152.7627  143.5655  160.5028 O   0  0  0  0  0  0  0  0  0  0  0  0
  152.7340  141.7126  159.1044 N   0  0  0  0  0  0  0  0  0  0  0  0
  153.6489  140.9969  159.9695 C   0  0  0  0  0  0  0  0  0  0  0  0
  152.3243  141.0706  157.9138 C   0  0  0  0  0  0  0  0  0  0  0  0
  152.7154  139.9403  157.6120 O   0  0  0  0  0  0  0  0  0  0  0  0
  147.3748  138.9506  153.4868 C   0  0  0  0  0  0  0  0  0  0  0  0
  146.2186  137.9416  153.3861 C   0  0  0  0  0  0  0  0  0  0  0  0
  143.9856  133.7850  151.9429 H   0  0  0  0  0  0  0  0  0  0  0  0
  142.9245  135.0144  151.2600 H   0  0  0  0  0  0  0  0  0  0  0  0
  142.9956  134.7864  153.0013 H   0  0  0  0  0  0  0  0  0  0  0  0
  144.2554  136.7970  152.3157 H   0  0  0  0  0  0  0  0  0  0  0  0
  146.0174  134.9155  150.6669 H   0  0  0  0  0  0  0  0  0  0  0  0
  146.2846  136.6446  150.8777 H   0  0  0  0  0  0  0  0  0  0  0  0
  144.8641  136.0757  150.0167 H   0  0  0  0  0  0  0  0  0  0  0  0
  145.0512  135.4364  154.3039 H   0  0  0  0  0  0  0  0  0  0  0  0
  146.1012  134.5494  153.2325 H   0  0  0  0  0  0  0  0  0  0  0  0
  146.6635  136.5578  155.7095 H   0  0  0  0  0  0  0  0  0  0  0  0
  147.7537  135.3769  155.0094 H   0  0  0  0  0  0  0  0  0  0  0  0
  149.0206  137.2566  156.0203 H   0  0  0  0  0  0  0  0  0  0  0  0
  149.3277  137.1227  154.3054 H   0  0  0  0  0  0  0  0  0  0  0  0
  147.3952  139.0955  155.6278 H   0  0  0  0  0  0  0  0  0  0  0  0
  149.5874  140.0797  153.9927 H   0  0  0  0  0  0  0  0  0  0  0  0
  151.7941  140.6468  155.3165 H   0  0  0  0  0  0  0  0  0  0  0  0
  150.6896  141.9729  155.1046 H   0  0  0  0  0  0  0  0  0  0  0  0
  150.3796  143.5838  156.7457 H   0  0  0  0  0  0  0  0  0  0  0  0
  151.1007  144.6802  158.7473 H   0  0  0  0  0  0  0  0  0  0  0  0
  153.4005  139.9346  159.9526 H   0  0  0  0  0  0  0  0  0  0  0  0
  153.5442  141.3492  160.9962 H   0  0  0  0  0  0  0  0  0  0  0  0
  154.6539  141.1790  159.5866 H   0  0  0  0  0  0  0  0  0  0  0  0
  146.9909  139.9633  153.3574 H   0  0  0  0  0  0  0  0  0  0  0  0
  148.0773  138.7787  152.6695 H   0  0  0  0  0  0  0  0  0  0  0  0
  145.7510  138.0427  152.4078 H   0  0  0  0  0  0  0  0  0  0  0  0
  145.4524  138.1770  154.1268 H   0  0  0  0  0  0  0  0  0  0  0  0
  147.4029  136.3713  152.8894 H   0  0  0  0  0  0  0  0  0  0  0  0
  1  2  1  0  0  0  0
  1 24  1  0  0  0  0
  1 25  1  0  0  0  0
  1 26  1  0  0  0  0
  2  3  1  0  0  0  0
  2  4  1  0  0  0  0
  2 27  1  0  0  0  0
  3 28  1  0  0  0  0
  3 29  1  0  0  0  0
  3 30  1  0  0  0  0
  4  5  1  0  0  0  0
  4 31  1  0  0  0  0
  4 32  1  0  0  0  0
  5 23  1  0  0  0  0
  5  6  1  0  0  0  0
  5 50  1  0  0  0  0
  6  7  1  0  0  0  0
  6 33  1  0  0  0  0
  6 34  1  0  0  0  0
  7  8  1  0  0  0  0
  7 35  1  0  0  0  0
  7 36  1  0  0  0  0
  8  9  1  0  0  0  0
  8 22  1  0  0  0  0
  8 37  1  0  0  0  0
  9 10  1  0  0  0  0
  9 38  1  0  0  0  0
 10 11  2  0  0  0  0
 10 12  1  0  0  0  0
 12 13  1  0  0  0  0
 12 39  1  0  0  0  0
 12 40  1  0  0  0  0
 13 20  1  0  0  0  0
 13 14  1  0  0  0  0
 14 15  2  0  0  0  0
 14 41  1  0  0  0  0
 15 16  1  0  0  0  0
 15 42  1  0  0  0  0
 16 17  2  0  0  0  0
 16 18  1  0  0  0  0
 18 19  1  0  0  0  0
 18 20  1  0  0  0  0
 19 43  1  0  0  0  0
 19 44  1  0  0  0  0
 19 45  1  0  0  0  0
 20 21  2  0  0  0  0
 22 23  1  0  0  0  0
 22 46  1  0  0  0  0
 22 47  1  0  0  0  0
 23 48  1  0  0  0  0
 23 49  1  0  0  0  0
M  CHG  1   5   1
M  END
> <s_m_source_file>
AV-unprocessed.smi

> <i_m_source_file_index>
1176

> <i_lp_mmshare_version>
43012

> <i_f3d_flags>
0

> <s_epik_input>
W0NIM11bQ0hdKFtDSDNdKVtDSDJdTjFbQ0gyXVtDSDJdW0NIXShbQ0gyXVtDSDJdMSlbTkhdQyg9TylbQ0gyXW4yW2NIXVtjSF1jKD1PKW4oW0NIM10pYzI9Tw==

> <s_epik_cmdline>
J2VwaWtfcHl0aG9uJywgJy1waCcsICc3LjAnLCAnLXRuJywgJzgnLCAnLW1hJywgJzIwMCcsICctbWV0YWxfYmluZGluZycsICctaW1hZScsICc8aW5maWxlLm1hZT4nLCAnLW9tYWUnLCAnPG91dGZpbGUubWFlPic=

> <r_lp_tautomer_probability>
1

> <r_epik_Ionization_Penalty>
0.00401429

> <r_epik_Ionization_Penalty_Charging>
0.00401425

> <r_epik_Ionization_Penalty_Neutral>
4.29561e-08

> <r_epik_State_Penalty>
0.00287487

> <r_epik_Charging_Adjusted_Penalty>
0.00688912

> <i_epik_Tot_Q>
1

> <i_epik_Tot_abs_Q>
1

> <r_epik_Metal_State_Penalty>
-0

> <b_epik_Metal_Only>
0

> <s_lp_Force_Field>
OPLS_2005

> <r_lp_Energy>
26.9025

> <b_lp_Chiralities_Consistent>
1

> <s_lp_Variant>
AV-unprocessed.smi:1176-1

> <Gold.Version>
5.8.1

> <Gold.Id.Protein>
6NUR|6NUR_protein|mol2

> <Gold.PLP.Fitness>
46.8014

> <Gold.PLP.PLP>
-36.2180

> <Gold.PLP.part.hbond>
-2.0000

> <Gold.PLP.part.metal>
0.0000

> <Gold.PLP.part.buried>
-5.8663

> <Gold.PLP.part.nonpolar>
-28.9308

> <Gold.PLP.part.repulsive>
0.1258

> <Gold.PLP.ligand.clash>
0.0000

> <Gold.PLP.ligand.torsion>
0.7750

> <Gold.PLP.Chemscore.Hbond>
3.0000

> <Gold.PLP.Chemscore.CHOScore>
1.0000

> <Gold.PLP.Chemscore.Metal>
0.0000

> <Gold.Chemscore.Hbonds>
donor molecule, donor type, donor heavy atom, donor atom, acceptor molecule, acceptor atom, score
      L1  H     5    50       P1  7948  2.00
      P1  H  7997  8010       L1    21  1.00
      L1  C    14    41       P1  8028  1.00

> <Gold.PLP.Chemscore.Internal.Correction>
0.1335

> <Gold.Rescore>
     Score         DG    S(hbond)    S(metal)    S(lipo)     H(rot)  DE(clash)    DE(int)     intcor
     14.70     -15.63       1.95        0.00      73.08       1.92       0.07       0.86       ----

> <Gold.Chemscore.Fitness>
14.6955

> <Gold.Chemscore.DG>
-15.6274

> <Gold.Chemscore.ZeroCoef>
-5.4800

> <Gold.Chemscore.Hbond>
1.9497

> <Gold.Chemscore.Metal>
0.0000

> <Gold.Chemscore.Lipo>
73.0765

> <Gold.Chemscore.Internal_Hbond>
0.0000

> <Gold.Chemscore.DEClash>
0.0712

> <Gold.Chemscore.DEInternal>
0.8607

> <Gold.Chemscore.Rot>
1.9198

> <Gold.Chemscore.Internal.Correction>
   9.000000E+99

> <Gold.Chemscore.Hbonds>
donor molecule, donor type, donor heavy atom, donor atom, acceptor molecule, acceptor atom, score
      L1  H     5    50       P1  7948  1.00
      P1  H  7997  8010       L1    21  0.69

> <Gold.Chemscore.Hbond.Weighted>
-6.5121

> <Gold.Chemscore.Metal.Weighted>
-0.0000

> <Gold.Chemscore.Lipo.Weighted>
-8.5500

> <Gold.Chemscore.Internal_Hbond.Weighted>
0.0000

> <Gold.Chemscore.DEClash.Weighted>
0.0712

> <Gold.Chemscore.DEInternal.Weighted>
0.8607

> <Gold.Chemscore.Rot.Weighted>
4.9147

> <Gold.Chemscore.Internal.Correction.Weighted>
   9.000000E+99

> <Gold.Protein.RotatedTorsions>
[ 6907 6896 6895 6894 ] final   68.65 input  -60.11 | X-H torsion
[ 7974 7965 7964 7962 ] final  -70.82 input  175.53 | X-H torsion
[ 8008 7997 7996 7995 ] final   49.78 input   59.86 | X-H torsion
[ 10167 10162 10161 10158 ] final -173.94 input  -65.29 | X-H torsion
[ 10718 10713 10712 10709 ] final  -29.81 input   66.30 | X-H torsion
[ 10763 10752 10751 10750 ] final -114.41 input  -60.55 | X-H torsion
[ 11005 11000 10999 10996 ] final   62.75 input  -57.11 | X-H torsion

> <Gold.Protein.ActiveResidues>
 VAL166  LYS551  ARG553  GLY616  TRP617  ASP618  TYR619  PRO620  LYS621  CYS622 
 ASP623  PHE694  ASN695  SER759  ASP760  ASP761  ALA762  ILE779  LEU786  VAL792 
 PHE793  MET794  SER795  GLU796  ALA797  LYS798  CYS799  TRP800  GLU811  SER814 

> <Gold.Protein.RotatedAtoms>
  152.4635  134.5131  159.9759 H   0  0  0  0  0  0  0  0  0  0  0  0  # atno 6907 bound_to 6896
  151.5174  133.3467  159.2903 H   0  0  0  0  0  0  0  0  0  0  0  0  # atno 6908 bound_to 6896
  150.8608  134.7988  159.7143 H   0  0  0  0  0  0  0  0  0  0  0  0  # atno 6909 bound_to 6896
  145.6861  140.9170  143.0806 H   0  0  0  0  0  0  0  0  0  0  0  0  # atno 7974 bound_to 7965
  155.4078  140.3441  155.4261 H   0  0  0  0  0  0  0  0  0  0  0  0  # atno 8008 bound_to 7997
  156.1466  140.1558  156.8868 H   0  0  0  0  0  0  0  0  0  0  0  0  # atno 8009 bound_to 7997
  154.5016  140.0813  156.7790 H   0  0  0  0  0  0  0  0  0  0  0  0  # atno 8010 bound_to 7997
  139.5661  144.1752  152.1314 H   0  0  0  0  0  0  0  0  0  0  0  0  # atno 10167 bound_to 10162
  156.4077  130.4402  149.7275 H   0  0  0  0  0  0  0  0  0  0  0  0  # atno 10718 bound_to 10713
  154.8438  135.4419  154.1501 H   0  0  0  0  0  0  0  0  0  0  0  0  # atno 10763 bound_to 10752
  153.2664  135.6941  153.7532 H   0  0  0  0  0  0  0  0  0  0  0  0  # atno 10764 bound_to 10752
  153.6789  135.3406  155.3148 H   0  0  0  0  0  0  0  0  0  0  0  0  # atno 10765 bound_to 10752
  140.0071  134.6353  155.9838 H   0  0  0  0  0  0  0  0  0  0  0  0  # atno 11005 bound_to 11000
  144.7011  139.8760  143.7444 LP  0  0  0  0  0  0  0  0  0  0  0  0  # atno 17320 bound_to 7965
  146.0922  139.3913  143.0398 LP  0  0  0  0  0  0  0  0  0  0  0  0  # atno 17321 bound_to 7965
  140.1276  144.5318  150.6823 LP  0  0  0  0  0  0  0  0  0  0  0  0  # atno 17342 bound_to 10162
  140.6944  143.2395  151.5041 LP  0  0  0  0  0  0  0  0  0  0  0  0  # atno 17343 bound_to 10162
  156.4266  130.7795  151.2813 LP  0  0  0  0  0  0  0  0  0  0  0  0  # atno 17370 bound_to 10713
  157.7506  131.0167  150.3554 LP  0  0  0  0  0  0  0  0  0  0  0  0  # atno 17371 bound_to 10713
  141.1685  133.6537  156.4564 LP  0  0  0  0  0  0  0  0  0  0  0  0  # atno 17394 bound_to 11000
  140.4621  134.6831  157.5090 LP  0  0  0  0  0  0  0  0  0  0  0  0  # atno 17395 bound_to 11000

$$$$
