AV-unprocessed.smi:221|AV-procd|sdf|1700|dock9
  -GOLD-   2262020153D 1   1.00000     0.00000
 Structure written by MMmdl.
 50 53  0  0  0  0  0  0  0  0  1 V2000
  143.4665  133.3977  149.9011 N   0  0  0  0  0  0  0  0  0  0  0  0
  143.8374  133.2233  151.1736 C   0  0  0  0  0  0  0  0  0  0  0  0
  143.1172  133.5746  152.1054 O   0  0  0  0  0  0  0  0  0  0  0  0
  145.1954  132.5599  151.4693 C   0  0  2  0  0  0  0  0  0  0  0  0
  145.2421  131.1086  150.9661 C   0  0  0  0  0  0  0  0  0  0  0  0
  146.3237  130.4862  151.8368 C   0  0  2  0  0  0  0  0  0  0  0  0
  146.2415  129.1570  151.8877 F   0  0  0  0  0  0  0  0  0  0  0  0
  146.0800  131.1442  153.1917 C   0  0  0  0  0  0  0  0  0  0  0  0
  145.5246  132.4633  152.8997 N   0  0  0  0  0  0  0  0  0  0  0  0
  146.2170  133.4998  153.4252 C   0  0  0  0  0  0  0  0  0  0  0  0
  145.6059  134.6975  153.6248 N   0  0  0  0  0  0  0  0  0  0  0  0
  146.2962  135.7198  154.1404 C   0  0  0  0  0  0  0  0  0  0  0  0
  147.5778  135.7590  154.5134 N   0  0  0  0  0  0  0  0  0  0  0  0
  148.1906  134.5579  154.3070 C   0  0  0  0  0  0  0  0  0  0  0  0
  147.5892  133.3874  153.7679 C   0  0  0  0  0  0  0  0  0  0  0  0
  148.5208  132.3592  153.6977 N   0  0  0  0  0  0  0  0  0  0  0  0
  149.6136  132.8917  154.1738 C   0  0  0  0  0  0  0  0  0  0  0  0
  149.5020  134.2057  154.5706 N   0  0  0  0  0  0  0  0  0  0  0  0
  150.5486  135.0400  155.1334 C   0  0  0  0  0  0  0  0  0  0  0  0
  150.0717  136.4588  155.5451 C   0  0  1  0  0  0  0  0  0  0  0  0
  149.7382  136.5535  157.0563 C   0  0  0  0  0  0  0  0  0  0  0  0
  150.6471  135.8157  157.8474 O   0  0  0  0  0  0  0  0  0  0  0  0
  151.1264  137.5220  155.1409 C   0  0  1  0  0  0  0  0  0  0  0  0
  150.6734  138.9648  155.2949 C   0  0  0  0  0  0  0  0  0  0  0  0
  151.9956  139.7213  155.2921 C   0  0  0  0  0  0  0  0  0  0  0  0
  152.9231  138.8594  155.9389 O   0  0  0  0  0  0  0  0  0  0  0  0
  152.3934  137.5387  156.0079 C   0  0  0  0  0  0  0  0  0  0  0  0
  145.9617  133.1308  150.9419 H   0  0  0  0  0  0  0  0  0  0  0  0
  147.3127  130.7473  151.4576 H   0  0  0  0  0  0  0  0  0  0  0  0
  142.5778  133.8284  149.6918 H   0  0  0  0  0  0  0  0  0  0  0  0
  144.0750  133.0954  149.1535 H   0  0  0  0  0  0  0  0  0  0  0  0
  144.2899  130.6040  151.1423 H   0  0  0  0  0  0  0  0  0  0  0  0
  145.4695  131.0367  149.9021 H   0  0  0  0  0  0  0  0  0  0  0  0
  145.3307  130.5875  153.7561 H   0  0  0  0  0  0  0  0  0  0  0  0
  146.9893  131.1682  153.7954 H   0  0  0  0  0  0  0  0  0  0  0  0
  145.7425  136.6374  154.2740 H   0  0  0  0  0  0  0  0  0  0  0  0
  150.5355  132.3344  154.2560 H   0  0  0  0  0  0  0  0  0  0  0  0
  150.9759  134.5246  155.9945 H   0  0  0  0  0  0  0  0  0  0  0  0
  151.3409  135.1003  154.3876 H   0  0  0  0  0  0  0  0  0  0  0  0
  149.1611  136.6846  154.9876 H   0  0  0  0  0  0  0  0  0  0  0  0
  149.7249  137.5927  157.3859 H   0  0  0  0  0  0  0  0  0  0  0  0
  148.7514  136.1460  157.2704 H   0  0  0  0  0  0  0  0  0  0  0  0
  151.5095  136.1875  157.7411 H   0  0  0  0  0  0  0  0  0  0  0  0
  151.4194  137.3645  154.1014 H   0  0  0  0  0  0  0  0  0  0  0  0
  150.0081  139.2975  154.4979 H   0  0  0  0  0  0  0  0  0  0  0  0
  150.1630  139.1061  156.2488 H   0  0  0  0  0  0  0  0  0  0  0  0
  152.3336  139.8919  154.2691 H   0  0  0  0  0  0  0  0  0  0  0  0
  151.9279  140.6872  155.7931 H   0  0  0  0  0  0  0  0  0  0  0  0
  152.1538  137.3234  157.0502 H   0  0  0  0  0  0  0  0  0  0  0  0
  153.1349  136.8118  155.6761 H   0  0  0  0  0  0  0  0  0  0  0  0
  1  2  1  0  0  0  0
  1 30  1  0  0  0  0
  1 31  1  0  0  0  0
  2  3  2  0  0  0  0
  2  4  1  0  0  0  0
  4 28  1  0  0  0  0
  4  9  1  0  0  0  0
  4  5  1  0  0  0  0
  5  6  1  0  0  0  0
  5 32  1  0  0  0  0
  5 33  1  0  0  0  0
  6 29  1  0  0  0  0
  6  7  1  0  0  0  0
  6  8  1  0  0  0  0
  8  9  1  0  0  0  0
  8 34  1  0  0  0  0
  8 35  1  0  0  0  0
  9 10  1  0  0  0  0
 10 15  1  0  0  0  0
 10 11  2  0  0  0  0
 11 12  1  0  0  0  0
 12 13  2  0  0  0  0
 12 36  1  0  0  0  0
 13 14  1  0  0  0  0
 14 18  1  0  0  0  0
 14 15  2  0  0  0  0
 15 16  1  0  0  0  0
 16 17  2  0  0  0  0
 17 18  1  0  0  0  0
 17 37  1  0  0  0  0
 18 19  1  0  0  0  0
 19 20  1  0  0  0  0
 19 38  1  0  0  0  0
 19 39  1  0  0  0  0
 20 21  1  0  0  0  0
 20 23  1  0  0  0  0
 20 40  1  0  0  0  0
 21 22  1  0  0  0  0
 21 41  1  0  0  0  0
 21 42  1  0  0  0  0
 22 43  1  0  0  0  0
 23 27  1  0  0  0  0
 23 24  1  0  0  0  0
 23 44  1  0  0  0  0
 24 25  1  0  0  0  0
 24 45  1  0  0  0  0
 24 46  1  0  0  0  0
 25 26  1  0  0  0  0
 25 47  1  0  0  0  0
 25 48  1  0  0  0  0
 26 27  1  0  0  0  0
 27 49  1  0  0  0  0
 27 50  1  0  0  0  0
M  END
> <s_m_source_file>
AV-unprocessed.smi

> <i_m_source_file_index>
221

> <i_lp_mmshare_version>
43012

> <i_f3d_flags>
0

> <s_epik_input>
W05IMl1DKD1PKVtDQEBIXTFbQ0gyXVtDQEBIXShGKVtDSDJdTjFjKG5bY0hdbjIpYyhjMjMpbltjSF1uM1tDSDJdW0NASF0oW0NIMl1bT0hdKVtDQEBIXTRbQ0gyXVtDSDJdT1tDSDJdNA==

> <s_epik_cmdline>
J2VwaWtfcHl0aG9uJywgJy1waCcsICc3LjAnLCAnLXRuJywgJzgnLCAnLW1hJywgJzIwMCcsICctbWV0YWxfYmluZGluZycsICctaW1hZScsICc8aW5maWxlLm1hZT4nLCAnLW9tYWUnLCAnPG91dGZpbGUubWFlPic=

> <r_lp_tautomer_probability>
1

> <r_epik_Ionization_Penalty>
0.000818822

> <r_epik_Ionization_Penalty_Charging>
0

> <r_epik_Ionization_Penalty_Neutral>
0.000818822

> <r_epik_State_Penalty>
0.000440551

> <r_epik_Charging_Adjusted_Penalty>
0.000440551

> <i_epik_Tot_Q>
0

> <i_epik_Tot_abs_Q>
0

> <r_epik_Metal_State_Penalty>
-0

> <b_epik_Metal_Only>
0

> <s_lp_Force_Field>
OPLS_2005

> <r_lp_Energy>
51.3471

> <b_lp_Chiralities_Consistent>
1

> <s_lp_Variant>
AV-unprocessed.smi:221-15

> <Gold.Version>
5.8.1

> <Gold.Id.Protein>
6NUR|6NUR_protein|mol2

> <Gold.PLP.Fitness>
42.6649

> <Gold.PLP.PLP>
-37.2313

> <Gold.PLP.part.hbond>
-3.0000

> <Gold.PLP.part.metal>
0.0000

> <Gold.PLP.part.buried>
-4.7738

> <Gold.PLP.part.nonpolar>
-30.9559

> <Gold.PLP.part.repulsive>
1.3608

> <Gold.PLP.ligand.clash>
0.0000

> <Gold.PLP.ligand.torsion>
1.3816

> <Gold.PLP.Chemscore.Hbond>
2.6480

> <Gold.PLP.Chemscore.CHOScore>
0.0000

> <Gold.PLP.Chemscore.Metal>
0.0000

> <Gold.Chemscore.Hbonds>
donor molecule, donor type, donor heavy atom, donor atom, acceptor molecule, acceptor atom, score
      L1  H     1    30       P1 10186  1.00
      P1  H  6896  6907       L1    22  0.53
      P1  H  7997  8008       L1    26  0.93

> <Gold.PLP.Chemscore.Internal.Correction>
0.2528

> <Gold.Rescore>
     Score         DG    S(hbond)    S(metal)    S(lipo)     H(rot)  DE(clash)    DE(int)     intcor
      6.29     -13.27       2.81        0.00      67.77       3.72       1.37       5.62       ----

> <Gold.Chemscore.Fitness>
6.2887

> <Gold.Chemscore.DG>
-13.2748

> <Gold.Chemscore.ZeroCoef>
-5.4800

> <Gold.Chemscore.Hbond>
2.8111

> <Gold.Chemscore.Metal>
0.0000

> <Gold.Chemscore.Lipo>
67.7722

> <Gold.Chemscore.Internal_Hbond>
0.0000

> <Gold.Chemscore.DEClash>
1.3659

> <Gold.Chemscore.DEInternal>
5.6202

> <Gold.Chemscore.Rot>
3.7202

> <Gold.Chemscore.Internal.Correction>
   9.000000E+99

> <Gold.Chemscore.Hbonds>
donor molecule, donor type, donor heavy atom, donor atom, acceptor molecule, acceptor atom, score
      L1  H     1    30       P1 10186  1.00
      P1  H  6896  6907       L1    22  0.23
      P1  H  7997  8008       L1    26  0.43

> <Gold.Chemscore.Hbond.Weighted>
-9.3892

> <Gold.Chemscore.Metal.Weighted>
-0.0000

> <Gold.Chemscore.Lipo.Weighted>
-7.9293

> <Gold.Chemscore.Internal_Hbond.Weighted>
0.0000

> <Gold.Chemscore.DEClash.Weighted>
1.3659

> <Gold.Chemscore.DEInternal.Weighted>
5.6202

> <Gold.Chemscore.Rot.Weighted>
9.5237

> <Gold.Chemscore.Internal.Correction.Weighted>
   9.000000E+99

> <Gold.Protein.RotatedTorsions>
[ 6907 6896 6895 6894 ] final  -60.26 input  -60.11 | X-H torsion
[ 7974 7965 7964 7962 ] final  134.22 input  175.53 | X-H torsion
[ 8008 7997 7996 7995 ] final  -60.11 input   59.86 | X-H torsion
[ 10167 10162 10161 10158 ] final -121.89 input  -65.29 | X-H torsion
[ 10718 10713 10712 10709 ] final  -29.80 input   66.30 | X-H torsion
[ 10763 10752 10751 10750 ] final  -52.18 input  -60.55 | X-H torsion
[ 11005 11000 10999 10996 ] final -143.84 input  -57.11 | X-H torsion

> <Gold.Protein.ActiveResidues>
 VAL166  LYS551  ARG553  GLY616  TRP617  ASP618  TYR619  PRO620  LYS621  CYS622 
 ASP623  PHE694  ASN695  SER759  ASP760  ASP761  ALA762  ILE779  LEU786  VAL792 
 PHE793  MET794  SER795  GLU796  ALA797  LYS798  CYS799  TRP800  GLU811  SER814 

> <Gold.Protein.RotatedAtoms>
  150.7869  134.6861  159.6470 H   0  0  0  0  0  0  0  0  0  0  0  0  # atno 6907 bound_to 6896
  152.3967  134.6350  160.0095 H   0  0  0  0  0  0  0  0  0  0  0  0  # atno 6908 bound_to 6896
  151.6634  133.3279  159.3215 H   0  0  0  0  0  0  0  0  0  0  0  0  # atno 6909 bound_to 6896
  144.9785  139.4529  143.5398 H   0  0  0  0  0  0  0  0  0  0  0  0  # atno 7974 bound_to 7965
  154.4383  140.1047  156.6222 H   0  0  0  0  0  0  0  0  0  0  0  0  # atno 8008 bound_to 7997
  155.5695  140.3489  155.4493 H   0  0  0  0  0  0  0  0  0  0  0  0  # atno 8009 bound_to 7997
  156.0400  140.1280  157.0155 H   0  0  0  0  0  0  0  0  0  0  0  0  # atno 8010 bound_to 7997
  140.0201  143.5353  152.2224 H   0  0  0  0  0  0  0  0  0  0  0  0  # atno 10167 bound_to 10162
  156.4078  130.4402  149.7274 H   0  0  0  0  0  0  0  0  0  0  0  0  # atno 10718 bound_to 10713
  154.1386  135.6509  153.4937 H   0  0  0  0  0  0  0  0  0  0  0  0  # atno 10763 bound_to 10752
  153.0173  135.5310  154.6928 H   0  0  0  0  0  0  0  0  0  0  0  0  # atno 10764 bound_to 10752
  154.6183  135.2962  155.0326 H   0  0  0  0  0  0  0  0  0  0  0  0  # atno 10765 bound_to 10752
  140.8085  134.2773  157.4950 H   0  0  0  0  0  0  0  0  0  0  0  0  # atno 11005 bound_to 11000
  146.3402  139.9043  142.8789 LP  0  0  0  0  0  0  0  0  0  0  0  0  # atno 17320 bound_to 7965
  145.2455  141.0025  143.3911 LP  0  0  0  0  0  0  0  0  0  0  0  0  # atno 17321 bound_to 7965
  139.6145  144.7616  151.2876 LP  0  0  0  0  0  0  0  0  0  0  0  0  # atno 17342 bound_to 10162
  140.7346  143.6761  150.8040 LP  0  0  0  0  0  0  0  0  0  0  0  0  # atno 17343 bound_to 10162
  156.4265  130.7794  151.2813 LP  0  0  0  0  0  0  0  0  0  0  0  0  # atno 17370 bound_to 10713
  157.7506  131.0167  150.3555 LP  0  0  0  0  0  0  0  0  0  0  0  0  # atno 17371 bound_to 10713
  139.8716  134.9469  156.3953 LP  0  0  0  0  0  0  0  0  0  0  0  0  # atno 17394 bound_to 11000
  140.9222  133.7637  155.9921 LP  0  0  0  0  0  0  0  0  0  0  0  0  # atno 17395 bound_to 11000

$$$$
