AV-unprocessed.smi:1774|AV-procd|sdf|7169|dock5
  -GOLD-   22720 8403D 1   1.00000     0.00000
 Structure written by MMmdl.
 46 47  0  0  0  0  0  0  0  0  2 V2000
  147.7148  132.9038  152.6112 C   0  0  0  0  0  0  0  0  0  0  0  0
  146.4229  132.9082  151.8106 C   0  0  0  0  0  0  0  0  0  0  0  0
  145.8298  131.6794  151.4502 C   0  0  0  0  0  0  0  0  0  0  0  0
  144.6348  131.6856  150.7108 C   0  0  0  0  0  0  0  0  0  0  0  0
  144.0802  132.9284  150.3601 C   0  0  0  0  0  0  0  0  0  0  0  0
  144.6400  134.1071  150.7006 N   0  0  0  0  0  0  0  0  0  0  0  0
  145.7928  134.1188  151.4160 C   0  0  0  0  0  0  0  0  0  0  0  0
  146.4371  135.3249  151.8126 N   0  0  0  0  0  0  0  0  0  0  0  0
  145.9070  136.3841  152.4492 C   0  0  0  0  0  0  0  0  0  0  0  0
  144.7287  136.4989  152.7884 O   0  0  0  0  0  0  0  0  0  0  0  0
  146.8325  137.3258  152.6842 N   0  0  0  0  0  0  0  0  0  0  0  0
  146.5800  138.5743  153.3941 C   0  0  0  0  0  0  0  0  0  0  0  0
  147.8910  139.2932  153.7658 C   0  0  0  0  0  0  0  0  0  0  0  0
  148.9789  138.3367  154.0858 N   0  3  1  0  0  0  0  0  0  0  0  0
  150.3185  138.9676  154.0681 C   0  0  0  0  0  0  0  0  0  0  0  0
  151.4129  137.9088  154.2957 C   0  0  1  0  0  0  0  0  0  0  0  0
  152.8104  138.5332  154.3717 C   0  0  0  0  0  0  0  0  0  0  0  0
  151.1692  137.2288  155.5245 O   0  0  0  0  0  0  0  0  0  0  0  0
  149.8945  136.5925  155.6172 C   0  0  2  0  0  0  0  0  0  0  0  0
  149.7992  135.3426  154.7242 C   0  0  0  0  0  0  0  0  0  0  0  0
  148.7696  137.6154  155.3656 C   0  0  0  0  0  0  0  0  0  0  0  0
  148.0298  131.8879  152.8507 H   0  0  0  0  0  0  0  0  0  0  0  0
  147.5859  133.4439  153.5496 H   0  0  0  0  0  0  0  0  0  0  0  0
  148.5157  133.3791  152.0443 H   0  0  0  0  0  0  0  0  0  0  0  0
  146.2822  130.7413  151.7363 H   0  0  0  0  0  0  0  0  0  0  0  0
  144.1557  130.7625  150.4198 H   0  0  0  0  0  0  0  0  0  0  0  0
  143.1634  132.9784  149.7916 H   0  0  0  0  0  0  0  0  0  0  0  0
  147.4233  135.3738  151.6046 H   0  0  0  0  0  0  0  0  0  0  0  0
  147.7781  137.1572  152.3728 H   0  0  0  0  0  0  0  0  0  0  0  0
  145.9358  139.2072  152.7830 H   0  0  0  0  0  0  0  0  0  0  0  0
  146.0159  138.3421  154.2979 H   0  0  0  0  0  0  0  0  0  0  0  0
  148.1894  139.9095  152.9162 H   0  0  0  0  0  0  0  0  0  0  0  0
  147.7461  139.9763  154.6044 H   0  0  0  0  0  0  0  0  0  0  0  0
  150.4824  139.4590  153.1083 H   0  0  0  0  0  0  0  0  0  0  0  0
  150.3677  139.7402  154.8375 H   0  0  0  0  0  0  0  0  0  0  0  0
  151.4077  137.1940  153.4727 H   0  0  0  0  0  0  0  0  0  0  0  0
  153.0546  139.0636  153.4509 H   0  0  0  0  0  0  0  0  0  0  0  0
  153.5712  137.7673  154.5242 H   0  0  0  0  0  0  0  0  0  0  0  0
  152.8828  139.2428  155.1963 H   0  0  0  0  0  0  0  0  0  0  0  0
  149.8046  136.2490  156.6482 H   0  0  0  0  0  0  0  0  0  0  0  0
  148.8715  134.8023  154.9144 H   0  0  0  0  0  0  0  0  0  0  0  0
  150.6241  134.6586  154.9246 H   0  0  0  0  0  0  0  0  0  0  0  0
  149.8182  135.5880  153.6628 H   0  0  0  0  0  0  0  0  0  0  0  0
  148.7487  138.3400  156.1814 H   0  0  0  0  0  0  0  0  0  0  0  0
  147.8050  137.1091  155.3748 H   0  0  0  0  0  0  0  0  0  0  0  0
  148.9816  137.6455  153.3494 H   0  0  0  0  0  0  0  0  0  0  0  0
  1  2  1  0  0  0  0
  1 22  1  0  0  0  0
  1 23  1  0  0  0  0
  1 24  1  0  0  0  0
  2  7  1  0  0  0  0
  2  3  2  0  0  0  0
  3  4  1  0  0  0  0
  3 25  1  0  0  0  0
  4  5  2  0  0  0  0
  4 26  1  0  0  0  0
  5  6  1  0  0  0  0
  5 27  1  0  0  0  0
  6  7  2  0  0  0  0
  7  8  1  0  0  0  0
  8  9  1  0  0  0  0
  8 28  1  0  0  0  0
  9 10  2  0  0  0  0
  9 11  1  0  0  0  0
 11 12  1  0  0  0  0
 11 29  1  0  0  0  0
 12 13  1  0  0  0  0
 12 30  1  0  0  0  0
 12 31  1  0  0  0  0
 13 14  1  0  0  0  0
 13 32  1  0  0  0  0
 13 33  1  0  0  0  0
 14 21  1  0  0  0  0
 14 15  1  0  0  0  0
 14 46  1  0  0  0  0
 15 16  1  0  0  0  0
 15 34  1  0  0  0  0
 15 35  1  0  0  0  0
 16 17  1  0  0  0  0
 16 18  1  0  0  0  0
 16 36  1  0  0  0  0
 17 37  1  0  0  0  0
 17 38  1  0  0  0  0
 17 39  1  0  0  0  0
 18 19  1  0  0  0  0
 19 20  1  0  0  0  0
 19 21  1  0  0  0  0
 19 40  1  0  0  0  0
 20 41  1  0  0  0  0
 20 42  1  0  0  0  0
 20 43  1  0  0  0  0
 21 44  1  0  0  0  0
 21 45  1  0  0  0  0
M  CHG  1  14   1
M  END
> <s_m_source_file>
AV-unprocessed.smi

> <i_m_source_file_index>
1774

> <i_lp_mmshare_version>
43012

> <i_f3d_flags>
0

> <s_epik_input>
W0NIM11jMVtjSF1bY0hdW2NIXW5jMVtOSF1DKD1PKVtOSF1bQ0gyXVtDSDJdTjJbQ0gyXVtDQEBIXShbQ0gzXSlPW0NAQEhdKFtDSDNdKVtDSDJdMg==

> <s_epik_cmdline>
J2VwaWtfcHl0aG9uJywgJy1waCcsICc3LjAnLCAnLXRuJywgJzgnLCAnLW1hJywgJzIwMCcsICctbWV0YWxfYmluZGluZycsICctaW1hZScsICc8aW5maWxlLm1hZT4nLCAnLW9tYWUnLCAnPG91dGZpbGUubWFlPic=

> <r_epik_Ionization_Penalty>
0.602573

> <r_epik_Ionization_Penalty_Charging>
0.602531

> <r_epik_Ionization_Penalty_Neutral>
4.21996e-05

> <r_epik_State_Penalty>
0.617039

> <r_epik_Charging_Adjusted_Penalty>
1.21957

> <i_epik_Tot_Q>
1

> <i_epik_Tot_abs_Q>
1

> <r_epik_Metal_State_Penalty>
0.617042

> <b_epik_Metal_Only>
0

> <s_lp_Force_Field>
OPLS_2005

> <r_lp_Energy>
18.7656

> <b_lp_Chiralities_Consistent>
1

> <s_lp_Variant>
AV-unprocessed.smi:1774-6

> <Gold.Version>
5.8.1

> <Gold.Id.Protein>
6NUR|6NUR_protein|mol2

> <Gold.PLP.Fitness>
49.2575

> <Gold.PLP.PLP>
-35.8372

> <Gold.PLP.part.hbond>
-2.8985

> <Gold.PLP.part.metal>
0.0000

> <Gold.PLP.part.buried>
-3.9464

> <Gold.PLP.part.nonpolar>
-29.7969

> <Gold.PLP.part.repulsive>
0.5592

> <Gold.PLP.ligand.clash>
0.0000

> <Gold.PLP.ligand.torsion>
0.7636

> <Gold.PLP.Chemscore.Hbond>
3.9760

> <Gold.PLP.Chemscore.CHOScore>
1.0000

> <Gold.PLP.Chemscore.Metal>
0.0000

> <Gold.Chemscore.Hbonds>
donor molecule, donor type, donor heavy atom, donor atom, acceptor molecule, acceptor atom, score
      L1  H     8    28       P1  7948  0.98
      L1  H    11    29       P1  7948  1.00
      L1  H    14    46       P1  7948  1.98
      L1  C     5    27       P1 10186  0.81

> <Gold.PLP.Chemscore.Internal.Correction>
0.0196

> <Gold.Rescore>
     Score         DG    S(hbond)    S(metal)    S(lipo)     H(rot)  DE(clash)    DE(int)     intcor
     20.34     -21.13       2.80        0.00      86.38       1.49       0.06       0.73       ----

> <Gold.Chemscore.Fitness>
20.3428

> <Gold.Chemscore.DG>
-21.1282

> <Gold.Chemscore.ZeroCoef>
-5.4800

> <Gold.Chemscore.Hbond>
2.8047

> <Gold.Chemscore.Metal>
0.0000

> <Gold.Chemscore.Lipo>
86.3802

> <Gold.Chemscore.Internal_Hbond>
0.0000

> <Gold.Chemscore.DEClash>
0.0562

> <Gold.Chemscore.DEInternal>
0.7292

> <Gold.Chemscore.Rot>
1.4946

> <Gold.Chemscore.Internal.Correction>
   9.000000E+99

> <Gold.Chemscore.Hbonds>
donor molecule, donor type, donor heavy atom, donor atom, acceptor molecule, acceptor atom, score
      L1  H     8    28       P1  7948  0.88
      L1  H    11    29       P1  7948  0.94
      L1  H    14    46       P1  7948  0.92

> <Gold.Chemscore.Hbond.Weighted>
-9.3678

> <Gold.Chemscore.Metal.Weighted>
-0.0000

> <Gold.Chemscore.Lipo.Weighted>
-10.1065

> <Gold.Chemscore.Internal_Hbond.Weighted>
0.0000

> <Gold.Chemscore.DEClash.Weighted>
0.0562

> <Gold.Chemscore.DEInternal.Weighted>
0.7292

> <Gold.Chemscore.Rot.Weighted>
3.8261

> <Gold.Chemscore.Internal.Correction.Weighted>
   9.000000E+99

> <Gold.Protein.RotatedTorsions>
[ 6907 6896 6895 6894 ] final   94.49 input  -60.11 | X-H torsion
[ 7974 7965 7964 7962 ] final  -90.21 input  175.53 | X-H torsion
[ 8008 7997 7996 7995 ] final  -79.99 input   59.86 | X-H torsion
[ 10167 10162 10161 10158 ] final -154.19 input  -65.29 | X-H torsion
[ 10718 10713 10712 10709 ] final  110.15 input   66.30 | X-H torsion
[ 10763 10752 10751 10750 ] final  127.48 input  -60.55 | X-H torsion
[ 11005 11000 10999 10996 ] final   -8.48 input  -57.11 | X-H torsion

> <Gold.Protein.ActiveResidues>
 VAL166  LYS551  ARG553  GLY616  TRP617  ASP618  TYR619  PRO620  LYS621  CYS622 
 ASP623  PHE694  ASN695  SER759  ASP760  ASP761  ALA762  ILE779  LEU786  VAL792 
 PHE793  MET794  SER795  GLU796  ALA797  LYS798  CYS799  TRP800  GLU811  SER814 

> <Gold.Protein.RotatedAtoms>
  152.5449  134.1185  159.8388 H   0  0  0  0  0  0  0  0  0  0  0  0  # atno 6907 bound_to 6896
  151.1244  133.5074  159.2608 H   0  0  0  0  0  0  0  0  0  0  0  0  # atno 6908 bound_to 6896
  151.1744  135.0342  159.8820 H   0  0  0  0  0  0  0  0  0  0  0  0  # atno 6909 bound_to 6896
  145.4295  140.9555  143.2136 H   0  0  0  0  0  0  0  0  0  0  0  0  # atno 7974 bound_to 7965
  154.5839  140.0670  156.9144 H   0  0  0  0  0  0  0  0  0  0  0  0  # atno 8008 bound_to 7997
  155.2413  140.3345  155.4274 H   0  0  0  0  0  0  0  0  0  0  0  0  # atno 8009 bound_to 7997
  156.2209  140.1798  156.7464 H   0  0  0  0  0  0  0  0  0  0  0  0  # atno 8010 bound_to 7997
  139.7034  143.9226  152.2438 H   0  0  0  0  0  0  0  0  0  0  0  0  # atno 10167 bound_to 10162
  157.6508  131.0927  150.6559 H   0  0  0  0  0  0  0  0  0  0  0  0  # atno 10718 bound_to 10713
  153.7101  135.3269  155.3244 H   0  0  0  0  0  0  0  0  0  0  0  0  # atno 10763 bound_to 10752
  154.8387  135.4475  154.1323 H   0  0  0  0  0  0  0  0  0  0  0  0  # atno 10764 bound_to 10752
  153.2414  135.6971  153.7858 H   0  0  0  0  0  0  0  0  0  0  0  0  # atno 10765 bound_to 10752
  140.7240  133.8805  155.8842 H   0  0  0  0  0  0  0  0  0  0  0  0  # atno 11005 bound_to 11000
  144.8192  139.5822  143.6994 LP  0  0  0  0  0  0  0  0  0  0  0  0  # atno 17320 bound_to 7965
  146.2614  139.6420  142.9359 LP  0  0  0  0  0  0  0  0  0  0  0  0  # atno 17321 bound_to 7965
  139.9075  144.6876  150.8598 LP  0  0  0  0  0  0  0  0  0  0  0  0  # atno 17342 bound_to 10162
  140.7715  143.3468  151.2095 LP  0  0  0  0  0  0  0  0  0  0  0  0  # atno 17343 bound_to 10162
  156.6871  130.4584  149.5611 LP  0  0  0  0  0  0  0  0  0  0  0  0  # atno 17370 bound_to 10713
  156.1888  130.6546  151.1037 LP  0  0  0  0  0  0  0  0  0  0  0  0  # atno 17371 bound_to 10713
  140.9979  134.1190  157.4346 LP  0  0  0  0  0  0  0  0  0  0  0  0  # atno 17394 bound_to 11000
  139.8841  135.0060  156.6349 LP  0  0  0  0  0  0  0  0  0  0  0  0  # atno 17395 bound_to 11000

$$$$
