AV-unprocessed.smi:3303|AV-procd|sdf|12677|dock8
  -GOLD-   2272019 13D 1   1.00000     0.00000
 Structure written by MMmdl.
 44 45  0  0  0  0  0  0  0  0  2 V2000
  146.5803  142.2808  154.6660 C   0  0  0  0  0  0  0  0  0  0  0  0
  147.7768  141.4851  154.1193 C   0  0  2  0  0  0  0  0  0  0  0  0
  147.6034  139.9667  154.3138 C   0  0  0  0  0  0  0  0  0  0  0  0
  148.6903  139.2236  153.6697 N   0  0  0  0  0  0  0  0  0  0  0  0
  148.3929  137.8019  153.8255 C   0  0  0  0  0  0  0  0  0  0  0  0
  149.9945  139.5812  154.2557 C   0  0  1  0  0  0  0  0  0  0  0  0
  151.1529  138.7978  153.6056 C   0  0  0  0  0  0  0  0  0  0  0  0
  150.2455  141.0982  154.0864 C   0  0  0  0  0  0  0  0  0  0  0  0
  149.1263  141.9561  154.6938 C   0  0  2  0  0  0  0  0  0  0  0  0
  149.1573  141.8730  156.1732 N   0  3  0  0  0  0  0  0  0  0  0  0
  150.5084  141.8097  156.7650 C   0  0  0  0  0  0  0  0  0  0  0  0
  151.0369  143.2153  157.0803 C   0  0  0  0  0  0  0  0  0  0  0  0
  151.4241  143.3687  158.5386 C   0  0  0  0  0  0  0  0  0  0  0  0
  150.9060  144.4267  159.3156 C   0  0  0  0  0  0  0  0  0  0  0  0
  151.3028  144.5255  160.6635 C   0  0  0  0  0  0  0  0  0  0  0  0
  152.1978  143.5682  161.1789 C   0  0  0  0  0  0  0  0  0  0  0  0
  152.6597  142.5511  160.3196 C   0  0  0  0  0  0  0  0  0  0  0  0
  152.2869  142.4486  159.0252 N   0  0  0  0  0  0  0  0  0  0  0  0
  146.4439  142.1235  155.7361 H   0  0  0  0  0  0  0  0  0  0  0  0
  145.6557  141.9828  154.1710 H   0  0  0  0  0  0  0  0  0  0  0  0
  146.7113  143.3503  154.4991 H   0  0  0  0  0  0  0  0  0  0  0  0
  147.8016  141.6699  153.0436 H   0  0  0  0  0  0  0  0  0  0  0  0
  147.5532  139.7184  155.3753 H   0  0  0  0  0  0  0  0  0  0  0  0
  146.6530  139.6613  153.8732 H   0  0  0  0  0  0  0  0  0  0  0  0
  149.0848  137.1840  153.2545 H   0  0  0  0  0  0  0  0  0  0  0  0
  147.3940  137.5739  153.4517 H   0  0  0  0  0  0  0  0  0  0  0  0
  148.4408  137.4983  154.8724 H   0  0  0  0  0  0  0  0  0  0  0  0
  149.9765  139.3437  155.3206 H   0  0  0  0  0  0  0  0  0  0  0  0
  152.1166  139.1697  153.9545 H   0  0  0  0  0  0  0  0  0  0  0  0
  151.1388  138.8926  152.5191 H   0  0  0  0  0  0  0  0  0  0  0  0
  151.1247  137.7372  153.8540 H   0  0  0  0  0  0  0  0  0  0  0  0
  151.2019  141.3743  154.5327 H   0  0  0  0  0  0  0  0  0  0  0  0
  150.3335  141.3304  153.0236 H   0  0  0  0  0  0  0  0  0  0  0  0
  149.2909  142.9918  154.3913 H   0  0  0  0  0  0  0  0  0  0  0  0
  148.6841  142.6848  156.5430 H   0  0  0  0  0  0  0  0  0  0  0  0
  150.4715  141.2078  157.6742 H   0  0  0  0  0  0  0  0  0  0  0  0
  151.1831  141.3082  156.0696 H   0  0  0  0  0  0  0  0  0  0  0  0
  151.9023  143.4378  156.4543 H   0  0  0  0  0  0  0  0  0  0  0  0
  150.2811  143.9634  156.8360 H   0  0  0  0  0  0  0  0  0  0  0  0
  150.2211  145.1469  158.8923 H   0  0  0  0  0  0  0  0  0  0  0  0
  150.9270  145.3203  161.2908 H   0  0  0  0  0  0  0  0  0  0  0  0
  152.5224  143.6116  162.2081 H   0  0  0  0  0  0  0  0  0  0  0  0
  153.3469  141.8006  160.6812 H   0  0  0  0  0  0  0  0  0  0  0  0
  148.6463  141.0489  156.4556 H   0  0  0  0  0  0  0  0  0  0  0  0
  1  2  1  0  0  0  0
  1 19  1  0  0  0  0
  1 20  1  0  0  0  0
  1 21  1  0  0  0  0
  2  9  1  0  0  0  0
  2  3  1  0  0  0  0
  2 22  1  0  0  0  0
  3  4  1  0  0  0  0
  3 23  1  0  0  0  0
  3 24  1  0  0  0  0
  4  5  1  0  0  0  0
  4  6  1  0  0  0  0
  5 25  1  0  0  0  0
  5 26  1  0  0  0  0
  5 27  1  0  0  0  0
  6  7  1  0  0  0  0
  6  8  1  0  0  0  0
  6 28  1  0  0  0  0
  7 29  1  0  0  0  0
  7 30  1  0  0  0  0
  7 31  1  0  0  0  0
  8  9  1  0  0  0  0
  8 32  1  0  0  0  0
  8 33  1  0  0  0  0
  9 10  1  0  0  0  0
  9 34  1  0  0  0  0
 10 11  1  0  0  0  0
 10 35  1  0  0  0  0
 10 44  1  0  0  0  0
 11 12  1  0  0  0  0
 11 36  1  0  0  0  0
 11 37  1  0  0  0  0
 12 13  1  0  0  0  0
 12 38  1  0  0  0  0
 12 39  1  0  0  0  0
 13 18  1  0  0  0  0
 13 14  2  0  0  0  0
 14 15  1  0  0  0  0
 14 40  1  0  0  0  0
 15 16  2  0  0  0  0
 15 41  1  0  0  0  0
 16 17  1  0  0  0  0
 16 42  1  0  0  0  0
 17 18  2  0  0  0  0
 17 43  1  0  0  0  0
M  CHG  1  10   1
M  END
> <s_m_source_file>
AV-unprocessed.smi

> <i_m_source_file_index>
3303

> <i_lp_mmshare_version>
43012

> <i_f3d_flags>
0

> <s_epik_input>
W0NIM11bQ0BASF0xW0NIMl1OKFtDSDNdKVtDQEBIXShbQ0gzXSlbQ0gyXVtDQEhdMVtOSF1bQ0gyXVtDSDJdYzJbY0hdW2NIXVtjSF1bY0hdbjI=

> <s_epik_cmdline>
J2VwaWtfcHl0aG9uJywgJy1waCcsICc3LjAnLCAnLXRuJywgJzgnLCAnLW1hJywgJzIwMCcsICctbWV0YWxfYmluZGluZycsICctaW1hZScsICc8aW5maWxlLm1hZT4nLCAnLW9tYWUnLCAnPG91dGZpbGUubWFlPic=

> <r_epik_Ionization_Penalty>
1.37325

> <r_epik_Ionization_Penalty_Charging>
0.000251572

> <r_epik_Ionization_Penalty_Neutral>
1.373

> <r_epik_State_Penalty>
1.46343

> <r_epik_Charging_Adjusted_Penalty>
1.46368

> <i_epik_Tot_Q>
1

> <i_epik_Tot_abs_Q>
1

> <r_epik_Metal_State_Penalty>
1.46331

> <b_epik_Metal_Only>
0

> <s_lp_Force_Field>
OPLS_2005

> <r_lp_Energy>
25.9316

> <b_lp_Chiralities_Consistent>
1

> <s_lp_Variant>
AV-unprocessed.smi:3303-21

> <Gold.Version>
5.8.1

> <Gold.Id.Protein>
6NUR|6NUR_protein|mol2

> <Gold.PLP.Fitness>
44.1100

> <Gold.PLP.PLP>
-39.7934

> <Gold.PLP.part.hbond>
-1.0000

> <Gold.PLP.part.metal>
0.0000

> <Gold.PLP.part.buried>
-0.7829

> <Gold.PLP.part.nonpolar>
-37.3460

> <Gold.PLP.part.repulsive>
0.2184

> <Gold.PLP.ligand.clash>
0.0000

> <Gold.PLP.ligand.torsion>
0.8435

> <Gold.PLP.Chemscore.Hbond>
2.0000

> <Gold.PLP.Chemscore.CHOScore>
0.0000

> <Gold.PLP.Chemscore.Metal>
0.0000

> <Gold.Chemscore.Hbonds>
donor molecule, donor type, donor heavy atom, donor atom, acceptor molecule, acceptor atom, score
      L1  H    10    35       P1  8028  0.50

> <Gold.PLP.Chemscore.Internal.Correction>
0.0037

> <Gold.Rescore>
     Score         DG    S(hbond)    S(metal)    S(lipo)     H(rot)  DE(clash)    DE(int)     intcor
     17.41     -20.19       0.99        0.00     126.45       1.33       1.85       0.93       ----

> <Gold.Chemscore.Fitness>
17.4105

> <Gold.Chemscore.DG>
-20.1912

> <Gold.Chemscore.ZeroCoef>
-5.4800

> <Gold.Chemscore.Hbond>
0.9944

> <Gold.Chemscore.Metal>
0.0000

> <Gold.Chemscore.Lipo>
126.4471

> <Gold.Chemscore.Internal_Hbond>
0.0000

> <Gold.Chemscore.DEClash>
1.8493

> <Gold.Chemscore.DEInternal>
0.9314

> <Gold.Chemscore.Rot>
1.3298

> <Gold.Chemscore.Internal.Correction>
   9.000000E+99

> <Gold.Chemscore.Hbonds>
donor molecule, donor type, donor heavy atom, donor atom, acceptor molecule, acceptor atom, score
      L1  H    10    35       P1  8028  0.24

> <Gold.Chemscore.Hbond.Weighted>
-3.3212

> <Gold.Chemscore.Metal.Weighted>
-0.0000

> <Gold.Chemscore.Lipo.Weighted>
-14.7943

> <Gold.Chemscore.Internal_Hbond.Weighted>
0.0000

> <Gold.Chemscore.DEClash.Weighted>
1.8493

> <Gold.Chemscore.DEInternal.Weighted>
0.9314

> <Gold.Chemscore.Rot.Weighted>
3.4043

> <Gold.Chemscore.Internal.Correction.Weighted>
   9.000000E+99

> <Gold.Protein.RotatedTorsions>
[ 6907 6896 6895 6894 ] final  121.69 input  -60.11 | X-H torsion
[ 7974 7965 7964 7962 ] final  -13.35 input  175.53 | X-H torsion
[ 8008 7997 7996 7995 ] final  163.59 input   59.86 | X-H torsion
[ 10167 10162 10161 10158 ] final -109.88 input  -65.29 | X-H torsion
[ 10718 10713 10712 10709 ] final   47.04 input   66.30 | X-H torsion
[ 10763 10752 10751 10750 ] final  -93.08 input  -60.55 | X-H torsion
[ 11005 11000 10999 10996 ] final   47.96 input  -57.11 | X-H torsion

> <Gold.Protein.ActiveResidues>
 VAL166  LYS551  ARG553  GLY616  TRP617  ASP618  TYR619  PRO620  LYS621  CYS622 
 ASP623  PHE694  ASN695  SER759  ASP760  ASP761  ALA762  ILE779  LEU786  VAL792 
 PHE793  MET794  SER795  GLU796  ALA797  LYS798  CYS799  TRP800  GLU811  SER814 

> <Gold.Protein.RotatedAtoms>
  152.4302  133.7265  159.6562 H   0  0  0  0  0  0  0  0  0  0  0  0  # atno 6907 bound_to 6896
  150.8181  133.8290  159.3157 H   0  0  0  0  0  0  0  0  0  0  0  0  # atno 6908 bound_to 6896
  151.5981  135.1051  160.0105 H   0  0  0  0  0  0  0  0  0  0  0  0  # atno 6909 bound_to 6896
  146.2117  140.3190  142.8389 H   0  0  0  0  0  0  0  0  0  0  0  0  # atno 7974 bound_to 7965
  156.1945  140.1719  156.8025 H   0  0  0  0  0  0  0  0  0  0  0  0  # atno 8008 bound_to 7997
  154.5513  140.0717  156.8703 H   0  0  0  0  0  0  0  0  0  0  0  0  # atno 8009 bound_to 7997
  155.3024  140.3362  155.4249 H   0  0  0  0  0  0  0  0  0  0  0  0  # atno 8010 bound_to 7997
  140.1506  143.4202  152.1498 H   0  0  0  0  0  0  0  0  0  0  0  0  # atno 10167 bound_to 10162
  157.4544  130.8158  149.7821 H   0  0  0  0  0  0  0  0  0  0  0  0  # atno 10718 bound_to 10713
  154.6924  135.5207  153.8411 H   0  0  0  0  0  0  0  0  0  0  0  0  # atno 10763 bound_to 10752
  153.0642  135.6579  154.0402 H   0  0  0  0  0  0  0  0  0  0  0  0  # atno 10764 bound_to 10752
  154.0274  135.2988  155.3353 H   0  0  0  0  0  0  0  0  0  0  0  0  # atno 10765 bound_to 10752
  140.1233  134.4801  155.8579 H   0  0  0  0  0  0  0  0  0  0  0  0  # atno 11005 bound_to 11000
  144.8934  140.7552  143.5912 LP  0  0  0  0  0  0  0  0  0  0  0  0  # atno 17320 bound_to 7965
  145.3113  139.1818  143.4637 LP  0  0  0  0  0  0  0  0  0  0  0  0  # atno 17321 bound_to 7965
  139.5428  144.7272  151.4679 LP  0  0  0  0  0  0  0  0  0  0  0  0  # atno 17342 bound_to 10162
  140.6705  143.8304  150.6993 LP  0  0  0  0  0  0  0  0  0  0  0  0  # atno 17343 bound_to 10162
  156.0001  130.3885  150.2640 LP  0  0  0  0  0  0  0  0  0  0  0  0  # atno 17370 bound_to 10713
  157.0814  131.0144  151.3155 LP  0  0  0  0  0  0  0  0  0  0  0  0  # atno 17371 bound_to 10713
  141.2156  133.6768  156.6930 LP  0  0  0  0  0  0  0  0  0  0  0  0  # atno 17394 bound_to 11000
  140.2936  134.8220  157.4038 LP  0  0  0  0  0  0  0  0  0  0  0  0  # atno 17395 bound_to 11000

$$$$
