AV-unprocessed.smi:2158|AV-procd|sdf|8789|dock10
  -GOLD-   2272011573D 1   1.00000     0.00000
 Structure written by MMmdl.
 30 30  0  0  0  0  0  0  0  0  2 V2000
  152.6637  143.0661  161.9238 C   0  0  0  0  0  0  0  0  0  0  0  0
  152.2406  144.0957  160.8657 C   0  0  0  0  0  0  0  0  0  0  0  0
  152.6728  143.7245  159.4346 C   0  0  2  0  0  0  0  0  0  0  0  0
  152.3868  144.8612  158.4412 C   0  0  0  0  0  0  0  0  0  0  0  0
  151.9945  142.5043  159.0045 N   0  0  0  0  0  0  0  0  0  0  0  0
  152.5448  141.2816  158.9549 C   0  0  0  0  0  0  0  0  0  0  0  0
  153.7225  141.0563  159.2373 O   0  0  0  0  0  0  0  0  0  0  0  0
  151.6269  140.1462  158.4849 C   0  0  0  0  0  0  0  0  0  0  0  0
  150.9516  140.4580  157.2154 N   0  0  0  0  0  0  0  0  0  0  0  0
  149.6574  141.0039  157.2780 C   0  0  0  0  0  0  0  0  0  0  0  0
  148.9681  141.3259  156.1667 C   0  0  0  0  0  0  0  0  0  0  0  0
  149.5975  141.0942  154.8724 C   0  0  0  0  0  0  0  0  0  0  0  0
  148.9808  141.3781  153.8472 O   0  0  0  0  0  0  0  0  0  0  0  0
  150.8564  140.5660  154.8642 N   0  5  0  0  0  0  0  0  0  0  0  0
  151.5468  140.2463  156.0026 C   0  0  0  0  0  0  0  0  0  0  0  0
  152.6841  139.7738  155.9730 O   0  0  0  0  0  0  0  0  0  0  0  0
  152.3752  143.3966  162.9217 H   0  0  0  0  0  0  0  0  0  0  0  0
  153.7443  142.9216  161.9212 H   0  0  0  0  0  0  0  0  0  0  0  0
  152.1968  142.0960  161.7509 H   0  0  0  0  0  0  0  0  0  0  0  0
  151.1583  144.2264  160.9035 H   0  0  0  0  0  0  0  0  0  0  0  0
  152.6714  145.0621  161.1301 H   0  0  0  0  0  0  0  0  0  0  0  0
  153.7504  143.5501  159.4496 H   0  0  0  0  0  0  0  0  0  0  0  0
  152.9023  145.7763  158.7336 H   0  0  0  0  0  0  0  0  0  0  0  0
  151.3204  145.0826  158.3877 H   0  0  0  0  0  0  0  0  0  0  0  0
  152.7247  144.6024  157.4371 H   0  0  0  0  0  0  0  0  0  0  0  0
  151.0209  142.5917  158.7510 H   0  0  0  0  0  0  0  0  0  0  0  0
  152.1937  139.2176  158.3907 H   0  0  0  0  0  0  0  0  0  0  0  0
  150.8947  139.9555  159.2702 H   0  0  0  0  0  0  0  0  0  0  0  0
  149.2672  141.1501  158.2744 H   0  0  0  0  0  0  0  0  0  0  0  0
  147.9762  141.7479  156.2316 H   0  0  0  0  0  0  0  0  0  0  0  0
  1  2  1  0  0  0  0
  1 17  1  0  0  0  0
  1 18  1  0  0  0  0
  1 19  1  0  0  0  0
  2  3  1  0  0  0  0
  2 20  1  0  0  0  0
  2 21  1  0  0  0  0
  3  4  1  0  0  0  0
  3  5  1  0  0  0  0
  3 22  1  0  0  0  0
  4 23  1  0  0  0  0
  4 24  1  0  0  0  0
  4 25  1  0  0  0  0
  5  6  1  0  0  0  0
  5 26  1  0  0  0  0
  6  7  2  0  0  0  0
  6  8  1  0  0  0  0
  8  9  1  0  0  0  0
  8 27  1  0  0  0  0
  8 28  1  0  0  0  0
  9 15  1  0  0  0  0
  9 10  1  0  0  0  0
 10 11  2  0  0  0  0
 10 29  1  0  0  0  0
 11 12  1  0  0  0  0
 11 30  1  0  0  0  0
 12 13  2  0  0  0  0
 12 14  1  0  0  0  0
 14 15  1  0  0  0  0
 15 16  2  0  0  0  0
M  CHG  1  14  -1
M  END
> <s_m_source_file>
AV-unprocessed.smi

> <i_m_source_file_index>
2158

> <i_lp_mmshare_version>
43012

> <i_f3d_flags>
0

> <s_epik_input>
W0NIM11bQ0gyXVtDQEhdKFtDSDNdKVtOSF1DKD1PKVtDSDJdbjFbY0hdW2NIXWMoPU8pW25IXWMxPU8=

> <s_epik_cmdline>
J2VwaWtfcHl0aG9uJywgJy1waCcsICc3LjAnLCAnLXRuJywgJzgnLCAnLW1hJywgJzIwMCcsICctbWV0YWxfYmluZGluZycsICctaW1hZScsICc8aW5maWxlLm1hZT4nLCAnLW9tYWUnLCAnPG91dGZpbGUubWFlPic=

> <r_lp_tautomer_probability>
0.999537

> <r_epik_Ionization_Penalty>
3.08395

> <r_epik_Ionization_Penalty_Charging>
2.76809e-08

> <r_epik_Ionization_Penalty_Neutral>
3.08395

> <r_epik_State_Penalty>
3.08299

> <r_epik_Charging_Adjusted_Penalty>
3.08299

> <i_epik_Tot_Q>
-1

> <i_epik_Tot_abs_Q>
1

> <r_epik_Metal_State_Penalty>
0.460296

> <b_epik_Metal_Only>
1

> <s_lp_Force_Field>
OPLS_2005

> <r_lp_Energy>
12.2606

> <b_lp_Chiralities_Consistent>
1

> <s_lp_Variant>
AV-unprocessed.smi:2158-3

> <Gold.Version>
5.8.1

> <Gold.Id.Protein>
6NUR|6NUR_protein|mol2

> <Gold.PLP.Fitness>
43.4464

> <Gold.PLP.PLP>
-36.2315

> <Gold.PLP.part.hbond>
-3.7929

> <Gold.PLP.part.metal>
0.0000

> <Gold.PLP.part.buried>
-5.1799

> <Gold.PLP.part.nonpolar>
-28.0072

> <Gold.PLP.part.repulsive>
1.1730

> <Gold.PLP.ligand.clash>
0.0000

> <Gold.PLP.ligand.torsion>
0.6236

> <Gold.PLP.Chemscore.Hbond>
2.8160

> <Gold.PLP.Chemscore.CHOScore>
0.0000

> <Gold.PLP.Chemscore.Metal>
0.0000

> <Gold.Chemscore.Hbonds>
donor molecule, donor type, donor heavy atom, donor atom, acceptor molecule, acceptor atom, score
      P1  H  7989  7998       L1    14  1.00
      P1  H  7997  8009       L1    16  1.00
      P1  H  8011  8017       L1    13  0.78

> <Gold.PLP.Chemscore.Internal.Correction>
0.0140

> <Gold.Rescore>
     Score         DG    S(hbond)    S(metal)    S(lipo)     H(rot)  DE(clash)    DE(int)     intcor
     15.71     -16.39       2.55        0.00      63.07       1.94       0.28       0.40       ----

> <Gold.Chemscore.Fitness>
15.7113

> <Gold.Chemscore.DG>
-16.3943

> <Gold.Chemscore.ZeroCoef>
-5.4800

> <Gold.Chemscore.Hbond>
2.5490

> <Gold.Chemscore.Metal>
0.0000

> <Gold.Chemscore.Lipo>
63.0746

> <Gold.Chemscore.Internal_Hbond>
0.0000

> <Gold.Chemscore.DEClash>
0.2813

> <Gold.Chemscore.DEInternal>
0.4017

> <Gold.Chemscore.Rot>
1.9449

> <Gold.Chemscore.Internal.Correction>
   9.000000E+99

> <Gold.Chemscore.Hbonds>
donor molecule, donor type, donor heavy atom, donor atom, acceptor molecule, acceptor atom, score
      P1  H  7989  7998       L1    14  0.75
      P1  H  7997  8009       L1    16  0.99
      P1  H  8011  8017       L1    13  0.74

> <Gold.Chemscore.Hbond.Weighted>
-8.5136

> <Gold.Chemscore.Metal.Weighted>
-0.0000

> <Gold.Chemscore.Lipo.Weighted>
-7.3797

> <Gold.Chemscore.Internal_Hbond.Weighted>
0.0000

> <Gold.Chemscore.DEClash.Weighted>
0.2813

> <Gold.Chemscore.DEInternal.Weighted>
0.4017

> <Gold.Chemscore.Rot.Weighted>
4.9791

> <Gold.Chemscore.Internal.Correction.Weighted>
   9.000000E+99

> <Gold.Protein.RotatedTorsions>
[ 6907 6896 6895 6894 ] final   -5.98 input  -60.11 | X-H torsion
[ 7974 7965 7964 7962 ] final  -47.38 input  175.53 | X-H torsion
[ 8008 7997 7996 7995 ] final -172.01 input   59.86 | X-H torsion
[ 10167 10162 10161 10158 ] final  -32.93 input  -65.29 | X-H torsion
[ 10718 10713 10712 10709 ] final   56.50 input   66.30 | X-H torsion
[ 10763 10752 10751 10750 ] final  -86.19 input  -60.55 | X-H torsion
[ 11005 11000 10999 10996 ] final -146.37 input  -57.11 | X-H torsion

> <Gold.Protein.ActiveResidues>
 VAL166  LYS551  ARG553  GLY616  TRP617  ASP618  TYR619  PRO620  LYS621  CYS622 
 ASP623  PHE694  ASN695  SER759  ASP760  ASP761  ALA762  ILE779  LEU786  VAL792 
 PHE793  MET794  SER795  GLU796  ALA797  LYS798  CYS799  TRP800  GLU811  SER814 

> <Gold.Protein.RotatedAtoms>
  151.4728  135.1047  159.9756 H   0  0  0  0  0  0  0  0  0  0  0  0  # atno 6907 bound_to 6896
  152.4810  133.8249  159.7083 H   0  0  0  0  0  0  0  0  0  0  0  0  # atno 6908 bound_to 6896
  150.8881  133.7219  159.2939 H   0  0  0  0  0  0  0  0  0  0  0  0  # atno 6909 bound_to 6896
  145.9622  140.7467  142.9451 H   0  0  0  0  0  0  0  0  0  0  0  0  # atno 7974 bound_to 7965
  155.9391  140.1105  157.1070 H   0  0  0  0  0  0  0  0  0  0  0  0  # atno 8008 bound_to 7997
  154.4085  140.1222  156.4969 H   0  0  0  0  0  0  0  0  0  0  0  0  # atno 8009 bound_to 7997
  155.6985  140.3472  155.4925 H   0  0  0  0  0  0  0  0  0  0  0  0  # atno 8010 bound_to 7997
  140.7213  143.3658  151.1874 H   0  0  0  0  0  0  0  0  0  0  0  0  # atno 10167 bound_to 10162
  157.5436  130.8715  149.8858 H   0  0  0  0  0  0  0  0  0  0  0  0  # atno 10718 bound_to 10713
  154.6197  135.5458  153.7561 H   0  0  0  0  0  0  0  0  0  0  0  0  # atno 10763 bound_to 10752
  153.0232  135.6409  154.1459 H   0  0  0  0  0  0  0  0  0  0  0  0  # atno 10764 bound_to 10752
  154.1394  135.2909  155.3145 H   0  0  0  0  0  0  0  0  0  0  0  0  # atno 10765 bound_to 10752
  140.7827  134.3061  157.5040 H   0  0  0  0  0  0  0  0  0  0  0  0  # atno 11005 bound_to 11000
  144.6817  140.2610  143.7319 LP  0  0  0  0  0  0  0  0  0  0  0  0  # atno 17320 bound_to 7965
  145.8023  139.1969  143.2040 LP  0  0  0  0  0  0  0  0  0  0  0  0  # atno 17321 bound_to 7965
  139.7219  143.9210  152.2988 LP  0  0  0  0  0  0  0  0  0  0  0  0  # atno 17342 bound_to 10162
  139.8970  144.6933  150.8707 LP  0  0  0  0  0  0  0  0  0  0  0  0  # atno 17343 bound_to 10162
  156.0517  130.3716  150.1186 LP  0  0  0  0  0  0  0  0  0  0  0  0  # atno 17370 bound_to 10713
  156.9364  130.9730  151.3524 LP  0  0  0  0  0  0  0  0  0  0  0  0  # atno 17371 bound_to 10713
  139.8740  134.9328  156.3563 LP  0  0  0  0  0  0  0  0  0  0  0  0  # atno 17394 bound_to 11000
  140.9467  133.7478  156.0217 LP  0  0  0  0  0  0  0  0  0  0  0  0  # atno 17395 bound_to 11000

$$$$
