AV-unprocessed.smi:817|AV-procd|sdf|3830|dock7
  -GOLD-   22720 1273D 1   1.00000     0.00000
 Structure written by MMmdl.
 48 49  0  0  0  0  0  0  0  0  2 V2000
  150.1071  137.6791  154.7479 C   0  0  0  0  0  0  0  0  0  0  0  0
  149.1117  138.6492  154.0949 C   0  0  2  0  0  0  0  0  0  0  0  0
  149.4923  140.1120  154.3827 C   0  0  0  0  0  0  0  0  0  0  0  0
  148.4901  141.0927  153.7598 C   0  0  0  0  0  0  0  0  0  0  0  0
  147.0567  140.7826  154.2256 C   0  0  0  0  0  0  0  0  0  0  0  0
  146.5956  139.3154  153.9431 C   0  0  2  0  0  0  0  0  0  0  0  0
  146.5069  139.0988  152.4004 C   0  0  0  0  0  0  0  0  0  0  0  0
  146.6197  137.6878  152.0242 N   0  0  0  0  0  0  0  0  0  0  0  0
  145.6182  136.8247  151.7823 C   0  0  0  0  0  0  0  0  0  0  0  0
  144.4453  137.1834  151.8503 O   0  0  0  0  0  0  0  0  0  0  0  0
  146.0309  135.5841  151.4551 N   0  0  0  0  0  0  0  0  0  0  0  0
  145.2586  134.4321  151.1445 C   0  0  0  0  0  0  0  0  0  0  0  0
  145.7223  133.3325  150.3818 C   0  0  0  0  0  0  0  0  0  0  0  0
  144.8449  132.2591  150.1340 C   0  0  0  0  0  0  0  0  0  0  0  0
  143.5364  132.3256  150.6505 C   0  0  0  0  0  0  0  0  0  0  0  0
  143.0776  133.3715  151.3693 N   0  0  0  0  0  0  0  0  0  0  0  0
  143.9245  134.3964  151.6029 C   0  0  0  0  0  0  0  0  0  0  0  0
  145.2301  139.0582  154.5408 N   0  3  0  0  0  0  0  0  0  0  0  0
  144.9527  139.6907  155.8571 C   0  0  0  0  0  0  0  0  0  0  0  0
  144.7960  137.6359  154.5517 C   0  0  0  0  0  0  0  0  0  0  0  0
  147.6635  138.3551  154.5493 C   0  0  0  0  0  0  0  0  0  0  0  0
  150.1096  137.7814  155.8334 H   0  0  0  0  0  0  0  0  0  0  0  0
  151.1223  137.8618  154.3947 H   0  0  0  0  0  0  0  0  0  0  0  0
  149.8593  136.6439  154.5117 H   0  0  0  0  0  0  0  0  0  0  0  0
  149.1792  138.4882  153.0190 H   0  0  0  0  0  0  0  0  0  0  0  0
  149.5342  140.2751  155.4606 H   0  0  0  0  0  0  0  0  0  0  0  0
  150.4924  140.3213  154.0019 H   0  0  0  0  0  0  0  0  0  0  0  0
  148.7528  142.1100  154.0514 H   0  0  0  0  0  0  0  0  0  0  0  0
  148.5647  141.0716  152.6732 H   0  0  0  0  0  0  0  0  0  0  0  0
  147.0577  140.9850  155.2960 H   0  0  0  0  0  0  0  0  0  0  0  0
  146.3626  141.4985  153.7838 H   0  0  0  0  0  0  0  0  0  0  0  0
  145.5731  139.4808  151.9922 H   0  0  0  0  0  0  0  0  0  0  0  0
  147.2838  139.6691  151.8913 H   0  0  0  0  0  0  0  0  0  0  0  0
  147.5568  137.3183  151.9528 H   0  0  0  0  0  0  0  0  0  0  0  0
  147.0298  135.4617  151.3759 H   0  0  0  0  0  0  0  0  0  0  0  0
  146.7189  133.2910  149.9722 H   0  0  0  0  0  0  0  0  0  0  0  0
  145.1672  131.4049  149.5571 H   0  0  0  0  0  0  0  0  0  0  0  0
  142.8385  131.5198  150.4777 H   0  0  0  0  0  0  0  0  0  0  0  0
  143.5218  135.2168  152.1792 H   0  0  0  0  0  0  0  0  0  0  0  0
  145.6966  139.4148  156.6043 H   0  0  0  0  0  0  0  0  0  0  0  0
  143.9767  139.3855  156.2358 H   0  0  0  0  0  0  0  0  0  0  0  0
  144.9126  140.7768  155.7813 H   0  0  0  0  0  0  0  0  0  0  0  0
  145.3652  137.0482  155.2723 H   0  0  0  0  0  0  0  0  0  0  0  0
  144.8799  137.1619  153.5757 H   0  0  0  0  0  0  0  0  0  0  0  0
  143.7450  137.5671  154.8342 H   0  0  0  0  0  0  0  0  0  0  0  0
  147.4310  137.3212  154.2931 H   0  0  0  0  0  0  0  0  0  0  0  0
  147.6304  138.4083  155.6378 H   0  0  0  0  0  0  0  0  0  0  0  0
  144.5892  139.5140  153.9074 H   0  0  0  0  0  0  0  0  0  0  0  0
  1  2  1  0  0  0  0
  1 22  1  0  0  0  0
  1 23  1  0  0  0  0
  1 24  1  0  0  0  0
  2 21  1  0  0  0  0
  2  3  1  0  0  0  0
  2 25  1  0  0  0  0
  3  4  1  0  0  0  0
  3 26  1  0  0  0  0
  3 27  1  0  0  0  0
  4  5  1  0  0  0  0
  4 28  1  0  0  0  0
  4 29  1  0  0  0  0
  5  6  1  0  0  0  0
  5 30  1  0  0  0  0
  5 31  1  0  0  0  0
  6  7  1  0  0  0  0
  6 18  1  0  0  0  0
  6 21  1  0  0  0  0
  7  8  1  0  0  0  0
  7 32  1  0  0  0  0
  7 33  1  0  0  0  0
  8  9  1  0  0  0  0
  8 34  1  0  0  0  0
  9 10  2  0  0  0  0
  9 11  1  0  0  0  0
 11 12  1  0  0  0  0
 11 35  1  0  0  0  0
 12 17  1  0  0  0  0
 12 13  2  0  0  0  0
 13 14  1  0  0  0  0
 13 36  1  0  0  0  0
 14 15  2  0  0  0  0
 14 37  1  0  0  0  0
 15 16  1  0  0  0  0
 15 38  1  0  0  0  0
 16 17  2  0  0  0  0
 17 39  1  0  0  0  0
 18 19  1  0  0  0  0
 18 20  1  0  0  0  0
 18 48  1  0  0  0  0
 19 40  1  0  0  0  0
 19 41  1  0  0  0  0
 19 42  1  0  0  0  0
 20 43  1  0  0  0  0
 20 44  1  0  0  0  0
 20 45  1  0  0  0  0
 21 46  1  0  0  0  0
 21 47  1  0  0  0  0
M  CHG  1  18   1
M  END
> <s_m_source_file>
AV-unprocessed.smi

> <i_m_source_file_index>
817

> <i_lp_mmshare_version>
43012

> <i_f3d_flags>
0

> <s_epik_input>
W0NIM11bQ0BASF0oW0NIMl0xKVtDSDJdW0NIMl1bQ0gyXVtDQF0xKE4oW0NIM10pW0NIM10pW0NIMl1bTkhdQyg9TylbTkhdYzJbY0hdW2NIXVtjSF1uW2NIXTI=

> <s_epik_cmdline>
J2VwaWtfcHl0aG9uJywgJy1waCcsICc3LjAnLCAnLXRuJywgJzgnLCAnLW1hJywgJzIwMCcsICctbWV0YWxfYmluZGluZycsICctaW1hZScsICc8aW5maWxlLm1hZT4nLCAnLW9tYWUnLCAnPG91dGZpbGUubWFlPic=

> <r_lp_tautomer_probability>
1

> <r_epik_Ionization_Penalty>
0.00584939

> <r_epik_Ionization_Penalty_Charging>
0.00160539

> <r_epik_Ionization_Penalty_Neutral>
0.004244

> <r_epik_State_Penalty>
-0

> <r_epik_Charging_Adjusted_Penalty>
0.00160539

> <i_epik_Tot_Q>
1

> <i_epik_Tot_abs_Q>
1

> <r_epik_Metal_State_Penalty>
-0

> <b_epik_Metal_Only>
0

> <s_lp_Force_Field>
OPLS_2005

> <r_lp_Energy>
49.7529

> <b_lp_Chiralities_Consistent>
1

> <s_lp_Variant>
AV-unprocessed.smi:817-3

> <Gold.Version>
5.8.1

> <Gold.Id.Protein>
6NUR|6NUR_protein|mol2

> <Gold.PLP.Fitness>
43.5103

> <Gold.PLP.PLP>
-31.0615

> <Gold.PLP.part.hbond>
-3.0000

> <Gold.PLP.part.metal>
0.0000

> <Gold.PLP.part.buried>
-3.7022

> <Gold.PLP.part.nonpolar>
-28.6950

> <Gold.PLP.part.repulsive>
3.9892

> <Gold.PLP.ligand.clash>
0.0000

> <Gold.PLP.ligand.torsion>
1.0485

> <Gold.PLP.Chemscore.Hbond>
3.9600

> <Gold.PLP.Chemscore.CHOScore>
0.8526

> <Gold.PLP.Chemscore.Metal>
0.0000

> <Gold.Chemscore.Hbonds>
donor molecule, donor type, donor heavy atom, donor atom, acceptor molecule, acceptor atom, score
      L1  H     8    34       P1  7948  1.00
      L1  H    11    35       P1  7948  0.84
      L1  H    18    48       P1 10175  2.00
      L1  C    15    38       P1 10952  1.00

> <Gold.PLP.Chemscore.Internal.Correction>
0.1080

> <Gold.Rescore>
     Score         DG    S(hbond)    S(metal)    S(lipo)     H(rot)  DE(clash)    DE(int)     intcor
     16.75     -21.46       2.91        0.00      85.00       1.44       2.03       2.68       ----

> <Gold.Chemscore.Fitness>
16.7521

> <Gold.Chemscore.DG>
-21.4636

> <Gold.Chemscore.ZeroCoef>
-5.4800

> <Gold.Chemscore.Hbond>
2.9121

> <Gold.Chemscore.Metal>
0.0000

> <Gold.Chemscore.Lipo>
85.0006

> <Gold.Chemscore.Internal_Hbond>
0.0000

> <Gold.Chemscore.DEClash>
2.0312

> <Gold.Chemscore.DEInternal>
2.6803

> <Gold.Chemscore.Rot>
1.4405

> <Gold.Chemscore.Internal.Correction>
   9.000000E+99

> <Gold.Chemscore.Hbonds>
donor molecule, donor type, donor heavy atom, donor atom, acceptor molecule, acceptor atom, score
      L1  H     8    34       P1  7948  1.00
      L1  H    11    35       P1  7948  0.76
      L1  H    18    48       P1 10175  0.99

> <Gold.Chemscore.Hbond.Weighted>
-9.7263

> <Gold.Chemscore.Metal.Weighted>
-0.0000

> <Gold.Chemscore.Lipo.Weighted>
-9.9451

> <Gold.Chemscore.Internal_Hbond.Weighted>
0.0000

> <Gold.Chemscore.DEClash.Weighted>
2.0312

> <Gold.Chemscore.DEInternal.Weighted>
2.6803

> <Gold.Chemscore.Rot.Weighted>
3.6878

> <Gold.Chemscore.Internal.Correction.Weighted>
   9.000000E+99

> <Gold.Protein.RotatedTorsions>
[ 6907 6896 6895 6894 ] final  -81.94 input  -60.11 | X-H torsion
[ 7974 7965 7964 7962 ] final  -34.16 input  175.53 | X-H torsion
[ 8008 7997 7996 7995 ] final -117.25 input   59.86 | X-H torsion
[ 10167 10162 10161 10158 ] final   15.56 input  -65.29 | X-H torsion
[ 10718 10713 10712 10709 ] final   37.44 input   66.30 | X-H torsion
[ 10763 10752 10751 10750 ] final  150.52 input  -60.55 | X-H torsion
[ 11005 11000 10999 10996 ] final   25.62 input  -57.11 | X-H torsion

> <Gold.Protein.ActiveResidues>
 VAL166  LYS551  ARG553  GLY616  TRP617  ASP618  TYR619  PRO620  LYS621  CYS622 
 ASP623  PHE694  ASN695  SER759  ASP760  ASP761  ALA762  ILE779  LEU786  VAL792 
 PHE793  MET794  SER795  GLU796  ALA797  LYS798  CYS799  TRP800  GLU811  SER814 

> <Gold.Protein.RotatedAtoms>
  150.6904  134.3741  159.5004 H   0  0  0  0  0  0  0  0  0  0  0  0  # atno 6907 bound_to 6896
  152.1553  134.8953  160.0554 H   0  0  0  0  0  0  0  0  0  0  0  0  # atno 6908 bound_to 6896
  152.0035  133.3799  159.4228 H   0  0  0  0  0  0  0  0  0  0  0  0  # atno 6909 bound_to 6896
  146.0852  140.6005  142.8890 H   0  0  0  0  0  0  0  0  0  0  0  0  # atno 7974 bound_to 7965
  155.0807  140.0394  157.2638 H   0  0  0  0  0  0  0  0  0  0  0  0  # atno 8008 bound_to 7997
  154.6909  140.2653  155.6789 H   0  0  0  0  0  0  0  0  0  0  0  0  # atno 8009 bound_to 7997
  156.2728  140.2759  156.1487 H   0  0  0  0  0  0  0  0  0  0  0  0  # atno 8010 bound_to 7997
  140.5859  143.8891  150.6829 H   0  0  0  0  0  0  0  0  0  0  0  0  # atno 10167 bound_to 10162
  157.3469  130.7577  149.6951 H   0  0  0  0  0  0  0  0  0  0  0  0  # atno 10718 bound_to 10713
  154.0889  135.2854  155.3275 H   0  0  0  0  0  0  0  0  0  0  0  0  # atno 10763 bound_to 10752
  154.6634  135.5326  153.8049 H   0  0  0  0  0  0  0  0  0  0  0  0  # atno 10764 bound_to 10752
  153.0421  135.6539  154.1059 H   0  0  0  0  0  0  0  0  0  0  0  0  # atno 10765 bound_to 10752
  140.3459  134.2282  155.7685 H   0  0  0  0  0  0  0  0  0  0  0  0  # atno 11005 bound_to 11000
  144.7320  140.4701  143.6930 LP  0  0  0  0  0  0  0  0  0  0  0  0  # atno 17320 bound_to 7965
  145.6144  139.1517  143.3058 LP  0  0  0  0  0  0  0  0  0  0  0  0  # atno 17321 bound_to 7965
  140.2402  143.3669  152.1493 LP  0  0  0  0  0  0  0  0  0  0  0  0  # atno 17342 bound_to 10162
  139.5197  144.7023  151.5457 LP  0  0  0  0  0  0  0  0  0  0  0  0  # atno 17343 bound_to 10162
  155.9715  130.4151  150.4168 LP  0  0  0  0  0  0  0  0  0  0  0  0  # atno 17370 bound_to 10713
  157.2225  131.0485  151.2538 LP  0  0  0  0  0  0  0  0  0  0  0  0  # atno 17371 bound_to 10713
  141.2026  133.7934  157.0384 LP  0  0  0  0  0  0  0  0  0  0  0  0  # atno 17394 bound_to 11000
  140.0743  134.9685  157.1519 LP  0  0  0  0  0  0  0  0  0  0  0  0  # atno 17395 bound_to 11000

$$$$
