AV-unprocessed.smi:1230|AV-procd|sdf|5157|dock2
  -GOLD-   22720 4233D 1   1.00000     0.00000
 Structure written by MMmdl.
 39 40  0  0  0  0  0  0  0  0  1 V2000
  152.2240  144.3902  157.8580 C   0  0  0  0  0  0  0  0  0  0  0  0
  152.6996  143.8864  159.2297 C   0  0  1  0  0  0  0  0  0  0  0  0
  151.8657  144.4826  160.3820 C   0  0  0  0  0  0  0  0  0  0  0  0
  152.3730  144.0037  161.7518 C   0  0  0  0  0  0  0  0  0  0  0  0
  152.4094  142.4698  161.8298 C   0  0  0  0  0  0  0  0  0  0  0  0
  153.2415  141.8743  160.6823 C   0  0  0  0  0  0  0  0  0  0  0  0
  152.7293  142.3432  159.3033 C   0  0  1  0  0  0  0  0  0  0  0  0
  151.4125  141.8565  159.0640 O   0  0  0  0  0  0  0  0  0  0  0  0
  151.3396  140.4788  158.7318 C   0  0  0  0  0  0  0  0  0  0  0  0
  151.5847  140.3345  157.2224 C   0  0  0  0  0  0  0  0  0  0  0  0
  151.1646  139.0565  156.7045 N   0  0  0  0  0  0  0  0  0  0  0  0
  150.5562  138.0959  157.4980 C   0  0  0  0  0  0  0  0  0  0  0  0
  150.1717  136.8881  157.0212 C   0  0  0  0  0  0  0  0  0  0  0  0
  149.5467  135.9098  157.8488 C   0  0  0  0  0  0  0  0  0  0  0  0
  149.0535  135.1232  158.5401 N   0  0  0  0  0  0  0  0  0  0  0  0
  150.3885  136.5346  155.6192 C   0  0  0  0  0  0  0  0  0  0  0  0
  150.0747  135.4693  155.0912 O   0  0  0  0  0  0  0  0  0  0  0  0
  151.0126  137.5323  154.8632 N   0  0  0  0  0  0  0  0  0  0  0  0
  151.4169  138.7810  155.3396 C   0  0  0  0  0  0  0  0  0  0  0  0
  151.9662  139.5788  154.5797 O   0  0  0  0  0  0  0  0  0  0  0  0
  151.1882  137.3319  153.8892 H   0  0  0  0  0  0  0  0  0  0  0  0
  151.1913  144.1007  157.6613 H   0  0  0  0  0  0  0  0  0  0  0  0
  152.8414  143.9854  157.0558 H   0  0  0  0  0  0  0  0  0  0  0  0
  152.2792  145.4774  157.7994 H   0  0  0  0  0  0  0  0  0  0  0  0
  153.7250  144.2375  159.3556 H   0  0  0  0  0  0  0  0  0  0  0  0
  151.9003  145.5717  160.3422 H   0  0  0  0  0  0  0  0  0  0  0  0
  150.8175  144.2046  160.2642 H   0  0  0  0  0  0  0  0  0  0  0  0
  153.3730  144.4016  161.9295 H   0  0  0  0  0  0  0  0  0  0  0  0
  151.7377  144.4012  162.5437 H   0  0  0  0  0  0  0  0  0  0  0  0
  152.8226  142.1566  162.7889 H   0  0  0  0  0  0  0  0  0  0  0  0
  151.3929  142.0764  161.7889 H   0  0  0  0  0  0  0  0  0  0  0  0
  154.2814  142.1821  160.7996 H   0  0  0  0  0  0  0  0  0  0  0  0
  153.2450  140.7871  160.7502 H   0  0  0  0  0  0  0  0  0  0  0  0
  153.4021  141.9779  158.5251 H   0  0  0  0  0  0  0  0  0  0  0  0
  152.0885  139.9219  159.2963 H   0  0  0  0  0  0  0  0  0  0  0  0
  150.3623  140.0700  158.9879 H   0  0  0  0  0  0  0  0  0  0  0  0
  151.0230  141.0884  156.6685 H   0  0  0  0  0  0  0  0  0  0  0  0
  152.6338  140.4745  156.9523 H   0  0  0  0  0  0  0  0  0  0  0  0
  150.3803  138.3137  158.5423 H   0  0  0  0  0  0  0  0  0  0  0  0
  1  2  1  0  0  0  0
  1 22  1  0  0  0  0
  1 23  1  0  0  0  0
  1 24  1  0  0  0  0
  2  7  1  0  0  0  0
  2  3  1  0  0  0  0
  2 25  1  0  0  0  0
  3  4  1  0  0  0  0
  3 26  1  0  0  0  0
  3 27  1  0  0  0  0
  4  5  1  0  0  0  0
  4 28  1  0  0  0  0
  4 29  1  0  0  0  0
  5  6  1  0  0  0  0
  5 30  1  0  0  0  0
  5 31  1  0  0  0  0
  6  7  1  0  0  0  0
  6 32  1  0  0  0  0
  6 33  1  0  0  0  0
  7  8  1  0  0  0  0
  7 34  1  0  0  0  0
  8  9  1  0  0  0  0
  9 10  1  0  0  0  0
  9 35  1  0  0  0  0
  9 36  1  0  0  0  0
 10 11  1  0  0  0  0
 10 37  1  0  0  0  0
 10 38  1  0  0  0  0
 11 19  1  0  0  0  0
 11 12  1  0  0  0  0
 12 13  2  0  0  0  0
 12 39  1  0  0  0  0
 13 14  1  0  0  0  0
 13 16  1  0  0  0  0
 14 15  3  0  0  0  0
 16 17  2  0  0  0  0
 16 18  1  0  0  0  0
 18 21  1  0  0  0  0
 18 19  1  0  0  0  0
 19 20  2  0  0  0  0
M  END
> <s_m_source_file>
AV-unprocessed.smi

> <i_m_source_file_index>
1230

> <i_lp_mmshare_version>
43012

> <i_f3d_flags>
0

> <s_epik_input>
W0NIM11bQ0BASF0xW0NIMl1bQ0gyXVtDSDJdW0NIMl1bQ0BIXTFPW0NIMl1bQ0gyXW4yW2NIXWMoQyNOKWMoPU8pW25IXWMyPU8=

> <s_epik_cmdline>
J2VwaWtfcHl0aG9uJywgJy1waCcsICc3LjAnLCAnLXRuJywgJzgnLCAnLW1hJywgJzIwMCcsICctbWV0YWxfYmluZGluZycsICctaW1hZScsICc8aW5maWxlLm1hZT4nLCAnLW9tYWUnLCAnPG91dGZpbGUubWFlPic=

> <r_epik_Ionization_Penalty>
0.421541

> <r_epik_Ionization_Penalty_Charging>
0.421541

> <r_epik_Ionization_Penalty_Neutral>
2.29267e-11

> <r_epik_State_Penalty>
0.422277

> <r_epik_Charging_Adjusted_Penalty>
0.843818

> <i_epik_Tot_Q>
0

> <i_epik_Tot_abs_Q>
0

> <r_epik_Metal_State_Penalty>
4.11629

> <b_epik_Metal_Only>
0

> <s_lp_Force_Field>
OPLS_2005

> <r_lp_Energy>
14.8101

> <b_lp_Chiralities_Consistent>
1

> <s_lp_Variant>
AV-unprocessed.smi:1230-6

> <Gold.Version>
5.8.1

> <Gold.Id.Protein>
6NUR|6NUR_protein|mol2

> <Gold.PLP.Fitness>
47.2823

> <Gold.PLP.PLP>
-41.9311

> <Gold.PLP.part.hbond>
-2.0000

> <Gold.PLP.part.metal>
0.0000

> <Gold.PLP.part.buried>
-6.6384

> <Gold.PLP.part.nonpolar>
-33.2846

> <Gold.PLP.part.repulsive>
0.2809

> <Gold.PLP.ligand.clash>
0.0000

> <Gold.PLP.ligand.torsion>
0.3353

> <Gold.PLP.Chemscore.Hbond>
2.0000

> <Gold.PLP.Chemscore.CHOScore>
0.0000

> <Gold.PLP.Chemscore.Metal>
0.0000

> <Gold.Chemscore.Hbonds>
donor molecule, donor type, donor heavy atom, donor atom, acceptor molecule, acceptor atom, score
      P1  H  6896  6908       L1    15  1.00
      P1  H  7989  7998       L1    20  0.91

> <Gold.PLP.Chemscore.Internal.Correction>
0.0218

> <Gold.Rescore>
     Score         DG    S(hbond)    S(metal)    S(lipo)     H(rot)  DE(clash)    DE(int)     intcor
     18.12     -18.54       1.76        0.00     103.89       1.94       0.07       0.35       ----

> <Gold.Chemscore.Fitness>
18.1232

> <Gold.Chemscore.DG>
-18.5393

> <Gold.Chemscore.ZeroCoef>
-5.4800

> <Gold.Chemscore.Hbond>
1.7567

> <Gold.Chemscore.Metal>
0.0000

> <Gold.Chemscore.Lipo>
103.8853

> <Gold.Chemscore.Internal_Hbond>
0.0000

> <Gold.Chemscore.DEClash>
0.0665

> <Gold.Chemscore.DEInternal>
0.3496

> <Gold.Chemscore.Rot>
1.9385

> <Gold.Chemscore.Internal.Correction>
   9.000000E+99

> <Gold.Chemscore.Hbonds>
donor molecule, donor type, donor heavy atom, donor atom, acceptor molecule, acceptor atom, score
      P1  H  6896  6908       L1    15  0.29
      P1  H  7989  7998       L1    20  0.90

> <Gold.Chemscore.Hbond.Weighted>
-5.8672

> <Gold.Chemscore.Metal.Weighted>
-0.0000

> <Gold.Chemscore.Lipo.Weighted>
-12.1546

> <Gold.Chemscore.Internal_Hbond.Weighted>
0.0000

> <Gold.Chemscore.DEClash.Weighted>
0.0665

> <Gold.Chemscore.DEInternal.Weighted>
0.3496

> <Gold.Chemscore.Rot.Weighted>
4.9625

> <Gold.Chemscore.Internal.Correction.Weighted>
   9.000000E+99

> <Gold.Protein.RotatedTorsions>
[ 6907 6896 6895 6894 ] final  156.17 input  -60.11 | X-H torsion
[ 7974 7965 7964 7962 ] final  -91.38 input  175.53 | X-H torsion
[ 8008 7997 7996 7995 ] final   51.42 input   59.86 | X-H torsion
[ 10167 10162 10161 10158 ] final  145.93 input  -65.29 | X-H torsion
[ 10718 10713 10712 10709 ] final  -80.29 input   66.30 | X-H torsion
[ 10763 10752 10751 10750 ] final  -63.73 input  -60.55 | X-H torsion
[ 11005 11000 10999 10996 ] final  129.42 input  -57.11 | X-H torsion

> <Gold.Protein.ActiveResidues>
 VAL166  LYS551  ARG553  GLY616  TRP617  ASP618  TYR619  PRO620  LYS621  CYS622 
 ASP623  PHE694  ASN695  SER759  ASP760  ASP761  ALA762  ILE779  LEU786  VAL792 
 PHE793  MET794  SER795  GLU796  ALA797  LYS798  CYS799  TRP800  GLU811  SER814 

> <Gold.Protein.RotatedAtoms>
  152.0335  133.3947  159.4306 H   0  0  0  0  0  0  0  0  0  0  0  0  # atno 6907 bound_to 6896
  150.6880  134.3494  159.4912 H   0  0  0  0  0  0  0  0  0  0  0  0  # atno 6908 bound_to 6896
  152.1283  134.9153  160.0610 H   0  0  0  0  0  0  0  0  0  0  0  0  # atno 6909 bound_to 6896
  145.4139  140.9547  143.2218 H   0  0  0  0  0  0  0  0  0  0  0  0  # atno 7974 bound_to 7965
  155.4349  140.3452  155.4284 H   0  0  0  0  0  0  0  0  0  0  0  0  # atno 8008 bound_to 7997
  156.1314  140.1515  156.9091 H   0  0  0  0  0  0  0  0  0  0  0  0  # atno 8009 bound_to 7997
  154.4897  140.0845  156.7547 H   0  0  0  0  0  0  0  0  0  0  0  0  # atno 8010 bound_to 7997
  139.4917  144.5866  151.6765 H   0  0  0  0  0  0  0  0  0  0  0  0  # atno 10167 bound_to 10162
  156.0073  130.4570  150.3778 H   0  0  0  0  0  0  0  0  0  0  0  0  # atno 10718 bound_to 10713
  154.3194  135.6199  153.5501 H   0  0  0  0  0  0  0  0  0  0  0  0  # atno 10763 bound_to 10752
  152.9821  135.5720  154.5087 H   0  0  0  0  0  0  0  0  0  0  0  0  # atno 10764 bound_to 10752
  154.4752  135.2861  155.1589 H   0  0  0  0  0  0  0  0  0  0  0  0  # atno 10765 bound_to 10752
  139.9614  134.9601  156.9146 H   0  0  0  0  0  0  0  0  0  0  0  0  # atno 11005 bound_to 11000
  144.8290  139.5660  143.6952 LP  0  0  0  0  0  0  0  0  0  0  0  0  # atno 17320 bound_to 7965
  146.2691  139.6591  142.9309 LP  0  0  0  0  0  0  0  0  0  0  0  0  # atno 17321 bound_to 7965
  140.5484  144.0465  150.6116 LP  0  0  0  0  0  0  0  0  0  0  0  0  # atno 17342 bound_to 10162
  140.3511  143.2962  152.0486 LP  0  0  0  0  0  0  0  0  0  0  0  0  # atno 17343 bound_to 10162
  157.1859  131.0403  151.2725 LP  0  0  0  0  0  0  0  0  0  0  0  0  # atno 17370 bound_to 10713
  157.4104  130.7382  149.6835 LP  0  0  0  0  0  0  0  0  0  0  0  0  # atno 17371 bound_to 10713
  140.5491  134.0645  155.7364 LP  0  0  0  0  0  0  0  0  0  0  0  0  # atno 17394 bound_to 11000
  141.1292  133.9331  157.2572 LP  0  0  0  0  0  0  0  0  0  0  0  0  # atno 17395 bound_to 11000

$$$$
