AV-unprocessed.smi:2168|AV-procd|sdf|8819|dock8
  -GOLD-   2272012 13D 1   1.00000     0.00000
 Structure written by MMmdl.
 47 48  0  0  0  0  0  0  0  0  2 V2000
  151.0247  140.0075  158.2077 C   0  0  0  0  0  0  0  0  0  0  0  0
  150.2976  138.8880  157.4483 C   0  0  0  0  0  0  0  0  0  0  0  0
  151.2210  137.9859  156.7338 N   0  0  0  0  0  0  0  0  0  0  0  0
  152.3573  138.6145  156.0315 C   0  0  0  0  0  0  0  0  0  0  0  0
  152.2692  138.4764  154.5029 C   0  0  0  0  0  0  0  0  0  0  0  0
  151.2403  136.2862  157.0947 S   0  0  0  0  0  0  0  0  0  0  0  0
  152.5465  135.7244  156.7187 O   0  0  0  0  0  0  0  0  0  0  0  0
  150.6867  136.0784  158.4419 O   0  0  0  0  0  0  0  0  0  0  0  0
  150.0804  135.7382  155.9434 N   0  0  0  0  0  0  0  0  0  0  0  0
  150.3587  134.5407  155.1549 C   0  0  0  0  0  0  0  0  0  0  0  0
  149.1566  134.0904  154.3475 C   0  0  0  0  0  0  0  0  0  0  0  0
  147.8841  134.6552  154.5719 C   0  0  0  0  0  0  0  0  0  0  0  0
  146.7901  134.2341  153.7880 C   0  0  0  0  0  0  0  0  0  0  0  0
  146.9767  133.2521  152.7844 C   0  0  0  0  0  0  0  0  0  0  0  0
  145.9209  132.8006  151.9631 N   0  0  0  0  0  0  0  0  0  0  0  0
  145.9943  131.4071  151.5315 C   0  0  0  0  0  0  0  0  0  0  0  0
  144.6512  130.9620  150.9283 C   0  0  0  0  0  0  0  0  0  0  0  0
  144.2760  131.8504  149.8814 O   0  0  0  0  0  0  0  0  0  0  0  0
  144.0930  133.1797  150.3552 C   0  0  0  0  0  0  0  0  0  0  0  0
  145.4157  133.7084  150.9351 C   0  0  0  0  0  0  0  0  0  0  0  0
  148.2218  132.7422  152.6096 N   0  3  0  0  0  0  0  0  0  0  0  0
  149.2946  133.1137  153.3404 C   0  0  0  0  0  0  0  0  0  0  0  0
  150.3100  140.6185  158.7593 H   0  0  0  0  0  0  0  0  0  0  0  0
  151.5595  140.6718  157.5295 H   0  0  0  0  0  0  0  0  0  0  0  0
  151.7382  139.6104  158.9289 H   0  0  0  0  0  0  0  0  0  0  0  0
  149.6893  138.3094  158.1431 H   0  0  0  0  0  0  0  0  0  0  0  0
  149.6013  139.3232  156.7306 H   0  0  0  0  0  0  0  0  0  0  0  0
  152.3895  139.6710  156.2986 H   0  0  0  0  0  0  0  0  0  0  0  0
  153.2938  138.1839  156.3877 H   0  0  0  0  0  0  0  0  0  0  0  0
  153.1652  138.8809  154.0320 H   0  0  0  0  0  0  0  0  0  0  0  0
  151.4197  139.0266  154.0996 H   0  0  0  0  0  0  0  0  0  0  0  0
  152.1744  137.4374  154.1898 H   0  0  0  0  0  0  0  0  0  0  0  0
  149.6418  136.4934  155.4165 H   0  0  0  0  0  0  0  0  0  0  0  0
  151.1752  134.7588  154.4662 H   0  0  0  0  0  0  0  0  0  0  0  0
  150.7059  133.7447  155.8150 H   0  0  0  0  0  0  0  0  0  0  0  0
  147.7458  135.4135  155.3289 H   0  0  0  0  0  0  0  0  0  0  0  0
  145.8249  134.6883  153.9534 H   0  0  0  0  0  0  0  0  0  0  0  0
  146.7864  131.3110  150.7879 H   0  0  0  0  0  0  0  0  0  0  0  0
  146.2480  130.7408  152.3544 H   0  0  0  0  0  0  0  0  0  0  0  0
  144.7380  129.9537  150.5236 H   0  0  0  0  0  0  0  0  0  0  0  0
  143.8725  130.9320  151.6922 H   0  0  0  0  0  0  0  0  0  0  0  0
  143.7671  133.8104  149.5281 H   0  0  0  0  0  0  0  0  0  0  0  0
  143.3011  133.2047  151.1057 H   0  0  0  0  0  0  0  0  0  0  0  0
  145.2507  134.7019  151.3537 H   0  0  0  0  0  0  0  0  0  0  0  0
  146.1588  133.8057  150.1424 H   0  0  0  0  0  0  0  0  0  0  0  0
  150.2278  132.6304  153.0900 H   0  0  0  0  0  0  0  0  0  0  0  0
  148.3569  132.0378  151.8844 H   0  0  0  0  0  0  0  0  0  0  0  0
  1  2  1  0  0  0  0
  1 23  1  0  0  0  0
  1 24  1  0  0  0  0
  1 25  1  0  0  0  0
  2  3  1  0  0  0  0
  2 26  1  0  0  0  0
  2 27  1  0  0  0  0
  3  4  1  0  0  0  0
  3  6  1  0  0  0  0
  4  5  1  0  0  0  0
  4 28  1  0  0  0  0
  4 29  1  0  0  0  0
  5 30  1  0  0  0  0
  5 31  1  0  0  0  0
  5 32  1  0  0  0  0
  6  7  2  0  0  0  0
  6  8  2  0  0  0  0
  6  9  1  0  0  0  0
  9 10  1  0  0  0  0
  9 33  1  0  0  0  0
 10 11  1  0  0  0  0
 10 34  1  0  0  0  0
 10 35  1  0  0  0  0
 11 22  1  0  0  0  0
 11 12  2  0  0  0  0
 12 13  1  0  0  0  0
 12 36  1  0  0  0  0
 13 14  2  0  0  0  0
 13 37  1  0  0  0  0
 14 15  1  0  0  0  0
 14 21  1  0  0  0  0
 15 20  1  0  0  0  0
 15 16  1  0  0  0  0
 16 17  1  0  0  0  0
 16 38  1  0  0  0  0
 16 39  1  0  0  0  0
 17 18  1  0  0  0  0
 17 40  1  0  0  0  0
 17 41  1  0  0  0  0
 18 19  1  0  0  0  0
 19 20  1  0  0  0  0
 19 42  1  0  0  0  0
 19 43  1  0  0  0  0
 20 44  1  0  0  0  0
 20 45  1  0  0  0  0
 21 22  2  0  0  0  0
 21 47  1  0  0  0  0
 22 46  1  0  0  0  0
M  CHG  1  21   1
M  END
> <s_m_source_file>
AV-unprocessed.smi

> <i_m_source_file_index>
2168

> <i_lp_mmshare_version>
43012

> <i_f3d_flags>
0

> <s_epik_input>
W0NIM11bQ0gyXU4oW0NIMl1bQ0gzXSlTKD1PKSg9TylbTkhdW0NIMl1jMVtjSF1bY0hdYyhuW2NIXTEpTjJbQ0gyXVtDSDJdT1tDSDJdW0NIMl0y

> <s_epik_cmdline>
J2VwaWtfcHl0aG9uJywgJy1waCcsICc3LjAnLCAnLXRuJywgJzgnLCAnLW1hJywgJzIwMCcsICctbWV0YWxfYmluZGluZycsICctaW1hZScsICc8aW5maWxlLm1hZT4nLCAnLW9tYWUnLCAnPG91dGZpbGUubWFlPic=

> <r_lp_tautomer_probability>
0.999994

> <r_epik_Ionization_Penalty>
2.66893

> <r_epik_Ionization_Penalty_Charging>
2.61323

> <r_epik_Ionization_Penalty_Neutral>
0.0557011

> <r_epik_State_Penalty>
2.68492

> <r_epik_Charging_Adjusted_Penalty>
5.29815

> <i_epik_Tot_Q>
1

> <i_epik_Tot_abs_Q>
1

> <r_epik_Metal_State_Penalty>
5.63236

> <b_epik_Metal_Only>
0

> <s_lp_Force_Field>
OPLS_2005

> <r_lp_Energy>
21.5493

> <b_lp_Chiralities_Consistent>
1

> <s_lp_Variant>
AV-unprocessed.smi:2168-2

> <Gold.Version>
5.8.1

> <Gold.Id.Protein>
6NUR|6NUR_protein|mol2

> <Gold.PLP.Fitness>
40.2495

> <Gold.PLP.PLP>
-33.6235

> <Gold.PLP.part.hbond>
-3.7421

> <Gold.PLP.part.metal>
0.0000

> <Gold.PLP.part.buried>
-6.5785

> <Gold.PLP.part.nonpolar>
-24.0222

> <Gold.PLP.part.repulsive>
0.2664

> <Gold.PLP.ligand.clash>
0.0000

> <Gold.PLP.ligand.torsion>
2.2409

> <Gold.PLP.Chemscore.Hbond>
2.7558

> <Gold.PLP.Chemscore.CHOScore>
0.0000

> <Gold.PLP.Chemscore.Metal>
0.0000

> <Gold.Chemscore.Hbonds>
donor molecule, donor type, donor heavy atom, donor atom, acceptor molecule, acceptor atom, score
      L1  H    21    47       P1 10747  0.88
      P1  H  6896  6909       L1     8  0.72
      P1  H 10752 10764       L1     7  1.00
      P1  H 10785 10796       L1    18  0.10

> <Gold.PLP.Chemscore.Internal.Correction>
2.8406

> <Gold.Rescore>
     Score         DG    S(hbond)    S(metal)    S(lipo)     H(rot)  DE(clash)    DE(int)     intcor
     17.63     -19.66       2.84        0.00      83.80       1.99       0.12       1.91       ----

> <Gold.Chemscore.Fitness>
17.6278

> <Gold.Chemscore.DG>
-19.6613

> <Gold.Chemscore.ZeroCoef>
-5.4800

> <Gold.Chemscore.Hbond>
2.8379

> <Gold.Chemscore.Metal>
0.0000

> <Gold.Chemscore.Lipo>
83.8042

> <Gold.Chemscore.Internal_Hbond>
0.0000

> <Gold.Chemscore.DEClash>
0.1193

> <Gold.Chemscore.DEInternal>
1.9141

> <Gold.Chemscore.Rot>
1.9932

> <Gold.Chemscore.Internal.Correction>
   9.000000E+99

> <Gold.Chemscore.Hbonds>
donor molecule, donor type, donor heavy atom, donor atom, acceptor molecule, acceptor atom, score
      L1  H    21    47       P1 10747  0.86
      P1  H  6896  6909       L1     8  0.72
      P1  H 10752 10764       L1     7  1.00
      P1  H 10785 10796       L1    18  0.01

> <Gold.Chemscore.Hbond.Weighted>
-9.4786

> <Gold.Chemscore.Metal.Weighted>
-0.0000

> <Gold.Chemscore.Lipo.Weighted>
-9.8051

> <Gold.Chemscore.Internal_Hbond.Weighted>
0.0000

> <Gold.Chemscore.DEClash.Weighted>
0.1193

> <Gold.Chemscore.DEInternal.Weighted>
1.9141

> <Gold.Chemscore.Rot.Weighted>
5.1025

> <Gold.Chemscore.Internal.Correction.Weighted>
   9.000000E+99

> <Gold.Protein.RotatedTorsions>
[ 6907 6896 6895 6894 ] final   87.58 input  -60.11 | X-H torsion
[ 7974 7965 7964 7962 ] final -121.58 input  175.53 | X-H torsion
[ 8008 7997 7996 7995 ] final   55.69 input   59.86 | X-H torsion
[ 10167 10162 10161 10158 ] final  179.25 input  -65.29 | X-H torsion
[ 10718 10713 10712 10709 ] final  -21.61 input   66.30 | X-H torsion
[ 10763 10752 10751 10750 ] final   -2.63 input  -60.55 | X-H torsion
[ 11005 11000 10999 10996 ] final  162.07 input  -57.11 | X-H torsion

> <Gold.Protein.ActiveResidues>
 VAL166  LYS551  ARG553  GLY616  TRP617  ASP618  TYR619  PRO620  LYS621  CYS622 
 ASP623  PHE694  ASN695  SER759  ASP760  ASP761  ALA762  ILE779  LEU786  VAL792 
 PHE793  MET794  SER795  GLU796  ALA797  LYS798  CYS799  TRP800  GLU811  SER814 

> <Gold.Protein.RotatedAtoms>
  152.5413  134.2254  159.8803 H   0  0  0  0  0  0  0  0  0  0  0  0  # atno 6907 bound_to 6896
  151.2229  133.4486  159.2609 H   0  0  0  0  0  0  0  0  0  0  0  0  # atno 6908 bound_to 6896
  151.0789  134.9858  159.8402 H   0  0  0  0  0  0  0  0  0  0  0  0  # atno 6909 bound_to 6896
  145.0388  140.8127  143.4279 H   0  0  0  0  0  0  0  0  0  0  0  0  # atno 7974 bound_to 7965
  155.5053  140.3475  155.4378 H   0  0  0  0  0  0  0  0  0  0  0  0  # atno 8008 bound_to 7997
  156.0886  140.1405  156.9648 H   0  0  0  0  0  0  0  0  0  0  0  0  # atno 8009 bound_to 7997
  154.4621  140.0931  156.6899 H   0  0  0  0  0  0  0  0  0  0  0  0  # atno 8010 bound_to 7997
  139.5328  144.2584  152.0727 H   0  0  0  0  0  0  0  0  0  0  0  0  # atno 10167 bound_to 10162
  156.5158  130.4621  149.6623 H   0  0  0  0  0  0  0  0  0  0  0  0  # atno 10718 bound_to 10713
  153.3606  135.6990  153.6715 H   0  0  0  0  0  0  0  0  0  0  0  0  # atno 10763 bound_to 10752
  153.5405  135.3574  155.2717 H   0  0  0  0  0  0  0  0  0  0  0  0  # atno 10764 bound_to 10752
  154.8667  135.4202  154.2862 H   0  0  0  0  0  0  0  0  0  0  0  0  # atno 10765 bound_to 10752
  140.2221  134.8188  157.3231 H   0  0  0  0  0  0  0  0  0  0  0  0  # atno 11005 bound_to 11000
  145.1675  139.2423  143.5359 LP  0  0  0  0  0  0  0  0  0  0  0  0  # atno 17320 bound_to 7965
  146.3507  140.1417  142.8594 LP  0  0  0  0  0  0  0  0  0  0  0  0  # atno 17321 bound_to 7965
  140.2050  144.4620  150.6413 LP  0  0  0  0  0  0  0  0  0  0  0  0  # atno 17342 bound_to 10162
  140.6517  143.2226  151.6062 LP  0  0  0  0  0  0  0  0  0  0  0  0  # atno 17343 bound_to 10162
  156.3196  130.7273  151.2182 LP  0  0  0  0  0  0  0  0  0  0  0  0  # atno 17370 bound_to 10713
  157.7444  131.0459  150.4867 LP  0  0  0  0  0  0  0  0  0  0  0  0  # atno 17371 bound_to 10713
  140.1839  134.4455  155.7755 LP  0  0  0  0  0  0  0  0  0  0  0  0  # atno 17394 bound_to 11000
  141.2222  133.6996  156.7914 LP  0  0  0  0  0  0  0  0  0  0  0  0  # atno 17395 bound_to 11000

$$$$
