AV-unprocessed.smi:2842|AV-procd|sdf|10936|dock9
  -GOLD-   2272015383D 1   1.00000     0.00000
 Structure written by MMmdl.
 35 37  0  0  0  0  0  0  0  0  1 V2000
  147.5463  140.7875  155.5346 O   0  0  0  0  0  0  0  0  0  0  0  0
  148.2755  140.7316  154.5434 C   0  0  0  0  0  0  0  0  0  0  0  0
  149.6622  141.3929  154.5533 C   0  0  0  0  0  0  0  0  0  0  0  0
  150.3765  141.2293  155.8330 N   0  0  0  0  0  0  0  0  0  0  0  0
  149.9028  141.9846  156.9240 C   0  0  0  0  0  0  0  0  0  0  0  0
  150.4568  141.9161  158.0926 N   0  0  0  0  0  0  0  0  0  0  0  0
  151.5604  141.0784  158.2918 C   0  0  0  0  0  0  0  0  0  0  0  0
  152.1949  141.0561  159.6755 C   0  0  0  0  0  0  0  0  0  0  0  0
  152.8199  142.3735  160.1655 C   0  0  0  0  0  0  0  0  0  0  0  0
  153.9454  141.5334  160.7795 C   0  0  0  0  0  0  0  0  0  0  0  0
  153.6049  140.4487  159.7512 C   0  0  0  0  0  0  0  0  0  0  0  0
  152.0571  140.3392  157.2718 C   0  0  0  0  0  0  0  0  0  0  0  0
  151.4469  140.3882  155.9436 C   0  0  0  0  0  0  0  0  0  0  0  0
  151.8656  139.7227  154.9961 O   0  0  0  0  0  0  0  0  0  0  0  0
  147.9384  140.0923  153.4141 N   0  0  0  0  0  0  0  0  0  0  0  0
  146.7039  139.4151  153.1814 C   0  0  0  0  0  0  0  0  0  0  0  0
  146.7273  137.9025  153.1389 C   0  0  0  0  0  0  0  0  0  0  0  0
  146.5436  138.6830  151.8666 C   0  0  0  0  0  0  0  0  0  0  0  0
  150.2350  140.9868  153.7175 H   0  0  0  0  0  0  0  0  0  0  0  0
  149.5568  142.4568  154.3311 H   0  0  0  0  0  0  0  0  0  0  0  0
  149.0463  142.6274  156.7144 H   0  0  0  0  0  0  0  0  0  0  0  0
  151.5255  140.6217  160.4202 H   0  0  0  0  0  0  0  0  0  0  0  0
  153.1780  143.0170  159.3597 H   0  0  0  0  0  0  0  0  0  0  0  0
  152.2159  142.9254  160.8862 H   0  0  0  0  0  0  0  0  0  0  0  0
  154.9429  141.9623  160.6808 H   0  0  0  0  0  0  0  0  0  0  0  0
  153.7345  141.2261  161.8051 H   0  0  0  0  0  0  0  0  0  0  0  0
  153.6438  139.4279  160.1323 H   0  0  0  0  0  0  0  0  0  0  0  0
  154.1744  140.5573  158.8261 H   0  0  0  0  0  0  0  0  0  0  0  0
  152.9146  139.7022  157.4324 H   0  0  0  0  0  0  0  0  0  0  0  0
  148.6044  140.0940  152.6552 H   0  0  0  0  0  0  0  0  0  0  0  0
  145.8004  139.8674  153.5883 H   0  0  0  0  0  0  0  0  0  0  0  0
  147.6827  137.4029  153.2880 H   0  0  0  0  0  0  0  0  0  0  0  0
  145.8609  137.3765  153.5347 H   0  0  0  0  0  0  0  0  0  0  0  0
  145.5545  138.6804  151.4129 H   0  0  0  0  0  0  0  0  0  0  0  0
  147.3765  138.7056  151.1662 H   0  0  0  0  0  0  0  0  0  0  0  0
  1  2  2  0  0  0  0
  2  3  1  0  0  0  0
  2 15  1  0  0  0  0
  3  4  1  0  0  0  0
  3 19  1  0  0  0  0
  3 20  1  0  0  0  0
  4 13  1  0  0  0  0
  4  5  1  0  0  0  0
  5  6  2  0  0  0  0
  5 21  1  0  0  0  0
  6  7  1  0  0  0  0
  7  8  1  0  0  0  0
  7 12  2  0  0  0  0
  8 11  1  0  0  0  0
  8  9  1  0  0  0  0
  8 22  1  0  0  0  0
  9 10  1  0  0  0  0
  9 23  1  0  0  0  0
  9 24  1  0  0  0  0
 10 11  1  0  0  0  0
 10 25  1  0  0  0  0
 10 26  1  0  0  0  0
 11 27  1  0  0  0  0
 11 28  1  0  0  0  0
 12 13  1  0  0  0  0
 12 29  1  0  0  0  0
 13 14  2  0  0  0  0
 15 16  1  0  0  0  0
 15 30  1  0  0  0  0
 16 18  1  0  0  0  0
 16 17  1  0  0  0  0
 16 31  1  0  0  0  0
 17 18  1  0  0  0  0
 17 32  1  0  0  0  0
 17 33  1  0  0  0  0
 18 34  1  0  0  0  0
 18 35  1  0  0  0  0
M  END
> <s_m_source_file>
AV-unprocessed.smi

> <i_m_source_file_index>
2842

> <i_lp_mmshare_version>
43012

> <i_f3d_flags>
0

> <s_epik_input>
W0NIMl0xW0NIMl1bQ0hdMVtOSF1DKD1PKVtDSDJdbjJbY0hdbmMoW2NIXWMyPU8pW0NIXTNbQ0gyXVtDSDJdW0NIMl0z

> <s_epik_cmdline>
J2VwaWtfcHl0aG9uJywgJy1waCcsICc3LjAnLCAnLXRuJywgJzgnLCAnLW1hJywgJzIwMCcsICctbWV0YWxfYmluZGluZycsICctaW1hZScsICc8aW5maWxlLm1hZT4nLCAnLW9tYWUnLCAnPG91dGZpbGUubWFlPic=

> <r_lp_tautomer_probability>
1

> <r_epik_Ionization_Penalty>
7.30946e-06

> <r_epik_Ionization_Penalty_Charging>
8.23701e-09

> <r_epik_Ionization_Penalty_Neutral>
7.30122e-06

> <r_epik_State_Penalty>
-0

> <r_epik_Charging_Adjusted_Penalty>
8.23701e-09

> <i_epik_Tot_Q>
0

> <i_epik_Tot_abs_Q>
0

> <r_epik_Metal_State_Penalty>
-0

> <b_epik_Metal_Only>
0

> <s_lp_Force_Field>
OPLS_2005

> <r_lp_Energy>
30.4853

> <b_lp_Chiralities_Consistent>
1

> <s_lp_Variant>
AV-unprocessed.smi:2842-1

> <Gold.Version>
5.8.1

> <Gold.Id.Protein>
6NUR|6NUR_protein|mol2

> <Gold.PLP.Fitness>
43.2158

> <Gold.PLP.PLP>
-35.2274

> <Gold.PLP.part.hbond>
-2.0000

> <Gold.PLP.part.metal>
0.0000

> <Gold.PLP.part.buried>
-0.4636

> <Gold.PLP.part.nonpolar>
-33.2504

> <Gold.PLP.part.repulsive>
0.2180

> <Gold.PLP.ligand.clash>
0.0000

> <Gold.PLP.ligand.torsion>
0.6992

> <Gold.PLP.Chemscore.Hbond>
1.9920

> <Gold.PLP.Chemscore.CHOScore>
1.0000

> <Gold.PLP.Chemscore.Metal>
0.0000

> <Gold.Chemscore.Hbonds>
donor molecule, donor type, donor heavy atom, donor atom, acceptor molecule, acceptor atom, score
      L1  H    15    30       P1  7957  1.00
      P1  H  7989  7998       L1    14  0.98
      L1  C     5    21       P1  8028  1.00

> <Gold.PLP.Chemscore.Internal.Correction>
0.4108

> <Gold.Rescore>
     Score         DG    S(hbond)    S(metal)    S(lipo)     H(rot)  DE(clash)    DE(int)     intcor
     14.61     -16.61       1.85        0.00      80.26       1.73       0.20       1.79       ----

> <Gold.Chemscore.Fitness>
14.6126

> <Gold.Chemscore.DG>
-16.6061

> <Gold.Chemscore.ZeroCoef>
-5.4800

> <Gold.Chemscore.Hbond>
1.8460

> <Gold.Chemscore.Metal>
0.0000

> <Gold.Chemscore.Lipo>
80.2608

> <Gold.Chemscore.Internal_Hbond>
0.0000

> <Gold.Chemscore.DEClash>
0.2021

> <Gold.Chemscore.DEInternal>
1.7914

> <Gold.Chemscore.Rot>
1.7305

> <Gold.Chemscore.Internal.Correction>
   9.000000E+99

> <Gold.Chemscore.Hbonds>
donor molecule, donor type, donor heavy atom, donor atom, acceptor molecule, acceptor atom, score
      L1  H    15    30       P1  7957  1.00
      P1  H  7989  7998       L1    14  0.42

> <Gold.Chemscore.Hbond.Weighted>
-6.1656

> <Gold.Chemscore.Metal.Weighted>
-0.0000

> <Gold.Chemscore.Lipo.Weighted>
-9.3905

> <Gold.Chemscore.Internal_Hbond.Weighted>
0.0000

> <Gold.Chemscore.DEClash.Weighted>
0.2021

> <Gold.Chemscore.DEInternal.Weighted>
1.7914

> <Gold.Chemscore.Rot.Weighted>
4.4300

> <Gold.Chemscore.Internal.Correction.Weighted>
   9.000000E+99

> <Gold.Protein.RotatedTorsions>
[ 6907 6896 6895 6894 ] final    8.50 input  -60.11 | X-H torsion
[ 7974 7965 7964 7962 ] final   -2.27 input  175.53 | X-H torsion
[ 8008 7997 7996 7995 ] final  -16.50 input   59.86 | X-H torsion
[ 10167 10162 10161 10158 ] final -150.68 input  -65.29 | X-H torsion
[ 10718 10713 10712 10709 ] final  155.45 input   66.30 | X-H torsion
[ 10763 10752 10751 10750 ] final -144.71 input  -60.55 | X-H torsion
[ 11005 11000 10999 10996 ] final    2.51 input  -57.11 | X-H torsion

> <Gold.Protein.ActiveResidues>
 VAL166  LYS551  ARG553  GLY616  TRP617  ASP618  TYR619  PRO620  LYS621  CYS622 
 ASP623  PHE694  ASN695  SER759  ASP760  ASP761  ALA762  ILE779  LEU786  VAL792 
 PHE793  MET794  SER795  GLU796  ALA797  LYS798  CYS799  TRP800  GLU811  SER814 

> <Gold.Protein.RotatedAtoms>
  151.7070  135.0920  160.0260 H   0  0  0  0  0  0  0  0  0  0  0  0  # atno 6907 bound_to 6896
  152.3685  133.6384  159.6077 H   0  0  0  0  0  0  0  0  0  0  0  0  # atno 6908 bound_to 6896
  150.7656  133.9225  159.3443 H   0  0  0  0  0  0  0  0  0  0  0  0  # atno 6909 bound_to 6896
  146.2406  140.1545  142.8333 H   0  0  0  0  0  0  0  0  0  0  0  0  # atno 7974 bound_to 7965
  154.5048  140.2168  155.9273 H   0  0  0  0  0  0  0  0  0  0  0  0  # atno 8008 bound_to 7997
  156.1480  140.3167  155.8568 H   0  0  0  0  0  0  0  0  0  0  0  0  # atno 8009 bound_to 7997
  155.3993  140.0483  157.3028 H   0  0  0  0  0  0  0  0  0  0  0  0  # atno 8010 bound_to 7997
  139.7333  143.8775  152.2541 H   0  0  0  0  0  0  0  0  0  0  0  0  # atno 10167 bound_to 10162
  157.2181  131.0712  151.1929 H   0  0  0  0  0  0  0  0  0  0  0  0  # atno 10718 bound_to 10713
  154.8416  135.3433  154.6389 H   0  0  0  0  0  0  0  0  0  0  0  0  # atno 10763 bound_to 10752
  153.7000  135.6970  153.5070 H   0  0  0  0  0  0  0  0  0  0  0  0  # atno 10764 bound_to 10752
  153.2530  135.4347  155.0771 H   0  0  0  0  0  0  0  0  0  0  0  0  # atno 10765 bound_to 10752
  140.6034  133.9814  155.8143 H   0  0  0  0  0  0  0  0  0  0  0  0  # atno 11005 bound_to 11000
  145.0140  140.8738  143.5207 LP  0  0  0  0  0  0  0  0  0  0  0  0  # atno 17320 bound_to 7965
  145.1583  139.2473  143.5405 LP  0  0  0  0  0  0  0  0  0  0  0  0  # atno 17321 bound_to 7965
  139.8704  144.7071  150.8994 LP  0  0  0  0  0  0  0  0  0  0  0  0  # atno 17342 bound_to 10162
  140.7775  143.3743  151.1592 LP  0  0  0  0  0  0  0  0  0  0  0  0  # atno 17343 bound_to 10162
  157.3604  130.7128  149.6498 LP  0  0  0  0  0  0  0  0  0  0  0  0  # atno 17370 bound_to 10713
  155.9684  130.4227  150.4529 LP  0  0  0  0  0  0  0  0  0  0  0  0  # atno 17371 bound_to 10713
  141.0856  133.9995  157.3318 LP  0  0  0  0  0  0  0  0  0  0  0  0  # atno 17394 bound_to 11000
  139.9222  135.0201  156.8107 LP  0  0  0  0  0  0  0  0  0  0  0  0  # atno 17395 bound_to 11000

$$$$
