AV-unprocessed.smi:3100|AV-procd|sdf|11807|dock8
  -GOLD-   2272017183D 1   1.00000     0.00000
 Structure written by MMmdl.
 28 29  0  0  0  0  0  0  0  0  1 V2000
  152.1931  144.8575  158.8488 C   0  0  0  0  0  0  0  0  0  0  0  0
  152.6275  143.3914  158.9439 C   0  0  1  0  0  0  0  0  0  0  0  0
  153.3098  143.0236  160.2556 C   0  0  0  0  0  0  0  0  0  0  0  0
  153.1311  141.5165  160.3121 C   0  0  0  0  0  0  0  0  0  0  0  0
  151.8847  141.2500  159.4423 C   0  0  2  0  0  0  0  0  0  0  0  0
  152.1417  140.2763  158.2774 C   0  0  0  0  0  0  0  0  0  0  0  0
  153.2022  139.6519  158.2339 O   0  0  0  0  0  0  0  0  0  0  0  0
  151.1518  140.1493  157.3731 N   0  0  0  0  0  0  0  0  0  0  0  0
  151.1240  139.3422  156.2061 C   0  0  0  0  0  0  0  0  0  0  0  0
  151.9894  138.2227  156.2133 C   0  0  0  0  0  0  0  0  0  0  0  0
  152.0742  137.3596  155.1768 N   0  0  0  0  0  0  0  0  0  0  0  0
  151.2836  137.6147  154.1126 C   0  0  0  0  0  0  0  0  0  0  0  0
  150.4159  138.7248  154.0876 C   0  0  0  0  0  0  0  0  0  0  0  0
  150.3358  139.5834  155.1274 N   0  0  0  0  0  0  0  0  0  0  0  0
  151.4976  142.5322  158.9410 O   0  0  0  0  0  0  0  0  0  0  0  0
  153.0548  145.5240  158.8880 H   0  0  0  0  0  0  0  0  0  0  0  0
  151.5237  145.1264  159.6664 H   0  0  0  0  0  0  0  0  0  0  0  0
  151.6676  145.0469  157.9127 H   0  0  0  0  0  0  0  0  0  0  0  0
  153.2721  143.1344  158.1016 H   0  0  0  0  0  0  0  0  0  0  0  0
  154.3555  143.3310  160.2922 H   0  0  0  0  0  0  0  0  0  0  0  0
  152.7900  143.4869  161.0954 H   0  0  0  0  0  0  0  0  0  0  0  0
  154.0229  141.0288  159.9150 H   0  0  0  0  0  0  0  0  0  0  0  0
  152.9978  141.1676  161.3367 H   0  0  0  0  0  0  0  0  0  0  0  0
  151.0676  140.8558  160.0475 H   0  0  0  0  0  0  0  0  0  0  0  0
  150.3277  140.7093  157.5377 H   0  0  0  0  0  0  0  0  0  0  0  0
  152.6238  138.0140  157.0624 H   0  0  0  0  0  0  0  0  0  0  0  0
  151.3434  136.9316  153.2784 H   0  0  0  0  0  0  0  0  0  0  0  0
  149.7856  138.9240  153.2337 H   0  0  0  0  0  0  0  0  0  0  0  0
  1  2  1  0  0  0  0
  1 16  1  0  0  0  0
  1 17  1  0  0  0  0
  1 18  1  0  0  0  0
  2 15  1  0  0  0  0
  2  3  1  0  0  0  0
  2 19  1  0  0  0  0
  3  4  1  0  0  0  0
  3 20  1  0  0  0  0
  3 21  1  0  0  0  0
  4  5  1  0  0  0  0
  4 22  1  0  0  0  0
  4 23  1  0  0  0  0
  5  6  1  0  0  0  0
  5 15  1  0  0  0  0
  5 24  1  0  0  0  0
  6  7  2  0  0  0  0
  6  8  1  0  0  0  0
  8  9  1  0  0  0  0
  8 25  1  0  0  0  0
  9 14  1  0  0  0  0
  9 10  2  0  0  0  0
 10 11  1  0  0  0  0
 10 26  1  0  0  0  0
 11 12  2  0  0  0  0
 12 13  1  0  0  0  0
 12 27  1  0  0  0  0
 13 14  2  0  0  0  0
 13 28  1  0  0  0  0
M  END
> <s_m_source_file>
AV-unprocessed.smi

> <i_m_source_file_index>
3100

> <i_lp_mmshare_version>
43012

> <i_f3d_flags>
0

> <s_epik_input>
W0NIM11bQ0BASF0xW0NIMl1bQ0gyXVtDQEhdKE8xKUMoPU8pW05IXWMyW2NIXW5bY0hdW2NIXW4y

> <s_epik_cmdline>
J2VwaWtfcHl0aG9uJywgJy1waCcsICc3LjAnLCAnLXRuJywgJzgnLCAnLW1hJywgJzIwMCcsICctbWV0YWxfYmluZGluZycsICctaW1hZScsICc8aW5maWxlLm1hZT4nLCAnLW9tYWUnLCAnPG91dGZpbGUubWFlPic=

> <r_lp_tautomer_probability>
1

> <r_epik_Ionization_Penalty>
2.81186e-06

> <r_epik_Ionization_Penalty_Charging>
0

> <r_epik_Ionization_Penalty_Neutral>
2.81186e-06

> <r_epik_State_Penalty>
-0

> <r_epik_Charging_Adjusted_Penalty>
0

> <i_epik_Tot_Q>
0

> <i_epik_Tot_abs_Q>
0

> <r_epik_Metal_State_Penalty>
-0

> <b_epik_Metal_Only>
0

> <s_lp_Force_Field>
OPLS_2005

> <r_lp_Energy>
25.84

> <b_lp_Chiralities_Consistent>
1

> <s_lp_Variant>
AV-unprocessed.smi:3100-4

> <Gold.Version>
5.8.1

> <Gold.Id.Protein>
6NUR|6NUR_protein|mol2

> <Gold.PLP.Fitness>
41.9382

> <Gold.PLP.PLP>
-30.9145

> <Gold.PLP.part.hbond>
-2.0000

> <Gold.PLP.part.metal>
0.0000

> <Gold.PLP.part.buried>
-3.7929

> <Gold.PLP.part.nonpolar>
-26.5329

> <Gold.PLP.part.repulsive>
0.1725

> <Gold.PLP.ligand.clash>
0.0000

> <Gold.PLP.ligand.torsion>
0.2636

> <Gold.PLP.Chemscore.Hbond>
1.8480

> <Gold.PLP.Chemscore.CHOScore>
2.0000

> <Gold.PLP.Chemscore.Metal>
0.0000

> <Gold.Chemscore.Hbonds>
donor molecule, donor type, donor heavy atom, donor atom, acceptor molecule, acceptor atom, score
      P1  H  7997  8010       L1     7  1.00
      P1  H 10752 10765       L1    11  0.84
      L1  C    12    27       P1  7949  0.99
      L1  C    13    28       P1  7957  1.00

> <Gold.PLP.Chemscore.Internal.Correction>
0.0069

> <Gold.Rescore>
     Score         DG    S(hbond)    S(metal)    S(lipo)     H(rot)  DE(clash)    DE(int)     intcor
     16.09     -18.08       1.79        0.00      78.59       1.00       0.34       1.65       ----

> <Gold.Chemscore.Fitness>
16.0888

> <Gold.Chemscore.DG>
-18.0783

> <Gold.Chemscore.ZeroCoef>
-5.4800

> <Gold.Chemscore.Hbond>
1.7853

> <Gold.Chemscore.Metal>
0.0000

> <Gold.Chemscore.Lipo>
78.5932

> <Gold.Chemscore.Internal_Hbond>
0.0000

> <Gold.Chemscore.DEClash>
0.3423

> <Gold.Chemscore.DEInternal>
1.6472

> <Gold.Chemscore.Rot>
1.0000

> <Gold.Chemscore.Internal.Correction>
   9.000000E+99

> <Gold.Chemscore.Hbonds>
donor molecule, donor type, donor heavy atom, donor atom, acceptor molecule, acceptor atom, score
      P1  H  7997  8010       L1     7  0.92
      P1  H 10752 10765       L1    11  0.30

> <Gold.Chemscore.Hbond.Weighted>
-5.9629

> <Gold.Chemscore.Metal.Weighted>
-0.0000

> <Gold.Chemscore.Lipo.Weighted>
-9.1954

> <Gold.Chemscore.Internal_Hbond.Weighted>
0.0000

> <Gold.Chemscore.DEClash.Weighted>
0.3423

> <Gold.Chemscore.DEInternal.Weighted>
1.6472

> <Gold.Chemscore.Rot.Weighted>
2.5600

> <Gold.Chemscore.Internal.Correction.Weighted>
   9.000000E+99

> <Gold.Protein.RotatedTorsions>
[ 6907 6896 6895 6894 ] final  110.14 input  -60.11 | X-H torsion
[ 7974 7965 7964 7962 ] final  -16.64 input  175.53 | X-H torsion
[ 8008 7997 7996 7995 ] final   51.14 input   59.86 | X-H torsion
[ 10167 10162 10161 10158 ] final -168.07 input  -65.29 | X-H torsion
[ 10718 10713 10712 10709 ] final    7.42 input   66.30 | X-H torsion
[ 10763 10752 10751 10750 ] final -175.08 input  -60.55 | X-H torsion
[ 11005 11000 10999 10996 ] final  -80.76 input  -57.11 | X-H torsion

> <Gold.Protein.ActiveResidues>
 VAL166  LYS551  ARG553  GLY616  TRP617  ASP618  TYR619  PRO620  LYS621  CYS622 
 ASP623  PHE694  ASN695  SER759  ASP760  ASP761  ALA762  ILE779  LEU786  VAL792 
 PHE793  MET794  SER795  GLU796  ALA797  LYS798  CYS799  TRP800  GLU811  SER814 

> <Gold.Protein.RotatedAtoms>
  152.5034  133.8843  159.7361 H   0  0  0  0  0  0  0  0  0  0  0  0  # atno 6907 bound_to 6896
  150.9298  133.6772  159.2820 H   0  0  0  0  0  0  0  0  0  0  0  0  # atno 6908 bound_to 6896
  151.4120  135.0991  159.9640 H   0  0  0  0  0  0  0  0  0  0  0  0  # atno 6909 bound_to 6896
  146.1978  140.3665  142.8434 H   0  0  0  0  0  0  0  0  0  0  0  0  # atno 7974 bound_to 7965
  155.4304  140.3450  155.4279 H   0  0  0  0  0  0  0  0  0  0  0  0  # atno 8008 bound_to 7997
  156.1340  140.1522  156.9054 H   0  0  0  0  0  0  0  0  0  0  0  0  # atno 8009 bound_to 7997
  154.4917  140.0839  156.7588 H   0  0  0  0  0  0  0  0  0  0  0  0  # atno 8010 bound_to 7997
  139.6009  144.1013  152.1741 H   0  0  0  0  0  0  0  0  0  0  0  0  # atno 10167 bound_to 10162
  156.9367  130.5846  149.5651 H   0  0  0  0  0  0  0  0  0  0  0  0  # atno 10718 bound_to 10713
  154.5886  135.2843  155.0658 H   0  0  0  0  0  0  0  0  0  0  0  0  # atno 10763 bound_to 10752
  154.1967  135.6431  153.5079 H   0  0  0  0  0  0  0  0  0  0  0  0  # atno 10764 bound_to 10752
  153.0113  135.5459  154.6565 H   0  0  0  0  0  0  0  0  0  0  0  0  # atno 10765 bound_to 10752
  141.1667  133.7165  156.8321 H   0  0  0  0  0  0  0  0  0  0  0  0  # atno 11005 bound_to 11000
  144.8617  140.7149  143.6103 LP  0  0  0  0  0  0  0  0  0  0  0  0  # atno 17320 bound_to 7965
  145.3585  139.1688  143.4396 LP  0  0  0  0  0  0  0  0  0  0  0  0  # atno 17321 bound_to 7965
  140.0609  144.5857  150.7263 LP  0  0  0  0  0  0  0  0  0  0  0  0  # atno 17342 bound_to 10162
  140.7248  143.2625  151.4156 LP  0  0  0  0  0  0  0  0  0  0  0  0  # atno 17343 bound_to 10162
  156.0422  130.5503  150.8798 LP  0  0  0  0  0  0  0  0  0  0  0  0  # atno 17370 bound_to 10713
  157.5811  131.0946  150.9269 LP  0  0  0  0  0  0  0  0  0  0  0  0  # atno 17371 bound_to 10713
  140.2043  134.8874  157.3204 LP  0  0  0  0  0  0  0  0  0  0  0  0  # atno 17394 bound_to 11000
  140.2154  134.4088  155.7592 LP  0  0  0  0  0  0  0  0  0  0  0  0  # atno 17395 bound_to 11000

$$$$
