AV-unprocessed.smi:243|AV-procd|sdf|1861|dock9
  -GOLD-   2262020493D 1   1.00000     0.00000
 Structure written by MMmdl.
 58 61  0  0  0  0  0  0  0  0  2 V2000
  143.9078  132.8511  148.5504 C   0  0  0  0  0  0  0  0  0  0  0  0
  144.2226  133.1884  150.0148 C   0  0  0  0  0  0  0  0  0  0  0  0
  145.3946  134.0938  150.1509 N   0  3  1  0  0  0  0  0  0  0  0  0
  145.0238  135.5032  150.4356 C   0  0  0  0  0  0  0  0  0  0  0  0
  144.5725  135.6878  151.8933 C   0  0  0  0  0  0  0  0  0  0  0  0
  145.6626  135.2158  152.8743 C   0  0  1  0  0  0  0  0  0  0  0  0
  145.2333  135.4165  154.2659 N   0  0  0  0  0  0  0  0  0  0  0  0
  143.9346  134.9361  154.7296 C   0  0  0  0  0  0  0  0  0  0  0  0
  146.0253  136.0984  155.1385 C   0  0  0  0  0  0  0  0  0  0  0  0
  146.0545  135.7029  156.4392 N   0  0  0  0  0  0  0  0  0  0  0  0
  146.8107  136.3474  157.3316 C   0  0  0  0  0  0  0  0  0  0  0  0
  147.6087  137.3980  157.1427 N   0  0  0  0  0  0  0  0  0  0  0  0
  147.5894  137.8055  155.8420 C   0  0  0  0  0  0  0  0  0  0  0  0
  146.8360  137.2187  154.7838 C   0  0  0  0  0  0  0  0  0  0  0  0
  147.0969  137.8969  153.5976 N   0  0  0  0  0  0  0  0  0  0  0  0
  147.9455  138.8279  153.9353 C   0  0  0  0  0  0  0  0  0  0  0  0
  148.2873  138.8543  155.2677 N   0  0  0  0  0  0  0  0  0  0  0  0
  149.2106  139.7761  155.9132 C   0  0  0  0  0  0  0  0  0  0  0  0
  150.5844  139.9035  155.2058 C   0  0  2  0  0  0  0  0  0  0  0  0
  150.4317  140.6551  154.0161 O   0  0  0  0  0  0  0  0  0  0  0  0
  151.2443  138.5649  154.8691 C   0  0  0  0  0  0  0  0  0  0  0  0
  152.2042  138.3581  156.0310 C   0  0  0  0  0  0  0  0  0  0  0  0
  152.7100  139.6647  156.2389 O   0  0  0  0  0  0  0  0  0  0  0  0
  151.6276  140.5806  156.1188 C   0  0  0  0  0  0  0  0  0  0  0  0
  146.0730  133.7529  152.5665 C   0  0  2  0  0  0  0  0  0  0  0  0
  147.2328  133.2721  153.4553 C   0  0  0  0  0  0  0  0  0  0  0  0
  146.4575  133.6115  151.0748 C   0  0  0  0  0  0  0  0  0  0  0  0
  142.9862  132.2729  148.4810 H   0  0  0  0  0  0  0  0  0  0  0  0
  144.6953  132.2573  148.0871 H   0  0  0  0  0  0  0  0  0  0  0  0
  143.7735  133.7563  147.9575 H   0  0  0  0  0  0  0  0  0  0  0  0
  143.3447  133.6822  150.4336 H   0  0  0  0  0  0  0  0  0  0  0  0
  144.3619  132.2761  150.5944 H   0  0  0  0  0  0  0  0  0  0  0  0
  145.8918  136.1349  150.2415 H   0  0  0  0  0  0  0  0  0  0  0  0
  144.2466  135.8381  149.7475 H   0  0  0  0  0  0  0  0  0  0  0  0
  144.3463  136.7397  152.0722 H   0  0  0  0  0  0  0  0  0  0  0  0
  143.6427  135.1431  152.0599 H   0  0  0  0  0  0  0  0  0  0  0  0
  146.5312  135.8420  152.6688 H   0  0  0  0  0  0  0  0  0  0  0  0
  143.9923  134.5877  155.7615 H   0  0  0  0  0  0  0  0  0  0  0  0
  143.5748  134.1053  154.1245 H   0  0  0  0  0  0  0  0  0  0  0  0
  143.1930  135.7330  154.6718 H   0  0  0  0  0  0  0  0  0  0  0  0
  146.7698  135.9676  158.3420 H   0  0  0  0  0  0  0  0  0  0  0  0
  148.3462  139.5279  153.2165 H   0  0  0  0  0  0  0  0  0  0  0  0
  148.7282  140.7530  155.9711 H   0  0  0  0  0  0  0  0  0  0  0  0
  149.3496  139.4468  156.9438 H   0  0  0  0  0  0  0  0  0  0  0  0
  150.1175  140.0789  153.3363 H   0  0  0  0  0  0  0  0  0  0  0  0
  150.5517  137.7346  154.7428 H   0  0  0  0  0  0  0  0  0  0  0  0
  151.8261  138.6428  153.9492 H   0  0  0  0  0  0  0  0  0  0  0  0
  151.6770  138.0156  156.9231 H   0  0  0  0  0  0  0  0  0  0  0  0
  152.9998  137.6487  155.8020 H   0  0  0  0  0  0  0  0  0  0  0  0
  151.9872  141.5336  155.7283 H   0  0  0  0  0  0  0  0  0  0  0  0
  151.2218  140.7703  157.1135 H   0  0  0  0  0  0  0  0  0  0  0  0
  145.2274  133.0940  152.7601 H   0  0  0  0  0  0  0  0  0  0  0  0
  148.1146  133.9012  153.3315 H   0  0  0  0  0  0  0  0  0  0  0  0
  147.5175  132.2489  153.2096 H   0  0  0  0  0  0  0  0  0  0  0  0
  146.9602  133.2864  154.5109 H   0  0  0  0  0  0  0  0  0  0  0  0
  146.7233  132.5803  150.8450 H   0  0  0  0  0  0  0  0  0  0  0  0
  147.3569  134.1973  150.8798 H   0  0  0  0  0  0  0  0  0  0  0  0
  145.8129  134.1112  149.2315 H   0  0  0  0  0  0  0  0  0  0  0  0
  1  2  1  0  0  0  0
  1 28  1  0  0  0  0
  1 29  1  0  0  0  0
  1 30  1  0  0  0  0
  2  3  1  0  0  0  0
  2 31  1  0  0  0  0
  2 32  1  0  0  0  0
  3 27  1  0  0  0  0
  3  4  1  0  0  0  0
  3 58  1  0  0  0  0
  4  5  1  0  0  0  0
  4 33  1  0  0  0  0
  4 34  1  0  0  0  0
  5  6  1  0  0  0  0
  5 35  1  0  0  0  0
  5 36  1  0  0  0  0
  6  7  1  0  0  0  0
  6 25  1  0  0  0  0
  6 37  1  0  0  0  0
  7  8  1  0  0  0  0
  7  9  1  0  0  0  0
  8 38  1  0  0  0  0
  8 39  1  0  0  0  0
  8 40  1  0  0  0  0
  9 14  1  0  0  0  0
  9 10  2  0  0  0  0
 10 11  1  0  0  0  0
 11 12  2  0  0  0  0
 11 41  1  0  0  0  0
 12 13  1  0  0  0  0
 13 17  1  0  0  0  0
 13 14  2  0  0  0  0
 14 15  1  0  0  0  0
 15 16  2  0  0  0  0
 16 17  1  0  0  0  0
 16 42  1  0  0  0  0
 17 18  1  0  0  0  0
 18 19  1  0  0  0  0
 18 43  1  0  0  0  0
 18 44  1  0  0  0  0
 19 24  1  0  0  0  0
 19 20  1  0  0  0  0
 19 21  1  0  0  0  0
 20 45  1  0  0  0  0
 21 22  1  0  0  0  0
 21 46  1  0  0  0  0
 21 47  1  0  0  0  0
 22 23  1  0  0  0  0
 22 48  1  0  0  0  0
 22 49  1  0  0  0  0
 23 24  1  0  0  0  0
 24 50  1  0  0  0  0
 24 51  1  0  0  0  0
 25 26  1  0  0  0  0
 25 27  1  0  0  0  0
 25 52  1  0  0  0  0
 26 53  1  0  0  0  0
 26 54  1  0  0  0  0
 26 55  1  0  0  0  0
 27 56  1  0  0  0  0
 27 57  1  0  0  0  0
M  CHG  1   3   1
M  END
> <s_m_source_file>
AV-unprocessed.smi

> <i_m_source_file_index>
243

> <i_lp_mmshare_version>
43012

> <i_f3d_flags>
0

> <s_epik_input>
W0NIM11bQ0gyXU4xW0NIMl1bQ0gyXVtDQEhdKFtDQEBIXShbQ0gzXSlbQ0gyXTEpTihbQ0gzXSljKG5bY0hdbjIpYyhjMjMpbltjSF1uM1tDSDJdW0NAQF00KFtPSF0pW0NIMl1bQ0gyXU9bQ0gyXTQ=

> <s_epik_cmdline>
J2VwaWtfcHl0aG9uJywgJy1waCcsICc3LjAnLCAnLXRuJywgJzgnLCAnLW1hJywgJzIwMCcsICctbWV0YWxfYmluZGluZycsICctaW1hZScsICc8aW5maWxlLm1hZT4nLCAnLW9tYWUnLCAnPG91dGZpbGUubWFlPic=

> <r_lp_tautomer_probability>
1

> <r_epik_Ionization_Penalty>
0.00253099

> <r_epik_Ionization_Penalty_Charging>
0.00137877

> <r_epik_Ionization_Penalty_Neutral>
0.00115221

> <r_epik_State_Penalty>
-0

> <r_epik_Charging_Adjusted_Penalty>
0.00137877

> <i_epik_Tot_Q>
1

> <i_epik_Tot_abs_Q>
1

> <r_epik_Metal_State_Penalty>
-0

> <b_epik_Metal_Only>
0

> <s_lp_Force_Field>
OPLS_2005

> <r_lp_Energy>
46.8505

> <b_lp_Chiralities_Consistent>
1

> <s_lp_Variant>
AV-unprocessed.smi:243-14

> <Gold.Version>
5.8.1

> <Gold.Id.Protein>
6NUR|6NUR_protein|mol2

> <Gold.PLP.Fitness>
45.3906

> <Gold.PLP.PLP>
-35.3338

> <Gold.PLP.part.hbond>
-4.0417

> <Gold.PLP.part.metal>
0.0000

> <Gold.PLP.part.buried>
-0.9609

> <Gold.PLP.part.nonpolar>
-29.0470

> <Gold.PLP.part.repulsive>
0.3891

> <Gold.PLP.ligand.clash>
0.0000

> <Gold.PLP.ligand.torsion>
1.6246

> <Gold.PLP.Chemscore.Hbond>
3.3924

> <Gold.PLP.Chemscore.CHOScore>
1.0000

> <Gold.PLP.Chemscore.Metal>
0.0000

> <Gold.Chemscore.Hbonds>
donor molecule, donor type, donor heavy atom, donor atom, acceptor molecule, acceptor atom, score
      L1  H     3    58       P1  7921  1.00
      L1  H    20    45       P1  7957  0.42
      P1  H  7989  7998       L1    20  0.28
      P1  H  7997  8009       L1    23  1.00
      L1  C    16    42       P1  7957  1.00

> <Gold.PLP.Chemscore.Internal.Correction>
0.1290

> <Gold.Rescore>
     Score         DG    S(hbond)    S(metal)    S(lipo)     H(rot)  DE(clash)    DE(int)     intcor
     17.33     -19.68       2.82        0.00      89.83       2.24       0.72       1.62       ----

> <Gold.Chemscore.Fitness>
17.3345

> <Gold.Chemscore.DG>
-19.6819

> <Gold.Chemscore.ZeroCoef>
-5.4800

> <Gold.Chemscore.Hbond>
2.8208

> <Gold.Chemscore.Metal>
0.0000

> <Gold.Chemscore.Lipo>
89.8262

> <Gold.Chemscore.Internal_Hbond>
0.0000

> <Gold.Chemscore.DEClash>
0.7247

> <Gold.Chemscore.DEInternal>
1.6226

> <Gold.Chemscore.Rot>
2.2379

> <Gold.Chemscore.Internal.Correction>
   9.000000E+99

> <Gold.Chemscore.Hbonds>
donor molecule, donor type, donor heavy atom, donor atom, acceptor molecule, acceptor atom, score
      L1  H     3    58       P1  7921  0.44
      L1  H    20    45       P1  7957  0.41
      P1  H  7989  7998       L1    20  0.03
      P1  H  7997  8009       L1    23  1.00

> <Gold.Chemscore.Hbond.Weighted>
-9.4213

> <Gold.Chemscore.Metal.Weighted>
-0.0000

> <Gold.Chemscore.Lipo.Weighted>
-10.5097

> <Gold.Chemscore.Internal_Hbond.Weighted>
0.0000

> <Gold.Chemscore.DEClash.Weighted>
0.7247

> <Gold.Chemscore.DEInternal.Weighted>
1.6226

> <Gold.Chemscore.Rot.Weighted>
5.7291

> <Gold.Chemscore.Internal.Correction.Weighted>
   9.000000E+99

> <Gold.Protein.RotatedTorsions>
[ 6907 6896 6895 6894 ] final  -57.57 input  -60.11 | X-H torsion
[ 7974 7965 7964 7962 ] final   89.16 input  175.53 | X-H torsion
[ 8008 7997 7996 7995 ] final -167.83 input   59.86 | X-H torsion
[ 10167 10162 10161 10158 ] final -135.73 input  -65.29 | X-H torsion
[ 10718 10713 10712 10709 ] final   59.58 input   66.30 | X-H torsion
[ 10763 10752 10751 10750 ] final -152.53 input  -60.55 | X-H torsion
[ 11005 11000 10999 10996 ] final  -76.56 input  -57.11 | X-H torsion

> <Gold.Protein.ActiveResidues>
 VAL166  LYS551  ARG553  GLY616  TRP617  ASP618  TYR619  PRO620  LYS621  CYS622 
 ASP623  PHE694  ASN695  SER759  ASP760  ASP761  ALA762  ILE779  LEU786  VAL792 
 PHE793  MET794  SER795  GLU796  ALA797  LYS798  CYS799  TRP800  GLU811  SER814 

> <Gold.Protein.RotatedAtoms>
  150.8075  134.7210  159.6657 H   0  0  0  0  0  0  0  0  0  0  0  0  # atno 6907 bound_to 6896
  152.4195  134.5978  160.0001 H   0  0  0  0  0  0  0  0  0  0  0  0  # atno 6908 bound_to 6896
  151.6197  133.3303  159.3121 H   0  0  0  0  0  0  0  0  0  0  0  0  # atno 6909 bound_to 6896
  145.5361  139.2286  143.2592 H   0  0  0  0  0  0  0  0  0  0  0  0  # atno 7974 bound_to 7965
  155.8830  140.1012  157.1472 H   0  0  0  0  0  0  0  0  0  0  0  0  # atno 8008 bound_to 7997
  154.4007  140.1325  156.4284 H   0  0  0  0  0  0  0  0  0  0  0  0  # atno 8009 bound_to 7997
  155.7621  140.3463  155.5205 H   0  0  0  0  0  0  0  0  0  0  0  0  # atno 8010 bound_to 7997
  139.8749  143.6911  152.2635 H   0  0  0  0  0  0  0  0  0  0  0  0  # atno 10167 bound_to 10162
  157.5686  130.8890  149.9229 H   0  0  0  0  0  0  0  0  0  0  0  0  # atno 10718 bound_to 10713
  154.7988  135.3234  154.7601 H   0  0  0  0  0  0  0  0  0  0  0  0  # atno 10763 bound_to 10752
  153.8273  135.6882  153.4823 H   0  0  0  0  0  0  0  0  0  0  0  0  # atno 10764 bound_to 10752
  153.1694  135.4629  154.9824 H   0  0  0  0  0  0  0  0  0  0  0  0  # atno 10765 bound_to 10752
  141.1655  133.6988  156.7688 H   0  0  0  0  0  0  0  0  0  0  0  0  # atno 11005 bound_to 11000
  146.2012  140.6179  142.9101 LP  0  0  0  0  0  0  0  0  0  0  0  0  # atno 17320 bound_to 7965
  144.7601  140.5401  143.6741 LP  0  0  0  0  0  0  0  0  0  0  0  0  # atno 17321 bound_to 7965
  139.7249  144.7595  151.0895 LP  0  0  0  0  0  0  0  0  0  0  0  0  # atno 17342 bound_to 10162
  140.7754  143.5160  150.9594 LP  0  0  0  0  0  0  0  0  0  0  0  0  # atno 17343 bound_to 10162
  156.0733  130.3682  150.0730 LP  0  0  0  0  0  0  0  0  0  0  0  0  # atno 17370 bound_to 10713
  156.8886  130.9581  151.3591 LP  0  0  0  0  0  0  0  0  0  0  0  0  # atno 17371 bound_to 10713
  140.2479  134.8563  157.3639 LP  0  0  0  0  0  0  0  0  0  0  0  0  # atno 17394 bound_to 11000
  140.1731  134.4583  155.7819 LP  0  0  0  0  0  0  0  0  0  0  0  0  # atno 17395 bound_to 11000

$$$$
