AV-unprocessed.smi:3256|AV-procd|sdf|12465|dock7
  -GOLD-   2272018363D 1   1.00000     0.00000
 Structure written by MMmdl.
 36 37  0  0  0  0  0  0  0  0  1 V2000
  144.4293  136.4648  152.8466 O   0  0  0  0  0  0  0  0  0  0  0  0
  145.6150  136.3002  152.5629 C   0  0  0  0  0  0  0  0  0  0  0  0
  146.5879  137.1469  152.9291 N   0  0  0  0  0  0  0  0  0  0  0  0
  146.3985  138.3756  153.6934 C   0  0  0  0  0  0  0  0  0  0  0  0
  147.4810  139.4219  153.3637 C   0  0  0  0  0  0  0  0  0  0  0  0
  148.5431  139.5699  154.3589 N   0  0  0  0  0  0  0  0  0  0  0  0
  149.0067  140.9509  154.4311 C   0  0  0  0  0  0  0  0  0  0  0  0
  150.1198  141.1289  155.4781 C   0  0  0  0  0  0  0  0  0  0  0  0
  151.1993  140.2503  155.1793 O   0  0  0  0  0  0  0  0  0  0  0  0
  150.8002  138.8841  155.1405 C   0  0  0  0  0  0  0  0  0  0  0  0
  149.6872  138.7000  154.0944 C   0  0  0  0  0  0  0  0  0  0  0  0
  146.1149  135.2762  151.8494 N   0  0  0  0  0  0  0  0  0  0  0  0
  145.4464  134.1560  151.2822 C   0  0  0  0  0  0  0  0  0  0  0  0
  146.0677  133.1471  150.5055 C   0  0  0  0  0  0  0  0  0  0  0  0
  145.2781  132.0978  149.9964 C   0  0  0  0  0  0  0  0  0  0  0  0
  143.8981  132.0960  150.2761 C   0  0  0  0  0  0  0  0  0  0  0  0
  143.2914  133.0526  151.0089 N   0  0  0  0  0  0  0  0  0  0  0  0
  144.0548  134.0546  151.4944 C   0  0  0  0  0  0  0  0  0  0  0  0
  147.5329  136.9322  152.6469 H   0  0  0  0  0  0  0  0  0  0  0  0
  145.3917  138.7747  153.5684 H   0  0  0  0  0  0  0  0  0  0  0  0
  146.4784  138.1107  154.7479 H   0  0  0  0  0  0  0  0  0  0  0  0
  147.9248  139.1811  152.3967 H   0  0  0  0  0  0  0  0  0  0  0  0
  146.9827  140.3827  153.2271 H   0  0  0  0  0  0  0  0  0  0  0  0
  149.3755  141.2693  153.4548 H   0  0  0  0  0  0  0  0  0  0  0  0
  148.1727  141.6085  154.6791 H   0  0  0  0  0  0  0  0  0  0  0  0
  150.4839  142.1563  155.4736 H   0  0  0  0  0  0  0  0  0  0  0  0
  149.7427  140.9254  156.4816 H   0  0  0  0  0  0  0  0  0  0  0  0
  151.6632  138.2678  154.8885 H   0  0  0  0  0  0  0  0  0  0  0  0
  150.4576  138.5692  156.1274 H   0  0  0  0  0  0  0  0  0  0  0  0
  149.3804  137.6548  154.0952 H   0  0  0  0  0  0  0  0  0  0  0  0
  150.0882  138.9072  153.1010 H   0  0  0  0  0  0  0  0  0  0  0  0
  147.1074  135.3139  151.6694 H   0  0  0  0  0  0  0  0  0  0  0  0
  147.1216  133.1525  150.2792 H   0  0  0  0  0  0  0  0  0  0  0  0
  145.7209  131.3129  149.4013 H   0  0  0  0  0  0  0  0  0  0  0  0
  143.2644  131.3074  149.8985 H   0  0  0  0  0  0  0  0  0  0  0  0
  143.5338  134.8025  152.0745 H   0  0  0  0  0  0  0  0  0  0  0  0
  1  2  2  0  0  0  0
  2  3  1  0  0  0  0
  2 12  1  0  0  0  0
  3  4  1  0  0  0  0
  3 19  1  0  0  0  0
  4  5  1  0  0  0  0
  4 20  1  0  0  0  0
  4 21  1  0  0  0  0
  5  6  1  0  0  0  0
  5 22  1  0  0  0  0
  5 23  1  0  0  0  0
  6 11  1  0  0  0  0
  6  7  1  0  0  0  0
  7  8  1  0  0  0  0
  7 24  1  0  0  0  0
  7 25  1  0  0  0  0
  8  9  1  0  0  0  0
  8 26  1  0  0  0  0
  8 27  1  0  0  0  0
  9 10  1  0  0  0  0
 10 11  1  0  0  0  0
 10 28  1  0  0  0  0
 10 29  1  0  0  0  0
 11 30  1  0  0  0  0
 11 31  1  0  0  0  0
 12 13  1  0  0  0  0
 12 32  1  0  0  0  0
 13 18  1  0  0  0  0
 13 14  2  0  0  0  0
 14 15  1  0  0  0  0
 14 33  1  0  0  0  0
 15 16  2  0  0  0  0
 15 34  1  0  0  0  0
 16 17  1  0  0  0  0
 16 35  1  0  0  0  0
 17 18  2  0  0  0  0
 18 36  1  0  0  0  0
M  END
> <s_m_source_file>
AV-unprocessed.smi

> <i_m_source_file_index>
3256

> <i_lp_mmshare_version>
43012

> <i_f3d_flags>
0

> <s_epik_input>
W2NIXTFuW2NIXVtjSF1bY0hdYzFbTkhdQyg9TylbTkhdW0NIMl1bQ0gyXU4yW0NIMl1bQ0gyXU9bQ0gyXVtDSDJdMg==

> <s_epik_cmdline>
J2VwaWtfcHl0aG9uJywgJy1waCcsICc3LjAnLCAnLXRuJywgJzgnLCAnLW1hJywgJzIwMCcsICctbWV0YWxfYmluZGluZycsICctaW1hZScsICc8aW5maWxlLm1hZT4nLCAnLW9tYWUnLCAnPG91dGZpbGUubWFlPic=

> <r_epik_Ionization_Penalty>
0.270703

> <r_epik_Ionization_Penalty_Charging>
0

> <r_epik_Ionization_Penalty_Neutral>
0.270703

> <r_epik_State_Penalty>
0.268226

> <r_epik_Charging_Adjusted_Penalty>
0.268226

> <i_epik_Tot_Q>
0

> <i_epik_Tot_abs_Q>
0

> <r_epik_Metal_State_Penalty>
0.26483

> <b_epik_Metal_Only>
0

> <s_lp_Force_Field>
OPLS_2005

> <r_lp_Energy>
28.1533

> <b_lp_Chiralities_Consistent>
1

> <s_lp_Variant>
AV-unprocessed.smi:3256-1

> <Gold.Version>
5.8.1

> <Gold.Id.Protein>
6NUR|6NUR_protein|mol2

> <Gold.PLP.Fitness>
41.4541

> <Gold.PLP.PLP>
-32.1583

> <Gold.PLP.part.hbond>
-3.0000

> <Gold.PLP.part.metal>
0.0000

> <Gold.PLP.part.buried>
-5.8161

> <Gold.PLP.part.nonpolar>
-25.4830

> <Gold.PLP.part.repulsive>
1.1904

> <Gold.PLP.ligand.clash>
0.0000

> <Gold.PLP.ligand.torsion>
0.9149

> <Gold.PLP.Chemscore.Hbond>
3.0000

> <Gold.PLP.Chemscore.CHOScore>
0.7047

> <Gold.PLP.Chemscore.Metal>
0.0000

> <Gold.Chemscore.Hbonds>
donor molecule, donor type, donor heavy atom, donor atom, acceptor molecule, acceptor atom, score
      L1  H     3    19       P1  7948  1.00
      L1  H    12    32       P1  7948  1.00
      P1  H  7989  7998       L1     9  0.95
      L1  C    16    35       P1 10952  0.71

> <Gold.PLP.Chemscore.Internal.Correction>
0.0118

> <Gold.Rescore>
     Score         DG    S(hbond)    S(metal)    S(lipo)     H(rot)  DE(clash)    DE(int)     intcor
     16.82     -19.24       2.48        0.00      79.35       1.49       0.16       2.25       ----

> <Gold.Chemscore.Fitness>
16.8210

> <Gold.Chemscore.DG>
-19.2366

> <Gold.Chemscore.ZeroCoef>
-5.4800

> <Gold.Chemscore.Hbond>
2.4849

> <Gold.Chemscore.Metal>
0.0000

> <Gold.Chemscore.Lipo>
79.3500

> <Gold.Chemscore.Internal_Hbond>
0.0000

> <Gold.Chemscore.DEClash>
0.1644

> <Gold.Chemscore.DEInternal>
2.2511

> <Gold.Chemscore.Rot>
1.4949

> <Gold.Chemscore.Internal.Correction>
   9.000000E+99

> <Gold.Chemscore.Hbonds>
donor molecule, donor type, donor heavy atom, donor atom, acceptor molecule, acceptor atom, score
      L1  H     3    19       P1  7948  1.00
      L1  H    12    32       P1  7948  0.89
      P1  H  7989  7998       L1     9  0.17

> <Gold.Chemscore.Hbond.Weighted>
-8.2995

> <Gold.Chemscore.Metal.Weighted>
-0.0000

> <Gold.Chemscore.Lipo.Weighted>
-9.2840

> <Gold.Chemscore.Internal_Hbond.Weighted>
0.0000

> <Gold.Chemscore.DEClash.Weighted>
0.1644

> <Gold.Chemscore.DEInternal.Weighted>
2.2511

> <Gold.Chemscore.Rot.Weighted>
3.8269

> <Gold.Chemscore.Internal.Correction.Weighted>
   9.000000E+99

> <Gold.Protein.RotatedTorsions>
[ 6907 6896 6895 6894 ] final -168.39 input  -60.11 | X-H torsion
[ 7974 7965 7964 7962 ] final  -78.61 input  175.53 | X-H torsion
[ 8008 7997 7996 7995 ] final -143.07 input   59.86 | X-H torsion
[ 10167 10162 10161 10158 ] final  -87.50 input  -65.29 | X-H torsion
[ 10718 10713 10712 10709 ] final -132.14 input   66.30 | X-H torsion
[ 10763 10752 10751 10750 ] final  -44.96 input  -60.55 | X-H torsion
[ 11005 11000 10999 10996 ] final   19.60 input  -57.11 | X-H torsion

> <Gold.Protein.ActiveResidues>
 VAL166  LYS551  ARG553  GLY616  TRP617  ASP618  TYR619  PRO620  LYS621  CYS622 
 ASP623  PHE694  ASN695  SER759  ASP760  ASP761  ALA762  ILE779  LEU786  VAL792 
 PHE793  MET794  SER795  GLU796  ALA797  LYS798  CYS799  TRP800  GLU811  SER814 

> <Gold.Protein.RotatedAtoms>
  151.4748  133.3560  159.2828 H   0  0  0  0  0  0  0  0  0  0  0  0  # atno 6907 bound_to 6896
  150.8937  134.8345  159.7322 H   0  0  0  0  0  0  0  0  0  0  0  0  # atno 6908 bound_to 6896
  152.4838  134.4661  159.9672 H   0  0  0  0  0  0  0  0  0  0  0  0  # atno 6909 bound_to 6896
  145.5842  140.9442  143.1327 H   0  0  0  0  0  0  0  0  0  0  0  0  # atno 7974 bound_to 7965
  155.5045  140.0578  157.2933 H   0  0  0  0  0  0  0  0  0  0  0  0  # atno 8008 bound_to 7997
  154.4574  140.1980  156.0288 H   0  0  0  0  0  0  0  0  0  0  0  0  # atno 8009 bound_to 7997
  156.0826  140.3245  155.7717 H   0  0  0  0  0  0  0  0  0  0  0  0  # atno 8010 bound_to 7997
  140.3838  143.2736  151.9350 H   0  0  0  0  0  0  0  0  0  0  0  0  # atno 10167 bound_to 10162
  156.2316  130.7041  151.0864 H   0  0  0  0  0  0  0  0  0  0  0  0  # atno 10718 bound_to 10713
  154.0207  135.6669  153.4772 H   0  0  0  0  0  0  0  0  0  0  0  0  # atno 10763 bound_to 10752
  153.0581  135.5044  154.8026 H   0  0  0  0  0  0  0  0  0  0  0  0  # atno 10764 bound_to 10752
  154.6939  135.3066  154.9404 H   0  0  0  0  0  0  0  0  0  0  0  0  # atno 10765 bound_to 10752
  140.4118  134.1610  155.7668 H   0  0  0  0  0  0  0  0  0  0  0  0  # atno 11005 bound_to 11000
  144.7380  139.7529  143.7322 LP  0  0  0  0  0  0  0  0  0  0  0  0  # atno 17320 bound_to 7965
  146.1694  139.4839  142.9937 LP  0  0  0  0  0  0  0  0  0  0  0  0  # atno 17321 bound_to 7965
  139.4793  144.5793  151.7960 LP  0  0  0  0  0  0  0  0  0  0  0  0  # atno 17342 bound_to 10162
  140.4910  144.1311  150.5950 LP  0  0  0  0  0  0  0  0  0  0  0  0  # atno 17343 bound_to 10162
  157.7135  131.0722  150.6413 LP  0  0  0  0  0  0  0  0  0  0  0  0  # atno 17370 bound_to 10713
  156.6481  130.4477  149.5729 LP  0  0  0  0  0  0  0  0  0  0  0  0  # atno 17371 bound_to 10713
  141.1818  133.8398  157.1231 LP  0  0  0  0  0  0  0  0  0  0  0  0  # atno 17394 bound_to 11000
  140.0262  134.9923  157.0690 LP  0  0  0  0  0  0  0  0  0  0  0  0  # atno 17395 bound_to 11000

$$$$
