AV-unprocessed.smi:1695|AV-procd|sdf|6797|dock4
  -GOLD-   22720 7563D 1   1.00000     0.00000
 Structure written by MMmdl.
 50 52  0  0  0  0  0  0  0  0  1 V2000
  152.8800  142.3004  161.3919 C   0  0  0  0  0  0  0  0  0  0  0  0
  152.1190  142.0483  160.1023 C   0  0  0  0  0  0  0  0  0  0  0  0
  152.1234  140.7500  159.5446 C   0  0  0  0  0  0  0  0  0  0  0  0
  151.4310  140.4745  158.3452 C   0  0  0  0  0  0  0  0  0  0  0  0
  151.3036  139.2952  157.6313 N   0  0  0  0  0  0  0  0  0  0  0  0
  150.5425  139.6809  156.6111 C   0  0  0  0  0  0  0  0  0  0  0  0
  150.1611  140.9724  156.5802 N   0  0  0  0  0  0  0  0  0  0  0  0
  149.3375  141.6207  155.5752 C   0  0  0  0  0  0  0  0  0  0  0  0
  149.0078  140.6917  154.3900 C   0  0  2  0  0  0  0  0  0  0  0  0
  148.7854  141.4892  153.2421 O   0  0  0  0  0  0  0  0  0  0  0  0
  147.7496  139.8403  154.6632 C   0  0  0  0  0  0  0  0  0  0  0  0
  147.4718  138.7937  153.6782 N   0  0  0  0  0  0  0  0  0  0  0  0
  146.7941  139.3111  152.4865 C   0  0  0  0  0  0  0  0  0  0  0  0
  146.5397  138.2226  151.4295 C   0  0  0  0  0  0  0  0  0  0  0  0
  145.7188  137.0620  152.0267 C   0  0  0  0  0  0  0  0  0  0  0  0
  145.5340  135.9260  151.0118 C   0  0  0  0  0  0  0  0  0  0  0  0
  145.0047  136.2476  149.8286 N   0  0  0  0  0  0  0  0  0  0  0  0
  145.8624  134.7737  151.2884 O   0  0  0  0  0  0  0  0  0  0  0  0
  146.4180  136.5595  153.3049 C   0  0  0  0  0  0  0  0  0  0  0  0
  146.6701  137.7250  154.2755 C   0  0  0  0  0  0  0  0  0  0  0  0
  150.7279  141.5421  157.7143 C   0  0  0  0  0  0  0  0  0  0  0  0
  150.7139  142.8376  158.2604 C   0  0  0  0  0  0  0  0  0  0  0  0
  151.4106  143.0955  159.4594 C   0  0  0  0  0  0  0  0  0  0  0  0
  151.3902  144.4982  160.0402 C   0  0  0  0  0  0  0  0  0  0  0  0
  153.4166  141.4093  161.7184 H   0  0  0  0  0  0  0  0  0  0  0  0
  152.1943  142.5894  162.1885 H   0  0  0  0  0  0  0  0  0  0  0  0
  153.6106  143.0981  161.2567 H   0  0  0  0  0  0  0  0  0  0  0  0
  152.6609  139.9518  160.0347 H   0  0  0  0  0  0  0  0  0  0  0  0
  150.2417  138.9843  155.8422 H   0  0  0  0  0  0  0  0  0  0  0  0
  148.4188  141.9557  156.0584 H   0  0  0  0  0  0  0  0  0  0  0  0
  149.8519  142.5178  155.2265 H   0  0  0  0  0  0  0  0  0  0  0  0
  149.8639  140.0405  154.2067 H   0  0  0  0  0  0  0  0  0  0  0  0
  148.7739  140.9243  152.4847 H   0  0  0  0  0  0  0  0  0  0  0  0
  147.8964  139.3497  155.6263 H   0  0  0  0  0  0  0  0  0  0  0  0
  146.8762  140.4805  154.7990 H   0  0  0  0  0  0  0  0  0  0  0  0
  145.8473  139.7739  152.7697 H   0  0  0  0  0  0  0  0  0  0  0  0
  147.3958  140.0931  152.0247 H   0  0  0  0  0  0  0  0  0  0  0  0
  146.0159  138.6553  150.5763 H   0  0  0  0  0  0  0  0  0  0  0  0
  147.4977  137.8590  151.0534 H   0  0  0  0  0  0  0  0  0  0  0  0
  144.7354  137.4468  152.3034 H   0  0  0  0  0  0  0  0  0  0  0  0
  144.8657  135.5353  149.1267 H   0  0  0  0  0  0  0  0  0  0  0  0
  144.7474  137.2056  149.6399 H   0  0  0  0  0  0  0  0  0  0  0  0
  145.8087  135.7992  153.7950 H   0  0  0  0  0  0  0  0  0  0  0  0
  147.3694  136.0848  153.0585 H   0  0  0  0  0  0  0  0  0  0  0  0
  147.1761  137.3373  155.1606 H   0  0  0  0  0  0  0  0  0  0  0  0
  145.7148  138.1262  154.6184 H   0  0  0  0  0  0  0  0  0  0  0  0
  150.1705  143.6251  157.7594 H   0  0  0  0  0  0  0  0  0  0  0  0
  150.7424  145.1582  159.4627 H   0  0  0  0  0  0  0  0  0  0  0  0
  152.3933  144.9251  160.0375 H   0  0  0  0  0  0  0  0  0  0  0  0
  151.0214  144.4844  161.0661 H   0  0  0  0  0  0  0  0  0  0  0  0
  1  2  1  0  0  0  0
  1 25  1  0  0  0  0
  1 26  1  0  0  0  0
  1 27  1  0  0  0  0
  2 23  1  0  0  0  0
  2  3  2  0  0  0  0
  3  4  1  0  0  0  0
  3 28  1  0  0  0  0
  4 21  2  0  0  0  0
  4  5  1  0  0  0  0
  5  6  2  0  0  0  0
  6  7  1  0  0  0  0
  6 29  1  0  0  0  0
  7  8  1  0  0  0  0
  7 21  1  0  0  0  0
  8  9  1  0  0  0  0
  8 30  1  0  0  0  0
  8 31  1  0  0  0  0
  9 10  1  0  0  0  0
  9 11  1  0  0  0  0
  9 32  1  0  0  0  0
 10 33  1  0  0  0  0
 11 12  1  0  0  0  0
 11 34  1  0  0  0  0
 11 35  1  0  0  0  0
 12 20  1  0  0  0  0
 12 13  1  0  0  0  0
 13 14  1  0  0  0  0
 13 36  1  0  0  0  0
 13 37  1  0  0  0  0
 14 15  1  0  0  0  0
 14 38  1  0  0  0  0
 14 39  1  0  0  0  0
 15 16  1  0  0  0  0
 15 19  1  0  0  0  0
 15 40  1  0  0  0  0
 16 17  1  0  0  0  0
 16 18  2  0  0  0  0
 17 41  1  0  0  0  0
 17 42  1  0  0  0  0
 19 20  1  0  0  0  0
 19 43  1  0  0  0  0
 19 44  1  0  0  0  0
 20 45  1  0  0  0  0
 20 46  1  0  0  0  0
 21 22  1  0  0  0  0
 22 23  2  0  0  0  0
 22 47  1  0  0  0  0
 23 24  1  0  0  0  0
 24 48  1  0  0  0  0
 24 49  1  0  0  0  0
 24 50  1  0  0  0  0
M  END
> <s_m_source_file>
AV-unprocessed.smi

> <i_m_source_file_index>
1695

> <i_lp_mmshare_version>
43012

> <i_f3d_flags>
0

> <s_epik_input>
W0NIM11jKFtjSF0xKWMoW0NIM10pW2NIXWMoYzEyKW4oW2NIXW4yKVtDSDJdW0NASF0oW09IXSlbQ0gyXU4zW0NIMl1bQ0gyXVtDSF0oQyg9TylbTkgyXSlbQ0gyXVtDSDJdMw==

> <s_epik_cmdline>
J2VwaWtfcHl0aG9uJywgJy1waCcsICc3LjAnLCAnLXRuJywgJzgnLCAnLW1hJywgJzIwMCcsICctbWV0YWxfYmluZGluZycsICctaW1hZScsICc8aW5maWxlLm1hZT4nLCAnLW9tYWUnLCAnPG91dGZpbGUubWFlPic=

> <r_epik_Ionization_Penalty>
1.9508

> <r_epik_Ionization_Penalty_Charging>
0

> <r_epik_Ionization_Penalty_Neutral>
1.9508

> <r_epik_State_Penalty>
2.03746

> <r_epik_Charging_Adjusted_Penalty>
2.03746

> <i_epik_Tot_Q>
0

> <i_epik_Tot_abs_Q>
0

> <r_epik_Metal_State_Penalty>
2.03012

> <b_epik_Metal_Only>
0

> <s_lp_Force_Field>
OPLS_2005

> <r_lp_Energy>
30.2081

> <b_lp_Chiralities_Consistent>
1

> <s_lp_Variant>
AV-unprocessed.smi:1695-9

> <Gold.Version>
5.8.1

> <Gold.Id.Protein>
6NUR|6NUR_protein|mol2

> <Gold.PLP.Fitness>
55.0254

> <Gold.PLP.PLP>
-47.6729

> <Gold.PLP.part.hbond>
-3.3209

> <Gold.PLP.part.metal>
0.0000

> <Gold.PLP.part.buried>
-3.4517

> <Gold.PLP.part.nonpolar>
-41.5859

> <Gold.PLP.part.repulsive>
0.3824

> <Gold.PLP.ligand.clash>
0.0000

> <Gold.PLP.ligand.torsion>
0.6613

> <Gold.PLP.Chemscore.Hbond>
2.8754

> <Gold.PLP.Chemscore.CHOScore>
0.0000

> <Gold.PLP.Chemscore.Metal>
0.0000

> <Gold.Chemscore.Hbonds>
donor molecule, donor type, donor heavy atom, donor atom, acceptor molecule, acceptor atom, score
      L1  H    10    33       P1  7957  1.00
      L1  H    17    41       P1  7921  0.53
      L1  H    17    42       P1 10171  1.00
      P1  H  8011  8017       L1    10  0.17

> <Gold.PLP.Chemscore.Internal.Correction>
0.0488

> <Gold.Rescore>
     Score         DG    S(hbond)    S(metal)    S(lipo)     H(rot)  DE(clash)    DE(int)     intcor
     18.55     -19.24       2.12        0.00     117.91       2.78       0.01       0.68       ----

> <Gold.Chemscore.Fitness>
18.5504

> <Gold.Chemscore.DG>
-19.2431

> <Gold.Chemscore.ZeroCoef>
-5.4800

> <Gold.Chemscore.Hbond>
2.1249

> <Gold.Chemscore.Metal>
0.0000

> <Gold.Chemscore.Lipo>
117.9097

> <Gold.Chemscore.Internal_Hbond>
0.0000

> <Gold.Chemscore.DEClash>
0.0131

> <Gold.Chemscore.DEInternal>
0.6796

> <Gold.Chemscore.Rot>
2.7849

> <Gold.Chemscore.Internal.Correction>
   9.000000E+99

> <Gold.Chemscore.Hbonds>
donor molecule, donor type, donor heavy atom, donor atom, acceptor molecule, acceptor atom, score
      L1  H    10    33       P1  7957  0.96
      L1  H    17    41       P1  7921  0.53
      L1  H    17    42       P1 10171  0.98

> <Gold.Chemscore.Hbond.Weighted>
-7.0971

> <Gold.Chemscore.Metal.Weighted>
-0.0000

> <Gold.Chemscore.Lipo.Weighted>
-13.7954

> <Gold.Chemscore.Internal_Hbond.Weighted>
0.0000

> <Gold.Chemscore.DEClash.Weighted>
0.0131

> <Gold.Chemscore.DEInternal.Weighted>
0.6796

> <Gold.Chemscore.Rot.Weighted>
7.1294

> <Gold.Chemscore.Internal.Correction.Weighted>
   9.000000E+99

> <Gold.Protein.RotatedTorsions>
[ 6907 6896 6895 6894 ] final  112.94 input  -60.11 | X-H torsion
[ 7974 7965 7964 7962 ] final   77.49 input  175.53 | X-H torsion
[ 8008 7997 7996 7995 ] final    2.59 input   59.86 | X-H torsion
[ 10167 10162 10161 10158 ] final   -5.24 input  -65.29 | X-H torsion
[ 10718 10713 10712 10709 ] final  -80.35 input   66.30 | X-H torsion
[ 10763 10752 10751 10750 ] final   67.15 input  -60.55 | X-H torsion
[ 11005 11000 10999 10996 ] final   -6.92 input  -57.11 | X-H torsion

> <Gold.Protein.ActiveResidues>
 VAL166  LYS551  ARG553  GLY616  TRP617  ASP618  TYR619  PRO620  LYS621  CYS622 
 ASP623  PHE694  ASN695  SER759  ASP760  ASP761  ALA762  ILE779  LEU786  VAL792 
 PHE793  MET794  SER795  GLU796  ALA797  LYS798  CYS799  TRP800  GLU811  SER814 

> <Gold.Protein.RotatedAtoms>
  152.4889  133.8446  159.7169 H   0  0  0  0  0  0  0  0  0  0  0  0  # atno 6907 bound_to 6896
  150.9000  133.7122  159.2888 H   0  0  0  0  0  0  0  0  0  0  0  0  # atno 6908 bound_to 6896
  151.4566  135.1038  159.9765 H   0  0  0  0  0  0  0  0  0  0  0  0  # atno 6909 bound_to 6896
  145.6893  139.2547  143.1769 H   0  0  0  0  0  0  0  0  0  0  0  0  # atno 7974 bound_to 7965
  154.6934  140.2658  155.6790 H   0  0  0  0  0  0  0  0  0  0  0  0  # atno 8008 bound_to 7997
  156.2740  140.2786  156.1443 H   0  0  0  0  0  0  0  0  0  0  0  0  # atno 8009 bound_to 7997
  155.0865  140.0373  157.2645 H   0  0  0  0  0  0  0  0  0  0  0  0  # atno 8010 bound_to 7997
  140.6956  143.6330  150.8505 H   0  0  0  0  0  0  0  0  0  0  0  0  # atno 10167 bound_to 10162
  156.0072  130.4572  150.3787 H   0  0  0  0  0  0  0  0  0  0  0  0  # atno 10718 bound_to 10713
  153.0173  135.5294  154.6935 H   0  0  0  0  0  0  0  0  0  0  0  0  # atno 10763 bound_to 10752
  154.6063  135.2873  155.0483 H   0  0  0  0  0  0  0  0  0  0  0  0  # atno 10764 bound_to 10752
  154.1521  135.6561  153.5018 H   0  0  0  0  0  0  0  0  0  0  0  0  # atno 10765 bound_to 10752
  140.7072  133.8939  155.8725 H   0  0  0  0  0  0  0  0  0  0  0  0  # atno 11005 bound_to 11000
  146.0895  140.7671  142.9602 LP  0  0  0  0  0  0  0  0  0  0  0  0  # atno 17320 bound_to 7965
  144.7001  140.3616  143.7163 LP  0  0  0  0  0  0  0  0  0  0  0  0  # atno 17321 bound_to 7965
  140.0048  143.5705  152.2862 LP  0  0  0  0  0  0  0  0  0  0  0  0  # atno 17342 bound_to 10162
  139.6408  144.7654  151.2343 LP  0  0  0  0  0  0  0  0  0  0  0  0  # atno 17343 bound_to 10162
  157.1868  131.0405  151.2721 LP  0  0  0  0  0  0  0  0  0  0  0  0  # atno 17370 bound_to 10713
  157.4097  130.7378  149.6829 LP  0  0  0  0  0  0  0  0  0  0  0  0  # atno 17371 bound_to 10713
  141.0115  134.1014  157.4217 LP  0  0  0  0  0  0  0  0  0  0  0  0  # atno 17394 bound_to 11000
  139.8881  135.0095  156.6600 LP  0  0  0  0  0  0  0  0  0  0  0  0  # atno 17395 bound_to 11000

$$$$
