AV-unprocessed.smi:486|AV-procd|sdf|2697|dock3
  -GOLD-   2262023133D 1   1.00000     0.00000
 Structure written by MMmdl.
 44 46  0  0  0  0  0  0  0  0  2 V2000
  148.7104  130.9229  154.5379 C   0  0  0  0  0  0  0  0  0  0  0  0
  149.5678  131.3150  155.6000 O   0  0  0  0  0  0  0  0  0  0  0  0
  150.0176  132.6178  155.6236 C   0  0  0  0  0  0  0  0  0  0  0  0
  150.9597  132.9538  156.6154 C   0  0  0  0  0  0  0  0  0  0  0  0
  151.4696  134.2624  156.7113 C   0  0  0  0  0  0  0  0  0  0  0  0
  151.0488  135.2677  155.8187 C   0  0  0  0  0  0  0  0  0  0  0  0
  151.5963  136.5220  155.9839 O   0  0  0  0  0  0  0  0  0  0  0  0
  151.2297  137.5434  155.0657 C   0  0  0  0  0  0  0  0  0  0  0  0
  151.8815  138.8632  155.5068 C   0  0  2  0  0  0  0  0  0  0  0  0
  153.2848  138.6903  155.5090 O   0  0  0  0  0  0  0  0  0  0  0  0
  151.4198  139.2875  156.9153 C   0  0  0  0  0  0  0  0  0  0  0  0
  151.2010  140.7384  157.0342 N   0  0  0  0  0  0  0  0  0  0  0  0
  150.4633  141.5771  156.2520 C   0  0  0  0  0  0  0  0  0  0  0  0
  149.6752  141.2032  155.0420 C   0  0  0  0  0  0  0  0  0  0  0  0
  150.5749  142.8277  156.7815 N   0  3  0  0  0  0  0  0  0  0  0  0
  151.3932  142.7905  157.9110 C   0  0  0  0  0  0  0  0  0  0  0  0
  151.7973  143.8033  158.7754 C   0  0  0  0  0  0  0  0  0  0  0  0
  152.6457  143.4277  159.8375 C   0  0  0  0  0  0  0  0  0  0  0  0
  153.0603  142.0909  160.0082 C   0  0  0  0  0  0  0  0  0  0  0  0
  152.6422  141.0724  159.1264 C   0  0  0  0  0  0  0  0  0  0  0  0
  151.8018  141.4512  158.0793 C   0  0  0  0  0  0  0  0  0  0  0  0
  150.1023  134.9344  154.8186 C   0  0  0  0  0  0  0  0  0  0  0  0
  149.5933  133.6245  154.7218 C   0  0  0  0  0  0  0  0  0  0  0  0
  148.4377  129.8754  154.6641 H   0  0  0  0  0  0  0  0  0  0  0  0
  149.2044  131.0208  153.5703 H   0  0  0  0  0  0  0  0  0  0  0  0
  147.7879  131.5049  154.5338 H   0  0  0  0  0  0  0  0  0  0  0  0
  151.2957  132.2001  157.3124 H   0  0  0  0  0  0  0  0  0  0  0  0
  152.1911  134.4968  157.4801 H   0  0  0  0  0  0  0  0  0  0  0  0
  151.6046  137.2688  154.0783 H   0  0  0  0  0  0  0  0  0  0  0  0
  150.1458  137.6522  154.9930 H   0  0  0  0  0  0  0  0  0  0  0  0
  151.6248  139.6514  154.7979 H   0  0  0  0  0  0  0  0  0  0  0  0
  153.5129  138.0974  154.8089 H   0  0  0  0  0  0  0  0  0  0  0  0
  150.4733  138.8020  157.1562 H   0  0  0  0  0  0  0  0  0  0  0  0
  152.1265  138.9629  157.6793 H   0  0  0  0  0  0  0  0  0  0  0  0
  149.2437  142.0892  154.5756 H   0  0  0  0  0  0  0  0  0  0  0  0
  148.8664  140.5256  155.3160 H   0  0  0  0  0  0  0  0  0  0  0  0
  150.3157  140.7059  154.3136 H   0  0  0  0  0  0  0  0  0  0  0  0
  151.4825  144.8283  158.6449 H   0  0  0  0  0  0  0  0  0  0  0  0
  152.9871  144.1802  160.5336 H   0  0  0  0  0  0  0  0  0  0  0  0
  153.7138  141.8410  160.8313 H   0  0  0  0  0  0  0  0  0  0  0  0
  152.9719  140.0533  159.2638 H   0  0  0  0  0  0  0  0  0  0  0  0
  149.7485  135.6670  154.1095 H   0  0  0  0  0  0  0  0  0  0  0  0
  148.8744  133.4176  153.9438 H   0  0  0  0  0  0  0  0  0  0  0  0
  150.1230  143.6467  156.3956 H   0  0  0  0  0  0  0  0  0  0  0  0
  1  2  1  0  0  0  0
  1 24  1  0  0  0  0
  1 25  1  0  0  0  0
  1 26  1  0  0  0  0
  2  3  1  0  0  0  0
  3 23  1  0  0  0  0
  3  4  2  0  0  0  0
  4  5  1  0  0  0  0
  4 27  1  0  0  0  0
  5  6  2  0  0  0  0
  5 28  1  0  0  0  0
  6  7  1  0  0  0  0
  6 22  1  0  0  0  0
  7  8  1  0  0  0  0
  8  9  1  0  0  0  0
  8 29  1  0  0  0  0
  8 30  1  0  0  0  0
  9 10  1  0  0  0  0
  9 11  1  0  0  0  0
  9 31  1  0  0  0  0
 10 32  1  0  0  0  0
 11 12  1  0  0  0  0
 11 33  1  0  0  0  0
 11 34  1  0  0  0  0
 12 21  1  0  0  0  0
 12 13  1  0  0  0  0
 13 14  1  0  0  0  0
 13 15  2  0  0  0  0
 14 35  1  0  0  0  0
 14 36  1  0  0  0  0
 14 37  1  0  0  0  0
 15 16  1  0  0  0  0
 15 44  1  0  0  0  0
 16 21  2  0  0  0  0
 16 17  1  0  0  0  0
 17 18  2  0  0  0  0
 17 38  1  0  0  0  0
 18 19  1  0  0  0  0
 18 39  1  0  0  0  0
 19 20  2  0  0  0  0
 19 40  1  0  0  0  0
 20 21  1  0  0  0  0
 20 41  1  0  0  0  0
 22 23  2  0  0  0  0
 22 42  1  0  0  0  0
 23 43  1  0  0  0  0
M  CHG  1  15   1
M  END
> <s_m_source_file>
AV-unprocessed.smi

> <i_m_source_file_index>
486

> <i_lp_mmshare_version>
43012

> <i_f3d_flags>
0

> <s_epik_input>
W0NIM11PYzFbY0hdW2NIXWMoW2NIXVtjSF0xKU9bQ0gyXVtDQEhdKFtPSF0pW0NIMl1uKGMobjIpW0NIM10pYyhjMjMpW2NIXVtjSF1bY0hdW2NIXTM=

> <s_epik_cmdline>
J2VwaWtfcHl0aG9uJywgJy1waCcsICc3LjAnLCAnLXRuJywgJzgnLCAnLW1hJywgJzIwMCcsICctbWV0YWxfYmluZGluZycsICctaW1hZScsICc8aW5maWxlLm1hZT4nLCAnLW9tYWUnLCAnPG91dGZpbGUubWFlPic=

> <r_lp_tautomer_probability>
1

> <r_epik_Ionization_Penalty>
1.03234

> <r_epik_Ionization_Penalty_Charging>
1.03234

> <r_epik_Ionization_Penalty_Neutral>
2.3993e-06

> <r_epik_State_Penalty>
1.0836

> <r_epik_Charging_Adjusted_Penalty>
2.11594

> <i_epik_Tot_Q>
1

> <i_epik_Tot_abs_Q>
1

> <r_epik_Metal_State_Penalty>
5.07275

> <b_epik_Metal_Only>
0

> <s_lp_Force_Field>
OPLS_2005

> <r_lp_Energy>
23.3843

> <b_lp_Chiralities_Consistent>
1

> <s_lp_Variant>
AV-unprocessed.smi:486-3

> <Gold.Version>
5.8.1

> <Gold.Id.Protein>
6NUR|6NUR_protein|mol2

> <Gold.PLP.Fitness>
55.9578

> <Gold.PLP.PLP>
-48.1325

> <Gold.PLP.part.hbond>
-3.0000

> <Gold.PLP.part.metal>
0.0000

> <Gold.PLP.part.buried>
-4.2133

> <Gold.PLP.part.nonpolar>
-41.3760

> <Gold.PLP.part.repulsive>
0.0842

> <Gold.PLP.ligand.clash>
0.0000

> <Gold.PLP.ligand.torsion>
0.6612

> <Gold.PLP.Chemscore.Hbond>
3.0000

> <Gold.PLP.Chemscore.CHOScore>
0.0000

> <Gold.PLP.Chemscore.Metal>
0.0000

> <Gold.Chemscore.Hbonds>
donor molecule, donor type, donor heavy atom, donor atom, acceptor molecule, acceptor atom, score
      L1  H    15    44       P1  8028  2.00
      P1  H  7997  8010       L1    10  1.00

> <Gold.PLP.Chemscore.Internal.Correction>
0.1479

> <Gold.Rescore>
     Score         DG    S(hbond)    S(metal)    S(lipo)     H(rot)  DE(clash)    DE(int)     intcor
     19.84     -20.62       1.96        0.00     125.92       2.40       0.19       0.58       ----

> <Gold.Chemscore.Fitness>
19.8424

> <Gold.Chemscore.DG>
-20.6165

> <Gold.Chemscore.ZeroCoef>
-5.4800

> <Gold.Chemscore.Hbond>
1.9568

> <Gold.Chemscore.Metal>
0.0000

> <Gold.Chemscore.Lipo>
125.9191

> <Gold.Chemscore.Internal_Hbond>
0.0000

> <Gold.Chemscore.DEClash>
0.1937

> <Gold.Chemscore.DEInternal>
0.5804

> <Gold.Chemscore.Rot>
2.3952

> <Gold.Chemscore.Internal.Correction>
   9.000000E+99

> <Gold.Chemscore.Hbonds>
donor molecule, donor type, donor heavy atom, donor atom, acceptor molecule, acceptor atom, score
      L1  H    15    44       P1  8028  1.00
      P1  H  7997  8010       L1    10  0.91

> <Gold.Chemscore.Hbond.Weighted>
-6.5356

> <Gold.Chemscore.Metal.Weighted>
-0.0000

> <Gold.Chemscore.Lipo.Weighted>
-14.7325

> <Gold.Chemscore.Internal_Hbond.Weighted>
0.0000

> <Gold.Chemscore.DEClash.Weighted>
0.1937

> <Gold.Chemscore.DEInternal.Weighted>
0.5804

> <Gold.Chemscore.Rot.Weighted>
6.1316

> <Gold.Chemscore.Internal.Correction.Weighted>
   9.000000E+99

> <Gold.Protein.RotatedTorsions>
[ 6907 6896 6895 6894 ] final -126.12 input  -60.11 | X-H torsion
[ 7974 7965 7964 7962 ] final    1.66 input  175.53 | X-H torsion
[ 8008 7997 7996 7995 ] final   93.40 input   59.86 | X-H torsion
[ 10167 10162 10161 10158 ] final -118.27 input  -65.29 | X-H torsion
[ 10718 10713 10712 10709 ] final   28.32 input   66.30 | X-H torsion
[ 10763 10752 10751 10750 ] final -166.59 input  -60.55 | X-H torsion
[ 11005 11000 10999 10996 ] final  140.76 input  -57.11 | X-H torsion

> <Gold.Protein.ActiveResidues>
 VAL166  LYS551  ARG553  GLY616  TRP617  ASP618  TYR619  PRO620  LYS621  CYS622 
 ASP623  PHE694  ASN695  SER759  ASP760  ASP761  ALA762  ILE779  LEU786  VAL792 
 PHE793  MET794  SER795  GLU796  ALA797  LYS798  CYS799  TRP800  GLU811  SER814 

> <Gold.Protein.RotatedAtoms>
  150.8937  133.7210  159.2897 H   0  0  0  0  0  0  0  0  0  0  0  0  # atno 6907 bound_to 6896
  151.4751  135.1047  159.9772 H   0  0  0  0  0  0  0  0  0  0  0  0  # atno 6908 bound_to 6896
  152.4835  133.8267  159.7137 H   0  0  0  0  0  0  0  0  0  0  0  0  # atno 6909 bound_to 6896
  146.2441  140.0954  142.8350 H   0  0  0  0  0  0  0  0  0  0  0  0  # atno 7974 bound_to 7965
  156.0463  140.3313  155.7301 H   0  0  0  0  0  0  0  0  0  0  0  0  # atno 8008 bound_to 7997
  155.5668  140.0624  157.2833 H   0  0  0  0  0  0  0  0  0  0  0  0  # atno 8009 bound_to 7997
  154.4415  140.1868  156.0827 H   0  0  0  0  0  0  0  0  0  0  0  0  # atno 8010 bound_to 7997
  140.0593  143.4984  152.2040 H   0  0  0  0  0  0  0  0  0  0  0  0  # atno 10167 bound_to 10162
  157.2318  130.7027  149.6317 H   0  0  0  0  0  0  0  0  0  0  0  0  # atno 10718 bound_to 10713
  154.6818  135.2956  154.9602 H   0  0  0  0  0  0  0  0  0  0  0  0  # atno 10763 bound_to 10752
  154.0595  135.6633  153.4814 H   0  0  0  0  0  0  0  0  0  0  0  0  # atno 10764 bound_to 10752
  153.0552  135.5149  154.7865 H   0  0  0  0  0  0  0  0  0  0  0  0  # atno 10765 bound_to 10752
  140.0351  134.9333  157.0736 H   0  0  0  0  0  0  0  0  0  0  0  0  # atno 11005 bound_to 11000
  145.0614  140.9090  143.4936 LP  0  0  0  0  0  0  0  0  0  0  0  0  # atno 17320 bound_to 7965
  145.1070  139.2783  143.5657 LP  0  0  0  0  0  0  0  0  0  0  0  0  # atno 17321 bound_to 7965
  139.5904  144.7548  151.3415 LP  0  0  0  0  0  0  0  0  0  0  0  0  # atno 17342 bound_to 10162
  140.7179  143.7215  150.7692 LP  0  0  0  0  0  0  0  0  0  0  0  0  # atno 17343 bound_to 10162
  155.9675  130.4486  150.5627 LP  0  0  0  0  0  0  0  0  0  0  0  0  # atno 17370 bound_to 10713
  157.3470  131.0727  151.1743 LP  0  0  0  0  0  0  0  0  0  0  0  0  # atno 17371 bound_to 10713
  140.4161  134.1929  155.7163 LP  0  0  0  0  0  0  0  0  0  0  0  0  # atno 17394 bound_to 11000
  141.1852  133.8327  157.1111 LP  0  0  0  0  0  0  0  0  0  0  0  0  # atno 17395 bound_to 11000

$$$$
