AV-unprocessed.smi:2069|AV-procd|sdf|8431|dock10
  -GOLD-   2272011123D 1   1.00000     0.00000
 Structure written by MMmdl.
 38 39  0  0  0  0  0  0  0  0  1 V2000
  143.6954  132.3852  150.6235 C   0  0  0  0  0  0  0  0  0  0  0  0
  144.1398  133.7080  151.1468 C   0  0  0  0  0  0  0  0  0  0  0  0
  144.3134  133.9521  152.4515 N   0  0  0  0  0  0  0  0  0  0  0  0
  144.7266  135.2549  152.6924 N   0  0  0  0  0  0  0  0  0  0  0  0
  144.8534  135.9569  151.5580 C   0  0  0  0  0  0  0  0  0  0  0  0
  145.2592  137.3168  151.5116 N   0  0  0  0  0  0  0  0  0  0  0  0
  146.0998  137.9647  152.3370 C   0  0  0  0  0  0  0  0  0  0  0  0
  146.6761  137.4628  153.3022 O   0  0  0  0  0  0  0  0  0  0  0  0
  146.2418  139.2472  151.9711 N   0  0  0  0  0  0  0  0  0  0  0  0
  147.0771  140.2376  152.6473 C   0  0  0  0  0  0  0  0  0  0  0  0
  147.0390  140.1117  154.1970 C   0  0  2  0  0  0  0  0  0  0  0  0
  146.2437  141.3056  154.7849 C   0  0  0  0  0  0  0  0  0  0  0  0
  148.3851  139.9674  154.8003 N   0  0  0  0  0  0  0  0  0  0  0  0
  149.0731  141.2531  154.9667 C   0  0  0  0  0  0  0  0  0  0  0  0
  150.4831  141.1055  155.5644 C   0  0  0  0  0  0  0  0  0  0  0  0
  151.2599  140.2375  154.7515 O   0  0  0  0  0  0  0  0  0  0  0  0
  150.6693  138.9511  154.6323 C   0  0  0  0  0  0  0  0  0  0  0  0
  149.2619  139.0815  154.0250 C   0  0  0  0  0  0  0  0  0  0  0  0
  144.4754  135.0732  150.0893 S   0  0  0  0  0  0  0  0  0  0  0  0
  143.4812  131.6987  151.4432 H   0  0  0  0  0  0  0  0  0  0  0  0
  144.4757  131.9505  149.9987 H   0  0  0  0  0  0  0  0  0  0  0  0
  142.7923  132.5063  150.0251 H   0  0  0  0  0  0  0  0  0  0  0  0
  144.8636  137.8602  150.7587 H   0  0  0  0  0  0  0  0  0  0  0  0
  145.7303  139.5673  151.1620 H   0  0  0  0  0  0  0  0  0  0  0  0
  148.0780  140.0554  152.2618 H   0  0  0  0  0  0  0  0  0  0  0  0
  146.8151  141.2545  152.3492 H   0  0  0  0  0  0  0  0  0  0  0  0
  146.4704  139.2094  154.4281 H   0  0  0  0  0  0  0  0  0  0  0  0
  145.2651  141.4218  154.3212 H   0  0  0  0  0  0  0  0  0  0  0  0
  146.7838  142.2432  154.6498 H   0  0  0  0  0  0  0  0  0  0  0  0
  146.0357  141.1847  155.8469 H   0  0  0  0  0  0  0  0  0  0  0  0
  149.1392  141.7644  154.0051 H   0  0  0  0  0  0  0  0  0  0  0  0
  148.5160  141.9055  155.6359 H   0  0  0  0  0  0  0  0  0  0  0  0
  150.9739  142.0773  155.6177 H   0  0  0  0  0  0  0  0  0  0  0  0
  150.4328  140.7163  156.5825 H   0  0  0  0  0  0  0  0  0  0  0  0
  151.2996  138.3280  153.9976 H   0  0  0  0  0  0  0  0  0  0  0  0
  150.6254  138.4696  155.6106 H   0  0  0  0  0  0  0  0  0  0  0  0
  148.8457  138.0771  153.9745 H   0  0  0  0  0  0  0  0  0  0  0  0
  149.3421  139.4449  152.9993 H   0  0  0  0  0  0  0  0  0  0  0  0
  1  2  1  0  0  0  0
  1 20  1  0  0  0  0
  1 21  1  0  0  0  0
  1 22  1  0  0  0  0
  2 19  1  0  0  0  0
  2  3  2  0  0  0  0
  3  4  1  0  0  0  0
  4  5  2  0  0  0  0
  5  6  1  0  0  0  0
  5 19  1  0  0  0  0
  6  7  1  0  0  0  0
  6 23  1  0  0  0  0
  7  8  2  0  0  0  0
  7  9  1  0  0  0  0
  9 10  1  0  0  0  0
  9 24  1  0  0  0  0
 10 11  1  0  0  0  0
 10 25  1  0  0  0  0
 10 26  1  0  0  0  0
 11 12  1  0  0  0  0
 11 13  1  0  0  0  0
 11 27  1  0  0  0  0
 12 28  1  0  0  0  0
 12 29  1  0  0  0  0
 12 30  1  0  0  0  0
 13 18  1  0  0  0  0
 13 14  1  0  0  0  0
 14 15  1  0  0  0  0
 14 31  1  0  0  0  0
 14 32  1  0  0  0  0
 15 16  1  0  0  0  0
 15 33  1  0  0  0  0
 15 34  1  0  0  0  0
 16 17  1  0  0  0  0
 17 18  1  0  0  0  0
 17 35  1  0  0  0  0
 17 36  1  0  0  0  0
 18 37  1  0  0  0  0
 18 38  1  0  0  0  0
M  END
> <s_m_source_file>
AV-unprocessed.smi

> <i_m_source_file_index>
2069

> <i_lp_mmshare_version>
43012

> <i_f3d_flags>
0

> <s_epik_input>
W0NIM11jMW5uYyhzMSlbTkhdQyg9TylbTkhdW0NIMl1bQ0BIXShbQ0gzXSlOMltDSDJdW0NIMl1PW0NIMl1bQ0gyXTI=

> <s_epik_cmdline>
J2VwaWtfcHl0aG9uJywgJy1waCcsICc3LjAnLCAnLXRuJywgJzgnLCAnLW1hJywgJzIwMCcsICctbWV0YWxfYmluZGluZycsICctaW1hZScsICc8aW5maWxlLm1hZT4nLCAnLW9tYWUnLCAnPG91dGZpbGUubWFlPic=

> <r_lp_tautomer_probability>
1

> <r_epik_Ionization_Penalty>
0.221104

> <r_epik_Ionization_Penalty_Charging>
0

> <r_epik_Ionization_Penalty_Neutral>
0.221104

> <r_epik_State_Penalty>
0.209349

> <r_epik_Charging_Adjusted_Penalty>
0.209349

> <i_epik_Tot_Q>
0

> <i_epik_Tot_abs_Q>
0

> <r_epik_Metal_State_Penalty>
0.561068

> <b_epik_Metal_Only>
0

> <s_lp_Force_Field>
OPLS_2005

> <r_lp_Energy>
28.2762

> <b_lp_Chiralities_Consistent>
1

> <s_lp_Variant>
AV-unprocessed.smi:2069-1

> <Gold.Version>
5.8.1

> <Gold.Id.Protein>
6NUR|6NUR_protein|mol2

> <Gold.PLP.Fitness>
36.3966

> <Gold.PLP.PLP>
-33.1517

> <Gold.PLP.part.hbond>
-3.1819

> <Gold.PLP.part.metal>
0.0000

> <Gold.PLP.part.buried>
-2.0260

> <Gold.PLP.part.nonpolar>
-28.0711

> <Gold.PLP.part.repulsive>
0.9890

> <Gold.PLP.ligand.clash>
0.0000

> <Gold.PLP.ligand.torsion>
1.3896

> <Gold.PLP.Chemscore.Hbond>
2.0000

> <Gold.PLP.Chemscore.CHOScore>
0.0000

> <Gold.PLP.Chemscore.Metal>
0.0000

> <Gold.Chemscore.Hbonds>
donor molecule, donor type, donor heavy atom, donor atom, acceptor molecule, acceptor atom, score
      L1  H     6    23       P1 10171  1.00
      P1  H  7989  7998       L1    16  0.80

> <Gold.PLP.Chemscore.Internal.Correction>
0.0242

> <Gold.Rescore>
     Score         DG    S(hbond)    S(metal)    S(lipo)     H(rot)  DE(clash)    DE(int)     intcor
     13.90     -17.70       2.62        0.00      64.70       1.60       0.16       3.64       ----

> <Gold.Chemscore.Fitness>
13.8985

> <Gold.Chemscore.DG>
-17.6992

> <Gold.Chemscore.ZeroCoef>
-5.4800

> <Gold.Chemscore.Hbond>
2.6195

> <Gold.Chemscore.Metal>
0.0000

> <Gold.Chemscore.Lipo>
64.7017

> <Gold.Chemscore.Internal_Hbond>
0.0000

> <Gold.Chemscore.DEClash>
0.1577

> <Gold.Chemscore.DEInternal>
3.6431

> <Gold.Chemscore.Rot>
1.6016

> <Gold.Chemscore.Internal.Correction>
   9.000000E+99

> <Gold.Chemscore.Hbonds>
donor molecule, donor type, donor heavy atom, donor atom, acceptor molecule, acceptor atom, score
      L1  H     6    23       P1 10171  0.95
      L1  H     9    24       P1 10171  0.02
      P1  H  7989  7998       L1    16  0.60

> <Gold.Chemscore.Hbond.Weighted>
-8.7492

> <Gold.Chemscore.Metal.Weighted>
-0.0000

> <Gold.Chemscore.Lipo.Weighted>
-7.5701

> <Gold.Chemscore.Internal_Hbond.Weighted>
0.0000

> <Gold.Chemscore.DEClash.Weighted>
0.1577

> <Gold.Chemscore.DEInternal.Weighted>
3.6431

> <Gold.Chemscore.Rot.Weighted>
4.1001

> <Gold.Chemscore.Internal.Correction.Weighted>
   9.000000E+99

> <Gold.Protein.RotatedTorsions>
[ 6907 6896 6895 6894 ] final  -16.13 input  -60.11 | X-H torsion
[ 7974 7965 7964 7962 ] final   72.78 input  175.53 | X-H torsion
[ 8008 7997 7996 7995 ] final   94.16 input   59.86 | X-H torsion
[ 10167 10162 10161 10158 ] final  -98.89 input  -65.29 | X-H torsion
[ 10718 10713 10712 10709 ] final   -9.74 input   66.30 | X-H torsion
[ 10763 10752 10751 10750 ] final  133.72 input  -60.55 | X-H torsion
[ 11005 11000 10999 10996 ] final  147.90 input  -57.11 | X-H torsion

> <Gold.Protein.ActiveResidues>
 VAL166  LYS551  ARG553  GLY616  TRP617  ASP618  TYR619  PRO620  LYS621  CYS622 
 ASP623  PHE694  ASN695  SER759  ASP760  ASP761  ALA762  ILE779  LEU786  VAL792 
 PHE793  MET794  SER795  GLU796  ALA797  LYS798  CYS799  TRP800  GLU811  SER814 

> <Gold.Protein.RotatedAtoms>
  151.3134  135.0800  159.9279 H   0  0  0  0  0  0  0  0  0  0  0  0  # atno 6907 bound_to 6896
  152.5273  133.9713  159.7773 H   0  0  0  0  0  0  0  0  0  0  0  0  # atno 6908 bound_to 6896
  151.0020  133.5995  159.2724 H   0  0  0  0  0  0  0  0  0  0  0  0  # atno 6909 bound_to 6896
  145.7491  139.2752  143.1442 H   0  0  0  0  0  0  0  0  0  0  0  0  # atno 7974 bound_to 7965
  156.0549  140.3303  155.7393 H   0  0  0  0  0  0  0  0  0  0  0  0  # atno 8008 bound_to 7997
  155.5545  140.0613  157.2860 H   0  0  0  0  0  0  0  0  0  0  0  0  # atno 8009 bound_to 7997
  154.4453  140.1888  156.0708 H   0  0  0  0  0  0  0  0  0  0  0  0  # atno 8010 bound_to 7997
  140.2682  143.3361  152.0560 H   0  0  0  0  0  0  0  0  0  0  0  0  # atno 10167 bound_to 10162
  156.6837  130.5044  149.5964 H   0  0  0  0  0  0  0  0  0  0  0  0  # atno 10718 bound_to 10713
  153.8118  135.3128  155.3401 H   0  0  0  0  0  0  0  0  0  0  0  0  # atno 10763 bound_to 10752
  154.8048  135.4704  154.0368 H   0  0  0  0  0  0  0  0  0  0  0  0  # atno 10764 bound_to 10752
  153.1749  135.6884  153.8646 H   0  0  0  0  0  0  0  0  0  0  0  0  # atno 10765 bound_to 10752
  140.0914  134.9038  157.1656 H   0  0  0  0  0  0  0  0  0  0  0  0  # atno 11005 bound_to 11000
  146.0374  140.8198  142.9845 LP  0  0  0  0  0  0  0  0  0  0  0  0  # atno 17320 bound_to 7965
  144.6854  140.2860  143.7285 LP  0  0  0  0  0  0  0  0  0  0  0  0  # atno 17321 bound_to 7965
  139.4996  144.6674  151.6324 LP  0  0  0  0  0  0  0  0  0  0  0  0  # atno 17342 bound_to 10162
  140.5911  143.9778  150.6325 LP  0  0  0  0  0  0  0  0  0  0  0  0  # atno 17343 bound_to 10162
  156.1849  130.6522  151.0994 LP  0  0  0  0  0  0  0  0  0  0  0  0  # atno 17370 bound_to 10713
  157.7034  131.0766  150.6745 LP  0  0  0  0  0  0  0  0  0  0  0  0  # atno 17371 bound_to 10713
  140.3347  134.2771  155.7222 LP  0  0  0  0  0  0  0  0  0  0  0  0  # atno 17394 bound_to 11000
  141.2079  133.7793  157.0092 LP  0  0  0  0  0  0  0  0  0  0  0  0  # atno 17395 bound_to 11000

$$$$
