AV-unprocessed.smi:2401|AV-procd|sdf|9504|dock2
  -GOLD-   2272013133D 1   1.00000     0.00000
 Structure written by MMmdl.
 34 35  0  0  0  0  0  0  0  0  1 V2000
  149.9440  138.8437  153.7508 C   0  0  0  0  0  0  0  0  0  0  0  0
  149.9610  139.6924  155.0099 C   0  0  0  0  0  0  0  0  0  0  0  0
  151.1074  140.4695  155.1990 N   0  0  0  0  0  0  0  0  0  0  0  0
  151.2120  141.2206  156.2462 C   0  0  0  0  0  0  0  0  0  0  0  0
  150.1958  141.2831  157.2136 N   0  0  0  0  0  0  0  0  0  0  0  0
  150.4440  142.1671  158.3651 C   0  0  0  0  0  0  0  0  0  0  0  0
  151.9089  142.6544  158.4227 C   0  0  1  0  0  0  0  0  0  0  0  0
  151.9904  143.9190  157.7948 O   0  0  0  0  0  0  0  0  0  0  0  0
  152.4071  142.7167  159.8586 C   0  0  0  0  0  0  0  0  0  0  0  0
  153.3260  141.7610  160.3462 C   0  0  0  0  0  0  0  0  0  0  0  0
  153.7852  141.8313  161.6758 C   0  0  0  0  0  0  0  0  0  0  0  0
  153.3313  142.8590  162.5250 C   0  0  0  0  0  0  0  0  0  0  0  0
  153.8930  142.9447  164.1540 Cl  0  0  0  0  0  0  0  0  0  0  0  0
  152.4196  143.8179  162.0424 C   0  0  0  0  0  0  0  0  0  0  0  0
  151.9602  143.7478  160.7128 C   0  0  0  0  0  0  0  0  0  0  0  0
  149.0463  140.5554  157.1083 C   0  0  0  0  0  0  0  0  0  0  0  0
  148.1657  140.6093  157.9693 O   0  0  0  0  0  0  0  0  0  0  0  0
  148.9402  139.7076  155.9100 C   0  0  0  0  0  0  0  0  0  0  0  0
  147.6681  138.8832  155.7573 C   0  0  0  0  0  0  0  0  0  0  0  0
  149.0935  139.1080  153.1219 H   0  0  0  0  0  0  0  0  0  0  0  0
  149.8752  137.7856  154.0053 H   0  0  0  0  0  0  0  0  0  0  0  0
  150.8513  138.9869  153.1627 H   0  0  0  0  0  0  0  0  0  0  0  0
  152.0877  141.8416  156.4434 H   0  0  0  0  0  0  0  0  0  0  0  0
  149.7555  143.0146  158.3981 H   0  0  0  0  0  0  0  0  0  0  0  0
  150.2179  141.6037  159.2727 H   0  0  0  0  0  0  0  0  0  0  0  0
  152.5558  141.9720  157.8695 H   0  0  0  0  0  0  0  0  0  0  0  0
  151.2107  144.0456  157.2757 H   0  0  0  0  0  0  0  0  0  0  0  0
  153.6833  140.9713  159.7014 H   0  0  0  0  0  0  0  0  0  0  0  0
  154.4864  141.0961  162.0424 H   0  0  0  0  0  0  0  0  0  0  0  0
  152.0719  144.6090  162.6904 H   0  0  0  0  0  0  0  0  0  0  0  0
  151.2636  144.4901  160.3513 H   0  0  0  0  0  0  0  0  0  0  0  0
  147.5575  138.2035  156.6029 H   0  0  0  0  0  0  0  0  0  0  0  0
  147.6512  138.2825  154.8496 H   0  0  0  0  0  0  0  0  0  0  0  0
  146.7967  139.5384  155.7328 H   0  0  0  0  0  0  0  0  0  0  0  0
  1  2  1  0  0  0  0
  1 20  1  0  0  0  0
  1 21  1  0  0  0  0
  1 22  1  0  0  0  0
  2 18  2  0  0  0  0
  2  3  1  0  0  0  0
  3  4  2  0  0  0  0
  4  5  1  0  0  0  0
  4 23  1  0  0  0  0
  5  6  1  0  0  0  0
  5 16  1  0  0  0  0
  6  7  1  0  0  0  0
  6 24  1  0  0  0  0
  6 25  1  0  0  0  0
  7  8  1  0  0  0  0
  7  9  1  0  0  0  0
  7 26  1  0  0  0  0
  8 27  1  0  0  0  0
  9 15  1  0  0  0  0
  9 10  2  0  0  0  0
 10 11  1  0  0  0  0
 10 28  1  0  0  0  0
 11 12  2  0  0  0  0
 11 29  1  0  0  0  0
 12 13  1  0  0  0  0
 12 14  1  0  0  0  0
 14 15  2  0  0  0  0
 14 30  1  0  0  0  0
 15 31  1  0  0  0  0
 16 17  2  0  0  0  0
 16 18  1  0  0  0  0
 18 19  1  0  0  0  0
 19 32  1  0  0  0  0
 19 33  1  0  0  0  0
 19 34  1  0  0  0  0
M  END
> <s_m_source_file>
AV-unprocessed.smi

> <i_m_source_file_index>
2401

> <i_lp_mmshare_version>
43012

> <i_f3d_flags>
0

> <s_epik_input>
W0NIM11jMW5bY0hdbihjKD1PKWMxW0NIM10pW0NIMl1bQ0BIXShbT0hdKWMyW2NIXVtjSF1jKENsKVtjSF1bY0hdMg==

> <s_epik_cmdline>
J2VwaWtfcHl0aG9uJywgJy1waCcsICc3LjAnLCAnLXRuJywgJzgnLCAnLW1hJywgJzIwMCcsICctbWV0YWxfYmluZGluZycsICctaW1hZScsICc8aW5maWxlLm1hZT4nLCAnLW9tYWUnLCAnPG91dGZpbGUubWFlPic=

> <r_lp_tautomer_probability>
1

> <r_epik_Ionization_Penalty>
5.07713e-05

> <r_epik_Ionization_Penalty_Charging>
7.56727e-08

> <r_epik_Ionization_Penalty_Neutral>
5.06957e-05

> <r_epik_State_Penalty>
-0

> <r_epik_Charging_Adjusted_Penalty>
7.56727e-08

> <i_epik_Tot_Q>
0

> <i_epik_Tot_abs_Q>
0

> <r_epik_Metal_State_Penalty>
-0

> <b_epik_Metal_Only>
0

> <s_lp_Force_Field>
OPLS_2005

> <r_lp_Energy>
18.5783

> <b_lp_Chiralities_Consistent>
1

> <s_lp_Variant>
AV-unprocessed.smi:2401-2

> <Gold.Version>
5.8.1

> <Gold.Id.Protein>
6NUR|6NUR_protein|mol2

> <Gold.PLP.Fitness>
39.6892

> <Gold.PLP.PLP>
-40.3973

> <Gold.PLP.part.hbond>
-2.0000

> <Gold.PLP.part.metal>
0.0000

> <Gold.PLP.part.buried>
-3.5096

> <Gold.PLP.part.nonpolar>
-35.2615

> <Gold.PLP.part.repulsive>
0.0567

> <Gold.PLP.ligand.clash>
1.8770

> <Gold.PLP.ligand.torsion>
0.9121

> <Gold.PLP.Chemscore.Hbond>
0.9920

> <Gold.PLP.Chemscore.CHOScore>
0.0000

> <Gold.PLP.Chemscore.Metal>
0.0000

> <Gold.Chemscore.Hbonds>
donor molecule, donor type, donor heavy atom, donor atom, acceptor molecule, acceptor atom, score
      P1  H  7989  7998       L1     3  0.98

> <Gold.PLP.Chemscore.Internal.Correction>
0.0171

> <Gold.Rescore>
     Score         DG    S(hbond)    S(metal)    S(lipo)     H(rot)  DE(clash)    DE(int)     intcor
     15.15     -15.87       0.73        0.00     110.04       1.93       0.03       0.69       ----

> <Gold.Chemscore.Fitness>
15.1459

> <Gold.Chemscore.DG>
-15.8691

> <Gold.Chemscore.ZeroCoef>
-5.4800

> <Gold.Chemscore.Hbond>
0.7323

> <Gold.Chemscore.Metal>
0.0000

> <Gold.Chemscore.Lipo>
110.0418

> <Gold.Chemscore.Internal_Hbond>
0.0000

> <Gold.Chemscore.DEClash>
0.0287

> <Gold.Chemscore.DEInternal>
0.6944

> <Gold.Chemscore.Rot>
1.9265

> <Gold.Chemscore.Internal.Correction>
   9.000000E+99

> <Gold.Chemscore.Hbonds>
donor molecule, donor type, donor heavy atom, donor atom, acceptor molecule, acceptor atom, score
      P1  H  7989  7998       L1     3  0.42

> <Gold.Chemscore.Hbond.Weighted>
-2.4460

> <Gold.Chemscore.Metal.Weighted>
-0.0000

> <Gold.Chemscore.Lipo.Weighted>
-12.8749

> <Gold.Chemscore.Internal_Hbond.Weighted>
0.0000

> <Gold.Chemscore.DEClash.Weighted>
0.0287

> <Gold.Chemscore.DEInternal.Weighted>
0.6944

> <Gold.Chemscore.Rot.Weighted>
4.9317

> <Gold.Chemscore.Internal.Correction.Weighted>
   9.000000E+99

> <Gold.Protein.RotatedTorsions>
[ 6907 6896 6895 6894 ] final -118.32 input  -60.11 | X-H torsion
[ 7974 7965 7964 7962 ] final  -35.08 input  175.53 | X-H torsion
[ 8008 7997 7996 7995 ] final   89.03 input   59.86 | X-H torsion
[ 10167 10162 10161 10158 ] final   47.20 input  -65.29 | X-H torsion
[ 10718 10713 10712 10709 ] final  162.25 input   66.30 | X-H torsion
[ 10763 10752 10751 10750 ] final  -53.37 input  -60.55 | X-H torsion
[ 11005 11000 10999 10996 ] final  155.09 input  -57.11 | X-H torsion

> <Gold.Protein.ActiveResidues>
 VAL166  LYS551  ARG553  GLY616  TRP617  ASP618  TYR619  PRO620  LYS621  CYS622 
 ASP623  PHE694  ASN695  SER759  ASP760  ASP761  ALA762  ILE779  LEU786  VAL792 
 PHE793  MET794  SER795  GLU796  ALA797  LYS798  CYS799  TRP800  GLU811  SER814 

> <Gold.Protein.RotatedAtoms>
  150.8210  133.8253  159.3138 H   0  0  0  0  0  0  0  0  0  0  0  0  # atno 6907 bound_to 6896
  151.6011  135.1045  160.0070 H   0  0  0  0  0  0  0  0  0  0  0  0  # atno 6908 bound_to 6896
  152.4299  133.7218  159.6594 H   0  0  0  0  0  0  0  0  0  0  0  0  # atno 6909 bound_to 6896
  146.0776  140.6116  142.8923 H   0  0  0  0  0  0  0  0  0  0  0  0  # atno 7974 bound_to 7965
  155.9951  140.3365  155.6790 H   0  0  0  0  0  0  0  0  0  0  0  0  # atno 8008 bound_to 7997
  155.6368  140.0691  157.2649 H   0  0  0  0  0  0  0  0  0  0  0  0  # atno 8009 bound_to 7997
  154.4231  140.1750  156.1518 H   0  0  0  0  0  0  0  0  0  0  0  0  # atno 8010 bound_to 7997
  140.3061  144.2877  150.6209 H   0  0  0  0  0  0  0  0  0  0  0  0  # atno 10167 bound_to 10162
  157.1252  131.0502  151.2397 H   0  0  0  0  0  0  0  0  0  0  0  0  # atno 10718 bound_to 10713
  154.1577  135.6480  153.4978 H   0  0  0  0  0  0  0  0  0  0  0  0  # atno 10763 bound_to 10752
  153.0119  135.5353  154.6743 H   0  0  0  0  0  0  0  0  0  0  0  0  # atno 10764 bound_to 10752
  154.6048  135.2947  155.0468 H   0  0  0  0  0  0  0  0  0  0  0  0  # atno 10765 bound_to 10752
  140.1549  134.8649  157.2502 H   0  0  0  0  0  0  0  0  0  0  0  0  # atno 11005 bound_to 11000
  144.7272  140.4561  143.6964 LP  0  0  0  0  0  0  0  0  0  0  0  0  # atno 17320 bound_to 7965
  145.6276  139.1532  143.2987 LP  0  0  0  0  0  0  0  0  0  0  0  0  # atno 17321 bound_to 7965
  140.5609  143.2192  151.7766 LP  0  0  0  0  0  0  0  0  0  0  0  0  # atno 17342 bound_to 10162
  139.4904  144.4349  151.9830 LP  0  0  0  0  0  0  0  0  0  0  0  0  # atno 17343 bound_to 10162
  157.4441  130.7561  149.7095 LP  0  0  0  0  0  0  0  0  0  0  0  0  # atno 17370 bound_to 10713
  155.9820  130.4014  150.3442 LP  0  0  0  0  0  0  0  0  0  0  0  0  # atno 17371 bound_to 10713
  140.2559  134.3628  155.7424 LP  0  0  0  0  0  0  0  0  0  0  0  0  # atno 17394 bound_to 11000
  141.2203  133.7342  156.9006 LP  0  0  0  0  0  0  0  0  0  0  0  0  # atno 17395 bound_to 11000

$$$$
