AV-unprocessed.smi:1978|AV-procd|sdf|8003|dock1
  -GOLD-   2272010193D 1   1.00000     0.00000
 Structure written by MMmdl.
 44 45  0  0  0  0  0  0  0  0  3 V2000
  146.6323  133.6791  162.2130 C   0  0  0  0  0  0  0  0  0  0  0  0
  147.0890  134.9496  161.5814 C   0  0  0  0  0  0  0  0  0  0  0  0
  147.5842  135.2437  160.3426 C   0  0  0  0  0  0  0  0  0  0  0  0
  147.8200  136.6442  160.4110 C   0  0  0  0  0  0  0  0  0  0  0  0
  148.2994  137.4154  159.4228 N   0  5  0  0  0  0  0  0  0  0  0  0
  149.1190  136.8896  158.4842 C   0  0  0  0  0  0  0  0  0  0  0  0
  149.8680  135.9203  158.6261 O   0  0  0  0  0  0  0  0  0  0  0  0
  149.0670  137.5315  157.3090 N   0  0  0  0  0  0  0  0  0  0  0  0
  149.8599  137.2215  156.1232 C   0  0  0  0  0  0  0  0  0  0  0  0
  150.3632  138.5116  155.4368 C   0  0  1  0  0  0  0  0  0  0  0  0
  151.3341  138.2214  154.2709 C   0  0  0  0  0  0  0  0  0  0  0  0
  149.2269  139.4050  155.0363 N   0  3  2  0  0  0  0  0  0  0  0  0
  148.3761  138.8475  153.9425 C   0  0  0  0  0  0  0  0  0  0  0  0
  147.0868  139.6610  153.7606 C   0  0  0  0  0  0  0  0  0  0  0  0
  147.4127  141.1264  153.4669 C   0  0  0  0  0  0  0  0  0  0  0  0
  148.3100  141.6851  154.5755 C   0  0  0  0  0  0  0  0  0  0  0  0
  149.5878  140.8381  154.7662 C   0  0  1  0  0  0  0  0  0  0  0  0
  150.4521  141.4825  155.8694 C   0  0  0  0  0  0  0  0  0  0  0  0
  147.4835  137.1569  161.5825 N   0  0  0  0  0  0  0  0  0  0  0  0
  147.0187  136.0757  162.3410 O   0  0  0  0  0  0  0  0  0  0  0  0
  145.7261  133.3136  161.7298 H   0  0  0  0  0  0  0  0  0  0  0  0
  146.4169  133.8207  163.2724 H   0  0  0  0  0  0  0  0  0  0  0  0
  147.3978  132.9082  162.1249 H   0  0  0  0  0  0  0  0  0  0  0  0
  147.7547  134.5659  159.5199 H   0  0  0  0  0  0  0  0  0  0  0  0
  148.4330  138.3145  157.2431 H   0  0  0  0  0  0  0  0  0  0  0  0
  150.6971  136.5847  156.4059 H   0  0  0  0  0  0  0  0  0  0  0  0
  149.2384  136.6450  155.4370 H   0  0  0  0  0  0  0  0  0  0  0  0
  150.9344  139.0143  156.2138 H   0  0  0  0  0  0  0  0  0  0  0  0
  152.2183  137.6868  154.6186 H   0  0  0  0  0  0  0  0  0  0  0  0
  151.6883  139.1380  153.8002 H   0  0  0  0  0  0  0  0  0  0  0  0
  150.8701  137.6045  153.5012 H   0  0  0  0  0  0  0  0  0  0  0  0
  148.9344  138.8380  153.0057 H   0  0  0  0  0  0  0  0  0  0  0  0
  148.0921  137.8174  154.1461 H   0  0  0  0  0  0  0  0  0  0  0  0
  146.4934  139.2424  152.9470 H   0  0  0  0  0  0  0  0  0  0  0  0
  146.4744  139.5893  154.6605 H   0  0  0  0  0  0  0  0  0  0  0  0
  147.9169  141.2097  152.5031 H   0  0  0  0  0  0  0  0  0  0  0  0
  146.4949  141.7107  153.3928 H   0  0  0  0  0  0  0  0  0  0  0  0
  148.5745  142.7158  154.3352 H   0  0  0  0  0  0  0  0  0  0  0  0
  147.7498  141.7225  155.5109 H   0  0  0  0  0  0  0  0  0  0  0  0
  150.1548  140.8773  153.8351 H   0  0  0  0  0  0  0  0  0  0  0  0
  150.5506  142.5564  155.7089 H   0  0  0  0  0  0  0  0  0  0  0  0
  151.4671  141.0859  155.8802 H   0  0  0  0  0  0  0  0  0  0  0  0
  150.0129  141.3377  156.8570 H   0  0  0  0  0  0  0  0  0  0  0  0
  148.6321  139.4364  155.8521 H   0  0  0  0  0  0  0  0  0  0  0  0
  1  2  1  0  0  0  0
  1 21  1  0  0  0  0
  1 22  1  0  0  0  0
  1 23  1  0  0  0  0
  2 20  1  0  0  0  0
  2  3  2  0  0  0  0
  3  4  1  0  0  0  0
  3 24  1  0  0  0  0
  4  5  1  0  0  0  0
  4 19  2  0  0  0  0
  5  6  1  0  0  0  0
  6  7  2  0  0  0  0
  6  8  1  0  0  0  0
  8  9  1  0  0  0  0
  8 25  1  0  0  0  0
  9 10  1  0  0  0  0
  9 26  1  0  0  0  0
  9 27  1  0  0  0  0
 10 11  1  0  0  0  0
 10 12  1  0  0  0  0
 10 28  1  0  0  0  0
 11 29  1  0  0  0  0
 11 30  1  0  0  0  0
 11 31  1  0  0  0  0
 12 17  1  0  0  0  0
 12 13  1  0  0  0  0
 12 44  1  0  0  0  0
 13 14  1  0  0  0  0
 13 32  1  0  0  0  0
 13 33  1  0  0  0  0
 14 15  1  0  0  0  0
 14 34  1  0  0  0  0
 14 35  1  0  0  0  0
 15 16  1  0  0  0  0
 15 36  1  0  0  0  0
 15 37  1  0  0  0  0
 16 17  1  0  0  0  0
 16 38  1  0  0  0  0
 16 39  1  0  0  0  0
 17 18  1  0  0  0  0
 17 40  1  0  0  0  0
 18 41  1  0  0  0  0
 18 42  1  0  0  0  0
 18 43  1  0  0  0  0
 19 20  1  0  0  0  0
M  CHG  1   5  -1
M  CHG  1  12   1
M  END
> <s_m_source_file>
AV-unprocessed.smi

> <i_m_source_file_index>
1978

> <i_lp_mmshare_version>
43012

> <i_f3d_flags>
0

> <s_epik_input>
W0NIM11jMVtjSF1jKG5vMSlbTkhdQyg9TylbTkhdW0NIMl1bQ0BIXShbQ0gzXSlOMltDSDJdW0NIMl1bQ0gyXVtDSDJdW0NASF0yW0NIM10=

> <s_epik_cmdline>
J2VwaWtfcHl0aG9uJywgJy1waCcsICc3LjAnLCAnLXRuJywgJzgnLCAnLW1hJywgJzIwMCcsICctbWV0YWxfYmluZGluZycsICctaW1hZScsICc8aW5maWxlLm1hZT4nLCAnLW9tYWUnLCAnPG91dGZpbGUubWFlPic=

> <r_epik_Ionization_Penalty>
6.22372

> <r_epik_Ionization_Penalty_Charging>
6.22362

> <r_epik_Ionization_Penalty_Neutral>
9.65074e-05

> <r_epik_State_Penalty>
6.22363

> <r_epik_Charging_Adjusted_Penalty>
12.4472

> <i_epik_Tot_Q>
0

> <i_epik_Tot_abs_Q>
2

> <r_epik_Metal_State_Penalty>
2.16675

> <b_epik_Metal_Only>
1

> <s_lp_Force_Field>
OPLS_2005

> <r_lp_Energy>
13.2836

> <b_lp_Chiralities_Consistent>
1

> <s_lp_Variant>
AV-unprocessed.smi:1978-12

> <Gold.Version>
5.8.1

> <Gold.Id.Protein>
6NUR|6NUR_protein|mol2

> <Gold.PLP.Fitness>
43.2593

> <Gold.PLP.PLP>
-36.2553

> <Gold.PLP.part.hbond>
-4.1654

> <Gold.PLP.part.metal>
0.0000

> <Gold.PLP.part.buried>
-4.3358

> <Gold.PLP.part.nonpolar>
-27.3664

> <Gold.PLP.part.repulsive>
0.0643

> <Gold.PLP.ligand.clash>
0.0000

> <Gold.PLP.ligand.torsion>
0.5802

> <Gold.PLP.Chemscore.Hbond>
2.6448

> <Gold.PLP.Chemscore.CHOScore>
0.0000

> <Gold.PLP.Chemscore.Metal>
0.0000

> <Gold.Chemscore.Hbonds>
donor molecule, donor type, donor heavy atom, donor atom, acceptor molecule, acceptor atom, score
      P1  H  6896  6909       L1     7  1.00
      P1  H  6931  6943       L1    19  0.96
      P1  H  6934  6947       L1    19  0.72

> <Gold.PLP.Chemscore.Internal.Correction>
0.2301

> <Gold.Rescore>
     Score         DG    S(hbond)    S(metal)    S(lipo)     H(rot)  DE(clash)    DE(int)     intcor
     16.22     -16.99       1.91        0.00      76.97       1.52       0.04       0.73       ----

> <Gold.Chemscore.Fitness>
16.2209

> <Gold.Chemscore.DG>
-16.9861

> <Gold.Chemscore.ZeroCoef>
-5.4800

> <Gold.Chemscore.Hbond>
1.9128

> <Gold.Chemscore.Metal>
0.0000

> <Gold.Chemscore.Lipo>
76.9741

> <Gold.Chemscore.Internal_Hbond>
0.0000

> <Gold.Chemscore.DEClash>
0.0363

> <Gold.Chemscore.DEInternal>
0.7289

> <Gold.Chemscore.Rot>
1.5190

> <Gold.Chemscore.Internal.Correction>
   9.000000E+99

> <Gold.Chemscore.Hbonds>
donor molecule, donor type, donor heavy atom, donor atom, acceptor molecule, acceptor atom, score
      P1  H  6896  6909       L1     7  0.99
      P1  H  6931  6943       L1    19  0.24
      P1  H  6934  6947       L1    19  0.12

> <Gold.Chemscore.Hbond.Weighted>
-6.3888

> <Gold.Chemscore.Metal.Weighted>
-0.0000

> <Gold.Chemscore.Lipo.Weighted>
-9.0060

> <Gold.Chemscore.Internal_Hbond.Weighted>
0.0000

> <Gold.Chemscore.DEClash.Weighted>
0.0363

> <Gold.Chemscore.DEInternal.Weighted>
0.7289

> <Gold.Chemscore.Rot.Weighted>
3.8886

> <Gold.Chemscore.Internal.Correction.Weighted>
   9.000000E+99

> <Gold.Protein.RotatedTorsions>
[ 6907 6896 6895 6894 ] final   53.30 input  -60.11 | X-H torsion
[ 7974 7965 7964 7962 ] final  154.78 input  175.53 | X-H torsion
[ 8008 7997 7996 7995 ] final  -21.65 input   59.86 | X-H torsion
[ 10167 10162 10161 10158 ] final  105.63 input  -65.29 | X-H torsion
[ 10718 10713 10712 10709 ] final  118.80 input   66.30 | X-H torsion
[ 10763 10752 10751 10750 ] final  116.23 input  -60.55 | X-H torsion
[ 11005 11000 10999 10996 ] final   91.90 input  -57.11 | X-H torsion

> <Gold.Protein.ActiveResidues>
 VAL166  LYS551  ARG553  GLY616  TRP617  ASP618  TYR619  PRO620  LYS621  CYS622 
 ASP623  PHE694  ASN695  SER759  ASP760  ASP761  ALA762  ILE779  LEU786  VAL792 
 PHE793  MET794  SER795  GLU796  ALA797  LYS798  CYS799  TRP800  GLU811  SER814 

> <Gold.Protein.RotatedAtoms>
  152.3323  134.7243  160.0285 H   0  0  0  0  0  0  0  0  0  0  0  0  # atno 6907 bound_to 6896
  151.7656  133.3331  159.3438 H   0  0  0  0  0  0  0  0  0  0  0  0  # atno 6908 bound_to 6896
  150.7430  134.5998  159.6075 H   0  0  0  0  0  0  0  0  0  0  0  0  # atno 6909 bound_to 6896
  144.8066  139.6980  143.6159 H   0  0  0  0  0  0  0  0  0  0  0  0  # atno 7974 bound_to 7965
  154.4692  140.2029  156.0037 H   0  0  0  0  0  0  0  0  0  0  0  0  # atno 8008 bound_to 7997
  156.0982  140.3248  155.7876 H   0  0  0  0  0  0  0  0  0  0  0  0  # atno 8009 bound_to 7997
  155.4843  140.0541  157.2953 H   0  0  0  0  0  0  0  0  0  0  0  0  # atno 8010 bound_to 7997
  139.7076  144.7083  151.1080 H   0  0  0  0  0  0  0  0  0  0  0  0  # atno 10167 bound_to 10162
  157.6005  131.1051  150.7807 H   0  0  0  0  0  0  0  0  0  0  0  0  # atno 10718 bound_to 10713
  153.5341  135.3572  155.2689 H   0  0  0  0  0  0  0  0  0  0  0  0  # atno 10763 bound_to 10752
  154.8724  135.4075  154.3118 H   0  0  0  0  0  0  0  0  0  0  0  0  # atno 10764 bound_to 10752
  153.3812  135.7068  153.6632 H   0  0  0  0  0  0  0  0  0  0  0  0  # atno 10765 bound_to 10752
  139.8831  134.8701  156.3495 H   0  0  0  0  0  0  0  0  0  0  0  0  # atno 11005 bound_to 11000
  146.2359  139.5904  142.9524 LP  0  0  0  0  0  0  0  0  0  0  0  0  # atno 17320 bound_to 7965
  145.5423  141.0420  143.2324 LP  0  0  0  0  0  0  0  0  0  0  0  0  # atno 17321 bound_to 7965
  140.7725  143.5337  150.9393 LP  0  0  0  0  0  0  0  0  0  0  0  0  # atno 17342 bound_to 10162
  139.9020  143.6824  152.3129 LP  0  0  0  0  0  0  0  0  0  0  0  0  # atno 17343 bound_to 10162
  156.8207  130.4983  149.5343 LP  0  0  0  0  0  0  0  0  0  0  0  0  # atno 17370 bound_to 10713
  156.1078  130.6017  150.9998 LP  0  0  0  0  0  0  0  0  0  0  0  0  # atno 17371 bound_to 10713
  140.9604  133.7392  156.0393 LP  0  0  0  0  0  0  0  0  0  0  0  0  # atno 17394 bound_to 11000
  140.7997  134.3523  157.5443 LP  0  0  0  0  0  0  0  0  0  0  0  0  # atno 17395 bound_to 11000

$$$$
