AV-unprocessed.smi:2995|AV-procd|sdf|11407|dock1
  -GOLD-   2272016333D 1   1.00000     0.00000
 Structure written by MMmdl.
 49 51  0  0  0  0  0  0  0  0  2 V2000
  146.6861  132.8105  161.7917 C   0  0  0  0  0  0  0  0  0  0  0  0
  147.2578  134.2090  161.6403 C   0  0  0  0  0  0  0  0  0  0  0  0
  147.3235  135.0644  162.7594 C   0  0  0  0  0  0  0  0  0  0  0  0
  147.8606  136.3549  162.5926 C   0  0  0  0  0  0  0  0  0  0  0  0
  148.3256  136.8159  161.4137 N   0  0  0  0  0  0  0  0  0  0  0  0
  148.2603  135.9965  160.3431 C   0  0  0  0  0  0  0  0  0  0  0  0
  147.7249  134.6848  160.3912 C   0  0  0  0  0  0  0  0  0  0  0  0
  147.6803  133.8220  159.2606 N   0  0  0  0  0  0  0  0  0  0  0  0
  148.4380  133.8657  158.1516 C   0  0  0  0  0  0  0  0  0  0  0  0
  149.3215  134.6921  157.9248 O   0  0  0  0  0  0  0  0  0  0  0  0
  148.0946  132.8972  157.2900 N   0  0  0  0  0  0  0  0  0  0  0  0
  148.7087  132.6821  155.9830 C   0  0  2  0  0  0  0  0  0  0  0  0
  147.7515  133.1049  154.8511 C   0  0  0  0  0  0  0  0  0  0  0  0
  148.3374  132.7623  153.4683 C   0  0  0  0  0  0  0  0  0  0  0  0
  148.6781  131.3177  153.3483 N   0  3  2  0  0  0  0  0  0  0  0  0
  147.4979  130.4121  153.2085 C   0  0  0  0  0  0  0  0  0  0  0  0
  147.8602  128.9995  152.7293 C   0  0  0  0  0  0  0  0  0  0  0  0
  146.5567  128.4172  152.1749 C   0  0  0  0  0  0  0  0  0  0  0  0
  145.6904  129.6182  151.7725 C   0  0  0  0  0  0  0  0  0  0  0  0
  146.4963  130.8692  152.1382 C   0  0  0  0  0  0  0  0  0  0  0  0
  149.6429  130.9194  154.4109 C   0  0  0  0  0  0  0  0  0  0  0  0
  149.0964  131.2020  155.8237 C   0  0  0  0  0  0  0  0  0  0  0  0
  146.3641  132.6219  162.8161 H   0  0  0  0  0  0  0  0  0  0  0  0
  147.4357  132.0632  161.5309 H   0  0  0  0  0  0  0  0  0  0  0  0
  145.8237  132.6789  161.1377 H   0  0  0  0  0  0  0  0  0  0  0  0
  146.9710  134.7435  163.7286 H   0  0  0  0  0  0  0  0  0  0  0  0
  147.9236  137.0333  163.4306 H   0  0  0  0  0  0  0  0  0  0  0  0
  148.6728  136.4096  159.4357 H   0  0  0  0  0  0  0  0  0  0  0  0
  146.9342  133.1422  159.2645 H   0  0  0  0  0  0  0  0  0  0  0  0
  147.3543  132.2646  157.5571 H   0  0  0  0  0  0  0  0  0  0  0  0
  149.6208  133.2786  155.9157 H   0  0  0  0  0  0  0  0  0  0  0  0
  146.7834  132.6186  154.9758 H   0  0  0  0  0  0  0  0  0  0  0  0
  147.5597  134.1771  154.9057 H   0  0  0  0  0  0  0  0  0  0  0  0
  147.6587  133.0773  152.6767 H   0  0  0  0  0  0  0  0  0  0  0  0
  149.2498  133.3403  153.3150 H   0  0  0  0  0  0  0  0  0  0  0  0
  146.9734  130.3300  154.1611 H   0  0  0  0  0  0  0  0  0  0  0  0
  148.5996  129.0553  151.9288 H   0  0  0  0  0  0  0  0  0  0  0  0
  148.2736  128.3749  153.5217 H   0  0  0  0  0  0  0  0  0  0  0  0
  146.7437  127.7463  151.3356 H   0  0  0  0  0  0  0  0  0  0  0  0
  146.0472  127.8390  152.9467 H   0  0  0  0  0  0  0  0  0  0  0  0
  145.4427  129.6038  150.7105 H   0  0  0  0  0  0  0  0  0  0  0  0
  144.7508  129.5976  152.3262 H   0  0  0  0  0  0  0  0  0  0  0  0
  145.8496  131.6774  152.4812 H   0  0  0  0  0  0  0  0  0  0  0  0
  147.0297  131.2239  151.2546 H   0  0  0  0  0  0  0  0  0  0  0  0
  149.9314  129.8737  154.3136 H   0  0  0  0  0  0  0  0  0  0  0  0
  150.5621  131.4882  154.2640 H   0  0  0  0  0  0  0  0  0  0  0  0
  149.8502  130.9356  156.5658 H   0  0  0  0  0  0  0  0  0  0  0  0
  148.2358  130.5625  156.0235 H   0  0  0  0  0  0  0  0  0  0  0  0
  149.1790  131.2261  152.4759 H   0  0  0  0  0  0  0  0  0  0  0  0
  1  2  1  0  0  0  0
  1 23  1  0  0  0  0
  1 24  1  0  0  0  0
  1 25  1  0  0  0  0
  2  7  1  0  0  0  0
  2  3  2  0  0  0  0
  3  4  1  0  0  0  0
  3 26  1  0  0  0  0
  4  5  2  0  0  0  0
  4 27  1  0  0  0  0
  5  6  1  0  0  0  0
  6  7  2  0  0  0  0
  6 28  1  0  0  0  0
  7  8  1  0  0  0  0
  8  9  1  0  0  0  0
  8 29  1  0  0  0  0
  9 10  2  0  0  0  0
  9 11  1  0  0  0  0
 11 12  1  0  0  0  0
 11 30  1  0  0  0  0
 12 22  1  0  0  0  0
 12 13  1  0  0  0  0
 12 31  1  0  0  0  0
 13 14  1  0  0  0  0
 13 32  1  0  0  0  0
 13 33  1  0  0  0  0
 14 15  1  0  0  0  0
 14 34  1  0  0  0  0
 14 35  1  0  0  0  0
 15 16  1  0  0  0  0
 15 21  1  0  0  0  0
 15 49  1  0  0  0  0
 16 20  1  0  0  0  0
 16 17  1  0  0  0  0
 16 36  1  0  0  0  0
 17 18  1  0  0  0  0
 17 37  1  0  0  0  0
 17 38  1  0  0  0  0
 18 19  1  0  0  0  0
 18 39  1  0  0  0  0
 18 40  1  0  0  0  0
 19 20  1  0  0  0  0
 19 41  1  0  0  0  0
 19 42  1  0  0  0  0
 20 43  1  0  0  0  0
 20 44  1  0  0  0  0
 21 22  1  0  0  0  0
 21 45  1  0  0  0  0
 21 46  1  0  0  0  0
 22 47  1  0  0  0  0
 22 48  1  0  0  0  0
M  CHG  1  15   1
M  END
> <s_m_source_file>
AV-unprocessed.smi

> <i_m_source_file_index>
2995

> <i_lp_mmshare_version>
43012

> <i_f3d_flags>
0

> <s_epik_input>
W0NIM11jMVtjSF1bY0hdbltjSF1jMVtOSF1DKD1PKVtOSF1bQ0hdMltDSDJdW0NIMl1OKFtDSDJdW0NIMl0yKVtDSF0zW0NIMl1bQ0gyXVtDSDJdW0NIMl0z

> <s_epik_cmdline>
J2VwaWtfcHl0aG9uJywgJy1waCcsICc3LjAnLCAnLXRuJywgJzgnLCAnLW1hJywgJzIwMCcsICctbWV0YWxfYmluZGluZycsICctaW1hZScsICc8aW5maWxlLm1hZT4nLCAnLW9tYWUnLCAnPG91dGZpbGUubWFlPic=

> <r_epik_Ionization_Penalty>
0.0196897

> <r_epik_Ionization_Penalty_Charging>
0.00179121

> <r_epik_Ionization_Penalty_Neutral>
0.0178985

> <r_epik_State_Penalty>
0.014187

> <r_epik_Charging_Adjusted_Penalty>
0.0159782

> <i_epik_Tot_Q>
1

> <i_epik_Tot_abs_Q>
1

> <r_epik_Metal_State_Penalty>
0.013703

> <b_epik_Metal_Only>
0

> <s_lp_Force_Field>
OPLS_2005

> <r_lp_Energy>
42.3495

> <b_lp_Chiralities_Consistent>
1

> <s_lp_Variant>
AV-unprocessed.smi:2995-2

> <Gold.Version>
5.8.1

> <Gold.Id.Protein>
6NUR|6NUR_protein|mol2

> <Gold.PLP.Fitness>
46.5274

> <Gold.PLP.PLP>
-39.3988

> <Gold.PLP.part.hbond>
-2.8904

> <Gold.PLP.part.metal>
0.0000

> <Gold.PLP.part.buried>
-3.2222

> <Gold.PLP.part.nonpolar>
-33.3635

> <Gold.PLP.part.repulsive>
0.0929

> <Gold.PLP.ligand.clash>
0.0000

> <Gold.PLP.ligand.torsion>
0.3378

> <Gold.PLP.Chemscore.Hbond>
2.5829

> <Gold.PLP.Chemscore.CHOScore>
0.0000

> <Gold.PLP.Chemscore.Metal>
0.0000

> <Gold.Chemscore.Hbonds>
donor molecule, donor type, donor heavy atom, donor atom, acceptor molecule, acceptor atom, score
      L1  H    15    49       P1 10747  0.53
      P1  H  6896  6909       L1    10  1.00
      P1  H  6931  6943       L1     5  1.00

> <Gold.PLP.Chemscore.Internal.Correction>
0.0554

> <Gold.Rescore>
     Score         DG    S(hbond)    S(metal)    S(lipo)     H(rot)  DE(clash)    DE(int)     intcor
     21.44     -22.83       2.31        0.00     108.08       1.17       0.00       1.39       ----

> <Gold.Chemscore.Fitness>
21.4418

> <Gold.Chemscore.DG>
-22.8316

> <Gold.Chemscore.ZeroCoef>
-5.4800

> <Gold.Chemscore.Hbond>
2.3081

> <Gold.Chemscore.Metal>
0.0000

> <Gold.Chemscore.Lipo>
108.0820

> <Gold.Chemscore.Internal_Hbond>
0.0000

> <Gold.Chemscore.DEClash>
0.0000

> <Gold.Chemscore.DEInternal>
1.3897

> <Gold.Chemscore.Rot>
1.1731

> <Gold.Chemscore.Internal.Correction>
   9.000000E+99

> <Gold.Chemscore.Hbonds>
donor molecule, donor type, donor heavy atom, donor atom, acceptor molecule, acceptor atom, score
      L1  H    15    49       P1 10747  0.17
      P1  H  6896  6909       L1    10  0.32
      P1  H  6931  6943       L1     5  0.26

> <Gold.Chemscore.Hbond.Weighted>
-7.7090

> <Gold.Chemscore.Metal.Weighted>
-0.0000

> <Gold.Chemscore.Lipo.Weighted>
-12.6456

> <Gold.Chemscore.Internal_Hbond.Weighted>
0.0000

> <Gold.Chemscore.DEClash.Weighted>
0.0000

> <Gold.Chemscore.DEInternal.Weighted>
1.3897

> <Gold.Chemscore.Rot.Weighted>
3.0030

> <Gold.Chemscore.Internal.Correction.Weighted>
   9.000000E+99

> <Gold.Protein.RotatedTorsions>
[ 6907 6896 6895 6894 ] final   32.15 input  -60.11 | X-H torsion
[ 7974 7965 7964 7962 ] final  -69.22 input  175.53 | X-H torsion
[ 8008 7997 7996 7995 ] final -146.49 input   59.86 | X-H torsion
[ 10167 10162 10161 10158 ] final  169.12 input  -65.29 | X-H torsion
[ 10718 10713 10712 10709 ] final  159.78 input   66.30 | X-H torsion
[ 10763 10752 10751 10750 ] final  -77.04 input  -60.55 | X-H torsion
[ 11005 11000 10999 10996 ] final -120.68 input  -57.11 | X-H torsion

> <Gold.Protein.ActiveResidues>
 VAL166  LYS551  ARG553  GLY616  TRP617  ASP618  TYR619  PRO620  LYS621  CYS622 
 ASP623  PHE694  ASN695  SER759  ASP760  ASP761  ALA762  ILE779  LEU786  VAL792 
 PHE793  MET794  SER795  GLU796  ALA797  LYS798  CYS799  TRP800  GLU811  SER814 

> <Gold.Protein.RotatedAtoms>
  152.0704  134.9537  160.0574 H   0  0  0  0  0  0  0  0  0  0  0  0  # atno 6907 bound_to 6896
  152.0865  133.4174  159.4533 H   0  0  0  0  0  0  0  0  0  0  0  0  # atno 6908 bound_to 6896
  150.6836  134.2841  159.4682 H   0  0  0  0  0  0  0  0  0  0  0  0  # atno 6909 bound_to 6896
  145.7066  140.9095  143.0703 H   0  0  0  0  0  0  0  0  0  0  0  0  # atno 7974 bound_to 7965
  155.5602  140.0624  157.2830 H   0  0  0  0  0  0  0  0  0  0  0  0  # atno 8008 bound_to 7997
  154.4393  140.1887  156.0820 H   0  0  0  0  0  0  0  0  0  0  0  0  # atno 8009 bound_to 7997
  156.0452  140.3291  155.7292 H   0  0  0  0  0  0  0  0  0  0  0  0  # atno 8010 bound_to 7997
  139.4984  144.3740  151.9694 H   0  0  0  0  0  0  0  0  0  0  0  0  # atno 10167 bound_to 10162
  157.1594  131.0583  151.2240 H   0  0  0  0  0  0  0  0  0  0  0  0  # atno 10718 bound_to 10713
  154.5078  135.5777  153.6581 H   0  0  0  0  0  0  0  0  0  0  0  0  # atno 10763 bound_to 10752
  152.9891  135.6151  154.2919 H   0  0  0  0  0  0  0  0  0  0  0  0  # atno 10764 bound_to 10752
  154.2831  135.2850  155.2668 H   0  0  0  0  0  0  0  0  0  0  0  0  # atno 10765 bound_to 10752
  141.0126  134.0243  157.3394 H   0  0  0  0  0  0  0  0  0  0  0  0  # atno 11005 bound_to 11000
  144.6953  139.9018  143.7459 LP  0  0  0  0  0  0  0  0  0  0  0  0  # atno 17320 bound_to 7965
  146.0750  139.3738  143.0499 LP  0  0  0  0  0  0  0  0  0  0  0  0  # atno 17321 bound_to 7965
  140.3177  144.3465  150.6017 LP  0  0  0  0  0  0  0  0  0  0  0  0  # atno 17342 bound_to 10162
  140.5748  143.2177  151.7534 LP  0  0  0  0  0  0  0  0  0  0  0  0  # atno 17343 bound_to 10162
  157.4146  130.7404  149.6866 LP  0  0  0  0  0  0  0  0  0  0  0  0  # atno 17370 bound_to 10713
  155.9756  130.4086  150.3835 LP  0  0  0  0  0  0  0  0  0  0  0  0  # atno 17371 bound_to 10713
  139.9098  135.0188  156.7644 LP  0  0  0  0  0  0  0  0  0  0  0  0  # atno 17394 bound_to 11000
  140.6709  133.9560  155.7856 LP  0  0  0  0  0  0  0  0  0  0  0  0  # atno 17395 bound_to 11000

$$$$
