AV-unprocessed.smi:2065|AV-procd|sdf|8418|dock3
  -GOLD-   2272011113D 1   1.00000     0.00000
 Structure written by MMmdl.
 38 39  0  0  0  0  0  0  0  0  1 V2000
  153.8501  141.4546  161.5082 C   0  0  0  0  0  0  0  0  0  0  0  0
  153.0316  142.1244  160.4442 C   0  0  0  0  0  0  0  0  0  0  0  0
  152.2074  141.5121  159.4555 C   0  0  0  0  0  0  0  0  0  0  0  0
  151.7116  142.5870  158.7695 C   0  0  0  0  0  0  0  0  0  0  0  0
  150.8628  142.6069  157.7076 N   0  0  0  0  0  0  0  0  0  0  0  0
  150.2895  141.5715  157.0701 C   0  0  0  0  0  0  0  0  0  0  0  0
  150.4440  140.3832  157.3533 O   0  0  0  0  0  0  0  0  0  0  0  0
  149.5082  141.9965  156.0667 N   0  0  0  0  0  0  0  0  0  0  0  0
  148.7511  141.1421  155.1500 C   0  0  1  0  0  0  0  0  0  0  0  0
  148.0008  142.0081  154.1131 C   0  0  0  0  0  0  0  0  0  0  0  0
  146.7892  141.3097  153.4751 C   0  0  0  0  0  0  0  0  0  0  0  0
  147.1253  140.0565  152.6529 C   0  0  0  0  0  0  0  0  0  0  0  0
  147.6974  138.9016  153.4932 C   0  0  0  0  0  0  0  0  0  0  0  0
  149.1099  139.0814  153.8046 N   0  0  0  0  0  0  0  0  0  0  0  0
  149.6619  140.0638  154.5329 C   0  0  0  0  0  0  0  0  0  0  0  0
  150.8807  140.1076  154.7001 O   0  0  0  0  0  0  0  0  0  0  0  0
  152.2171  143.7413  159.3249 N   0  0  0  0  0  0  0  0  0  0  0  0
  151.9867  145.1220  158.9472 C   0  0  0  0  0  0  0  0  0  0  0  0
  153.0326  143.4502  160.3615 N   0  0  0  0  0  0  0  0  0  0  0  0
  153.8153  140.3697  161.4073 H   0  0  0  0  0  0  0  0  0  0  0  0
  153.4821  141.7069  162.5028 H   0  0  0  0  0  0  0  0  0  0  0  0
  154.8953  141.7592  161.4508 H   0  0  0  0  0  0  0  0  0  0  0  0
  152.0260  140.4601  159.2951 H   0  0  0  0  0  0  0  0  0  0  0  0
  150.6333  143.5257  157.3582 H   0  0  0  0  0  0  0  0  0  0  0  0
  149.4449  142.9909  155.9027 H   0  0  0  0  0  0  0  0  0  0  0  0
  148.0136  140.6083  155.7525 H   0  0  0  0  0  0  0  0  0  0  0  0
  147.6332  142.9159  154.5934 H   0  0  0  0  0  0  0  0  0  0  0  0
  148.6899  142.3453  153.3374 H   0  0  0  0  0  0  0  0  0  0  0  0
  146.0676  141.0529  154.2517 H   0  0  0  0  0  0  0  0  0  0  0  0
  146.2823  142.0237  152.8253 H   0  0  0  0  0  0  0  0  0  0  0  0
  146.2066  139.7108  152.1779 H   0  0  0  0  0  0  0  0  0  0  0  0
  147.8061  140.3070  151.8381 H   0  0  0  0  0  0  0  0  0  0  0  0
  147.1211  138.7554  154.4078 H   0  0  0  0  0  0  0  0  0  0  0  0
  147.6125  137.9736  152.9272 H   0  0  0  0  0  0  0  0  0  0  0  0
  149.7390  138.3923  153.4183 H   0  0  0  0  0  0  0  0  0  0  0  0
  150.9216  145.3467  159.0137 H   0  0  0  0  0  0  0  0  0  0  0  0
  152.3213  145.2809  157.9219 H   0  0  0  0  0  0  0  0  0  0  0  0
  152.5324  145.7982  159.6069 H   0  0  0  0  0  0  0  0  0  0  0  0
  1  2  1  0  0  0  0
  1 20  1  0  0  0  0
  1 21  1  0  0  0  0
  1 22  1  0  0  0  0
  2 19  2  0  0  0  0
  2  3  1  0  0  0  0
  3  4  2  0  0  0  0
  3 23  1  0  0  0  0
  4  5  1  0  0  0  0
  4 17  1  0  0  0  0
  5  6  1  0  0  0  0
  5 24  1  0  0  0  0
  6  7  2  0  0  0  0
  6  8  1  0  0  0  0
  8  9  1  0  0  0  0
  8 25  1  0  0  0  0
  9 15  1  0  0  0  0
  9 10  1  0  0  0  0
  9 26  1  0  0  0  0
 10 11  1  0  0  0  0
 10 27  1  0  0  0  0
 10 28  1  0  0  0  0
 11 12  1  0  0  0  0
 11 29  1  0  0  0  0
 11 30  1  0  0  0  0
 12 13  1  0  0  0  0
 12 31  1  0  0  0  0
 12 32  1  0  0  0  0
 13 14  1  0  0  0  0
 13 33  1  0  0  0  0
 13 34  1  0  0  0  0
 14 15  1  0  0  0  0
 14 35  1  0  0  0  0
 15 16  2  0  0  0  0
 17 18  1  0  0  0  0
 17 19  1  0  0  0  0
 18 36  1  0  0  0  0
 18 37  1  0  0  0  0
 18 38  1  0  0  0  0
M  END
> <s_m_source_file>
AV-unprocessed.smi

> <i_m_source_file_index>
2065

> <i_lp_mmshare_version>
43012

> <i_f3d_flags>
0

> <s_epik_input>
W0NIM11jMVtjSF1jKG4objEpW0NIM10pW05IXUMoPU8pW05IXVtDQEBIXTJbQ0gyXVtDSDJdW0NIMl1bQ0gyXVtOSF1DMj1P

> <s_epik_cmdline>
J2VwaWtfcHl0aG9uJywgJy1waCcsICc3LjAnLCAnLXRuJywgJzgnLCAnLW1hJywgJzIwMCcsICctbWV0YWxfYmluZGluZycsICctaW1hZScsICc8aW5maWxlLm1hZT4nLCAnLW9tYWUnLCAnPG91dGZpbGUubWFlPic=

> <r_lp_tautomer_probability>
1

> <r_epik_Ionization_Penalty>
8.1752e-05

> <r_epik_Ionization_Penalty_Charging>
0

> <r_epik_Ionization_Penalty_Neutral>
8.1752e-05

> <r_epik_State_Penalty>
-0

> <r_epik_Charging_Adjusted_Penalty>
0

> <i_epik_Tot_Q>
0

> <i_epik_Tot_abs_Q>
0

> <r_epik_Metal_State_Penalty>
-0

> <b_epik_Metal_Only>
0

> <s_lp_Force_Field>
OPLS_2005

> <r_lp_Energy>
11.1948

> <b_lp_Chiralities_Consistent>
1

> <s_lp_Variant>
AV-unprocessed.smi:2065-2

> <Gold.Version>
5.8.1

> <Gold.Id.Protein>
6NUR|6NUR_protein|mol2

> <Gold.PLP.Fitness>
47.5711

> <Gold.PLP.PLP>
-41.6167

> <Gold.PLP.part.hbond>
-3.0000

> <Gold.PLP.part.metal>
0.0000

> <Gold.PLP.part.buried>
-1.7621

> <Gold.PLP.part.nonpolar>
-35.7658

> <Gold.PLP.part.repulsive>
0.2753

> <Gold.PLP.ligand.clash>
0.0000

> <Gold.PLP.ligand.torsion>
0.0364

> <Gold.PLP.Chemscore.Hbond>
2.0000

> <Gold.PLP.Chemscore.CHOScore>
0.0000

> <Gold.PLP.Chemscore.Metal>
0.0000

> <Gold.Chemscore.Hbonds>
donor molecule, donor type, donor heavy atom, donor atom, acceptor molecule, acceptor atom, score
      L1  H     8    25       P1  8028  1.00
      P1  H  7989  7998       L1    16  1.00

> <Gold.PLP.Chemscore.Internal.Correction>
0.0271

> <Gold.Rescore>
     Score         DG    S(hbond)    S(metal)    S(lipo)     H(rot)  DE(clash)    DE(int)     intcor
     13.63     -19.00       1.97        0.00      81.14       1.00       0.13       5.25       ----

> <Gold.Chemscore.Fitness>
13.6270

> <Gold.Chemscore.DG>
-19.0029

> <Gold.Chemscore.ZeroCoef>
-5.4800

> <Gold.Chemscore.Hbond>
1.9728

> <Gold.Chemscore.Metal>
0.0000

> <Gold.Chemscore.Lipo>
81.1419

> <Gold.Chemscore.Internal_Hbond>
0.0000

> <Gold.Chemscore.DEClash>
0.1296

> <Gold.Chemscore.DEInternal>
5.2462

> <Gold.Chemscore.Rot>
1.0000

> <Gold.Chemscore.Internal.Correction>
   9.000000E+99

> <Gold.Chemscore.Hbonds>
donor molecule, donor type, donor heavy atom, donor atom, acceptor molecule, acceptor atom, score
      L1  H     8    25       P1  8028  1.00
      P1  H  7989  7998       L1    16  0.81

> <Gold.Chemscore.Hbond.Weighted>
-6.5893

> <Gold.Chemscore.Metal.Weighted>
-0.0000

> <Gold.Chemscore.Lipo.Weighted>
-9.4936

> <Gold.Chemscore.Internal_Hbond.Weighted>
0.0000

> <Gold.Chemscore.DEClash.Weighted>
0.1296

> <Gold.Chemscore.DEInternal.Weighted>
5.2462

> <Gold.Chemscore.Rot.Weighted>
2.5600

> <Gold.Chemscore.Internal.Correction.Weighted>
   9.000000E+99

> <Gold.Protein.RotatedTorsions>
[ 6907 6896 6895 6894 ] final  -26.10 input  -60.11 | X-H torsion
[ 7974 7965 7964 7962 ] final  163.42 input  175.53 | X-H torsion
[ 8008 7997 7996 7995 ] final  156.83 input   59.86 | X-H torsion
[ 10167 10162 10161 10158 ] final -118.94 input  -65.29 | X-H torsion
[ 10718 10713 10712 10709 ] final  -33.09 input   66.30 | X-H torsion
[ 10763 10752 10751 10750 ] final   15.51 input  -60.55 | X-H torsion
[ 11005 11000 10999 10996 ] final -137.62 input  -57.11 | X-H torsion

> <Gold.Protein.ActiveResidues>
 VAL166  LYS551  ARG553  GLY616  TRP617  ASP618  TYR619  PRO620  LYS621  CYS622 
 ASP623  PHE694  ASN695  SER759  ASP760  ASP761  ALA762  ILE779  LEU786  VAL792 
 PHE793  MET794  SER795  GLU796  ALA797  LYS798  CYS799  TRP800  GLU811  SER814 

> <Gold.Protein.RotatedAtoms>
  151.1657  135.0294  159.8729 H   0  0  0  0  0  0  0  0  0  0  0  0  # atno 6907 bound_to 6896
  152.5450  134.1228  159.8416 H   0  0  0  0  0  0  0  0  0  0  0  0  # atno 6908 bound_to 6896
  151.1328  133.4978  159.2631 H   0  0  0  0  0  0  0  0  0  0  0  0  # atno 6909 bound_to 6896
  144.7591  139.8180  143.6339 H   0  0  0  0  0  0  0  0  0  0  0  0  # atno 7974 bound_to 7965
  156.2399  140.1901  156.7016 H   0  0  0  0  0  0  0  0  0  0  0  0  # atno 8008 bound_to 7997
  154.6178  140.0613  156.9603 H   0  0  0  0  0  0  0  0  0  0  0  0  # atno 8009 bound_to 7997
  155.1911  140.3284  155.4361 H   0  0  0  0  0  0  0  0  0  0  0  0  # atno 8010 bound_to 7997
  140.0521  143.5050  152.2076 H   0  0  0  0  0  0  0  0  0  0  0  0  # atno 10167 bound_to 10162
  156.3669  130.4333  149.7577 H   0  0  0  0  0  0  0  0  0  0  0  0  # atno 10718 bound_to 10713
  153.1518  135.6780  153.8870 H   0  0  0  0  0  0  0  0  0  0  0  0  # atno 10763 bound_to 10752
  153.8294  135.3119  155.3418 H   0  0  0  0  0  0  0  0  0  0  0  0  # atno 10764 bound_to 10752
  154.7868  135.4857  154.0050 H   0  0  0  0  0  0  0  0  0  0  0  0  # atno 10765 bound_to 10752
  140.8694  134.2070  157.4660 H   0  0  0  0  0  0  0  0  0  0  0  0  # atno 11005 bound_to 11000
  146.1634  139.4756  142.9974 LP  0  0  0  0  0  0  0  0  0  0  0  0  # atno 17320 bound_to 7965
  145.6680  141.0224  143.1673 LP  0  0  0  0  0  0  0  0  0  0  0  0  # atno 17321 bound_to 7965
  139.5947  144.7562  151.3316 LP  0  0  0  0  0  0  0  0  0  0  0  0  # atno 17342 bound_to 10162
  140.7212  143.7130  150.7754 LP  0  0  0  0  0  0  0  0  0  0  0  0  # atno 17343 bound_to 10162
  156.4720  130.8001  151.3018 LP  0  0  0  0  0  0  0  0  0  0  0  0  # atno 17370 bound_to 10713
  157.7480  131.0033  150.3032 LP  0  0  0  0  0  0  0  0  0  0  0  0  # atno 17371 bound_to 10713
  139.8711  134.9767  156.4931 LP  0  0  0  0  0  0  0  0  0  0  0  0  # atno 17394 bound_to 11000
  140.8591  133.8073  155.9246 LP  0  0  0  0  0  0  0  0  0  0  0  0  # atno 17395 bound_to 11000

$$$$
