AV-unprocessed.smi:1954|AV-procd|sdf|7894|dock10
  -GOLD-   2272010 53D 1   1.00000     0.00000
 Structure written by MMmdl.
 44 46  0  0  0  0  0  0  0  0  1 V2000
  144.6508  137.0487  152.6927 O   0  0  0  0  0  0  0  0  0  0  0  0
  145.8473  136.8116  152.5238 C   0  0  0  0  0  0  0  0  0  0  0  0
  146.8216  137.6671  152.8577 N   0  0  0  0  0  0  0  0  0  0  0  0
  146.6062  138.9758  153.4677 C   0  0  0  0  0  0  0  0  0  0  0  0
  146.9394  138.9717  154.9944 C   0  0  1  0  0  0  0  0  0  0  0  0
  148.4030  139.1937  155.2063 N   0  0  0  0  0  0  0  0  0  0  0  0
  149.3076  138.3755  154.3853 C   0  0  0  0  0  0  0  0  0  0  0  0
  150.7883  138.6135  154.7284 C   0  0  0  0  0  0  0  0  0  0  0  0
  151.1002  139.9926  154.5878 O   0  0  0  0  0  0  0  0  0  0  0  0
  150.2983  140.8112  155.4280 C   0  0  0  0  0  0  0  0  0  0  0  0
  148.8132  140.6000  155.0909 C   0  0  0  0  0  0  0  0  0  0  0  0
  146.0455  140.0515  155.6713 C   0  0  0  0  0  0  0  0  0  0  0  0
  144.5911  139.5676  155.6879 C   0  0  0  0  0  0  0  0  0  0  0  0
  144.6223  137.7661  155.8407 S   0  0  0  0  0  0  0  0  0  0  0  0
  146.4169  137.6456  155.6039 C   0  0  0  0  0  0  0  0  0  0  0  0
  146.3517  135.6822  151.9960 N   0  0  0  0  0  0  0  0  0  0  0  0
  145.6463  134.5498  151.5088 C   0  0  0  0  0  0  0  0  0  0  0  0
  146.4589  133.5068  151.0093 C   0  0  0  0  0  0  0  0  0  0  0  0
  145.8550  132.3407  150.5006 C   0  0  0  0  0  0  0  0  0  0  0  0
  144.4518  132.2477  150.5028 C   0  0  0  0  0  0  0  0  0  0  0  0
  143.7167  133.3314  151.0176 C   0  0  0  0  0  0  0  0  0  0  0  0
  144.2935  134.4495  151.5066 N   0  0  0  0  0  0  0  0  0  0  0  0
  147.7801  137.3970  152.6911 H   0  0  0  0  0  0  0  0  0  0  0  0
  147.2040  139.7125  152.9314 H   0  0  0  0  0  0  0  0  0  0  0  0
  145.5772  139.2835  153.2840 H   0  0  0  0  0  0  0  0  0  0  0  0
  149.1236  137.3148  154.5370 H   0  0  0  0  0  0  0  0  0  0  0  0
  149.1575  138.5805  153.3260 H   0  0  0  0  0  0  0  0  0  0  0  0
  151.0071  138.2856  155.7458 H   0  0  0  0  0  0  0  0  0  0  0  0
  151.4284  138.0351  154.0623 H   0  0  0  0  0  0  0  0  0  0  0  0
  150.4941  140.5761  156.4753 H   0  0  0  0  0  0  0  0  0  0  0  0
  150.5756  141.8542  155.2767 H   0  0  0  0  0  0  0  0  0  0  0  0
  148.6243  140.9615  154.0794 H   0  0  0  0  0  0  0  0  0  0  0  0
  148.2387  141.2335  155.7629 H   0  0  0  0  0  0  0  0  0  0  0  0
  146.3109  140.1856  156.7174 H   0  0  0  0  0  0  0  0  0  0  0  0
  146.1375  141.0315  155.2025 H   0  0  0  0  0  0  0  0  0  0  0  0
  144.0260  140.0133  156.5066 H   0  0  0  0  0  0  0  0  0  0  0  0
  144.0821  139.8344  154.7615 H   0  0  0  0  0  0  0  0  0  0  0  0
  146.6588  136.7778  154.9894 H   0  0  0  0  0  0  0  0  0  0  0  0
  146.8420  137.4629  156.5892 H   0  0  0  0  0  0  0  0  0  0  0  0
  147.3574  135.6264  151.9346 H   0  0  0  0  0  0  0  0  0  0  0  0
  147.5357  133.5949  151.0147 H   0  0  0  0  0  0  0  0  0  0  0  0
  146.4588  131.5321  150.1156 H   0  0  0  0  0  0  0  0  0  0  0  0
  143.9519  131.3701  150.1205 H   0  0  0  0  0  0  0  0  0  0  0  0
  142.6373  133.3006  151.0378 H   0  0  0  0  0  0  0  0  0  0  0  0
  1  2  2  0  0  0  0
  2  3  1  0  0  0  0
  2 16  1  0  0  0  0
  3  4  1  0  0  0  0
  3 23  1  0  0  0  0
  4  5  1  0  0  0  0
  4 24  1  0  0  0  0
  4 25  1  0  0  0  0
  5 15  1  0  0  0  0
  5  6  1  0  0  0  0
  5 12  1  0  0  0  0
  6 11  1  0  0  0  0
  6  7  1  0  0  0  0
  7  8  1  0  0  0  0
  7 26  1  0  0  0  0
  7 27  1  0  0  0  0
  8  9  1  0  0  0  0
  8 28  1  0  0  0  0
  8 29  1  0  0  0  0
  9 10  1  0  0  0  0
 10 11  1  0  0  0  0
 10 30  1  0  0  0  0
 10 31  1  0  0  0  0
 11 32  1  0  0  0  0
 11 33  1  0  0  0  0
 12 13  1  0  0  0  0
 12 34  1  0  0  0  0
 12 35  1  0  0  0  0
 13 14  1  0  0  0  0
 13 36  1  0  0  0  0
 13 37  1  0  0  0  0
 14 15  1  0  0  0  0
 15 38  1  0  0  0  0
 15 39  1  0  0  0  0
 16 17  1  0  0  0  0
 16 40  1  0  0  0  0
 17 22  1  0  0  0  0
 17 18  2  0  0  0  0
 18 19  1  0  0  0  0
 18 41  1  0  0  0  0
 19 20  2  0  0  0  0
 19 42  1  0  0  0  0
 20 21  1  0  0  0  0
 20 43  1  0  0  0  0
 21 22  2  0  0  0  0
 21 44  1  0  0  0  0
M  END
> <s_m_source_file>
AV-unprocessed.smi

> <i_m_source_file_index>
1954

> <i_lp_mmshare_version>
43012

> <i_f3d_flags>
0

> <s_epik_input>
bjFbY0hdW2NIXVtjSF1bY0hdYzFbTkhdQyg9TylbTkhdW0NIMl1bQ0BdMihbQ0gyXVtDSDJdU1tDSDJdMilOM1tDSDJdW0NIMl1PW0NIMl1bQ0gyXTM=

> <s_epik_cmdline>
J2VwaWtfcHl0aG9uJywgJy1waCcsICc3LjAnLCAnLXRuJywgJzgnLCAnLW1hJywgJzIwMCcsICctbWV0YWxfYmluZGluZycsICctaW1hZScsICc8aW5maWxlLm1hZT4nLCAnLW9tYWUnLCAnPG91dGZpbGUubWFlPic=

> <r_epik_Ionization_Penalty>
0.0195535

> <r_epik_Ionization_Penalty_Charging>
0

> <r_epik_Ionization_Penalty_Neutral>
0.0195535

> <r_epik_State_Penalty>
0.0155843

> <r_epik_Charging_Adjusted_Penalty>
0.0155843

> <i_epik_Tot_Q>
0

> <i_epik_Tot_abs_Q>
0

> <r_epik_Metal_State_Penalty>
0.0155842

> <b_epik_Metal_Only>
0

> <s_lp_Force_Field>
OPLS_2005

> <r_lp_Energy>
55.5144

> <b_lp_Chiralities_Consistent>
1

> <s_lp_Variant>
AV-unprocessed.smi:1954-1

> <Gold.Version>
5.8.1

> <Gold.Id.Protein>
6NUR|6NUR_protein|mol2

> <Gold.PLP.Fitness>
39.9015

> <Gold.PLP.PLP>
-29.8407

> <Gold.PLP.part.hbond>
-3.0000

> <Gold.PLP.part.metal>
0.0000

> <Gold.PLP.part.buried>
-6.0609

> <Gold.PLP.part.nonpolar>
-22.6987

> <Gold.PLP.part.repulsive>
0.5808

> <Gold.PLP.ligand.clash>
0.0000

> <Gold.PLP.ligand.torsion>
0.8953

> <Gold.PLP.Chemscore.Hbond>
2.9280

> <Gold.PLP.Chemscore.CHOScore>
1.0000

> <Gold.PLP.Chemscore.Metal>
0.0000

> <Gold.Chemscore.Hbonds>
donor molecule, donor type, donor heavy atom, donor atom, acceptor molecule, acceptor atom, score
      L1  H     3    23       P1  7948  0.96
      L1  H    16    40       P1  7948  1.00
      P1  H  7989  7998       L1     9  0.91
      L1  C    21    44       P1 10186  1.00

> <Gold.PLP.Chemscore.Internal.Correction>
0.0674

> <Gold.Rescore>
     Score         DG    S(hbond)    S(metal)    S(lipo)     H(rot)  DE(clash)    DE(int)     intcor
     15.76     -19.19       2.89        0.00      67.26       1.49       0.04       3.39       ----

> <Gold.Chemscore.Fitness>
15.7629

> <Gold.Chemscore.DG>
-19.1874

> <Gold.Chemscore.ZeroCoef>
-5.4800

> <Gold.Chemscore.Hbond>
2.8930

> <Gold.Chemscore.Metal>
0.0000

> <Gold.Chemscore.Lipo>
67.2616

> <Gold.Chemscore.Internal_Hbond>
0.0000

> <Gold.Chemscore.DEClash>
0.0354

> <Gold.Chemscore.DEInternal>
3.3892

> <Gold.Chemscore.Rot>
1.4940

> <Gold.Chemscore.Internal.Correction>
   9.000000E+99

> <Gold.Chemscore.Hbonds>
donor molecule, donor type, donor heavy atom, donor atom, acceptor molecule, acceptor atom, score
      L1  H     3    23       P1  7948  0.92
      L1  H    16    40       P1  7948  0.99
      P1  H  7989  7998       L1     9  0.53

> <Gold.Chemscore.Hbond.Weighted>
-9.6625

> <Gold.Chemscore.Metal.Weighted>
-0.0000

> <Gold.Chemscore.Lipo.Weighted>
-7.8696

> <Gold.Chemscore.Internal_Hbond.Weighted>
0.0000

> <Gold.Chemscore.DEClash.Weighted>
0.0354

> <Gold.Chemscore.DEInternal.Weighted>
3.3892

> <Gold.Chemscore.Rot.Weighted>
3.8246

> <Gold.Chemscore.Internal.Correction.Weighted>
   9.000000E+99

> <Gold.Protein.RotatedTorsions>
[ 6907 6896 6895 6894 ] final   33.62 input  -60.11 | X-H torsion
[ 7974 7965 7964 7962 ] final  -35.85 input  175.53 | X-H torsion
[ 8008 7997 7996 7995 ] final  -62.08 input   59.86 | X-H torsion
[ 10167 10162 10161 10158 ] final   78.78 input  -65.29 | X-H torsion
[ 10718 10713 10712 10709 ] final -105.24 input   66.30 | X-H torsion
[ 10763 10752 10751 10750 ] final  136.66 input  -60.55 | X-H torsion
[ 11005 11000 10999 10996 ] final  -21.04 input  -57.11 | X-H torsion

> <Gold.Protein.ActiveResidues>
 VAL166  LYS551  ARG553  GLY616  TRP617  ASP618  TYR619  PRO620  LYS621  CYS622 
 ASP623  PHE694  ASN695  SER759  ASP760  ASP761  ALA762  ILE779  LEU786  VAL792 
 PHE793  MET794  SER795  GLU796  ALA797  LYS798  CYS799  TRP800  GLU811  SER814 

> <Gold.Protein.RotatedAtoms>
  152.0911  134.9407  160.0571 H   0  0  0  0  0  0  0  0  0  0  0  0  # atno 6907 bound_to 6896
  152.0658  133.4078  159.4446 H   0  0  0  0  0  0  0  0  0  0  0  0  # atno 6908 bound_to 6896
  150.6837  134.3068  159.4773 H   0  0  0  0  0  0  0  0  0  0  0  0  # atno 6909 bound_to 6896
  146.0711  140.6209  142.8952 H   0  0  0  0  0  0  0  0  0  0  0  0  # atno 7974 bound_to 7965
  154.4481  140.1004  156.6532 H   0  0  0  0  0  0  0  0  0  0  0  0  # atno 8008 bound_to 7997
  155.5375  140.3483  155.4421 H   0  0  0  0  0  0  0  0  0  0  0  0  # atno 8009 bound_to 7997
  156.0621  140.1329  156.9918 H   0  0  0  0  0  0  0  0  0  0  0  0  # atno 8010 bound_to 7997
  139.9673  144.5919  150.8017 H   0  0  0  0  0  0  0  0  0  0  0  0  # atno 10167 bound_to 10162
  156.0337  130.5554  150.7510 H   0  0  0  0  0  0  0  0  0  0  0  0  # atno 10718 bound_to 10713
  153.8602  135.3068  155.3437 H   0  0  0  0  0  0  0  0  0  0  0  0  # atno 10763 bound_to 10752
  154.7852  135.4813  153.9934 H   0  0  0  0  0  0  0  0  0  0  0  0  # atno 10764 bound_to 10752
  153.1466  135.6835  153.9039 H   0  0  0  0  0  0  0  0  0  0  0  0  # atno 10765 bound_to 10752
  140.8523  133.7848  155.9980 H   0  0  0  0  0  0  0  0  0  0  0  0  # atno 11005 bound_to 11000
  144.7232  140.4442  143.6992 LP  0  0  0  0  0  0  0  0  0  0  0  0  # atno 17320 bound_to 7965
  145.6389  139.1547  143.2926 LP  0  0  0  0  0  0  0  0  0  0  0  0  # atno 17321 bound_to 7965
  140.7534  143.3007  151.3088 LP  0  0  0  0  0  0  0  0  0  0  0  0  # atno 17342 bound_to 10162
  139.6508  144.0366  152.2625 LP  0  0  0  0  0  0  0  0  0  0  0  0  # atno 17343 bound_to 10162
  157.5055  131.0922  151.0263 LP  0  0  0  0  0  0  0  0  0  0  0  0  # atno 17370 bound_to 10713
  157.0632  130.5834  149.5389 LP  0  0  0  0  0  0  0  0  0  0  0  0  # atno 17371 bound_to 10713
  140.8776  134.2650  157.5160 LP  0  0  0  0  0  0  0  0  0  0  0  0  # atno 17394 bound_to 11000
  139.8704  134.9599  156.4346 LP  0  0  0  0  0  0  0  0  0  0  0  0  # atno 17395 bound_to 11000

$$$$
