AV-unprocessed.smi:2078|AV-procd|sdf|8473|dock4
  -GOLD-   2272011173D 1   1.00000     0.00000
 Structure written by MMmdl.
 41 42  0  0  0  0  0  0  0  0  3 V2000
  152.9585  143.4495  161.7387 C   0  0  0  0  0  0  0  0  0  0  0  0
  152.2414  142.9369  160.5370 C   0  0  0  0  0  0  0  0  0  0  0  0
  152.6055  142.0873  159.5306 C   0  0  0  0  0  0  0  0  0  0  0  0
  151.4423  142.0358  158.7176 C   0  0  0  0  0  0  0  0  0  0  0  0
  151.4081  141.2277  157.5509 N   0  0  0  0  0  0  0  0  0  0  0  0
  152.2273  140.2180  157.2074 C   0  0  0  0  0  0  0  0  0  0  0  0
  153.0783  139.8061  158.0050 O   0  0  0  0  0  0  0  0  0  0  0  0
  151.9951  139.7664  155.9435 N   0  5  0  0  0  0  0  0  0  0  0  0
  150.7011  139.8224  155.2556 C   0  0  0  0  0  0  0  0  0  0  0  0
  150.5169  138.5879  154.3452 C   0  0  0  0  0  0  0  0  0  0  0  0
  149.0855  138.3232  154.0354 N   0  3  1  0  0  0  0  0  0  0  0  0
  148.4060  137.4397  155.0199 C   0  0  0  0  0  0  0  0  0  0  0  0
  147.0091  137.0411  154.5204 C   0  0  0  0  0  0  0  0  0  0  0  0
  146.1602  138.2830  154.2105 C   0  0  0  0  0  0  0  0  0  0  0  0
  146.8895  139.2361  153.2444 C   0  0  2  0  0  0  0  0  0  0  0  0
  146.9076  138.7165  151.7956 C   0  0  0  0  0  0  0  0  0  0  0  0
  148.3051  139.5590  153.7670 C   0  0  0  0  0  0  0  0  0  0  0  0
  150.4540  142.7808  159.1907 N   0  0  0  0  0  0  0  0  0  0  0  0
  150.9619  143.3634  160.3580 O   0  0  0  0  0  0  0  0  0  0  0  0
  152.7799  142.8034  162.5981 H   0  0  0  0  0  0  0  0  0  0  0  0
  152.6228  144.4549  161.9947 H   0  0  0  0  0  0  0  0  0  0  0  0
  154.0334  143.4881  161.5616 H   0  0  0  0  0  0  0  0  0  0  0  0
  153.5522  141.5853  159.3982 H   0  0  0  0  0  0  0  0  0  0  0  0
  150.7005  141.4701  156.8732 H   0  0  0  0  0  0  0  0  0  0  0  0
  149.8617  139.8852  155.9494 H   0  0  0  0  0  0  0  0  0  0  0  0
  150.6300  140.7180  154.6389 H   0  0  0  0  0  0  0  0  0  0  0  0
  151.0805  138.7127  153.4197 H   0  0  0  0  0  0  0  0  0  0  0  0
  150.9624  137.7265  154.8452 H   0  0  0  0  0  0  0  0  0  0  0  0
  148.9971  136.5382  155.1845 H   0  0  0  0  0  0  0  0  0  0  0  0
  148.3328  137.9508  155.9809 H   0  0  0  0  0  0  0  0  0  0  0  0
  147.1025  136.4193  153.6292 H   0  0  0  0  0  0  0  0  0  0  0  0
  146.5084  136.4271  155.2693 H   0  0  0  0  0  0  0  0  0  0  0  0
  145.1928  137.9886  153.8025 H   0  0  0  0  0  0  0  0  0  0  0  0
  145.9504  138.8100  155.1422 H   0  0  0  0  0  0  0  0  0  0  0  0
  146.3289  140.1714  153.2256 H   0  0  0  0  0  0  0  0  0  0  0  0
  147.4458  137.7738  151.7063 H   0  0  0  0  0  0  0  0  0  0  0  0
  147.3889  139.4319  151.1283 H   0  0  0  0  0  0  0  0  0  0  0  0
  145.8951  138.5536  151.4256 H   0  0  0  0  0  0  0  0  0  0  0  0
  148.2416  140.1454  154.6848 H   0  0  0  0  0  0  0  0  0  0  0  0
  148.8283  140.1765  153.0355 H   0  0  0  0  0  0  0  0  0  0  0  0
  149.1032  137.8181  153.1595 H   0  0  0  0  0  0  0  0  0  0  0  0
  1  2  1  0  0  0  0
  1 20  1  0  0  0  0
  1 21  1  0  0  0  0
  1 22  1  0  0  0  0
  2 19  1  0  0  0  0
  2  3  2  0  0  0  0
  3  4  1  0  0  0  0
  3 23  1  0  0  0  0
  4  5  1  0  0  0  0
  4 18  2  0  0  0  0
  5  6  1  0  0  0  0
  5 24  1  0  0  0  0
  6  7  2  0  0  0  0
  6  8  1  0  0  0  0
  8  9  1  0  0  0  0
  9 10  1  0  0  0  0
  9 25  1  0  0  0  0
  9 26  1  0  0  0  0
 10 11  1  0  0  0  0
 10 27  1  0  0  0  0
 10 28  1  0  0  0  0
 11 17  1  0  0  0  0
 11 12  1  0  0  0  0
 11 41  1  0  0  0  0
 12 13  1  0  0  0  0
 12 29  1  0  0  0  0
 12 30  1  0  0  0  0
 13 14  1  0  0  0  0
 13 31  1  0  0  0  0
 13 32  1  0  0  0  0
 14 15  1  0  0  0  0
 14 33  1  0  0  0  0
 14 34  1  0  0  0  0
 15 16  1  0  0  0  0
 15 17  1  0  0  0  0
 15 35  1  0  0  0  0
 16 36  1  0  0  0  0
 16 37  1  0  0  0  0
 16 38  1  0  0  0  0
 17 39  1  0  0  0  0
 17 40  1  0  0  0  0
 18 19  1  0  0  0  0
M  CHG  1   8  -1
M  CHG  1  11   1
M  END
> <s_m_source_file>
AV-unprocessed.smi

> <i_m_source_file_index>
2078

> <i_lp_mmshare_version>
43012

> <i_f3d_flags>
0

> <s_epik_input>
W0NIM11jMVtjSF1jKG5vMSlbTkhdQyg9TylbTkhdW0NIMl1bQ0gyXU4yW0NIMl1bQ0gyXVtDSDJdW0NAQEhdKFtDSDNdKVtDSDJdMg==

> <s_epik_cmdline>
J2VwaWtfcHl0aG9uJywgJy1waCcsICc3LjAnLCAnLXRuJywgJzgnLCAnLW1hJywgJzIwMCcsICctbWV0YWxfYmluZGluZycsICctaW1hZScsICc8aW5maWxlLm1hZT4nLCAnLW9tYWUnLCAnPG91dGZpbGUubWFlPic=

> <r_epik_Ionization_Penalty>
6.76934

> <r_epik_Ionization_Penalty_Charging>
6.76934

> <r_epik_Ionization_Penalty_Neutral>
5.77849e-06

> <r_epik_State_Penalty>
6.79457

> <r_epik_Charging_Adjusted_Penalty>
13.5639

> <i_epik_Tot_Q>
0

> <i_epik_Tot_abs_Q>
2

> <r_epik_Metal_State_Penalty>
2.72837

> <b_epik_Metal_Only>
1

> <s_lp_Force_Field>
OPLS_2005

> <r_lp_Energy>
11.5184

> <b_lp_Chiralities_Consistent>
1

> <s_lp_Variant>
AV-unprocessed.smi:2078-11

> <Gold.Version>
5.8.1

> <Gold.Id.Protein>
6NUR|6NUR_protein|mol2

> <Gold.PLP.Fitness>
40.1743

> <Gold.PLP.PLP>
-32.6428

> <Gold.PLP.part.hbond>
-4.0000

> <Gold.PLP.part.metal>
0.0000

> <Gold.PLP.part.buried>
-1.3267

> <Gold.PLP.part.nonpolar>
-25.9562

> <Gold.PLP.part.repulsive>
0.2193

> <Gold.PLP.ligand.clash>
0.0000

> <Gold.PLP.ligand.torsion>
0.7871

> <Gold.PLP.Chemscore.Hbond>
3.0000

> <Gold.PLP.Chemscore.CHOScore>
0.0000

> <Gold.PLP.Chemscore.Metal>
0.0000

> <Gold.Chemscore.Hbonds>
donor molecule, donor type, donor heavy atom, donor atom, acceptor molecule, acceptor atom, score
      L1  H    11    41       P1  7948  2.00
      P1  H  7997  8009       L1     7  0.80

> <Gold.PLP.Chemscore.Internal.Correction>
0.1057

> <Gold.Rescore>
     Score         DG    S(hbond)    S(metal)    S(lipo)     H(rot)  DE(clash)    DE(int)     intcor
     14.75     -17.04       1.93        0.00      77.32       1.54       0.18       2.11       ----

> <Gold.Chemscore.Fitness>
14.7544

> <Gold.Chemscore.DG>
-17.0413

> <Gold.Chemscore.ZeroCoef>
-5.4800

> <Gold.Chemscore.Hbond>
1.9341

> <Gold.Chemscore.Metal>
0.0000

> <Gold.Chemscore.Lipo>
77.3169

> <Gold.Chemscore.Internal_Hbond>
0.0000

> <Gold.Chemscore.DEClash>
0.1791

> <Gold.Chemscore.DEInternal>
2.1078

> <Gold.Chemscore.Rot>
1.5409

> <Gold.Chemscore.Internal.Correction>
   9.000000E+99

> <Gold.Chemscore.Hbonds>
donor molecule, donor type, donor heavy atom, donor atom, acceptor molecule, acceptor atom, score
      L1  H    11    41       P1  7948  0.93
      P1  H  7997  8009       L1     7  0.12

> <Gold.Chemscore.Hbond.Weighted>
-6.4598

> <Gold.Chemscore.Metal.Weighted>
-0.0000

> <Gold.Chemscore.Lipo.Weighted>
-9.0461

> <Gold.Chemscore.Internal_Hbond.Weighted>
0.0000

> <Gold.Chemscore.DEClash.Weighted>
0.1791

> <Gold.Chemscore.DEInternal.Weighted>
2.1078

> <Gold.Chemscore.Rot.Weighted>
3.9446

> <Gold.Chemscore.Internal.Correction.Weighted>
   9.000000E+99

> <Gold.Protein.RotatedTorsions>
[ 6907 6896 6895 6894 ] final -146.04 input  -60.11 | X-H torsion
[ 7974 7965 7964 7962 ] final  132.88 input  175.53 | X-H torsion
[ 8008 7997 7996 7995 ] final  163.29 input   59.86 | X-H torsion
[ 10167 10162 10161 10158 ] final   88.95 input  -65.29 | X-H torsion
[ 10718 10713 10712 10709 ] final  -27.48 input   66.30 | X-H torsion
[ 10763 10752 10751 10750 ] final    7.05 input  -60.55 | X-H torsion
[ 11005 11000 10999 10996 ] final  -33.46 input  -57.11 | X-H torsion

> <Gold.Protein.ActiveResidues>
 VAL166  LYS551  ARG553  GLY616  TRP617  ASP618  TYR619  PRO620  LYS621  CYS622 
 ASP623  PHE694  ASN695  SER759  ASP760  ASP761  ALA762  ILE779  LEU786  VAL792 
 PHE793  MET794  SER795  GLU796  ALA797  LYS798  CYS799  TRP800  GLU811  SER814 

> <Gold.Protein.RotatedAtoms>
  151.1361  133.5003  159.2597 H   0  0  0  0  0  0  0  0  0  0  0  0  # atno 6907 bound_to 6896
  151.1705  135.0315  159.8760 H   0  0  0  0  0  0  0  0  0  0  0  0  # atno 6908 bound_to 6896
  152.5461  134.1224  159.8458 H   0  0  0  0  0  0  0  0  0  0  0  0  # atno 6909 bound_to 6896
  144.9923  139.4394  143.5333 H   0  0  0  0  0  0  0  0  0  0  0  0  # atno 7974 bound_to 7965
  156.1968  140.1727  156.7982 H   0  0  0  0  0  0  0  0  0  0  0  0  # atno 8008 bound_to 7997
  154.5539  140.0712  156.8744 H   0  0  0  0  0  0  0  0  0  0  0  0  # atno 8009 bound_to 7997
  155.2975  140.3359  155.4251 H   0  0  0  0  0  0  0  0  0  0  0  0  # atno 8010 bound_to 7997
  139.8621  144.6538  150.9046 H   0  0  0  0  0  0  0  0  0  0  0  0  # atno 10167 bound_to 10162
  156.4376  130.4457  149.7075 H   0  0  0  0  0  0  0  0  0  0  0  0  # atno 10718 bound_to 10713
  153.2407  135.6903  153.7786 H   0  0  0  0  0  0  0  0  0  0  0  0  # atno 10763 bound_to 10752
  153.6917  135.3312  155.3204 H   0  0  0  0  0  0  0  0  0  0  0  0  # atno 10764 bound_to 10752
  154.8354  135.4547  154.1328 H   0  0  0  0  0  0  0  0  0  0  0  0  # atno 10765 bound_to 10752
  140.9637  133.7149  156.1410 H   0  0  0  0  0  0  0  0  0  0  0  0  # atno 11005 bound_to 11000
  146.3434  139.9262  142.8760 LP  0  0  0  0  0  0  0  0  0  0  0  0  # atno 17320 bound_to 7965
  145.2268  140.9957  143.4013 LP  0  0  0  0  0  0  0  0  0  0  0  0  # atno 17321 bound_to 7965
  140.7773  143.3735  151.1605 LP  0  0  0  0  0  0  0  0  0  0  0  0  # atno 17342 bound_to 10162
  139.7364  143.8993  152.3036 LP  0  0  0  0  0  0  0  0  0  0  0  0  # atno 17343 bound_to 10162
  156.3953  130.7647  151.2651 LP  0  0  0  0  0  0  0  0  0  0  0  0  # atno 17370 bound_to 10713
  157.7507  131.0256  150.3925 LP  0  0  0  0  0  0  0  0  0  0  0  0  # atno 17371 bound_to 10713
  140.7431  134.4128  157.5552 LP  0  0  0  0  0  0  0  0  0  0  0  0  # atno 17394 bound_to 11000
  139.8887  134.8850  156.2461 LP  0  0  0  0  0  0  0  0  0  0  0  0  # atno 17395 bound_to 11000

$$$$
