AV-unprocessed.smi:2438|AV-procd|sdf|9595|dock1
  -GOLD-   2272013223D 1   1.00000     0.00000
 Structure written by MMmdl.
 43 44  0  0  0  0  0  0  0  0  1 V2000
  148.7503  136.5142  160.2417 C   0  0  0  0  0  0  0  0  0  0  0  0
  149.0281  137.3664  159.0937 N   0  0  0  0  0  0  0  0  0  0  0  0
  147.8687  137.9577  158.4374 C   0  0  0  0  0  0  0  0  0  0  0  0
  150.0292  136.8492  158.2468 C   0  0  0  0  0  0  0  0  0  0  0  0
  149.7264  135.7628  157.4953 N   0  0  0  0  0  0  0  0  0  0  0  0
  150.6847  135.2675  156.7107 C   0  0  0  0  0  0  0  0  0  0  0  0
  151.9257  135.7349  156.5776 N   0  0  0  0  0  0  0  0  0  0  0  0
  152.2494  136.8175  157.3149 C   0  0  0  0  0  0  0  0  0  0  0  0
  151.3240  137.4299  158.1962 C   0  0  0  0  0  0  0  0  0  0  0  0
  151.6162  138.6006  158.9503 N   0  0  0  0  0  0  0  0  0  0  0  0
  152.5957  139.4958  158.7447 C   0  0  0  0  0  0  0  0  0  0  0  0
  153.4125  139.4569  157.8251 O   0  0  0  0  0  0  0  0  0  0  0  0
  152.5907  140.4420  159.6940 N   0  0  0  0  0  0  0  0  0  0  0  0
  153.5387  141.5509  159.7934 C   0  0  2  0  0  0  0  0  0  0  0  0
  154.0876  141.6983  161.2282 C   0  0  0  0  0  0  0  0  0  0  0  0
  153.0166  142.2077  162.2060 C   0  0  0  0  0  0  0  0  0  0  0  0
  152.3956  143.5248  161.7152 C   0  0  0  0  0  0  0  0  0  0  0  0
  151.8031  143.3832  160.2971 C   0  0  1  0  0  0  0  0  0  0  0  0
  151.1638  144.6979  159.8040 C   0  0  0  0  0  0  0  0  0  0  0  0
  151.9667  145.7356  160.0412 F   0  0  0  0  0  0  0  0  0  0  0  0
  150.9275  144.6260  158.4939 F   0  0  0  0  0  0  0  0  0  0  0  0
  150.0017  144.9011  160.4248 F   0  0  0  0  0  0  0  0  0  0  0  0
  152.8805  142.8618  159.3179 C   0  0  0  0  0  0  0  0  0  0  0  0
  149.6417  136.3498  160.8468 H   0  0  0  0  0  0  0  0  0  0  0  0
  148.3758  135.5435  159.9143 H   0  0  0  0  0  0  0  0  0  0  0  0
  147.9945  136.9708  160.8815 H   0  0  0  0  0  0  0  0  0  0  0  0
  148.1739  138.6014  157.6114 H   0  0  0  0  0  0  0  0  0  0  0  0
  147.3051  138.5665  159.1447 H   0  0  0  0  0  0  0  0  0  0  0  0
  147.2049  137.1845  158.0488 H   0  0  0  0  0  0  0  0  0  0  0  0
  150.4272  134.4012  156.1199 H   0  0  0  0  0  0  0  0  0  0  0  0
  153.2476  137.1989  157.1658 H   0  0  0  0  0  0  0  0  0  0  0  0
  151.0753  138.7154  159.7951 H   0  0  0  0  0  0  0  0  0  0  0  0
  151.8820  140.3875  160.4108 H   0  0  0  0  0  0  0  0  0  0  0  0
  154.3741  141.3383  159.1237 H   0  0  0  0  0  0  0  0  0  0  0  0
  154.4980  140.7521  161.5827 H   0  0  0  0  0  0  0  0  0  0  0  0
  154.9214  142.4015  161.2187 H   0  0  0  0  0  0  0  0  0  0  0  0
  152.2361  141.4551  162.3248 H   0  0  0  0  0  0  0  0  0  0  0  0
  153.4566  142.3512  163.1932 H   0  0  0  0  0  0  0  0  0  0  0  0
  151.6222  143.8411  162.4155 H   0  0  0  0  0  0  0  0  0  0  0  0
  153.1550  144.3076  161.7222 H   0  0  0  0  0  0  0  0  0  0  0  0
  151.0068  142.6390  160.3462 H   0  0  0  0  0  0  0  0  0  0  0  0
  153.6549  143.6211  159.2012 H   0  0  0  0  0  0  0  0  0  0  0  0
  152.4510  142.7175  158.3257 H   0  0  0  0  0  0  0  0  0  0  0  0
  1  2  1  0  0  0  0
  1 24  1  0  0  0  0
  1 25  1  0  0  0  0
  1 26  1  0  0  0  0
  2  3  1  0  0  0  0
  2  4  1  0  0  0  0
  3 27  1  0  0  0  0
  3 28  1  0  0  0  0
  3 29  1  0  0  0  0
  4  9  1  0  0  0  0
  4  5  2  0  0  0  0
  5  6  1  0  0  0  0
  6  7  2  0  0  0  0
  6 30  1  0  0  0  0
  7  8  1  0  0  0  0
  8  9  2  0  0  0  0
  8 31  1  0  0  0  0
  9 10  1  0  0  0  0
 10 11  1  0  0  0  0
 10 32  1  0  0  0  0
 11 12  2  0  0  0  0
 11 13  1  0  0  0  0
 13 14  1  0  0  0  0
 13 33  1  0  0  0  0
 14 23  1  0  0  0  0
 14 15  1  0  0  0  0
 14 34  1  0  0  0  0
 15 16  1  0  0  0  0
 15 35  1  0  0  0  0
 15 36  1  0  0  0  0
 16 17  1  0  0  0  0
 16 37  1  0  0  0  0
 16 38  1  0  0  0  0
 17 18  1  0  0  0  0
 17 39  1  0  0  0  0
 17 40  1  0  0  0  0
 18 19  1  0  0  0  0
 18 23  1  0  0  0  0
 18 41  1  0  0  0  0
 19 20  1  0  0  0  0
 19 21  1  0  0  0  0
 19 22  1  0  0  0  0
 23 42  1  0  0  0  0
 23 43  1  0  0  0  0
M  END
> <s_m_source_file>
AV-unprocessed.smi

> <i_m_source_file_index>
2438

> <i_lp_mmshare_version>
43012

> <i_f3d_flags>
0

> <s_epik_input>
W0NIM11OKFtDSDNdKWMxbltjSF1uW2NIXWMxW05IXUMoPU8pW05IXVtDQEBIXTJbQ0gyXVtDSDJdW0NIMl1bQ0BASF0oQyhGKShGKUYpW0NIMl0y

> <s_epik_cmdline>
J2VwaWtfcHl0aG9uJywgJy1waCcsICc3LjAnLCAnLXRuJywgJzgnLCAnLW1hJywgJzIwMCcsICctbWV0YWxfYmluZGluZycsICctaW1hZScsICc8aW5maWxlLm1hZT4nLCAnLW9tYWUnLCAnPG91dGZpbGUubWFlPic=

> <r_lp_tautomer_probability>
1

> <r_epik_Ionization_Penalty>
0.01759

> <r_epik_Ionization_Penalty_Charging>
0

> <r_epik_Ionization_Penalty_Neutral>
0.01759

> <r_epik_State_Penalty>
0.0133536

> <r_epik_Charging_Adjusted_Penalty>
0.0133536

> <i_epik_Tot_Q>
0

> <i_epik_Tot_abs_Q>
0

> <r_epik_Metal_State_Penalty>
0.0129828

> <b_epik_Metal_Only>
0

> <s_lp_Force_Field>
OPLS_2005

> <r_lp_Energy>
11.7103

> <b_lp_Chiralities_Consistent>
1

> <s_lp_Variant>
AV-unprocessed.smi:2438-1

> <Gold.Version>
5.8.1

> <Gold.Id.Protein>
6NUR|6NUR_protein|mol2

> <Gold.PLP.Fitness>
51.2676

> <Gold.PLP.PLP>
-46.5312

> <Gold.PLP.part.hbond>
-2.0000

> <Gold.PLP.part.metal>
0.0000

> <Gold.PLP.part.buried>
-5.3668

> <Gold.PLP.part.nonpolar>
-38.8679

> <Gold.PLP.part.repulsive>
0.2488

> <Gold.PLP.ligand.clash>
0.0000

> <Gold.PLP.ligand.torsion>
0.8106

> <Gold.PLP.Chemscore.Hbond>
2.0000

> <Gold.PLP.Chemscore.CHOScore>
0.0000

> <Gold.PLP.Chemscore.Metal>
0.0000

> <Gold.Chemscore.Hbonds>
donor molecule, donor type, donor heavy atom, donor atom, acceptor molecule, acceptor atom, score
      P1  H  7997  8009       L1    12  0.99
      P1  H 10752 10765       L1     7  1.00

> <Gold.PLP.Chemscore.Internal.Correction>
0.3576

> <Gold.Rescore>
     Score         DG    S(hbond)    S(metal)    S(lipo)     H(rot)  DE(clash)    DE(int)     intcor
     17.36     -19.14       1.89        0.00      91.26       1.30       0.01       1.77       ----

> <Gold.Chemscore.Fitness>
17.3637

> <Gold.Chemscore.DG>
-19.1439

> <Gold.Chemscore.ZeroCoef>
-5.4800

> <Gold.Chemscore.Hbond>
1.8896

> <Gold.Chemscore.Metal>
0.0000

> <Gold.Chemscore.Lipo>
91.2570

> <Gold.Chemscore.Internal_Hbond>
0.0000

> <Gold.Chemscore.DEClash>
0.0101

> <Gold.Chemscore.DEInternal>
1.7701

> <Gold.Chemscore.Rot>
1.2987

> <Gold.Chemscore.Internal.Correction>
   9.000000E+99

> <Gold.Chemscore.Hbonds>
donor molecule, donor type, donor heavy atom, donor atom, acceptor molecule, acceptor atom, score
      P1  H  7997  8009       L1    12  0.94
      P1  H 10752 10765       L1     7  0.68

> <Gold.Chemscore.Hbond.Weighted>
-6.3114

> <Gold.Chemscore.Metal.Weighted>
-0.0000

> <Gold.Chemscore.Lipo.Weighted>
-10.6771

> <Gold.Chemscore.Internal_Hbond.Weighted>
0.0000

> <Gold.Chemscore.DEClash.Weighted>
0.0101

> <Gold.Chemscore.DEInternal.Weighted>
1.7701

> <Gold.Chemscore.Rot.Weighted>
3.3246

> <Gold.Chemscore.Internal.Correction.Weighted>
   9.000000E+99

> <Gold.Protein.RotatedTorsions>
[ 6907 6896 6895 6894 ] final -135.26 input  -60.11 | X-H torsion
[ 7974 7965 7964 7962 ] final -101.59 input  175.53 | X-H torsion
[ 8008 7997 7996 7995 ] final  138.45 input   59.86 | X-H torsion
[ 10167 10162 10161 10158 ] final  152.45 input  -65.29 | X-H torsion
[ 10718 10713 10712 10709 ] final  175.07 input   66.30 | X-H torsion
[ 10763 10752 10751 10750 ] final -131.49 input  -60.55 | X-H torsion
[ 11005 11000 10999 10996 ] final   13.63 input  -57.11 | X-H torsion

> <Gold.Protein.ActiveResidues>
 VAL166  LYS551  ARG553  GLY616  TRP617  ASP618  TYR619  PRO620  LYS621  CYS622 
 ASP623  PHE694  ASN695  SER759  ASP760  ASP761  ALA762  ILE779  LEU786  VAL792 
 PHE793  MET794  SER795  GLU796  ALA797  LYS798  CYS799  TRP800  GLU811  SER814 

> <Gold.Protein.RotatedAtoms>
  150.9957  133.6106  159.2701 H   0  0  0  0  0  0  0  0  0  0  0  0  # atno 6907 bound_to 6896
  151.3310  135.0840  159.9348 H   0  0  0  0  0  0  0  0  0  0  0  0  # atno 6908 bound_to 6896
  152.5259  133.9586  159.7760 H   0  0  0  0  0  0  0  0  0  0  0  0  # atno 6909 bound_to 6896
  145.2796  140.9323  143.2939 H   0  0  0  0  0  0  0  0  0  0  0  0  # atno 7974 bound_to 7965
  156.2997  140.2393  156.4075 H   0  0  0  0  0  0  0  0  0  0  0  0  # atno 8008 bound_to 7997
  154.8471  140.0425  157.1599 H   0  0  0  0  0  0  0  0  0  0  0  0  # atno 8009 bound_to 7997
  154.9039  140.2981  155.5306 H   0  0  0  0  0  0  0  0  0  0  0  0  # atno 8010 bound_to 7997
  139.4833  144.5357  151.7649 H   0  0  0  0  0  0  0  0  0  0  0  0  # atno 10167 bound_to 10162
  156.9403  130.9999  151.2970 H   0  0  0  0  0  0  0  0  0  0  0  0  # atno 10718 bound_to 10713
  154.8750  135.3828  154.4254 H   0  0  0  0  0  0  0  0  0  0  0  0  # atno 10763 bound_to 10752
  153.4953  135.7030  153.5866 H   0  0  0  0  0  0  0  0  0  0  0  0  # atno 10764 bound_to 10752
  153.4222  135.3899  155.2085 H   0  0  0  0  0  0  0  0  0  0  0  0  # atno 10765 bound_to 10752
  140.4785  134.0959  155.7746 H   0  0  0  0  0  0  0  0  0  0  0  0  # atno 11005 bound_to 11000
  144.9264  139.4350  143.6516 LP  0  0  0  0  0  0  0  0  0  0  0  0  # atno 17320 bound_to 7965
  146.3220  139.8152  142.8938 LP  0  0  0  0  0  0  0  0  0  0  0  0  # atno 17321 bound_to 7965
  140.4889  144.1339  150.5946 LP  0  0  0  0  0  0  0  0  0  0  0  0  # atno 17342 bound_to 10162
  140.4193  143.2619  151.9735 LP  0  0  0  0  0  0  0  0  0  0  0  0  # atno 17343 bound_to 10162
  157.5789  130.8362  149.8495 LP  0  0  0  0  0  0  0  0  0  0  0  0  # atno 17370 bound_to 10713
  156.0407  130.3739  150.1442 LP  0  0  0  0  0  0  0  0  0  0  0  0  # atno 17371 bound_to 10713
  141.1542  133.8912  157.2019 LP  0  0  0  0  0  0  0  0  0  0  0  0  # atno 17394 bound_to 11000
  139.9841  135.0088  156.9820 LP  0  0  0  0  0  0  0  0  0  0  0  0  # atno 17395 bound_to 11000

$$$$
