AV-unprocessed.smi:36|AV-procd|sdf|302|dock1
  -GOLD-   2262016103D 1   1.00000     0.00000
 Structure written by MMmdl.
 63 66  0  0  0  0  0  0  0  0  2 V2000
  150.2940  129.0304  154.6154 C   0  0  0  0  0  0  0  0  0  0  0  0
  151.4089  128.9749  155.6728 C   0  0  0  0  0  0  0  0  0  0  0  0
  151.8953  127.5264  155.8466 C   0  0  0  0  0  0  0  0  0  0  0  0
  152.5837  129.8671  155.2394 C   0  0  0  0  0  0  0  0  0  0  0  0
  150.7310  129.6058  157.3436 Si  0  0  0  0  0  0  0  0  0  0  0  0
  149.2658  128.5504  157.9345 C   0  0  0  0  0  0  0  0  0  0  0  0
  152.0908  129.6210  158.6707 C   0  0  0  0  0  0  0  0  0  0  0  0
  150.1856  131.1908  157.1169 O   0  0  0  0  0  0  0  0  0  0  0  0
  149.3402  131.5819  156.0558 C   0  0  0  0  0  0  0  0  0  0  0  0
  149.2493  133.1125  156.0194 C   0  0  1  0  0  0  0  0  0  0  0  0
  150.4784  133.6618  155.5556 O   0  0  0  0  0  0  0  0  0  0  0  0
  150.2472  134.8873  154.9236 C   0  0  2  0  0  0  0  0  0  0  0  0
  150.8654  135.9672  155.7507 N   0  0  0  0  0  0  0  0  0  0  0  0
  151.4264  135.8747  156.9741 C   0  0  0  0  0  0  0  0  0  0  0  0
  151.9130  136.9914  157.5114 N   0  0  0  0  0  0  0  0  0  0  0  0
  151.6354  137.9227  156.5215 C   0  0  0  0  0  0  0  0  0  0  0  0
  151.8754  139.3210  156.4273 C   0  0  0  0  0  0  0  0  0  0  0  0
  152.4880  140.0162  157.3978 N   0  5  0  0  0  0  0  0  0  0  0  0
  152.0350  141.2502  157.7353 C   0  0  0  0  0  0  0  0  0  0  0  0
  151.3769  142.0301  157.0432 O   0  0  0  0  0  0  0  0  0  0  0  0
  152.4678  141.6882  159.1088 C   0  0  0  0  0  0  0  0  0  0  0  0
  153.4591  140.9535  159.7985 C   0  0  0  0  0  0  0  0  0  0  0  0
  153.8998  141.3651  161.0714 C   0  0  0  0  0  0  0  0  0  0  0  0
  153.3604  142.5216  161.6648 C   0  0  0  0  0  0  0  0  0  0  0  0
  152.3821  143.2685  160.9825 C   0  0  0  0  0  0  0  0  0  0  0  0
  151.9408  142.8578  159.7095 C   0  0  0  0  0  0  0  0  0  0  0  0
  151.4732  139.9380  155.2868 N   0  0  0  0  0  0  0  0  0  0  0  0
  150.8668  139.2412  154.3181 C   0  0  0  0  0  0  0  0  0  0  0  0
  150.5725  137.9374  154.2778 N   0  0  0  0  0  0  0  0  0  0  0  0
  150.9830  137.3048  155.4154 C   0  0  0  0  0  0  0  0  0  0  0  0
  148.7290  135.0851  154.8436 C   0  0  0  0  0  0  0  0  0  0  0  0
  148.2212  133.6698  155.0340 C   0  0  2  0  0  0  0  0  0  0  0  0
  146.9083  133.6659  155.5570 O   0  0  0  0  0  0  0  0  0  0  0  0
  150.6496  128.6761  153.6472 H   0  0  0  0  0  0  0  0  0  0  0  0
  149.9276  130.0481  154.4780 H   0  0  0  0  0  0  0  0  0  0  0  0
  149.4439  128.4099  154.9001 H   0  0  0  0  0  0  0  0  0  0  0  0
  151.0802  126.8656  156.1424 H   0  0  0  0  0  0  0  0  0  0  0  0
  152.6679  127.4581  156.6135 H   0  0  0  0  0  0  0  0  0  0  0  0
  152.3152  127.1346  154.9197 H   0  0  0  0  0  0  0  0  0  0  0  0
  153.0120  129.5278  154.2954 H   0  0  0  0  0  0  0  0  0  0  0  0
  153.3804  129.8619  155.9838 H   0  0  0  0  0  0  0  0  0  0  0  0
  152.2678  130.9015  155.1023 H   0  0  0  0  0  0  0  0  0  0  0  0
  149.5490  127.5060  158.0630 H   0  0  0  0  0  0  0  0  0  0  0  0
  148.4393  128.5792  157.2248 H   0  0  0  0  0  0  0  0  0  0  0  0
  148.8819  128.9022  158.8918 H   0  0  0  0  0  0  0  0  0  0  0  0
  152.5045  128.6260  158.8318 H   0  0  0  0  0  0  0  0  0  0  0  0
  151.7105  129.9715  159.6296 H   0  0  0  0  0  0  0  0  0  0  0  0
  152.9162  130.2753  158.3913 H   0  0  0  0  0  0  0  0  0  0  0  0
  149.7649  131.2116  155.1225 H   0  0  0  0  0  0  0  0  0  0  0  0
  148.3524  131.1331  156.1643 H   0  0  0  0  0  0  0  0  0  0  0  0
  149.0673  133.5039  157.0220 H   0  0  0  0  0  0  0  0  0  0  0  0
  150.7537  134.9215  153.9585 H   0  0  0  0  0  0  0  0  0  0  0  0
  151.4813  134.9348  157.5029 H   0  0  0  0  0  0  0  0  0  0  0  0
  153.8854  140.0650  159.3555 H   0  0  0  0  0  0  0  0  0  0  0  0
  154.6545  140.7936  161.5909 H   0  0  0  0  0  0  0  0  0  0  0  0
  153.6998  142.8382  162.6398 H   0  0  0  0  0  0  0  0  0  0  0  0
  151.9718  144.1601  161.4333 H   0  0  0  0  0  0  0  0  0  0  0  0
  151.1978  143.4522  159.1974 H   0  0  0  0  0  0  0  0  0  0  0  0
  150.5763  139.8111  153.4482 H   0  0  0  0  0  0  0  0  0  0  0  0
  148.3944  135.7328  155.6565 H   0  0  0  0  0  0  0  0  0  0  0  0
  148.4388  135.5322  153.8924 H   0  0  0  0  0  0  0  0  0  0  0  0
  148.2536  133.1266  154.0885 H   0  0  0  0  0  0  0  0  0  0  0  0
  146.4665  134.4483  155.2642 H   0  0  0  0  0  0  0  0  0  0  0  0
  1  2  1  0  0  0  0
  1 34  1  0  0  0  0
  1 35  1  0  0  0  0
  1 36  1  0  0  0  0
  2  3  1  0  0  0  0
  2  4  1  0  0  0  0
  2  5  1  0  0  0  0
  3 37  1  0  0  0  0
  3 38  1  0  0  0  0
  3 39  1  0  0  0  0
  4 40  1  0  0  0  0
  4 41  1  0  0  0  0
  4 42  1  0  0  0  0
  5  6  1  0  0  0  0
  5  7  1  0  0  0  0
  5  8  1  0  0  0  0
  6 43  1  0  0  0  0
  6 44  1  0  0  0  0
  6 45  1  0  0  0  0
  7 46  1  0  0  0  0
  7 47  1  0  0  0  0
  7 48  1  0  0  0  0
  8  9  1  0  0  0  0
  9 10  1  0  0  0  0
  9 49  1  0  0  0  0
  9 50  1  0  0  0  0
 10 32  1  0  0  0  0
 10 11  1  0  0  0  0
 10 51  1  0  0  0  0
 11 12  1  0  0  0  0
 12 13  1  0  0  0  0
 12 31  1  0  0  0  0
 12 52  1  0  0  0  0
 13 30  1  0  0  0  0
 13 14  1  0  0  0  0
 14 15  2  0  0  0  0
 14 53  1  0  0  0  0
 15 16  1  0  0  0  0
 16 30  2  0  0  0  0
 16 17  1  0  0  0  0
 17 18  1  0  0  0  0
 17 27  2  0  0  0  0
 18 19  1  0  0  0  0
 19 20  2  0  0  0  0
 19 21  1  0  0  0  0
 21 26  1  0  0  0  0
 21 22  2  0  0  0  0
 22 23  1  0  0  0  0
 22 54  1  0  0  0  0
 23 24  2  0  0  0  0
 23 55  1  0  0  0  0
 24 25  1  0  0  0  0
 24 56  1  0  0  0  0
 25 26  2  0  0  0  0
 25 57  1  0  0  0  0
 26 58  1  0  0  0  0
 27 28  1  0  0  0  0
 28 29  2  0  0  0  0
 28 59  1  0  0  0  0
 29 30  1  0  0  0  0
 31 32  1  0  0  0  0
 31 60  1  0  0  0  0
 31 61  1  0  0  0  0
 32 33  1  0  0  0  0
 32 62  1  0  0  0  0
 33 63  1  0  0  0  0
M  CHG  1  18  -1
M  END
> <s_m_source_file>
AV-unprocessed.smi

> <i_m_source_file_index>
36

> <i_lp_mmshare_version>
43012

> <i_f3d_flags>
0

> <s_epik_input>
W0NIM11DKFtDSDNdKShbQ0gzXSlbU2ldKFtDSDNdKShbQ0gzXSlPW0NIMl1bQ0BASF0xT1tDQEhdKFtDSDJdW0NASF0xW09IXSluKFtjSF1uMiljKGMyMyluW2NIXW5jM1tOSF1DKD1PKWM0W2NIXVtjSF1bY0hdW2NIXVtjSF00

> <s_epik_cmdline>
J2VwaWtfcHl0aG9uJywgJy1waCcsICc3LjAnLCAnLXRuJywgJzgnLCAnLW1hJywgJzIwMCcsICctbWV0YWxfYmluZGluZycsICctaW1hZScsICc8aW5maWxlLm1hZT4nLCAnLW9tYWUnLCAnPG91dGZpbGUubWFlPic=

> <r_lp_tautomer_probability>
1

> <r_epik_Ionization_Penalty>
4.75685

> <r_epik_Ionization_Penalty_Charging>
3.55822

> <r_epik_Ionization_Penalty_Neutral>
1.19863

> <r_epik_State_Penalty>
3.564

> <r_epik_Charging_Adjusted_Penalty>
7.12222

> <i_epik_Tot_Q>
-1

> <i_epik_Tot_abs_Q>
1

> <r_epik_Metal_State_Penalty>
0.523258

> <b_epik_Metal_Only>
1

> <s_epik_Chemistry_Notes>
This compound contains an acetal/aminal-like group ( X-CH(R)-Y where X, Y are N, S, or O) that may be acid/base labile, releasing an aldehyde.

> <s_lp_Force_Field>
OPLS_2005

> <r_lp_Energy>
39.042

> <b_lp_Chiralities_Consistent>
1

> <s_lp_Variant>
AV-unprocessed.smi:36-24

> <Gold.Version>
5.8.1

> <Gold.Id.Protein>
6NUR|6NUR_protein|mol2

> <Gold.PLP.Fitness>
52.0705

> <Gold.PLP.PLP>
-44.1390

> <Gold.PLP.part.hbond>
-2.0000

> <Gold.PLP.part.metal>
0.0000

> <Gold.PLP.part.buried>
-2.9554

> <Gold.PLP.part.nonpolar>
-37.6284

> <Gold.PLP.part.repulsive>
0.3384

> <Gold.PLP.ligand.clash>
0.0000

> <Gold.PLP.ligand.torsion>
0.8098

> <Gold.PLP.Chemscore.Hbond>
2.0000

> <Gold.PLP.Chemscore.CHOScore>
1.0000

> <Gold.PLP.Chemscore.Metal>
0.0000

> <Gold.Chemscore.Hbonds>
donor molecule, donor type, donor heavy atom, donor atom, acceptor molecule, acceptor atom, score
      P1  H  7997  8010       L1    18  1.98
      L1  C    28    59       P1  7957  1.00

> <Gold.PLP.Chemscore.Internal.Correction>
0.5510

> <Gold.Rescore>
     Score         DG    S(hbond)    S(metal)    S(lipo)     H(rot)  DE(clash)    DE(int)     intcor
     10.18     -12.47       0.57        0.00     101.73       2.67       0.02       2.26       ----

> <Gold.Chemscore.Fitness>
10.1796

> <Gold.Chemscore.DG>
-12.4658

> <Gold.Chemscore.ZeroCoef>
-5.4800

> <Gold.Chemscore.Hbond>
0.5747

> <Gold.Chemscore.Metal>
0.0000

> <Gold.Chemscore.Lipo>
101.7255

> <Gold.Chemscore.Internal_Hbond>
0.0000

> <Gold.Chemscore.DEClash>
0.0246

> <Gold.Chemscore.DEInternal>
2.2616

> <Gold.Chemscore.Rot>
2.6702

> <Gold.Chemscore.Internal.Correction>
   9.000000E+99

> <Gold.Chemscore.Hbonds>
donor molecule, donor type, donor heavy atom, donor atom, acceptor molecule, acceptor atom, score
      P1  H  7997  8010       L1    18  0.18

> <Gold.Chemscore.Hbond.Weighted>
-1.9196

> <Gold.Chemscore.Metal.Weighted>
-0.0000

> <Gold.Chemscore.Lipo.Weighted>
-11.9019

> <Gold.Chemscore.Internal_Hbond.Weighted>
0.0000

> <Gold.Chemscore.DEClash.Weighted>
0.0246

> <Gold.Chemscore.DEInternal.Weighted>
2.2616

> <Gold.Chemscore.Rot.Weighted>
6.8358

> <Gold.Chemscore.Internal.Correction.Weighted>
   9.000000E+99

> <Gold.Protein.RotatedTorsions>
[ 6907 6896 6895 6894 ] final   78.99 input  -60.11 | X-H torsion
[ 7974 7965 7964 7962 ] final   77.42 input  175.53 | X-H torsion
[ 8008 7997 7996 7995 ] final   62.08 input   59.86 | X-H torsion
[ 10167 10162 10161 10158 ] final   56.71 input  -65.29 | X-H torsion
[ 10718 10713 10712 10709 ] final  160.42 input   66.30 | X-H torsion
[ 10763 10752 10751 10750 ] final   22.44 input  -60.55 | X-H torsion
[ 11005 11000 10999 10996 ] final  -64.26 input  -57.11 | X-H torsion

> <Gold.Protein.ActiveResidues>
 VAL166  LYS551  ARG553  GLY616  TRP617  ASP618  TYR619  PRO620  LYS621  CYS622 
 ASP623  PHE694  ASN695  SER759  ASP760  ASP761  ALA762  ILE779  LEU786  VAL792 
 PHE793  MET794  SER795  GLU796  ALA797  LYS798  CYS799  TRP800  GLU811  SER814 

> <Gold.Protein.RotatedAtoms>
  152.5181  134.3580  159.9274 H   0  0  0  0  0  0  0  0  0  0  0  0  # atno 6907 bound_to 6896
  151.3532  133.3911  159.2690 H   0  0  0  0  0  0  0  0  0  0  0  0  # atno 6908 bound_to 6896
  150.9711  134.9102  159.7846 H   0  0  0  0  0  0  0  0  0  0  0  0  # atno 6909 bound_to 6896
  145.6902  139.2550  143.1764 H   0  0  0  0  0  0  0  0  0  0  0  0  # atno 7974 bound_to 7965
  155.6086  140.3494  155.4615 H   0  0  0  0  0  0  0  0  0  0  0  0  # atno 8008 bound_to 7997
  156.0172  140.1246  157.0419 H   0  0  0  0  0  0  0  0  0  0  0  0  # atno 8009 bound_to 7997
  154.4302  140.1070  156.5898 H   0  0  0  0  0  0  0  0  0  0  0  0  # atno 8010 bound_to 7997
  140.2058  144.3940  150.6509 H   0  0  0  0  0  0  0  0  0  0  0  0  # atno 10167 bound_to 10162
  157.1507  131.0563  151.2281 H   0  0  0  0  0  0  0  0  0  0  0  0  # atno 10718 bound_to 10713
  153.0915  135.6648  153.9845 H   0  0  0  0  0  0  0  0  0  0  0  0  # atno 10763 bound_to 10752
  153.9440  135.2991  155.3443 H   0  0  0  0  0  0  0  0  0  0  0  0  # atno 10764 bound_to 10752
  154.7330  135.5114  153.9068 H   0  0  0  0  0  0  0  0  0  0  0  0  # atno 10765 bound_to 10752
  141.1419  133.6663  156.5805 H   0  0  0  0  0  0  0  0  0  0  0  0  # atno 11005 bound_to 11000
  146.0888  140.7680  142.9605 LP  0  0  0  0  0  0  0  0  0  0  0  0  # atno 17320 bound_to 7965
  144.6999  140.3604  143.7165 LP  0  0  0  0  0  0  0  0  0  0  0  0  # atno 17321 bound_to 7965
  140.6358  143.2194  151.6398 LP  0  0  0  0  0  0  0  0  0  0  0  0  # atno 17342 bound_to 10162
  139.5199  144.3239  152.0886 LP  0  0  0  0  0  0  0  0  0  0  0  0  # atno 17343 bound_to 10162
  157.4223  130.7444  149.6923 LP  0  0  0  0  0  0  0  0  0  0  0  0  # atno 17370 bound_to 10713
  155.9771  130.4067  150.3734 LP  0  0  0  0  0  0  0  0  0  0  0  0  # atno 17371 bound_to 10713
  140.3841  134.7497  157.4680 LP  0  0  0  0  0  0  0  0  0  0  0  0  # atno 17394 bound_to 11000
  140.0615  134.5989  155.8743 LP  0  0  0  0  0  0  0  0  0  0  0  0  # atno 17395 bound_to 11000

$$$$
