AV-unprocessed.smi:184|AV-procd|sdf|1462|dock6
  -GOLD-   2262019273D 1   1.00000     0.00000
 Structure written by MMmdl.
 54 58  0  0  0  0  0  0  0  0  1 V2000
  155.0134  138.9918  161.3940 O   0  0  0  0  0  0  0  0  0  0  0  0
  154.3471  139.6919  160.6350 C   0  0  0  0  0  0  0  0  0  0  0  0
  153.9206  139.1315  159.2660 C   0  0  0  0  0  0  0  0  0  0  0  0
  153.0924  140.0310  158.4449 N   0  0  0  0  0  0  0  0  0  0  0  0
  152.4979  139.3490  157.4364 C   0  0  0  0  0  0  0  0  0  0  0  0
  152.7710  139.6684  156.1434 N   0  0  0  0  0  0  0  0  0  0  0  0
  152.1669  139.0096  155.1500 C   0  0  0  0  0  0  0  0  0  0  0  0
  151.2701  138.0238  155.2261 N   0  0  0  0  0  0  0  0  0  0  0  0
  150.9863  137.7095  156.5225 C   0  0  0  0  0  0  0  0  0  0  0  0
  151.5469  138.3221  157.6780 C   0  0  0  0  0  0  0  0  0  0  0  0
  151.0175  137.7487  158.8267 N   0  0  0  0  0  0  0  0  0  0  0  0
  150.1905  136.8452  158.3752 C   0  0  0  0  0  0  0  0  0  0  0  0
  150.1164  136.7461  157.0033 N   0  0  0  0  0  0  0  0  0  0  0  0
  149.2826  135.8289  156.2392 C   0  0  0  0  0  0  0  0  0  0  0  0
  150.0617  134.9844  155.1938 C   0  0  0  0  0  0  0  0  0  0  0  0
  150.5266  135.8693  154.1912 O   0  0  0  0  0  0  0  0  0  0  0  0
  151.3007  134.3073  155.8133 C   0  0  0  0  0  0  0  0  0  0  0  0
  150.9133  133.0978  156.6833 C   0  0  0  0  0  0  0  0  0  0  0  0
  150.1464  132.1728  155.9198 O   0  0  0  0  0  0  0  0  0  0  0  0
  148.9219  132.7214  155.4447 C   0  0  0  0  0  0  0  0  0  0  0  0
  149.2094  133.9006  154.4989 C   0  0  0  0  0  0  0  0  0  0  0  0
  152.3049  141.0583  159.1380 C   0  0  2  0  0  0  0  0  0  0  0  0
  151.6136  142.0663  158.1861 C   0  0  0  0  0  0  0  0  0  0  0  0
  150.8196  143.1209  158.9765 C   0  0  0  0  0  0  0  0  0  0  0  0
  151.7081  143.8547  159.9936 C   0  0  0  0  0  0  0  0  0  0  0  0
  152.4315  142.8657  160.9218 C   0  0  0  0  0  0  0  0  0  0  0  0
  153.2281  141.8350  160.1031 C   0  0  1  0  0  0  0  0  0  0  0  0
  153.9639  140.9315  160.9784 N   0  0  0  0  0  0  0  0  0  0  0  0
  154.8243  138.8792  158.7096 H   0  0  0  0  0  0  0  0  0  0  0  0
  153.3901  138.1943  159.4471 H   0  0  0  0  0  0  0  0  0  0  0  0
  152.4398  139.3175  154.1515 H   0  0  0  0  0  0  0  0  0  0  0  0
  149.6112  136.2162  159.0358 H   0  0  0  0  0  0  0  0  0  0  0  0
  148.7728  135.1721  156.9456 H   0  0  0  0  0  0  0  0  0  0  0  0
  148.4974  136.4112  155.7577 H   0  0  0  0  0  0  0  0  0  0  0  0
  149.8506  135.9631  153.5374 H   0  0  0  0  0  0  0  0  0  0  0  0
  151.9629  133.9561  155.0202 H   0  0  0  0  0  0  0  0  0  0  0  0
  151.8794  135.0231  156.3982 H   0  0  0  0  0  0  0  0  0  0  0  0
  151.8127  132.5944  157.0383 H   0  0  0  0  0  0  0  0  0  0  0  0
  150.3571  133.4051  157.5696 H   0  0  0  0  0  0  0  0  0  0  0  0
  148.3734  131.9438  154.9130 H   0  0  0  0  0  0  0  0  0  0  0  0
  148.2986  133.0265  156.2853 H   0  0  0  0  0  0  0  0  0  0  0  0
  148.2781  134.3123  154.1099 H   0  0  0  0  0  0  0  0  0  0  0  0
  149.7482  133.5137  153.6325 H   0  0  0  0  0  0  0  0  0  0  0  0
  151.5366  140.5501  159.7249 H   0  0  0  0  0  0  0  0  0  0  0  0
  152.3619  142.5593  157.5638 H   0  0  0  0  0  0  0  0  0  0  0  0
  150.9304  141.5642  157.5019 H   0  0  0  0  0  0  0  0  0  0  0  0
  150.3711  143.8397  158.2899 H   0  0  0  0  0  0  0  0  0  0  0  0
  149.9933  142.6364  159.4984 H   0  0  0  0  0  0  0  0  0  0  0  0
  152.4442  144.4594  159.4626 H   0  0  0  0  0  0  0  0  0  0  0  0
  151.1063  144.5477  160.5824 H   0  0  0  0  0  0  0  0  0  0  0  0
  153.0972  143.4119  161.5912 H   0  0  0  0  0  0  0  0  0  0  0  0
  151.7038  142.3559  161.5549 H   0  0  0  0  0  0  0  0  0  0  0  0
  153.9780  142.3695  159.5167 H   0  0  0  0  0  0  0  0  0  0  0  0
  154.2347  141.2823  161.8857 H   0  0  0  0  0  0  0  0  0  0  0  0
  1  2  2  0  0  0  0
  2 28  1  0  0  0  0
  2  3  1  0  0  0  0
  3  4  1  0  0  0  0
  3 29  1  0  0  0  0
  3 30  1  0  0  0  0
  4  5  1  0  0  0  0
  4 22  1  0  0  0  0
  5 10  1  0  0  0  0
  5  6  2  0  0  0  0
  6  7  1  0  0  0  0
  7  8  2  0  0  0  0
  7 31  1  0  0  0  0
  8  9  1  0  0  0  0
  9 13  1  0  0  0  0
  9 10  2  0  0  0  0
 10 11  1  0  0  0  0
 11 12  2  0  0  0  0
 12 13  1  0  0  0  0
 12 32  1  0  0  0  0
 13 14  1  0  0  0  0
 14 15  1  0  0  0  0
 14 33  1  0  0  0  0
 14 34  1  0  0  0  0
 15 21  1  0  0  0  0
 15 16  1  0  0  0  0
 15 17  1  0  0  0  0
 16 35  1  0  0  0  0
 17 18  1  0  0  0  0
 17 36  1  0  0  0  0
 17 37  1  0  0  0  0
 18 19  1  0  0  0  0
 18 38  1  0  0  0  0
 18 39  1  0  0  0  0
 19 20  1  0  0  0  0
 20 21  1  0  0  0  0
 20 40  1  0  0  0  0
 20 41  1  0  0  0  0
 21 42  1  0  0  0  0
 21 43  1  0  0  0  0
 22 27  1  0  0  0  0
 22 23  1  0  0  0  0
 22 44  1  0  0  0  0
 23 24  1  0  0  0  0
 23 45  1  0  0  0  0
 23 46  1  0  0  0  0
 24 25  1  0  0  0  0
 24 47  1  0  0  0  0
 24 48  1  0  0  0  0
 25 26  1  0  0  0  0
 25 49  1  0  0  0  0
 25 50  1  0  0  0  0
 26 27  1  0  0  0  0
 26 51  1  0  0  0  0
 26 52  1  0  0  0  0
 27 28  1  0  0  0  0
 27 53  1  0  0  0  0
 28 54  1  0  0  0  0
M  END
> <s_m_source_file>
AV-unprocessed.smi

> <i_m_source_file_index>
184

> <i_lp_mmshare_version>
43012

> <i_f3d_flags>
0

> <s_epik_input>
W0NIMl0xW0NIMl1bQ0gyXVtDSDJdW0NASF0oW0NASF0xMilbTkhdQyg9TylbQ0gyXU4yYyhuW2NIXW4zKWMoYzM0KW5bY0hdbjRbQ0gyXUM1KFtPSF0pW0NIMl1bQ0gyXU9bQ0gyXVtDSDJdNQ==

> <s_epik_cmdline>
J2VwaWtfcHl0aG9uJywgJy1waCcsICc3LjAnLCAnLXRuJywgJzgnLCAnLW1hJywgJzIwMCcsICctbWV0YWxfYmluZGluZycsICctaW1hZScsICc8aW5maWxlLm1hZT4nLCAnLW9tYWUnLCAnPG91dGZpbGUubWFlPic=

> <r_lp_tautomer_probability>
1

> <r_epik_Ionization_Penalty>
0.000822761

> <r_epik_Ionization_Penalty_Charging>
0

> <r_epik_Ionization_Penalty_Neutral>
0.000822761

> <r_epik_State_Penalty>
0.000403048

> <r_epik_Charging_Adjusted_Penalty>
0.000403048

> <i_epik_Tot_Q>
0

> <i_epik_Tot_abs_Q>
0

> <r_epik_Metal_State_Penalty>
-0

> <b_epik_Metal_Only>
0

> <s_lp_Force_Field>
OPLS_2005

> <r_lp_Energy>
34.5881

> <b_lp_Chiralities_Consistent>
1

> <s_lp_Variant>
AV-unprocessed.smi:184-2

> <Gold.Version>
5.8.1

> <Gold.Id.Protein>
6NUR|6NUR_protein|mol2

> <Gold.PLP.Fitness>
45.0634

> <Gold.PLP.PLP>
-39.3362

> <Gold.PLP.part.hbond>
-4.0000

> <Gold.PLP.part.metal>
0.0000

> <Gold.PLP.part.buried>
-4.9100

> <Gold.PLP.part.nonpolar>
-30.2628

> <Gold.PLP.part.repulsive>
0.1027

> <Gold.PLP.ligand.clash>
0.0000

> <Gold.PLP.ligand.torsion>
0.3272

> <Gold.PLP.Chemscore.Hbond>
2.0000

> <Gold.PLP.Chemscore.CHOScore>
0.0000

> <Gold.PLP.Chemscore.Metal>
0.0000

> <Gold.Chemscore.Hbonds>
donor molecule, donor type, donor heavy atom, donor atom, acceptor molecule, acceptor atom, score
      L1  H    16    35       P1  7948  0.70
      P1  H  7997  8008       L1     6  1.00

> <Gold.PLP.Chemscore.Internal.Correction>
0.3817

> <Gold.Rescore>
     Score         DG    S(hbond)    S(metal)    S(lipo)     H(rot)  DE(clash)    DE(int)     intcor
     14.94     -15.90       1.72        0.00      87.35       2.17       0.01       0.96       ----

> <Gold.Chemscore.Fitness>
14.9352

> <Gold.Chemscore.DG>
-15.9010

> <Gold.Chemscore.ZeroCoef>
-5.4800

> <Gold.Chemscore.Hbond>
1.7229

> <Gold.Chemscore.Metal>
0.0000

> <Gold.Chemscore.Lipo>
87.3498

> <Gold.Chemscore.Internal_Hbond>
0.0000

> <Gold.Chemscore.DEClash>
0.0073

> <Gold.Chemscore.DEInternal>
0.9585

> <Gold.Chemscore.Rot>
2.1693

> <Gold.Chemscore.Internal.Correction>
   9.000000E+99

> <Gold.Chemscore.Hbonds>
donor molecule, donor type, donor heavy atom, donor atom, acceptor molecule, acceptor atom, score
      L1  H    16    35       P1  7948  0.07
      P1  H  7997  8008       L1     6  0.39

> <Gold.Chemscore.Hbond.Weighted>
-5.7544

> <Gold.Chemscore.Metal.Weighted>
-0.0000

> <Gold.Chemscore.Lipo.Weighted>
-10.2199

> <Gold.Chemscore.Internal_Hbond.Weighted>
0.0000

> <Gold.Chemscore.DEClash.Weighted>
0.0073

> <Gold.Chemscore.DEInternal.Weighted>
0.9585

> <Gold.Chemscore.Rot.Weighted>
5.5533

> <Gold.Chemscore.Internal.Correction.Weighted>
   9.000000E+99

> <Gold.Protein.RotatedTorsions>
[ 6907 6896 6895 6894 ] final  157.24 input  -60.11 | X-H torsion
[ 7974 7965 7964 7962 ] final -142.73 input  175.53 | X-H torsion
[ 8008 7997 7996 7995 ] final  -34.13 input   59.86 | X-H torsion
[ 10167 10162 10161 10158 ] final  149.20 input  -65.29 | X-H torsion
[ 10718 10713 10712 10709 ] final   78.76 input   66.30 | X-H torsion
[ 10763 10752 10751 10750 ] final  103.34 input  -60.55 | X-H torsion
[ 11005 11000 10999 10996 ] final  -21.64 input  -57.11 | X-H torsion

> <Gold.Protein.ActiveResidues>
 VAL166  LYS551  ARG553  GLY616  TRP617  ASP618  TYR619  PRO620  LYS621  CYS622 
 ASP623  PHE694  ASN695  SER759  ASP760  ASP761  ALA762  ILE779  LEU786  VAL792 
 PHE793  MET794  SER795  GLU796  ALA797  LYS798  CYS799  TRP800  GLU811  SER814 

> <Gold.Protein.RotatedAtoms>
  152.0180  133.3887  159.4246 H   0  0  0  0  0  0  0  0  0  0  0  0  # atno 6907 bound_to 6896
  150.6893  134.3657  159.4979 H   0  0  0  0  0  0  0  0  0  0  0  0  # atno 6908 bound_to 6896
  152.1427  134.9050  160.0603 H   0  0  0  0  0  0  0  0  0  0  0  0  # atno 6909 bound_to 6896
  144.8422  140.5922  143.5445 H   0  0  0  0  0  0  0  0  0  0  0  0  # atno 7974 bound_to 7965
  154.4129  140.1692  156.1999 H   0  0  0  0  0  0  0  0  0  0  0  0  # atno 8008 bound_to 7997
  155.9533  140.3399  155.6403 H   0  0  0  0  0  0  0  0  0  0  0  0  # atno 8009 bound_to 7997
  155.6842  140.0726  157.2463 H   0  0  0  0  0  0  0  0  0  0  0  0  # atno 8010 bound_to 7997
  139.4864  144.5620  151.7213 H   0  0  0  0  0  0  0  0  0  0  0  0  # atno 10167 bound_to 10162
  157.6755  130.9883  150.1833 H   0  0  0  0  0  0  0  0  0  0  0  0  # atno 10718 bound_to 10713
  153.3514  135.3980  155.1649 H   0  0  0  0  0  0  0  0  0  0  0  0  # atno 10763 bound_to 10752
  154.8663  135.3657  154.5217 H   0  0  0  0  0  0  0  0  0  0  0  0  # atno 10764 bound_to 10752
  153.5669  135.7080  153.5582 H   0  0  0  0  0  0  0  0  0  0  0  0  # atno 10765 bound_to 10752
  140.8580  133.7808  156.0042 H   0  0  0  0  0  0  0  0  0  0  0  0  # atno 11005 bound_to 11000
  145.4671  139.1507  143.3834 LP  0  0  0  0  0  0  0  0  0  0  0  0  # atno 17320 bound_to 7965
  146.2712  140.4803  142.8813 LP  0  0  0  0  0  0  0  0  0  0  0  0  # atno 17321 bound_to 7965
  140.5192  144.0906  150.6017 LP  0  0  0  0  0  0  0  0  0  0  0  0  # atno 17342 bound_to 10162
  140.3858  143.2778  152.0118 LP  0  0  0  0  0  0  0  0  0  0  0  0  # atno 17343 bound_to 10162
  156.2560  130.3705  149.8181 LP  0  0  0  0  0  0  0  0  0  0  0  0  # atno 17370 bound_to 10713
  156.5940  130.8518  151.3415 LP  0  0  0  0  0  0  0  0  0  0  0  0  # atno 17371 bound_to 10713
  140.8715  134.2721  157.5188 LP  0  0  0  0  0  0  0  0  0  0  0  0  # atno 17394 bound_to 11000
  139.8706  134.9569  156.4253 LP  0  0  0  0  0  0  0  0  0  0  0  0  # atno 17395 bound_to 11000

$$$$
