AV-unprocessed.smi:182|AV-procd|sdf|1456|dock5
  -GOLD-   2262019263D 1   1.00000     0.00000
 Structure written by MMmdl.
 56 59  0  0  0  0  0  0  0  0  1 V2000
  149.3019  142.0057  154.6935 N   0  0  0  0  0  0  0  0  0  0  0  0
  149.8302  140.9418  155.3031 C   0  0  0  0  0  0  0  0  0  0  0  0
  150.5270  140.1256  154.7030 O   0  0  0  0  0  0  0  0  0  0  0  0
  149.5204  140.7825  156.7953 C   0  0  0  0  0  0  0  0  0  0  0  0
  149.6096  142.1035  157.5874 C   0  0  0  0  0  0  0  0  0  0  0  0
  151.0513  142.5133  157.9484 C   0  0  1  0  0  0  0  0  0  0  0  0
  151.1319  144.0102  158.3078 C   0  0  0  0  0  0  0  0  0  0  0  0
  152.5717  144.4056  158.6705 C   0  0  0  0  0  0  0  0  0  0  0  0
  153.1248  143.5122  159.7917 C   0  0  0  0  0  0  0  0  0  0  0  0
  152.9892  142.0979  159.4411 N   0  0  0  0  0  0  0  0  0  0  0  0
  153.7147  141.1929  160.1475 C   0  0  0  0  0  0  0  0  0  0  0  0
  154.1982  141.5211  161.3758 N   0  0  0  0  0  0  0  0  0  0  0  0
  154.9043  140.6348  162.0836 C   0  0  0  0  0  0  0  0  0  0  0  0
  155.2368  139.3841  161.7601 N   0  0  0  0  0  0  0  0  0  0  0  0
  154.7600  139.0481  160.5276 C   0  0  0  0  0  0  0  0  0  0  0  0
  154.0043  139.8865  159.6595 C   0  0  0  0  0  0  0  0  0  0  0  0
  153.7256  139.2103  158.4771 N   0  0  0  0  0  0  0  0  0  0  0  0
  154.2770  138.0391  158.6408 C   0  0  0  0  0  0  0  0  0  0  0  0
  154.8922  137.8447  159.8566 N   0  0  0  0  0  0  0  0  0  0  0  0
  155.6036  136.6740  160.2802 C   0  0  0  0  0  0  0  0  0  0  0  0
  155.9717  135.5678  159.2881 C   0  0  0  0  0  0  0  0  0  0  0  0
  155.8143  134.5178  160.4117 C   0  0  0  0  0  0  0  0  0  0  0  0
  155.1079  133.2127  160.0084 C   0  0  0  0  0  0  0  0  0  0  0  0
  154.1454  133.4426  158.9997 O   0  0  0  0  0  0  0  0  0  0  0  0
  157.1068  134.1766  161.1805 C   0  0  0  0  0  0  0  0  0  0  0  0
  157.9988  133.4256  160.3822 O   0  0  0  0  0  0  0  0  0  0  0  0
  154.9093  135.5730  161.0848 C   0  0  0  0  0  0  0  0  0  0  0  0
  151.6305  141.6721  159.1058 C   0  0  0  0  0  0  0  0  0  0  0  0
  149.4750  142.1564  153.7100 H   0  0  0  0  0  0  0  0  0  0  0  0
  148.7314  142.6551  155.2152 H   0  0  0  0  0  0  0  0  0  0  0  0
  148.5232  140.3532  156.8924 H   0  0  0  0  0  0  0  0  0  0  0  0
  150.2174  140.0544  157.2114 H   0  0  0  0  0  0  0  0  0  0  0  0
  149.1635  142.9009  156.9909 H   0  0  0  0  0  0  0  0  0  0  0  0
  149.0105  142.0343  158.4966 H   0  0  0  0  0  0  0  0  0  0  0  0
  151.6742  142.3523  157.0670 H   0  0  0  0  0  0  0  0  0  0  0  0
  150.7839  144.6195  157.4730 H   0  0  0  0  0  0  0  0  0  0  0  0
  150.4707  144.2265  159.1480 H   0  0  0  0  0  0  0  0  0  0  0  0
  153.2065  144.3167  157.7881 H   0  0  0  0  0  0  0  0  0  0  0  0
  152.6082  145.4520  158.9748 H   0  0  0  0  0  0  0  0  0  0  0  0
  154.1732  143.7590  159.9661 H   0  0  0  0  0  0  0  0  0  0  0  0
  152.5878  143.7053  160.7215 H   0  0  0  0  0  0  0  0  0  0  0  0
  155.2494  140.9757  163.0485 H   0  0  0  0  0  0  0  0  0  0  0  0
  154.2446  137.2786  157.8741 H   0  0  0  0  0  0  0  0  0  0  0  0
  156.4908  137.0341  160.8037 H   0  0  0  0  0  0  0  0  0  0  0  0
  155.2297  135.4564  158.4950 H   0  0  0  0  0  0  0  0  0  0  0  0
  156.9753  135.6554  158.8712 H   0  0  0  0  0  0  0  0  0  0  0  0
  155.8251  132.4879  159.6224 H   0  0  0  0  0  0  0  0  0  0  0  0
  154.6226  132.7368  160.8608 H   0  0  0  0  0  0  0  0  0  0  0  0
  153.9525  132.6206  158.5754 H   0  0  0  0  0  0  0  0  0  0  0  0
  157.6270  135.0799  161.4995 H   0  0  0  0  0  0  0  0  0  0  0  0
  156.8939  133.6153  162.0905 H   0  0  0  0  0  0  0  0  0  0  0  0
  158.8703  133.5211  160.7349 H   0  0  0  0  0  0  0  0  0  0  0  0
  155.0300  135.6582  162.1652 H   0  0  0  0  0  0  0  0  0  0  0  0
  153.8562  135.4639  160.8181 H   0  0  0  0  0  0  0  0  0  0  0  0
  151.0049  141.7786  159.9931 H   0  0  0  0  0  0  0  0  0  0  0  0
  151.6106  140.6171  158.8418 H   0  0  0  0  0  0  0  0  0  0  0  0
  1  2  1  0  0  0  0
  1 29  1  0  0  0  0
  1 30  1  0  0  0  0
  2  3  2  0  0  0  0
  2  4  1  0  0  0  0
  4  5  1  0  0  0  0
  4 31  1  0  0  0  0
  4 32  1  0  0  0  0
  5  6  1  0  0  0  0
  5 33  1  0  0  0  0
  5 34  1  0  0  0  0
  6 28  1  0  0  0  0
  6  7  1  0  0  0  0
  6 35  1  0  0  0  0
  7  8  1  0  0  0  0
  7 36  1  0  0  0  0
  7 37  1  0  0  0  0
  8  9  1  0  0  0  0
  8 38  1  0  0  0  0
  8 39  1  0  0  0  0
  9 10  1  0  0  0  0
  9 40  1  0  0  0  0
  9 41  1  0  0  0  0
 10 11  1  0  0  0  0
 10 28  1  0  0  0  0
 11 16  1  0  0  0  0
 11 12  2  0  0  0  0
 12 13  1  0  0  0  0
 13 14  2  0  0  0  0
 13 42  1  0  0  0  0
 14 15  1  0  0  0  0
 15 19  1  0  0  0  0
 15 16  2  0  0  0  0
 16 17  1  0  0  0  0
 17 18  2  0  0  0  0
 18 19  1  0  0  0  0
 18 43  1  0  0  0  0
 19 20  1  0  0  0  0
 20 27  1  0  0  0  0
 20 21  1  0  0  0  0
 20 44  1  0  0  0  0
 21 22  1  0  0  0  0
 21 45  1  0  0  0  0
 21 46  1  0  0  0  0
 22 23  1  0  0  0  0
 22 25  1  0  0  0  0
 22 27  1  0  0  0  0
 23 24  1  0  0  0  0
 23 47  1  0  0  0  0
 23 48  1  0  0  0  0
 24 49  1  0  0  0  0
 25 26  1  0  0  0  0
 25 50  1  0  0  0  0
 25 51  1  0  0  0  0
 26 52  1  0  0  0  0
 27 53  1  0  0  0  0
 27 54  1  0  0  0  0
 28 55  1  0  0  0  0
 28 56  1  0  0  0  0
M  END
> <s_m_source_file>
AV-unprocessed.smi

> <i_m_source_file_index>
182

> <i_lp_mmshare_version>
43012

> <i_f3d_flags>
0

> <s_epik_input>
W05IMl1DKD1PKVtDSDJdW0NIMl1bQ0BASF0xW0NIMl1bQ0gyXVtDSDJdTihbQ0gyXTEpYyhuW2NIXW4yKWMoYzIzKW5bY0hdbjNbQ0hdKFtDSDJdNClbQ0gyXUM0KFtDSDJdW09IXSlbQ0gyXVtPSF0=

> <s_epik_cmdline>
J2VwaWtfcHl0aG9uJywgJy1waCcsICc3LjAnLCAnLXRuJywgJzgnLCAnLW1hJywgJzIwMCcsICctbWV0YWxfYmluZGluZycsICctaW1hZScsICc8aW5maWxlLm1hZT4nLCAnLW9tYWUnLCAnPG91dGZpbGUubWFlPic=

> <r_lp_tautomer_probability>
1

> <r_epik_Ionization_Penalty>
0.00186057

> <r_epik_Ionization_Penalty_Charging>
0

> <r_epik_Ionization_Penalty_Neutral>
0.00186057

> <r_epik_State_Penalty>
0.00110736

> <r_epik_Charging_Adjusted_Penalty>
0.00110736

> <i_epik_Tot_Q>
0

> <i_epik_Tot_abs_Q>
0

> <r_epik_Metal_State_Penalty>
-0

> <b_epik_Metal_Only>
0

> <s_lp_Force_Field>
OPLS_2005

> <r_lp_Energy>
37.6951

> <b_lp_Chiralities_Consistent>
1

> <s_lp_Variant>
AV-unprocessed.smi:182-2

> <Gold.Version>
5.8.1

> <Gold.Id.Protein>
6NUR|6NUR_protein|mol2

> <Gold.PLP.Fitness>
48.3433

> <Gold.PLP.PLP>
-39.5705

> <Gold.PLP.part.hbond>
-4.4929

> <Gold.PLP.part.metal>
0.0000

> <Gold.PLP.part.buried>
-6.5641

> <Gold.PLP.part.nonpolar>
-29.0200

> <Gold.PLP.part.repulsive>
1.2345

> <Gold.PLP.ligand.clash>
0.0000

> <Gold.PLP.ligand.torsion>
1.6001

> <Gold.PLP.Chemscore.Hbond>
3.6560

> <Gold.PLP.Chemscore.CHOScore>
0.0000

> <Gold.PLP.Chemscore.Metal>
0.0000

> <Gold.Chemscore.Hbonds>
donor molecule, donor type, donor heavy atom, donor atom, acceptor molecule, acceptor atom, score
      L1  H     1    30       P1  8028  0.56
      P1  H  6896  6909       L1    24  0.80
      P1  H  7989  7998       L1     3  1.00
      P1  H  7997  8010       L1    17  1.00

> <Gold.PLP.Chemscore.Internal.Correction>
1.0050

> <Gold.Rescore>
     Score         DG    S(hbond)    S(metal)    S(lipo)     H(rot)  DE(clash)    DE(int)     intcor
     10.10     -11.90       2.64        0.00      84.44       4.79       0.41       1.39       ----

> <Gold.Chemscore.Fitness>
10.0968

> <Gold.Chemscore.DG>
-11.9019

> <Gold.Chemscore.ZeroCoef>
-5.4800

> <Gold.Chemscore.Hbond>
2.6378

> <Gold.Chemscore.Metal>
0.0000

> <Gold.Chemscore.Lipo>
84.4409

> <Gold.Chemscore.Internal_Hbond>
0.0000

> <Gold.Chemscore.DEClash>
0.4103

> <Gold.Chemscore.DEInternal>
1.3948

> <Gold.Chemscore.Rot>
4.7922

> <Gold.Chemscore.Internal.Correction>
   9.000000E+99

> <Gold.Chemscore.Hbonds>
donor molecule, donor type, donor heavy atom, donor atom, acceptor molecule, acceptor atom, score
      L1  H     1    30       P1  8028  0.55
      P1  H  6896  6909       L1    24  0.10
      P1  H  7989  7998       L1     3  0.85
      P1  H  7997  8010       L1    17  0.33

> <Gold.Chemscore.Hbond.Weighted>
-8.8104

> <Gold.Chemscore.Metal.Weighted>
-0.0000

> <Gold.Chemscore.Lipo.Weighted>
-9.8796

> <Gold.Chemscore.Internal_Hbond.Weighted>
0.0000

> <Gold.Chemscore.DEClash.Weighted>
0.4103

> <Gold.Chemscore.DEInternal.Weighted>
1.3948

> <Gold.Chemscore.Rot.Weighted>
12.2680

> <Gold.Chemscore.Internal.Correction.Weighted>
   9.000000E+99

> <Gold.Protein.RotatedTorsions>
[ 6907 6896 6895 6894 ] final -118.29 input  -60.11 | X-H torsion
[ 7974 7965 7964 7962 ] final  148.67 input  175.53 | X-H torsion
[ 8008 7997 7996 7995 ] final   27.89 input   59.86 | X-H torsion
[ 10167 10162 10161 10158 ] final  -86.74 input  -65.29 | X-H torsion
[ 10718 10713 10712 10709 ] final  179.37 input   66.30 | X-H torsion
[ 10763 10752 10751 10750 ] final  -30.68 input  -60.55 | X-H torsion
[ 11005 11000 10999 10996 ] final   -7.90 input  -57.11 | X-H torsion

> <Gold.Protein.ActiveResidues>
 VAL166  LYS551  ARG553  GLY616  TRP617  ASP618  TYR619  PRO620  LYS621  CYS622 
 ASP623  PHE694  ASN695  SER759  ASP760  ASP761  ALA762  ILE779  LEU786  VAL792 
 PHE793  MET794  SER795  GLU796  ALA797  LYS798  CYS799  TRP800  GLU811  SER814 

> <Gold.Protein.RotatedAtoms>
  150.8208  133.8257  159.3139 H   0  0  0  0  0  0  0  0  0  0  0  0  # atno 6907 bound_to 6896
  151.6016  135.1045  160.0071 H   0  0  0  0  0  0  0  0  0  0  0  0  # atno 6908 bound_to 6896
  152.4297  133.7215  159.6592 H   0  0  0  0  0  0  0  0  0  0  0  0  # atno 6909 bound_to 6896
  144.8496  139.6184  143.5980 H   0  0  0  0  0  0  0  0  0  0  0  0  # atno 7974 bound_to 7965
  155.0501  140.3179  155.4695 H   0  0  0  0  0  0  0  0  0  0  0  0  # atno 8008 bound_to 7997
  156.2836  140.2147  156.5570 H   0  0  0  0  0  0  0  0  0  0  0  0  # atno 8009 bound_to 7997
  154.7217  140.0489  157.0633 H   0  0  0  0  0  0  0  0  0  0  0  0  # atno 8010 bound_to 7997
  140.3912  143.2704  151.9262 H   0  0  0  0  0  0  0  0  0  0  0  0  # atno 10167 bound_to 10162
  156.8768  130.9802  151.3067 H   0  0  0  0  0  0  0  0  0  0  0  0  # atno 10718 bound_to 10713
  153.7850  135.6902  153.4881 H   0  0  0  0  0  0  0  0  0  0  0  0  # atno 10763 bound_to 10752
  153.1787  135.4515  154.9998 H   0  0  0  0  0  0  0  0  0  0  0  0  # atno 10764 bound_to 10752
  154.8067  135.3360  154.7350 H   0  0  0  0  0  0  0  0  0  0  0  0  # atno 10765 bound_to 10752
  140.7178  133.8854  155.8798 H   0  0  0  0  0  0  0  0  0  0  0  0  # atno 11005 bound_to 11000
  146.2773  139.6786  142.9254 LP  0  0  0  0  0  0  0  0  0  0  0  0  # atno 17320 bound_to 7965
  145.4527  141.0429  143.2795 LP  0  0  0  0  0  0  0  0  0  0  0  0  # atno 17321 bound_to 7965
  139.4789  144.5725  151.8064 LP  0  0  0  0  0  0  0  0  0  0  0  0  # atno 17342 bound_to 10162
  140.4838  144.1411  150.5937 LP  0  0  0  0  0  0  0  0  0  0  0  0  # atno 17343 bound_to 10162
  157.6164  130.8621  149.9035 LP  0  0  0  0  0  0  0  0  0  0  0  0  # atno 17370 bound_to 10713
  156.0698  130.3687  150.0801 LP  0  0  0  0  0  0  0  0  0  0  0  0  # atno 17371 bound_to 10713
  141.0030  134.1125  157.4298 LP  0  0  0  0  0  0  0  0  0  0  0  0  # atno 17394 bound_to 11000
  139.8855  135.0073  156.6442 LP  0  0  0  0  0  0  0  0  0  0  0  0  # atno 17395 bound_to 11000

$$$$
