AV-unprocessed.smi:245|AV-procd|sdf|1878|dock4
  -GOLD-   2262020523D 1   1.00000     0.00000
 Structure written by MMmdl.
 54 58  0  0  0  0  0  0  0  0  1 V2000
  149.8797  141.5173  154.7264 O   0  0  0  0  0  0  0  0  0  0  0  0
  150.4775  141.6803  155.7874 C   0  0  0  0  0  0  0  0  0  0  0  0
  150.9864  140.4541  156.5658 C   0  0  0  0  0  0  0  0  0  0  0  0
  151.6513  140.7490  157.8467 N   0  0  0  0  0  0  0  0  0  0  0  0
  151.7571  139.6266  158.5979 C   0  0  0  0  0  0  0  0  0  0  0  0
  150.8341  138.6353  158.4800 N   0  0  0  0  0  0  0  0  0  0  0  0
  150.9575  137.5178  159.2028 C   0  0  0  0  0  0  0  0  0  0  0  0
  151.9128  137.1886  160.0753 N   0  0  0  0  0  0  0  0  0  0  0  0
  152.8478  138.1763  160.1829 C   0  0  0  0  0  0  0  0  0  0  0  0
  152.8440  139.4172  159.4876 C   0  0  0  0  0  0  0  0  0  0  0  0
  153.9454  140.1770  159.8598 N   0  0  0  0  0  0  0  0  0  0  0  0
  154.5635  139.4290  160.7331 C   0  0  0  0  0  0  0  0  0  0  0  0
  153.9879  138.1996  160.9669 N   0  0  0  0  0  0  0  0  0  0  0  0
  154.4317  137.1984  161.8918 C   0  0  0  0  0  0  0  0  0  0  0  0
  153.6900  136.9331  163.2049 C   0  0  0  0  0  0  0  0  0  0  0  0
  155.0326  136.5690  163.8793 C   0  0  0  0  0  0  0  0  0  0  0  0
  155.1866  137.0965  165.3170 C   0  0  0  0  0  0  0  0  0  0  0  0
  156.4904  136.8892  165.8199 O   0  0  0  0  0  0  0  0  0  0  0  0
  155.3550  135.0598  163.8531 C   0  0  0  0  0  0  0  0  0  0  0  0
  154.5636  134.3272  164.7654 O   0  0  0  0  0  0  0  0  0  0  0  0
  155.6680  137.4286  162.7621 C   0  0  0  0  0  0  0  0  0  0  0  0
  151.3101  142.0068  158.5229 C   0  0  1  0  0  0  0  0  0  0  0  0
  152.1945  142.3148  159.7574 C   0  0  0  0  0  0  0  0  0  0  0  0
  151.7969  143.6527  160.4052 C   0  0  0  0  0  0  0  0  0  0  0  0
  151.8530  144.8097  159.3952 C   0  0  0  0  0  0  0  0  0  0  0  0
  151.0095  144.5047  158.1472 C   0  0  0  0  0  0  0  0  0  0  0  0
  151.4389  143.1700  157.5143 C   0  0  2  0  0  0  0  0  0  0  0  0
  150.6835  142.9045  156.2966 N   0  0  0  0  0  0  0  0  0  0  0  0
  150.1331  139.7924  156.7289 H   0  0  0  0  0  0  0  0  0  0  0  0
  151.6839  139.9153  155.9233 H   0  0  0  0  0  0  0  0  0  0  0  0
  150.1816  136.7802  159.0596 H   0  0  0  0  0  0  0  0  0  0  0  0
  155.4665  139.7566  161.2274 H   0  0  0  0  0  0  0  0  0  0  0  0
  154.5352  136.2792  161.3126 H   0  0  0  0  0  0  0  0  0  0  0  0
  153.2348  137.8358  163.6164 H   0  0  0  0  0  0  0  0  0  0  0  0
  152.9641  136.1207  163.1560 H   0  0  0  0  0  0  0  0  0  0  0  0
  154.9904  138.1682  165.3596 H   0  0  0  0  0  0  0  0  0  0  0  0
  154.4689  136.6277  165.9909 H   0  0  0  0  0  0  0  0  0  0  0  0
  156.4829  137.0493  166.7511 H   0  0  0  0  0  0  0  0  0  0  0  0
  155.2122  134.6444  162.8553 H   0  0  0  0  0  0  0  0  0  0  0  0
  156.3989  134.8764  164.1076 H   0  0  0  0  0  0  0  0  0  0  0  0
  153.9178  133.8382  164.2790 H   0  0  0  0  0  0  0  0  0  0  0  0
  156.5938  137.0345  162.3424 H   0  0  0  0  0  0  0  0  0  0  0  0
  155.7863  138.4756  163.0482 H   0  0  0  0  0  0  0  0  0  0  0  0
  150.2693  141.9398  158.8472 H   0  0  0  0  0  0  0  0  0  0  0  0
  152.1149  141.5316  160.5103 H   0  0  0  0  0  0  0  0  0  0  0  0
  153.2440  142.3486  159.4614 H   0  0  0  0  0  0  0  0  0  0  0  0
  150.7876  143.5730  160.8113 H   0  0  0  0  0  0  0  0  0  0  0  0
  152.4527  143.8661  161.2497 H   0  0  0  0  0  0  0  0  0  0  0  0
  151.5060  145.7310  159.8639 H   0  0  0  0  0  0  0  0  0  0  0  0
  152.8887  144.9843  159.1004 H   0  0  0  0  0  0  0  0  0  0  0  0
  149.9532  144.4656  158.4175 H   0  0  0  0  0  0  0  0  0  0  0  0
  151.1168  145.3158  157.4260 H   0  0  0  0  0  0  0  0  0  0  0  0
  152.4842  143.2564  157.2114 H   0  0  0  0  0  0  0  0  0  0  0  0
  150.3303  143.7012  155.7867 H   0  0  0  0  0  0  0  0  0  0  0  0
  1  2  2  0  0  0  0
  2 28  1  0  0  0  0
  2  3  1  0  0  0  0
  3  4  1  0  0  0  0
  3 29  1  0  0  0  0
  3 30  1  0  0  0  0
  4  5  1  0  0  0  0
  4 22  1  0  0  0  0
  5 10  1  0  0  0  0
  5  6  2  0  0  0  0
  6  7  1  0  0  0  0
  7  8  2  0  0  0  0
  7 31  1  0  0  0  0
  8  9  1  0  0  0  0
  9 13  1  0  0  0  0
  9 10  2  0  0  0  0
 10 11  1  0  0  0  0
 11 12  2  0  0  0  0
 12 13  1  0  0  0  0
 12 32  1  0  0  0  0
 13 14  1  0  0  0  0
 14 21  1  0  0  0  0
 14 15  1  0  0  0  0
 14 33  1  0  0  0  0
 15 16  1  0  0  0  0
 15 34  1  0  0  0  0
 15 35  1  0  0  0  0
 16 17  1  0  0  0  0
 16 19  1  0  0  0  0
 16 21  1  0  0  0  0
 17 18  1  0  0  0  0
 17 36  1  0  0  0  0
 17 37  1  0  0  0  0
 18 38  1  0  0  0  0
 19 20  1  0  0  0  0
 19 39  1  0  0  0  0
 19 40  1  0  0  0  0
 20 41  1  0  0  0  0
 21 42  1  0  0  0  0
 21 43  1  0  0  0  0
 22 27  1  0  0  0  0
 22 23  1  0  0  0  0
 22 44  1  0  0  0  0
 23 24  1  0  0  0  0
 23 45  1  0  0  0  0
 23 46  1  0  0  0  0
 24 25  1  0  0  0  0
 24 47  1  0  0  0  0
 24 48  1  0  0  0  0
 25 26  1  0  0  0  0
 25 49  1  0  0  0  0
 25 50  1  0  0  0  0
 26 27  1  0  0  0  0
 26 51  1  0  0  0  0
 26 52  1  0  0  0  0
 27 28  1  0  0  0  0
 27 53  1  0  0  0  0
 28 54  1  0  0  0  0
M  END
> <s_m_source_file>
AV-unprocessed.smi

> <i_m_source_file_index>
245

> <i_lp_mmshare_version>
43012

> <i_f3d_flags>
0

> <s_epik_input>
W0NIMl0xW0NIMl1bQ0gyXVtDSDJdW0NASF0oW0NASF0xMilbTkhdQyg9TylbQ0gyXU4yYyhuW2NIXW4zKWMoYzM0KW5bY0hdbjRbQ0hdKFtDSDJdNSlbQ0gyXUM1KFtDSDJdW09IXSlbQ0gyXVtPSF0=

> <s_epik_cmdline>
J2VwaWtfcHl0aG9uJywgJy1waCcsICc3LjAnLCAnLXRuJywgJzgnLCAnLW1hJywgJzIwMCcsICctbWV0YWxfYmluZGluZycsICctaW1hZScsICc8aW5maWxlLm1hZT4nLCAnLW9tYWUnLCAnPG91dGZpbGUubWFlPic=

> <r_lp_tautomer_probability>
1

> <r_epik_Ionization_Penalty>
0.000702616

> <r_epik_Ionization_Penalty_Charging>
0

> <r_epik_Ionization_Penalty_Neutral>
0.000702616

> <r_epik_State_Penalty>
0.000343985

> <r_epik_Charging_Adjusted_Penalty>
0.000343985

> <i_epik_Tot_Q>
0

> <i_epik_Tot_abs_Q>
0

> <r_epik_Metal_State_Penalty>
-0

> <b_epik_Metal_Only>
0

> <s_lp_Force_Field>
OPLS_2005

> <r_lp_Energy>
49.1986

> <b_lp_Chiralities_Consistent>
1

> <s_lp_Variant>
AV-unprocessed.smi:245-3

> <Gold.Version>
5.8.1

> <Gold.Id.Protein>
6NUR|6NUR_protein|mol2

> <Gold.PLP.Fitness>
52.5516

> <Gold.PLP.PLP>
-47.9126

> <Gold.PLP.part.hbond>
-4.1489

> <Gold.PLP.part.metal>
0.0000

> <Gold.PLP.part.buried>
-4.5089

> <Gold.PLP.part.nonpolar>
-40.4976

> <Gold.PLP.part.repulsive>
0.2602

> <Gold.PLP.ligand.clash>
0.6080

> <Gold.PLP.ligand.torsion>
0.7673

> <Gold.PLP.Chemscore.Hbond>
1.9667

> <Gold.PLP.Chemscore.CHOScore>
0.0000

> <Gold.PLP.Chemscore.Metal>
0.0000

> <Gold.Chemscore.Hbonds>
donor molecule, donor type, donor heavy atom, donor atom, acceptor molecule, acceptor atom, score
      L1  H    28    54       P1  8028  0.83
      P1  H  6896  6909       L1     8  0.98
      P1  H  7989  7998       L1     1  0.20

> <Gold.PLP.Chemscore.Internal.Correction>
0.8817

> <Gold.Rescore>
     Score         DG    S(hbond)    S(metal)    S(lipo)     H(rot)  DE(clash)    DE(int)     intcor
     10.09     -13.89       1.29        0.00     106.60       3.28       0.50       3.30       ----

> <Gold.Chemscore.Fitness>
10.0916

> <Gold.Chemscore.DG>
-13.8884

> <Gold.Chemscore.ZeroCoef>
-5.4800

> <Gold.Chemscore.Hbond>
1.2940

> <Gold.Chemscore.Metal>
0.0000

> <Gold.Chemscore.Lipo>
106.6013

> <Gold.Chemscore.Internal_Hbond>
0.0000

> <Gold.Chemscore.DEClash>
0.4950

> <Gold.Chemscore.DEInternal>
3.3017

> <Gold.Chemscore.Rot>
3.2758

> <Gold.Chemscore.Internal.Correction>
   9.000000E+99

> <Gold.Chemscore.Hbonds>
donor molecule, donor type, donor heavy atom, donor atom, acceptor molecule, acceptor atom, score
      L1  H    28    54       P1  8028  0.83
      P1  H  6896  6909       L1     8  0.23
      P1  H  7989  7998       L1     1  0.04

> <Gold.Chemscore.Hbond.Weighted>
-4.3219

> <Gold.Chemscore.Metal.Weighted>
-0.0000

> <Gold.Chemscore.Lipo.Weighted>
-12.4723

> <Gold.Chemscore.Internal_Hbond.Weighted>
0.0000

> <Gold.Chemscore.DEClash.Weighted>
0.4950

> <Gold.Chemscore.DEInternal.Weighted>
3.3017

> <Gold.Chemscore.Rot.Weighted>
8.3859

> <Gold.Chemscore.Internal.Correction.Weighted>
   9.000000E+99

> <Gold.Protein.RotatedTorsions>
[ 6907 6896 6895 6894 ] final  130.61 input  -60.11 | X-H torsion
[ 7974 7965 7964 7962 ] final -144.89 input  175.53 | X-H torsion
[ 8008 7997 7996 7995 ] final  -93.92 input   59.86 | X-H torsion
[ 10167 10162 10161 10158 ] final  170.06 input  -65.29 | X-H torsion
[ 10718 10713 10712 10709 ] final  -42.19 input   66.30 | X-H torsion
[ 10763 10752 10751 10750 ] final -135.22 input  -60.55 | X-H torsion
[ 11005 11000 10999 10996 ] final -107.17 input  -57.11 | X-H torsion

> <Gold.Protein.ActiveResidues>
 VAL166  LYS551  ARG553  GLY616  TRP617  ASP618  TYR619  PRO620  LYS621  CYS622 
 ASP623  PHE694  ASN695  SER759  ASP760  ASP761  ALA762  ILE779  LEU786  VAL792 
 PHE793  MET794  SER795  GLU796  ALA797  LYS798  CYS799  TRP800  GLU811  SER814 

> <Gold.Protein.RotatedAtoms>
  152.3508  133.6178  159.5943 H   0  0  0  0  0  0  0  0  0  0  0  0  # atno 6907 bound_to 6896
  150.7537  133.9576  159.3514 H   0  0  0  0  0  0  0  0  0  0  0  0  # atno 6908 bound_to 6896
  151.7428  135.0851  160.0369 H   0  0  0  0  0  0  0  0  0  0  0  0  # atno 6909 bound_to 6896
  144.8265  140.5652  143.5543 H   0  0  0  0  0  0  0  0  0  0  0  0  # atno 7974 bound_to 7965
  154.7418  140.0494  157.0817 H   0  0  0  0  0  0  0  0  0  0  0  0  # atno 8008 bound_to 7997
  155.0169  140.3142  155.4789 H   0  0  0  0  0  0  0  0  0  0  0  0  # atno 8009 bound_to 7997
  156.2866  140.2174  156.5285 H   0  0  0  0  0  0  0  0  0  0  0  0  # atno 8010 bound_to 7997
  139.5008  144.3638  151.9797 H   0  0  0  0  0  0  0  0  0  0  0  0  # atno 10167 bound_to 10162
  156.2623  130.4198  149.8529 H   0  0  0  0  0  0  0  0  0  0  0  0  # atno 10718 bound_to 10713
  154.8706  135.3710  154.4864 H   0  0  0  0  0  0  0  0  0  0  0  0  # atno 10763 bound_to 10752
  153.5513  135.7024  153.5595 H   0  0  0  0  0  0  0  0  0  0  0  0  # atno 10764 bound_to 10752
  153.3712  135.4021  155.1754 H   0  0  0  0  0  0  0  0  0  0  0  0  # atno 10765 bound_to 10752
  141.0968  133.8957  157.1944 H   0  0  0  0  0  0  0  0  0  0  0  0  # atno 11005 bound_to 11000
  145.4988  139.1484  143.3668 LP  0  0  0  0  0  0  0  0  0  0  0  0  # atno 17320 bound_to 7965
  146.2570  140.5128  142.8869 LP  0  0  0  0  0  0  0  0  0  0  0  0  # atno 17321 bound_to 7965
  140.3074  144.3577  150.6043 LP  0  0  0  0  0  0  0  0  0  0  0  0  # atno 17342 bound_to 10162
  140.5826  143.2172  151.7401 LP  0  0  0  0  0  0  0  0  0  0  0  0  # atno 17343 bound_to 10162
  156.6040  130.8558  151.3438 LP  0  0  0  0  0  0  0  0  0  0  0  0  # atno 17370 bound_to 10713
  157.7255  130.9616  150.1616 LP  0  0  0  0  0  0  0  0  0  0  0  0  # atno 17371 bound_to 10713
  139.9807  135.0099  156.9741 LP  0  0  0  0  0  0  0  0  0  0  0  0  # atno 17394 bound_to 11000
  140.5121  134.0992  155.7272 LP  0  0  0  0  0  0  0  0  0  0  0  0  # atno 17395 bound_to 11000

$$$$
