AV-unprocessed.smi:2485|AV-procd|sdf|9789|dock1
  -GOLD-   2272013423D 1   1.00000     0.00000
 Structure written by MMmdl.
 39 40  0  0  0  0  0  0  0  0  1 V2000
  144.1072  132.8704  149.7401 C   0  0  0  0  0  0  0  0  0  0  0  0
  145.0351  132.9832  150.9618 C   0  0  0  0  0  0  0  0  0  0  0  0
  145.6885  131.6310  151.2851 C   0  0  0  0  0  0  0  0  0  0  0  0
  146.0697  134.1023  150.7947 C   0  0  0  0  0  0  0  0  0  0  0  0
  145.3630  135.3136  151.3702 C   0  0  2  0  0  0  0  0  0  0  0  0
  146.3157  136.3298  151.8127 N   0  0  0  0  0  0  0  0  0  0  0  0
  146.0010  137.4370  152.4994 C   0  0  0  0  0  0  0  0  0  0  0  0
  144.8497  137.7374  152.8152 O   0  0  0  0  0  0  0  0  0  0  0  0
  147.0994  138.1546  152.7911 N   0  0  0  0  0  0  0  0  0  0  0  0
  147.1829  139.3683  153.5230 C   0  0  0  0  0  0  0  0  0  0  0  0
  148.4003  140.0698  153.3922 C   0  0  0  0  0  0  0  0  0  0  0  0
  148.5518  141.2787  154.0928 C   0  0  0  0  0  0  0  0  0  0  0  0
  147.4694  141.7061  154.8805 C   0  0  0  0  0  0  0  0  0  0  0  0
  146.3211  141.0018  154.9767 N   0  0  0  0  0  0  0  0  0  0  0  0
  146.1838  139.8519  154.3072 N   0  0  0  0  0  0  0  0  0  0  0  0
  144.5259  134.6982  152.5135 C   0  0  0  0  0  0  0  0  0  0  0  0
  145.2838  134.5518  153.8499 C   0  0  0  0  0  0  0  0  0  0  0  0
  143.1934  135.4350  152.7233 C   0  0  0  0  0  0  0  0  0  0  0  0
  144.2284  133.3742  152.0719 O   0  0  0  0  0  0  0  0  0  0  0  0
  144.6640  132.5893  148.8457 H   0  0  0  0  0  0  0  0  0  0  0  0
  143.6016  133.8138  149.5329 H   0  0  0  0  0  0  0  0  0  0  0  0
  143.3361  132.1166  149.9010 H   0  0  0  0  0  0  0  0  0  0  0  0
  146.3339  131.2998  150.4709 H   0  0  0  0  0  0  0  0  0  0  0  0
  144.9360  130.8591  151.4487 H   0  0  0  0  0  0  0  0  0  0  0  0
  146.2962  131.6911  152.1885 H   0  0  0  0  0  0  0  0  0  0  0  0
  146.9645  133.8807  151.3789 H   0  0  0  0  0  0  0  0  0  0  0  0
  146.3835  134.2455  149.7602 H   0  0  0  0  0  0  0  0  0  0  0  0
  144.7055  135.7192  150.5985 H   0  0  0  0  0  0  0  0  0  0  0  0
  147.2872  136.1641  151.5949 H   0  0  0  0  0  0  0  0  0  0  0  0
  147.9781  137.7850  152.4606 H   0  0  0  0  0  0  0  0  0  0  0  0
  149.2005  139.6927  152.7719 H   0  0  0  0  0  0  0  0  0  0  0  0
  149.4625  141.8554  154.0293 H   0  0  0  0  0  0  0  0  0  0  0  0
  147.5241  142.6263  155.4429 H   0  0  0  0  0  0  0  0  0  0  0  0
  145.5129  135.5224  154.2906 H   0  0  0  0  0  0  0  0  0  0  0  0
  146.2225  134.0124  153.7233 H   0  0  0  0  0  0  0  0  0  0  0  0
  144.6876  133.9994  154.5767 H   0  0  0  0  0  0  0  0  0  0  0  0
  143.3555  136.4568  153.0665 H   0  0  0  0  0  0  0  0  0  0  0  0
  142.5770  134.9308  153.4679 H   0  0  0  0  0  0  0  0  0  0  0  0
  142.6170  135.4822  151.7990 H   0  0  0  0  0  0  0  0  0  0  0  0
  1  2  1  0  0  0  0
  1 20  1  0  0  0  0
  1 21  1  0  0  0  0
  1 22  1  0  0  0  0
  2 19  1  0  0  0  0
  2  3  1  0  0  0  0
  2  4  1  0  0  0  0
  3 23  1  0  0  0  0
  3 24  1  0  0  0  0
  3 25  1  0  0  0  0
  4  5  1  0  0  0  0
  4 26  1  0  0  0  0
  4 27  1  0  0  0  0
  5  6  1  0  0  0  0
  5 16  1  0  0  0  0
  5 28  1  0  0  0  0
  6  7  1  0  0  0  0
  6 29  1  0  0  0  0
  7  8  2  0  0  0  0
  7  9  1  0  0  0  0
  9 10  1  0  0  0  0
  9 30  1  0  0  0  0
 10 15  1  0  0  0  0
 10 11  2  0  0  0  0
 11 12  1  0  0  0  0
 11 31  1  0  0  0  0
 12 13  2  0  0  0  0
 12 32  1  0  0  0  0
 13 14  1  0  0  0  0
 13 33  1  0  0  0  0
 14 15  2  0  0  0  0
 16 17  1  0  0  0  0
 16 18  1  0  0  0  0
 16 19  1  0  0  0  0
 17 34  1  0  0  0  0
 17 35  1  0  0  0  0
 17 36  1  0  0  0  0
 18 37  1  0  0  0  0
 18 38  1  0  0  0  0
 18 39  1  0  0  0  0
M  END
> <s_m_source_file>
AV-unprocessed.smi

> <i_m_source_file_index>
2485

> <i_lp_mmshare_version>
43012

> <i_f3d_flags>
0

> <s_epik_input>
W0NIM11DMShbQ0gzXSlbQ0gyXVtDQEhdKEMoTzEpKFtDSDNdKVtDSDNdKVtOSF1DKD1PKVtOSF1jMltjSF1bY0hdW2NIXW5uMg==

> <s_epik_cmdline>
J2VwaWtfcHl0aG9uJywgJy1waCcsICc3LjAnLCAnLXRuJywgJzgnLCAnLW1hJywgJzIwMCcsICctbWV0YWxfYmluZGluZycsICctaW1hZScsICc8aW5maWxlLm1hZT4nLCAnLW9tYWUnLCAnPG91dGZpbGUubWFlPic=

> <r_lp_tautomer_probability>
1

> <r_epik_Ionization_Penalty>
0.00480341

> <r_epik_Ionization_Penalty_Charging>
0

> <r_epik_Ionization_Penalty_Neutral>
0.00480341

> <r_epik_State_Penalty>
-0

> <r_epik_Charging_Adjusted_Penalty>
0

> <i_epik_Tot_Q>
0

> <i_epik_Tot_abs_Q>
0

> <r_epik_Metal_State_Penalty>
-0

> <b_epik_Metal_Only>
0

> <s_lp_Force_Field>
OPLS_2005

> <r_lp_Energy>
24.1207

> <b_lp_Chiralities_Consistent>
1

> <s_lp_Variant>
AV-unprocessed.smi:2485-2

> <Gold.Version>
5.8.1

> <Gold.Id.Protein>
6NUR|6NUR_protein|mol2

> <Gold.PLP.Fitness>
36.5520

> <Gold.PLP.PLP>
-27.8395

> <Gold.PLP.part.hbond>
-2.0000

> <Gold.PLP.part.metal>
0.0000

> <Gold.PLP.part.buried>
-1.7423

> <Gold.PLP.part.nonpolar>
-25.3573

> <Gold.PLP.part.repulsive>
1.5703

> <Gold.PLP.ligand.clash>
0.0000

> <Gold.PLP.ligand.torsion>
0.0894

> <Gold.PLP.Chemscore.Hbond>
1.9600

> <Gold.PLP.Chemscore.CHOScore>
1.0000

> <Gold.PLP.Chemscore.Metal>
0.0000

> <Gold.Chemscore.Hbonds>
donor molecule, donor type, donor heavy atom, donor atom, acceptor molecule, acceptor atom, score
      L1  H     6    29       P1  7948  1.00
      L1  H     9    30       P1  7948  0.96
      L1  C    13    33       P1  8028  1.00

> <Gold.PLP.Chemscore.Internal.Correction>
0.0113

> <Gold.Rescore>
     Score         DG    S(hbond)    S(metal)    S(lipo)     H(rot)  DE(clash)    DE(int)     intcor
     11.96     -17.10       1.87        0.00      67.90       1.00       1.52       3.62       ----

> <Gold.Chemscore.Fitness>
11.9582

> <Gold.Chemscore.DG>
-17.1005

> <Gold.Chemscore.ZeroCoef>
-5.4800

> <Gold.Chemscore.Hbond>
1.8671

> <Gold.Chemscore.Metal>
0.0000

> <Gold.Chemscore.Lipo>
67.8994

> <Gold.Chemscore.Internal_Hbond>
0.0000

> <Gold.Chemscore.DEClash>
1.5221

> <Gold.Chemscore.DEInternal>
3.6201

> <Gold.Chemscore.Rot>
1.0000

> <Gold.Chemscore.Internal.Correction>
   9.000000E+99

> <Gold.Chemscore.Hbonds>
donor molecule, donor type, donor heavy atom, donor atom, acceptor molecule, acceptor atom, score
      L1  H     6    29       P1  7948  0.99
      L1  H     9    30       P1  7948  0.92

> <Gold.Chemscore.Hbond.Weighted>
-6.2362

> <Gold.Chemscore.Metal.Weighted>
-0.0000

> <Gold.Chemscore.Lipo.Weighted>
-7.9442

> <Gold.Chemscore.Internal_Hbond.Weighted>
0.0000

> <Gold.Chemscore.DEClash.Weighted>
1.5221

> <Gold.Chemscore.DEInternal.Weighted>
3.6201

> <Gold.Chemscore.Rot.Weighted>
2.5600

> <Gold.Chemscore.Internal.Correction.Weighted>
   9.000000E+99

> <Gold.Protein.RotatedTorsions>
[ 6907 6896 6895 6894 ] final  -29.16 input  -60.11 | X-H torsion
[ 7974 7965 7964 7962 ] final -119.68 input  175.53 | X-H torsion
[ 8008 7997 7996 7995 ] final   36.95 input   59.86 | X-H torsion
[ 10167 10162 10161 10158 ] final -118.10 input  -65.29 | X-H torsion
[ 10718 10713 10712 10709 ] final  -64.37 input   66.30 | X-H torsion
[ 10763 10752 10751 10750 ] final  163.13 input  -60.55 | X-H torsion
[ 11005 11000 10999 10996 ] final   62.40 input  -57.11 | X-H torsion

> <Gold.Protein.ActiveResidues>
 VAL166  LYS551  ARG553  GLY616  TRP617  ASP618  TYR619  PRO620  LYS621  CYS622 
 ASP623  PHE694  ASN695  SER759  ASP760  ASP761  ALA762  ILE779  LEU786  VAL792 
 PHE793  MET794  SER795  GLU796  ALA797  LYS798  CYS799  TRP800  GLU811  SER814 

> <Gold.Protein.RotatedAtoms>
  151.1230  135.0089  159.8546 H   0  0  0  0  0  0  0  0  0  0  0  0  # atno 6907 bound_to 6896
  152.5448  134.1701  159.8603 H   0  0  0  0  0  0  0  0  0  0  0  0  # atno 6908 bound_to 6896
  151.1760  133.4709  159.2627 H   0  0  0  0  0  0  0  0  0  0  0  0  # atno 6909 bound_to 6896
  145.0598  140.8281  143.4159 H   0  0  0  0  0  0  0  0  0  0  0  0  # atno 7974 bound_to 7965
  155.1957  140.3311  155.4351 H   0  0  0  0  0  0  0  0  0  0  0  0  # atno 8008 bound_to 7997
  156.2426  140.1902  156.6997 H   0  0  0  0  0  0  0  0  0  0  0  0  # atno 8009 bound_to 7997
  154.6175  140.0600  156.9559 H   0  0  0  0  0  0  0  0  0  0  0  0  # atno 8010 bound_to 7997
  140.0611  143.4967  152.2031 H   0  0  0  0  0  0  0  0  0  0  0  0  # atno 10167 bound_to 10162
  156.0733  130.4232  150.1410 H   0  0  0  0  0  0  0  0  0  0  0  0  # atno 10718 bound_to 10713
  154.2889  135.2761  155.2663 H   0  0  0  0  0  0  0  0  0  0  0  0  # atno 10763 bound_to 10752
  154.5151  135.5772  153.6639 H   0  0  0  0  0  0  0  0  0  0  0  0  # atno 10764 bound_to 10752
  152.9917  135.6190  154.3053 H   0  0  0  0  0  0  0  0  0  0  0  0  # atno 10765 bound_to 10752
  140.0094  134.6319  155.9804 H   0  0  0  0  0  0  0  0  0  0  0  0  # atno 11005 bound_to 11000
  145.1423  139.2565  143.5484 LP  0  0  0  0  0  0  0  0  0  0  0  0  # atno 17320 bound_to 7965
  146.3523  140.1103  142.8604 LP  0  0  0  0  0  0  0  0  0  0  0  0  # atno 17321 bound_to 7965
  139.5893  144.7544  151.3441 LP  0  0  0  0  0  0  0  0  0  0  0  0  # atno 17342 bound_to 10162
  140.7171  143.7236  150.7677 LP  0  0  0  0  0  0  0  0  0  0  0  0  # atno 17343 bound_to 10162
  156.9457  130.9758  151.3508 LP  0  0  0  0  0  0  0  0  0  0  0  0  # atno 17370 bound_to 10713
  157.5816  130.8380  149.8530 LP  0  0  0  0  0  0  0  0  0  0  0  0  # atno 17371 bound_to 10713
  141.1700  133.6537  156.4618 LP  0  0  0  0  0  0  0  0  0  0  0  0  # atno 17394 bound_to 11000
  140.4581  134.6866  157.5072 LP  0  0  0  0  0  0  0  0  0  0  0  0  # atno 17395 bound_to 11000

$$$$
