AV-unprocessed.smi:16|AV-procd|sdf|88|dock4
  -GOLD-   2262015223D 1   1.00000     0.00000
 Structure written by MMmdl.
 60 64  0  0  0  0  0  0  0  0  2 V2000
  151.9076  144.8327  158.4894 C   0  0  0  0  0  0  0  0  0  0  0  0
  151.0638  143.6928  159.0792 C   0  0  0  0  0  0  0  0  0  0  0  0
  151.8979  142.6475  159.7237 N   0  3  2  0  0  0  0  0  0  0  0  0
  152.4136  143.0704  161.0514 C   0  0  0  0  0  0  0  0  0  0  0  0
  153.1313  141.9098  161.7584 C   0  0  0  0  0  0  0  0  0  0  0  0
  154.2616  141.3348  160.8779 C   0  0  1  0  0  0  0  0  0  0  0  0
  154.9299  140.2269  161.4852 O   0  0  0  0  0  0  0  0  0  0  0  0
  154.1526  139.0341  161.5741 C   0  0  0  0  0  0  0  0  0  0  0  0
  153.6411  138.6291  160.1835 C   0  0  0  0  0  0  0  0  0  0  0  0
  152.9247  139.7385  159.5666 N   0  0  0  0  0  0  0  0  0  0  0  0
  152.2848  139.3753  158.4343 C   0  0  0  0  0  0  0  0  0  0  0  0
  152.7320  139.8053  157.2258 N   0  0  0  0  0  0  0  0  0  0  0  0
  152.0682  139.4682  156.1152 C   0  0  0  0  0  0  0  0  0  0  0  0
  150.9554  138.7391  155.9961 N   0  0  0  0  0  0  0  0  0  0  0  0
  150.5070  138.3123  157.2119 C   0  0  0  0  0  0  0  0  0  0  0  0
  151.1148  138.5759  158.4696 C   0  0  0  0  0  0  0  0  0  0  0  0
  150.3911  137.9751  159.4906 N   0  0  0  0  0  0  0  0  0  0  0  0
  149.4106  137.3784  158.8682 C   0  0  0  0  0  0  0  0  0  0  0  0
  149.3823  137.5609  157.5031 N   0  0  0  0  0  0  0  0  0  0  0  0
  148.4353  137.0034  156.5833 C   0  0  0  0  0  0  0  0  0  0  0  0
  148.6176  137.1575  155.0716 C   0  0  0  0  0  0  0  0  0  0  0  0
  147.0823  137.2008  154.8982 C   0  0  0  0  0  0  0  0  0  0  0  0
  146.5555  138.2414  153.8966 C   0  0  0  0  0  0  0  0  0  0  0  0
  146.9921  137.9503  152.5848 O   0  0  0  0  0  0  0  0  0  0  0  0
  146.4123  135.8410  154.6148 C   0  0  0  0  0  0  0  0  0  0  0  0
  146.5612  135.4631  153.2612 O   0  0  0  0  0  0  0  0  0  0  0  0
  147.0626  137.6471  156.3766 C   0  0  0  0  0  0  0  0  0  0  0  0
  153.7399  140.9537  159.4743 C   0  0  1  0  0  0  0  0  0  0  0  0
  153.0003  142.1644  158.8504 C   0  0  0  0  0  0  0  0  0  0  0  0
  155.0142  142.1151  160.7590 H   0  0  0  0  0  0  0  0  0  0  0  0
  154.5997  140.7206  158.8442 H   0  0  0  0  0  0  0  0  0  0  0  0
  151.2683  145.5708  158.0049 H   0  0  0  0  0  0  0  0  0  0  0  0
  152.5999  144.4577  157.7361 H   0  0  0  0  0  0  0  0  0  0  0  0
  152.4889  145.3551  159.2488 H   0  0  0  0  0  0  0  0  0  0  0  0
  150.3338  144.0808  159.7912 H   0  0  0  0  0  0  0  0  0  0  0  0
  150.4907  143.2506  158.2631 H   0  0  0  0  0  0  0  0  0  0  0  0
  153.0904  143.9177  160.9299 H   0  0  0  0  0  0  0  0  0  0  0  0
  151.5878  143.4103  161.6775 H   0  0  0  0  0  0  0  0  0  0  0  0
  153.5383  142.2483  162.7114 H   0  0  0  0  0  0  0  0  0  0  0  0
  152.3909  141.1460  161.9942 H   0  0  0  0  0  0  0  0  0  0  0  0
  154.7773  138.2411  161.9850 H   0  0  0  0  0  0  0  0  0  0  0  0
  153.3248  139.1625  162.2709 H   0  0  0  0  0  0  0  0  0  0  0  0
  154.4818  138.3385  159.5514 H   0  0  0  0  0  0  0  0  0  0  0  0
  152.9868  137.7602  160.2679 H   0  0  0  0  0  0  0  0  0  0  0  0
  152.4837  139.8406  155.1902 H   0  0  0  0  0  0  0  0  0  0  0  0
  148.6679  136.7961  159.3944 H   0  0  0  0  0  0  0  0  0  0  0  0
  148.3334  135.9513  156.8547 H   0  0  0  0  0  0  0  0  0  0  0  0
  149.1052  138.0974  154.8061 H   0  0  0  0  0  0  0  0  0  0  0  0
  149.1161  136.3141  154.5928 H   0  0  0  0  0  0  0  0  0  0  0  0
  145.4652  138.2538  153.8886 H   0  0  0  0  0  0  0  0  0  0  0  0
  146.8698  139.2515  154.1603 H   0  0  0  0  0  0  0  0  0  0  0  0
  147.4183  137.1069  152.5901 H   0  0  0  0  0  0  0  0  0  0  0  0
  146.8466  135.0517  155.2283 H   0  0  0  0  0  0  0  0  0  0  0  0
  145.3497  135.8614  154.8579 H   0  0  0  0  0  0  0  0  0  0  0  0
  147.4825  135.4561  153.0511 H   0  0  0  0  0  0  0  0  0  0  0  0
  146.2632  137.2110  156.9766 H   0  0  0  0  0  0  0  0  0  0  0  0
  147.0883  138.7327  156.4905 H   0  0  0  0  0  0  0  0  0  0  0  0
  152.6276  141.9156  157.8577 H   0  0  0  0  0  0  0  0  0  0  0  0
  153.7093  142.9800  158.6990 H   0  0  0  0  0  0  0  0  0  0  0  0
  151.2871  141.8611  159.8952 H   0  0  0  0  0  0  0  0  0  0  0  0
  1  2  1  0  0  0  0
  1 32  1  0  0  0  0
  1 33  1  0  0  0  0
  1 34  1  0  0  0  0
  2  3  1  0  0  0  0
  2 35  1  0  0  0  0
  2 36  1  0  0  0  0
  3 29  1  0  0  0  0
  3  4  1  0  0  0  0
  3 60  1  0  0  0  0
  4  5  1  0  0  0  0
  4 37  1  0  0  0  0
  4 38  1  0  0  0  0
  5  6  1  0  0  0  0
  5 39  1  0  0  0  0
  5 40  1  0  0  0  0
  6 30  1  0  0  0  0
  6 28  1  0  0  0  0
  6  7  1  0  0  0  0
  7  8  1  0  0  0  0
  8  9  1  0  0  0  0
  8 41  1  0  0  0  0
  8 42  1  0  0  0  0
  9 10  1  0  0  0  0
  9 43  1  0  0  0  0
  9 44  1  0  0  0  0
 10 11  1  0  0  0  0
 10 28  1  0  0  0  0
 11 16  1  0  0  0  0
 11 12  2  0  0  0  0
 12 13  1  0  0  0  0
 13 14  2  0  0  0  0
 13 45  1  0  0  0  0
 14 15  1  0  0  0  0
 15 19  1  0  0  0  0
 15 16  2  0  0  0  0
 16 17  1  0  0  0  0
 17 18  2  0  0  0  0
 18 19  1  0  0  0  0
 18 46  1  0  0  0  0
 19 20  1  0  0  0  0
 20 27  1  0  0  0  0
 20 21  1  0  0  0  0
 20 47  1  0  0  0  0
 21 22  1  0  0  0  0
 21 48  1  0  0  0  0
 21 49  1  0  0  0  0
 22 23  1  0  0  0  0
 22 25  1  0  0  0  0
 22 27  1  0  0  0  0
 23 24  1  0  0  0  0
 23 50  1  0  0  0  0
 23 51  1  0  0  0  0
 24 52  1  0  0  0  0
 25 26  1  0  0  0  0
 25 53  1  0  0  0  0
 25 54  1  0  0  0  0
 26 55  1  0  0  0  0
 27 56  1  0  0  0  0
 27 57  1  0  0  0  0
 28 31  1  0  0  0  0
 28 29  1  0  0  0  0
 29 58  1  0  0  0  0
 29 59  1  0  0  0  0
M  CHG  1   3   1
M  END
> <s_m_source_file>
AV-unprocessed.smi

> <i_m_source_file_index>
16

> <i_lp_mmshare_version>
43012

> <i_f3d_flags>
0

> <s_epik_input>
W0NIM11bQ0gyXU4oW0NIMl1bQ0gyXTEpW0NIMl1bQ0BASF0oW0NAQEhdMTIpTihbQ0gyXVtDSDJdTzIpYyhuW2NIXW4zKWMoYzM0KW5bY0hdbjRbQ0hdKFtDSDJdNSlbQ0gyXUM1KFtDSDJdW09IXSlbQ0gyXVtPSF0=

> <s_epik_cmdline>
J2VwaWtfcHl0aG9uJywgJy1waCcsICc3LjAnLCAnLXRuJywgJzgnLCAnLW1hJywgJzIwMCcsICctbWV0YWxfYmluZGluZycsICctaW1hZScsICc8aW5maWxlLm1hZT4nLCAnLW9tYWUnLCAnPG91dGZpbGUubWFlPic=

> <r_lp_tautomer_probability>
1

> <r_epik_Ionization_Penalty>
0.0135603

> <r_epik_Ionization_Penalty_Charging>
0.0131385

> <r_epik_Ionization_Penalty_Neutral>
0.000421734

> <r_epik_State_Penalty>
0.0102091

> <r_epik_Charging_Adjusted_Penalty>
0.0233476

> <i_epik_Tot_Q>
1

> <i_epik_Tot_abs_Q>
1

> <r_epik_Metal_State_Penalty>
0.0103746

> <b_epik_Metal_Only>
0

> <s_lp_Force_Field>
OPLS_2005

> <r_lp_Energy>
60.5416

> <b_lp_Chiralities_Consistent>
1

> <s_lp_Variant>
AV-unprocessed.smi:16-2

> <Gold.Version>
5.8.1

> <Gold.Id.Protein>
6NUR|6NUR_protein|mol2

> <Gold.PLP.Fitness>
49.0776

> <Gold.PLP.PLP>
-41.4602

> <Gold.PLP.part.hbond>
-4.1786

> <Gold.PLP.part.metal>
0.0000

> <Gold.PLP.part.buried>
-6.2463

> <Gold.PLP.part.nonpolar>
-30.9048

> <Gold.PLP.part.repulsive>
0.0829

> <Gold.PLP.ligand.clash>
0.0000

> <Gold.PLP.ligand.torsion>
1.0346

> <Gold.PLP.Chemscore.Hbond>
3.0000

> <Gold.PLP.Chemscore.CHOScore>
0.0000

> <Gold.PLP.Chemscore.Metal>
0.0000

> <Gold.Chemscore.Hbonds>
donor molecule, donor type, donor heavy atom, donor atom, acceptor molecule, acceptor atom, score
      L1  H    24    52       P1  7948  0.78
      L1  H    26    55       P1  7948  0.92
      P1  H  7997  8008       L1    12  1.00

> <Gold.PLP.Chemscore.Internal.Correction>
0.6867

> <Gold.Rescore>
     Score         DG    S(hbond)    S(metal)    S(lipo)     H(rot)  DE(clash)    DE(int)     intcor
     14.12     -17.78       2.75        0.00      99.25       3.33       0.02       3.64       ----

> <Gold.Chemscore.Fitness>
14.1177

> <Gold.Chemscore.DG>
-17.7813

> <Gold.Chemscore.ZeroCoef>
-5.4800

> <Gold.Chemscore.Hbond>
2.7548

> <Gold.Chemscore.Metal>
0.0000

> <Gold.Chemscore.Lipo>
99.2504

> <Gold.Chemscore.Internal_Hbond>
0.0000

> <Gold.Chemscore.DEClash>
0.0211

> <Gold.Chemscore.DEInternal>
3.6425

> <Gold.Chemscore.Rot>
3.3251

> <Gold.Chemscore.Internal.Correction>
   9.000000E+99

> <Gold.Chemscore.Hbonds>
donor molecule, donor type, donor heavy atom, donor atom, acceptor molecule, acceptor atom, score
      L1  H    24    52       P1  7948  0.79
      L1  H    26    55       P1  7948  0.84
      P1  H  7997  8008       L1    12  0.55

> <Gold.Chemscore.Hbond.Weighted>
-9.2012

> <Gold.Chemscore.Metal.Weighted>
-0.0000

> <Gold.Chemscore.Lipo.Weighted>
-11.6123

> <Gold.Chemscore.Internal_Hbond.Weighted>
0.0000

> <Gold.Chemscore.DEClash.Weighted>
0.0211

> <Gold.Chemscore.DEInternal.Weighted>
3.6425

> <Gold.Chemscore.Rot.Weighted>
8.5122

> <Gold.Chemscore.Internal.Correction.Weighted>
   9.000000E+99

> <Gold.Protein.RotatedTorsions>
[ 6907 6896 6895 6894 ] final   78.16 input  -60.11 | X-H torsion
[ 7974 7965 7964 7962 ] final   12.73 input  175.53 | X-H torsion
[ 8008 7997 7996 7995 ] final  -64.99 input   59.86 | X-H torsion
[ 10167 10162 10161 10158 ] final   36.77 input  -65.29 | X-H torsion
[ 10718 10713 10712 10709 ] final   95.32 input   66.30 | X-H torsion
[ 10763 10752 10751 10750 ] final  -92.76 input  -60.55 | X-H torsion
[ 11005 11000 10999 10996 ] final  -13.05 input  -57.11 | X-H torsion

> <Gold.Protein.ActiveResidues>
 VAL166  LYS551  ARG553  GLY616  TRP617  ASP618  TYR619  PRO620  LYS621  CYS622 
 ASP623  PHE694  ASN695  SER759  ASP760  ASP761  ALA762  ILE779  LEU786  VAL792 
 PHE793  MET794  SER795  GLU796  ALA797  LYS798  CYS799  TRP800  GLU811  SER814 

> <Gold.Protein.RotatedAtoms>
  152.5148  134.3706  159.9316 H   0  0  0  0  0  0  0  0  0  0  0  0  # atno 6907 bound_to 6896
  151.3660  133.3866  159.2702 H   0  0  0  0  0  0  0  0  0  0  0  0  # atno 6908 bound_to 6896
  150.9614  134.9021  159.7791 H   0  0  0  0  0  0  0  0  0  0  0  0  # atno 6909 bound_to 6896
  146.2345  139.9294  142.8498 H   0  0  0  0  0  0  0  0  0  0  0  0  # atno 7974 bound_to 7965
  154.4645  140.0942  156.6982 H   0  0  0  0  0  0  0  0  0  0  0  0  # atno 8008 bound_to 7997
  155.4899  140.3470  155.4335 H   0  0  0  0  0  0  0  0  0  0  0  0  # atno 8009 bound_to 7997
  156.0930  140.1402  156.9555 H   0  0  0  0  0  0  0  0  0  0  0  0  # atno 8010 bound_to 7997
  140.4096  144.1611  150.6138 H   0  0  0  0  0  0  0  0  0  0  0  0  # atno 10167 bound_to 10162
  157.6940  131.0542  150.4321 H   0  0  0  0  0  0  0  0  0  0  0  0  # atno 10718 bound_to 10713
  154.6892  135.5219  153.8369 H   0  0  0  0  0  0  0  0  0  0  0  0  # atno 10763 bound_to 10752
  153.0620  135.6571  154.0450 H   0  0  0  0  0  0  0  0  0  0  0  0  # atno 10764 bound_to 10752
  154.0327  135.2984  155.3346 H   0  0  0  0  0  0  0  0  0  0  0  0  # atno 10765 bound_to 10752
  140.7720  133.8431  155.9216 H   0  0  0  0  0  0  0  0  0  0  0  0  # atno 11005 bound_to 11000
  145.2059  140.9875  143.4128 LP  0  0  0  0  0  0  0  0  0  0  0  0  # atno 17320 bound_to 7965
  144.9733  139.3858  143.6298 LP  0  0  0  0  0  0  0  0  0  0  0  0  # atno 17321 bound_to 7965
  140.4652  143.2433  151.9164 LP  0  0  0  0  0  0  0  0  0  0  0  0  # atno 17342 bound_to 10162
  139.4783  144.5426  151.8505 LP  0  0  0  0  0  0  0  0  0  0  0  0  # atno 17343 bound_to 10162
  156.4687  130.4048  149.6531 LP  0  0  0  0  0  0  0  0  0  0  0  0  # atno 17370 bound_to 10713
  156.3620  130.7486  151.2459 LP  0  0  0  0  0  0  0  0  0  0  0  0  # atno 17371 bound_to 10713
  140.9564  134.1712  157.4688 LP  0  0  0  0  0  0  0  0  0  0  0  0  # atno 17394 bound_to 11000
  139.8754  134.9928  156.5616 LP  0  0  0  0  0  0  0  0  0  0  0  0  # atno 17395 bound_to 11000

$$$$
