AV-unprocessed.smi:2083|AV-procd|sdf|8501|dock1
  -GOLD-   2272011213D 1   1.00000     0.00000
 Structure written by MMmdl.
 44 45  0  0  0  0  0  0  0  0  3 V2000
  153.1186  141.9071  159.7509 C   0  0  0  0  0  0  0  0  0  0  0  0
  152.2979  141.3389  158.6442 C   0  0  0  0  0  0  0  0  0  0  0  0
  151.1442  141.7511  158.0404 C   0  0  0  0  0  0  0  0  0  0  0  0
  150.9130  140.7464  157.0617 C   0  0  0  0  0  0  0  0  0  0  0  0
  149.8747  140.6978  156.2130 N   0  5  0  0  0  0  0  0  0  0  0  0
  149.7968  139.7161  155.2864 C   0  0  0  0  0  0  0  0  0  0  0  0
  150.5954  139.5088  154.3701 O   0  0  0  0  0  0  0  0  0  0  0  0
  148.7157  138.9349  155.4244 N   0  0  0  0  0  0  0  0  0  0  0  0
  148.3466  137.8035  154.5771 C   0  0  0  0  0  0  0  0  0  0  0  0
  147.0392  138.0491  153.7820 C   0  0  1  0  0  0  0  0  0  0  0  0
  147.1793  139.2736  152.8443 C   0  0  0  0  0  0  0  0  0  0  0  0
  146.6412  136.7834  153.0826 N   0  3  2  0  0  0  0  0  0  0  0  0
  145.6560  136.9205  151.9704 C   0  0  0  0  0  0  0  0  0  0  0  0
  145.4439  135.5864  151.2348 C   0  0  0  0  0  0  0  0  0  0  0  0
  145.0302  134.4700  152.2008 C   0  0  0  0  0  0  0  0  0  0  0  0
  146.0221  134.3579  153.3701 C   0  0  1  0  0  0  0  0  0  0  0  0
  147.3641  133.7237  152.9639 C   0  0  0  0  0  0  0  0  0  0  0  0
  146.2066  135.7306  154.0461 C   0  0  0  0  0  0  0  0  0  0  0  0
  151.8372  139.8006  157.0791 N   0  0  0  0  0  0  0  0  0  0  0  0
  152.7332  140.1766  158.0870 O   0  0  0  0  0  0  0  0  0  0  0  0
  152.5208  142.0160  160.6559 H   0  0  0  0  0  0  0  0  0  0  0  0
  153.5034  142.8899  159.4792 H   0  0  0  0  0  0  0  0  0  0  0  0
  153.9674  141.2634  159.9829 H   0  0  0  0  0  0  0  0  0  0  0  0
  150.5595  142.6312  158.2621 H   0  0  0  0  0  0  0  0  0  0  0  0
  148.0958  139.1476  156.1925 H   0  0  0  0  0  0  0  0  0  0  0  0
  149.1563  137.5450  153.8927 H   0  0  0  0  0  0  0  0  0  0  0  0
  148.2444  136.9483  155.2430 H   0  0  0  0  0  0  0  0  0  0  0  0
  146.2473  138.2994  154.4902 H   0  0  0  0  0  0  0  0  0  0  0  0
  147.4368  140.1755  153.3987 H   0  0  0  0  0  0  0  0  0  0  0  0
  146.2472  139.5067  152.3299 H   0  0  0  0  0  0  0  0  0  0  0  0
  147.9581  139.1187  152.0968 H   0  0  0  0  0  0  0  0  0  0  0  0
  144.7082  137.2917  152.3633 H   0  0  0  0  0  0  0  0  0  0  0  0
  146.0042  137.6368  151.2271 H   0  0  0  0  0  0  0  0  0  0  0  0
  144.6819  135.7072  150.4640 H   0  0  0  0  0  0  0  0  0  0  0  0
  146.3597  135.3061  150.7134 H   0  0  0  0  0  0  0  0  0  0  0  0
  144.0356  134.6883  152.5920 H   0  0  0  0  0  0  0  0  0  0  0  0
  144.9490  133.5196  151.6719 H   0  0  0  0  0  0  0  0  0  0  0  0
  145.5768  133.6881  154.1071 H   0  0  0  0  0  0  0  0  0  0  0  0
  147.9038  134.3365  152.2418 H   0  0  0  0  0  0  0  0  0  0  0  0
  147.2137  132.7402  152.5179 H   0  0  0  0  0  0  0  0  0  0  0  0
  148.0118  133.5936  153.8315 H   0  0  0  0  0  0  0  0  0  0  0  0
  146.9184  135.6283  154.8639 H   0  0  0  0  0  0  0  0  0  0  0  0
  145.2653  136.0410  154.5030 H   0  0  0  0  0  0  0  0  0  0  0  0
  147.4866  136.4437  152.6464 H   0  0  0  0  0  0  0  0  0  0  0  0
  1  2  1  0  0  0  0
  1 21  1  0  0  0  0
  1 22  1  0  0  0  0
  1 23  1  0  0  0  0
  2 20  1  0  0  0  0
  2  3  2  0  0  0  0
  3  4  1  0  0  0  0
  3 24  1  0  0  0  0
  4  5  1  0  0  0  0
  4 19  2  0  0  0  0
  5  6  1  0  0  0  0
  6  7  2  0  0  0  0
  6  8  1  0  0  0  0
  8  9  1  0  0  0  0
  8 25  1  0  0  0  0
  9 10  1  0  0  0  0
  9 26  1  0  0  0  0
  9 27  1  0  0  0  0
 10 11  1  0  0  0  0
 10 12  1  0  0  0  0
 10 28  1  0  0  0  0
 11 29  1  0  0  0  0
 11 30  1  0  0  0  0
 11 31  1  0  0  0  0
 12 18  1  0  0  0  0
 12 13  1  0  0  0  0
 12 44  1  0  0  0  0
 13 14  1  0  0  0  0
 13 32  1  0  0  0  0
 13 33  1  0  0  0  0
 14 15  1  0  0  0  0
 14 34  1  0  0  0  0
 14 35  1  0  0  0  0
 15 16  1  0  0  0  0
 15 36  1  0  0  0  0
 15 37  1  0  0  0  0
 16 17  1  0  0  0  0
 16 18  1  0  0  0  0
 16 38  1  0  0  0  0
 17 39  1  0  0  0  0
 17 40  1  0  0  0  0
 17 41  1  0  0  0  0
 18 42  1  0  0  0  0
 18 43  1  0  0  0  0
 19 20  1  0  0  0  0
M  CHG  1   5  -1
M  CHG  1  12   1
M  END
> <s_m_source_file>
AV-unprocessed.smi

> <i_m_source_file_index>
2083

> <i_lp_mmshare_version>
43012

> <i_f3d_flags>
0

> <s_epik_input>
W0NIM11jMVtjSF1jKG5vMSlbTkhdQyg9TylbTkhdW0NIMl1bQ0BIXShbQ0gzXSlOMltDSDJdW0NIMl1bQ0gyXVtDQEBIXShbQ0gzXSlbQ0gyXTI=

> <s_epik_cmdline>
J2VwaWtfcHl0aG9uJywgJy1waCcsICc3LjAnLCAnLXRuJywgJzgnLCAnLW1hJywgJzIwMCcsICctbWV0YWxfYmluZGluZycsICctaW1hZScsICc8aW5maWxlLm1hZT4nLCAnLW9tYWUnLCAnPG91dGZpbGUubWFlPic=

> <r_epik_Ionization_Penalty>
6.22434

> <r_epik_Ionization_Penalty_Charging>
6.22425

> <r_epik_Ionization_Penalty_Neutral>
9.62407e-05

> <r_epik_State_Penalty>
6.22423

> <r_epik_Charging_Adjusted_Penalty>
12.4485

> <i_epik_Tot_Q>
0

> <i_epik_Tot_abs_Q>
2

> <r_epik_Metal_State_Penalty>
2.16764

> <b_epik_Metal_Only>
1

> <s_lp_Force_Field>
OPLS_2005

> <r_lp_Energy>
14.1674

> <b_lp_Chiralities_Consistent>
1

> <s_lp_Variant>
AV-unprocessed.smi:2083-12

> <Gold.Version>
5.8.1

> <Gold.Id.Protein>
6NUR|6NUR_protein|mol2

> <Gold.PLP.Fitness>
36.9278

> <Gold.PLP.PLP>
-26.4604

> <Gold.PLP.part.hbond>
-3.0000

> <Gold.PLP.part.metal>
0.0000

> <Gold.PLP.part.buried>
-1.0710

> <Gold.PLP.part.nonpolar>
-21.9001

> <Gold.PLP.part.repulsive>
0.2000

> <Gold.PLP.ligand.clash>
0.0000

> <Gold.PLP.ligand.torsion>
0.8617

> <Gold.PLP.Chemscore.Hbond>
3.9920

> <Gold.PLP.Chemscore.CHOScore>
0.0000

> <Gold.PLP.Chemscore.Metal>
0.0000

> <Gold.Chemscore.Hbonds>
donor molecule, donor type, donor heavy atom, donor atom, acceptor molecule, acceptor atom, score
      L1  H    12    44       P1  7948  2.00
      P1  H  7989  7998       L1     7  1.00
      P1  H  7997  8010       L1    20  0.69

> <Gold.PLP.Chemscore.Internal.Correction>
0.2148

> <Gold.Rescore>
     Score         DG    S(hbond)    S(metal)    S(lipo)     H(rot)  DE(clash)    DE(int)     intcor
     16.11     -18.03       2.68        0.00      64.01       1.52       0.08       1.83       ----

> <Gold.Chemscore.Fitness>
16.1137

> <Gold.Chemscore.DG>
-18.0281

> <Gold.Chemscore.ZeroCoef>
-5.4800

> <Gold.Chemscore.Hbond>
2.6791

> <Gold.Chemscore.Metal>
0.0000

> <Gold.Chemscore.Lipo>
64.0052

> <Gold.Chemscore.Internal_Hbond>
0.0000

> <Gold.Chemscore.DEClash>
0.0795

> <Gold.Chemscore.DEInternal>
1.8348

> <Gold.Chemscore.Rot>
1.5190

> <Gold.Chemscore.Internal.Correction>
   9.000000E+99

> <Gold.Chemscore.Hbonds>
donor molecule, donor type, donor heavy atom, donor atom, acceptor molecule, acceptor atom, score
      L1  H    12    44       P1  7948  1.00
      P1  H  7989  7998       L1     7  0.99
      P1  H  7997  8010       L1    20  0.13

> <Gold.Chemscore.Hbond.Weighted>
-8.9481

> <Gold.Chemscore.Metal.Weighted>
-0.0000

> <Gold.Chemscore.Lipo.Weighted>
-7.4886

> <Gold.Chemscore.Internal_Hbond.Weighted>
0.0000

> <Gold.Chemscore.DEClash.Weighted>
0.0795

> <Gold.Chemscore.DEInternal.Weighted>
1.8348

> <Gold.Chemscore.Rot.Weighted>
3.8886

> <Gold.Chemscore.Internal.Correction.Weighted>
   9.000000E+99

> <Gold.Protein.RotatedTorsions>
[ 6907 6896 6895 6894 ] final   52.68 input  -60.11 | X-H torsion
[ 7974 7965 7964 7962 ] final  -38.12 input  175.53 | X-H torsion
[ 8008 7997 7996 7995 ] final   41.41 input   59.86 | X-H torsion
[ 10167 10162 10161 10158 ] final   21.34 input  -65.29 | X-H torsion
[ 10718 10713 10712 10709 ] final  -79.65 input   66.30 | X-H torsion
[ 10763 10752 10751 10750 ] final  -68.90 input  -60.55 | X-H torsion
[ 11005 11000 10999 10996 ] final -113.93 input  -57.11 | X-H torsion

> <Gold.Protein.ActiveResidues>
 VAL166  LYS551  ARG553  GLY616  TRP617  ASP618  TYR619  PRO620  LYS621  CYS622 
 ASP623  PHE694  ASN695  SER759  ASP760  ASP761  ALA762  ILE779  LEU786  VAL792 
 PHE793  MET794  SER795  GLU796  ALA797  LYS798  CYS799  TRP800  GLU811  SER814 

> <Gold.Protein.RotatedAtoms>
  152.3258  134.7322  160.0301 H   0  0  0  0  0  0  0  0  0  0  0  0  # atno 6907 bound_to 6896
  151.7755  133.3339  159.3465 H   0  0  0  0  0  0  0  0  0  0  0  0  # atno 6908 bound_to 6896
  150.7395  134.5910  159.6032 H   0  0  0  0  0  0  0  0  0  0  0  0  # atno 6909 bound_to 6896
  146.0514  140.6475  142.9040 H   0  0  0  0  0  0  0  0  0  0  0  0  # atno 7974 bound_to 7965
  155.2693  140.3365  155.4266 H   0  0  0  0  0  0  0  0  0  0  0  0  # atno 8008 bound_to 7997
  156.2140  140.1781  156.7673 H   0  0  0  0  0  0  0  0  0  0  0  0  # atno 8009 bound_to 7997
  154.5727  140.0667  156.8972 H   0  0  0  0  0  0  0  0  0  0  0  0  # atno 8010 bound_to 7997
  140.5434  143.9636  150.6533 H   0  0  0  0  0  0  0  0  0  0  0  0  # atno 10167 bound_to 10162
  156.0088  130.4552  150.3680 H   0  0  0  0  0  0  0  0  0  0  0  0  # atno 10718 bound_to 10713
  154.3957  135.6042  153.5868 H   0  0  0  0  0  0  0  0  0  0  0  0  # atno 10763 bound_to 10752
  152.9787  135.5894  154.4244 H   0  0  0  0  0  0  0  0  0  0  0  0  # atno 10764 bound_to 10752
  154.4035  135.2843  155.2060 H   0  0  0  0  0  0  0  0  0  0  0  0  # atno 10765 bound_to 10752
  141.0583  133.9576  157.2713 H   0  0  0  0  0  0  0  0  0  0  0  0  # atno 11005 bound_to 11000
  144.7125  140.4090  143.7070 LP  0  0  0  0  0  0  0  0  0  0  0  0  # atno 17320 bound_to 7965
  145.6717  139.1600  143.2750 LP  0  0  0  0  0  0  0  0  0  0  0  0  # atno 17321 bound_to 7965
  140.3043  143.3240  152.0941 LP  0  0  0  0  0  0  0  0  0  0  0  0  # atno 17342 bound_to 10162
  139.4998  144.6677  151.6317 LP  0  0  0  0  0  0  0  0  0  0  0  0  # atno 17343 bound_to 10162
  157.1766  131.0382  151.2769 LP  0  0  0  0  0  0  0  0  0  0  0  0  # atno 17370 bound_to 10713
  157.4182  130.7423  149.6892 LP  0  0  0  0  0  0  0  0  0  0  0  0  # atno 17371 bound_to 10713
  139.9410  135.0191  156.8708 LP  0  0  0  0  0  0  0  0  0  0  0  0  # atno 17394 bound_to 11000
  140.5919  134.0254  155.7503 LP  0  0  0  0  0  0  0  0  0  0  0  0  # atno 17395 bound_to 11000

$$$$
