AV-unprocessed.smi:3343|AV-procd|sdf|12892|dock1
  -GOLD-   2272019303D 1   1.00000     0.00000
 Structure written by MMmdl.
 42 43  0  0  0  0  0  0  0  0  2 V2000
  145.1401  135.9092  150.9375 C   0  0  0  0  0  0  0  0  0  0  0  0
  144.9835  135.8051  152.4657 C   0  0  1  0  0  0  0  0  0  0  0  0
  145.9006  136.7786  153.2195 C   0  0  0  0  0  0  0  0  0  0  0  0
  146.1281  136.6239  154.4204 O   0  0  0  0  0  0  0  0  0  0  0  0
  146.4474  137.7642  152.4908 N   0  0  0  0  0  0  0  0  0  0  0  0
  147.4146  138.7317  152.9916 C   0  0  0  0  0  0  0  0  0  0  0  0
  146.7120  139.8110  153.8364 C   0  0  0  0  0  0  0  0  0  0  0  0
  147.4323  141.0862  153.8258 N   0  0  0  0  0  0  0  0  0  0  0  0
  146.6799  142.2265  154.3627 C   0  0  0  0  0  0  0  0  0  0  0  0
  146.4574  142.1162  155.8862 C   0  0  0  0  0  0  0  0  0  0  0  0
  147.7546  141.9935  156.5911 N   0  3  0  0  0  0  0  0  0  0  0  0
  147.6034  141.9386  158.0608 C   0  0  0  0  0  0  0  0  0  0  0  0
  148.5370  140.8562  156.0535 C   0  0  0  0  0  0  0  0  0  0  0  0
  148.7167  140.9982  154.5264 C   0  0  0  0  0  0  0  0  0  0  0  0
  143.6018  136.0214  152.8717 N   0  0  0  0  0  0  0  0  0  0  0  0
  142.8044  137.0847  152.7326 C   0  0  0  0  0  0  0  0  0  0  0  0
  141.6013  136.9278  153.2664 N   0  0  0  0  0  0  0  0  0  0  0  0
  141.7324  135.6583  153.7536 C   0  0  0  0  0  0  0  0  0  0  0  0
  142.9127  135.0728  153.5502 N   0  0  0  0  0  0  0  0  0  0  0  0
  146.1745  135.7424  150.6350 H   0  0  0  0  0  0  0  0  0  0  0  0
  144.8377  136.8873  150.5615 H   0  0  0  0  0  0  0  0  0  0  0  0
  144.5281  135.1602  150.4342 H   0  0  0  0  0  0  0  0  0  0  0  0
  145.2652  134.7900  152.7534 H   0  0  0  0  0  0  0  0  0  0  0  0
  146.2070  137.8211  151.5114 H   0  0  0  0  0  0  0  0  0  0  0  0
  148.1482  138.1996  153.5982 H   0  0  0  0  0  0  0  0  0  0  0  0
  147.9570  139.1635  152.1501 H   0  0  0  0  0  0  0  0  0  0  0  0
  145.6810  139.9373  153.5088 H   0  0  0  0  0  0  0  0  0  0  0  0
  146.6627  139.4528  154.8657 H   0  0  0  0  0  0  0  0  0  0  0  0
  147.2399  143.1373  154.1462 H   0  0  0  0  0  0  0  0  0  0  0  0
  145.7266  142.3370  153.8478 H   0  0  0  0  0  0  0  0  0  0  0  0
  145.9429  143.0103  156.2395 H   0  0  0  0  0  0  0  0  0  0  0  0
  145.8116  141.2721  156.1312 H   0  0  0  0  0  0  0  0  0  0  0  0
  147.0431  141.0532  158.3641 H   0  0  0  0  0  0  0  0  0  0  0  0
  147.0754  142.8200  158.4259 H   0  0  0  0  0  0  0  0  0  0  0  0
  148.5791  141.9094  158.5469 H   0  0  0  0  0  0  0  0  0  0  0  0
  149.5173  140.8389  156.5310 H   0  0  0  0  0  0  0  0  0  0  0  0
  148.0520  139.9125  156.3072 H   0  0  0  0  0  0  0  0  0  0  0  0
  149.2947  140.1611  154.1330 H   0  0  0  0  0  0  0  0  0  0  0  0
  149.2954  141.8969  154.3089 H   0  0  0  0  0  0  0  0  0  0  0  0
  143.1133  137.9940  152.2376 H   0  0  0  0  0  0  0  0  0  0  0  0
  140.9355  135.1526  154.2790 H   0  0  0  0  0  0  0  0  0  0  0  0
  148.2792  142.8306  156.3809 H   0  0  0  0  0  0  0  0  0  0  0  0
  1  2  1  0  0  0  0
  1 20  1  0  0  0  0
  1 21  1  0  0  0  0
  1 22  1  0  0  0  0
  2  3  1  0  0  0  0
  2 15  1  0  0  0  0
  2 23  1  0  0  0  0
  3  4  2  0  0  0  0
  3  5  1  0  0  0  0
  5  6  1  0  0  0  0
  5 24  1  0  0  0  0
  6  7  1  0  0  0  0
  6 25  1  0  0  0  0
  6 26  1  0  0  0  0
  7  8  1  0  0  0  0
  7 27  1  0  0  0  0
  7 28  1  0  0  0  0
  8 14  1  0  0  0  0
  8  9  1  0  0  0  0
  9 10  1  0  0  0  0
  9 29  1  0  0  0  0
  9 30  1  0  0  0  0
 10 11  1  0  0  0  0
 10 31  1  0  0  0  0
 10 32  1  0  0  0  0
 11 12  1  0  0  0  0
 11 13  1  0  0  0  0
 11 42  1  0  0  0  0
 12 33  1  0  0  0  0
 12 34  1  0  0  0  0
 12 35  1  0  0  0  0
 13 14  1  0  0  0  0
 13 36  1  0  0  0  0
 13 37  1  0  0  0  0
 14 38  1  0  0  0  0
 14 39  1  0  0  0  0
 15 19  1  0  0  0  0
 15 16  1  0  0  0  0
 16 17  2  0  0  0  0
 16 40  1  0  0  0  0
 17 18  1  0  0  0  0
 18 19  2  0  0  0  0
 18 41  1  0  0  0  0
M  CHG  1  11   1
M  END
> <s_m_source_file>
AV-unprocessed.smi

> <i_m_source_file_index>
3343

> <i_lp_mmshare_version>
43012

> <i_f3d_flags>
0

> <s_epik_input>
bjFbY0hdbltjSF1uMVtDQEhdKFtDSDNdKUMoPU8pW05IXVtDSDJdW0NIMl1OMltDSDJdW0NIMl1OKFtDSDNdKVtDSDJdW0NIMl0y

> <s_epik_cmdline>
J2VwaWtfcHl0aG9uJywgJy1waCcsICc3LjAnLCAnLXRuJywgJzgnLCAnLW1hJywgJzIwMCcsICctbWV0YWxfYmluZGluZycsICctaW1hZScsICc8aW5maWxlLm1hZT4nLCAnLW9tYWUnLCAnPG91dGZpbGUubWFlPic=

> <r_lp_tautomer_probability>
1

> <r_epik_Ionization_Penalty>
0.0359277

> <r_epik_Ionization_Penalty_Charging>
0.0358005

> <r_epik_Ionization_Penalty_Neutral>
0.000127293

> <r_epik_State_Penalty>
0.0476325

> <r_epik_Charging_Adjusted_Penalty>
0.0834329

> <i_epik_Tot_Q>
1

> <i_epik_Tot_abs_Q>
1

> <r_epik_Metal_State_Penalty>
0.0476323

> <b_epik_Metal_Only>
0

> <s_lp_Force_Field>
OPLS_2005

> <r_lp_Energy>
19.669

> <b_lp_Chiralities_Consistent>
1

> <s_lp_Variant>
AV-unprocessed.smi:3343-2

> <Gold.Version>
5.8.1

> <Gold.Id.Protein>
6NUR|6NUR_protein|mol2

> <Gold.PLP.Fitness>
39.9777

> <Gold.PLP.PLP>
-26.5691

> <Gold.PLP.part.hbond>
-2.0000

> <Gold.PLP.part.metal>
0.0000

> <Gold.PLP.part.buried>
-2.5727

> <Gold.PLP.part.nonpolar>
-23.4064

> <Gold.PLP.part.repulsive>
0.6038

> <Gold.PLP.ligand.clash>
0.0002

> <Gold.PLP.ligand.torsion>
0.6816

> <Gold.PLP.Chemscore.Hbond>
2.0000

> <Gold.PLP.Chemscore.CHOScore>
2.8906

> <Gold.PLP.Chemscore.Metal>
0.0000

> <Gold.Chemscore.Hbonds>
donor molecule, donor type, donor heavy atom, donor atom, acceptor molecule, acceptor atom, score
      L1  H    11    42       P1  8028  1.66
      L1  C    16    40       P1 10171  0.86
      L1  C    16    40       P1 10175  1.00
      L1  C    18    41       P1 11000  0.71

> <Gold.PLP.Chemscore.Internal.Correction>
0.1001

> <Gold.Rescore>
     Score         DG    S(hbond)    S(metal)    S(lipo)     H(rot)  DE(clash)    DE(int)     intcor
      6.89      -7.48       0.94        0.00      47.75       2.63       0.05       0.53       ----

> <Gold.Chemscore.Fitness>
6.8932

> <Gold.Chemscore.DG>
-7.4805

> <Gold.Chemscore.ZeroCoef>
-5.4800

> <Gold.Chemscore.Hbond>
0.9403

> <Gold.Chemscore.Metal>
0.0000

> <Gold.Chemscore.Lipo>
47.7506

> <Gold.Chemscore.Internal_Hbond>
0.0000

> <Gold.Chemscore.DEClash>
0.0528

> <Gold.Chemscore.DEInternal>
0.5345

> <Gold.Chemscore.Rot>
2.6278

> <Gold.Chemscore.Internal.Correction>
   9.000000E+99

> <Gold.Chemscore.Hbonds>
donor molecule, donor type, donor heavy atom, donor atom, acceptor molecule, acceptor atom, score
      L1  H    11    42       P1  8028  0.64

> <Gold.Chemscore.Hbond.Weighted>
-3.1407

> <Gold.Chemscore.Metal.Weighted>
-0.0000

> <Gold.Chemscore.Lipo.Weighted>
-5.5868

> <Gold.Chemscore.Internal_Hbond.Weighted>
0.0000

> <Gold.Chemscore.DEClash.Weighted>
0.0528

> <Gold.Chemscore.DEInternal.Weighted>
0.5345

> <Gold.Chemscore.Rot.Weighted>
6.7271

> <Gold.Chemscore.Internal.Correction.Weighted>
   9.000000E+99

> <Gold.Protein.RotatedTorsions>
[ 6907 6896 6895 6894 ] final  -89.23 input  -60.11 | X-H torsion
[ 7974 7965 7964 7962 ] final  119.12 input  175.53 | X-H torsion
[ 8008 7997 7996 7995 ] final -125.73 input   59.86 | X-H torsion
[ 10167 10162 10161 10158 ] final -165.86 input  -65.29 | X-H torsion
[ 10718 10713 10712 10709 ] final -163.13 input   66.30 | X-H torsion
[ 10763 10752 10751 10750 ] final  102.26 input  -60.55 | X-H torsion
[ 11005 11000 10999 10996 ] final  174.11 input  -57.11 | X-H torsion

> <Gold.Protein.ActiveResidues>
 VAL166  LYS551  ARG553  GLY616  TRP617  ASP618  TYR619  PRO620  LYS621  CYS622 
 ASP623  PHE694  ASN695  SER759  ASP760  ASP761  ALA762  ILE779  LEU786  VAL792 
 PHE793  MET794  SER795  GLU796  ALA797  LYS798  CYS799  TRP800  GLU811  SER814 

> <Gold.Protein.RotatedAtoms>
  150.6872  134.2620  159.4552 H   0  0  0  0  0  0  0  0  0  0  0  0  # atno 6907 bound_to 6896
  152.0549  134.9628  160.0584 H   0  0  0  0  0  0  0  0  0  0  0  0  # atno 6908 bound_to 6896
  152.1078  133.4249  159.4653 H   0  0  0  0  0  0  0  0  0  0  0  0  # atno 6909 bound_to 6896
  145.1469  139.3234  143.4587 H   0  0  0  0  0  0  0  0  0  0  0  0  # atno 7974 bound_to 7965
  155.2182  140.0421  157.2944 H   0  0  0  0  0  0  0  0  0  0  0  0  # atno 8008 bound_to 7997
  154.5967  140.2441  155.7818 H   0  0  0  0  0  0  0  0  0  0  0  0  # atno 8009 bound_to 7997
  156.2295  140.2943  156.0160 H   0  0  0  0  0  0  0  0  0  0  0  0  # atno 8010 bound_to 7997
  139.6154  144.0731  152.1882 H   0  0  0  0  0  0  0  0  0  0  0  0  # atno 10167 bound_to 10162
  156.6203  130.8887  151.2956 H   0  0  0  0  0  0  0  0  0  0  0  0  # atno 10718 bound_to 10713
  153.3373  135.4016  155.1543 H   0  0  0  0  0  0  0  0  0  0  0  0  # atno 10763 bound_to 10752
  154.8636  135.3625  154.5392 H   0  0  0  0  0  0  0  0  0  0  0  0  # atno 10764 bound_to 10752
  153.5834  135.7076  153.5513 H   0  0  0  0  0  0  0  0  0  0  0  0  # atno 10765 bound_to 10752
  140.3477  134.7222  157.4246 H   0  0  0  0  0  0  0  0  0  0  0  0  # atno 11005 bound_to 11000
  146.3499  140.1528  142.8592 LP  0  0  0  0  0  0  0  0  0  0  0  0  # atno 17320 bound_to 7965
  145.0472  140.8990  143.5017 LP  0  0  0  0  0  0  0  0  0  0  0  0  # atno 17321 bound_to 7965
  140.0360  144.6044  150.7449 LP  0  0  0  0  0  0  0  0  0  0  0  0  # atno 17342 bound_to 10162
  140.7347  143.2732  151.3823 LP  0  0  0  0  0  0  0  0  0  0  0  0  # atno 17343 bound_to 10162
  157.7229  130.9583  150.1514 LP  0  0  0  0  0  0  0  0  0  0  0  0  # atno 17370 bound_to 10713
  156.2317  130.3682  149.8437 LP  0  0  0  0  0  0  0  0  0  0  0  0  # atno 17371 bound_to 10713
  140.0728  134.5838  155.8623 LP  0  0  0  0  0  0  0  0  0  0  0  0  # atno 17394 bound_to 11000
  141.2021  133.6622  156.5986 LP  0  0  0  0  0  0  0  0  0  0  0  0  # atno 17395 bound_to 11000

$$$$
