AV-unprocessed.smi:2747|AV-procd|sdf|10578|dock6
  -GOLD-   2272015 33D 1   1.00000     0.00000
 Structure written by MMmdl.
 24 25  0  0  0  0  0  0  0  0  1 V2000
  149.8946  139.8224  153.8697 O   0  0  0  0  0  0  0  0  0  0  0  0
  149.3614  140.4246  155.0348 C   0  0  1  0  0  0  0  0  0  0  0  0
  150.2457  141.6172  155.4515 C   0  0  0  0  0  0  0  0  0  0  0  0
  151.0946  141.3079  156.5882 N   0  0  0  0  0  0  0  0  0  0  0  0
  151.8345  140.1633  156.5777 N   0  0  0  0  0  0  0  0  0  0  0  0
  152.5150  140.0976  157.6828 N   0  0  0  0  0  0  0  0  0  0  0  0
  152.2185  141.2211  158.4363 C   0  0  0  0  0  0  0  0  0  0  0  0
  152.6704  141.6523  159.7034 C   0  0  0  0  0  0  0  0  0  0  0  0
  152.2029  142.8660  160.2535 C   0  0  0  0  0  0  0  0  0  0  0  0
  152.7807  143.3603  161.8050 Cl  0  0  0  0  0  0  0  0  0  0  0  0
  151.2755  143.6634  159.5401 C   0  0  0  0  0  0  0  0  0  0  0  0
  150.6955  145.1524  160.1968 Cl  0  0  0  0  0  0  0  0  0  0  0  0
  150.8148  143.2448  158.2758 C   0  0  0  0  0  0  0  0  0  0  0  0
  151.2923  142.0336  157.7470 C   0  0  0  0  0  0  0  0  0  0  0  0
  147.8977  140.8277  154.7740 C   0  0  0  0  0  0  0  0  0  0  0  0
  147.1999  139.7745  154.3482 F   0  0  0  0  0  0  0  0  0  0  0  0
  147.3469  141.2534  155.9107 F   0  0  0  0  0  0  0  0  0  0  0  0
  147.8243  141.8071  153.8719 F   0  0  0  0  0  0  0  0  0  0  0  0
  149.4395  140.1683  153.1172 H   0  0  0  0  0  0  0  0  0  0  0  0
  149.3793  139.6750  155.8272 H   0  0  0  0  0  0  0  0  0  0  0  0
  150.8802  141.9297  154.6213 H   0  0  0  0  0  0  0  0  0  0  0  0
  149.6266  142.4779  155.7082 H   0  0  0  0  0  0  0  0  0  0  0  0
  153.3784  141.0490  160.2525 H   0  0  0  0  0  0  0  0  0  0  0  0
  150.1082  143.8443  157.7209 H   0  0  0  0  0  0  0  0  0  0  0  0
  1  2  1  0  0  0  0
  1 19  1  0  0  0  0
  2  3  1  0  0  0  0
  2 15  1  0  0  0  0
  2 20  1  0  0  0  0
  3  4  1  0  0  0  0
  3 21  1  0  0  0  0
  3 22  1  0  0  0  0
  4 14  1  0  0  0  0
  4  5  1  0  0  0  0
  5  6  2  0  0  0  0
  6  7  1  0  0  0  0
  7 14  2  0  0  0  0
  7  8  1  0  0  0  0
  8  9  2  0  0  0  0
  8 23  1  0  0  0  0
  9 10  1  0  0  0  0
  9 11  1  0  0  0  0
 11 12  1  0  0  0  0
 11 13  2  0  0  0  0
 13 14  1  0  0  0  0
 13 24  1  0  0  0  0
 15 16  1  0  0  0  0
 15 17  1  0  0  0  0
 15 18  1  0  0  0  0
M  END
> <s_m_source_file>
AV-unprocessed.smi

> <i_m_source_file_index>
2747

> <i_lp_mmshare_version>
43012

> <i_f3d_flags>
0

> <s_epik_input>
RkMoRikoRilbQ0BIXShbT0hdKVtDSDJdbihubjEpYyhjMTIpW2NIXWMoQ2wpYyhDbClbY0hdMg==

> <s_epik_cmdline>
J2VwaWtfcHl0aG9uJywgJy1waCcsICc3LjAnLCAnLXRuJywgJzgnLCAnLW1hJywgJzIwMCcsICctbWV0YWxfYmluZGluZycsICctaW1hZScsICc8aW5maWxlLm1hZT4nLCAnLW9tYWUnLCAnPG91dGZpbGUubWFlPic=

> <r_lp_tautomer_probability>
1

> <r_epik_Ionization_Penalty>
0.0735676

> <r_epik_Ionization_Penalty_Charging>
0

> <r_epik_Ionization_Penalty_Neutral>
0.0735676

> <r_epik_State_Penalty>
0.0647209

> <r_epik_Charging_Adjusted_Penalty>
0.0647209

> <i_epik_Tot_Q>
0

> <i_epik_Tot_abs_Q>
0

> <r_epik_Metal_State_Penalty>
0.0647209

> <b_epik_Metal_Only>
0

> <s_lp_Force_Field>
OPLS_2005

> <r_lp_Energy>
9.1287

> <b_lp_Chiralities_Consistent>
1

> <s_lp_Variant>
AV-unprocessed.smi:2747-2

> <Gold.Version>
5.8.1

> <Gold.Id.Protein>
6NUR|6NUR_protein|mol2

> <Gold.PLP.Fitness>
43.8258

> <Gold.PLP.PLP>
-38.5494

> <Gold.PLP.part.hbond>
-2.9564

> <Gold.PLP.part.metal>
0.0000

> <Gold.PLP.part.buried>
-5.4038

> <Gold.PLP.part.nonpolar>
-28.7359

> <Gold.PLP.part.repulsive>
0.0000

> <Gold.PLP.ligand.clash>
0.0000

> <Gold.PLP.ligand.torsion>
0.7963

> <Gold.PLP.Chemscore.Hbond>
2.2873

> <Gold.PLP.Chemscore.CHOScore>
0.0000

> <Gold.PLP.Chemscore.Metal>
0.0000

> <Gold.Chemscore.Hbonds>
donor molecule, donor type, donor heavy atom, donor atom, acceptor molecule, acceptor atom, score
      L1  H     1    19       P1  7957  0.74
      P1  H  7989  7998       L1     1  0.54
      P1  H  7997  8008       L1     6  0.55

> <Gold.PLP.Chemscore.Internal.Correction>
0.0072

> <Gold.Rescore>
     Score         DG    S(hbond)    S(metal)    S(lipo)     H(rot)  DE(clash)    DE(int)     intcor
     14.72     -15.66       1.21        0.00      94.72       1.92       0.24       0.71       ----

> <Gold.Chemscore.Fitness>
14.7216

> <Gold.Chemscore.DG>
-15.6647

> <Gold.Chemscore.ZeroCoef>
-5.4800

> <Gold.Chemscore.Hbond>
1.2057

> <Gold.Chemscore.Metal>
0.0000

> <Gold.Chemscore.Lipo>
94.7153

> <Gold.Chemscore.Internal_Hbond>
0.0000

> <Gold.Chemscore.DEClash>
0.2353

> <Gold.Chemscore.DEInternal>
0.7078

> <Gold.Chemscore.Rot>
1.9235

> <Gold.Chemscore.Internal.Correction>
   9.000000E+99

> <Gold.Chemscore.Hbonds>
donor molecule, donor type, donor heavy atom, donor atom, acceptor molecule, acceptor atom, score
      L1  H     1    19       P1  7957  0.71
      P1  H  7989  7998       L1     1  0.02
      P1  H  7997  8008       L1     6  0.05

> <Gold.Chemscore.Hbond.Weighted>
-4.0272

> <Gold.Chemscore.Metal.Weighted>
-0.0000

> <Gold.Chemscore.Lipo.Weighted>
-11.0817

> <Gold.Chemscore.Internal_Hbond.Weighted>
0.0000

> <Gold.Chemscore.DEClash.Weighted>
0.2353

> <Gold.Chemscore.DEInternal.Weighted>
0.7078

> <Gold.Chemscore.Rot.Weighted>
4.9242

> <Gold.Chemscore.Internal.Correction.Weighted>
   9.000000E+99

> <Gold.Protein.RotatedTorsions>
[ 6907 6896 6895 6894 ] final   35.85 input  -60.11 | X-H torsion
[ 7974 7965 7964 7962 ] final  -40.28 input  175.53 | X-H torsion
[ 8008 7997 7996 7995 ] final  -63.51 input   59.86 | X-H torsion
[ 10167 10162 10161 10158 ] final  160.54 input  -65.29 | X-H torsion
[ 10718 10713 10712 10709 ] final  -52.07 input   66.30 | X-H torsion
[ 10763 10752 10751 10750 ] final  -73.04 input  -60.55 | X-H torsion
[ 11005 11000 10999 10996 ] final   62.15 input  -57.11 | X-H torsion

> <Gold.Protein.ActiveResidues>
 VAL166  LYS551  ARG553  GLY616  TRP617  ASP618  TYR619  PRO620  LYS621  CYS622 
 ASP623  PHE694  ASN695  SER759  ASP760  ASP761  ALA762  ILE779  LEU786  VAL792 
 PHE793  MET794  SER795  GLU796  ALA797  LYS798  CYS799  TRP800  GLU811  SER814 

> <Gold.Protein.RotatedAtoms>
  152.1217  134.9200  160.0562 H   0  0  0  0  0  0  0  0  0  0  0  0  # atno 6907 bound_to 6896
  152.0339  133.3944  159.4317 H   0  0  0  0  0  0  0  0  0  0  0  0  # atno 6908 bound_to 6896
  150.6849  134.3411  159.4912 H   0  0  0  0  0  0  0  0  0  0  0  0  # atno 6909 bound_to 6896
  146.0319  140.6720  142.9128 H   0  0  0  0  0  0  0  0  0  0  0  0  # atno 7974 bound_to 7965
  154.4558  140.0973  156.6753 H   0  0  0  0  0  0  0  0  0  0  0  0  # atno 8008 bound_to 7997
  155.5142  140.3477  155.4376 H   0  0  0  0  0  0  0  0  0  0  0  0  # atno 8009 bound_to 7997
  156.0775  140.1364  156.9742 H   0  0  0  0  0  0  0  0  0  0  0  0  # atno 8010 bound_to 7997
  139.4841  144.4623  151.8687 H   0  0  0  0  0  0  0  0  0  0  0  0  # atno 10167 bound_to 10162
  156.1654  130.4149  149.9728 H   0  0  0  0  0  0  0  0  0  0  0  0  # atno 10718 bound_to 10713
  154.4540  135.5910  153.6211 H   0  0  0  0  0  0  0  0  0  0  0  0  # atno 10763 bound_to 10752
  152.9816  135.6028  154.3569 H   0  0  0  0  0  0  0  0  0  0  0  0  # atno 10764 bound_to 10752
  154.3433  135.2841  155.2390 H   0  0  0  0  0  0  0  0  0  0  0  0  # atno 10765 bound_to 10752
  140.0112  134.6294  155.9778 H   0  0  0  0  0  0  0  0  0  0  0  0  # atno 11005 bound_to 11000
  144.7034  140.3751  143.7137 LP  0  0  0  0  0  0  0  0  0  0  0  0  # atno 17320 bound_to 7965
  145.7026  139.1665  143.2584 LP  0  0  0  0  0  0  0  0  0  0  0  0  # atno 17321 bound_to 7965
  140.4087  144.2398  150.5889 LP  0  0  0  0  0  0  0  0  0  0  0  0  # atno 17342 bound_to 10162
  140.4988  143.2324  151.8710 LP  0  0  0  0  0  0  0  0  0  0  0  0  # atno 17343 bound_to 10162
  156.7545  130.9127  151.3639 LP  0  0  0  0  0  0  0  0  0  0  0  0  # atno 17370 bound_to 10713
  157.6764  130.9098  150.0160 LP  0  0  0  0  0  0  0  0  0  0  0  0  # atno 17371 bound_to 10713
  141.1712  133.6537  156.4658 LP  0  0  0  0  0  0  0  0  0  0  0  0  # atno 17394 bound_to 11000
  140.4552  134.6892  157.5059 LP  0  0  0  0  0  0  0  0  0  0  0  0  # atno 17395 bound_to 11000

$$$$
