AV-unprocessed.smi:1566|AV-procd|sdf|6305|dock2
  -GOLD-   22720 6503D 1   1.00000     0.00000
 Structure written by MMmdl.
 42 43  0  0  0  0  0  0  0  0  1 V2000
  145.4863  136.2846  151.3799 C   0  0  0  0  0  0  0  0  0  0  0  0
  145.6436  137.4319  152.3864 C   0  0  0  0  0  0  0  0  0  0  0  0
  147.0321  137.5887  152.8037 N   0  0  0  0  0  0  0  0  0  0  0  0
  147.4701  138.4790  153.7050 C   0  0  0  0  0  0  0  0  0  0  0  0
  146.7351  139.2815  154.2806 O   0  0  0  0  0  0  0  0  0  0  0  0
  148.7938  138.3572  153.9028 N   0  0  0  0  0  0  0  0  0  0  0  0
  149.6263  139.0975  154.7845 C   0  0  0  0  0  0  0  0  0  0  0  0
  151.0344  139.1796  154.6691 C   0  0  0  0  0  0  0  0  0  0  0  0
  151.7512  139.9337  155.6181 C   0  0  0  0  0  0  0  0  0  0  0  0
  151.0425  140.5753  156.6544 C   0  0  0  0  0  0  0  0  0  0  0  0
  151.7532  141.3297  157.5980 N   0  0  0  0  0  0  0  0  0  0  0  0
  151.4609  142.7551  157.5428 C   0  0  0  0  0  0  0  0  0  0  0  0
  152.4067  143.5235  158.4833 C   0  0  1  0  0  0  0  0  0  0  0  0
  152.0642  145.0156  158.5435 C   0  0  0  0  0  0  0  0  0  0  0  0
  152.3008  142.9906  159.8043 O   0  0  0  0  0  0  0  0  0  0  0  0
  152.5724  141.5903  159.9114 C   0  0  2  0  0  0  0  0  0  0  0  0
  154.0688  141.2752  159.7373 C   0  0  0  0  0  0  0  0  0  0  0  0
  151.6615  140.7988  158.9520 C   0  0  0  0  0  0  0  0  0  0  0  0
  149.6969  140.4887  156.7792 N   0  0  0  0  0  0  0  0  0  0  0  0
  149.0162  139.7632  155.8675 C   0  0  0  0  0  0  0  0  0  0  0  0
  144.4491  136.1926  151.0572 H   0  0  0  0  0  0  0  0  0  0  0  0
  145.7826  135.3303  151.8164 H   0  0  0  0  0  0  0  0  0  0  0  0
  146.0970  136.4525  150.4923 H   0  0  0  0  0  0  0  0  0  0  0  0
  145.3164  138.3671  151.9320 H   0  0  0  0  0  0  0  0  0  0  0  0
  145.0021  137.2668  153.2537 H   0  0  0  0  0  0  0  0  0  0  0  0
  147.7063  136.9661  152.3830 H   0  0  0  0  0  0  0  0  0  0  0  0
  149.2468  137.5972  153.4168 H   0  0  0  0  0  0  0  0  0  0  0  0
  151.5771  138.6725  153.8864 H   0  0  0  0  0  0  0  0  0  0  0  0
  152.8265  140.0141  155.5517 H   0  0  0  0  0  0  0  0  0  0  0  0
  151.5747  143.1149  156.5192 H   0  0  0  0  0  0  0  0  0  0  0  0
  150.4233  142.9288  157.8322 H   0  0  0  0  0  0  0  0  0  0  0  0
  153.4333  143.4265  158.1292 H   0  0  0  0  0  0  0  0  0  0  0  0
  152.1393  145.4752  157.5577 H   0  0  0  0  0  0  0  0  0  0  0  0
  152.7460  145.5446  159.2098 H   0  0  0  0  0  0  0  0  0  0  0  0
  151.0496  145.1738  158.9105 H   0  0  0  0  0  0  0  0  0  0  0  0
  152.3073  141.3059  160.9299 H   0  0  0  0  0  0  0  0  0  0  0  0
  154.2672  140.2229  159.9421 H   0  0  0  0  0  0  0  0  0  0  0  0
  154.6727  141.8652  160.4267 H   0  0  0  0  0  0  0  0  0  0  0  0
  154.4204  141.4785  158.7263 H   0  0  0  0  0  0  0  0  0  0  0  0
  150.6281  140.8681  159.2945 H   0  0  0  0  0  0  0  0  0  0  0  0
  151.9289  139.7413  158.9592 H   0  0  0  0  0  0  0  0  0  0  0  0
  147.9457  139.7182  156.0054 H   0  0  0  0  0  0  0  0  0  0  0  0
  1  2  1  0  0  0  0
  1 21  1  0  0  0  0
  1 22  1  0  0  0  0
  1 23  1  0  0  0  0
  2  3  1  0  0  0  0
  2 24  1  0  0  0  0
  2 25  1  0  0  0  0
  3  4  1  0  0  0  0
  3 26  1  0  0  0  0
  4  5  2  0  0  0  0
  4  6  1  0  0  0  0
  6  7  1  0  0  0  0
  6 27  1  0  0  0  0
  7 20  1  0  0  0  0
  7  8  2  0  0  0  0
  8  9  1  0  0  0  0
  8 28  1  0  0  0  0
  9 10  2  0  0  0  0
  9 29  1  0  0  0  0
 10 11  1  0  0  0  0
 10 19  1  0  0  0  0
 11 18  1  0  0  0  0
 11 12  1  0  0  0  0
 12 13  1  0  0  0  0
 12 30  1  0  0  0  0
 12 31  1  0  0  0  0
 13 14  1  0  0  0  0
 13 15  1  0  0  0  0
 13 32  1  0  0  0  0
 14 33  1  0  0  0  0
 14 34  1  0  0  0  0
 14 35  1  0  0  0  0
 15 16  1  0  0  0  0
 16 17  1  0  0  0  0
 16 18  1  0  0  0  0
 16 36  1  0  0  0  0
 17 37  1  0  0  0  0
 17 38  1  0  0  0  0
 17 39  1  0  0  0  0
 18 40  1  0  0  0  0
 18 41  1  0  0  0  0
 19 20  2  0  0  0  0
 20 42  1  0  0  0  0
M  END
> <s_m_source_file>
AV-unprocessed.smi

> <i_m_source_file_index>
1566

> <i_lp_mmshare_version>
43012

> <i_f3d_flags>
0

> <s_epik_input>
W0NIM11bQ0gyXVtOSF1DKD1PKVtOSF1jMVtjSF1bY0hdYyhuW2NIXTEpTjJbQ0gyXVtDQEBIXShbQ0gzXSlPW0NAQEhdKFtDSDNdKVtDSDJdMg==

> <s_epik_cmdline>
J2VwaWtfcHl0aG9uJywgJy1waCcsICc3LjAnLCAnLXRuJywgJzgnLCAnLW1hJywgJzIwMCcsICctbWV0YWxfYmluZGluZycsICctaW1hZScsICc8aW5maWxlLm1hZT4nLCAnLW9tYWUnLCAnPG91dGZpbGUubWFlPic=

> <r_lp_tautomer_probability>
1

> <r_epik_Ionization_Penalty>
0.0027066

> <r_epik_Ionization_Penalty_Charging>
0

> <r_epik_Ionization_Penalty_Neutral>
0.0027066

> <r_epik_State_Penalty>
0.00185803

> <r_epik_Charging_Adjusted_Penalty>
0.00185803

> <i_epik_Tot_Q>
0

> <i_epik_Tot_abs_Q>
0

> <r_epik_Metal_State_Penalty>
-0

> <b_epik_Metal_Only>
0

> <s_lp_Force_Field>
OPLS_2005

> <r_lp_Energy>
23.2127

> <b_lp_Chiralities_Consistent>
1

> <s_lp_Variant>
AV-unprocessed.smi:1566-3

> <Gold.Version>
5.8.1

> <Gold.Id.Protein>
6NUR|6NUR_protein|mol2

> <Gold.PLP.Fitness>
42.8763

> <Gold.PLP.PLP>
-37.7414

> <Gold.PLP.part.hbond>
-2.0000

> <Gold.PLP.part.metal>
0.0000

> <Gold.PLP.part.buried>
-4.5889

> <Gold.PLP.part.nonpolar>
-32.0920

> <Gold.PLP.part.repulsive>
0.2190

> <Gold.PLP.ligand.clash>
0.0000

> <Gold.PLP.ligand.torsion>
0.1402

> <Gold.PLP.Chemscore.Hbond>
1.7722

> <Gold.PLP.Chemscore.CHOScore>
0.0000

> <Gold.PLP.Chemscore.Metal>
0.0000

> <Gold.Chemscore.Hbonds>
donor molecule, donor type, donor heavy atom, donor atom, acceptor molecule, acceptor atom, score
      L1  H     3    26       P1  7948  0.99
      L1  H     6    27       P1  7948  0.79

> <Gold.PLP.Chemscore.Internal.Correction>
0.0987

> <Gold.Rescore>
     Score         DG    S(hbond)    S(metal)    S(lipo)     H(rot)  DE(clash)    DE(int)     intcor
     18.64     -20.24       1.93        0.00      96.99       1.19       0.09       1.50       ----

> <Gold.Chemscore.Fitness>
18.6432

> <Gold.Chemscore.DG>
-20.2360

> <Gold.Chemscore.ZeroCoef>
-5.4800

> <Gold.Chemscore.Hbond>
1.9306

> <Gold.Chemscore.Metal>
0.0000

> <Gold.Chemscore.Lipo>
96.9857

> <Gold.Chemscore.Internal_Hbond>
0.0000

> <Gold.Chemscore.DEClash>
0.0946

> <Gold.Chemscore.DEInternal>
1.4983

> <Gold.Chemscore.Rot>
1.1873

> <Gold.Chemscore.Internal.Correction>
   9.000000E+99

> <Gold.Chemscore.Hbonds>
donor molecule, donor type, donor heavy atom, donor atom, acceptor molecule, acceptor atom, score
      L1  H     3    26       P1  7948  0.92
      L1  H     6    27       P1  7948  0.74

> <Gold.Chemscore.Hbond.Weighted>
-6.4483

> <Gold.Chemscore.Metal.Weighted>
-0.0000

> <Gold.Chemscore.Lipo.Weighted>
-11.3473

> <Gold.Chemscore.Internal_Hbond.Weighted>
0.0000

> <Gold.Chemscore.DEClash.Weighted>
0.0946

> <Gold.Chemscore.DEInternal.Weighted>
1.4983

> <Gold.Chemscore.Rot.Weighted>
3.0396

> <Gold.Chemscore.Internal.Correction.Weighted>
   9.000000E+99

> <Gold.Protein.RotatedTorsions>
[ 6907 6896 6895 6894 ] final -116.38 input  -60.11 | X-H torsion
[ 7974 7965 7964 7962 ] final  164.10 input  175.53 | X-H torsion
[ 8008 7997 7996 7995 ] final   91.92 input   59.86 | X-H torsion
[ 10167 10162 10161 10158 ] final   42.94 input  -65.29 | X-H torsion
[ 10718 10713 10712 10709 ] final  -67.45 input   66.30 | X-H torsion
[ 10763 10752 10751 10750 ] final  -73.03 input  -60.55 | X-H torsion
[ 11005 11000 10999 10996 ] final   66.92 input  -57.11 | X-H torsion

> <Gold.Protein.ActiveResidues>
 VAL166  LYS551  ARG553  GLY616  TRP617  ASP618  TYR619  PRO620  LYS621  CYS622 
 ASP623  PHE694  ASN695  SER759  ASP760  ASP761  ALA762  ILE779  LEU786  VAL792 
 PHE793  MET794  SER795  GLU796  ALA797  LYS798  CYS799  TRP800  GLU811  SER814 

> <Gold.Protein.RotatedAtoms>
  150.8051  133.8525  159.3209 H   0  0  0  0  0  0  0  0  0  0  0  0  # atno 6907 bound_to 6896
  151.6326  135.1019  160.0134 H   0  0  0  0  0  0  0  0  0  0  0  0  # atno 6908 bound_to 6896
  152.4141  133.6970  159.6458 H   0  0  0  0  0  0  0  0  0  0  0  0  # atno 6909 bound_to 6896
  144.7560  139.8277  143.6349 H   0  0  0  0  0  0  0  0  0  0  0  0  # atno 7974 bound_to 7965
  156.0293  140.3332  155.7123 H   0  0  0  0  0  0  0  0  0  0  0  0  # atno 8008 bound_to 7997
  155.5908  140.0646  157.2777 H   0  0  0  0  0  0  0  0  0  0  0  0  # atno 8009 bound_to 7997
  154.4347  140.1827  156.1060 H   0  0  0  0  0  0  0  0  0  0  0  0  # atno 8010 bound_to 7997
  140.3494  144.2370  150.6147 H   0  0  0  0  0  0  0  0  0  0  0  0  # atno 10167 bound_to 10162
  156.0557  130.4278  150.1857 H   0  0  0  0  0  0  0  0  0  0  0  0  # atno 10718 bound_to 10713
  154.4538  135.5911  153.6209 H   0  0  0  0  0  0  0  0  0  0  0  0  # atno 10763 bound_to 10752
  152.9816  135.6027  154.3572 H   0  0  0  0  0  0  0  0  0  0  0  0  # atno 10764 bound_to 10752
  154.3436  135.2841  155.2388 H   0  0  0  0  0  0  0  0  0  0  0  0  # atno 10765 bound_to 10752
  139.9802  134.6756  156.0277 H   0  0  0  0  0  0  0  0  0  0  0  0  # atno 11005 bound_to 11000
  146.1570  139.4672  143.0012 LP  0  0  0  0  0  0  0  0  0  0  0  0  # atno 17320 bound_to 7965
  145.6778  141.0199  143.1623 LP  0  0  0  0  0  0  0  0  0  0  0  0  # atno 17321 bound_to 7965
  140.5233  143.2260  151.8354 LP  0  0  0  0  0  0  0  0  0  0  0  0  # atno 17342 bound_to 10162
  139.4828  144.4810  151.9307 LP  0  0  0  0  0  0  0  0  0  0  0  0  # atno 17343 bound_to 10162
  156.9933  130.9900  151.3409 LP  0  0  0  0  0  0  0  0  0  0  0  0  # atno 17370 bound_to 10713
  157.5524  130.8191  149.8162 LP  0  0  0  0  0  0  0  0  0  0  0  0  # atno 17371 bound_to 10713
  141.1475  133.6553  156.3911 LP  0  0  0  0  0  0  0  0  0  0  0  0  # atno 17394 bound_to 11000
  140.5112  134.6393  157.5285 LP  0  0  0  0  0  0  0  0  0  0  0  0  # atno 17395 bound_to 11000

$$$$
