AV-unprocessed.smi:1954|AV-procd|sdf|7896|dock2
  -GOLD-   2272010 53D 1   1.00000     0.00000
 Structure written by MMmdl.
 45 47  0  0  0  0  0  0  0  0  2 V2000
  144.7558  135.9112  153.3367 O   0  0  0  0  0  0  0  0  0  0  0  0
  145.8856  135.9302  152.8484 C   0  0  0  0  0  0  0  0  0  0  0  0
  146.8309  136.8115  153.2054 N   0  0  0  0  0  0  0  0  0  0  0  0
  146.6701  137.8756  154.1968 C   0  0  0  0  0  0  0  0  0  0  0  0
  147.9260  138.7948  154.3375 C   0  0  1  0  0  0  0  0  0  0  0  0
  149.1625  137.9291  154.4000 N   0  3  0  0  0  0  0  0  0  0  0  0
  150.4425  138.6920  154.4239 C   0  0  0  0  0  0  0  0  0  0  0  0
  151.6470  137.7489  154.2921 C   0  0  0  0  0  0  0  0  0  0  0  0
  151.6215  136.8131  155.3589 O   0  0  0  0  0  0  0  0  0  0  0  0
  150.4625  135.9952  155.3034 C   0  0  0  0  0  0  0  0  0  0  0  0
  149.1921  136.8553  155.4331 C   0  0  0  0  0  0  0  0  0  0  0  0
  147.9677  139.8074  153.1673 C   0  0  0  0  0  0  0  0  0  0  0  0
  146.8536  140.8449  153.3711 C   0  0  0  0  0  0  0  0  0  0  0  0
  146.5625  141.0147  155.1498 S   0  0  0  0  0  0  0  0  0  0  0  0
  147.7542  139.7204  155.5725 C   0  0  0  0  0  0  0  0  0  0  0  0
  146.3337  135.0969  151.8933 N   0  0  0  0  0  0  0  0  0  0  0  0
  145.6271  134.0592  151.2293 C   0  0  0  0  0  0  0  0  0  0  0  0
  146.3231  133.0686  150.4892 C   0  0  0  0  0  0  0  0  0  0  0  0
  145.5932  132.0669  149.8206 C   0  0  0  0  0  0  0  0  0  0  0  0
  144.1893  132.0852  149.8958 C   0  0  0  0  0  0  0  0  0  0  0  0
  143.5786  133.1146  150.6346 C   0  0  0  0  0  0  0  0  0  0  0  0
  144.2748  134.0776  151.2755 N   0  0  0  0  0  0  0  0  0  0  0  0
  147.7215  136.7628  152.7323 H   0  0  0  0  0  0  0  0  0  0  0  0
  145.8070  138.4634  153.8859 H   0  0  0  0  0  0  0  0  0  0  0  0
  146.3710  137.4501  155.1553 H   0  0  0  0  0  0  0  0  0  0  0  0
  150.4814  139.4181  153.6137 H   0  0  0  0  0  0  0  0  0  0  0  0
  150.5309  139.2489  155.3574 H   0  0  0  0  0  0  0  0  0  0  0  0
  151.6406  137.2341  153.3298 H   0  0  0  0  0  0  0  0  0  0  0  0
  152.5758  138.3170  154.3439 H   0  0  0  0  0  0  0  0  0  0  0  0
  150.4516  135.4274  154.3714 H   0  0  0  0  0  0  0  0  0  0  0  0
  150.5060  135.2684  156.1147 H   0  0  0  0  0  0  0  0  0  0  0  0
  149.1335  137.2923  156.4306 H   0  0  0  0  0  0  0  0  0  0  0  0
  148.3503  136.1750  155.3162 H   0  0  0  0  0  0  0  0  0  0  0  0
  148.9263  140.3275  153.1630 H   0  0  0  0  0  0  0  0  0  0  0  0
  147.8675  139.3274  152.1933 H   0  0  0  0  0  0  0  0  0  0  0  0
  147.1109  141.8068  152.9268 H   0  0  0  0  0  0  0  0  0  0  0  0
  145.9278  140.5058  152.9058 H   0  0  0  0  0  0  0  0  0  0  0  0
  147.4700  139.1943  156.4827 H   0  0  0  0  0  0  0  0  0  0  0  0
  148.6588  140.2828  155.7942 H   0  0  0  0  0  0  0  0  0  0  0  0
  147.2480  135.3005  151.5175 H   0  0  0  0  0  0  0  0  0  0  0  0
  147.3999  133.0661  150.4138 H   0  0  0  0  0  0  0  0  0  0  0  0
  146.1031  131.3014  149.2548 H   0  0  0  0  0  0  0  0  0  0  0  0
  143.5962  131.3340  149.3954 H   0  0  0  0  0  0  0  0  0  0  0  0
  142.5028  133.1691  150.7110 H   0  0  0  0  0  0  0  0  0  0  0  0
  149.1612  137.4295  153.5222 H   0  0  0  0  0  0  0  0  0  0  0  0
  1  2  2  0  0  0  0
  2  3  1  0  0  0  0
  2 16  1  0  0  0  0
  3  4  1  0  0  0  0
  3 23  1  0  0  0  0
  4  5  1  0  0  0  0
  4 24  1  0  0  0  0
  4 25  1  0  0  0  0
  5 15  1  0  0  0  0
  5  6  1  0  0  0  0
  5 12  1  0  0  0  0
  6 11  1  0  0  0  0
  6  7  1  0  0  0  0
  6 45  1  0  0  0  0
  7  8  1  0  0  0  0
  7 26  1  0  0  0  0
  7 27  1  0  0  0  0
  8  9  1  0  0  0  0
  8 28  1  0  0  0  0
  8 29  1  0  0  0  0
  9 10  1  0  0  0  0
 10 11  1  0  0  0  0
 10 30  1  0  0  0  0
 10 31  1  0  0  0  0
 11 32  1  0  0  0  0
 11 33  1  0  0  0  0
 12 13  1  0  0  0  0
 12 34  1  0  0  0  0
 12 35  1  0  0  0  0
 13 14  1  0  0  0  0
 13 36  1  0  0  0  0
 13 37  1  0  0  0  0
 14 15  1  0  0  0  0
 15 38  1  0  0  0  0
 15 39  1  0  0  0  0
 16 17  1  0  0  0  0
 16 40  1  0  0  0  0
 17 22  1  0  0  0  0
 17 18  2  0  0  0  0
 18 19  1  0  0  0  0
 18 41  1  0  0  0  0
 19 20  2  0  0  0  0
 19 42  1  0  0  0  0
 20 21  1  0  0  0  0
 20 43  1  0  0  0  0
 21 22  2  0  0  0  0
 21 44  1  0  0  0  0
M  CHG  1   6   1
M  END
> <s_m_source_file>
AV-unprocessed.smi

> <i_m_source_file_index>
1954

> <i_lp_mmshare_version>
43012

> <i_f3d_flags>
0

> <s_epik_input>
bjFbY0hdW2NIXVtjSF1bY0hdYzFbTkhdQyg9TylbTkhdW0NIMl1bQ0BdMihbQ0gyXVtDSDJdU1tDSDJdMilOM1tDSDJdW0NIMl1PW0NIMl1bQ0gyXTM=

> <s_epik_cmdline>
J2VwaWtfcHl0aG9uJywgJy1waCcsICc3LjAnLCAnLXRuJywgJzgnLCAnLW1hJywgJzIwMCcsICctbWV0YWxfYmluZGluZycsICctaW1hZScsICc8aW5maWxlLm1hZT4nLCAnLW9tYWUnLCAnPG91dGZpbGUubWFlPic=

> <r_epik_Ionization_Penalty>
2.03222

> <r_epik_Ionization_Penalty_Charging>
2.03219

> <r_epik_Ionization_Penalty_Neutral>
3.25833e-05

> <r_epik_State_Penalty>
2.16328

> <r_epik_Charging_Adjusted_Penalty>
4.19546

> <i_epik_Tot_Q>
1

> <i_epik_Tot_abs_Q>
1

> <r_epik_Metal_State_Penalty>
2.16328

> <b_epik_Metal_Only>
0

> <s_lp_Force_Field>
OPLS_2005

> <r_lp_Energy>
49.2696

> <b_lp_Chiralities_Consistent>
1

> <s_lp_Variant>
AV-unprocessed.smi:1954-3

> <Gold.Version>
5.8.1

> <Gold.Id.Protein>
6NUR|6NUR_protein|mol2

> <Gold.PLP.Fitness>
49.6097

> <Gold.PLP.PLP>
-32.2076

> <Gold.PLP.part.hbond>
-3.9984

> <Gold.PLP.part.metal>
0.0000

> <Gold.PLP.part.buried>
-1.0000

> <Gold.PLP.part.nonpolar>
-29.4072

> <Gold.PLP.part.repulsive>
0.3572

> <Gold.PLP.ligand.clash>
0.0000

> <Gold.PLP.ligand.torsion>
0.2746

> <Gold.PLP.Chemscore.Hbond>
4.9120

> <Gold.PLP.Chemscore.CHOScore>
1.0000

> <Gold.PLP.Chemscore.Metal>
0.0000

> <Gold.Chemscore.Hbonds>
donor molecule, donor type, donor heavy atom, donor atom, acceptor molecule, acceptor atom, score
      L1  H     3    23       P1  7948  1.00
      L1  H     6    45       P1  7948  1.98
      L1  H    16    40       P1  7948  0.93
      P1  H 10752 10764       L1     9  1.00
      L1  C    21    44       P1 10186  1.00

> <Gold.PLP.Chemscore.Internal.Correction>
0.2152

> <Gold.Rescore>
     Score         DG    S(hbond)    S(metal)    S(lipo)     H(rot)  DE(clash)    DE(int)     intcor
     18.79     -21.85       2.92        0.00      90.20       1.54       1.39       1.67       ----

> <Gold.Chemscore.Fitness>
18.7916

> <Gold.Chemscore.DG>
-21.8526

> <Gold.Chemscore.ZeroCoef>
-5.4800

> <Gold.Chemscore.Hbond>
2.9191

> <Gold.Chemscore.Metal>
0.0000

> <Gold.Chemscore.Lipo>
90.2025

> <Gold.Chemscore.Internal_Hbond>
0.0000

> <Gold.Chemscore.DEClash>
1.3934

> <Gold.Chemscore.DEInternal>
1.6675

> <Gold.Chemscore.Rot>
1.5355

> <Gold.Chemscore.Internal.Correction>
   9.000000E+99

> <Gold.Chemscore.Hbonds>
donor molecule, donor type, donor heavy atom, donor atom, acceptor molecule, acceptor atom, score
      L1  H     3    23       P1  7948  0.98
      L1  H     6    45       P1  7948  0.92
      L1  H    16    40       P1  7948  0.83
      P1  H 10752 10764       L1     9  0.08

> <Gold.Chemscore.Hbond.Weighted>
-9.7498

> <Gold.Chemscore.Metal.Weighted>
-0.0000

> <Gold.Chemscore.Lipo.Weighted>
-10.5537

> <Gold.Chemscore.Internal_Hbond.Weighted>
0.0000

> <Gold.Chemscore.DEClash.Weighted>
1.3934

> <Gold.Chemscore.DEInternal.Weighted>
1.6675

> <Gold.Chemscore.Rot.Weighted>
3.9309

> <Gold.Chemscore.Internal.Correction.Weighted>
   9.000000E+99

> <Gold.Protein.RotatedTorsions>
[ 6907 6896 6895 6894 ] final    3.01 input  -60.11 | X-H torsion
[ 7974 7965 7964 7962 ] final   71.71 input  175.53 | X-H torsion
[ 8008 7997 7996 7995 ] final   75.67 input   59.86 | X-H torsion
[ 10167 10162 10161 10158 ] final -108.60 input  -65.29 | X-H torsion
[ 10718 10713 10712 10709 ] final   98.47 input   66.30 | X-H torsion
[ 10763 10752 10751 10750 ] final  -49.48 input  -60.55 | X-H torsion
[ 11005 11000 10999 10996 ] final  -33.81 input  -57.11 | X-H torsion

> <Gold.Protein.ActiveResidues>
 VAL166  LYS551  ARG553  GLY616  TRP617  ASP618  TYR619  PRO620  LYS621  CYS622 
 ASP623  PHE694  ASN695  SER759  ASP760  ASP761  ALA762  ILE779  LEU786  VAL792 
 PHE793  MET794  SER795  GLU796  ALA797  LYS798  CYS799  TRP800  GLU811  SER814 

> <Gold.Protein.RotatedAtoms>
  151.6182  135.1034  160.0095 H   0  0  0  0  0  0  0  0  0  0  0  0  # atno 6907 bound_to 6896
  152.4172  133.7053  159.6458 H   0  0  0  0  0  0  0  0  0  0  0  0  # atno 6908 bound_to 6896
  150.8060  133.8436  159.3227 H   0  0  0  0  0  0  0  0  0  0  0  0  # atno 6909 bound_to 6896
  145.7624  139.2806  143.1368 H   0  0  0  0  0  0  0  0  0  0  0  0  # atno 7974 bound_to 7965
  155.8162  140.3471  155.5487 H   0  0  0  0  0  0  0  0  0  0  0  0  # atno 8008 bound_to 7997
  155.8389  140.0938  157.1767 H   0  0  0  0  0  0  0  0  0  0  0  0  # atno 8009 bound_to 7997
  154.4005  140.1398  156.3692 H   0  0  0  0  0  0  0  0  0  0  0  0  # atno 8010 bound_to 7997
  140.1643  143.4094  152.1402 H   0  0  0  0  0  0  0  0  0  0  0  0  # atno 10167 bound_to 10162
  157.6895  131.0641  150.4801 H   0  0  0  0  0  0  0  0  0  0  0  0  # atno 10718 bound_to 10713
  154.0947  135.6572  153.4858 H   0  0  0  0  0  0  0  0  0  0  0  0  # atno 10763 bound_to 10752
  153.0309  135.5211  154.7346 H   0  0  0  0  0  0  0  0  0  0  0  0  # atno 10764 bound_to 10752
  154.6480  135.2997  154.9991 H   0  0  0  0  0  0  0  0  0  0  0  0  # atno 10765 bound_to 10752
  140.9665  133.7134  156.1453 H   0  0  0  0  0  0  0  0  0  0  0  0  # atno 11005 bound_to 11000
  146.0251  140.8312  142.9904 LP  0  0  0  0  0  0  0  0  0  0  0  0  # atno 17320 bound_to 7965
  144.6828  140.2685  143.7309 LP  0  0  0  0  0  0  0  0  0  0  0  0  # atno 17321 bound_to 7965
  139.5366  144.7216  151.4871 LP  0  0  0  0  0  0  0  0  0  0  0  0  # atno 17342 bound_to 10162
  140.6623  143.8473  150.6901 LP  0  0  0  0  0  0  0  0  0  0  0  0  # atno 17343 bound_to 10162
  156.5134  130.4144  149.6289 LP  0  0  0  0  0  0  0  0  0  0  0  0  # atno 17370 bound_to 10713
  156.3220  130.7286  151.2199 LP  0  0  0  0  0  0  0  0  0  0  0  0  # atno 17371 bound_to 10713
  140.7392  134.4169  157.5557 LP  0  0  0  0  0  0  0  0  0  0  0  0  # atno 17394 bound_to 11000
  139.8896  134.8825  156.2411 LP  0  0  0  0  0  0  0  0  0  0  0  0  # atno 17395 bound_to 11000

$$$$
