AV-unprocessed.smi:2280|AV-procd|sdf|9191|dock4
  -GOLD-   2272012403D 1   1.00000     0.00000
 Structure written by MMmdl.
 41 42  0  0  0  0  0  0  0  0  1 V2000
  151.0028  134.6547  155.5310 C   0  0  0  0  0  0  0  0  0  0  0  0
  150.7676  136.1130  155.1794 C   0  0  0  0  0  0  0  0  0  0  0  0
  151.9166  136.8632  154.9123 N   0  0  0  0  0  0  0  0  0  0  0  0
  151.8130  138.1169  154.6133 C   0  0  0  0  0  0  0  0  0  0  0  0
  150.5661  138.7596  154.5507 N   0  0  0  0  0  0  0  0  0  0  0  0
  150.5878  140.1907  154.2074 C   0  0  0  0  0  0  0  0  0  0  0  0
  149.7697  141.0410  155.2053 C   0  0  2  0  0  0  0  0  0  0  0  0
  148.9948  141.9997  154.5139 O   0  0  0  0  0  0  0  0  0  0  0  0
  150.6483  141.7957  156.2167 C   0  0  0  0  0  0  0  0  0  0  0  0
  151.1051  140.8927  157.2158 O   0  0  0  0  0  0  0  0  0  0  0  0
  151.8164  141.3906  158.2873 C   0  0  0  0  0  0  0  0  0  0  0  0
  151.8690  142.7685  158.6195 C   0  0  0  0  0  0  0  0  0  0  0  0
  152.6160  143.2096  159.7274 C   0  0  0  0  0  0  0  0  0  0  0  0
  153.3187  142.2830  160.5163 C   0  0  0  0  0  0  0  0  0  0  0  0
  153.2745  140.9141  160.1962 C   0  0  0  0  0  0  0  0  0  0  0  0
  152.5274  140.4605  159.0854 C   0  0  0  0  0  0  0  0  0  0  0  0
  152.4813  138.9744  158.7432 C   0  0  0  0  0  0  0  0  0  0  0  0
  153.2145  138.2451  159.5851 F   0  0  0  0  0  0  0  0  0  0  0  0
  151.2235  138.5361  158.8012 F   0  0  0  0  0  0  0  0  0  0  0  0
  152.9487  138.7804  157.5097 F   0  0  0  0  0  0  0  0  0  0  0  0
  149.3944  138.0973  154.7755 C   0  0  0  0  0  0  0  0  0  0  0  0
  148.3036  138.6649  154.6896 O   0  0  0  0  0  0  0  0  0  0  0  0
  149.5283  136.6731  155.1223 C   0  0  0  0  0  0  0  0  0  0  0  0
  148.2423  135.9062  155.4052 C   0  0  0  0  0  0  0  0  0  0  0  0
  150.6220  134.4360  156.5289 H   0  0  0  0  0  0  0  0  0  0  0  0
  152.0653  134.4089  155.5173 H   0  0  0  0  0  0  0  0  0  0  0  0
  150.5007  134.0037  154.8152 H   0  0  0  0  0  0  0  0  0  0  0  0
  152.6771  138.7452  154.3903 H   0  0  0  0  0  0  0  0  0  0  0  0
  151.6256  140.5299  154.2106 H   0  0  0  0  0  0  0  0  0  0  0  0
  150.2535  140.3715  153.1833 H   0  0  0  0  0  0  0  0  0  0  0  0
  149.0813  140.4090  155.7677 H   0  0  0  0  0  0  0  0  0  0  0  0
  148.8548  142.7392  155.0859 H   0  0  0  0  0  0  0  0  0  0  0  0
  151.4838  142.2823  155.7102 H   0  0  0  0  0  0  0  0  0  0  0  0
  150.0466  142.5742  156.6886 H   0  0  0  0  0  0  0  0  0  0  0  0
  151.3443  143.5109  158.0382 H   0  0  0  0  0  0  0  0  0  0  0  0
  152.6495  144.2613  159.9713 H   0  0  0  0  0  0  0  0  0  0  0  0
  153.8919  142.6215  161.3669 H   0  0  0  0  0  0  0  0  0  0  0  0
  153.8208  140.2173  160.8143 H   0  0  0  0  0  0  0  0  0  0  0  0
  147.5785  135.9521  154.5411 H   0  0  0  0  0  0  0  0  0  0  0  0
  147.7217  136.3474  156.2558 H   0  0  0  0  0  0  0  0  0  0  0  0
  148.4099  134.8549  155.6327 H   0  0  0  0  0  0  0  0  0  0  0  0
  1  2  1  0  0  0  0
  1 25  1  0  0  0  0
  1 26  1  0  0  0  0
  1 27  1  0  0  0  0
  2 23  2  0  0  0  0
  2  3  1  0  0  0  0
  3  4  2  0  0  0  0
  4  5  1  0  0  0  0
  4 28  1  0  0  0  0
  5  6  1  0  0  0  0
  5 21  1  0  0  0  0
  6  7  1  0  0  0  0
  6 29  1  0  0  0  0
  6 30  1  0  0  0  0
  7  8  1  0  0  0  0
  7  9  1  0  0  0  0
  7 31  1  0  0  0  0
  8 32  1  0  0  0  0
  9 10  1  0  0  0  0
  9 33  1  0  0  0  0
  9 34  1  0  0  0  0
 10 11  1  0  0  0  0
 11 16  1  0  0  0  0
 11 12  2  0  0  0  0
 12 13  1  0  0  0  0
 12 35  1  0  0  0  0
 13 14  2  0  0  0  0
 13 36  1  0  0  0  0
 14 15  1  0  0  0  0
 14 37  1  0  0  0  0
 15 16  2  0  0  0  0
 15 38  1  0  0  0  0
 16 17  1  0  0  0  0
 17 18  1  0  0  0  0
 17 19  1  0  0  0  0
 17 20  1  0  0  0  0
 21 22  2  0  0  0  0
 21 23  1  0  0  0  0
 23 24  1  0  0  0  0
 24 39  1  0  0  0  0
 24 40  1  0  0  0  0
 24 41  1  0  0  0  0
M  END
> <s_m_source_file>
AV-unprocessed.smi

> <i_m_source_file_index>
2280

> <i_lp_mmshare_version>
43012

> <i_f3d_flags>
0

> <s_epik_input>
W0NIM11jMW5bY0hdbihjKD1PKWMxW0NIM10pW0NIMl1bQ0BIXShbT0hdKVtDSDJdT2MyW2NIXVtjSF1bY0hdW2NIXWMyQyhGKShGKUY=

> <s_epik_cmdline>
J2VwaWtfcHl0aG9uJywgJy1waCcsICc3LjAnLCAnLXRuJywgJzgnLCAnLW1hJywgJzIwMCcsICctbWV0YWxfYmluZGluZycsICctaW1hZScsICc8aW5maWxlLm1hZT4nLCAnLW9tYWUnLCAnPG91dGZpbGUubWFlPic=

> <r_lp_tautomer_probability>
1

> <r_epik_Ionization_Penalty>
3.7476e-05

> <r_epik_Ionization_Penalty_Charging>
8.44705e-08

> <r_epik_Ionization_Penalty_Neutral>
3.73915e-05

> <r_epik_State_Penalty>
-0

> <r_epik_Charging_Adjusted_Penalty>
8.44705e-08

> <i_epik_Tot_Q>
0

> <i_epik_Tot_abs_Q>
0

> <r_epik_Metal_State_Penalty>
-0

> <b_epik_Metal_Only>
0

> <s_lp_Force_Field>
OPLS_2005

> <r_lp_Energy>
25.7706

> <b_lp_Chiralities_Consistent>
1

> <s_lp_Variant>
AV-unprocessed.smi:2280-1

> <Gold.Version>
5.8.1

> <Gold.Id.Protein>
6NUR|6NUR_protein|mol2

> <Gold.PLP.Fitness>
47.1301

> <Gold.PLP.PLP>
-42.6775

> <Gold.PLP.part.hbond>
-3.0000

> <Gold.PLP.part.metal>
0.0000

> <Gold.PLP.part.buried>
-1.9729

> <Gold.PLP.part.nonpolar>
-37.5475

> <Gold.PLP.part.repulsive>
0.2264

> <Gold.PLP.ligand.clash>
0.4099

> <Gold.PLP.ligand.torsion>
1.0310

> <Gold.PLP.Chemscore.Hbond>
2.1365

> <Gold.PLP.Chemscore.CHOScore>
0.0000

> <Gold.PLP.Chemscore.Metal>
0.0000

> <Gold.Chemscore.Hbonds>
donor molecule, donor type, donor heavy atom, donor atom, acceptor molecule, acceptor atom, score
      L1  H     8    32       P1  8028  0.96
      P1  H  8011  8017       L1     8  0.07
      P1  H 10752 10764       L1     3  0.80

> <Gold.PLP.Chemscore.Internal.Correction>
0.5150

> <Gold.Rescore>
     Score         DG    S(hbond)    S(metal)    S(lipo)     H(rot)  DE(clash)    DE(int)     intcor
     10.40     -17.45       2.06        0.00     103.15       2.73       1.79       5.26       ----

> <Gold.Chemscore.Fitness>
10.3984

> <Gold.Chemscore.DG>
-17.4515

> <Gold.Chemscore.ZeroCoef>
-5.4800

> <Gold.Chemscore.Hbond>
2.0633

> <Gold.Chemscore.Metal>
0.0000

> <Gold.Chemscore.Lipo>
103.1511

> <Gold.Chemscore.Internal_Hbond>
0.0000

> <Gold.Chemscore.DEClash>
1.7902

> <Gold.Chemscore.DEInternal>
5.2628

> <Gold.Chemscore.Rot>
2.7300

> <Gold.Chemscore.Internal.Correction>
   9.000000E+99

> <Gold.Chemscore.Hbonds>
donor molecule, donor type, donor heavy atom, donor atom, acceptor molecule, acceptor atom, score
      L1  H     8    32       P1  8028  0.89
      P1  H  8011  8017       L1     8  0.06
      P1  H 10752 10764       L1     3  0.13

> <Gold.Chemscore.Hbond.Weighted>
-6.8916

> <Gold.Chemscore.Metal.Weighted>
-0.0000

> <Gold.Chemscore.Lipo.Weighted>
-12.0687

> <Gold.Chemscore.Internal_Hbond.Weighted>
0.0000

> <Gold.Chemscore.DEClash.Weighted>
1.7902

> <Gold.Chemscore.DEInternal.Weighted>
5.2628

> <Gold.Chemscore.Rot.Weighted>
6.9888

> <Gold.Chemscore.Internal.Correction.Weighted>
   9.000000E+99

> <Gold.Protein.RotatedTorsions>
[ 6907 6896 6895 6894 ] final   35.97 input  -60.11 | X-H torsion
[ 7974 7965 7964 7962 ] final  110.29 input  175.53 | X-H torsion
[ 8008 7997 7996 7995 ] final   52.25 input   59.86 | X-H torsion
[ 10167 10162 10161 10158 ] final   21.45 input  -65.29 | X-H torsion
[ 10718 10713 10712 10709 ] final   63.11 input   66.30 | X-H torsion
[ 10763 10752 10751 10750 ] final  -48.05 input  -60.55 | X-H torsion
[ 11005 11000 10999 10996 ] final  -64.26 input  -57.11 | X-H torsion

> <Gold.Protein.ActiveResidues>
 VAL166  LYS551  ARG553  GLY616  TRP617  ASP618  TYR619  PRO620  LYS621  CYS622 
 ASP623  PHE694  ASN695  SER759  ASP760  ASP761  ALA762  ILE779  LEU786  VAL792 
 PHE793  MET794  SER795  GLU796  ALA797  LYS798  CYS799  TRP800  GLU811  SER814 

> <Gold.Protein.RotatedAtoms>
  152.1235  134.9188  160.0561 H   0  0  0  0  0  0  0  0  0  0  0  0  # atno 6907 bound_to 6896
  152.0320  133.3936  159.4309 H   0  0  0  0  0  0  0  0  0  0  0  0  # atno 6908 bound_to 6896
  150.6851  134.3431  159.4920 H   0  0  0  0  0  0  0  0  0  0  0  0  # atno 6909 bound_to 6896
  145.2569  139.2717  143.4038 H   0  0  0  0  0  0  0  0  0  0  0  0  # atno 7974 bound_to 7965
  155.4487  140.3457  155.4298 H   0  0  0  0  0  0  0  0  0  0  0  0  # atno 8008 bound_to 7997
  156.1234  140.1493  156.9202 H   0  0  0  0  0  0  0  0  0  0  0  0  # atno 8009 bound_to 7997
  154.4840  140.0861  156.7423 H   0  0  0  0  0  0  0  0  0  0  0  0  # atno 8010 bound_to 7997
  140.5425  143.9652  150.6528 H   0  0  0  0  0  0  0  0  0  0  0  0  # atno 10167 bound_to 10162
  157.5948  130.9087  149.9674 H   0  0  0  0  0  0  0  0  0  0  0  0  # atno 10718 bound_to 10713
  154.0715  135.6604  153.4825 H   0  0  0  0  0  0  0  0  0  0  0  0  # atno 10763 bound_to 10752
  153.0389  135.5158  154.7562 H   0  0  0  0  0  0  0  0  0  0  0  0  # atno 10764 bound_to 10752
  154.6629  135.3018  154.9810 H   0  0  0  0  0  0  0  0  0  0  0  0  # atno 10765 bound_to 10752
  141.1419  133.6663  156.5806 H   0  0  0  0  0  0  0  0  0  0  0  0  # atno 11005 bound_to 11000
  146.3286  140.2975  142.8619 LP  0  0  0  0  0  0  0  0  0  0  0  0  # atno 17320 bound_to 7965
  144.9453  140.8122  143.5605 LP  0  0  0  0  0  0  0  0  0  0  0  0  # atno 17321 bound_to 7965
  140.3056  143.3231  152.0929 LP  0  0  0  0  0  0  0  0  0  0  0  0  # atno 17342 bound_to 10162
  139.4994  144.6669  151.6335 LP  0  0  0  0  0  0  0  0  0  0  0  0  # atno 17343 bound_to 10162
  156.1009  130.3656  150.0220 LP  0  0  0  0  0  0  0  0  0  0  0  0  # atno 17370 bound_to 10713
  156.8335  130.9401  151.3636 LP  0  0  0  0  0  0  0  0  0  0  0  0  # atno 17371 bound_to 10713
  140.3841  134.7497  157.4680 LP  0  0  0  0  0  0  0  0  0  0  0  0  # atno 17394 bound_to 11000
  140.0615  134.5989  155.8743 LP  0  0  0  0  0  0  0  0  0  0  0  0  # atno 17395 bound_to 11000

$$$$
