AV-unprocessed.smi:2740|AV-procd|sdf|10557|dock1
  -GOLD-   2272015 13D 1   1.00000     0.00000
 Structure written by MMmdl.
 30 31  0  0  0  0  0  0  0  0  2 V2000
  148.3527  138.4767  153.9716 C   0  0  0  0  0  0  0  0  0  0  0  0
  149.6935  138.6784  154.5924 C   0  0  0  0  0  0  0  0  0  0  0  0
  150.8782  138.0910  154.2315 C   0  0  0  0  0  0  0  0  0  0  0  0
  151.9632  138.4869  155.0150 N   0  0  0  0  0  0  0  0  0  0  0  0
  151.6352  139.3580  155.9751 C   0  0  0  0  0  0  0  0  0  0  0  0
  152.5284  139.8659  156.8400 N   0  5  0  0  0  0  0  0  0  0  0  0
  152.1539  140.1514  158.1079 C   0  0  0  0  0  0  0  0  0  0  0  0
  151.1941  139.6666  158.7123 O   0  0  0  0  0  0  0  0  0  0  0  0
  152.9383  141.0543  158.7140 N   0  0  0  0  0  0  0  0  0  0  0  0
  152.7731  141.5475  160.0772 C   0  0  0  0  0  0  0  0  0  0  0  0
  152.3199  143.0167  160.0986 C   0  0  1  0  0  0  0  0  0  0  0  0
  152.7505  143.8122  158.8669 C   0  0  0  0  0  0  0  0  0  0  0  0
  151.6920  144.8993  158.7474 C   0  0  0  0  0  0  0  0  0  0  0  0
  150.5924  144.4608  159.7182 C   0  0  0  0  0  0  0  0  0  0  0  0
  150.9053  143.1136  160.0397 O   0  0  0  0  0  0  0  0  0  0  0  0
  149.9167  139.7599  155.9415 S   0  0  0  0  0  0  0  0  0  0  0  0
  148.0230  137.4451  154.0948 H   0  0  0  0  0  0  0  0  0  0  0  0
  148.3834  138.6968  152.9044 H   0  0  0  0  0  0  0  0  0  0  0  0
  147.6045  139.1256  154.4274 H   0  0  0  0  0  0  0  0  0  0  0  0
  151.0411  137.3825  153.4330 H   0  0  0  0  0  0  0  0  0  0  0  0
  153.7102  141.4298  158.1831 H   0  0  0  0  0  0  0  0  0  0  0  0
  152.0532  140.9232  160.6091 H   0  0  0  0  0  0  0  0  0  0  0  0
  153.7223  141.4381  160.6023 H   0  0  0  0  0  0  0  0  0  0  0  0
  152.6753  143.5199  161.0003 H   0  0  0  0  0  0  0  0  0  0  0  0
  153.7602  144.2118  158.9633 H   0  0  0  0  0  0  0  0  0  0  0  0
  152.7238  143.1791  157.9790 H   0  0  0  0  0  0  0  0  0  0  0  0
  152.0838  145.8793  159.0223 H   0  0  0  0  0  0  0  0  0  0  0  0
  151.3200  144.9610  157.7242 H   0  0  0  0  0  0  0  0  0  0  0  0
  150.6220  145.0618  160.6282 H   0  0  0  0  0  0  0  0  0  0  0  0
  149.5941  144.5435  159.2877 H   0  0  0  0  0  0  0  0  0  0  0  0
  1  2  1  0  0  0  0
  1 17  1  0  0  0  0
  1 18  1  0  0  0  0
  1 19  1  0  0  0  0
  2 16  1  0  0  0  0
  2  3  2  0  0  0  0
  3  4  1  0  0  0  0
  3 20  1  0  0  0  0
  4  5  2  0  0  0  0
  5  6  1  0  0  0  0
  5 16  1  0  0  0  0
  6  7  1  0  0  0  0
  7  8  2  0  0  0  0
  7  9  1  0  0  0  0
  9 10  1  0  0  0  0
  9 21  1  0  0  0  0
 10 11  1  0  0  0  0
 10 22  1  0  0  0  0
 10 23  1  0  0  0  0
 11 15  1  0  0  0  0
 11 12  1  0  0  0  0
 11 24  1  0  0  0  0
 12 13  1  0  0  0  0
 12 25  1  0  0  0  0
 12 26  1  0  0  0  0
 13 14  1  0  0  0  0
 13 27  1  0  0  0  0
 13 28  1  0  0  0  0
 14 15  1  0  0  0  0
 14 29  1  0  0  0  0
 14 30  1  0  0  0  0
M  CHG  1   6  -1
M  END
> <s_m_source_file>
AV-unprocessed.smi

> <i_m_source_file_index>
2740

> <i_lp_mmshare_version>
43012

> <i_f3d_flags>
0

> <s_epik_input>
W0NIM11jMVtjSF1uYyhzMSlbTkhdQyg9TylbTkhdW0NIMl1bQ0BASF0yW0NIMl1bQ0gyXVtDSDJdTzI=

> <s_epik_cmdline>
J2VwaWtfcHl0aG9uJywgJy1waCcsICc3LjAnLCAnLXRuJywgJzgnLCAnLW1hJywgJzIwMCcsICctbWV0YWxfYmluZGluZycsICctaW1hZScsICc8aW5maWxlLm1hZT4nLCAnLW9tYWUnLCAnPG91dGZpbGUubWFlPic=

> <r_lp_tautomer_probability>
0.999

> <r_epik_Ionization_Penalty>
8.54039

> <r_epik_Ionization_Penalty_Charging>
6.77868

> <r_epik_Ionization_Penalty_Neutral>
1.76171

> <r_epik_State_Penalty>
6.77885

> <r_epik_Charging_Adjusted_Penalty>
13.5575

> <i_epik_Tot_Q>
-1

> <i_epik_Tot_abs_Q>
1

> <r_epik_Metal_State_Penalty>
2.69888

> <b_epik_Metal_Only>
1

> <s_lp_Force_Field>
OPLS_2005

> <r_lp_Energy>
13.1724

> <b_lp_Chiralities_Consistent>
1

> <s_lp_Variant>
AV-unprocessed.smi:2740-4

> <Gold.Version>
5.8.1

> <Gold.Id.Protein>
6NUR|6NUR_protein|mol2

> <Gold.PLP.Fitness>
43.2853

> <Gold.PLP.PLP>
-35.4351

> <Gold.PLP.part.hbond>
-1.4975

> <Gold.PLP.part.metal>
0.0000

> <Gold.PLP.part.buried>
-3.6895

> <Gold.PLP.part.nonpolar>
-29.8355

> <Gold.PLP.part.repulsive>
0.1829

> <Gold.PLP.ligand.clash>
0.0000

> <Gold.PLP.ligand.torsion>
0.7659

> <Gold.PLP.Chemscore.Hbond>
2.0000

> <Gold.PLP.Chemscore.CHOScore>
1.1125

> <Gold.PLP.Chemscore.Metal>
0.0000

> <Gold.Chemscore.Hbonds>
donor molecule, donor type, donor heavy atom, donor atom, acceptor molecule, acceptor atom, score
      P1  H  7997  8008       L1     6  2.00
      L1  C     3    20       P1  7948  0.06
      L1  C     3    20       P1  7949  1.00

> <Gold.PLP.Chemscore.Internal.Correction>
0.0444

> <Gold.Rescore>
     Score         DG    S(hbond)    S(metal)    S(lipo)     H(rot)  DE(clash)    DE(int)     intcor
     14.65     -15.59       0.94        0.00      86.82       1.25       0.02       0.92       ----

> <Gold.Chemscore.Fitness>
14.6539

> <Gold.Chemscore.DG>
-15.5862

> <Gold.Chemscore.ZeroCoef>
-5.4800

> <Gold.Chemscore.Hbond>
0.9438

> <Gold.Chemscore.Metal>
0.0000

> <Gold.Chemscore.Lipo>
86.8161

> <Gold.Chemscore.Internal_Hbond>
0.0000

> <Gold.Chemscore.DEClash>
0.0164

> <Gold.Chemscore.DEInternal>
0.9160

> <Gold.Chemscore.Rot>
1.2514

> <Gold.Chemscore.Internal.Correction>
   9.000000E+99

> <Gold.Chemscore.Hbonds>
donor molecule, donor type, donor heavy atom, donor atom, acceptor molecule, acceptor atom, score
      P1  H  7997  8008       L1     6  0.85

> <Gold.Chemscore.Hbond.Weighted>
-3.1523

> <Gold.Chemscore.Metal.Weighted>
-0.0000

> <Gold.Chemscore.Lipo.Weighted>
-10.1575

> <Gold.Chemscore.Internal_Hbond.Weighted>
0.0000

> <Gold.Chemscore.DEClash.Weighted>
0.0164

> <Gold.Chemscore.DEInternal.Weighted>
0.9160

> <Gold.Chemscore.Rot.Weighted>
3.2036

> <Gold.Chemscore.Internal.Correction.Weighted>
   9.000000E+99

> <Gold.Protein.RotatedTorsions>
[ 6907 6896 6895 6894 ] final -106.59 input  -60.11 | X-H torsion
[ 7974 7965 7964 7962 ] final   -6.20 input  175.53 | X-H torsion
[ 8008 7997 7996 7995 ] final  -54.32 input   59.86 | X-H torsion
[ 10167 10162 10161 10158 ] final -117.72 input  -65.29 | X-H torsion
[ 10718 10713 10712 10709 ] final -109.84 input   66.30 | X-H torsion
[ 10763 10752 10751 10750 ] final  -84.93 input  -60.55 | X-H torsion
[ 11005 11000 10999 10996 ] final -106.15 input  -57.11 | X-H torsion

> <Gold.Protein.ActiveResidues>
 VAL166  LYS551  ARG553  GLY616  TRP617  ASP618  TYR619  PRO620  LYS621  CYS622 
 ASP623  PHE694  ASN695  SER759  ASP760  ASP761  ALA762  ILE779  LEU786  VAL792 
 PHE793  MET794  SER795  GLU796  ALA797  LYS798  CYS799  TRP800  GLU811  SER814 

> <Gold.Protein.RotatedAtoms>
  150.7397  133.9954  159.3620 H   0  0  0  0  0  0  0  0  0  0  0  0  # atno 6907 bound_to 6896
  151.7904  135.0735  160.0396 H   0  0  0  0  0  0  0  0  0  0  0  0  # atno 6908 bound_to 6896
  152.3211  133.5819  159.5782 H   0  0  0  0  0  0  0  0  0  0  0  0  # atno 6909 bound_to 6896
  146.2336  140.2135  142.8336 H   0  0  0  0  0  0  0  0  0  0  0  0  # atno 7974 bound_to 7965
  154.4159  140.1179  156.5296 H   0  0  0  0  0  0  0  0  0  0  0  0  # atno 8008 bound_to 7997
  155.6619  140.3496  155.4766 H   0  0  0  0  0  0  0  0  0  0  0  0  # atno 8009 bound_to 7997
  155.9706  140.1140  157.0805 H   0  0  0  0  0  0  0  0  0  0  0  0  # atno 8010 bound_to 7997
  140.0653  143.4929  152.2009 H   0  0  0  0  0  0  0  0  0  0  0  0  # atno 10167 bound_to 10162
  156.0558  130.5784  150.8155 H   0  0  0  0  0  0  0  0  0  0  0  0  # atno 10718 bound_to 10713
  154.6053  135.5503  153.7416 H   0  0  0  0  0  0  0  0  0  0  0  0  # atno 10763 bound_to 10752
  153.0171  135.6376  154.1657 H   0  0  0  0  0  0  0  0  0  0  0  0  # atno 10764 bound_to 10752
  154.1596  135.2898  155.3092 H   0  0  0  0  0  0  0  0  0  0  0  0  # atno 10765 bound_to 10752
  141.1019  133.8869  157.1821 H   0  0  0  0  0  0  0  0  0  0  0  0  # atno 11005 bound_to 11000
  144.9688  140.8348  143.5468 LP  0  0  0  0  0  0  0  0  0  0  0  0  # atno 17320 bound_to 7965
  145.2114  139.2203  143.5141 LP  0  0  0  0  0  0  0  0  0  0  0  0  # atno 17321 bound_to 7965
  139.5869  144.7534  151.3498 LP  0  0  0  0  0  0  0  0  0  0  0  0  # atno 17342 bound_to 10162
  140.7152  143.7285  150.7641 LP  0  0  0  0  0  0  0  0  0  0  0  0  # atno 17343 bound_to 10162
  157.5527  131.0944  150.9673 LP  0  0  0  0  0  0  0  0  0  0  0  0  # atno 17370 bound_to 10713
  156.9929  130.5570  149.5305 LP  0  0  0  0  0  0  0  0  0  0  0  0  # atno 17371 bound_to 10713
  139.9873  135.0077  156.9893 LP  0  0  0  0  0  0  0  0  0  0  0  0  # atno 17394 bound_to 11000
  140.5001  134.1106  155.7249 LP  0  0  0  0  0  0  0  0  0  0  0  0  # atno 17395 bound_to 11000

$$$$
