AV-unprocessed.smi:845|AV-procd|sdf|3932|dock3
  -GOLD-   22720 1393D 1   1.00000     0.00000
 Structure written by MMmdl.
 42 43  0  0  0  0  0  0  0  0  3 V2000
  149.5983  140.9476  154.4131 C   0  0  0  0  0  0  0  0  0  0  0  0
  149.9851  139.7027  155.2367 C   0  0  0  0  0  0  0  0  0  0  0  0
  149.7524  138.4461  154.3759 C   0  0  0  0  0  0  0  0  0  0  0  0
  149.2375  139.6534  156.6010 C   0  0  1  0  0  0  0  0  0  0  0  0
  149.0457  138.1984  157.1244 C   0  0  0  0  0  0  0  0  0  0  0  0
  148.3811  138.1159  158.4207 N   0  0  0  0  0  0  0  0  0  0  0  0
  148.3800  137.0508  159.2339 C   0  0  0  0  0  0  0  0  0  0  0  0
  149.0017  136.0341  158.9175 O   0  0  0  0  0  0  0  0  0  0  0  0
  147.6392  137.2257  160.3505 N   0  5  0  0  0  0  0  0  0  0  0  0
  147.2223  136.1602  161.0532 C   0  0  0  0  0  0  0  0  0  0  0  0
  146.9940  134.9642  160.4993 N   0  0  0  0  0  0  0  0  0  0  0  0
  146.5757  133.9989  161.4169 C   0  0  0  0  0  0  0  0  0  0  0  0
  146.4905  134.4698  162.7004 C   0  0  0  0  0  0  0  0  0  0  0  0
  146.9360  136.1499  162.7956 S   0  0  0  0  0  0  0  0  0  0  0  0
  149.9083  140.5705  157.5762 N   0  3  0  0  0  0  0  0  0  0  0  0
  151.2341  140.1251  158.0718 C   0  0  0  0  0  0  0  0  0  0  0  0
  151.6774  141.0140  159.2449 C   0  0  0  0  0  0  0  0  0  0  0  0
  151.6960  142.3770  158.8346 O   0  0  0  0  0  0  0  0  0  0  0  0
  150.4110  142.8347  158.4287 C   0  0  0  0  0  0  0  0  0  0  0  0
  149.9240  142.0120  157.2249 C   0  0  0  0  0  0  0  0  0  0  0  0
  148.5267  140.9711  154.2118 H   0  0  0  0  0  0  0  0  0  0  0  0
  150.1148  140.9592  153.4528 H   0  0  0  0  0  0  0  0  0  0  0  0
  149.8627  141.8747  154.9220 H   0  0  0  0  0  0  0  0  0  0  0  0
  151.0567  139.7606  155.4311 H   0  0  0  0  0  0  0  0  0  0  0  0
  148.6885  138.2598  154.2244 H   0  0  0  0  0  0  0  0  0  0  0  0
  150.1910  137.5560  154.8256 H   0  0  0  0  0  0  0  0  0  0  0  0
  150.2123  138.5526  153.3930 H   0  0  0  0  0  0  0  0  0  0  0  0
  148.2438  140.0616  156.4103 H   0  0  0  0  0  0  0  0  0  0  0  0
  148.4618  137.6065  156.4198 H   0  0  0  0  0  0  0  0  0  0  0  0
  150.0088  137.6945  157.2065 H   0  0  0  0  0  0  0  0  0  0  0  0
  147.8665  138.9298  158.7243 H   0  0  0  0  0  0  0  0  0  0  0  0
  146.3608  132.9998  161.0685 H   0  0  0  0  0  0  0  0  0  0  0  0
  146.1956  133.9348  163.5904 H   0  0  0  0  0  0  0  0  0  0  0  0
  151.1855  139.0854  158.3978 H   0  0  0  0  0  0  0  0  0  0  0  0
  151.9814  140.1818  157.2826 H   0  0  0  0  0  0  0  0  0  0  0  0
  151.0121  140.8893  160.1008 H   0  0  0  0  0  0  0  0  0  0  0  0
  152.6771  140.7301  159.5744 H   0  0  0  0  0  0  0  0  0  0  0  0
  149.7072  142.7626  159.2596 H   0  0  0  0  0  0  0  0  0  0  0  0
  150.4797  143.8889  158.1598 H   0  0  0  0  0  0  0  0  0  0  0  0
  150.5852  142.1896  156.3763 H   0  0  0  0  0  0  0  0  0  0  0  0
  148.9267  142.3413  156.9331 H   0  0  0  0  0  0  0  0  0  0  0  0
  149.3195  140.5100  158.3943 H   0  0  0  0  0  0  0  0  0  0  0  0
  1  2  1  0  0  0  0
  1 21  1  0  0  0  0
  1 22  1  0  0  0  0
  1 23  1  0  0  0  0
  2  3  1  0  0  0  0
  2  4  1  0  0  0  0
  2 24  1  0  0  0  0
  3 25  1  0  0  0  0
  3 26  1  0  0  0  0
  3 27  1  0  0  0  0
  4  5  1  0  0  0  0
  4 15  1  0  0  0  0
  4 28  1  0  0  0  0
  5  6  1  0  0  0  0
  5 29  1  0  0  0  0
  5 30  1  0  0  0  0
  6  7  1  0  0  0  0
  6 31  1  0  0  0  0
  7  8  2  0  0  0  0
  7  9  1  0  0  0  0
  9 10  1  0  0  0  0
 10 14  1  0  0  0  0
 10 11  2  0  0  0  0
 11 12  1  0  0  0  0
 12 13  2  0  0  0  0
 12 32  1  0  0  0  0
 13 14  1  0  0  0  0
 13 33  1  0  0  0  0
 15 20  1  0  0  0  0
 15 16  1  0  0  0  0
 15 42  1  0  0  0  0
 16 17  1  0  0  0  0
 16 34  1  0  0  0  0
 16 35  1  0  0  0  0
 17 18  1  0  0  0  0
 17 36  1  0  0  0  0
 17 37  1  0  0  0  0
 18 19  1  0  0  0  0
 19 20  1  0  0  0  0
 19 38  1  0  0  0  0
 19 39  1  0  0  0  0
 20 40  1  0  0  0  0
 20 41  1  0  0  0  0
M  CHG  1   9  -1
M  CHG  1  15   1
M  END
> <s_m_source_file>
AV-unprocessed.smi

> <i_m_source_file_index>
845

> <i_lp_mmshare_version>
43012

> <i_f3d_flags>
0

> <s_epik_input>
W0NIMl0xW0NIMl1PW0NIMl1bQ0gyXU4xW0NASF0oW0NIXShbQ0gzXSlbQ0gzXSlbQ0gyXVtOSF1DKD1PKVtOSF1jMm5bY0hdW2NIXXMy

> <s_epik_cmdline>
J2VwaWtfcHl0aG9uJywgJy1waCcsICc3LjAnLCAnLXRuJywgJzgnLCAnLW1hJywgJzIwMCcsICctbWV0YWxfYmluZGluZycsICctaW1hZScsICc8aW5maWxlLm1hZT4nLCAnLW9tYWUnLCAnPG91dGZpbGUubWFlPic=

> <r_lp_tautomer_probability>
0.999

> <r_epik_Ionization_Penalty>
7.97104

> <r_epik_Ionization_Penalty_Charging>
6.58021

> <r_epik_Ionization_Penalty_Neutral>
1.39083

> <r_epik_State_Penalty>
6.69807

> <r_epik_Charging_Adjusted_Penalty>
13.2783

> <i_epik_Tot_Q>
0

> <i_epik_Tot_abs_Q>
2

> <r_epik_Metal_State_Penalty>
2.62985

> <b_epik_Metal_Only>
1

> <s_lp_Force_Field>
OPLS_2005

> <r_lp_Energy>
19.9677

> <b_lp_Chiralities_Consistent>
1

> <s_lp_Variant>
AV-unprocessed.smi:845-6

> <Gold.Version>
5.8.1

> <Gold.Id.Protein>
6NUR|6NUR_protein|mol2

> <Gold.PLP.Fitness>
44.0811

> <Gold.PLP.PLP>
-33.8501

> <Gold.PLP.part.hbond>
-3.0000

> <Gold.PLP.part.metal>
0.0000

> <Gold.PLP.part.buried>
-3.2460

> <Gold.PLP.part.nonpolar>
-29.1724

> <Gold.PLP.part.repulsive>
0.2665

> <Gold.PLP.ligand.clash>
0.0000

> <Gold.PLP.ligand.torsion>
1.0096

> <Gold.PLP.Chemscore.Hbond>
3.8885

> <Gold.PLP.Chemscore.CHOScore>
0.0000

> <Gold.PLP.Chemscore.Metal>
0.0000

> <Gold.Chemscore.Hbonds>
donor molecule, donor type, donor heavy atom, donor atom, acceptor molecule, acceptor atom, score
      P1  H  6896  6908       L1     8  0.31
      P1  H  6931  6943       L1     9  0.38
      P1  H  6934  6947       L1     9  1.86

> <Gold.PLP.Chemscore.Internal.Correction>
0.5848

> <Gold.Rescore>
     Score         DG    S(hbond)    S(metal)    S(lipo)     H(rot)  DE(clash)    DE(int)     intcor
     13.88     -16.43       2.09        0.00      72.58       1.76       0.00       2.55       ----

> <Gold.Chemscore.Fitness>
13.8813

> <Gold.Chemscore.DG>
-16.4334

> <Gold.Chemscore.ZeroCoef>
-5.4800

> <Gold.Chemscore.Hbond>
2.0876

> <Gold.Chemscore.Metal>
0.0000

> <Gold.Chemscore.Lipo>
72.5841

> <Gold.Chemscore.Internal_Hbond>
0.0000

> <Gold.Chemscore.DEClash>
0.0048

> <Gold.Chemscore.DEInternal>
2.5473

> <Gold.Chemscore.Rot>
1.7623

> <Gold.Chemscore.Internal.Correction>
   9.000000E+99

> <Gold.Chemscore.Hbonds>
donor molecule, donor type, donor heavy atom, donor atom, acceptor molecule, acceptor atom, score
      P1  H  6896  6908       L1     8  0.31
      P1  H  6931  6943       L1     9  0.03
      P1  H  6934  6947       L1     9  0.86

> <Gold.Chemscore.Hbond.Weighted>
-6.9726

> <Gold.Chemscore.Metal.Weighted>
-0.0000

> <Gold.Chemscore.Lipo.Weighted>
-8.4923

> <Gold.Chemscore.Internal_Hbond.Weighted>
0.0000

> <Gold.Chemscore.DEClash.Weighted>
0.0048

> <Gold.Chemscore.DEInternal.Weighted>
2.5473

> <Gold.Chemscore.Rot.Weighted>
4.5116

> <Gold.Chemscore.Internal.Correction.Weighted>
   9.000000E+99

> <Gold.Protein.RotatedTorsions>
[ 6907 6896 6895 6894 ] final  168.22 input  -60.11 | X-H torsion
[ 7974 7965 7964 7962 ] final  -66.01 input  175.53 | X-H torsion
[ 8008 7997 7996 7995 ] final -162.45 input   59.86 | X-H torsion
[ 10167 10162 10161 10158 ] final -164.72 input  -65.29 | X-H torsion
[ 10718 10713 10712 10709 ] final -103.53 input   66.30 | X-H torsion
[ 10763 10752 10751 10750 ] final  -79.39 input  -60.55 | X-H torsion
[ 11005 11000 10999 10996 ] final  163.68 input  -57.11 | X-H torsion

> <Gold.Protein.ActiveResidues>
 VAL166  LYS551  ARG553  GLY616  TRP617  ASP618  TYR619  PRO620  LYS621  CYS622 
 ASP623  PHE694  ASN695  SER759  ASP760  ASP761  ALA762  ILE779  LEU786  VAL792 
 PHE793  MET794  SER795  GLU796  ALA797  LYS798  CYS799  TRP800  GLU811  SER814 

> <Gold.Protein.RotatedAtoms>
  151.8511  133.3440  159.3673 H   0  0  0  0  0  0  0  0  0  0  0  0  # atno 6907 bound_to 6896
  150.7206  134.5298  159.5704 H   0  0  0  0  0  0  0  0  0  0  0  0  # atno 6908 bound_to 6896
  152.2792  134.7848  160.0451 H   0  0  0  0  0  0  0  0  0  0  0  0  # atno 6909 bound_to 6896
  145.7472  140.8926  143.0499 H   0  0  0  0  0  0  0  0  0  0  0  0  # atno 7974 bound_to 7965
  155.8070  140.0900  157.1925 H   0  0  0  0  0  0  0  0  0  0  0  0  # atno 8008 bound_to 7997
  154.3980  140.1462  156.3400 H   0  0  0  0  0  0  0  0  0  0  0  0  # atno 8009 bound_to 7997
  155.8404  140.3439  155.5631 H   0  0  0  0  0  0  0  0  0  0  0  0  # atno 8010 bound_to 7997
  139.6231  144.0585  152.1950 H   0  0  0  0  0  0  0  0  0  0  0  0  # atno 10167 bound_to 10162
  156.0269  130.5471  150.7266 H   0  0  0  0  0  0  0  0  0  0  0  0  # atno 10718 bound_to 10713
  154.5381  135.5697  153.6815 H   0  0  0  0  0  0  0  0  0  0  0  0  # atno 10763 bound_to 10752
  152.9956  135.6221  154.2539 H   0  0  0  0  0  0  0  0  0  0  0  0  # atno 10764 bound_to 10752
  154.2469  135.2860  155.2812 H   0  0  0  0  0  0  0  0  0  0  0  0  # atno 10765 bound_to 10752
  140.2382  134.8071  157.3385 H   0  0  0  0  0  0  0  0  0  0  0  0  # atno 11005 bound_to 11000
  144.6857  139.9541  143.7478 LP  0  0  0  0  0  0  0  0  0  0  0  0  # atno 17320 bound_to 7965
  146.0392  139.3405  143.0708 LP  0  0  0  0  0  0  0  0  0  0  0  0  # atno 17321 bound_to 7965
  140.0232  144.6137  150.7549 LP  0  0  0  0  0  0  0  0  0  0  0  0  # atno 17342 bound_to 10162
  140.7394  143.2791  151.3652 LP  0  0  0  0  0  0  0  0  0  0  0  0  # atno 17343 bound_to 10162
  157.4868  131.0907  151.0472 LP  0  0  0  0  0  0  0  0  0  0  0  0  # atno 17370 bound_to 10713
  157.0890  130.5934  149.5436 LP  0  0  0  0  0  0  0  0  0  0  0  0  # atno 17371 bound_to 10713
  140.1680  134.4645  155.7850 LP  0  0  0  0  0  0  0  0  0  0  0  0  # atno 17394 bound_to 11000
  141.2212  133.6929  156.7658 LP  0  0  0  0  0  0  0  0  0  0  0  0  # atno 17395 bound_to 11000

$$$$
