AV-unprocessed.smi:968|AV-procd|sdf|4289|dock6
  -GOLD-   22720 2193D 1   1.00000     0.00000
 Structure written by MMmdl.
 20 20  0  0  0  0  0  0  0  0  1 V2000
  151.8148  144.4855  157.6988 C   0  0  0  0  0  0  0  0  0  0  0  0
  150.8120  143.4573  157.4661 N   0  0  0  0  0  0  0  0  0  0  0  0
  150.8970  142.2015  157.9273 C   0  0  0  0  0  0  0  0  0  0  0  0
  151.8485  141.7960  158.5971 O   0  0  0  0  0  0  0  0  0  0  0  0
  149.7258  141.2790  157.5652 C   0  0  0  0  0  0  0  0  0  0  0  0
  149.6597  140.9744  156.1452 N   0  0  0  0  0  0  0  0  0  0  0  0
  149.5112  141.7787  155.0898 C   0  0  0  0  0  0  0  0  0  0  0  0
  149.4938  141.1403  153.9274 N   0  0  0  0  0  0  0  0  0  0  0  0
  149.6470  139.8586  154.3729 C   0  0  0  0  0  0  0  0  0  0  0  0
  149.6888  138.7787  153.4755 N   0  0  0  0  0  0  0  0  0  0  0  0
  149.7497  139.7011  155.6919 N   0  0  0  0  0  0  0  0  0  0  0  0
  151.5347  145.4017  157.1792 H   0  0  0  0  0  0  0  0  0  0  0  0
  152.7915  144.1698  157.3295 H   0  0  0  0  0  0  0  0  0  0  0  0
  151.9002  144.7094  158.7628 H   0  0  0  0  0  0  0  0  0  0  0  0
  150.0010  143.7172  156.9234 H   0  0  0  0  0  0  0  0  0  0  0  0
  149.8076  140.3472  158.1273 H   0  0  0  0  0  0  0  0  0  0  0  0
  148.7887  141.7526  157.8600 H   0  0  0  0  0  0  0  0  0  0  0  0
  149.4166  142.8514  155.1740 H   0  0  0  0  0  0  0  0  0  0  0  0
  149.6055  138.9377  152.4820 H   0  0  0  0  0  0  0  0  0  0  0  0
  149.7709  137.8330  153.8194 H   0  0  0  0  0  0  0  0  0  0  0  0
  1  2  1  0  0  0  0
  1 12  1  0  0  0  0
  1 13  1  0  0  0  0
  1 14  1  0  0  0  0
  2  3  1  0  0  0  0
  2 15  1  0  0  0  0
  3  4  2  0  0  0  0
  3  5  1  0  0  0  0
  5  6  1  0  0  0  0
  5 16  1  0  0  0  0
  5 17  1  0  0  0  0
  6 11  1  0  0  0  0
  6  7  1  0  0  0  0
  7  8  2  0  0  0  0
  7 18  1  0  0  0  0
  8  9  1  0  0  0  0
  9 10  1  0  0  0  0
  9 11  2  0  0  0  0
 10 19  1  0  0  0  0
 10 20  1  0  0  0  0
M  END
> <s_m_source_file>
AV-unprocessed.smi

> <i_m_source_file_index>
968

> <i_lp_mmshare_version>
43012

> <i_f3d_flags>
0

> <s_epik_input>
W0NIM11bTkhdQyg9TylbQ0gyXW4xW2NIXW5jKG4xKVtOSDJd

> <s_epik_cmdline>
J2VwaWtfcHl0aG9uJywgJy1waCcsICc3LjAnLCAnLXRuJywgJzgnLCAnLW1hJywgJzIwMCcsICctbWV0YWxfYmluZGluZycsICctaW1hZScsICc8aW5maWxlLm1hZT4nLCAnLW9tYWUnLCAnPG91dGZpbGUubWFlPic=

> <r_lp_tautomer_probability>
1

> <r_epik_Ionization_Penalty>
0.000377128

> <r_epik_Ionization_Penalty_Charging>
0

> <r_epik_Ionization_Penalty_Neutral>
0.000377128

> <r_epik_State_Penalty>
-0

> <r_epik_Charging_Adjusted_Penalty>
0

> <i_epik_Tot_Q>
0

> <i_epik_Tot_abs_Q>
0

> <r_epik_Metal_State_Penalty>
-0

> <b_epik_Metal_Only>
0

> <s_lp_Force_Field>
OPLS_2005

> <r_lp_Energy>
2.7463

> <b_lp_Chiralities_Consistent>
1

> <s_lp_Variant>
AV-unprocessed.smi:968-1

> <Gold.Version>
5.8.1

> <Gold.Id.Protein>
6NUR|6NUR_protein|mol2

> <Gold.PLP.Fitness>
31.8820

> <Gold.PLP.PLP>
-20.2888

> <Gold.PLP.part.hbond>
-5.0000

> <Gold.PLP.part.metal>
0.0000

> <Gold.PLP.part.buried>
-2.0575

> <Gold.PLP.part.nonpolar>
-13.6037

> <Gold.PLP.part.repulsive>
1.6650

> <Gold.PLP.ligand.clash>
0.0000

> <Gold.PLP.ligand.torsion>
0.0620

> <Gold.PLP.Chemscore.Hbond>
2.9057

> <Gold.PLP.Chemscore.CHOScore>
1.0000

> <Gold.PLP.Chemscore.Metal>
0.0000

> <Gold.Chemscore.Hbonds>
donor molecule, donor type, donor heavy atom, donor atom, acceptor molecule, acceptor atom, score
      L1  H     2    15       P1  8028  1.00
      L1  H    10    19       P1  7957  1.00
      P1  H  7989  7998       L1     8  0.02
      P1  H  8011  8017       L1     8  0.80
      L1  C     7    18       P1  8028  0.91

> <Gold.PLP.Chemscore.Internal.Correction>
0.0000

> <Gold.Rescore>
     Score         DG    S(hbond)    S(metal)    S(lipo)     H(rot)  DE(clash)    DE(int)     intcor
     11.31     -11.92       2.54        0.00      18.62       1.65       0.57       0.04       ----

> <Gold.Chemscore.Fitness>
11.3136

> <Gold.Chemscore.DG>
-11.9217

> <Gold.Chemscore.ZeroCoef>
-5.4800

> <Gold.Chemscore.Hbond>
2.5437

> <Gold.Chemscore.Metal>
0.0000

> <Gold.Chemscore.Lipo>
18.6202

> <Gold.Chemscore.Internal_Hbond>
0.0000

> <Gold.Chemscore.DEClash>
0.5729

> <Gold.Chemscore.DEInternal>
0.0352

> <Gold.Chemscore.Rot>
1.6534

> <Gold.Chemscore.Internal.Correction>
   9.000000E+99

> <Gold.Chemscore.Hbonds>
donor molecule, donor type, donor heavy atom, donor atom, acceptor molecule, acceptor atom, score
      L1  H     2    15       P1  8028  0.97
      L1  H    10    19       P1  7957  0.78
      P1  H  8011  8017       L1     8  0.62

> <Gold.Chemscore.Hbond.Weighted>
-8.4958

> <Gold.Chemscore.Metal.Weighted>
-0.0000

> <Gold.Chemscore.Lipo.Weighted>
-2.1786

> <Gold.Chemscore.Internal_Hbond.Weighted>
0.0000

> <Gold.Chemscore.DEClash.Weighted>
0.5729

> <Gold.Chemscore.DEInternal.Weighted>
0.0352

> <Gold.Chemscore.Rot.Weighted>
4.2327

> <Gold.Chemscore.Internal.Correction.Weighted>
   9.000000E+99

> <Gold.Protein.RotatedTorsions>
[ 6907 6896 6895 6894 ] final   98.71 input  -60.11 | X-H torsion
[ 7974 7965 7964 7962 ] final  100.97 input  175.53 | X-H torsion
[ 8008 7997 7996 7995 ] final  169.96 input   59.86 | X-H torsion
[ 10167 10162 10161 10158 ] final   98.57 input  -65.29 | X-H torsion
[ 10718 10713 10712 10709 ] final   97.72 input   66.30 | X-H torsion
[ 10763 10752 10751 10750 ] final  -57.58 input  -60.55 | X-H torsion
[ 11005 11000 10999 10996 ] final    1.54 input  -57.11 | X-H torsion

> <Gold.Protein.ActiveResidues>
 VAL166  LYS551  ARG553  GLY616  TRP617  ASP618  TYR619  PRO620  LYS621  CYS622 
 ASP623  PHE694  ASN695  SER759  ASP760  ASP761  ALA762  ILE779  LEU786  VAL792 
 PHE793  MET794  SER795  GLU796  ALA797  LYS798  CYS799  TRP800  GLU811  SER814 

> <Gold.Protein.RotatedAtoms>
  152.5404  134.0538  159.8121 H   0  0  0  0  0  0  0  0  0  0  0  0  # atno 6907 bound_to 6896
  151.0676  133.5485  159.2637 H   0  0  0  0  0  0  0  0  0  0  0  0  # atno 6908 bound_to 6896
  151.2360  135.0580  159.9060 H   0  0  0  0  0  0  0  0  0  0  0  0  # atno 6909 bound_to 6896
  145.3786  139.2384  143.3416 H   0  0  0  0  0  0  0  0  0  0  0  0  # atno 7974 bound_to 7965
  156.1410  140.1550  156.8921 H   0  0  0  0  0  0  0  0  0  0  0  0  # atno 8008 bound_to 7997
  154.4987  140.0831  156.7790 H   0  0  0  0  0  0  0  0  0  0  0  0  # atno 8009 bound_to 7997
  155.4079  140.3417  155.4264 H   0  0  0  0  0  0  0  0  0  0  0  0  # atno 8010 bound_to 7997
  139.7697  144.6927  151.0174 H   0  0  0  0  0  0  0  0  0  0  0  0  # atno 10167 bound_to 10162
  157.6908  131.0618  150.4687 H   0  0  0  0  0  0  0  0  0  0  0  0  # atno 10718 bound_to 10713
  154.2247  135.6371  153.5156 H   0  0  0  0  0  0  0  0  0  0  0  0  # atno 10763 bound_to 10752
  152.9961  135.5505  154.6077 H   0  0  0  0  0  0  0  0  0  0  0  0  # atno 10764 bound_to 10752
  154.5545  135.2904  155.0951 H   0  0  0  0  0  0  0  0  0  0  0  0  # atno 10765 bound_to 10752
  140.6142  133.9720  155.8192 H   0  0  0  0  0  0  0  0  0  0  0  0  # atno 11005 bound_to 11000
  146.2853  140.4449  142.8760 LP  0  0  0  0  0  0  0  0  0  0  0  0  # atno 17320 bound_to 7965
  144.8524  140.7021  143.6159 LP  0  0  0  0  0  0  0  0  0  0  0  0  # atno 17321 bound_to 7965
  140.7813  143.4603  151.0287 LP  0  0  0  0  0  0  0  0  0  0  0  0  # atno 17342 bound_to 10162
  139.8287  143.7721  152.3179 LP  0  0  0  0  0  0  0  0  0  0  0  0  # atno 17343 bound_to 10162
  156.5026  130.4120  149.6345 LP  0  0  0  0  0  0  0  0  0  0  0  0  # atno 17370 bound_to 10713
  156.3314  130.7333  151.2263 LP  0  0  0  0  0  0  0  0  0  0  0  0  # atno 17371 bound_to 10713
  141.0787  134.0096  157.3419 LP  0  0  0  0  0  0  0  0  0  0  0  0  # atno 17394 bound_to 11000
  139.9179  135.0198  156.7954 LP  0  0  0  0  0  0  0  0  0  0  0  0  # atno 17395 bound_to 11000

$$$$
