AV-unprocessed.smi:36|AV-procd|sdf|283|dock1
  -GOLD-   2262016 63D 1   1.00000     0.00000
 Structure written by MMmdl.
 64 67  0  0  0  0  0  0  0  0  1 V2000
  145.1003  135.1325  162.3083 C   0  0  0  0  0  0  0  0  0  0  0  0
  146.2238  134.1431  161.9569 C   0  0  0  0  0  0  0  0  0  0  0  0
  147.4693  134.4427  162.8076 C   0  0  0  0  0  0  0  0  0  0  0  0
  145.7529  132.7025  162.2171 C   0  0  0  0  0  0  0  0  0  0  0  0
  146.6731  134.3228  160.1090 Si  0  0  0  0  0  0  0  0  0  0  0  0
  145.1762  133.9315  159.0052 C   0  0  0  0  0  0  0  0  0  0  0  0
  147.3198  136.0661  159.7203 C   0  0  0  0  0  0  0  0  0  0  0  0
  147.9019  133.2118  159.7632 O   0  0  0  0  0  0  0  0  0  0  0  0
  148.2034  132.7516  158.4617 C   0  0  0  0  0  0  0  0  0  0  0  0
  149.0524  133.8077  157.7376 C   0  0  2  0  0  0  0  0  0  0  0  0
  148.2459  134.8487  157.1994 O   0  0  0  0  0  0  0  0  0  0  0  0
  148.9128  135.4678  156.1382 C   0  0  1  0  0  0  0  0  0  0  0  0
  149.3245  136.8367  156.5709 N   0  0  0  0  0  0  0  0  0  0  0  0
  148.9148  137.5647  157.6678 C   0  0  0  0  0  0  0  0  0  0  0  0
  149.4567  138.7475  157.7858 N   0  0  0  0  0  0  0  0  0  0  0  0
  150.3057  138.8402  156.6901 C   0  0  0  0  0  0  0  0  0  0  0  0
  151.1858  139.8439  156.2085 C   0  0  0  0  0  0  0  0  0  0  0  0
  151.3076  141.0166  156.8736 N   0  0  0  0  0  0  0  0  0  0  0  0
  151.7772  141.2347  158.2306 C   0  0  0  0  0  0  0  0  0  0  0  0
  152.0456  140.3024  158.9890 O   0  0  0  0  0  0  0  0  0  0  0  0
  151.8373  142.6642  158.6855 C   0  0  0  0  0  0  0  0  0  0  0  0
  151.5832  143.7093  157.7687 C   0  0  0  0  0  0  0  0  0  0  0  0
  151.6173  145.0527  158.1912 C   0  0  0  0  0  0  0  0  0  0  0  0
  151.8987  145.3623  159.5351 C   0  0  0  0  0  0  0  0  0  0  0  0
  152.1425  144.3274  160.4575 C   0  0  0  0  0  0  0  0  0  0  0  0
  152.1082  142.9836  160.0365 C   0  0  0  0  0  0  0  0  0  0  0  0
  151.8790  139.5739  155.0707 N   0  0  0  0  0  0  0  0  0  0  0  0
  151.7200  138.4026  154.4471 C   0  0  0  0  0  0  0  0  0  0  0  0
  150.9315  137.3789  154.7825 N   0  0  0  0  0  0  0  0  0  0  0  0
  150.2326  137.6447  155.9235 C   0  0  0  0  0  0  0  0  0  0  0  0
  150.1554  134.6271  155.8118 C   0  0  0  0  0  0  0  0  0  0  0  0
  149.8792  133.3261  156.5402 C   0  0  2  0  0  0  0  0  0  0  0  0
  149.1562  132.4344  155.7132 O   0  0  0  0  0  0  0  0  0  0  0  0
  144.8210  135.0574  163.3597 H   0  0  0  0  0  0  0  0  0  0  0  0
  144.2043  134.9427  161.7170 H   0  0  0  0  0  0  0  0  0  0  0  0
  145.4054  136.1625  162.1222 H   0  0  0  0  0  0  0  0  0  0  0  0
  147.8214  135.4628  162.6525 H   0  0  0  0  0  0  0  0  0  0  0  0
  148.2904  133.7699  162.5583 H   0  0  0  0  0  0  0  0  0  0  0  0
  147.2601  134.3270  163.8717 H   0  0  0  0  0  0  0  0  0  0  0  0
  145.5042  132.5502  163.2678 H   0  0  0  0  0  0  0  0  0  0  0  0
  146.5261  131.9796  161.9538 H   0  0  0  0  0  0  0  0  0  0  0  0
  144.8654  132.4615  161.6314 H   0  0  0  0  0  0  0  0  0  0  0  0
  144.3438  134.6049  159.2074 H   0  0  0  0  0  0  0  0  0  0  0  0
  144.8165  132.9150  159.1623 H   0  0  0  0  0  0  0  0  0  0  0  0
  145.4198  134.0309  157.9480 H   0  0  0  0  0  0  0  0  0  0  0  0
  146.5724  136.8287  159.9376 H   0  0  0  0  0  0  0  0  0  0  0  0
  147.5886  136.1660  158.6690 H   0  0  0  0  0  0  0  0  0  0  0  0
  148.2078  136.3047  160.3048 H   0  0  0  0  0  0  0  0  0  0  0  0
  148.7067  131.7849  158.4914 H   0  0  0  0  0  0  0  0  0  0  0  0
  147.2647  132.6010  157.9284 H   0  0  0  0  0  0  0  0  0  0  0  0
  149.7281  134.2684  158.4601 H   0  0  0  0  0  0  0  0  0  0  0  0
  148.2384  135.6180  155.2945 H   0  0  0  0  0  0  0  0  0  0  0  0
  148.1950  137.1942  158.3829 H   0  0  0  0  0  0  0  0  0  0  0  0
  151.0710  141.8470  156.3504 H   0  0  0  0  0  0  0  0  0  0  0  0
  151.3636  143.4884  156.7339 H   0  0  0  0  0  0  0  0  0  0  0  0
  151.4256  145.8456  157.4832 H   0  0  0  0  0  0  0  0  0  0  0  0
  151.9236  146.3924  159.8590 H   0  0  0  0  0  0  0  0  0  0  0  0
  152.3523  144.5637  161.4903 H   0  0  0  0  0  0  0  0  0  0  0  0
  152.2877  142.2054  160.7643 H   0  0  0  0  0  0  0  0  0  0  0  0
  152.3075  138.2670  153.5510 H   0  0  0  0  0  0  0  0  0  0  0  0
  150.2883  134.5183  154.7349 H   0  0  0  0  0  0  0  0  0  0  0  0
  151.0453  135.1042  156.2259 H   0  0  0  0  0  0  0  0  0  0  0  0
  150.7991  132.8335  156.8568 H   0  0  0  0  0  0  0  0  0  0  0  0
  148.9451  132.8787  154.9061 H   0  0  0  0  0  0  0  0  0  0  0  0
  1  2  1  0  0  0  0
  1 34  1  0  0  0  0
  1 35  1  0  0  0  0
  1 36  1  0  0  0  0
  2  3  1  0  0  0  0
  2  4  1  0  0  0  0
  2  5  1  0  0  0  0
  3 37  1  0  0  0  0
  3 38  1  0  0  0  0
  3 39  1  0  0  0  0
  4 40  1  0  0  0  0
  4 41  1  0  0  0  0
  4 42  1  0  0  0  0
  5  6  1  0  0  0  0
  5  7  1  0  0  0  0
  5  8  1  0  0  0  0
  6 43  1  0  0  0  0
  6 44  1  0  0  0  0
  6 45  1  0  0  0  0
  7 46  1  0  0  0  0
  7 47  1  0  0  0  0
  7 48  1  0  0  0  0
  8  9  1  0  0  0  0
  9 10  1  0  0  0  0
  9 49  1  0  0  0  0
  9 50  1  0  0  0  0
 10 32  1  0  0  0  0
 10 11  1  0  0  0  0
 10 51  1  0  0  0  0
 11 12  1  0  0  0  0
 12 13  1  0  0  0  0
 12 31  1  0  0  0  0
 12 52  1  0  0  0  0
 13 30  1  0  0  0  0
 13 14  1  0  0  0  0
 14 15  2  0  0  0  0
 14 53  1  0  0  0  0
 15 16  1  0  0  0  0
 16 30  2  0  0  0  0
 16 17  1  0  0  0  0
 17 18  1  0  0  0  0
 17 27  2  0  0  0  0
 18 19  1  0  0  0  0
 18 54  1  0  0  0  0
 19 20  2  0  0  0  0
 19 21  1  0  0  0  0
 21 26  1  0  0  0  0
 21 22  2  0  0  0  0
 22 23  1  0  0  0  0
 22 55  1  0  0  0  0
 23 24  2  0  0  0  0
 23 56  1  0  0  0  0
 24 25  1  0  0  0  0
 24 57  1  0  0  0  0
 25 26  2  0  0  0  0
 25 58  1  0  0  0  0
 26 59  1  0  0  0  0
 27 28  1  0  0  0  0
 28 29  2  0  0  0  0
 28 60  1  0  0  0  0
 29 30  1  0  0  0  0
 31 32  1  0  0  0  0
 31 61  1  0  0  0  0
 31 62  1  0  0  0  0
 32 33  1  0  0  0  0
 32 63  1  0  0  0  0
 33 64  1  0  0  0  0
M  END
> <s_m_source_file>
AV-unprocessed.smi

> <i_m_source_file_index>
36

> <i_lp_mmshare_version>
43012

> <i_f3d_flags>
0

> <s_epik_input>
W0NIM11DKFtDSDNdKShbQ0gzXSlbU2ldKFtDSDNdKShbQ0gzXSlPW0NIMl1bQ0BASF0xT1tDQEhdKFtDSDJdW0NASF0xW09IXSluKFtjSF1uMiljKGMyMyluW2NIXW5jM1tOSF1DKD1PKWM0W2NIXVtjSF1bY0hdW2NIXVtjSF00

> <s_epik_cmdline>
J2VwaWtfcHl0aG9uJywgJy1waCcsICc3LjAnLCAnLXRuJywgJzgnLCAnLW1hJywgJzIwMCcsICctbWV0YWxfYmluZGluZycsICctaW1hZScsICc8aW5maWxlLm1hZT4nLCAnLW9tYWUnLCAnPG91dGZpbGUubWFlPic=

> <r_lp_tautomer_probability>
1

> <r_epik_Ionization_Penalty>
0.00150433

> <r_epik_Ionization_Penalty_Charging>
0

> <r_epik_Ionization_Penalty_Neutral>
0.00150433

> <r_epik_State_Penalty>
0.00724046

> <r_epik_Charging_Adjusted_Penalty>
0.00724046

> <i_epik_Tot_Q>
0

> <i_epik_Tot_abs_Q>
0

> <r_epik_Metal_State_Penalty>
0.323355

> <b_epik_Metal_Only>
0

> <s_epik_Chemistry_Notes>
This compound contains an acetal/aminal-like group ( X-CH(R)-Y where X, Y are N, S, or O) that may be acid/base labile, releasing an aldehyde.

> <s_lp_Force_Field>
OPLS_2005

> <r_lp_Energy>
37.4738

> <b_lp_Chiralities_Consistent>
1

> <s_lp_Variant>
AV-unprocessed.smi:36-5

> <Gold.Version>
5.8.1

> <Gold.Id.Protein>
6NUR|6NUR_protein|mol2

> <Gold.PLP.Fitness>
49.2715

> <Gold.PLP.PLP>
-49.1055

> <Gold.PLP.part.hbond>
-1.0000

> <Gold.PLP.part.metal>
0.0000

> <Gold.PLP.part.buried>
-9.5719

> <Gold.PLP.part.nonpolar>
-39.2780

> <Gold.PLP.part.repulsive>
0.2921

> <Gold.PLP.ligand.clash>
0.0000

> <Gold.PLP.ligand.torsion>
1.4921

> <Gold.PLP.Chemscore.Hbond>
1.0000

> <Gold.PLP.Chemscore.CHOScore>
0.0000

> <Gold.PLP.Chemscore.Metal>
0.0000

> <Gold.Chemscore.Hbonds>
donor molecule, donor type, donor heavy atom, donor atom, acceptor molecule, acceptor atom, score
      P1  H  7989  7998       L1    27  0.97

> <Gold.PLP.Chemscore.Internal.Correction>
0.1502

> <Gold.Rescore>
     Score         DG    S(hbond)    S(metal)    S(lipo)     H(rot)  DE(clash)    DE(int)     intcor
     14.00     -15.91       0.81        0.00     125.36       2.70       0.33       1.58       ----

> <Gold.Chemscore.Fitness>
14.0014

> <Gold.Chemscore.DG>
-15.9148

> <Gold.Chemscore.ZeroCoef>
-5.4800

> <Gold.Chemscore.Hbond>
0.8054

> <Gold.Chemscore.Metal>
0.0000

> <Gold.Chemscore.Lipo>
125.3617

> <Gold.Chemscore.Internal_Hbond>
0.0000

> <Gold.Chemscore.DEClash>
0.3348

> <Gold.Chemscore.DEInternal>
1.5786

> <Gold.Chemscore.Rot>
2.7041

> <Gold.Chemscore.Internal.Correction>
   9.000000E+99

> <Gold.Chemscore.Hbonds>
donor molecule, donor type, donor heavy atom, donor atom, acceptor molecule, acceptor atom, score
      P1  H  7989  7998       L1    27  0.21

> <Gold.Chemscore.Hbond.Weighted>
-2.6899

> <Gold.Chemscore.Metal.Weighted>
-0.0000

> <Gold.Chemscore.Lipo.Weighted>
-14.6673

> <Gold.Chemscore.Internal_Hbond.Weighted>
0.0000

> <Gold.Chemscore.DEClash.Weighted>
0.3348

> <Gold.Chemscore.DEInternal.Weighted>
1.5786

> <Gold.Chemscore.Rot.Weighted>
6.9225

> <Gold.Chemscore.Internal.Correction.Weighted>
   9.000000E+99

> <Gold.Protein.RotatedTorsions>
[ 6907 6896 6895 6894 ] final -142.06 input  -60.11 | X-H torsion
[ 7974 7965 7964 7962 ] final  107.53 input  175.53 | X-H torsion
[ 8008 7997 7996 7995 ] final  -72.98 input   59.86 | X-H torsion
[ 10167 10162 10161 10158 ] final   26.21 input  -65.29 | X-H torsion
[ 10718 10713 10712 10709 ] final -165.01 input   66.30 | X-H torsion
[ 10763 10752 10751 10750 ] final -114.82 input  -60.55 | X-H torsion
[ 11005 11000 10999 10996 ] final    4.99 input  -57.11 | X-H torsion

> <Gold.Protein.ActiveResidues>
 VAL166  LYS551  ARG553  GLY616  TRP617  ASP618  TYR619  PRO620  LYS621  CYS622 
 ASP623  PHE694  ASN695  SER759  ASP760  ASP761  ALA762  ILE779  LEU786  VAL792 
 PHE793  MET794  SER795  GLU796  ALA797  LYS798  CYS799  TRP800  GLU811  SER814 

> <Gold.Protein.RotatedAtoms>
  151.0821  133.5382  159.2619 H   0  0  0  0  0  0  0  0  0  0  0  0  # atno 6907 bound_to 6896
  151.2281  135.0543  159.8987 H   0  0  0  0  0  0  0  0  0  0  0  0  # atno 6908 bound_to 6896
  152.5425  134.0614  159.8207 H   0  0  0  0  0  0  0  0  0  0  0  0  # atno 6909 bound_to 6896
  145.2924  139.2596  143.3858 H   0  0  0  0  0  0  0  0  0  0  0  0  # atno 7974 bound_to 7965
  154.5210  140.0787  156.8172 H   0  0  0  0  0  0  0  0  0  0  0  0  # atno 8008 bound_to 7997
  155.3576  140.3416  155.4222 H   0  0  0  0  0  0  0  0  0  0  0  0  # atno 8009 bound_to 7997
  156.1681  140.1610  156.8483 H   0  0  0  0  0  0  0  0  0  0  0  0  # atno 8010 bound_to 7997
  140.5042  144.0266  150.6345 H   0  0  0  0  0  0  0  0  0  0  0  0  # atno 10167 bound_to 10162
  156.6472  130.8993  151.3007 H   0  0  0  0  0  0  0  0  0  0  0  0  # atno 10718 bound_to 10713
  154.8456  135.4404  154.1566 H   0  0  0  0  0  0  0  0  0  0  0  0  # atno 10763 bound_to 10752
  153.2713  135.6945  153.7484 H   0  0  0  0  0  0  0  0  0  0  0  0  # atno 10764 bound_to 10752
  153.6723  135.3417  155.3132 H   0  0  0  0  0  0  0  0  0  0  0  0  # atno 10765 bound_to 10752
  140.5758  134.0060  155.8027 H   0  0  0  0  0  0  0  0  0  0  0  0  # atno 11005 bound_to 11000
  146.3180  140.3418  142.8648 LP  0  0  0  0  0  0  0  0  0  0  0  0  # atno 17320 bound_to 7965
  144.9162  140.7815  143.5777 LP  0  0  0  0  0  0  0  0  0  0  0  0  # atno 17321 bound_to 7965
  140.3570  143.2930  152.0425 LP  0  0  0  0  0  0  0  0  0  0  0  0  # atno 17342 bound_to 10162
  139.4879  144.6331  151.7030 LP  0  0  0  0  0  0  0  0  0  0  0  0  # atno 17343 bound_to 10162
  157.7152  130.9489  150.1231 LP  0  0  0  0  0  0  0  0  0  0  0  0  # atno 17370 bound_to 10713
  156.2113  130.3667  149.8667 LP  0  0  0  0  0  0  0  0  0  0  0  0  # atno 17371 bound_to 10713
  141.1028  133.9741  157.3050 LP  0  0  0  0  0  0  0  0  0  0  0  0  # atno 17394 bound_to 11000
  139.9340  135.0198  156.8496 LP  0  0  0  0  0  0  0  0  0  0  0  0  # atno 17395 bound_to 11000

$$$$
