AV-unprocessed.smi:906|AV-procd|sdf|4103|dock9
  -GOLD-   22720 1593D 1   1.00000     0.00000
 Structure written by MMmdl.
 48 49  0  0  0  0  0  0  0  0  2 V2000
  143.9329  144.4631  156.5383 C   0  0  0  0  0  0  0  0  0  0  0  0
  144.7659  143.5828  155.6309 C   0  0  0  0  0  0  0  0  0  0  0  0
  145.2569  144.0354  154.3875 C   0  0  0  0  0  0  0  0  0  0  0  0
  146.0294  143.1628  153.5930 C   0  0  0  0  0  0  0  0  0  0  0  0
  146.2957  141.8564  154.0578 C   0  0  0  0  0  0  0  0  0  0  0  0
  147.1264  140.8948  153.2313 C   0  0  0  0  0  0  0  0  0  0  0  0
  147.5671  139.6655  154.0428 C   0  0  0  0  0  0  0  0  0  0  0  0
  148.4269  140.0399  155.1593 N   0  0  0  0  0  0  0  0  0  0  0  0
  149.7708  140.0497  155.1308 C   0  0  0  0  0  0  0  0  0  0  0  0
  150.4041  139.7470  154.1184 O   0  0  0  0  0  0  0  0  0  0  0  0
  150.3606  140.4516  156.2840 N   0  0  0  0  0  0  0  0  0  0  0  0
  151.6501  141.1439  156.4209 C   0  0  0  0  0  0  0  0  0  0  0  0
  151.3860  142.6014  156.8450 C   0  0  0  0  0  0  0  0  0  0  0  0
  150.6464  142.6349  158.1129 N   0  0  0  0  0  0  0  0  0  0  0  0
  150.5212  144.0064  158.6354 C   0  0  1  0  0  0  0  0  0  0  0  0
  149.2488  144.2399  159.4793 C   0  0  0  0  0  0  0  0  0  0  0  0
  151.8048  144.4654  159.3676 C   0  0  0  0  0  0  0  0  0  0  0  0
  151.5881  145.6184  160.0017 F   0  0  0  0  0  0  0  0  0  0  0  0
  152.1363  143.5505  160.2784 F   0  0  0  0  0  0  0  0  0  0  0  0
  152.8352  144.6148  158.5353 F   0  0  0  0  0  0  0  0  0  0  0  0
  149.3835  141.8912  158.0038 C   0  0  0  0  0  0  0  0  0  0  0  0
  149.6629  140.4387  157.5725 C   0  0  0  0  0  0  0  0  0  0  0  0
  145.7801  141.4593  155.3103 C   0  0  0  0  0  0  0  0  0  0  0  0
  145.0445  142.3250  156.0413 N   0  3  0  0  0  0  0  0  0  0  0  0
  143.4610  145.2671  155.9729 H   0  0  0  0  0  0  0  0  0  0  0  0
  144.5600  144.9089  157.3110 H   0  0  0  0  0  0  0  0  0  0  0  0
  143.1464  143.8845  157.0237 H   0  0  0  0  0  0  0  0  0  0  0  0
  145.0457  145.0380  154.0447 H   0  0  0  0  0  0  0  0  0  0  0  0
  146.4136  143.4953  152.6394 H   0  0  0  0  0  0  0  0  0  0  0  0
  146.5423  140.5872  152.3629 H   0  0  0  0  0  0  0  0  0  0  0  0
  148.0000  141.4198  152.8423 H   0  0  0  0  0  0  0  0  0  0  0  0
  146.6937  139.1509  154.4446 H   0  0  0  0  0  0  0  0  0  0  0  0
  148.0825  138.9476  153.4022 H   0  0  0  0  0  0  0  0  0  0  0  0
  147.9708  140.3096  156.0189 H   0  0  0  0  0  0  0  0  0  0  0  0
  152.2520  140.6367  157.1769 H   0  0  0  0  0  0  0  0  0  0  0  0
  152.2551  141.1344  155.5148 H   0  0  0  0  0  0  0  0  0  0  0  0
  152.3383  143.1203  156.9599 H   0  0  0  0  0  0  0  0  0  0  0  0
  150.8297  143.1179  156.0625 H   0  0  0  0  0  0  0  0  0  0  0  0
  150.4447  144.6520  157.7593 H   0  0  0  0  0  0  0  0  0  0  0  0
  149.1519  145.2940  159.7394 H   0  0  0  0  0  0  0  0  0  0  0  0
  149.2712  143.6817  160.4152 H   0  0  0  0  0  0  0  0  0  0  0  0
  148.3423  143.9620  158.9431 H   0  0  0  0  0  0  0  0  0  0  0  0
  148.8634  141.8765  158.9594 H   0  0  0  0  0  0  0  0  0  0  0  0
  148.7204  142.3665  157.2803 H   0  0  0  0  0  0  0  0  0  0  0  0
  148.7272  139.8791  157.5383 H   0  0  0  0  0  0  0  0  0  0  0  0
  150.2811  139.9345  158.3172 H   0  0  0  0  0  0  0  0  0  0  0  0
  145.9344  140.4831  155.7472 H   0  0  0  0  0  0  0  0  0  0  0  0
  144.6829  142.0153  156.9437 H   0  0  0  0  0  0  0  0  0  0  0  0
  1  2  1  0  0  0  0
  1 25  1  0  0  0  0
  1 26  1  0  0  0  0
  1 27  1  0  0  0  0
  2 24  1  0  0  0  0
  2  3  2  0  0  0  0
  3  4  1  0  0  0  0
  3 28  1  0  0  0  0
  4  5  2  0  0  0  0
  4 29  1  0  0  0  0
  5  6  1  0  0  0  0
  5 23  1  0  0  0  0
  6  7  1  0  0  0  0
  6 30  1  0  0  0  0
  6 31  1  0  0  0  0
  7  8  1  0  0  0  0
  7 32  1  0  0  0  0
  7 33  1  0  0  0  0
  8  9  1  0  0  0  0
  8 34  1  0  0  0  0
  9 10  2  0  0  0  0
  9 11  1  0  0  0  0
 11 22  1  0  0  0  0
 11 12  1  0  0  0  0
 12 13  1  0  0  0  0
 12 35  1  0  0  0  0
 12 36  1  0  0  0  0
 13 14  1  0  0  0  0
 13 37  1  0  0  0  0
 13 38  1  0  0  0  0
 14 15  1  0  0  0  0
 14 21  1  0  0  0  0
 15 16  1  0  0  0  0
 15 17  1  0  0  0  0
 15 39  1  0  0  0  0
 16 40  1  0  0  0  0
 16 41  1  0  0  0  0
 16 42  1  0  0  0  0
 17 18  1  0  0  0  0
 17 19  1  0  0  0  0
 17 20  1  0  0  0  0
 21 22  1  0  0  0  0
 21 43  1  0  0  0  0
 21 44  1  0  0  0  0
 22 45  1  0  0  0  0
 22 46  1  0  0  0  0
 23 24  2  0  0  0  0
 23 47  1  0  0  0  0
 24 48  1  0  0  0  0
M  CHG  1  24   1
M  END
> <s_m_source_file>
AV-unprocessed.smi

> <i_m_source_file_index>
906

> <i_lp_mmshare_version>
43012

> <i_f3d_flags>
0

> <s_epik_input>
W0NIM11jMVtjSF1bY0hdYyhbY0hdbjEpW0NIMl1bQ0gyXVtOSF1DKD1PKU4yW0NIMl1bQ0gyXU4oW0NASF0oW0NIM10pQyhGKShGKUYpW0NIMl1bQ0gyXTI=

> <s_epik_cmdline>
J2VwaWtfcHl0aG9uJywgJy1waCcsICc3LjAnLCAnLXRuJywgJzgnLCAnLW1hJywgJzIwMCcsICctbWV0YWxfYmluZGluZycsICctaW1hZScsICc8aW5maWxlLm1hZT4nLCAnLW9tYWUnLCAnPG91dGZpbGUubWFlPic=

> <r_epik_Ionization_Penalty>
1.4413

> <r_epik_Ionization_Penalty_Charging>
1.42075

> <r_epik_Ionization_Penalty_Neutral>
0.0205507

> <r_epik_State_Penalty>
1.52216

> <r_epik_Charging_Adjusted_Penalty>
2.94291

> <i_epik_Tot_Q>
1

> <i_epik_Tot_abs_Q>
1

> <r_epik_Metal_State_Penalty>
1.57308

> <b_epik_Metal_Only>
0

> <s_lp_Force_Field>
OPLS_2005

> <r_lp_Energy>
53.1846

> <b_lp_Chiralities_Consistent>
1

> <s_lp_Variant>
AV-unprocessed.smi:906-4

> <Gold.Version>
5.8.1

> <Gold.Id.Protein>
6NUR|6NUR_protein|mol2

> <Gold.PLP.Fitness>
45.3640

> <Gold.PLP.PLP>
-45.2282

> <Gold.PLP.part.hbond>
-1.0000

> <Gold.PLP.part.metal>
0.0000

> <Gold.PLP.part.buried>
-8.5033

> <Gold.PLP.part.nonpolar>
-36.1742

> <Gold.PLP.part.repulsive>
0.8202

> <Gold.PLP.ligand.clash>
0.3453

> <Gold.PLP.ligand.torsion>
1.5824

> <Gold.PLP.Chemscore.Hbond>
1.0000

> <Gold.PLP.Chemscore.CHOScore>
0.0000

> <Gold.PLP.Chemscore.Metal>
0.0000

> <Gold.Chemscore.Hbonds>
donor molecule, donor type, donor heavy atom, donor atom, acceptor molecule, acceptor atom, score
      P1  H  7989  7998       L1    10  1.00

> <Gold.PLP.Chemscore.Internal.Correction>
0.6460

> <Gold.Rescore>
     Score         DG    S(hbond)    S(metal)    S(lipo)     H(rot)  DE(clash)    DE(int)     intcor
     11.79     -14.51       0.99        0.00      85.08       1.66       0.02       2.69       ----

> <Gold.Chemscore.Fitness>
11.7930

> <Gold.Chemscore.DG>
-14.5114

> <Gold.Chemscore.ZeroCoef>
-5.4800

> <Gold.Chemscore.Hbond>
0.9922

> <Gold.Chemscore.Metal>
0.0000

> <Gold.Chemscore.Lipo>
85.0849

> <Gold.Chemscore.Internal_Hbond>
0.0000

> <Gold.Chemscore.DEClash>
0.0249

> <Gold.Chemscore.DEInternal>
2.6935

> <Gold.Chemscore.Rot>
1.6553

> <Gold.Chemscore.Internal.Correction>
   9.000000E+99

> <Gold.Chemscore.Hbonds>
donor molecule, donor type, donor heavy atom, donor atom, acceptor molecule, acceptor atom, score
      P1  H  7989  7998       L1    10  0.97

> <Gold.Chemscore.Hbond.Weighted>
-3.3141

> <Gold.Chemscore.Metal.Weighted>
-0.0000

> <Gold.Chemscore.Lipo.Weighted>
-9.9549

> <Gold.Chemscore.Internal_Hbond.Weighted>
0.0000

> <Gold.Chemscore.DEClash.Weighted>
0.0249

> <Gold.Chemscore.DEInternal.Weighted>
2.6935

> <Gold.Chemscore.Rot.Weighted>
4.2376

> <Gold.Chemscore.Internal.Correction.Weighted>
   9.000000E+99

> <Gold.Protein.RotatedTorsions>
[ 6907 6896 6895 6894 ] final  167.57 input  -60.11 | X-H torsion
[ 7974 7965 7964 7962 ] final  -36.93 input  175.53 | X-H torsion
[ 8008 7997 7996 7995 ] final   67.87 input   59.86 | X-H torsion
[ 10167 10162 10161 10158 ] final  116.09 input  -65.29 | X-H torsion
[ 10718 10713 10712 10709 ] final -170.51 input   66.30 | X-H torsion
[ 10763 10752 10751 10750 ] final -127.56 input  -60.55 | X-H torsion
[ 11005 11000 10999 10996 ] final -127.62 input  -57.11 | X-H torsion

> <Gold.Protein.ActiveResidues>
 VAL166  LYS551  ARG553  GLY616  TRP617  ASP618  TYR619  PRO620  LYS621  CYS622 
 ASP623  PHE694  ASN695  SER759  ASP760  ASP761  ALA762  ILE779  LEU786  VAL792 
 PHE793  MET794  SER795  GLU796  ALA797  LYS798  CYS799  TRP800  GLU811  SER814 

> <Gold.Protein.RotatedAtoms>
  151.8612  133.3457  159.3704 H   0  0  0  0  0  0  0  0  0  0  0  0  # atno 6907 bound_to 6896
  150.7178  134.5204  159.5660 H   0  0  0  0  0  0  0  0  0  0  0  0  # atno 6908 bound_to 6896
  152.2718  134.7925  160.0464 H   0  0  0  0  0  0  0  0  0  0  0  0  # atno 6909 bound_to 6896
  146.0619  140.6336  142.8993 H   0  0  0  0  0  0  0  0  0  0  0  0  # atno 7974 bound_to 7965
  155.6995  140.3495  155.4927 H   0  0  0  0  0  0  0  0  0  0  0  0  # atno 8008 bound_to 7997
  155.9453  140.1109  157.1044 H   0  0  0  0  0  0  0  0  0  0  0  0  # atno 8009 bound_to 7997
  154.4111  140.1205  156.4967 H   0  0  0  0  0  0  0  0  0  0  0  0  # atno 8010 bound_to 7997
  139.6271  144.7110  151.2510 H   0  0  0  0  0  0  0  0  0  0  0  0  # atno 10167 bound_to 10162
  156.7273  130.9293  151.3102 H   0  0  0  0  0  0  0  0  0  0  0  0  # atno 10718 bound_to 10713
  154.8753  135.3957  154.3614 H   0  0  0  0  0  0  0  0  0  0  0  0  # atno 10763 bound_to 10752
  153.4386  135.7026  153.6189 H   0  0  0  0  0  0  0  0  0  0  0  0  # atno 10764 bound_to 10752
  153.4779  135.3775  155.2396 H   0  0  0  0  0  0  0  0  0  0  0  0  # atno 10765 bound_to 10752
  140.9584  134.0970  157.3993 H   0  0  0  0  0  0  0  0  0  0  0  0  # atno 11005 bound_to 11000
  144.7180  140.4276  143.7030 LP  0  0  0  0  0  0  0  0  0  0  0  0  # atno 17320 bound_to 7965
  145.6545  139.1570  143.2843 LP  0  0  0  0  0  0  0  0  0  0  0  0  # atno 17321 bound_to 7965
  140.7417  143.6547  150.8217 LP  0  0  0  0  0  0  0  0  0  0  0  0  # atno 17342 bound_to 10162
  140.0167  143.5585  152.2817 LP  0  0  0  0  0  0  0  0  0  0  0  0  # atno 17343 bound_to 10162
  157.6873  130.9199  150.0421 LP  0  0  0  0  0  0  0  0  0  0  0  0  # atno 17370 bound_to 10713
  156.1553  130.3643  149.9378 LP  0  0  0  0  0  0  0  0  0  0  0  0  # atno 17371 bound_to 10713
  139.8870  135.0086  156.6532 LP  0  0  0  0  0  0  0  0  0  0  0  0  # atno 17394 bound_to 11000
  140.7502  133.8903  155.8342 LP  0  0  0  0  0  0  0  0  0  0  0  0  # atno 17395 bound_to 11000

$$$$
