AV-unprocessed.smi:3032|AV-procd|sdf|11561|dock3
  -GOLD-   2272016523D 1   1.00000     0.00000
 Structure written by MMmdl.
 37 38  0  0  0  0  0  0  0  0  1 V2000
  152.5146  144.6685  159.1596 C   0  0  0  0  0  0  0  0  0  0  0  0
  152.2090  143.3567  158.4229 C   0  0  2  0  0  0  0  0  0  0  0  0
  151.3512  143.6006  157.1674 C   0  0  0  0  0  0  0  0  0  0  0  0
  151.0648  142.2912  156.4164 C   0  0  0  0  0  0  0  0  0  0  0  0
  150.4216  141.2333  157.3355 C   0  0  0  0  0  0  0  0  0  0  0  0
  151.2013  140.9973  158.6528 C   0  0  1  0  0  0  0  0  0  0  0  0
  152.4699  140.1397  158.4855 C   0  0  0  0  0  0  0  0  0  0  0  0
  152.8290  139.7351  157.3799 O   0  0  0  0  0  0  0  0  0  0  0  0
  153.1448  139.8679  159.6130 N   0  0  0  0  0  0  0  0  0  0  0  0
  154.4052  139.1349  159.6849 C   0  0  0  0  0  0  0  0  0  0  0  0
  155.4309  139.7761  160.6437 C   0  0  0  0  0  0  0  0  0  0  0  0
  156.7073  140.1869  159.9786 C   0  0  0  0  0  0  0  0  0  0  0  0
  156.9524  139.8746  158.7049 N   0  0  0  0  0  0  0  0  0  0  0  0
  158.1914  140.3803  158.5233 N   0  0  0  0  0  0  0  0  0  0  0  0
  158.5987  140.9380  159.6623 C   0  0  0  0  0  0  0  0  0  0  0  0
  157.7062  140.8506  160.6388 N   0  0  0  0  0  0  0  0  0  0  0  0
  151.5081  142.3425  159.3498 C   0  0  0  0  0  0  0  0  0  0  0  0
  151.6007  145.1500  159.5089 H   0  0  0  0  0  0  0  0  0  0  0  0
  153.0346  145.3718  158.5087 H   0  0  0  0  0  0  0  0  0  0  0  0
  153.1513  144.4918  160.0270 H   0  0  0  0  0  0  0  0  0  0  0  0
  153.1640  142.9354  158.1063 H   0  0  0  0  0  0  0  0  0  0  0  0
  150.4080  144.0700  157.4504 H   0  0  0  0  0  0  0  0  0  0  0  0
  151.8553  144.2998  156.4994 H   0  0  0  0  0  0  0  0  0  0  0  0
  150.4053  142.4903  155.5712 H   0  0  0  0  0  0  0  0  0  0  0  0
  151.9911  141.9111  155.9865 H   0  0  0  0  0  0  0  0  0  0  0  0
  149.4105  141.5578  157.5846 H   0  0  0  0  0  0  0  0  0  0  0  0
  150.3041  140.2955  156.7908 H   0  0  0  0  0  0  0  0  0  0  0  0
  150.5431  140.4283  159.3117 H   0  0  0  0  0  0  0  0  0  0  0  0
  152.7797  140.2309  160.4816 H   0  0  0  0  0  0  0  0  0  0  0  0
  154.1709  138.1288  160.0332 H   0  0  0  0  0  0  0  0  0  0  0  0
  154.8336  139.0234  158.6878 H   0  0  0  0  0  0  0  0  0  0  0  0
  154.9856  140.6453  161.1287 H   0  0  0  0  0  0  0  0  0  0  0  0
  155.6691  139.0763  161.4459 H   0  0  0  0  0  0  0  0  0  0  0  0
  159.5618  141.4122  159.7806 H   0  0  0  0  0  0  0  0  0  0  0  0
  152.1164  142.1736  160.2394 H   0  0  0  0  0  0  0  0  0  0  0  0
  150.5733  142.7727  159.7122 H   0  0  0  0  0  0  0  0  0  0  0  0
  158.6929  140.3197  157.6487 H   0  0  0  0  0  0  0  0  0  0  0  0
  1  2  1  0  0  0  0
  1 18  1  0  0  0  0
  1 19  1  0  0  0  0
  1 20  1  0  0  0  0
  2 17  1  0  0  0  0
  2  3  1  0  0  0  0
  2 21  1  0  0  0  0
  3  4  1  0  0  0  0
  3 22  1  0  0  0  0
  3 23  1  0  0  0  0
  4  5  1  0  0  0  0
  4 24  1  0  0  0  0
  4 25  1  0  0  0  0
  5  6  1  0  0  0  0
  5 26  1  0  0  0  0
  5 27  1  0  0  0  0
  6  7  1  0  0  0  0
  6 17  1  0  0  0  0
  6 28  1  0  0  0  0
  7  8  2  0  0  0  0
  7  9  1  0  0  0  0
  9 10  1  0  0  0  0
  9 29  1  0  0  0  0
 10 11  1  0  0  0  0
 10 30  1  0  0  0  0
 10 31  1  0  0  0  0
 11 32  1  0  0  0  0
 11 33  1  0  0  0  0
 11 12  1  0  0  0  0
 12 16  1  0  0  0  0
 12 13  2  0  0  0  0
 13 14  1  0  0  0  0
 14 15  1  0  0  0  0
 14 37  1  0  0  0  0
 15 16  2  0  0  0  0
 15 34  1  0  0  0  0
 17 35  1  0  0  0  0
 17 36  1  0  0  0  0
M  END
> <s_m_source_file>
AV-unprocessed.smi

> <i_m_source_file_index>
3032

> <i_lp_mmshare_version>
43012

> <i_f3d_flags>
0

> <s_epik_input>
W0NIM11bQ0BASF0xW0NIMl1bQ0gyXVtDSDJdW0NASF0oW0NIMl0xKUMoPU8pW05IXVtDSDJdW0NIMl1jMm5uW2NIXVtuSF0y

> <s_epik_cmdline>
J2VwaWtfcHl0aG9uJywgJy1waCcsICc3LjAnLCAnLXRuJywgJzgnLCAnLW1hJywgJzIwMCcsICctbWV0YWxfYmluZGluZycsICctaW1hZScsICc8aW5maWxlLm1hZT4nLCAnLW9tYWUnLCAnPG91dGZpbGUubWFlPic=

> <r_epik_Ionization_Penalty>
0.000752022

> <r_epik_Ionization_Penalty_Charging>
0

> <r_epik_Ionization_Penalty_Neutral>
0.000752022

> <r_epik_State_Penalty>
0.639926

> <r_epik_Charging_Adjusted_Penalty>
0.639926

> <i_epik_Tot_Q>
0

> <i_epik_Tot_abs_Q>
0

> <r_epik_Metal_State_Penalty>
0.76532

> <b_epik_Metal_Only>
0

> <s_lp_Force_Field>
OPLS_2005

> <r_lp_Energy>
7.11884

> <b_lp_Chiralities_Consistent>
1

> <s_lp_Variant>
AV-unprocessed.smi:3032-5

> <Gold.Version>
5.8.1

> <Gold.Id.Protein>
6NUR|6NUR_protein|mol2

> <Gold.PLP.Fitness>
35.6681

> <Gold.PLP.PLP>
-30.6820

> <Gold.PLP.part.hbond>
-4.0000

> <Gold.PLP.part.metal>
0.0000

> <Gold.PLP.part.buried>
-3.0383

> <Gold.PLP.part.nonpolar>
-23.1657

> <Gold.PLP.part.repulsive>
0.2856

> <Gold.PLP.ligand.clash>
0.0000

> <Gold.PLP.ligand.torsion>
0.5359

> <Gold.PLP.Chemscore.Hbond>
2.0000

> <Gold.PLP.Chemscore.CHOScore>
0.0000

> <Gold.PLP.Chemscore.Metal>
0.0000

> <Gold.Chemscore.Hbonds>
donor molecule, donor type, donor heavy atom, donor atom, acceptor molecule, acceptor atom, score
      P1  H  7997  8009       L1    13  1.00
      P1  H  7997  8010       L1     8  0.99

> <Gold.PLP.Chemscore.Internal.Correction>
0.0578

> <Gold.Rescore>
     Score         DG    S(hbond)    S(metal)    S(lipo)     H(rot)  DE(clash)    DE(int)     intcor
     12.28     -15.10       1.92        0.00      76.61       2.25       1.98       0.84       ----

> <Gold.Chemscore.Fitness>
12.2784

> <Gold.Chemscore.DG>
-15.1008

> <Gold.Chemscore.ZeroCoef>
-5.4800

> <Gold.Chemscore.Hbond>
1.9215

> <Gold.Chemscore.Metal>
0.0000

> <Gold.Chemscore.Lipo>
76.6086

> <Gold.Chemscore.Internal_Hbond>
0.0000

> <Gold.Chemscore.DEClash>
1.9822

> <Gold.Chemscore.DEInternal>
0.8401

> <Gold.Chemscore.Rot>
2.2501

> <Gold.Chemscore.Internal.Correction>
   9.000000E+99

> <Gold.Chemscore.Hbonds>
donor molecule, donor type, donor heavy atom, donor atom, acceptor molecule, acceptor atom, score
      P1  H  7997  8009       L1    13  0.78
      P1  H  7997  8010       L1     8  0.94

> <Gold.Chemscore.Hbond.Weighted>
-6.4179

> <Gold.Chemscore.Metal.Weighted>
-0.0000

> <Gold.Chemscore.Lipo.Weighted>
-8.9632

> <Gold.Chemscore.Internal_Hbond.Weighted>
0.0000

> <Gold.Chemscore.DEClash.Weighted>
1.9822

> <Gold.Chemscore.DEInternal.Weighted>
0.8401

> <Gold.Chemscore.Rot.Weighted>
5.7603

> <Gold.Chemscore.Internal.Correction.Weighted>
   9.000000E+99

> <Gold.Protein.RotatedTorsions>
[ 6907 6896 6895 6894 ] final   29.19 input  -60.11 | X-H torsion
[ 7974 7965 7964 7962 ] final -114.70 input  175.53 | X-H torsion
[ 8008 7997 7996 7995 ] final   71.57 input   59.86 | X-H torsion
[ 10167 10162 10161 10158 ] final -104.34 input  -65.29 | X-H torsion
[ 10718 10713 10712 10709 ] final -122.13 input   66.30 | X-H torsion
[ 10763 10752 10751 10750 ] final  142.96 input  -60.55 | X-H torsion
[ 11005 11000 10999 10996 ] final   18.83 input  -57.11 | X-H torsion

> <Gold.Protein.ActiveResidues>
 VAL166  LYS551  ARG553  GLY616  TRP617  ASP618  TYR619  PRO620  LYS621  CYS622 
 ASP623  PHE694  ASN695  SER759  ASP760  ASP761  ALA762  ILE779  LEU786  VAL792 
 PHE793  MET794  SER795  GLU796  ALA797  LYS798  CYS799  TRP800  GLU811  SER814 

> <Gold.Protein.RotatedAtoms>
  152.0280  134.9784  160.0571 H   0  0  0  0  0  0  0  0  0  0  0  0  # atno 6907 bound_to 6896
  152.1272  133.4382  159.4712 H   0  0  0  0  0  0  0  0  0  0  0  0  # atno 6908 bound_to 6896
  150.6853  134.2382  159.4505 H   0  0  0  0  0  0  0  0  0  0  0  0  # atno 6909 bound_to 6896
  145.1171  140.8646  143.3836 H   0  0  0  0  0  0  0  0  0  0  0  0  # atno 7974 bound_to 7965
  155.7559  140.3487  155.5173 H   0  0  0  0  0  0  0  0  0  0  0  0  # atno 8008 bound_to 7997
  155.8960  140.1026  157.1405 H   0  0  0  0  0  0  0  0  0  0  0  0  # atno 8009 bound_to 7997
  154.4038  140.1295  156.4363 H   0  0  0  0  0  0  0  0  0  0  0  0  # atno 8010 bound_to 7997
  140.2103  143.3751  152.1056 H   0  0  0  0  0  0  0  0  0  0  0  0  # atno 10167 bound_to 10162
  156.1393  130.6454  150.9746 H   0  0  0  0  0  0  0  0  0  0  0  0  # atno 10718 bound_to 10713
  153.9644  135.2957  155.3431 H   0  0  0  0  0  0  0  0  0  0  0  0  # atno 10763 bound_to 10752
  154.7357  135.5048  153.9040 H   0  0  0  0  0  0  0  0  0  0  0  0  # atno 10764 bound_to 10752
  153.0930  135.6713  153.9927 H   0  0  0  0  0  0  0  0  0  0  0  0  # atno 10765 bound_to 10752
  140.4205  134.1524  155.7672 H   0  0  0  0  0  0  0  0  0  0  0  0  # atno 11005 bound_to 11000
  145.0782  139.2979  143.5797 LP  0  0  0  0  0  0  0  0  0  0  0  0  # atno 17320 bound_to 7965
  146.3523  140.0280  142.8653 LP  0  0  0  0  0  0  0  0  0  0  0  0  # atno 17321 bound_to 7965
  139.5182  144.7003  151.5512 LP  0  0  0  0  0  0  0  0  0  0  0  0  # atno 17342 bound_to 10162
  140.6328  143.9043  150.6620 LP  0  0  0  0  0  0  0  0  0  0  0  0  # atno 17343 bound_to 10162
  157.6561  131.0889  150.7943 LP  0  0  0  0  0  0  0  0  0  0  0  0  # atno 17370 bound_to 10713
  156.8020  130.4924  149.5368 LP  0  0  0  0  0  0  0  0  0  0  0  0  # atno 17371 bound_to 10713
  141.1786  133.8462  157.1337 LP  0  0  0  0  0  0  0  0  0  0  0  0  # atno 17394 bound_to 11000
  140.0203  134.9948  157.0579 LP  0  0  0  0  0  0  0  0  0  0  0  0  # atno 17395 bound_to 11000

$$$$
