AV-unprocessed.smi:3029|AV-procd|sdf|11529|dock8
  -GOLD-   2272016473D 1   1.00000     0.00000
 Structure written by MMmdl.
 41 42  0  0  0  0  0  0  0  0  3 V2000
  146.6866  140.6260  154.8743 O   0  0  0  0  0  0  0  0  0  0  0  0
  147.8276  140.1790  154.7575 C   0  0  0  0  0  0  0  0  0  0  0  0
  149.0109  140.9611  155.1307 C   0  0  0  0  0  0  0  0  0  0  0  0
  150.2565  140.4602  155.0147 C   0  0  0  0  0  0  0  0  0  0  0  0
  150.4647  139.1151  154.5144 C   0  0  0  0  0  0  0  0  0  0  0  0
  151.7965  138.5624  154.4006 N   0  3  0  0  0  0  0  0  0  0  0  0
  152.7461  139.1999  154.8459 O   0  0  0  0  0  0  0  0  0  0  0  0
  151.9356  137.4695  153.8606 O   0  5  0  0  0  0  0  0  0  0  0  0
  149.3764  138.4009  154.1657 C   0  0  0  0  0  0  0  0  0  0  0  0
  148.0732  138.9236  154.2739 N   0  0  0  0  0  0  0  0  0  0  0  0
  146.9680  138.0491  153.8621 C   0  0  0  0  0  0  0  0  0  0  0  0
  146.5599  138.3183  152.4058 C   0  0  0  0  0  0  0  0  0  0  0  0
  145.1870  137.8857  152.1988 N   0  0  0  0  0  0  0  0  0  0  0  0
  145.1159  136.4483  151.9646 C   0  0  2  0  0  0  0  0  0  0  0  0
  145.7904  136.1961  150.6003 C   0  0  0  0  0  0  0  0  0  0  0  0
  145.7008  134.7237  150.1824 C   0  0  0  0  0  0  0  0  0  0  0  0
  144.2402  134.2615  150.1517 C   0  0  0  0  0  0  0  0  0  0  0  0
  143.5687  134.4843  151.5141 C   0  0  0  0  0  0  0  0  0  0  0  0
  143.6382  135.9589  151.9788 C   0  0  1  0  0  0  0  0  0  0  0  0
  142.9467  136.1156  153.3577 C   0  0  0  0  0  0  0  0  0  0  0  0
  143.6104  135.4380  154.2950 F   0  0  0  0  0  0  0  0  0  0  0  0
  142.8711  137.3950  153.7238 F   0  0  0  0  0  0  0  0  0  0  0  0
  141.6999  135.6471  153.2965 F   0  0  0  0  0  0  0  0  0  0  0  0
  148.8787  141.9650  155.5068 H   0  0  0  0  0  0  0  0  0  0  0  0
  151.0970  141.0752  155.3012 H   0  0  0  0  0  0  0  0  0  0  0  0
  149.4235  137.3893  153.7886 H   0  0  0  0  0  0  0  0  0  0  0  0
  147.2468  137.0007  153.9863 H   0  0  0  0  0  0  0  0  0  0  0  0
  146.1089  138.1933  154.5197 H   0  0  0  0  0  0  0  0  0  0  0  0
  146.6466  139.3815  152.1779 H   0  0  0  0  0  0  0  0  0  0  0  0
  147.2210  137.7815  151.7243 H   0  0  0  0  0  0  0  0  0  0  0  0
  144.7927  138.3795  151.4109 H   0  0  0  0  0  0  0  0  0  0  0  0
  145.6756  135.9031  152.7270 H   0  0  0  0  0  0  0  0  0  0  0  0
  145.3201  136.8118  149.8315 H   0  0  0  0  0  0  0  0  0  0  0  0
  146.8380  136.4983  150.6388 H   0  0  0  0  0  0  0  0  0  0  0  0
  146.1559  134.5866  149.2011 H   0  0  0  0  0  0  0  0  0  0  0  0
  146.2699  134.1066  150.8789 H   0  0  0  0  0  0  0  0  0  0  0  0
  143.6963  134.8061  149.3788 H   0  0  0  0  0  0  0  0  0  0  0  0
  144.1900  133.2065  149.8808 H   0  0  0  0  0  0  0  0  0  0  0  0
  142.5302  134.1586  151.4511 H   0  0  0  0  0  0  0  0  0  0  0  0
  144.0447  133.8433  152.2571 H   0  0  0  0  0  0  0  0  0  0  0  0
  143.0758  136.5533  151.2565 H   0  0  0  0  0  0  0  0  0  0  0  0
  1  2  2  0  0  0  0
  2 10  1  0  0  0  0
  2  3  1  0  0  0  0
  3  4  2  0  0  0  0
  3 24  1  0  0  0  0
  4  5  1  0  0  0  0
  4 25  1  0  0  0  0
  5  6  1  0  0  0  0
  5  9  2  0  0  0  0
  6  7  2  0  0  0  0
  6  8  1  0  0  0  0
  9 10  1  0  0  0  0
  9 26  1  0  0  0  0
 10 11  1  0  0  0  0
 11 12  1  0  0  0  0
 11 27  1  0  0  0  0
 11 28  1  0  0  0  0
 12 13  1  0  0  0  0
 12 29  1  0  0  0  0
 12 30  1  0  0  0  0
 13 14  1  0  0  0  0
 13 31  1  0  0  0  0
 14 19  1  0  0  0  0
 14 15  1  0  0  0  0
 14 32  1  0  0  0  0
 15 16  1  0  0  0  0
 15 33  1  0  0  0  0
 15 34  1  0  0  0  0
 16 17  1  0  0  0  0
 16 35  1  0  0  0  0
 16 36  1  0  0  0  0
 17 18  1  0  0  0  0
 17 37  1  0  0  0  0
 17 38  1  0  0  0  0
 18 19  1  0  0  0  0
 18 39  1  0  0  0  0
 18 40  1  0  0  0  0
 19 20  1  0  0  0  0
 19 41  1  0  0  0  0
 20 21  1  0  0  0  0
 20 22  1  0  0  0  0
 20 23  1  0  0  0  0
M  CHG  1   6   1
M  CHG  1   8  -1
M  END
> <s_m_source_file>
AV-unprocessed.smi

> <i_m_source_file_index>
3029

> <i_lp_mmshare_version>
43012

> <i_f3d_flags>
0

> <s_epik_input>
Tz1jMVtjSF1bY0hdYyhbTitdKD1PKVtPLV0pW2NIXW4xW0NIMl1bQ0gyXVtOSF1bQ0BASF0yW0NIMl1bQ0gyXVtDSDJdW0NIMl1bQ0BIXTJDKEYpKEYpRg==

> <s_epik_cmdline>
J2VwaWtfcHl0aG9uJywgJy1waCcsICc3LjAnLCAnLXRuJywgJzgnLCAnLW1hJywgJzIwMCcsICctbWV0YWxfYmluZGluZycsICctaW1hZScsICc8aW5maWxlLm1hZT4nLCAnLW9tYWUnLCAnPG91dGZpbGUubWFlPic=

> <r_lp_tautomer_probability>
1

> <r_epik_Ionization_Penalty>
1.65565

> <r_epik_Ionization_Penalty_Charging>
3.32684e-10

> <r_epik_Ionization_Penalty_Neutral>
1.65565

> <r_epik_State_Penalty>
1.75811

> <r_epik_Charging_Adjusted_Penalty>
1.75811

> <i_epik_Tot_Q>
0

> <i_epik_Tot_abs_Q>
2

> <r_epik_Metal_State_Penalty>
1.75811

> <b_epik_Metal_Only>
0

> <s_lp_Force_Field>
OPLS_2005

> <r_lp_Energy>
33.0444

> <b_lp_Chiralities_Consistent>
1

> <s_lp_Variant>
AV-unprocessed.smi:3029-5

> <Gold.Version>
5.8.1

> <Gold.Id.Protein>
6NUR|6NUR_protein|mol2

> <Gold.PLP.Fitness>
49.9596

> <Gold.PLP.PLP>
-41.1770

> <Gold.PLP.part.hbond>
-4.3171

> <Gold.PLP.part.metal>
0.0000

> <Gold.PLP.part.buried>
-2.7591

> <Gold.PLP.part.nonpolar>
-34.5017

> <Gold.PLP.part.repulsive>
0.3226

> <Gold.PLP.ligand.clash>
0.0000

> <Gold.PLP.ligand.torsion>
0.6670

> <Gold.PLP.Chemscore.Hbond>
2.3683

> <Gold.PLP.Chemscore.CHOScore>
0.9900

> <Gold.PLP.Chemscore.Metal>
0.0000

> <Gold.Chemscore.Hbonds>
donor molecule, donor type, donor heavy atom, donor atom, acceptor molecule, acceptor atom, score
      L1  H    13    31       P1 10171  1.00
      P1  H  7997  8008       L1     7  0.49
      P1  H 10752 10765       L1     8  0.81
      L1  C     9    26       P1  7948  1.00

> <Gold.PLP.Chemscore.Internal.Correction>
0.0417

> <Gold.Rescore>
     Score         DG    S(hbond)    S(metal)    S(lipo)     H(rot)  DE(clash)    DE(int)     intcor
     15.17     -17.95       2.60        0.00      73.13       1.86       0.67       2.10       ----

> <Gold.Chemscore.Fitness>
15.1738

> <Gold.Chemscore.DG>
-17.9465

> <Gold.Chemscore.ZeroCoef>
-5.4800

> <Gold.Chemscore.Hbond>
2.5952

> <Gold.Chemscore.Metal>
0.0000

> <Gold.Chemscore.Lipo>
73.1295

> <Gold.Chemscore.Internal_Hbond>
0.0000

> <Gold.Chemscore.DEClash>
0.6722

> <Gold.Chemscore.DEInternal>
2.1005

> <Gold.Chemscore.Rot>
1.8584

> <Gold.Chemscore.Internal.Correction>
   9.000000E+99

> <Gold.Chemscore.Hbonds>
donor molecule, donor type, donor heavy atom, donor atom, acceptor molecule, acceptor atom, score
      L1  H    13    31       P1 10171  0.99
      P1  H  7997  8008       L1     7  0.48
      P1  H 10752 10765       L1     8  0.77

> <Gold.Chemscore.Hbond.Weighted>
-8.6680

> <Gold.Chemscore.Metal.Weighted>
-0.0000

> <Gold.Chemscore.Lipo.Weighted>
-8.5561

> <Gold.Chemscore.Internal_Hbond.Weighted>
0.0000

> <Gold.Chemscore.DEClash.Weighted>
0.6722

> <Gold.Chemscore.DEInternal.Weighted>
2.1005

> <Gold.Chemscore.Rot.Weighted>
4.7576

> <Gold.Chemscore.Internal.Correction.Weighted>
   9.000000E+99

> <Gold.Protein.RotatedTorsions>
[ 6907 6896 6895 6894 ] final  -51.17 input  -60.11 | X-H torsion
[ 7974 7965 7964 7962 ] final -112.12 input  175.53 | X-H torsion
[ 8008 7997 7996 7995 ] final  -21.43 input   59.86 | X-H torsion
[ 10167 10162 10161 10158 ] final   25.23 input  -65.29 | X-H torsion
[ 10718 10713 10712 10709 ] final  -29.43 input   66.30 | X-H torsion
[ 10763 10752 10751 10750 ] final  159.06 input  -60.55 | X-H torsion
[ 11005 11000 10999 10996 ] final  -49.63 input  -57.11 | X-H torsion

> <Gold.Protein.ActiveResidues>
 VAL166  LYS551  ARG553  GLY616  TRP617  ASP618  TYR619  PRO620  LYS621  CYS622 
 ASP623  PHE694  ASN695  SER759  ASP760  ASP761  ALA762  ILE779  LEU786  VAL792 
 PHE793  MET794  SER795  GLU796  ALA797  LYS798  CYS799  TRP800  GLU811  SER814 

> <Gold.Protein.RotatedAtoms>
  150.8637  134.7995  159.7101 H   0  0  0  0  0  0  0  0  0  0  0  0  # atno 6907 bound_to 6896
  152.4665  134.5059  159.9749 H   0  0  0  0  0  0  0  0  0  0  0  0  # atno 6908 bound_to 6896
  151.5159  133.3437  159.2928 H   0  0  0  0  0  0  0  0  0  0  0  0  # atno 6909 bound_to 6896
  145.1478  140.8813  143.3664 H   0  0  0  0  0  0  0  0  0  0  0  0  # atno 7974 bound_to 7965
  154.4706  140.2035  156.0004 H   0  0  0  0  0  0  0  0  0  0  0  0  # atno 8008 bound_to 7997
  156.1004  140.3244  155.7905 H   0  0  0  0  0  0  0  0  0  0  0  0  # atno 8009 bound_to 7997
  155.4806  140.0538  157.2958 H   0  0  0  0  0  0  0  0  0  0  0  0  # atno 8010 bound_to 7997
  140.5123  144.0140  150.6378 H   0  0  0  0  0  0  0  0  0  0  0  0  # atno 10167 bound_to 10162
  156.4126  130.4411  149.7241 H   0  0  0  0  0  0  0  0  0  0  0  0  # atno 10718 bound_to 10713
  154.2259  135.2780  155.2908 H   0  0  0  0  0  0  0  0  0  0  0  0  # atno 10763 bound_to 10752
  154.5664  135.5632  153.7057 H   0  0  0  0  0  0  0  0  0  0  0  0  # atno 10764 bound_to 10752
  153.0031  135.6310  154.2400 H   0  0  0  0  0  0  0  0  0  0  0  0  # atno 10765 bound_to 10752
  141.0770  133.6663  156.3613 H   0  0  0  0  0  0  0  0  0  0  0  0  # atno 11005 bound_to 11000
  145.0463  139.3218  143.5951 LP  0  0  0  0  0  0  0  0  0  0  0  0  # atno 17320 bound_to 7965
  146.3498  139.9855  142.8691 LP  0  0  0  0  0  0  0  0  0  0  0  0  # atno 17321 bound_to 7965
  140.3466  143.2988  152.0532 LP  0  0  0  0  0  0  0  0  0  0  0  0  # atno 17342 bound_to 10162
  139.4899  144.6404  151.6888 LP  0  0  0  0  0  0  0  0  0  0  0  0  # atno 17343 bound_to 10162
  156.4214  130.7770  151.2788 LP  0  0  0  0  0  0  0  0  0  0  0  0  # atno 17370 bound_to 10713
  157.7507  131.0181  150.3614 LP  0  0  0  0  0  0  0  0  0  0  0  0  # atno 17371 bound_to 10713
  140.5552  134.5989  157.5418 LP  0  0  0  0  0  0  0  0  0  0  0  0  # atno 17394 bound_to 11000
  139.9582  134.7497  156.0294 LP  0  0  0  0  0  0  0  0  0  0  0  0  # atno 17395 bound_to 11000

$$$$
