AV-unprocessed.smi:2591|AV-procd|sdf|10156|dock3
  -GOLD-   2272014163D 1   1.00000     0.00000
 Structure written by MMmdl.
 35 36  0  0  0  0  0  0  0  0  2 V2000
  147.5504  141.3196  153.5255 C   0  0  0  0  0  0  0  0  0  0  0  0
  148.6302  140.3263  153.7079 N   0  3  2  0  0  0  0  0  0  0  0  0
  148.1187  138.9444  153.8467 C   0  0  0  0  0  0  0  0  0  0  0  0
  149.2881  137.9568  153.9861 C   0  0  0  0  0  0  0  0  0  0  0  0
  150.0963  138.3270  155.0965 O   0  0  0  0  0  0  0  0  0  0  0  0
  150.6710  139.6235  154.9478 C   0  0  2  0  0  0  0  0  0  0  0  0
  151.6010  139.8753  156.1431 C   0  0  0  0  0  0  0  0  0  0  0  0
  152.6655  139.2632  156.2405 O   0  0  0  0  0  0  0  0  0  0  0  0
  151.1537  140.7718  157.0431 N   0  0  0  0  0  0  0  0  0  0  0  0
  151.7846  141.2121  158.2369 C   0  0  0  0  0  0  0  0  0  0  0  0
  151.4129  142.5052  158.6675 C   0  0  0  0  0  0  0  0  0  0  0  0
  151.9818  143.0414  159.8432 C   0  0  0  0  0  0  0  0  0  0  0  0
  151.5894  144.4241  160.3410 C   0  0  0  0  0  0  0  0  0  0  0  0
  150.2630  144.5547  160.3812 F   0  0  0  0  0  0  0  0  0  0  0  0
  152.0689  144.6423  161.5660 F   0  0  0  0  0  0  0  0  0  0  0  0
  152.0872  145.3437  159.5153 F   0  0  0  0  0  0  0  0  0  0  0  0
  152.9073  142.2533  160.5565 C   0  0  0  0  0  0  0  0  0  0  0  0
  153.2234  140.9770  160.0572 C   0  0  0  0  0  0  0  0  0  0  0  0
  152.6809  140.4691  158.9314 N   0  0  0  0  0  0  0  0  0  0  0  0
  149.5363  140.6682  154.8281 C   0  0  0  0  0  0  0  0  0  0  0  0
  146.9043  141.3622  154.4033 H   0  0  0  0  0  0  0  0  0  0  0  0
  146.9366  141.0664  152.6605 H   0  0  0  0  0  0  0  0  0  0  0  0
  147.9670  142.3135  153.3588 H   0  0  0  0  0  0  0  0  0  0  0  0
  147.4687  138.8795  154.7209 H   0  0  0  0  0  0  0  0  0  0  0  0
  147.5144  138.6845  152.9766 H   0  0  0  0  0  0  0  0  0  0  0  0
  148.9099  136.9472  154.1468 H   0  0  0  0  0  0  0  0  0  0  0  0
  149.8888  137.9308  153.0756 H   0  0  0  0  0  0  0  0  0  0  0  0
  151.2841  139.6431  154.0447 H   0  0  0  0  0  0  0  0  0  0  0  0
  150.2553  141.1890  156.8487 H   0  0  0  0  0  0  0  0  0  0  0  0
  150.6929  143.0807  158.1038 H   0  0  0  0  0  0  0  0  0  0  0  0
  153.3647  142.6126  161.4664 H   0  0  0  0  0  0  0  0  0  0  0  0
  153.9291  140.3453  160.5762 H   0  0  0  0  0  0  0  0  0  0  0  0
  149.9556  141.6614  154.6592 H   0  0  0  0  0  0  0  0  0  0  0  0
  148.9598  140.7145  155.7543 H   0  0  0  0  0  0  0  0  0  0  0  0
  149.1877  140.3464  152.8657 H   0  0  0  0  0  0  0  0  0  0  0  0
  1  2  1  0  0  0  0
  1 21  1  0  0  0  0
  1 22  1  0  0  0  0
  1 23  1  0  0  0  0
  2 20  1  0  0  0  0
  2  3  1  0  0  0  0
  2 35  1  0  0  0  0
  3  4  1  0  0  0  0
  3 24  1  0  0  0  0
  3 25  1  0  0  0  0
  4  5  1  0  0  0  0
  4 26  1  0  0  0  0
  4 27  1  0  0  0  0
  5  6  1  0  0  0  0
  6  7  1  0  0  0  0
  6 20  1  0  0  0  0
  6 28  1  0  0  0  0
  7  8  2  0  0  0  0
  7  9  1  0  0  0  0
  9 10  1  0  0  0  0
  9 29  1  0  0  0  0
 10 19  1  0  0  0  0
 10 11  2  0  0  0  0
 11 12  1  0  0  0  0
 11 30  1  0  0  0  0
 12 13  1  0  0  0  0
 12 17  2  0  0  0  0
 13 14  1  0  0  0  0
 13 15  1  0  0  0  0
 13 16  1  0  0  0  0
 17 18  1  0  0  0  0
 17 31  1  0  0  0  0
 18 19  2  0  0  0  0
 18 32  1  0  0  0  0
 20 33  1  0  0  0  0
 20 34  1  0  0  0  0
M  CHG  1   2   1
M  END
> <s_m_source_file>
AV-unprocessed.smi

> <i_m_source_file_index>
2591

> <i_lp_mmshare_version>
43012

> <i_f3d_flags>
0

> <s_epik_input>
W0NIM11OMVtDSDJdW0NIMl1PW0NASF0oW0NIMl0xKUMoPU8pW05IXWMyW2NIXWMoQyhGKShGKUYpW2NIXVtjSF1uMg==

> <s_epik_cmdline>
J2VwaWtfcHl0aG9uJywgJy1waCcsICc3LjAnLCAnLXRuJywgJzgnLCAnLW1hJywgJzIwMCcsICctbWV0YWxfYmluZGluZycsICctaW1hZScsICc8aW5maWxlLm1hZT4nLCAnLW9tYWUnLCAnPG91dGZpbGUubWFlPic=

> <r_epik_Ionization_Penalty>
0.314028

> <r_epik_Ionization_Penalty_Charging>
0.314023

> <r_epik_Ionization_Penalty_Neutral>
5.2303e-06

> <r_epik_State_Penalty>
0.308208

> <r_epik_Charging_Adjusted_Penalty>
0.62223

> <i_epik_Tot_Q>
1

> <i_epik_Tot_abs_Q>
1

> <r_epik_Metal_State_Penalty>
0.308209

> <b_epik_Metal_Only>
0

> <s_lp_Force_Field>
OPLS_2005

> <r_lp_Energy>
17.9232

> <b_lp_Chiralities_Consistent>
1

> <s_lp_Variant>
AV-unprocessed.smi:2591-4

> <Gold.Version>
5.8.1

> <Gold.Id.Protein>
6NUR|6NUR_protein|mol2

> <Gold.PLP.Fitness>
45.5438

> <Gold.PLP.PLP>
-40.9508

> <Gold.PLP.part.hbond>
-2.0000

> <Gold.PLP.part.metal>
0.0000

> <Gold.PLP.part.buried>
-1.1760

> <Gold.PLP.part.nonpolar>
-37.2184

> <Gold.PLP.part.repulsive>
0.3348

> <Gold.PLP.ligand.clash>
1.0719

> <Gold.PLP.ligand.torsion>
0.6733

> <Gold.PLP.Chemscore.Hbond>
2.0000

> <Gold.PLP.Chemscore.CHOScore>
0.0000

> <Gold.PLP.Chemscore.Metal>
0.0000

> <Gold.Chemscore.Hbonds>
donor molecule, donor type, donor heavy atom, donor atom, acceptor molecule, acceptor atom, score
      L1  H     2    35       P1  7957  1.00
      P1  H  7997  8009       L1     8  1.00

> <Gold.PLP.Chemscore.Internal.Correction>
1.0116

> <Gold.Rescore>
     Score         DG    S(hbond)    S(metal)    S(lipo)     H(rot)  DE(clash)    DE(int)     intcor
     16.43     -19.28       1.99        0.00      83.00       1.00       1.21       1.64       ----

> <Gold.Chemscore.Fitness>
16.4316

> <Gold.Chemscore.DG>
-19.2803

> <Gold.Chemscore.ZeroCoef>
-5.4800

> <Gold.Chemscore.Hbond>
1.9908

> <Gold.Chemscore.Metal>
0.0000

> <Gold.Chemscore.Lipo>
83.0004

> <Gold.Chemscore.Internal_Hbond>
0.0000

> <Gold.Chemscore.DEClash>
1.2052

> <Gold.Chemscore.DEInternal>
1.6435

> <Gold.Chemscore.Rot>
1.0000

> <Gold.Chemscore.Internal.Correction>
   9.000000E+99

> <Gold.Chemscore.Hbonds>
donor molecule, donor type, donor heavy atom, donor atom, acceptor molecule, acceptor atom, score
      L1  H     2    35       P1  7957  0.99
      P1  H  7997  8009       L1     8  0.99

> <Gold.Chemscore.Hbond.Weighted>
-6.6493

> <Gold.Chemscore.Metal.Weighted>
-0.0000

> <Gold.Chemscore.Lipo.Weighted>
-9.7110

> <Gold.Chemscore.Internal_Hbond.Weighted>
0.0000

> <Gold.Chemscore.DEClash.Weighted>
1.2052

> <Gold.Chemscore.DEInternal.Weighted>
1.6435

> <Gold.Chemscore.Rot.Weighted>
2.5600

> <Gold.Chemscore.Internal.Correction.Weighted>
   9.000000E+99

> <Gold.Protein.RotatedTorsions>
[ 6907 6896 6895 6894 ] final  174.90 input  -60.11 | X-H torsion
[ 7974 7965 7964 7962 ] final   39.89 input  175.53 | X-H torsion
[ 8008 7997 7996 7995 ] final -156.15 input   59.86 | X-H torsion
[ 10167 10162 10161 10158 ] final   -9.11 input  -65.29 | X-H torsion
[ 10718 10713 10712 10709 ] final -158.23 input   66.30 | X-H torsion
[ 10763 10752 10751 10750 ] final -110.80 input  -60.55 | X-H torsion
[ 11005 11000 10999 10996 ] final   -2.69 input  -57.11 | X-H torsion

> <Gold.Protein.ActiveResidues>
 VAL166  LYS551  ARG553  GLY616  TRP617  ASP618  TYR619  PRO620  LYS621  CYS622 
 ASP623  PHE694  ASN695  SER759  ASP760  ASP761  ALA762  ILE779  LEU786  VAL792 
 PHE793  MET794  SER795  GLU796  ALA797  LYS798  CYS799  TRP800  GLU811  SER814 

> <Gold.Protein.RotatedAtoms>
  151.7449  133.3324  159.3375 H   0  0  0  0  0  0  0  0  0  0  0  0  # atno 6907 bound_to 6896
  150.7558  134.6245  159.6163 H   0  0  0  0  0  0  0  0  0  0  0  0  # atno 6908 bound_to 6896
  152.3506  134.7012  160.0289 H   0  0  0  0  0  0  0  0  0  0  0  0  # atno 6909 bound_to 6896
  146.0948  139.5598  142.9452 H   0  0  0  0  0  0  0  0  0  0  0  0  # atno 7974 bound_to 7965
  155.7128  140.0780  157.2364 H   0  0  0  0  0  0  0  0  0  0  0  0  # atno 8008 bound_to 7997
  154.4056  140.1627  156.2368 H   0  0  0  0  0  0  0  0  0  0  0  0  # atno 8009 bound_to 7997
  155.9268  140.3394  155.6219 H   0  0  0  0  0  0  0  0  0  0  0  0  # atno 8010 bound_to 7997
  140.7078  143.5894  150.8909 H   0  0  0  0  0  0  0  0  0  0  0  0  # atno 10167 bound_to 10162
  156.5513  130.8606  151.2781 H   0  0  0  0  0  0  0  0  0  0  0  0  # atno 10718 bound_to 10713
  154.8267  135.4551  154.0941 H   0  0  0  0  0  0  0  0  0  0  0  0  # atno 10763 bound_to 10752
  153.2249  135.6898  153.7963 H   0  0  0  0  0  0  0  0  0  0  0  0  # atno 10764 bound_to 10752
  153.7367  135.3318  155.3273 H   0  0  0  0  0  0  0  0  0  0  0  0  # atno 10765 bound_to 10752
  140.6612  133.9319  155.8437 H   0  0  0  0  0  0  0  0  0  0  0  0  # atno 11005 bound_to 11000
  145.5969  141.0361  143.2040 LP  0  0  0  0  0  0  0  0  0  0  0  0  # atno 17320 bound_to 7965
  144.7387  139.7510  143.7319 LP  0  0  0  0  0  0  0  0  0  0  0  0  # atno 17321 bound_to 7965
  139.9620  143.6153  152.2999 LP  0  0  0  0  0  0  0  0  0  0  0  0  # atno 17342 bound_to 10162
  139.6709  144.7661  151.1785 LP  0  0  0  0  0  0  0  0  0  0  0  0  # atno 17343 bound_to 10162
  157.7387  130.9818  150.2267 LP  0  0  0  0  0  0  0  0  0  0  0  0  # atno 17370 bound_to 10713
  156.2882  130.3742  149.7868 LP  0  0  0  0  0  0  0  0  0  0  0  0  # atno 17371 bound_to 10713
  141.0464  134.0548  157.3839 LP  0  0  0  0  0  0  0  0  0  0  0  0  # atno 17394 bound_to 11000
  139.9012  135.0165  156.7279 LP  0  0  0  0  0  0  0  0  0  0  0  0  # atno 17395 bound_to 11000

$$$$
