AV-unprocessed.smi:1933|AV-procd|sdf|7819|dock10
  -GOLD-   22720 9563D 1   1.00000     0.00000
 Structure written by MMmdl.
 48 50  0  0  0  0  0  0  0  0  2 V2000
  149.2792  141.7243  156.0986 O   0  0  0  0  0  0  0  0  0  0  0  0
  150.3578  141.1395  156.1999 C   0  0  0  0  0  0  0  0  0  0  0  0
  150.7061  140.0888  155.4422 N   0  0  0  0  0  0  0  0  0  0  0  0
  149.8838  139.4743  154.4040 C   0  0  0  0  0  0  0  0  0  0  0  0
  148.9133  138.3920  154.9540 C   0  0  2  0  0  0  0  0  0  0  0  0
  149.6223  137.1468  155.5617 C   0  0  2  0  0  0  0  0  0  0  0  0
  150.3892  137.4342  156.8455 C   0  0  0  0  0  0  0  0  0  0  0  0
  151.3462  136.2550  156.9201 C   0  0  0  0  0  0  0  0  0  0  0  0
  151.7652  136.0854  155.5770 O   0  0  0  0  0  0  0  0  0  0  0  0
  150.7261  136.5084  154.6987 C   0  0  0  0  0  0  0  0  0  0  0  0
  147.9303  137.9552  153.9163 N   0  3  0  0  0  0  0  0  0  0  0  0
  146.8941  137.0180  154.4141 C   0  0  0  0  0  0  0  0  0  0  0  0
  146.0680  136.4726  153.2364 C   0  0  0  0  0  0  0  0  0  0  0  0
  145.4961  137.5528  152.5079 O   0  0  0  0  0  0  0  0  0  0  0  0
  146.4861  138.4166  151.9613 C   0  0  0  0  0  0  0  0  0  0  0  0
  147.3141  139.0330  153.1008 C   0  0  0  0  0  0  0  0  0  0  0  0
  151.3408  141.4619  157.0586 N   0  0  0  0  0  0  0  0  0  0  0  0
  151.3865  142.5456  157.9750 C   0  0  0  0  0  0  0  0  0  0  0  0
  152.5332  142.5818  158.8001 C   0  0  0  0  0  0  0  0  0  0  0  0
  152.6781  143.6209  159.7395 C   0  0  0  0  0  0  0  0  0  0  0  0
  151.6713  144.5988  159.8289 C   0  0  0  0  0  0  0  0  0  0  0  0
  150.5628  144.4897  158.9693 C   0  0  0  0  0  0  0  0  0  0  0  0
  150.4217  143.4944  158.0684 N   0  0  0  0  0  0  0  0  0  0  0  0
  151.6143  139.6770  155.6008 H   0  0  0  0  0  0  0  0  0  0  0  0
  149.3228  140.2838  153.9379 H   0  0  0  0  0  0  0  0  0  0  0  0
  150.5120  139.0530  153.6181 H   0  0  0  0  0  0  0  0  0  0  0  0
  148.3328  138.8436  155.7601 H   0  0  0  0  0  0  0  0  0  0  0  0
  148.8816  136.3759  155.7795 H   0  0  0  0  0  0  0  0  0  0  0  0
  150.9537  138.3639  156.7571 H   0  0  0  0  0  0  0  0  0  0  0  0
  149.7471  137.5043  157.7240 H   0  0  0  0  0  0  0  0  0  0  0  0
  152.1905  136.4346  157.5860 H   0  0  0  0  0  0  0  0  0  0  0  0
  150.8270  135.3551  157.2535 H   0  0  0  0  0  0  0  0  0  0  0  0
  150.3498  135.6539  154.1367 H   0  0  0  0  0  0  0  0  0  0  0  0
  151.1512  137.2197  153.9901 H   0  0  0  0  0  0  0  0  0  0  0  0
  147.3619  136.1882  154.9449 H   0  0  0  0  0  0  0  0  0  0  0  0
  146.2365  137.5234  155.1221 H   0  0  0  0  0  0  0  0  0  0  0  0
  146.6871  135.8624  152.5766 H   0  0  0  0  0  0  0  0  0  0  0  0
  145.2675  135.8307  153.6046 H   0  0  0  0  0  0  0  0  0  0  0  0
  147.1243  137.8674  151.2669 H   0  0  0  0  0  0  0  0  0  0  0  0
  145.9926  139.2015  151.3878 H   0  0  0  0  0  0  0  0  0  0  0  0
  146.6630  139.6523  153.7190 H   0  0  0  0  0  0  0  0  0  0  0  0
  148.0813  139.6846  152.6836 H   0  0  0  0  0  0  0  0  0  0  0  0
  152.1628  140.8766  157.0413 H   0  0  0  0  0  0  0  0  0  0  0  0
  153.2978  141.8228  158.7177 H   0  0  0  0  0  0  0  0  0  0  0  0
  153.5470  143.6659  160.3795 H   0  0  0  0  0  0  0  0  0  0  0  0
  151.7469  145.4110  160.5365 H   0  0  0  0  0  0  0  0  0  0  0  0
  149.7685  145.2206  159.0044 H   0  0  0  0  0  0  0  0  0  0  0  0
  148.4779  137.4082  153.2672 H   0  0  0  0  0  0  0  0  0  0  0  0
  1  2  2  0  0  0  0
  2  3  1  0  0  0  0
  2 17  1  0  0  0  0
  3  4  1  0  0  0  0
  3 24  1  0  0  0  0
  4  5  1  0  0  0  0
  4 25  1  0  0  0  0
  4 26  1  0  0  0  0
  5  6  1  0  0  0  0
  5 11  1  0  0  0  0
  5 27  1  0  0  0  0
  6 10  1  0  0  0  0
  6  7  1  0  0  0  0
  6 28  1  0  0  0  0
  7  8  1  0  0  0  0
  7 29  1  0  0  0  0
  7 30  1  0  0  0  0
  8  9  1  0  0  0  0
  8 31  1  0  0  0  0
  8 32  1  0  0  0  0
  9 10  1  0  0  0  0
 10 33  1  0  0  0  0
 10 34  1  0  0  0  0
 11 16  1  0  0  0  0
 11 12  1  0  0  0  0
 11 48  1  0  0  0  0
 12 13  1  0  0  0  0
 12 35  1  0  0  0  0
 12 36  1  0  0  0  0
 13 14  1  0  0  0  0
 13 37  1  0  0  0  0
 13 38  1  0  0  0  0
 14 15  1  0  0  0  0
 15 16  1  0  0  0  0
 15 39  1  0  0  0  0
 15 40  1  0  0  0  0
 16 41  1  0  0  0  0
 16 42  1  0  0  0  0
 17 18  1  0  0  0  0
 17 43  1  0  0  0  0
 18 23  1  0  0  0  0
 18 19  2  0  0  0  0
 19 20  1  0  0  0  0
 19 44  1  0  0  0  0
 20 21  2  0  0  0  0
 20 45  1  0  0  0  0
 21 22  1  0  0  0  0
 21 46  1  0  0  0  0
 22 23  2  0  0  0  0
 22 47  1  0  0  0  0
M  CHG  1  11   1
M  END
> <s_m_source_file>
AV-unprocessed.smi

> <i_m_source_file_index>
1933

> <i_lp_mmshare_version>
43012

> <i_f3d_flags>
0

> <s_epik_input>
bjFbY0hdW2NIXVtjSF1bY0hdYzFbTkhdQyg9TylbTkhdW0NIMl1bQ0BIXShbQ0BASF0yW0NIMl1bQ0gyXU9bQ0gyXTIpTjNbQ0gyXVtDSDJdT1tDSDJdW0NIMl0z

> <s_epik_cmdline>
J2VwaWtfcHl0aG9uJywgJy1waCcsICc3LjAnLCAnLXRuJywgJzgnLCAnLW1hJywgJzIwMCcsICctbWV0YWxfYmluZGluZycsICctaW1hZScsICc8aW5maWxlLm1hZT4nLCAnLW9tYWUnLCAnPG91dGZpbGUubWFlPic=

> <r_epik_Ionization_Penalty>
0.983294

> <r_epik_Ionization_Penalty_Charging>
0.98326

> <r_epik_Ionization_Penalty_Neutral>
3.39688e-05

> <r_epik_State_Penalty>
1.0303

> <r_epik_Charging_Adjusted_Penalty>
2.01356

> <i_epik_Tot_Q>
1

> <i_epik_Tot_abs_Q>
1

> <r_epik_Metal_State_Penalty>
1.0303

> <b_epik_Metal_Only>
0

> <s_lp_Force_Field>
OPLS_2005

> <r_lp_Energy>
40.1747

> <b_lp_Chiralities_Consistent>
1

> <s_lp_Variant>
AV-unprocessed.smi:1933-5

> <Gold.Version>
5.8.1

> <Gold.Id.Protein>
6NUR|6NUR_protein|mol2

> <Gold.PLP.Fitness>
45.2069

> <Gold.PLP.PLP>
-33.9910

> <Gold.PLP.part.hbond>
-2.0000

> <Gold.PLP.part.metal>
0.0000

> <Gold.PLP.part.buried>
-4.8149

> <Gold.PLP.part.nonpolar>
-29.9753

> <Gold.PLP.part.repulsive>
2.3392

> <Gold.PLP.ligand.clash>
0.0000

> <Gold.PLP.ligand.torsion>
0.4684

> <Gold.PLP.Chemscore.Hbond>
3.0000

> <Gold.PLP.Chemscore.CHOScore>
0.9782

> <Gold.PLP.Chemscore.Metal>
0.0000

> <Gold.Chemscore.Hbonds>
donor molecule, donor type, donor heavy atom, donor atom, acceptor molecule, acceptor atom, score
      L1  H    11    48       P1  7948  2.00
      P1  H 10752 10765       L1     9  1.00
      L1  C    22    47       P1  8029  0.72

> <Gold.PLP.Chemscore.Internal.Correction>
0.2180

> <Gold.Rescore>
     Score         DG    S(hbond)    S(metal)    S(lipo)     H(rot)  DE(clash)    DE(int)     intcor
     16.39     -18.31       1.96        0.00      92.27       1.77       0.04       1.88       ----

> <Gold.Chemscore.Fitness>
16.3892

> <Gold.Chemscore.DG>
-18.3075

> <Gold.Chemscore.ZeroCoef>
-5.4800

> <Gold.Chemscore.Hbond>
1.9628

> <Gold.Chemscore.Metal>
0.0000

> <Gold.Chemscore.Lipo>
92.2687

> <Gold.Chemscore.Internal_Hbond>
0.0000

> <Gold.Chemscore.DEClash>
0.0402

> <Gold.Chemscore.DEInternal>
1.8781

> <Gold.Chemscore.Rot>
1.7671

> <Gold.Chemscore.Internal.Correction>
   9.000000E+99

> <Gold.Chemscore.Hbonds>
donor molecule, donor type, donor heavy atom, donor atom, acceptor molecule, acceptor atom, score
      L1  H    11    48       P1  7948  1.00
      P1  H 10752 10765       L1     9  0.96

> <Gold.Chemscore.Hbond.Weighted>
-6.5559

> <Gold.Chemscore.Metal.Weighted>
-0.0000

> <Gold.Chemscore.Lipo.Weighted>
-10.7954

> <Gold.Chemscore.Internal_Hbond.Weighted>
0.0000

> <Gold.Chemscore.DEClash.Weighted>
0.0402

> <Gold.Chemscore.DEInternal.Weighted>
1.8781

> <Gold.Chemscore.Rot.Weighted>
4.5238

> <Gold.Chemscore.Internal.Correction.Weighted>
   9.000000E+99

> <Gold.Protein.RotatedTorsions>
[ 6907 6896 6895 6894 ] final   44.57 input  -60.11 | X-H torsion
[ 7974 7965 7964 7962 ] final  123.72 input  175.53 | X-H torsion
[ 8008 7997 7996 7995 ] final -168.38 input   59.86 | X-H torsion
[ 10167 10162 10161 10158 ] final   30.59 input  -65.29 | X-H torsion
[ 10718 10713 10712 10709 ] final -149.32 input   66.30 | X-H torsion
[ 10763 10752 10751 10750 ] final -149.69 input  -60.55 | X-H torsion
[ 11005 11000 10999 10996 ] final   46.69 input  -57.11 | X-H torsion

> <Gold.Protein.ActiveResidues>
 VAL166  LYS551  ARG553  GLY616  TRP617  ASP618  TYR619  PRO620  LYS621  CYS622 
 ASP623  PHE694  ASN695  SER759  ASP760  ASP761  ALA762  ILE779  LEU786  VAL792 
 PHE793  MET794  SER795  GLU796  ALA797  LYS798  CYS799  TRP800  GLU811  SER814 

> <Gold.Protein.RotatedAtoms>
  152.2341  134.8293  160.0469 H   0  0  0  0  0  0  0  0  0  0  0  0  # atno 6907 bound_to 6896
  151.9031  133.3537  159.3845 H   0  0  0  0  0  0  0  0  0  0  0  0  # atno 6908 bound_to 6896
  150.7034  134.4734  159.5480 H   0  0  0  0  0  0  0  0  0  0  0  0  # atno 6909 bound_to 6896
  145.0927  139.3575  143.4852 H   0  0  0  0  0  0  0  0  0  0  0  0  # atno 7974 bound_to 7965
  155.8907  140.1024  157.1421 H   0  0  0  0  0  0  0  0  0  0  0  0  # atno 8008 bound_to 7997
  154.4014  140.1311  156.4376 H   0  0  0  0  0  0  0  0  0  0  0  0  # atno 8009 bound_to 7997
  155.7537  140.3464  155.5165 H   0  0  0  0  0  0  0  0  0  0  0  0  # atno 8010 bound_to 7997
  140.4664  144.0828  150.6226 H   0  0  0  0  0  0  0  0  0  0  0  0  # atno 10167 bound_to 10162
  156.4316  130.8078  151.2305 H   0  0  0  0  0  0  0  0  0  0  0  0  # atno 10718 bound_to 10713
  154.8163  135.3303  154.7167 H   0  0  0  0  0  0  0  0  0  0  0  0  # atno 10763 bound_to 10752
  153.7808  135.6918  153.4893 H   0  0  0  0  0  0  0  0  0  0  0  0  # atno 10764 bound_to 10752
  153.1982  135.4526  155.0181 H   0  0  0  0  0  0  0  0  0  0  0  0  # atno 10765 bound_to 10752
  140.1346  134.4661  155.8495 H   0  0  0  0  0  0  0  0  0  0  0  0  # atno 11005 bound_to 11000
  146.3531  140.0769  142.8620 LP  0  0  0  0  0  0  0  0  0  0  0  0  # atno 17320 bound_to 7965
  145.1047  140.9368  143.4692 LP  0  0  0  0  0  0  0  0  0  0  0  0  # atno 17321 bound_to 7965
  140.4030  143.2694  151.9924 LP  0  0  0  0  0  0  0  0  0  0  0  0  # atno 17342 bound_to 10162
  139.4812  144.5981  151.7654 LP  0  0  0  0  0  0  0  0  0  0  0  0  # atno 17343 bound_to 10162
  157.7508  131.0196  150.3676 LP  0  0  0  0  0  0  0  0  0  0  0  0  # atno 17370 bound_to 10713
  156.4014  130.3916  149.6957 LP  0  0  0  0  0  0  0  0  0  0  0  0  # atno 17371 bound_to 10713
  141.2176  133.6809  156.7133 LP  0  0  0  0  0  0  0  0  0  0  0  0  # atno 17394 bound_to 11000
  140.2799  134.8325  157.3923 LP  0  0  0  0  0  0  0  0  0  0  0  0  # atno 17395 bound_to 11000

$$$$
