AV-unprocessed.smi:1385|AV-procd|sdf|5634|dock7
  -GOLD-   22720 5253D 1   1.00000     0.00000
 Structure written by MMmdl.
 38 39  0  0  0  0  0  0  0  0  3 V2000
  139.6339  141.7488  157.9449 C   0  0  0  0  0  0  0  0  0  0  0  0
  140.3595  140.7435  157.1174 C   0  0  0  0  0  0  0  0  0  0  0  0
  140.4456  139.4520  157.4588 N   0  0  0  0  0  0  0  0  0  0  0  0
  141.1637  138.7095  156.5319 N   0  0  0  0  0  0  0  0  0  0  0  0
  141.5970  139.4657  155.5136 C   0  0  0  0  0  0  0  0  0  0  0  0
  142.3520  138.9614  154.4215 N   0  0  0  0  0  0  0  0  0  0  0  0
  142.7273  137.6921  154.1839 C   0  0  0  0  0  0  0  0  0  0  0  0
  142.4848  136.7290  154.9118 O   0  0  0  0  0  0  0  0  0  0  0  0
  143.4127  137.5946  153.0354 N   0  0  0  0  0  0  0  0  0  0  0  0
  143.9502  136.3548  152.4823 C   0  0  2  0  0  0  0  0  0  0  0  0
  144.3503  136.5374  151.0069 C   0  0  0  0  0  0  0  0  0  0  0  0
  144.8232  135.2100  150.3917 C   0  0  0  0  0  0  0  0  0  0  0  0
  143.7846  134.1530  150.5276 N   0  3  1  0  0  0  0  0  0  0  0  0
  144.1435  132.8888  149.8378 C   0  0  0  0  0  0  0  0  0  0  0  0
  143.3136  132.7317  148.5595 C   0  0  0  0  0  0  0  0  0  0  0  0
  143.4366  133.7870  147.7324 N   0  5  0  0  0  0  0  0  0  0  0  0
  142.6277  131.7238  148.4014 O   0  0  0  0  0  0  0  0  0  0  0  0
  143.4099  133.9345  151.9478 C   0  0  0  0  0  0  0  0  0  0  0  0
  142.9041  135.2345  152.5952 C   0  0  0  0  0  0  0  0  0  0  0  0
  141.1628  141.1639  155.6094 S   0  0  0  0  0  0  0  0  0  0  0  0
  139.6318  141.4500  158.9936 H   0  0  0  0  0  0  0  0  0  0  0  0
  138.6027  141.8369  157.6029 H   0  0  0  0  0  0  0  0  0  0  0  0
  140.1154  142.7233  157.8620 H   0  0  0  0  0  0  0  0  0  0  0  0
  142.6269  139.6475  153.7343 H   0  0  0  0  0  0  0  0  0  0  0  0
  143.5666  138.4368  152.5005 H   0  0  0  0  0  0  0  0  0  0  0  0
  144.8306  136.0595  153.0568 H   0  0  0  0  0  0  0  0  0  0  0  0
  143.5032  136.9200  150.4355 H   0  0  0  0  0  0  0  0  0  0  0  0
  145.1427  137.2817  150.9194 H   0  0  0  0  0  0  0  0  0  0  0  0
  145.0618  135.3724  149.3404 H   0  0  0  0  0  0  0  0  0  0  0  0
  145.7442  134.8806  150.8753 H   0  0  0  0  0  0  0  0  0  0  0  0
  145.2192  132.8445  149.6534 H   0  0  0  0  0  0  0  0  0  0  0  0
  143.9042  132.0354  150.4738 H   0  0  0  0  0  0  0  0  0  0  0  0
  144.3613  134.2201  147.6202 H   0  0  0  0  0  0  0  0  0  0  0  0
  142.6273  133.1773  152.0100 H   0  0  0  0  0  0  0  0  0  0  0  0
  144.2701  133.5480  152.4969 H   0  0  0  0  0  0  0  0  0  0  0  0
  142.6610  135.0532  153.6429 H   0  0  0  0  0  0  0  0  0  0  0  0
  141.9759  135.5416  152.1102 H   0  0  0  0  0  0  0  0  0  0  0  0
  142.9552  134.4929  150.0620 H   0  0  0  0  0  0  0  0  0  0  0  0
  1  2  1  0  0  0  0
  1 21  1  0  0  0  0
  1 22  1  0  0  0  0
  1 23  1  0  0  0  0
  2 20  1  0  0  0  0
  2  3  2  0  0  0  0
  3  4  1  0  0  0  0
  4  5  2  0  0  0  0
  5  6  1  0  0  0  0
  5 20  1  0  0  0  0
  6  7  1  0  0  0  0
  6 24  1  0  0  0  0
  7  8  2  0  0  0  0
  7  9  1  0  0  0  0
  9 10  1  0  0  0  0
  9 25  1  0  0  0  0
 10 19  1  0  0  0  0
 10 11  1  0  0  0  0
 10 26  1  0  0  0  0
 11 12  1  0  0  0  0
 11 27  1  0  0  0  0
 11 28  1  0  0  0  0
 12 13  1  0  0  0  0
 12 29  1  0  0  0  0
 12 30  1  0  0  0  0
 13 14  1  0  0  0  0
 13 18  1  0  0  0  0
 13 38  1  0  0  0  0
 14 15  1  0  0  0  0
 14 31  1  0  0  0  0
 14 32  1  0  0  0  0
 15 16  1  0  0  0  0
 15 17  2  0  0  0  0
 16 33  1  0  0  0  0
 18 19  1  0  0  0  0
 18 34  1  0  0  0  0
 18 35  1  0  0  0  0
 19 36  1  0  0  0  0
 19 37  1  0  0  0  0
M  CHG  1  13   1
M  CHG  1  16  -1
M  END
> <s_m_source_file>
AV-unprocessed.smi

> <i_m_source_file_index>
1385

> <i_lp_mmshare_version>
43012

> <i_f3d_flags>
0

> <s_epik_input>
W0NIM11jMW5uYyhzMSlbTkhdQyg9TylbTkhdW0NIXTJbQ0gyXVtDSDJdTihbQ0gyXVtDSDJdMilbQ0gyXUMoPU8pW05IMl0=

> <s_epik_cmdline>
J2VwaWtfcHl0aG9uJywgJy1waCcsICc3LjAnLCAnLXRuJywgJzgnLCAnLW1hJywgJzIwMCcsICctbWV0YWxfYmluZGluZycsICctaW1hZScsICc8aW5maWxlLm1hZT4nLCAnLW9tYWUnLCAnPG91dGZpbGUubWFlPic=

> <r_lp_tautomer_probability>
1

> <r_epik_Ionization_Penalty>
5.73549

> <r_epik_Ionization_Penalty_Charging>
5.73152

> <r_epik_Ionization_Penalty_Neutral>
0.00396448

> <r_epik_State_Penalty>
6.57436

> <r_epik_Charging_Adjusted_Penalty>
12.3059

> <i_epik_Tot_Q>
0

> <i_epik_Tot_abs_Q>
2

> <r_epik_Metal_State_Penalty>
2.87628

> <b_epik_Metal_Only>
1

> <s_lp_Force_Field>
OPLS_2005

> <r_lp_Energy>
6.06006

> <b_lp_Chiralities_Consistent>
1

> <s_lp_Variant>
AV-unprocessed.smi:1385-7

> <Gold.Version>
5.8.1

> <Gold.Id.Protein>
6NUR|6NUR_protein|mol2

> <Gold.PLP.Fitness>
41.1659

> <Gold.PLP.PLP>
-22.4905

> <Gold.PLP.part.hbond>
-7.7248

> <Gold.PLP.part.metal>
0.0000

> <Gold.PLP.part.buried>
0.3637

> <Gold.PLP.part.nonpolar>
-19.9321

> <Gold.PLP.part.repulsive>
3.2961

> <Gold.PLP.ligand.clash>
0.0000

> <Gold.PLP.ligand.torsion>
0.9045

> <Gold.PLP.Chemscore.Hbond>
6.8218

> <Gold.PLP.Chemscore.CHOScore>
0.0000

> <Gold.PLP.Chemscore.Metal>
0.0000

> <Gold.Chemscore.Hbonds>
donor molecule, donor type, donor heavy atom, donor atom, acceptor molecule, acceptor atom, score
      L1  H     6    24       P1 10175  1.00
      L1  H     9    25       P1 10175  0.98
      L1  H    13    38       P1 10186  2.00
      L1  H    16    33       P1  7921  1.00
      P1  H 10192 10197       L1    16  0.94
      P1  H 10785 10796       L1    17  0.86

> <Gold.PLP.Chemscore.Internal.Correction>
0.0191

> <Gold.Rescore>
     Score         DG    S(hbond)    S(metal)    S(lipo)     H(rot)  DE(clash)    DE(int)     intcor
     15.07     -22.67       5.30        0.00      40.05       2.04       4.05       3.54       ----

> <Gold.Chemscore.Fitness>
15.0721

> <Gold.Chemscore.DG>
-22.6679

> <Gold.Chemscore.ZeroCoef>
-5.4800

> <Gold.Chemscore.Hbond>
5.3042

> <Gold.Chemscore.Metal>
0.0000

> <Gold.Chemscore.Lipo>
40.0549

> <Gold.Chemscore.Internal_Hbond>
0.0000

> <Gold.Chemscore.DEClash>
4.0514

> <Gold.Chemscore.DEInternal>
3.5444

> <Gold.Chemscore.Rot>
2.0369

> <Gold.Chemscore.Internal.Correction>
   9.000000E+99

> <Gold.Chemscore.Hbonds>
donor molecule, donor type, donor heavy atom, donor atom, acceptor molecule, acceptor atom, score
      L1  H     6    24       P1 10175  1.00
      L1  H     9    25       P1 10175  0.90
      L1  H    13    38       P1 10186  0.80
      L1  H    16    33       P1  7921  1.00
      P1  H 10192 10197       L1    16  0.59
      P1  H 10785 10796       L1    17  0.84

> <Gold.Chemscore.Hbond.Weighted>
-17.7159

> <Gold.Chemscore.Metal.Weighted>
-0.0000

> <Gold.Chemscore.Lipo.Weighted>
-4.6864

> <Gold.Chemscore.Internal_Hbond.Weighted>
0.0000

> <Gold.Chemscore.DEClash.Weighted>
4.0514

> <Gold.Chemscore.DEInternal.Weighted>
3.5444

> <Gold.Chemscore.Rot.Weighted>
5.2144

> <Gold.Chemscore.Internal.Correction.Weighted>
   9.000000E+99

> <Gold.Protein.RotatedTorsions>
[ 6907 6896 6895 6894 ] final  -56.20 input  -60.11 | X-H torsion
[ 7974 7965 7964 7962 ] final  -91.65 input  175.53 | X-H torsion
[ 8008 7997 7996 7995 ] final  -97.55 input   59.86 | X-H torsion
[ 10167 10162 10161 10158 ] final  172.29 input  -65.29 | X-H torsion
[ 10718 10713 10712 10709 ] final   47.48 input   66.30 | X-H torsion
[ 10763 10752 10751 10750 ] final  122.69 input  -60.55 | X-H torsion
[ 11005 11000 10999 10996 ] final  -97.83 input  -57.11 | X-H torsion

> <Gold.Protein.ActiveResidues>
 VAL166  LYS551  ARG553  GLY616  TRP617  ASP618  TYR619  PRO620  LYS621  CYS622 
 ASP623  PHE694  ASN695  SER759  ASP760  ASP761  ALA762  ILE779  LEU786  VAL792 
 PHE793  MET794  SER795  GLU796  ALA797  LYS798  CYS799  TRP800  GLU811  SER814 

> <Gold.Protein.RotatedAtoms>
  150.8187  134.7384  159.6752 H   0  0  0  0  0  0  0  0  0  0  0  0  # atno 6907 bound_to 6896
  152.4304  134.5784  159.9951 H   0  0  0  0  0  0  0  0  0  0  0  0  # atno 6908 bound_to 6896
  151.5974  133.3322  159.3076 H   0  0  0  0  0  0  0  0  0  0  0  0  # atno 6909 bound_to 6896
  145.4103  140.9544  143.2237 H   0  0  0  0  0  0  0  0  0  0  0  0  # atno 7974 bound_to 7965
  154.7892  140.0462  157.1188 H   0  0  0  0  0  0  0  0  0  0  0  0  # atno 8008 bound_to 7997
  154.9611  140.3077  155.5011 H   0  0  0  0  0  0  0  0  0  0  0  0  # atno 8009 bound_to 7997
  156.2947  140.2270  156.4696 H   0  0  0  0  0  0  0  0  0  0  0  0  # atno 8010 bound_to 7997
  139.5072  144.3390  152.0036 H   0  0  0  0  0  0  0  0  0  0  0  0  # atno 10167 bound_to 10162
  157.4589  130.8184  149.7865 H   0  0  0  0  0  0  0  0  0  0  0  0  # atno 10718 bound_to 10713
  153.6337  135.3391  155.3050 H   0  0  0  0  0  0  0  0  0  0  0  0  # atno 10763 bound_to 10752
  154.8574  135.4302  154.2078 H   0  0  0  0  0  0  0  0  0  0  0  0  # atno 10764 bound_to 10752
  153.2980  135.7022  153.7303 H   0  0  0  0  0  0  0  0  0  0  0  0  # atno 10765 bound_to 10752
  141.1366  133.8199  157.0758 H   0  0  0  0  0  0  0  0  0  0  0  0  # atno 11005 bound_to 11000
  144.8313  139.5624  143.6942 LP  0  0  0  0  0  0  0  0  0  0  0  0  # atno 17320 bound_to 7965
  146.2708  139.6630  142.9297 LP  0  0  0  0  0  0  0  0  0  0  0  0  # atno 17321 bound_to 7965
  140.2829  144.3840  150.6113 LP  0  0  0  0  0  0  0  0  0  0  0  0  # atno 17342 bound_to 10162
  140.6005  143.2167  151.7082 LP  0  0  0  0  0  0  0  0  0  0  0  0  # atno 17343 bound_to 10162
  156.0019  130.3875  150.2572 LP  0  0  0  0  0  0  0  0  0  0  0  0  # atno 17370 bound_to 10713
  157.0748  131.0127  151.3177 LP  0  0  0  0  0  0  0  0  0  0  0  0  # atno 17371 bound_to 10713
  140.0483  134.9819  157.1089 LP  0  0  0  0  0  0  0  0  0  0  0  0  # atno 17394 bound_to 11000
  140.4029  134.2063  155.7163 LP  0  0  0  0  0  0  0  0  0  0  0  0  # atno 17395 bound_to 11000

$$$$
