AV-unprocessed.smi:427|AV-procd|sdf|2542|dock1
  -GOLD-   2262022503D 1   1.00000     0.00000
 Structure written by MMmdl.
 51 52  0  0  0  0  0  0  0  0  1 V2000
  149.8431  141.0708  155.5534 C   0  0  0  0  0  0  0  0  0  0  0  0
  150.5576  141.2836  156.8754 C   0  0  0  0  0  0  0  0  0  0  0  0
  150.9115  142.5900  157.2728 C   0  0  0  0  0  0  0  0  0  0  0  0
  151.5844  142.8248  158.4963 C   0  0  0  0  0  0  0  0  0  0  0  0
  151.9866  144.2378  158.9612 C   0  0  0  0  0  0  0  0  0  0  0  0
  152.9434  144.8664  157.9276 C   0  0  0  0  0  0  0  0  0  0  0  0
  152.7045  144.2422  160.3299 C   0  0  0  0  0  0  0  0  0  0  0  0
  150.7278  145.1207  159.0936 C   0  0  0  0  0  0  0  0  0  0  0  0
  151.8879  141.7105  159.3114 C   0  0  0  0  0  0  0  0  0  0  0  0
  151.5392  140.4050  158.9197 C   0  0  0  0  0  0  0  0  0  0  0  0
  150.8709  140.1761  157.6932 C   0  0  0  0  0  0  0  0  0  0  0  0
  150.5007  138.9263  157.2437 O   0  0  0  0  0  0  0  0  0  0  0  0
  151.0718  137.7828  157.8654 C   0  0  0  0  0  0  0  0  0  0  0  0
  150.0868  136.6134  157.7226 C   0  0  2  0  0  0  0  0  0  0  0  0
  149.8575  136.4239  156.3412 O   0  0  0  0  0  0  0  0  0  0  0  0
  148.7367  136.9036  158.4171 C   0  0  0  0  0  0  0  0  0  0  0  0
  148.2729  135.8014  159.2416 N   0  0  0  0  0  0  0  0  0  0  0  0
  148.2262  134.5101  158.6606 C   0  0  0  0  0  0  0  0  0  0  0  0
  148.5636  134.3013  157.4946 O   0  0  0  0  0  0  0  0  0  0  0  0
  147.7645  133.4545  159.5558 C   0  0  0  0  0  0  0  0  0  0  0  0
  147.4335  133.7256  160.8371 C   0  0  0  0  0  0  0  0  0  0  0  0
  147.5102  134.9941  161.3779 N   0  0  0  0  0  0  0  0  0  0  0  0
  147.1730  135.2710  162.7444 C   0  0  0  0  0  0  0  0  0  0  0  0
  147.9428  136.0818  160.5892 C   0  0  0  0  0  0  0  0  0  0  0  0
  148.0361  137.2182  161.0620 O   0  0  0  0  0  0  0  0  0  0  0  0
  149.5857  142.0182  155.0789 H   0  0  0  0  0  0  0  0  0  0  0  0
  148.9213  140.5080  155.7036 H   0  0  0  0  0  0  0  0  0  0  0  0
  150.4798  140.5104  154.8684 H   0  0  0  0  0  0  0  0  0  0  0  0
  150.6543  143.4040  156.6135 H   0  0  0  0  0  0  0  0  0  0  0  0
  153.2607  145.8634  158.2350 H   0  0  0  0  0  0  0  0  0  0  0  0
  152.4785  144.9676  156.9467 H   0  0  0  0  0  0  0  0  0  0  0  0
  153.8417  144.2605  157.8039 H   0  0  0  0  0  0  0  0  0  0  0  0
  153.6310  143.6672  160.3026 H   0  0  0  0  0  0  0  0  0  0  0  0
  152.0724  143.8299  161.1176 H   0  0  0  0  0  0  0  0  0  0  0  0
  152.9702  145.2556  160.6332 H   0  0  0  0  0  0  0  0  0  0  0  0
  150.9807  146.1220  159.4447 H   0  0  0  0  0  0  0  0  0  0  0  0
  150.0205  144.6937  159.8056 H   0  0  0  0  0  0  0  0  0  0  0  0
  150.2058  145.2403  158.1443 H   0  0  0  0  0  0  0  0  0  0  0  0
  152.3955  141.8465  160.2546 H   0  0  0  0  0  0  0  0  0  0  0  0
  151.7954  139.5933  159.5831 H   0  0  0  0  0  0  0  0  0  0  0  0
  152.0275  137.5262  157.4048 H   0  0  0  0  0  0  0  0  0  0  0  0
  151.2475  137.9942  158.9217 H   0  0  0  0  0  0  0  0  0  0  0  0
  150.5501  135.7109  158.1238 H   0  0  0  0  0  0  0  0  0  0  0  0
  150.6209  136.7180  155.8676 H   0  0  0  0  0  0  0  0  0  0  0  0
  148.8042  137.7690  159.0789 H   0  0  0  0  0  0  0  0  0  0  0  0
  147.9487  137.1765  157.7129 H   0  0  0  0  0  0  0  0  0  0  0  0
  147.6905  132.4415  159.1880 H   0  0  0  0  0  0  0  0  0  0  0  0
  147.0993  132.9112  161.4631 H   0  0  0  0  0  0  0  0  0  0  0  0
  146.3633  136.0030  162.7430 H   0  0  0  0  0  0  0  0  0  0  0  0
  148.0714  135.6513  163.2339 H   0  0  0  0  0  0  0  0  0  0  0  0
  146.8480  134.3383  163.2067 H   0  0  0  0  0  0  0  0  0  0  0  0
  1  2  1  0  0  0  0
  1 26  1  0  0  0  0
  1 27  1  0  0  0  0
  1 28  1  0  0  0  0
  2 11  1  0  0  0  0
  2  3  2  0  0  0  0
  3  4  1  0  0  0  0
  3 29  1  0  0  0  0
  4  5  1  0  0  0  0
  4  9  2  0  0  0  0
  5  6  1  0  0  0  0
  5  7  1  0  0  0  0
  5  8  1  0  0  0  0
  6 30  1  0  0  0  0
  6 31  1  0  0  0  0
  6 32  1  0  0  0  0
  7 33  1  0  0  0  0
  7 34  1  0  0  0  0
  7 35  1  0  0  0  0
  8 36  1  0  0  0  0
  8 37  1  0  0  0  0
  8 38  1  0  0  0  0
  9 10  1  0  0  0  0
  9 39  1  0  0  0  0
 10 11  2  0  0  0  0
 10 40  1  0  0  0  0
 11 12  1  0  0  0  0
 12 13  1  0  0  0  0
 13 14  1  0  0  0  0
 13 41  1  0  0  0  0
 13 42  1  0  0  0  0
 14 15  1  0  0  0  0
 14 16  1  0  0  0  0
 14 43  1  0  0  0  0
 15 44  1  0  0  0  0
 16 17  1  0  0  0  0
 16 45  1  0  0  0  0
 16 46  1  0  0  0  0
 17 24  1  0  0  0  0
 17 18  1  0  0  0  0
 18 19  2  0  0  0  0
 18 20  1  0  0  0  0
 20 21  2  0  0  0  0
 20 47  1  0  0  0  0
 21 22  1  0  0  0  0
 21 48  1  0  0  0  0
 22 23  1  0  0  0  0
 22 24  1  0  0  0  0
 23 49  1  0  0  0  0
 23 50  1  0  0  0  0
 23 51  1  0  0  0  0
 24 25  2  0  0  0  0
M  END
> <s_m_source_file>
AV-unprocessed.smi

> <i_m_source_file_index>
427

> <i_lp_mmshare_version>
43012

> <i_f3d_flags>
0

> <s_epik_input>
W0NIM11jMVtjSF1jKEMoW0NIM10pKFtDSDNdKVtDSDNdKVtjSF1bY0hdYzFPW0NIMl1bQ0BIXShbT0hdKVtDSDJdbjJjKD1PKVtjSF1bY0hdbihbQ0gzXSljMj1P

> <s_epik_cmdline>
J2VwaWtfcHl0aG9uJywgJy1waCcsICc3LjAnLCAnLXRuJywgJzgnLCAnLW1hJywgJzIwMCcsICctbWV0YWxfYmluZGluZycsICctaW1hZScsICc8aW5maWxlLm1hZT4nLCAnLW9tYWUnLCAnPG91dGZpbGUubWFlPic=

> <r_lp_tautomer_probability>
1

> <r_epik_Ionization_Penalty>
2.02112e-07

> <r_epik_Ionization_Penalty_Charging>
8.49383e-08

> <r_epik_Ionization_Penalty_Neutral>
1.17174e-07

> <r_epik_State_Penalty>
-0

> <r_epik_Charging_Adjusted_Penalty>
8.49383e-08

> <i_epik_Tot_Q>
0

> <i_epik_Tot_abs_Q>
0

> <r_epik_Metal_State_Penalty>
-0

> <b_epik_Metal_Only>
0

> <s_lp_Force_Field>
OPLS_2005

> <r_lp_Energy>
25.5029

> <b_lp_Chiralities_Consistent>
1

> <s_lp_Variant>
AV-unprocessed.smi:427-1

> <Gold.Version>
5.8.1

> <Gold.Id.Protein>
6NUR|6NUR_protein|mol2

> <Gold.PLP.Fitness>
50.1654

> <Gold.PLP.PLP>
-46.8131

> <Gold.PLP.part.hbond>
-2.0000

> <Gold.PLP.part.metal>
0.0000

> <Gold.PLP.part.buried>
-6.3685

> <Gold.PLP.part.nonpolar>
-39.1426

> <Gold.PLP.part.repulsive>
0.0000

> <Gold.PLP.ligand.clash>
0.0000

> <Gold.PLP.ligand.torsion>
1.0796

> <Gold.PLP.Chemscore.Hbond>
1.7520

> <Gold.PLP.Chemscore.CHOScore>
0.0000

> <Gold.PLP.Chemscore.Metal>
0.0000

> <Gold.Chemscore.Hbonds>
donor molecule, donor type, donor heavy atom, donor atom, acceptor molecule, acceptor atom, score
      P1  H  6931  6943       L1    25  0.96
      P1  H  6934  6947       L1    25  0.70

> <Gold.PLP.Chemscore.Internal.Correction>
0.2556

> <Gold.Rescore>
     Score         DG    S(hbond)    S(metal)    S(lipo)     H(rot)  DE(clash)    DE(int)     intcor
     15.58     -19.02       1.72        0.00     121.13       2.49       0.05       3.39       ----

> <Gold.Chemscore.Fitness>
15.5817

> <Gold.Chemscore.DG>
-19.0210

> <Gold.Chemscore.ZeroCoef>
-5.4800

> <Gold.Chemscore.Hbond>
1.7192

> <Gold.Chemscore.Metal>
0.0000

> <Gold.Chemscore.Lipo>
121.1254

> <Gold.Chemscore.Internal_Hbond>
0.0000

> <Gold.Chemscore.DEClash>
0.0474

> <Gold.Chemscore.DEInternal>
3.3918

> <Gold.Chemscore.Rot>
2.4894

> <Gold.Chemscore.Internal.Correction>
   9.000000E+99

> <Gold.Chemscore.Hbonds>
donor molecule, donor type, donor heavy atom, donor atom, acceptor molecule, acceptor atom, score
      P1  H  6931  6943       L1    25  0.92
      P1  H  6934  6947       L1    25  0.68

> <Gold.Chemscore.Hbond.Weighted>
-5.7421

> <Gold.Chemscore.Metal.Weighted>
-0.0000

> <Gold.Chemscore.Lipo.Weighted>
-14.1717

> <Gold.Chemscore.Internal_Hbond.Weighted>
0.0000

> <Gold.Chemscore.DEClash.Weighted>
0.0474

> <Gold.Chemscore.DEInternal.Weighted>
3.3918

> <Gold.Chemscore.Rot.Weighted>
6.3728

> <Gold.Chemscore.Internal.Correction.Weighted>
   9.000000E+99

> <Gold.Protein.RotatedTorsions>
[ 6907 6896 6895 6894 ] final  107.67 input  -60.11 | X-H torsion
[ 7974 7965 7964 7962 ] final    0.30 input  175.53 | X-H torsion
[ 8008 7997 7996 7995 ] final   21.95 input   59.86 | X-H torsion
[ 10167 10162 10161 10158 ] final  146.31 input  -65.29 | X-H torsion
[ 10718 10713 10712 10709 ] final -114.70 input   66.30 | X-H torsion
[ 10763 10752 10751 10750 ] final -157.35 input  -60.55 | X-H torsion
[ 11005 11000 10999 10996 ] final -149.41 input  -57.11 | X-H torsion

> <Gold.Protein.ActiveResidues>
 VAL166  LYS551  ARG553  GLY616  TRP617  ASP618  TYR619  PRO620  LYS621  CYS622 
 ASP623  PHE694  ASN695  SER759  ASP760  ASP761  ALA762  ILE779  LEU786  VAL792 
 PHE793  MET794  SER795  GLU796  ALA797  LYS798  CYS799  TRP800  GLU811  SER814 

> <Gold.Protein.RotatedAtoms>
  152.5145  133.9201  159.7529 H   0  0  0  0  0  0  0  0  0  0  0  0  # atno 6907 bound_to 6896
  150.9574  133.6473  159.2767 H   0  0  0  0  0  0  0  0  0  0  0  0  # atno 6908 bound_to 6896
  151.3730  135.0931  159.9524 H   0  0  0  0  0  0  0  0  0  0  0  0  # atno 6909 bound_to 6896
  146.2433  140.1158  142.8342 H   0  0  0  0  0  0  0  0  0  0  0  0  # atno 7974 bound_to 7965
  154.9583  140.3074  155.5043 H   0  0  0  0  0  0  0  0  0  0  0  0  # atno 8008 bound_to 7997
  156.2980  140.2306  156.4604 H   0  0  0  0  0  0  0  0  0  0  0  0  # atno 8009 bound_to 7997
  154.7989  140.0435  157.1246 H   0  0  0  0  0  0  0  0  0  0  0  0  # atno 8010 bound_to 7997
  139.4909  144.5839  151.6818 H   0  0  0  0  0  0  0  0  0  0  0  0  # atno 10167 bound_to 10162
  156.0847  130.6041  150.8810 H   0  0  0  0  0  0  0  0  0  0  0  0  # atno 10718 bound_to 10713
  154.7642  135.3126  154.8318 H   0  0  0  0  0  0  0  0  0  0  0  0  # atno 10763 bound_to 10752
  153.9071  135.6809  153.4757 H   0  0  0  0  0  0  0  0  0  0  0  0  # atno 10764 bound_to 10752
  153.1246  135.4807  154.9184 H   0  0  0  0  0  0  0  0  0  0  0  0  # atno 10765 bound_to 10752
  140.7510  134.3406  157.5125 H   0  0  0  0  0  0  0  0  0  0  0  0  # atno 11005 bound_to 11000
  145.0448  140.8973  143.5031 LP  0  0  0  0  0  0  0  0  0  0  0  0  # atno 17320 bound_to 7965
  145.1245  139.2671  143.5571 LP  0  0  0  0  0  0  0  0  0  0  0  0  # atno 17321 bound_to 7965
  140.5450  144.0517  150.6103 LP  0  0  0  0  0  0  0  0  0  0  0  0  # atno 17342 bound_to 10162
  140.3552  143.2940  152.0443 LP  0  0  0  0  0  0  0  0  0  0  0  0  # atno 17343 bound_to 10162
  157.5977  131.0942  150.9012 LP  0  0  0  0  0  0  0  0  0  0  0  0  # atno 17370 bound_to 10713
  156.9176  130.5303  149.5279 LP  0  0  0  0  0  0  0  0  0  0  0  0  # atno 17371 bound_to 10713
  139.8787  134.9142  156.3102 LP  0  0  0  0  0  0  0  0  0  0  0  0  # atno 17394 bound_to 11000
  140.9750  133.7303  156.0589 LP  0  0  0  0  0  0  0  0  0  0  0  0  # atno 17395 bound_to 11000

$$$$
