AV-unprocessed.smi:1296|AV-procd|sdf|5414|dock10
  -GOLD-   22720 4573D 1   1.00000     0.00000
 Structure written by MMmdl.
 36 36  0  0  0  0  0  0  0  0  1 V2000
  150.8909  142.8824  157.5537 C   0  0  0  0  0  0  0  0  0  0  0  0
  150.9877  141.6013  156.7536 C   0  0  0  0  0  0  0  0  0  0  0  0
  149.8961  141.3750  155.9316 N   0  0  0  0  0  0  0  0  0  0  0  0
  149.8877  140.2199  155.1698 C   0  0  0  0  0  0  0  0  0  0  0  0
  148.6536  140.0445  154.3023 C   0  0  0  0  0  0  0  0  0  0  0  0
  150.9188  139.3386  155.2185 C   0  0  0  0  0  0  0  0  0  0  0  0
  150.9477  138.0506  154.3960 C   0  0  0  0  0  0  0  0  0  0  0  0
  151.0488  136.7411  155.1828 C   0  0  0  0  0  0  0  0  0  0  0  0
  151.8177  136.6367  156.1388 O   0  0  0  0  0  0  0  0  0  0  0  0
  150.2567  135.7441  154.7649 N   0  0  0  0  0  0  0  0  0  0  0  0
  150.1899  134.4271  155.3853 C   0  0  0  0  0  0  0  0  0  0  0  0
  149.4698  133.4087  154.4802 C   0  0  0  0  0  0  0  0  0  0  0  0
  147.9651  133.7023  154.3470 C   0  0  0  0  0  0  0  0  0  0  0  0
  149.6988  131.9761  154.9837 C   0  0  0  0  0  0  0  0  0  0  0  0
  152.0665  139.6432  156.1051 C   0  0  0  0  0  0  0  0  0  0  0  0
  153.0407  138.8953  156.1770 O   0  0  0  0  0  0  0  0  0  0  0  0
  152.0200  140.8220  156.8671 N   0  0  0  0  0  0  0  0  0  0  0  0
  149.1090  142.0039  155.8647 H   0  0  0  0  0  0  0  0  0  0  0  0
  151.7966  143.0462  158.1389 H   0  0  0  0  0  0  0  0  0  0  0  0
  150.0446  142.8377  158.2398 H   0  0  0  0  0  0  0  0  0  0  0  0
  150.7550  143.7370  156.8903 H   0  0  0  0  0  0  0  0  0  0  0  0
  148.1067  139.1478  154.5940 H   0  0  0  0  0  0  0  0  0  0  0  0
  148.9355  139.9512  153.2532 H   0  0  0  0  0  0  0  0  0  0  0  0
  147.9756  140.8941  154.3917 H   0  0  0  0  0  0  0  0  0  0  0  0
  151.7979  138.0955  153.7150 H   0  0  0  0  0  0  0  0  0  0  0  0
  150.0744  137.9963  153.7450 H   0  0  0  0  0  0  0  0  0  0  0  0
  149.6535  135.9109  153.9726 H   0  0  0  0  0  0  0  0  0  0  0  0
  151.2051  134.0865  155.5950 H   0  0  0  0  0  0  0  0  0  0  0  0
  149.6758  134.5051  156.3448 H   0  0  0  0  0  0  0  0  0  0  0  0
  149.9092  133.4762  153.4838 H   0  0  0  0  0  0  0  0  0  0  0  0
  147.4702  133.6777  155.3185 H   0  0  0  0  0  0  0  0  0  0  0  0
  147.4776  132.9658  153.7077 H   0  0  0  0  0  0  0  0  0  0  0  0
  147.7834  134.6823  153.9057 H   0  0  0  0  0  0  0  0  0  0  0  0
  149.2854  131.8369  155.9832 H   0  0  0  0  0  0  0  0  0  0  0  0
  150.7622  131.7396  155.0271 H   0  0  0  0  0  0  0  0  0  0  0  0
  149.2277  131.2466  154.3244 H   0  0  0  0  0  0  0  0  0  0  0  0
  1 19  1  0  0  0  0
  1 20  1  0  0  0  0
  1 21  1  0  0  0  0
  1  2  1  0  0  0  0
  2  3  1  0  0  0  0
  2 17  2  0  0  0  0
  3  4  1  0  0  0  0
  3 18  1  0  0  0  0
  4  6  2  0  0  0  0
  4  5  1  0  0  0  0
  5 22  1  0  0  0  0
  5 23  1  0  0  0  0
  5 24  1  0  0  0  0
  6 15  1  0  0  0  0
  6  7  1  0  0  0  0
  7  8  1  0  0  0  0
  7 25  1  0  0  0  0
  7 26  1  0  0  0  0
  8  9  2  0  0  0  0
  8 10  1  0  0  0  0
 10 11  1  0  0  0  0
 10 27  1  0  0  0  0
 11 12  1  0  0  0  0
 11 28  1  0  0  0  0
 11 29  1  0  0  0  0
 12 13  1  0  0  0  0
 12 14  1  0  0  0  0
 12 30  1  0  0  0  0
 13 31  1  0  0  0  0
 13 32  1  0  0  0  0
 13 33  1  0  0  0  0
 14 34  1  0  0  0  0
 14 35  1  0  0  0  0
 14 36  1  0  0  0  0
 15 16  2  0  0  0  0
 15 17  1  0  0  0  0
M  END
> <s_m_source_file>
AV-unprocessed.smi

> <i_m_source_file_index>
1296

> <i_lp_mmshare_version>
43012

> <i_f3d_flags>
0

> <s_epik_input>
W0NIM11jMW5jKFtDSDNdKWMoYyg9TylbbkhdMSlbQ0gyXUMoPU8pW05IXVtDSDJdW0NIXShbQ0gzXSlbQ0gzXQ==

> <s_epik_cmdline>
J2VwaWtfcHl0aG9uJywgJy1waCcsICc3LjAnLCAnLXRuJywgJzgnLCAnLW1hJywgJzIwMCcsICctbWV0YWxfYmluZGluZycsICctaW1hZScsICc8aW5maWxlLm1hZT4nLCAnLW9tYWUnLCAnPG91dGZpbGUubWFlPic=

> <r_lp_tautomer_probability>
0.156392

> <r_epik_Ionization_Penalty>
0.0142343

> <r_epik_Ionization_Penalty_Charging>
0.0141145

> <r_epik_Ionization_Penalty_Neutral>
0.000119779

> <r_epik_State_Penalty>
1.52879

> <r_epik_Charging_Adjusted_Penalty>
1.5429

> <i_epik_Tot_Q>
0

> <i_epik_Tot_abs_Q>
0

> <r_epik_Metal_State_Penalty>
1.70685

> <b_epik_Metal_Only>
0

> <s_lp_Force_Field>
OPLS_2005

> <r_lp_Energy>
9.70595

> <b_lp_Chiralities_Consistent>
1

> <s_lp_Variant>
AV-unprocessed.smi:1296-2

> <Gold.Version>
5.8.1

> <Gold.Id.Protein>
6NUR|6NUR_protein|mol2

> <Gold.PLP.Fitness>
41.0634

> <Gold.PLP.PLP>
-32.8110

> <Gold.PLP.part.hbond>
-4.1853

> <Gold.PLP.part.metal>
0.0000

> <Gold.PLP.part.buried>
0.6717

> <Gold.PLP.part.nonpolar>
-28.8958

> <Gold.PLP.part.repulsive>
0.2167

> <Gold.PLP.ligand.clash>
0.0000

> <Gold.PLP.ligand.torsion>
0.3807

> <Gold.PLP.Chemscore.Hbond>
3.0000

> <Gold.PLP.Chemscore.CHOScore>
0.0000

> <Gold.PLP.Chemscore.Metal>
0.0000

> <Gold.Chemscore.Hbonds>
donor molecule, donor type, donor heavy atom, donor atom, acceptor molecule, acceptor atom, score
      L1  H    10    27       P1  7948  0.55
      P1  H  7997  8009       L1    16  1.00
      P1  H 10752 10763       L1     9  0.55

> <Gold.PLP.Chemscore.Internal.Correction>
0.0138

> <Gold.Rescore>
     Score         DG    S(hbond)    S(metal)    S(lipo)     H(rot)  DE(clash)    DE(int)     intcor
     14.21     -16.08       2.50        0.00      56.95       1.73       0.05       1.82       ----

> <Gold.Chemscore.Fitness>
14.2081

> <Gold.Chemscore.DG>
-16.0806

> <Gold.Chemscore.ZeroCoef>
-5.4800

> <Gold.Chemscore.Hbond>
2.5047

> <Gold.Chemscore.Metal>
0.0000

> <Gold.Chemscore.Lipo>
56.9458

> <Gold.Chemscore.Internal_Hbond>
0.0000

> <Gold.Chemscore.DEClash>
0.0526

> <Gold.Chemscore.DEInternal>
1.8199

> <Gold.Chemscore.Rot>
1.7296

> <Gold.Chemscore.Internal.Correction>
   9.000000E+99

> <Gold.Chemscore.Hbonds>
donor molecule, donor type, donor heavy atom, donor atom, acceptor molecule, acceptor atom, score
      L1  H    10    27       P1  7948  0.21
      P1  H  7997  8009       L1    16  0.30
      P1  H 10752 10763       L1     9  0.04

> <Gold.Chemscore.Hbond.Weighted>
-8.3656

> <Gold.Chemscore.Metal.Weighted>
-0.0000

> <Gold.Chemscore.Lipo.Weighted>
-6.6627

> <Gold.Chemscore.Internal_Hbond.Weighted>
0.0000

> <Gold.Chemscore.DEClash.Weighted>
0.0526

> <Gold.Chemscore.DEInternal.Weighted>
1.8199

> <Gold.Chemscore.Rot.Weighted>
4.4277

> <Gold.Chemscore.Internal.Correction.Weighted>
   9.000000E+99

> <Gold.Protein.RotatedTorsions>
[ 6907 6896 6895 6894 ] final   38.94 input  -60.11 | X-H torsion
[ 7974 7965 7964 7962 ] final  136.99 input  175.53 | X-H torsion
[ 8008 7997 7996 7995 ] final -173.12 input   59.86 | X-H torsion
[ 10167 10162 10161 10158 ] final  -98.82 input  -65.29 | X-H torsion
[ 10718 10713 10712 10709 ] final    2.71 input   66.30 | X-H torsion
[ 10763 10752 10751 10750 ] final   88.23 input  -60.55 | X-H torsion
[ 11005 11000 10999 10996 ] final   29.64 input  -57.11 | X-H torsion

> <Gold.Protein.ActiveResidues>
 VAL166  LYS551  ARG553  GLY616  TRP617  ASP618  TYR619  PRO620  LYS621  CYS622 
 ASP623  PHE694  ASN695  SER759  ASP760  ASP761  ALA762  ILE779  LEU786  VAL792 
 PHE793  MET794  SER795  GLU796  ALA797  LYS798  CYS799  TRP800  GLU811  SER814 

> <Gold.Protein.RotatedAtoms>
  152.1631  134.8896  160.0539 H   0  0  0  0  0  0  0  0  0  0  0  0  # atno 6907 bound_to 6896
  151.9884  133.3777  159.4143 H   0  0  0  0  0  0  0  0  0  0  0  0  # atno 6908 bound_to 6896
  150.6890  134.3886  159.5110 H   0  0  0  0  0  0  0  0  0  0  0  0  # atno 6909 bound_to 6896
  144.9511  139.4817  143.5525 H   0  0  0  0  0  0  0  0  0  0  0  0  # atno 7974 bound_to 7965
  155.9533  140.1130  157.0958 H   0  0  0  0  0  0  0  0  0  0  0  0  # atno 8008 bound_to 7997
  154.4114  140.1196  156.5148 H   0  0  0  0  0  0  0  0  0  0  0  0  # atno 8009 bound_to 7997
  155.6814  140.3473  155.4859 H   0  0  0  0  0  0  0  0  0  0  0  0  # atno 8010 bound_to 7997
  140.2689  143.3357  152.0553 H   0  0  0  0  0  0  0  0  0  0  0  0  # atno 10167 bound_to 10162
  156.8670  130.5606  149.5659 H   0  0  0  0  0  0  0  0  0  0  0  0  # atno 10718 bound_to 10713
  153.1747  135.4514  154.9950 H   0  0  0  0  0  0  0  0  0  0  0  0  # atno 10763 bound_to 10752
  154.7990  135.3248  154.7599 H   0  0  0  0  0  0  0  0  0  0  0  0  # atno 10764 bound_to 10752
  153.8070  135.6958  153.4901 H   0  0  0  0  0  0  0  0  0  0  0  0  # atno 10765 bound_to 10752
  140.3028  134.2738  155.7750 H   0  0  0  0  0  0  0  0  0  0  0  0  # atno 11005 bound_to 11000
  146.3321  139.8598  142.8858 LP  0  0  0  0  0  0  0  0  0  0  0  0  # atno 17320 bound_to 7965
  145.2842  141.0148  143.3700 LP  0  0  0  0  0  0  0  0  0  0  0  0  # atno 17321 bound_to 7965
  139.4994  144.6669  151.6335 LP  0  0  0  0  0  0  0  0  0  0  0  0  # atno 17342 bound_to 10162
  140.5905  143.9787  150.6322 LP  0  0  0  0  0  0  0  0  0  0  0  0  # atno 17343 bound_to 10162
  156.0746  130.5771  150.9450 LP  0  0  0  0  0  0  0  0  0  0  0  0  # atno 17370 bound_to 10713
  157.6217  131.0929  150.8609 LP  0  0  0  0  0  0  0  0  0  0  0  0  # atno 17371 bound_to 10713
  141.2124  133.7657  156.9792 LP  0  0  0  0  0  0  0  0  0  0  0  0  # atno 17394 bound_to 11000
  140.1094  134.9486  157.2043 LP  0  0  0  0  0  0  0  0  0  0  0  0  # atno 17395 bound_to 11000

$$$$
