AV-unprocessed.smi:260|AV-procd|sdf|1976|dock1
  -GOLD-   2262021143D 1   1.00000     0.00000
 Structure written by MMmdl.
 53 56  0  0  0  0  0  0  0  0  1 V2000
  146.3752  134.7859  152.5388 C   0  0  0  0  0  0  0  0  0  0  0  0
  147.6327  134.4847  153.2054 N   0  0  0  0  0  0  0  0  0  0  0  0
  147.7869  133.5355  154.1424 C   0  0  0  0  0  0  0  0  0  0  0  0
  146.8460  132.8376  154.5235 O   0  0  0  0  0  0  0  0  0  0  0  0
  149.1938  133.3225  154.7610 C   0  0  2  0  0  0  0  0  0  0  0  0
  149.7711  131.9889  154.2467 C   0  0  0  0  0  0  0  0  0  0  0  0
  149.2302  133.4080  156.3044 C   0  0  0  0  0  0  0  0  0  0  0  0
  149.3228  134.9069  156.6184 C   0  0  0  0  0  0  0  0  0  0  0  0
  149.8534  135.5230  155.4114 N   0  0  0  0  0  0  0  0  0  0  0  0
  150.5425  136.6932  155.4447 C   0  0  0  0  0  0  0  0  0  0  0  0
  151.4870  136.9181  154.4932 N   0  0  0  0  0  0  0  0  0  0  0  0
  152.1858  138.0563  154.4843 C   0  0  0  0  0  0  0  0  0  0  0  0
  152.1028  139.0918  155.3203 N   0  0  0  0  0  0  0  0  0  0  0  0
  151.1526  138.8806  156.2750 C   0  0  0  0  0  0  0  0  0  0  0  0
  150.3309  137.7237  156.4084 C   0  0  0  0  0  0  0  0  0  0  0  0
  149.4722  137.8866  157.4904 N   0  0  0  0  0  0  0  0  0  0  0  0
  149.7755  139.0598  157.9728 C   0  0  0  0  0  0  0  0  0  0  0  0
  150.7874  139.7194  157.3139 N   0  0  0  0  0  0  0  0  0  0  0  0
  151.3146  141.0359  157.6307 C   0  0  0  0  0  0  0  0  0  0  0  0
  150.2571  142.1620  157.5645 C   0  0  2  0  0  0  0  0  0  0  0  0
  150.0684  142.4315  156.1900 O   0  0  0  0  0  0  0  0  0  0  0  0
  150.6640  143.4933  158.2373 C   0  0  2  0  0  0  0  0  0  0  0  0
  151.9603  144.1349  157.7359 C   0  0  0  0  0  0  0  0  0  0  0  0
  152.4385  144.9678  158.9140 C   0  0  0  0  0  0  0  0  0  0  0  0
  151.6501  144.4110  160.1000 C   0  0  0  0  0  0  0  0  0  0  0  0
  151.0023  143.2521  159.5958 O   0  0  0  0  0  0  0  0  0  0  0  0
  150.1068  134.5085  154.3955 C   0  0  0  0  0  0  0  0  0  0  0  0
  146.5183  135.5954  151.8235 H   0  0  0  0  0  0  0  0  0  0  0  0
  145.6179  135.0971  153.2592 H   0  0  0  0  0  0  0  0  0  0  0  0
  146.0046  133.9143  151.9982 H   0  0  0  0  0  0  0  0  0  0  0  0
  148.4410  135.0254  152.9335 H   0  0  0  0  0  0  0  0  0  0  0  0
  150.7816  131.8229  154.6214 H   0  0  0  0  0  0  0  0  0  0  0  0
  149.8251  131.9640  153.1574 H   0  0  0  0  0  0  0  0  0  0  0  0
  149.1612  131.1439  154.5690 H   0  0  0  0  0  0  0  0  0  0  0  0
  148.3952  132.9217  156.8097 H   0  0  0  0  0  0  0  0  0  0  0  0
  150.1339  132.9204  156.6728 H   0  0  0  0  0  0  0  0  0  0  0  0
  148.3359  135.3224  156.8239 H   0  0  0  0  0  0  0  0  0  0  0  0
  149.9592  135.0832  157.4862 H   0  0  0  0  0  0  0  0  0  0  0  0
  152.9164  138.1494  153.6942 H   0  0  0  0  0  0  0  0  0  0  0  0
  149.2683  139.4768  158.8308 H   0  0  0  0  0  0  0  0  0  0  0  0
  151.7838  141.0120  158.6150 H   0  0  0  0  0  0  0  0  0  0  0  0
  152.1137  141.2338  156.9145 H   0  0  0  0  0  0  0  0  0  0  0  0
  149.3094  141.8091  157.9726 H   0  0  0  0  0  0  0  0  0  0  0  0
  149.9282  143.3598  156.0828 H   0  0  0  0  0  0  0  0  0  0  0  0
  149.8515  144.2211  158.1847 H   0  0  0  0  0  0  0  0  0  0  0  0
  152.7021  143.3667  157.5138 H   0  0  0  0  0  0  0  0  0  0  0  0
  151.8132  144.7370  156.8400 H   0  0  0  0  0  0  0  0  0  0  0  0
  153.5146  144.8643  159.0556 H   0  0  0  0  0  0  0  0  0  0  0  0
  152.2172  146.0258  158.7703 H   0  0  0  0  0  0  0  0  0  0  0  0
  152.2875  144.1644  160.9491 H   0  0  0  0  0  0  0  0  0  0  0  0
  150.8984  145.1280  160.4335 H   0  0  0  0  0  0  0  0  0  0  0  0
  151.1574  134.2163  154.4318 H   0  0  0  0  0  0  0  0  0  0  0  0
  149.9060  134.8982  153.3964 H   0  0  0  0  0  0  0  0  0  0  0  0
  1  2  1  0  0  0  0
  1 28  1  0  0  0  0
  1 29  1  0  0  0  0
  1 30  1  0  0  0  0
  2  3  1  0  0  0  0
  2 31  1  0  0  0  0
  3  4  2  0  0  0  0
  3  5  1  0  0  0  0
  5 27  1  0  0  0  0
  5  6  1  0  0  0  0
  5  7  1  0  0  0  0
  6 32  1  0  0  0  0
  6 33  1  0  0  0  0
  6 34  1  0  0  0  0
  7  8  1  0  0  0  0
  7 35  1  0  0  0  0
  7 36  1  0  0  0  0
  8  9  1  0  0  0  0
  8 37  1  0  0  0  0
  8 38  1  0  0  0  0
  9 10  1  0  0  0  0
  9 27  1  0  0  0  0
 10 15  1  0  0  0  0
 10 11  2  0  0  0  0
 11 12  1  0  0  0  0
 12 13  2  0  0  0  0
 12 39  1  0  0  0  0
 13 14  1  0  0  0  0
 14 18  1  0  0  0  0
 14 15  2  0  0  0  0
 15 16  1  0  0  0  0
 16 17  2  0  0  0  0
 17 18  1  0  0  0  0
 17 40  1  0  0  0  0
 18 19  1  0  0  0  0
 19 20  1  0  0  0  0
 19 41  1  0  0  0  0
 19 42  1  0  0  0  0
 20 21  1  0  0  0  0
 20 22  1  0  0  0  0
 20 43  1  0  0  0  0
 21 44  1  0  0  0  0
 22 26  1  0  0  0  0
 22 23  1  0  0  0  0
 22 45  1  0  0  0  0
 23 24  1  0  0  0  0
 23 46  1  0  0  0  0
 23 47  1  0  0  0  0
 24 25  1  0  0  0  0
 24 48  1  0  0  0  0
 24 49  1  0  0  0  0
 25 26  1  0  0  0  0
 25 50  1  0  0  0  0
 25 51  1  0  0  0  0
 27 52  1  0  0  0  0
 27 53  1  0  0  0  0
M  END
> <s_m_source_file>
AV-unprocessed.smi

> <i_m_source_file_index>
260

> <i_lp_mmshare_version>
43012

> <i_f3d_flags>
0

> <s_epik_input>
W0NIM11bTkhdQyg9TylbQ0BAXTEoW0NIM10pW0NIMl1bQ0gyXU4oW0NIMl0xKWMobltjSF1uMiljKGMyMyluW2NIXW4zW0NIMl1bQ0BIXShbT0hdKVtDQEBIXTRbQ0gyXVtDSDJdW0NIMl1PNA==

> <s_epik_cmdline>
J2VwaWtfcHl0aG9uJywgJy1waCcsICc3LjAnLCAnLXRuJywgJzgnLCAnLW1hJywgJzIwMCcsICctbWV0YWxfYmluZGluZycsICctaW1hZScsICc8aW5maWxlLm1hZT4nLCAnLW9tYWUnLCAnPG91dGZpbGUubWFlPic=

> <r_lp_tautomer_probability>
1

> <r_epik_Ionization_Penalty>
0.00115068

> <r_epik_Ionization_Penalty_Charging>
0

> <r_epik_Ionization_Penalty_Neutral>
0.00115068

> <r_epik_State_Penalty>
0.000668876

> <r_epik_Charging_Adjusted_Penalty>
0.000668876

> <i_epik_Tot_Q>
0

> <i_epik_Tot_abs_Q>
0

> <r_epik_Metal_State_Penalty>
-0

> <b_epik_Metal_Only>
0

> <s_lp_Force_Field>
OPLS_2005

> <r_lp_Energy>
52.371

> <b_lp_Chiralities_Consistent>
1

> <s_lp_Variant>
AV-unprocessed.smi:260-2

> <Gold.Version>
5.8.1

> <Gold.Id.Protein>
6NUR|6NUR_protein|mol2

> <Gold.PLP.Fitness>
50.8849

> <Gold.PLP.PLP>
-42.9724

> <Gold.PLP.part.hbond>
-3.0000

> <Gold.PLP.part.metal>
0.0000

> <Gold.PLP.part.buried>
-8.3469

> <Gold.PLP.part.nonpolar>
-32.0491

> <Gold.PLP.part.repulsive>
0.2860

> <Gold.PLP.ligand.clash>
0.1627

> <Gold.PLP.ligand.torsion>
0.6393

> <Gold.PLP.Chemscore.Hbond>
2.9920

> <Gold.PLP.Chemscore.CHOScore>
0.0000

> <Gold.PLP.Chemscore.Metal>
0.0000

> <Gold.Chemscore.Hbonds>
donor molecule, donor type, donor heavy atom, donor atom, acceptor molecule, acceptor atom, score
      L1  H     2    31       P1  7948  0.86
      L1  H    21    44       P1  8028  1.00
      P1  H 10752 10763       L1    11  1.00

> <Gold.PLP.Chemscore.Internal.Correction>
0.3778

> <Gold.Rescore>
     Score         DG    S(hbond)    S(metal)    S(lipo)     H(rot)  DE(clash)    DE(int)     intcor
     16.27     -16.86       2.19        0.00      90.03       2.53       0.04       0.55       ----

> <Gold.Chemscore.Fitness>
16.2693

> <Gold.Chemscore.DG>
-16.8618

> <Gold.Chemscore.ZeroCoef>
-5.4800

> <Gold.Chemscore.Hbond>
2.1900

> <Gold.Chemscore.Metal>
0.0000

> <Gold.Chemscore.Lipo>
90.0297

> <Gold.Chemscore.Internal_Hbond>
0.0000

> <Gold.Chemscore.DEClash>
0.0412

> <Gold.Chemscore.DEInternal>
0.5513

> <Gold.Chemscore.Rot>
2.5259

> <Gold.Chemscore.Internal.Correction>
   9.000000E+99

> <Gold.Chemscore.Hbonds>
donor molecule, donor type, donor heavy atom, donor atom, acceptor molecule, acceptor atom, score
      L1  H     2    31       P1  7948  0.63
      L1  H    21    44       P1  8028  0.95
      P1  H 10752 10763       L1    11  0.24

> <Gold.Chemscore.Hbond.Weighted>
-7.3146

> <Gold.Chemscore.Metal.Weighted>
-0.0000

> <Gold.Chemscore.Lipo.Weighted>
-10.5335

> <Gold.Chemscore.Internal_Hbond.Weighted>
0.0000

> <Gold.Chemscore.DEClash.Weighted>
0.0412

> <Gold.Chemscore.DEInternal.Weighted>
0.5513

> <Gold.Chemscore.Rot.Weighted>
6.4663

> <Gold.Chemscore.Internal.Correction.Weighted>
   9.000000E+99

> <Gold.Protein.RotatedTorsions>
[ 6907 6896 6895 6894 ] final  -38.23 input  -60.11 | X-H torsion
[ 7974 7965 7964 7962 ] final -112.33 input  175.53 | X-H torsion
[ 8008 7997 7996 7995 ] final -134.07 input   59.86 | X-H torsion
[ 10167 10162 10161 10158 ] final    5.36 input  -65.29 | X-H torsion
[ 10718 10713 10712 10709 ] final -127.49 input   66.30 | X-H torsion
[ 10763 10752 10751 10750 ] final   44.49 input  -60.55 | X-H torsion
[ 11005 11000 10999 10996 ] final  110.10 input  -57.11 | X-H torsion

> <Gold.Protein.ActiveResidues>
 VAL166  LYS551  ARG553  GLY616  TRP617  ASP618  TYR619  PRO620  LYS621  CYS622 
 ASP623  PHE694  ASN695  SER759  ASP760  ASP761  ALA762  ILE779  LEU786  VAL792 
 PHE793  MET794  SER795  GLU796  ALA797  LYS798  CYS799  TRP800  GLU811  SER814 

> <Gold.Protein.RotatedAtoms>
  151.0050  134.9352  159.7974 H   0  0  0  0  0  0  0  0  0  0  0  0  # atno 6907 bound_to 6896
  152.5288  134.3104  159.9121 H   0  0  0  0  0  0  0  0  0  0  0  0  # atno 6908 bound_to 6896
  151.3110  133.4039  159.2681 H   0  0  0  0  0  0  0  0  0  0  0  0  # atno 6909 bound_to 6896
  145.1453  140.8800  143.3678 H   0  0  0  0  0  0  0  0  0  0  0  0  # atno 7974 bound_to 7965
  155.3560  140.0480  157.3046 H   0  0  0  0  0  0  0  0  0  0  0  0  # atno 8008 bound_to 7997
  154.5203  140.2222  155.8953 H   0  0  0  0  0  0  0  0  0  0  0  0  # atno 8009 bound_to 7997
  156.1681  140.3102  155.8931 H   0  0  0  0  0  0  0  0  0  0  0  0  # atno 8010 bound_to 7997
  140.6486  143.7600  150.7539 H   0  0  0  0  0  0  0  0  0  0  0  0  # atno 10167 bound_to 10162
  156.1862  130.6765  151.0367 H   0  0  0  0  0  0  0  0  0  0  0  0  # atno 10718 bound_to 10713
  152.9840  135.6069  154.3282 H   0  0  0  0  0  0  0  0  0  0  0  0  # atno 10763 bound_to 10752
  154.2987  135.2773  155.2623 H   0  0  0  0  0  0  0  0  0  0  0  0  # atno 10764 bound_to 10752
  154.4885  135.5898  153.6498 H   0  0  0  0  0  0  0  0  0  0  0  0  # atno 10765 bound_to 10752
  139.8875  134.9475  156.6226 H   0  0  0  0  0  0  0  0  0  0  0  0  # atno 11005 bound_to 11000
  145.0489  139.3198  143.5939 LP  0  0  0  0  0  0  0  0  0  0  0  0  # atno 17320 bound_to 7965
  146.3501  139.9890  142.8687 LP  0  0  0  0  0  0  0  0  0  0  0  0  # atno 17321 bound_to 7965
  140.1246  143.4580  152.2292 LP  0  0  0  0  0  0  0  0  0  0  0  0  # atno 17342 bound_to 10162
  139.5699  144.7457  151.3920 LP  0  0  0  0  0  0  0  0  0  0  0  0  # atno 17343 bound_to 10162
  157.6900  131.0813  150.7135 LP  0  0  0  0  0  0  0  0  0  0  0  0  # atno 17370 bound_to 10713
  156.7191  130.4675  149.5527 LP  0  0  0  0  0  0  0  0  0  0  0  0  # atno 17371 bound_to 10713
  140.7727  133.8725  155.8505 LP  0  0  0  0  0  0  0  0  0  0  0  0  # atno 17394 bound_to 11000
  140.9828  134.1383  157.4479 LP  0  0  0  0  0  0  0  0  0  0  0  0  # atno 17395 bound_to 11000

$$$$
