AV-unprocessed.smi:2063|AV-procd|sdf|8409|dock6
  -GOLD-   2272011103D 1   1.00000     0.00000
 Structure written by MMmdl.
 39 40  0  0  0  0  0  0  0  0  1 V2000
  151.9656  140.3033  157.7872 C   0  0  0  0  0  0  0  0  0  0  0  0
  151.4037  140.8061  156.4495 C   0  0  0  0  0  0  0  0  0  0  0  0
  151.0037  142.2876  156.5013 C   0  0  0  0  0  0  0  0  0  0  0  0
  150.2845  139.9433  155.9530 C   0  0  0  0  0  0  0  0  0  0  0  0
  149.1239  139.8210  156.6101 N   0  0  0  0  0  0  0  0  0  0  0  0
  148.2390  138.9672  155.9669 N   0  0  0  0  0  0  0  0  0  0  0  0
  148.7582  138.4665  154.8378 C   0  0  0  0  0  0  0  0  0  0  0  0
  148.0685  137.5670  153.9824 N   0  0  0  0  0  0  0  0  0  0  0  0
  146.7646  137.2384  153.9944 C   0  0  0  0  0  0  0  0  0  0  0  0
  145.9286  137.6737  154.7865 O   0  0  0  0  0  0  0  0  0  0  0  0
  146.4798  136.3594  153.0222 N   0  0  0  0  0  0  0  0  0  0  0  0
  145.1657  135.7776  152.7569 C   0  0  1  0  0  0  0  0  0  0  0  0
  144.1570  136.9203  152.5626 C   0  0  0  0  0  0  0  0  0  0  0  0
  145.2431  134.8499  151.5268 C   0  0  2  0  0  0  0  0  0  0  0  0
  143.9551  134.0869  151.2173 C   0  0  0  0  0  0  0  0  0  0  0  0
  144.4387  132.8829  150.4261 C   0  0  0  0  0  0  0  0  0  0  0  0
  145.9342  132.8042  150.7463 C   0  0  0  0  0  0  0  0  0  0  0  0
  146.1570  133.7865  151.7487 O   0  0  0  0  0  0  0  0  0  0  0  0
  150.3859  139.0052  154.4641 S   0  0  0  0  0  0  0  0  0  0  0  0
  152.3058  139.2706  157.7058 H   0  0  0  0  0  0  0  0  0  0  0  0
  151.2150  140.3458  158.5769 H   0  0  0  0  0  0  0  0  0  0  0  0
  152.8161  140.9059  158.1065 H   0  0  0  0  0  0  0  0  0  0  0  0
  152.2131  140.7271  155.7219 H   0  0  0  0  0  0  0  0  0  0  0  0
  150.6717  142.6380  155.5235 H   0  0  0  0  0  0  0  0  0  0  0  0
  151.8450  142.9107  156.8061 H   0  0  0  0  0  0  0  0  0  0  0  0
  150.1922  142.4576  157.2094 H   0  0  0  0  0  0  0  0  0  0  0  0
  148.6356  137.1201  153.2774 H   0  0  0  0  0  0  0  0  0  0  0  0
  147.2338  136.0576  152.4230 H   0  0  0  0  0  0  0  0  0  0  0  0
  144.8394  135.1926  153.6186 H   0  0  0  0  0  0  0  0  0  0  0  0
  143.1457  136.5388  152.4212 H   0  0  0  0  0  0  0  0  0  0  0  0
  144.4080  137.5286  151.6930 H   0  0  0  0  0  0  0  0  0  0  0  0
  144.1359  137.5763  153.4336 H   0  0  0  0  0  0  0  0  0  0  0  0
  145.5626  135.4101  150.6455 H   0  0  0  0  0  0  0  0  0  0  0  0
  143.4856  133.7503  152.1427 H   0  0  0  0  0  0  0  0  0  0  0  0
  143.2286  134.6869  150.6690 H   0  0  0  0  0  0  0  0  0  0  0  0
  143.9084  131.9773  150.7226 H   0  0  0  0  0  0  0  0  0  0  0  0
  144.2866  133.0267  149.3559 H   0  0  0  0  0  0  0  0  0  0  0  0
  146.2352  131.8168  151.0967 H   0  0  0  0  0  0  0  0  0  0  0  0
  146.5281  133.0485  149.8645 H   0  0  0  0  0  0  0  0  0  0  0  0
  1  2  1  0  0  0  0
  1 20  1  0  0  0  0
  1 21  1  0  0  0  0
  1 22  1  0  0  0  0
  2  3  1  0  0  0  0
  2  4  1  0  0  0  0
  2 23  1  0  0  0  0
  3 24  1  0  0  0  0
  3 25  1  0  0  0  0
  3 26  1  0  0  0  0
  4 19  1  0  0  0  0
  4  5  2  0  0  0  0
  5  6  1  0  0  0  0
  6  7  2  0  0  0  0
  7  8  1  0  0  0  0
  7 19  1  0  0  0  0
  8  9  1  0  0  0  0
  8 27  1  0  0  0  0
  9 10  2  0  0  0  0
  9 11  1  0  0  0  0
 11 12  1  0  0  0  0
 11 28  1  0  0  0  0
 12 13  1  0  0  0  0
 12 14  1  0  0  0  0
 12 29  1  0  0  0  0
 13 30  1  0  0  0  0
 13 31  1  0  0  0  0
 13 32  1  0  0  0  0
 14 18  1  0  0  0  0
 14 15  1  0  0  0  0
 14 33  1  0  0  0  0
 15 16  1  0  0  0  0
 15 34  1  0  0  0  0
 15 35  1  0  0  0  0
 16 17  1  0  0  0  0
 16 36  1  0  0  0  0
 16 37  1  0  0  0  0
 17 18  1  0  0  0  0
 17 38  1  0  0  0  0
 17 39  1  0  0  0  0
M  END
> <s_m_source_file>
AV-unprocessed.smi

> <i_m_source_file_index>
2063

> <i_lp_mmshare_version>
43012

> <i_f3d_flags>
0

> <s_epik_input>
W0NIM11bQ0hdKFtDSDNdKWMxbm5jKHMxKVtOSF1DKD1PKVtOSF1bQ0BIXShbQ0gzXSlbQ0BASF0yW0NIMl1bQ0gyXVtDSDJdTzI=

> <s_epik_cmdline>
J2VwaWtfcHl0aG9uJywgJy1waCcsICc3LjAnLCAnLXRuJywgJzgnLCAnLW1hJywgJzIwMCcsICctbWV0YWxfYmluZGluZycsICctaW1hZScsICc8aW5maWxlLm1hZT4nLCAnLW9tYWUnLCAnPG91dGZpbGUubWFlPic=

> <r_lp_tautomer_probability>
1

> <r_epik_Ionization_Penalty>
0.00050567

> <r_epik_Ionization_Penalty_Charging>
0

> <r_epik_Ionization_Penalty_Neutral>
0.00050567

> <r_epik_State_Penalty>
-0

> <r_epik_Charging_Adjusted_Penalty>
0

> <i_epik_Tot_Q>
0

> <i_epik_Tot_abs_Q>
0

> <r_epik_Metal_State_Penalty>
0.219912

> <b_epik_Metal_Only>
0

> <s_lp_Force_Field>
OPLS_2005

> <r_lp_Energy>
10.6095

> <b_lp_Chiralities_Consistent>
1

> <s_lp_Variant>
AV-unprocessed.smi:2063-2

> <Gold.Version>
5.8.1

> <Gold.Id.Protein>
6NUR|6NUR_protein|mol2

> <Gold.PLP.Fitness>
33.0886

> <Gold.PLP.PLP>
-27.1843

> <Gold.PLP.part.hbond>
-2.0000

> <Gold.PLP.part.metal>
0.0000

> <Gold.PLP.part.buried>
-4.5216

> <Gold.PLP.part.nonpolar>
-20.6380

> <Gold.PLP.part.repulsive>
0.2117

> <Gold.PLP.ligand.clash>
0.0000

> <Gold.PLP.ligand.torsion>
0.0880

> <Gold.PLP.Chemscore.Hbond>
2.0000

> <Gold.PLP.Chemscore.CHOScore>
0.0000

> <Gold.PLP.Chemscore.Metal>
0.0000

> <Gold.Chemscore.Hbonds>
donor molecule, donor type, donor heavy atom, donor atom, acceptor molecule, acceptor atom, score
      L1  H     8    27       P1  7948  1.00
      L1  H    11    28       P1  7948  1.00

> <Gold.PLP.Chemscore.Internal.Correction>
0.0803

> <Gold.Rescore>
     Score         DG    S(hbond)    S(metal)    S(lipo)     H(rot)  DE(clash)    DE(int)     intcor
     13.74     -16.07       1.96        0.00      65.67       1.42       0.00       2.33       ----

> <Gold.Chemscore.Fitness>
13.7433

> <Gold.Chemscore.DG>
-16.0740

> <Gold.Chemscore.ZeroCoef>
-5.4800

> <Gold.Chemscore.Hbond>
1.9561

> <Gold.Chemscore.Metal>
0.0000

> <Gold.Chemscore.Lipo>
65.6713

> <Gold.Chemscore.Internal_Hbond>
0.0000

> <Gold.Chemscore.DEClash>
0.0000

> <Gold.Chemscore.DEInternal>
2.3307

> <Gold.Chemscore.Rot>
1.4152

> <Gold.Chemscore.Internal.Correction>
   9.000000E+99

> <Gold.Chemscore.Hbonds>
donor molecule, donor type, donor heavy atom, donor atom, acceptor molecule, acceptor atom, score
      L1  H     8    27       P1  7948  0.99
      L1  H    11    28       P1  7948  0.95

> <Gold.Chemscore.Hbond.Weighted>
-6.5334

> <Gold.Chemscore.Metal.Weighted>
-0.0000

> <Gold.Chemscore.Lipo.Weighted>
-7.6835

> <Gold.Chemscore.Internal_Hbond.Weighted>
0.0000

> <Gold.Chemscore.DEClash.Weighted>
0.0000

> <Gold.Chemscore.DEInternal.Weighted>
2.3307

> <Gold.Chemscore.Rot.Weighted>
3.6229

> <Gold.Chemscore.Internal.Correction.Weighted>
   9.000000E+99

> <Gold.Protein.RotatedTorsions>
[ 6907 6896 6895 6894 ] final -172.65 input  -60.11 | X-H torsion
[ 7974 7965 7964 7962 ] final -168.47 input  175.53 | X-H torsion
[ 8008 7997 7996 7995 ] final -103.58 input   59.86 | X-H torsion
[ 10167 10162 10161 10158 ] final  132.40 input  -65.29 | X-H torsion
[ 10718 10713 10712 10709 ] final  143.42 input   66.30 | X-H torsion
[ 10763 10752 10751 10750 ] final -119.15 input  -60.55 | X-H torsion
[ 11005 11000 10999 10996 ] final  170.14 input  -57.11 | X-H torsion

> <Gold.Protein.ActiveResidues>
 VAL166  LYS551  ARG553  GLY616  TRP617  ASP618  TYR619  PRO620  LYS621  CYS622 
 ASP623  PHE694  ASN695  SER759  ASP760  ASP761  ALA762  ILE779  LEU786  VAL792 
 PHE793  MET794  SER795  GLU796  ALA797  LYS798  CYS799  TRP800  GLU811  SER814 

> <Gold.Protein.RotatedAtoms>
  151.5434  133.3429  159.2939 H   0  0  0  0  0  0  0  0  0  0  0  0  # atno 6907 bound_to 6896
  150.8522  134.7852  159.7028 H   0  0  0  0  0  0  0  0  0  0  0  0  # atno 6908 bound_to 6896
  152.4565  134.5288  159.9856 H   0  0  0  0  0  0  0  0  0  0  0  0  # atno 6909 bound_to 6896
  144.7202  140.2365  143.6297 H   0  0  0  0  0  0  0  0  0  0  0  0  # atno 7974 bound_to 7965
  154.8730  140.0422  157.1736 H   0  0  0  0  0  0  0  0  0  0  0  0  # atno 8008 bound_to 7997
  154.8719  140.2959  155.5455 H   0  0  0  0  0  0  0  0  0  0  0  0  # atno 8009 bound_to 7997
  156.2999  140.2427  156.3709 H   0  0  0  0  0  0  0  0  0  0  0  0  # atno 8010 bound_to 7997
  139.5341  144.6663  151.4847 H   0  0  0  0  0  0  0  0  0  0  0  0  # atno 10167 bound_to 10162
  157.3692  131.0976  151.0844 H   0  0  0  0  0  0  0  0  0  0  0  0  # atno 10718 bound_to 10713
  154.8609  135.4248  154.2253 H   0  0  0  0  0  0  0  0  0  0  0  0  # atno 10763 bound_to 10752
  153.3249  135.6984  153.7004 H   0  0  0  0  0  0  0  0  0  0  0  0  # atno 10764 bound_to 10752
  153.6044  135.3531  155.2930 H   0  0  0  0  0  0  0  0  0  0  0  0  # atno 10765 bound_to 10752
  140.3052  134.7562  157.3948 H   0  0  0  0  0  0  0  0  0  0  0  0  # atno 11005 bound_to 11000
  145.8360  139.2108  143.1855 LP  0  0  0  0  0  0  0  0  0  0  0  0  # atno 17320 bound_to 7965
  146.0388  140.8185  142.9839 LP  0  0  0  0  0  0  0  0  0  0  0  0  # atno 17321 bound_to 7965
  140.6537  143.8643  150.6813 LP  0  0  0  0  0  0  0  0  0  0  0  0  # atno 17342 bound_to 10162
  140.2016  143.3955  152.1787 LP  0  0  0  0  0  0  0  0  0  0  0  0  # atno 17343 bound_to 10162
  157.1955  130.6371  149.5719 LP  0  0  0  0  0  0  0  0  0  0  0  0  # atno 17370 bound_to 10713
  155.9752  130.4708  150.6442 LP  0  0  0  0  0  0  0  0  0  0  0  0  # atno 17371 bound_to 10713
  140.1073  134.5392  155.8297 LP  0  0  0  0  0  0  0  0  0  0  0  0  # atno 17394 bound_to 11000
  141.2120  133.6713  156.6623 LP  0  0  0  0  0  0  0  0  0  0  0  0  # atno 17395 bound_to 11000

$$$$
