AV-unprocessed.smi:271|AV-procd|sdf|2052|dock6
  -GOLD-   2262021293D 1   1.00000     0.00000
 Structure written by MMmdl.
 58 60  0  0  0  0  0  0  0  0  1 V2000
  147.6196  135.9999  162.4831 C   0  0  0  0  0  0  0  0  0  0  0  0
  147.0807  134.9576  161.4886 C   0  0  0  0  0  0  0  0  0  0  0  0
  146.7897  133.6316  162.2078 C   0  0  0  0  0  0  0  0  0  0  0  0
  148.0363  134.7343  160.2999 C   0  0  0  0  0  0  0  0  0  0  0  0
  147.4931  135.2673  158.9590 C   0  0  0  0  0  0  0  0  0  0  0  0
  148.5476  135.5609  157.9891 N   0  0  0  0  0  0  0  0  0  0  0  0
  148.2278  135.3424  156.5772 C   0  0  0  0  0  0  0  0  0  0  0  0
  149.3055  134.5336  155.8387 C   0  0  0  0  0  0  0  0  0  0  0  0
  148.8622  134.0989  154.5061 C   0  0  0  0  0  0  0  0  0  0  0  0
  148.5135  133.7561  153.4576 N   0  0  0  0  0  0  0  0  0  0  0  0
  149.3309  136.6225  158.3152 C   0  0  0  0  0  0  0  0  0  0  0  0
  150.5433  136.4154  158.8960 N   0  0  0  0  0  0  0  0  0  0  0  0
  151.3316  137.4495  159.2029 C   0  0  0  0  0  0  0  0  0  0  0  0
  151.1085  138.7516  159.0178 N   0  0  0  0  0  0  0  0  0  0  0  0
  149.8950  138.9678  158.4350 C   0  0  0  0  0  0  0  0  0  0  0  0
  148.9529  137.9704  158.0545 C   0  0  0  0  0  0  0  0  0  0  0  0
  147.8277  138.5712  157.5017 N   0  0  0  0  0  0  0  0  0  0  0  0
  148.0934  139.8482  157.5439 C   0  0  0  0  0  0  0  0  0  0  0  0
  149.3168  140.1748  158.0827 N   0  0  0  0  0  0  0  0  0  0  0  0
  149.8580  141.5127  158.2509 C   0  0  0  0  0  0  0  0  0  0  0  0
  151.2494  141.6980  157.5969 C   0  0  1  0  0  0  0  0  0  0  0  0
  151.1071  141.8848  156.0677 C   0  0  0  0  0  0  0  0  0  0  0  0
  151.0995  140.6337  155.4119 O   0  0  0  0  0  0  0  0  0  0  0  0
  152.0878  142.8142  158.2814 C   0  0  1  0  0  0  0  0  0  0  0  0
  151.6829  144.2477  157.9317 C   0  0  0  0  0  0  0  0  0  0  0  0
  151.5400  144.9394  159.2873 C   0  0  0  0  0  0  0  0  0  0  0  0
  152.3364  144.1547  160.1594 O   0  0  0  0  0  0  0  0  0  0  0  0
  152.0955  142.8004  159.8162 C   0  0  0  0  0  0  0  0  0  0  0  0
  148.5860  135.6982  162.8879 H   0  0  0  0  0  0  0  0  0  0  0  0
  146.9355  136.1300  163.3222 H   0  0  0  0  0  0  0  0  0  0  0  0
  147.7432  136.9769  162.0169 H   0  0  0  0  0  0  0  0  0  0  0  0
  146.1322  135.3263  161.0958 H   0  0  0  0  0  0  0  0  0  0  0  0
  147.7017  133.1925  162.6137 H   0  0  0  0  0  0  0  0  0  0  0  0
  146.3442  132.9047  161.5283 H   0  0  0  0  0  0  0  0  0  0  0  0
  146.0928  133.7752  163.0341 H   0  0  0  0  0  0  0  0  0  0  0  0
  149.0031  135.1883  160.5206 H   0  0  0  0  0  0  0  0  0  0  0  0
  148.2224  133.6644  160.1986 H   0  0  0  0  0  0  0  0  0  0  0  0
  146.7794  134.5575  158.5425 H   0  0  0  0  0  0  0  0  0  0  0  0
  146.9302  136.1855  159.1237 H   0  0  0  0  0  0  0  0  0  0  0  0
  147.2799  134.8072  156.5118 H   0  0  0  0  0  0  0  0  0  0  0  0
  148.0693  136.3000  156.0793 H   0  0  0  0  0  0  0  0  0  0  0  0
  150.2202  135.1103  155.7060 H   0  0  0  0  0  0  0  0  0  0  0  0
  149.5662  133.6416  156.4086 H   0  0  0  0  0  0  0  0  0  0  0  0
  152.2768  137.1972  159.6604 H   0  0  0  0  0  0  0  0  0  0  0  0
  147.4016  140.5930  157.1779 H   0  0  0  0  0  0  0  0  0  0  0  0
  149.1395  142.2124  157.8229 H   0  0  0  0  0  0  0  0  0  0  0  0
  149.9091  141.7409  159.3159 H   0  0  0  0  0  0  0  0  0  0  0  0
  151.8041  140.7713  157.7536 H   0  0  0  0  0  0  0  0  0  0  0  0
  150.1871  142.4141  155.8190 H   0  0  0  0  0  0  0  0  0  0  0  0
  151.9295  142.4673  155.6548 H   0  0  0  0  0  0  0  0  0  0  0  0
  150.9863  139.9549  156.0598 H   0  0  0  0  0  0  0  0  0  0  0  0
  153.1249  142.7207  157.9580 H   0  0  0  0  0  0  0  0  0  0  0  0
  152.4741  144.7215  157.3490 H   0  0  0  0  0  0  0  0  0  0  0  0
  150.7679  144.3214  157.3445 H   0  0  0  0  0  0  0  0  0  0  0  0
  151.8681  145.9789  159.2675 H   0  0  0  0  0  0  0  0  0  0  0  0
  150.5029  144.9144  159.6256 H   0  0  0  0  0  0  0  0  0  0  0  0
  151.1354  142.4997  160.2354 H   0  0  0  0  0  0  0  0  0  0  0  0
  152.8634  142.1450  160.2263 H   0  0  0  0  0  0  0  0  0  0  0  0
  1  2  1  0  0  0  0
  1 29  1  0  0  0  0
  1 30  1  0  0  0  0
  1 31  1  0  0  0  0
  2  3  1  0  0  0  0
  2  4  1  0  0  0  0
  2 32  1  0  0  0  0
  3 33  1  0  0  0  0
  3 34  1  0  0  0  0
  3 35  1  0  0  0  0
  4  5  1  0  0  0  0
  4 36  1  0  0  0  0
  4 37  1  0  0  0  0
  5  6  1  0  0  0  0
  5 38  1  0  0  0  0
  5 39  1  0  0  0  0
  6  7  1  0  0  0  0
  6 11  1  0  0  0  0
  7  8  1  0  0  0  0
  7 40  1  0  0  0  0
  7 41  1  0  0  0  0
  8  9  1  0  0  0  0
  8 42  1  0  0  0  0
  8 43  1  0  0  0  0
  9 10  3  0  0  0  0
 11 16  1  0  0  0  0
 11 12  2  0  0  0  0
 12 13  1  0  0  0  0
 13 14  2  0  0  0  0
 13 44  1  0  0  0  0
 14 15  1  0  0  0  0
 15 19  1  0  0  0  0
 15 16  2  0  0  0  0
 16 17  1  0  0  0  0
 17 18  2  0  0  0  0
 18 19  1  0  0  0  0
 18 45  1  0  0  0  0
 19 20  1  0  0  0  0
 20 21  1  0  0  0  0
 20 46  1  0  0  0  0
 20 47  1  0  0  0  0
 21 22  1  0  0  0  0
 21 24  1  0  0  0  0
 21 48  1  0  0  0  0
 22 23  1  0  0  0  0
 22 49  1  0  0  0  0
 22 50  1  0  0  0  0
 23 51  1  0  0  0  0
 24 28  1  0  0  0  0
 24 25  1  0  0  0  0
 24 52  1  0  0  0  0
 25 26  1  0  0  0  0
 25 53  1  0  0  0  0
 25 54  1  0  0  0  0
 26 27  1  0  0  0  0
 26 55  1  0  0  0  0
 26 56  1  0  0  0  0
 27 28  1  0  0  0  0
 28 57  1  0  0  0  0
 28 58  1  0  0  0  0
M  END
> <s_m_source_file>
AV-unprocessed.smi

> <i_m_source_file_index>
271

> <i_lp_mmshare_version>
43012

> <i_f3d_flags>
0

> <s_epik_input>
W0NIM11bQ0hdKFtDSDNdKVtDSDJdW0NIMl1OKFtDSDJdW0NIMl1DI04pYyhuW2NIXW4xKWMoYzEyKW5bY0hdbjJbQ0gyXVtDQEhdKFtDSDJdW09IXSlbQ0BASF0zW0NIMl1bQ0gyXU9bQ0gyXTM=

> <s_epik_cmdline>
J2VwaWtfcHl0aG9uJywgJy1waCcsICc3LjAnLCAnLXRuJywgJzgnLCAnLW1hJywgJzIwMCcsICctbWV0YWxfYmluZGluZycsICctaW1hZScsICc8aW5maWxlLm1hZT4nLCAnLW9tYWUnLCAnPG91dGZpbGUubWFlPic=

> <r_lp_tautomer_probability>
1

> <r_epik_Ionization_Penalty>
0.000825874

> <r_epik_Ionization_Penalty_Charging>
0

> <r_epik_Ionization_Penalty_Neutral>
0.000825874

> <r_epik_State_Penalty>
0.000396768

> <r_epik_Charging_Adjusted_Penalty>
0.000396768

> <i_epik_Tot_Q>
0

> <i_epik_Tot_abs_Q>
0

> <r_epik_Metal_State_Penalty>
-0

> <b_epik_Metal_Only>
0

> <s_lp_Force_Field>
OPLS_2005

> <r_lp_Energy>
37.4576

> <b_lp_Chiralities_Consistent>
1

> <s_lp_Variant>
AV-unprocessed.smi:271-4

> <Gold.Version>
5.8.1

> <Gold.Id.Protein>
6NUR|6NUR_protein|mol2

> <Gold.PLP.Fitness>
46.9533

> <Gold.PLP.PLP>
-45.3668

> <Gold.PLP.part.hbond>
-2.0000

> <Gold.PLP.part.metal>
0.0000

> <Gold.PLP.part.buried>
-8.6988

> <Gold.PLP.part.nonpolar>
-34.7257

> <Gold.PLP.part.repulsive>
0.1953

> <Gold.PLP.ligand.clash>
0.0000

> <Gold.PLP.ligand.torsion>
2.7301

> <Gold.PLP.Chemscore.Hbond>
1.9600

> <Gold.PLP.Chemscore.CHOScore>
0.0000

> <Gold.PLP.Chemscore.Metal>
0.0000

> <Gold.Chemscore.Hbonds>
donor molecule, donor type, donor heavy atom, donor atom, acceptor molecule, acceptor atom, score
      P1  H  6896  6908       L1    12  1.00
      P1  H  7989  7998       L1    23  0.86

> <Gold.PLP.Chemscore.Internal.Correction>
1.1668

> <Gold.Rescore>
     Score         DG    S(hbond)    S(metal)    S(lipo)     H(rot)  DE(clash)    DE(int)     intcor
     11.27     -14.38       1.70        0.00     110.11       3.77       0.05       3.06       ----

> <Gold.Chemscore.Fitness>
11.2666

> <Gold.Chemscore.DG>
-14.3822

> <Gold.Chemscore.ZeroCoef>
-5.4800

> <Gold.Chemscore.Hbond>
1.6966

> <Gold.Chemscore.Metal>
0.0000

> <Gold.Chemscore.Lipo>
110.1056

> <Gold.Chemscore.Internal_Hbond>
0.0000

> <Gold.Chemscore.DEClash>
0.0548

> <Gold.Chemscore.DEInternal>
3.0608

> <Gold.Chemscore.Rot>
3.7683

> <Gold.Chemscore.Internal.Correction>
   9.000000E+99

> <Gold.Chemscore.Hbonds>
donor molecule, donor type, donor heavy atom, donor atom, acceptor molecule, acceptor atom, score
      P1  H  6896  6908       L1    12  0.64
      P1  H  7989  7998       L1    23  0.57

> <Gold.Chemscore.Hbond.Weighted>
-5.6666

> <Gold.Chemscore.Metal.Weighted>
-0.0000

> <Gold.Chemscore.Lipo.Weighted>
-12.8824

> <Gold.Chemscore.Internal_Hbond.Weighted>
0.0000

> <Gold.Chemscore.DEClash.Weighted>
0.0548

> <Gold.Chemscore.DEInternal.Weighted>
3.0608

> <Gold.Chemscore.Rot.Weighted>
9.6468

> <Gold.Chemscore.Internal.Correction.Weighted>
   9.000000E+99

> <Gold.Protein.RotatedTorsions>
[ 6907 6896 6895 6894 ] final -151.54 input  -60.11 | X-H torsion
[ 7974 7965 7964 7962 ] final  -88.60 input  175.53 | X-H torsion
[ 8008 7997 7996 7995 ] final   49.75 input   59.86 | X-H torsion
[ 10167 10162 10161 10158 ] final   56.49 input  -65.29 | X-H torsion
[ 10718 10713 10712 10709 ] final -133.81 input   66.30 | X-H torsion
[ 10763 10752 10751 10750 ] final    3.49 input  -60.55 | X-H torsion
[ 11005 11000 10999 10996 ] final   -5.39 input  -57.11 | X-H torsion

> <Gold.Protein.ActiveResidues>
 VAL166  LYS551  ARG553  GLY616  TRP617  ASP618  TYR619  PRO620  LYS621  CYS622 
 ASP623  PHE694  ASN695  SER759  ASP760  ASP761  ALA762  ILE779  LEU786  VAL792 
 PHE793  MET794  SER795  GLU796  ALA797  LYS798  CYS799  TRP800  GLU811  SER814 

> <Gold.Protein.RotatedAtoms>
  151.2146  133.4536  159.2598 H   0  0  0  0  0  0  0  0  0  0  0  0  # atno 6907 bound_to 6896
  151.0943  134.9935  159.8428 H   0  0  0  0  0  0  0  0  0  0  0  0  # atno 6908 bound_to 6896
  152.5437  134.2077  159.8790 H   0  0  0  0  0  0  0  0  0  0  0  0  # atno 6909 bound_to 6896
  145.4510  140.9560  143.2022 H   0  0  0  0  0  0  0  0  0  0  0  0  # atno 7974 bound_to 7965
  155.4074  140.3440  155.4261 H   0  0  0  0  0  0  0  0  0  0  0  0  # atno 8008 bound_to 7997
  156.1468  140.1559  156.8865 H   0  0  0  0  0  0  0  0  0  0  0  0  # atno 8009 bound_to 7997
  154.5018  140.0813  156.7794 H   0  0  0  0  0  0  0  0  0  0  0  0  # atno 8010 bound_to 7997
  140.2082  144.3917  150.6500 H   0  0  0  0  0  0  0  0  0  0  0  0  # atno 10167 bound_to 10162
  156.2489  130.7141  151.1032 H   0  0  0  0  0  0  0  0  0  0  0  0  # atno 10718 bound_to 10713
  153.2826  135.6942  153.7370 H   0  0  0  0  0  0  0  0  0  0  0  0  # atno 10763 bound_to 10752
  153.6352  135.3403  155.3055 H   0  0  0  0  0  0  0  0  0  0  0  0  # atno 10764 bound_to 10752
  154.8500  135.4418  154.1884 H   0  0  0  0  0  0  0  0  0  0  0  0  # atno 10765 bound_to 10752
  140.6906  133.9074  155.8615 H   0  0  0  0  0  0  0  0  0  0  0  0  # atno 11005 bound_to 11000
  144.8061  139.6048  143.7050 LP  0  0  0  0  0  0  0  0  0  0  0  0  # atno 17320 bound_to 7965
  146.2504  139.6188  142.9431 LP  0  0  0  0  0  0  0  0  0  0  0  0  # atno 17321 bound_to 7965
  140.6342  143.2192  151.6430 LP  0  0  0  0  0  0  0  0  0  0  0  0  # atno 17342 bound_to 10162
  139.5190  144.3266  152.0864 LP  0  0  0  0  0  0  0  0  0  0  0  0  # atno 17343 bound_to 10162
  157.7206  131.0683  150.6150 LP  0  0  0  0  0  0  0  0  0  0  0  0  # atno 17370 bound_to 10713
  156.6229  130.4411  149.5815 LP  0  0  0  0  0  0  0  0  0  0  0  0  # atno 17371 bound_to 10713
  141.0244  134.0844  157.4084 LP  0  0  0  0  0  0  0  0  0  0  0  0  # atno 17394 bound_to 11000
  139.8924  135.0125  156.6846 LP  0  0  0  0  0  0  0  0  0  0  0  0  # atno 17395 bound_to 11000

$$$$
