AV-unprocessed.smi:1455|AV-procd|sdf|5915|dock4
  -GOLD-   22720 6 03D 1   1.00000     0.00000
 Structure written by MMmdl.
 32 33  0  0  0  0  0  0  0  0  1 V2000
  151.5704  141.6132  157.7307 O   0  0  0  0  0  0  0  0  0  0  0  0
  150.9308  142.3086  156.9398 C   0  0  0  0  0  0  0  0  0  0  0  0
  150.2912  141.6962  155.6851 C   0  0  0  0  0  0  0  0  0  0  0  0
  150.5877  140.2658  155.5166 N   0  0  0  0  0  0  0  0  0  0  0  0
  151.8903  139.8028  155.6373 C   0  0  0  0  0  0  0  0  0  0  0  0
  152.2364  138.5021  155.4890 C   0  0  0  0  0  0  0  0  0  0  0  0
  151.2225  137.4981  155.1850 C   0  0  0  0  0  0  0  0  0  0  0  0
  151.4359  136.2972  155.0350 O   0  0  0  0  0  0  0  0  0  0  0  0
  149.9250  138.0034  155.0674 N   0  0  0  0  0  0  0  0  0  0  0  0
  149.5619  139.3428  155.2179 C   0  0  0  0  0  0  0  0  0  0  0  0
  148.3864  139.6826  155.0897 O   0  0  0  0  0  0  0  0  0  0  0  0
  150.7277  143.6228  157.1177 N   0  0  0  0  0  0  0  0  0  0  0  0
  151.2284  144.4074  158.2434 C   0  0  0  0  0  0  0  0  0  0  0  0
  152.7638  144.3207  158.3559 C   0  0  0  0  0  0  0  0  0  0  0  0
  153.0470  143.4417  159.5740 C   0  0  0  0  0  0  0  0  0  0  0  0
  151.8736  143.7146  160.5093 C   0  0  0  0  0  0  0  0  0  0  0  0
  150.6713  143.8693  159.5759 C   0  0  0  0  0  0  0  0  0  0  0  0
  149.1896  137.3458  154.8530 H   0  0  0  0  0  0  0  0  0  0  0  0
  149.2129  141.8507  155.7445 H   0  0  0  0  0  0  0  0  0  0  0  0
  150.6128  142.2548  154.8039 H   0  0  0  0  0  0  0  0  0  0  0  0
  152.6754  140.5120  155.8580 H   0  0  0  0  0  0  0  0  0  0  0  0
  153.2691  138.2029  155.5953 H   0  0  0  0  0  0  0  0  0  0  0  0
  150.1869  144.1168  156.4227 H   0  0  0  0  0  0  0  0  0  0  0  0
  150.9307  145.4505  158.1200 H   0  0  0  0  0  0  0  0  0  0  0  0
  153.2479  143.9390  157.4559 H   0  0  0  0  0  0  0  0  0  0  0  0
  153.1657  145.3190  158.5337 H   0  0  0  0  0  0  0  0  0  0  0  0
  153.0460  142.3918  159.2785 H   0  0  0  0  0  0  0  0  0  0  0  0
  154.0118  143.6593  160.0330 H   0  0  0  0  0  0  0  0  0  0  0  0
  151.7325  142.9253  161.2484 H   0  0  0  0  0  0  0  0  0  0  0  0
  152.0444  144.6483  161.0469 H   0  0  0  0  0  0  0  0  0  0  0  0
  149.9117  144.5272  159.9992 H   0  0  0  0  0  0  0  0  0  0  0  0
  150.2059  142.8926  159.4331 H   0  0  0  0  0  0  0  0  0  0  0  0
  1  2  2  0  0  0  0
  2  3  1  0  0  0  0
  2 12  1  0  0  0  0
  3  4  1  0  0  0  0
  3 19  1  0  0  0  0
  3 20  1  0  0  0  0
  4 10  1  0  0  0  0
  4  5  1  0  0  0  0
  5  6  2  0  0  0  0
  5 21  1  0  0  0  0
  6  7  1  0  0  0  0
  6 22  1  0  0  0  0
  7  8  2  0  0  0  0
  7  9  1  0  0  0  0
  9 18  1  0  0  0  0
  9 10  1  0  0  0  0
 10 11  2  0  0  0  0
 12 13  1  0  0  0  0
 12 23  1  0  0  0  0
 13 17  1  0  0  0  0
 13 14  1  0  0  0  0
 13 24  1  0  0  0  0
 14 15  1  0  0  0  0
 14 25  1  0  0  0  0
 14 26  1  0  0  0  0
 15 16  1  0  0  0  0
 15 27  1  0  0  0  0
 15 28  1  0  0  0  0
 16 17  1  0  0  0  0
 16 29  1  0  0  0  0
 16 30  1  0  0  0  0
 17 31  1  0  0  0  0
 17 32  1  0  0  0  0
M  END
> <s_m_source_file>
AV-unprocessed.smi

> <i_m_source_file_index>
1455

> <i_lp_mmshare_version>
43012

> <i_f3d_flags>
0

> <s_epik_input>
W0NIMl0xW0NIMl1bQ0gyXVtDSDJdW0NIXTFbTkhdQyg9TylbQ0gyXW4yW2NIXVtjSF1jKD1PKVtuSF1jMj1P

> <s_epik_cmdline>
J2VwaWtfcHl0aG9uJywgJy1waCcsICc3LjAnLCAnLXRuJywgJzgnLCAnLW1hJywgJzIwMCcsICctbWV0YWxfYmluZGluZycsICctaW1hZScsICc8aW5maWxlLm1hZT4nLCAnLW9tYWUnLCAnPG91dGZpbGUubWFlPic=

> <r_lp_tautomer_probability>
0.999537

> <r_epik_Ionization_Penalty>
0.00322093

> <r_epik_Ionization_Penalty_Charging>
0.00322091

> <r_epik_Ionization_Penalty_Neutral>
1.93017e-08

> <r_epik_State_Penalty>
0.00227242

> <r_epik_Charging_Adjusted_Penalty>
0.00549333

> <i_epik_Tot_Q>
0

> <i_epik_Tot_abs_Q>
0

> <r_epik_Metal_State_Penalty>
0.364362

> <b_epik_Metal_Only>
0

> <s_lp_Force_Field>
OPLS_2005

> <r_lp_Energy>
17.501

> <b_lp_Chiralities_Consistent>
1

> <s_lp_Variant>
AV-unprocessed.smi:1455-1

> <Gold.Version>
5.8.1

> <Gold.Id.Protein>
6NUR|6NUR_protein|mol2

> <Gold.PLP.Fitness>
43.5438

> <Gold.PLP.PLP>
-37.8260

> <Gold.PLP.part.hbond>
-2.0000

> <Gold.PLP.part.metal>
0.0000

> <Gold.PLP.part.buried>
-4.0282

> <Gold.PLP.part.nonpolar>
-32.1294

> <Gold.PLP.part.repulsive>
0.2368

> <Gold.PLP.ligand.clash>
0.0000

> <Gold.PLP.ligand.torsion>
0.1431

> <Gold.PLP.Chemscore.Hbond>
2.0000

> <Gold.PLP.Chemscore.CHOScore>
0.0000

> <Gold.PLP.Chemscore.Metal>
0.0000

> <Gold.Chemscore.Hbonds>
donor molecule, donor type, donor heavy atom, donor atom, acceptor molecule, acceptor atom, score
      L1  H    12    23       P1  8028  1.00
      P1  H 10752 10763       L1     8  1.00

> <Gold.PLP.Chemscore.Internal.Correction>
0.0039

> <Gold.Rescore>
     Score         DG    S(hbond)    S(metal)    S(lipo)     H(rot)  DE(clash)    DE(int)     intcor
     14.25     -17.74       1.98        0.00      85.94       1.72       0.08       3.41       ----

> <Gold.Chemscore.Fitness>
14.2503

> <Gold.Chemscore.DG>
-17.7368

> <Gold.Chemscore.ZeroCoef>
-5.4800

> <Gold.Chemscore.Hbond>
1.9776

> <Gold.Chemscore.Metal>
0.0000

> <Gold.Chemscore.Lipo>
85.9390

> <Gold.Chemscore.Internal_Hbond>
0.0000

> <Gold.Chemscore.DEClash>
0.0803

> <Gold.Chemscore.DEInternal>
3.4063

> <Gold.Chemscore.Rot>
1.7201

> <Gold.Chemscore.Internal.Correction>
   9.000000E+99

> <Gold.Chemscore.Hbonds>
donor molecule, donor type, donor heavy atom, donor atom, acceptor molecule, acceptor atom, score
      L1  H    12    23       P1  8028  0.98
      P1  H 10752 10763       L1     8  1.00

> <Gold.Chemscore.Hbond.Weighted>
-6.6053

> <Gold.Chemscore.Metal.Weighted>
-0.0000

> <Gold.Chemscore.Lipo.Weighted>
-10.0549

> <Gold.Chemscore.Internal_Hbond.Weighted>
0.0000

> <Gold.Chemscore.DEClash.Weighted>
0.0803

> <Gold.Chemscore.DEInternal.Weighted>
3.4063

> <Gold.Chemscore.Rot.Weighted>
4.4033

> <Gold.Chemscore.Internal.Correction.Weighted>
   9.000000E+99

> <Gold.Protein.RotatedTorsions>
[ 6907 6896 6895 6894 ] final   54.95 input  -60.11 | X-H torsion
[ 7974 7965 7964 7962 ] final -107.03 input  175.53 | X-H torsion
[ 8008 7997 7996 7995 ] final -121.03 input   59.86 | X-H torsion
[ 10167 10162 10161 10158 ] final   13.95 input  -65.29 | X-H torsion
[ 10718 10713 10712 10709 ] final -159.58 input   66.30 | X-H torsion
[ 10763 10752 10751 10750 ] final   49.40 input  -60.55 | X-H torsion
[ 11005 11000 10999 10996 ] final -137.85 input  -57.11 | X-H torsion

> <Gold.Protein.ActiveResidues>
 VAL166  LYS551  ARG553  GLY616  TRP617  ASP618  TYR619  PRO620  LYS621  CYS622 
 ASP623  PHE694  ASN695  SER759  ASP760  ASP761  ALA762  ILE779  LEU786  VAL792 
 PHE793  MET794  SER795  GLU796  ALA797  LYS798  CYS799  TRP800  GLU811  SER814 

> <Gold.Protein.RotatedAtoms>
  152.3490  134.7031  160.0241 H   0  0  0  0  0  0  0  0  0  0  0  0  # atno 6907 bound_to 6896
  151.7391  133.3316  159.3369 H   0  0  0  0  0  0  0  0  0  0  0  0  # atno 6908 bound_to 6896
  150.7528  134.6227  159.6189 H   0  0  0  0  0  0  0  0  0  0  0  0  # atno 6909 bound_to 6896
  145.2104  140.9094  143.3318 H   0  0  0  0  0  0  0  0  0  0  0  0  # atno 7974 bound_to 7965
  155.1413  140.0402  157.2799 H   0  0  0  0  0  0  0  0  0  0  0  0  # atno 8008 bound_to 7997
  154.6471  140.2560  155.7230 H   0  0  0  0  0  0  0  0  0  0  0  0  # atno 8009 bound_to 7997
  156.2560  140.2844  156.0889 H   0  0  0  0  0  0  0  0  0  0  0  0  # atno 8010 bound_to 7997
  140.5968  143.8685  150.6926 H   0  0  0  0  0  0  0  0  0  0  0  0  # atno 10167 bound_to 10162
  156.5701  130.8684  151.2835 H   0  0  0  0  0  0  0  0  0  0  0  0  # atno 10718 bound_to 10713
  152.9787  135.5913  154.4083 H   0  0  0  0  0  0  0  0  0  0  0  0  # atno 10763 bound_to 10752
  154.3721  135.2767  155.2262 H   0  0  0  0  0  0  0  0  0  0  0  0  # atno 10764 bound_to 10752
  154.4213  135.6058  153.6066 H   0  0  0  0  0  0  0  0  0  0  0  0  # atno 10765 bound_to 10752
  140.8672  134.2095  157.4672 H   0  0  0  0  0  0  0  0  0  0  0  0  # atno 11005 bound_to 11000
  144.9861  139.3735  143.6238 LP  0  0  0  0  0  0  0  0  0  0  0  0  # atno 17320 bound_to 7965
  146.3399  139.9023  142.8792 LP  0  0  0  0  0  0  0  0  0  0  0  0  # atno 17321 bound_to 7965
  140.2221  143.3801  152.1634 LP  0  0  0  0  0  0  0  0  0  0  0  0  # atno 17342 bound_to 10162
  139.5264  144.7107  151.5215 LP  0  0  0  0  0  0  0  0  0  0  0  0  # atno 17343 bound_to 10162
  157.7350  130.9755  150.2058 LP  0  0  0  0  0  0  0  0  0  0  0  0  # atno 17370 bound_to 10713
  156.2722  130.3723  149.8020 LP  0  0  0  0  0  0  0  0  0  0  0  0  # atno 17371 bound_to 10713
  139.8710  134.9757  156.4894 LP  0  0  0  0  0  0  0  0  0  0  0  0  # atno 17394 bound_to 11000
  140.8615  133.8056  155.9270 LP  0  0  0  0  0  0  0  0  0  0  0  0  # atno 17395 bound_to 11000

$$$$
