AV-unprocessed.smi:1207|AV-procd|sdf|5050|dock8
  -GOLD-   22720 4 73D 1   1.00000     0.00000
 Structure written by MMmdl.
 51 53  0  0  0  0  0  0  0  0  1 V2000
  152.2072  145.0946  159.4419 C   0  0  0  0  0  0  0  0  0  0  0  0
  152.0716  143.6211  159.1015 C   0  0  0  0  0  0  0  0  0  0  0  0
  151.4485  143.2502  157.8886 C   0  0  0  0  0  0  0  0  0  0  0  0
  151.3041  141.8907  157.5345 C   0  0  0  0  0  0  0  0  0  0  0  0
  150.7372  141.3101  156.4127 N   0  0  0  0  0  0  0  0  0  0  0  0
  150.9080  140.0159  156.6665 C   0  0  0  0  0  0  0  0  0  0  0  0
  151.5184  139.6886  157.8215 N   0  0  0  0  0  0  0  0  0  0  0  0
  151.8095  138.3498  158.3039 C   0  0  0  0  0  0  0  0  0  0  0  0
  150.5900  137.4111  158.2149 C   0  0  1  0  0  0  0  0  0  0  0  0
  151.0487  136.0726  158.2462 O   0  0  0  0  0  0  0  0  0  0  0  0
  149.6036  137.6323  159.3827 C   0  0  0  0  0  0  0  0  0  0  0  0
  148.5391  136.6337  159.5010 N   0  0  0  0  0  0  0  0  0  0  0  0
  147.7899  136.5520  158.2498 C   0  0  0  0  0  0  0  0  0  0  0  0
  147.6484  136.9040  160.6328 C   0  0  0  0  0  0  0  0  0  0  0  0
  147.7044  135.8366  161.6958 C   0  0  0  0  0  0  0  0  0  0  0  0
  147.5400  134.4306  161.5382 C   0  0  0  0  0  0  0  0  0  0  0  0
  147.2772  133.6584  160.2773 C   0  0  0  0  0  0  0  0  0  0  0  0
  147.6535  133.7878  162.6886 N   0  0  0  0  0  0  0  0  0  0  0  0
  147.8977  134.7699  163.6536 O   0  0  0  0  0  0  0  0  0  0  0  0
  147.9241  135.9796  163.0384 C   0  0  0  0  0  0  0  0  0  0  0  0
  148.1726  137.1657  163.9076 C   0  0  0  0  0  0  0  0  0  0  0  0
  151.8022  140.9042  158.4352 C   0  0  0  0  0  0  0  0  0  0  0  0
  152.4244  141.2609  159.6445 C   0  0  0  0  0  0  0  0  0  0  0  0
  152.5618  142.6236  159.9823 C   0  0  0  0  0  0  0  0  0  0  0  0
  153.2371  142.9981  161.2897 C   0  0  0  0  0  0  0  0  0  0  0  0
  151.7713  145.7245  158.6657 H   0  0  0  0  0  0  0  0  0  0  0  0
  153.2578  145.3678  159.5435 H   0  0  0  0  0  0  0  0  0  0  0  0
  151.6980  145.3189  160.3794 H   0  0  0  0  0  0  0  0  0  0  0  0
  151.0757  144.0095  157.2170 H   0  0  0  0  0  0  0  0  0  0  0  0
  150.5709  139.2599  155.9723 H   0  0  0  0  0  0  0  0  0  0  0  0
  152.6489  137.9458  157.7360 H   0  0  0  0  0  0  0  0  0  0  0  0
  152.1453  138.4319  159.3385 H   0  0  0  0  0  0  0  0  0  0  0  0
  150.0850  137.5867  157.2636 H   0  0  0  0  0  0  0  0  0  0  0  0
  151.6594  135.9481  157.5362 H   0  0  0  0  0  0  0  0  0  0  0  0
  150.1407  137.7332  160.3275 H   0  0  0  0  0  0  0  0  0  0  0  0
  149.1275  138.6007  159.2224 H   0  0  0  0  0  0  0  0  0  0  0  0
  147.0434  135.7584  158.2847 H   0  0  0  0  0  0  0  0  0  0  0  0
  148.4539  136.3300  157.4139 H   0  0  0  0  0  0  0  0  0  0  0  0
  147.2780  137.4911  158.0353 H   0  0  0  0  0  0  0  0  0  0  0  0
  147.9197  137.8539  161.0909 H   0  0  0  0  0  0  0  0  0  0  0  0
  146.6294  137.0405  160.2685 H   0  0  0  0  0  0  0  0  0  0  0  0
  146.4242  134.0711  159.7378 H   0  0  0  0  0  0  0  0  0  0  0  0
  147.0612  132.6090  160.4819 H   0  0  0  0  0  0  0  0  0  0  0  0
  148.1403  133.6965  159.6124 H   0  0  0  0  0  0  0  0  0  0  0  0
  148.5573  138.0035  163.3257 H   0  0  0  0  0  0  0  0  0  0  0  0
  148.9022  136.9331  164.6836 H   0  0  0  0  0  0  0  0  0  0  0  0
  147.2512  137.4868  164.3933 H   0  0  0  0  0  0  0  0  0  0  0  0
  152.7957  140.4909  160.3046 H   0  0  0  0  0  0  0  0  0  0  0  0
  153.5601  142.1129  161.8384 H   0  0  0  0  0  0  0  0  0  0  0  0
  152.5513  143.5556  161.9280 H   0  0  0  0  0  0  0  0  0  0  0  0
  154.1165  143.6149  161.1027 H   0  0  0  0  0  0  0  0  0  0  0  0
  1  2  1  0  0  0  0
  1 26  1  0  0  0  0
  1 27  1  0  0  0  0
  1 28  1  0  0  0  0
  2 24  1  0  0  0  0
  2  3  2  0  0  0  0
  3  4  1  0  0  0  0
  3 29  1  0  0  0  0
  4 22  2  0  0  0  0
  4  5  1  0  0  0  0
  5  6  2  0  0  0  0
  6  7  1  0  0  0  0
  6 30  1  0  0  0  0
  7  8  1  0  0  0  0
  7 22  1  0  0  0  0
  8  9  1  0  0  0  0
  8 31  1  0  0  0  0
  8 32  1  0  0  0  0
  9 10  1  0  0  0  0
  9 11  1  0  0  0  0
  9 33  1  0  0  0  0
 10 34  1  0  0  0  0
 11 12  1  0  0  0  0
 11 35  1  0  0  0  0
 11 36  1  0  0  0  0
 12 13  1  0  0  0  0
 12 14  1  0  0  0  0
 13 37  1  0  0  0  0
 13 38  1  0  0  0  0
 13 39  1  0  0  0  0
 14 15  1  0  0  0  0
 14 40  1  0  0  0  0
 14 41  1  0  0  0  0
 15 20  2  0  0  0  0
 15 16  1  0  0  0  0
 16 17  1  0  0  0  0
 16 18  2  0  0  0  0
 17 42  1  0  0  0  0
 17 43  1  0  0  0  0
 17 44  1  0  0  0  0
 18 19  1  0  0  0  0
 19 20  1  0  0  0  0
 20 21  1  0  0  0  0
 21 45  1  0  0  0  0
 21 46  1  0  0  0  0
 21 47  1  0  0  0  0
 22 23  1  0  0  0  0
 23 24  2  0  0  0  0
 23 48  1  0  0  0  0
 24 25  1  0  0  0  0
 25 49  1  0  0  0  0
 25 50  1  0  0  0  0
 25 51  1  0  0  0  0
M  END
> <s_m_source_file>
AV-unprocessed.smi

> <i_m_source_file_index>
1207

> <i_lp_mmshare_version>
43012

> <i_f3d_flags>
0

> <s_epik_input>
W0NIM11jKFtjSF0xKWMoW0NIM10pW2NIXWMoYzEyKW4oW2NIXW4yKVtDSDJdW0NASF0oW09IXSlbQ0gyXU4oW0NIM10pW0NIMl1jM2MoW0NIM10pbm9jM1tDSDNd

> <s_epik_cmdline>
J2VwaWtfcHl0aG9uJywgJy1waCcsICc3LjAnLCAnLXRuJywgJzgnLCAnLW1hJywgJzIwMCcsICctbWV0YWxfYmluZGluZycsICctaW1hZScsICc8aW5maWxlLm1hZT4nLCAnLW9tYWUnLCAnPG91dGZpbGUubWFlPic=

> <r_epik_Ionization_Penalty>
0.374039

> <r_epik_Ionization_Penalty_Charging>
0

> <r_epik_Ionization_Penalty_Neutral>
0.374039

> <r_epik_State_Penalty>
0.350767

> <r_epik_Charging_Adjusted_Penalty>
0.350767

> <i_epik_Tot_Q>
0

> <i_epik_Tot_abs_Q>
0

> <r_epik_Metal_State_Penalty>
0.343187

> <b_epik_Metal_Only>
0

> <s_lp_Force_Field>
OPLS_2005

> <r_lp_Energy>
17.6596

> <b_lp_Chiralities_Consistent>
1

> <s_lp_Variant>
AV-unprocessed.smi:1207-2

> <Gold.Version>
5.8.1

> <Gold.Id.Protein>
6NUR|6NUR_protein|mol2

> <Gold.PLP.Fitness>
49.2151

> <Gold.PLP.PLP>
-49.8888

> <Gold.PLP.part.hbond>
-1.7495

> <Gold.PLP.part.metal>
0.0000

> <Gold.PLP.part.buried>
-6.7540

> <Gold.PLP.part.nonpolar>
-41.9603

> <Gold.PLP.part.repulsive>
0.0637

> <Gold.PLP.ligand.clash>
0.0000

> <Gold.PLP.ligand.torsion>
1.1567

> <Gold.PLP.Chemscore.Hbond>
0.5120

> <Gold.PLP.Chemscore.CHOScore>
0.0000

> <Gold.PLP.Chemscore.Metal>
0.0000

> <Gold.Chemscore.Hbonds>
donor molecule, donor type, donor heavy atom, donor atom, acceptor molecule, acceptor atom, score
      P1  H  6888  6897       L1    19  0.01
      P1  H  6896  6909       L1    10  0.54

> <Gold.PLP.Chemscore.Internal.Correction>
0.1036

> <Gold.Rescore>
     Score         DG    S(hbond)    S(metal)    S(lipo)     H(rot)  DE(clash)    DE(int)     intcor
     15.83     -17.33       0.50        0.00     138.82       2.38       0.19       1.30       ----

> <Gold.Chemscore.Fitness>
15.8307

> <Gold.Chemscore.DG>
-17.3257

> <Gold.Chemscore.ZeroCoef>
-5.4800

> <Gold.Chemscore.Hbond>
0.5047

> <Gold.Chemscore.Metal>
0.0000

> <Gold.Chemscore.Lipo>
138.8162

> <Gold.Chemscore.Internal_Hbond>
0.0000

> <Gold.Chemscore.DEClash>
0.1936

> <Gold.Chemscore.DEInternal>
1.3014

> <Gold.Chemscore.Rot>
2.3756

> <Gold.Chemscore.Internal.Correction>
   9.000000E+99

> <Gold.Chemscore.Hbonds>
donor molecule, donor type, donor heavy atom, donor atom, acceptor molecule, acceptor atom, score
      P1  H  6888  6897       L1    19  0.01
      P1  H  6896  6909       L1    10  0.53

> <Gold.Chemscore.Hbond.Weighted>
-1.6858

> <Gold.Chemscore.Metal.Weighted>
-0.0000

> <Gold.Chemscore.Lipo.Weighted>
-16.2415

> <Gold.Chemscore.Internal_Hbond.Weighted>
0.0000

> <Gold.Chemscore.DEClash.Weighted>
0.1936

> <Gold.Chemscore.DEInternal.Weighted>
1.3014

> <Gold.Chemscore.Rot.Weighted>
6.0816

> <Gold.Chemscore.Internal.Correction.Weighted>
   9.000000E+99

> <Gold.Protein.RotatedTorsions>
[ 6907 6896 6895 6894 ] final   76.93 input  -60.11 | X-H torsion
[ 7974 7965 7964 7962 ] final  160.87 input  175.53 | X-H torsion
[ 8008 7997 7996 7995 ] final  -15.31 input   59.86 | X-H torsion
[ 10167 10162 10161 10158 ] final -111.84 input  -65.29 | X-H torsion
[ 10718 10713 10712 10709 ] final  -32.80 input   66.30 | X-H torsion
[ 10763 10752 10751 10750 ] final  -83.93 input  -60.55 | X-H torsion
[ 11005 11000 10999 10996 ] final  122.36 input  -57.11 | X-H torsion

> <Gold.Protein.ActiveResidues>
 VAL166  LYS551  ARG553  GLY616  TRP617  ASP618  TYR619  PRO620  LYS621  CYS622 
 ASP623  PHE694  ASN695  SER759  ASP760  ASP761  ALA762  ILE779  LEU786  VAL792 
 PHE793  MET794  SER795  GLU796  ALA797  LYS798  CYS799  TRP800  GLU811  SER814 

> <Gold.Protein.RotatedAtoms>
  152.5095  134.3894  159.9378 H   0  0  0  0  0  0  0  0  0  0  0  0  # atno 6907 bound_to 6896
  151.3854  133.3800  159.2722 H   0  0  0  0  0  0  0  0  0  0  0  0  # atno 6908 bound_to 6896
  150.9473  134.8897  159.7708 H   0  0  0  0  0  0  0  0  0  0  0  0  # atno 6909 bound_to 6896
  144.7714  139.7818  143.6295 H   0  0  0  0  0  0  0  0  0  0  0  0  # atno 7974 bound_to 7965
  154.5141  140.2200  155.9100 H   0  0  0  0  0  0  0  0  0  0  0  0  # atno 8008 bound_to 7997
  156.1587  140.3147  155.8735 H   0  0  0  0  0  0  0  0  0  0  0  0  # atno 8009 bound_to 7997
  155.3796  140.0471  157.3034 H   0  0  0  0  0  0  0  0  0  0  0  0  # atno 8010 bound_to 7997
  140.1293  143.4375  152.1638 H   0  0  0  0  0  0  0  0  0  0  0  0  # atno 10167 bound_to 10162
  156.3705  130.4339  149.7549 H   0  0  0  0  0  0  0  0  0  0  0  0  # atno 10718 bound_to 10713
  154.5936  135.5538  153.7303 H   0  0  0  0  0  0  0  0  0  0  0  0  # atno 10763 bound_to 10752
  153.0126  135.6349  154.1814 H   0  0  0  0  0  0  0  0  0  0  0  0  # atno 10764 bound_to 10752
  154.1755  135.2890  155.3048 H   0  0  0  0  0  0  0  0  0  0  0  0  # atno 10765 bound_to 10752
  139.9265  134.9641  156.8097 H   0  0  0  0  0  0  0  0  0  0  0  0  # atno 11005 bound_to 11000
  146.1864  139.5081  142.9833 LP  0  0  0  0  0  0  0  0  0  0  0  0  # atno 17320 bound_to 7965
  145.6312  141.0304  143.1862 LP  0  0  0  0  0  0  0  0  0  0  0  0  # atno 17321 bound_to 7965
  139.5528  144.7350  151.4383 LP  0  0  0  0  0  0  0  0  0  0  0  0  # atno 17342 bound_to 10162
  140.6827  143.8046  150.7143 LP  0  0  0  0  0  0  0  0  0  0  0  0  # atno 17343 bound_to 10162
  156.4678  130.7982  151.3001 LP  0  0  0  0  0  0  0  0  0  0  0  0  # atno 17370 bound_to 10713
  157.7483  131.0045  150.3079 LP  0  0  0  0  0  0  0  0  0  0  0  0  # atno 17371 bound_to 10713
  140.6322  133.9895  155.7667 LP  0  0  0  0  0  0  0  0  0  0  0  0  # atno 17394 bound_to 11000
  141.0825  134.0040  157.3363 LP  0  0  0  0  0  0  0  0  0  0  0  0  # atno 17395 bound_to 11000

$$$$
