AV-unprocessed.smi:64|AV-procd|sdf|610|dock6
  -GOLD-   2262016503D 1   1.00000     0.00000
 Structure written by MMmdl.
 31 32  0  0  0  0  0  0  0  0  2 V2000
  146.5949  135.5556  162.2051 C   0  0  0  0  0  0  0  0  0  0  0  0
  147.0487  136.0687  160.8441 C   0  0  0  0  0  0  0  0  0  0  0  0
  146.9665  137.2612  160.5493 O   0  0  0  0  0  0  0  0  0  0  0  0
  147.5223  135.0918  160.0545 O   0  0  0  0  0  0  0  0  0  0  0  0
  147.8153  135.3709  158.6946 C   0  0  0  0  0  0  0  0  0  0  0  0
  147.9318  134.0592  157.9127 C   0  0  0  0  0  0  0  0  0  0  0  0
  148.9259  134.2031  156.9119 O   0  0  0  0  0  0  0  0  0  0  0  0
  148.7043  135.2976  156.0873 C   0  0  0  0  0  0  0  0  0  0  0  0
  149.9410  136.0483  156.0066 N   0  0  0  0  0  0  0  0  0  0  0  0
  151.1200  135.7380  156.5796 C   0  0  0  0  0  0  0  0  0  0  0  0
  152.1094  136.6013  156.3531 N   0  0  0  0  0  0  0  0  0  0  0  0
  151.4871  137.5526  155.5520 C   0  0  0  0  0  0  0  0  0  0  0  0
  151.9912  138.8003  154.9281 C   0  0  0  0  0  0  0  0  0  0  0  0
  153.1640  139.1259  155.1032 O   0  0  0  0  0  0  0  0  0  0  0  0
  151.0759  139.5000  154.1904 N   0  5  0  0  0  0  0  0  0  0  0  0
  149.7612  139.0306  154.0588 C   0  0  0  0  0  0  0  0  0  0  0  0
  148.9762  139.8538  153.2812 N   0  0  0  0  0  0  0  0  0  0  0  0
  149.2484  137.9431  154.5808 N   0  0  0  0  0  0  0  0  0  0  0  0
  150.1741  137.2380  155.3275 C   0  0  0  0  0  0  0  0  0  0  0  0
  146.7136  134.4739  162.2745 H   0  0  0  0  0  0  0  0  0  0  0  0
  145.5444  135.7975  162.3662 H   0  0  0  0  0  0  0  0  0  0  0  0
  147.1819  136.0196  162.9977 H   0  0  0  0  0  0  0  0  0  0  0  0
  147.0468  136.0094  158.2565 H   0  0  0  0  0  0  0  0  0  0  0  0
  148.7608  135.9125  158.6428 H   0  0  0  0  0  0  0  0  0  0  0  0
  148.2228  133.2596  158.5953 H   0  0  0  0  0  0  0  0  0  0  0  0
  146.9702  133.7840  157.4763 H   0  0  0  0  0  0  0  0  0  0  0  0
  148.4190  134.9788  155.0833 H   0  0  0  0  0  0  0  0  0  0  0  0
  147.9269  135.9424  156.5001 H   0  0  0  0  0  0  0  0  0  0  0  0
  151.2567  134.8521  157.1821 H   0  0  0  0  0  0  0  0  0  0  0  0
  149.3125  140.7033  152.8526 H   0  0  0  0  0  0  0  0  0  0  0  0
  148.0036  139.6652  153.0879 H   0  0  0  0  0  0  0  0  0  0  0  0
  1  2  1  0  0  0  0
  1 20  1  0  0  0  0
  1 21  1  0  0  0  0
  1 22  1  0  0  0  0
  2  3  2  0  0  0  0
  2  4  1  0  0  0  0
  4  5  1  0  0  0  0
  5  6  1  0  0  0  0
  5 23  1  0  0  0  0
  5 24  1  0  0  0  0
  6  7  1  0  0  0  0
  6 25  1  0  0  0  0
  6 26  1  0  0  0  0
  7  8  1  0  0  0  0
  8  9  1  0  0  0  0
  8 27  1  0  0  0  0
  8 28  1  0  0  0  0
  9 19  1  0  0  0  0
  9 10  1  0  0  0  0
 10 11  2  0  0  0  0
 10 29  1  0  0  0  0
 11 12  1  0  0  0  0
 12 19  2  0  0  0  0
 12 13  1  0  0  0  0
 13 14  2  0  0  0  0
 13 15  1  0  0  0  0
 15 16  1  0  0  0  0
 16 17  1  0  0  0  0
 16 18  2  0  0  0  0
 17 30  1  0  0  0  0
 17 31  1  0  0  0  0
 18 19  1  0  0  0  0
M  CHG  1  15  -1
M  END
> <s_m_source_file>
AV-unprocessed.smi

> <i_m_source_file_index>
64

> <i_lp_mmshare_version>
43012

> <i_f3d_flags>
0

> <s_epik_input>
W0NIM11DKD1PKU9bQ0gyXVtDSDJdT1tDSDJdbihbY0hdbjEpYyhjMTIpbmMoW05IMl0pW25IXWMyPU8=

> <s_epik_cmdline>
J2VwaWtfcHl0aG9uJywgJy1waCcsICc3LjAnLCAnLXRuJywgJzgnLCAnLW1hJywgJzIwMCcsICctbWV0YWxfYmluZGluZycsICctaW1hZScsICc8aW5maWxlLm1hZT4nLCAnLW9tYWUnLCAnPG91dGZpbGUubWFlPic=

> <r_lp_tautomer_probability>
1

> <r_epik_Ionization_Penalty>
3.5586

> <r_epik_Ionization_Penalty_Charging>
1.23364e-10

> <r_epik_Ionization_Penalty_Neutral>
3.5586

> <r_epik_State_Penalty>
3.54828

> <r_epik_Charging_Adjusted_Penalty>
3.54828

> <i_epik_Tot_Q>
-1

> <i_epik_Tot_abs_Q>
1

> <r_epik_Metal_State_Penalty>
0.517613

> <b_epik_Metal_Only>
1

> <s_epik_Chemistry_Notes>
This compound has an ester and may undergo hydrolysis at high or low pH. This compound contains an acetal/aminal-like group ( X-CH(R)-Y where X, Y are N, S, or O) that may be acid/base labile, releasing an aldehyde.

> <s_lp_Force_Field>
OPLS_2005

> <r_lp_Energy>
20.1337

> <b_lp_Chiralities_Consistent>
1

> <s_lp_Variant>
AV-unprocessed.smi:64-2

> <Gold.Version>
5.8.1

> <Gold.Id.Protein>
6NUR|6NUR_protein|mol2

> <Gold.PLP.Fitness>
41.6175

> <Gold.PLP.PLP>
-28.4154

> <Gold.PLP.part.hbond>
-6.0000

> <Gold.PLP.part.metal>
0.0000

> <Gold.PLP.part.buried>
-6.1907

> <Gold.PLP.part.nonpolar>
-17.3145

> <Gold.PLP.part.repulsive>
0.4032

> <Gold.PLP.ligand.clash>
0.0000

> <Gold.PLP.ligand.torsion>
0.7295

> <Gold.PLP.Chemscore.Hbond>
4.8720

> <Gold.PLP.Chemscore.CHOScore>
0.0000

> <Gold.PLP.Chemscore.Metal>
0.0000

> <Gold.Chemscore.Hbonds>
donor molecule, donor type, donor heavy atom, donor atom, acceptor molecule, acceptor atom, score
      P1  H  6934  6947       L1     3  1.00
      P1  H  7989  7998       L1    15  1.00
      P1  H  7997  8009       L1    14  1.00
      P1  H 10752 10763       L1    11  0.95

> <Gold.PLP.Chemscore.Internal.Correction>
0.0452

> <Gold.Rescore>
     Score         DG    S(hbond)    S(metal)    S(lipo)     H(rot)  DE(clash)    DE(int)     intcor
     11.74     -12.53       4.47        0.00      18.65       3.93       0.00       0.79       ----

> <Gold.Chemscore.Fitness>
11.7399

> <Gold.Chemscore.DG>
-12.5256

> <Gold.Chemscore.ZeroCoef>
-5.4800

> <Gold.Chemscore.Hbond>
4.4718

> <Gold.Chemscore.Metal>
0.0000

> <Gold.Chemscore.Lipo>
18.6462

> <Gold.Chemscore.Internal_Hbond>
0.0000

> <Gold.Chemscore.DEClash>
0.0000

> <Gold.Chemscore.DEInternal>
0.7857

> <Gold.Chemscore.Rot>
3.9343

> <Gold.Chemscore.Internal.Correction>
   9.000000E+99

> <Gold.Chemscore.Hbonds>
donor molecule, donor type, donor heavy atom, donor atom, acceptor molecule, acceptor atom, score
      L1  H    17    30       P1  7957  0.05
      P1  H  6934  6947       L1     3  1.00
      P1  H  7989  7998       L1    15  0.90
      P1  H  7997  8009       L1    14  1.00
      P1  H 10752 10763       L1    11  0.13

> <Gold.Chemscore.Hbond.Weighted>
-14.9357

> <Gold.Chemscore.Metal.Weighted>
-0.0000

> <Gold.Chemscore.Lipo.Weighted>
-2.1816

> <Gold.Chemscore.Internal_Hbond.Weighted>
0.0000

> <Gold.Chemscore.DEClash.Weighted>
0.0000

> <Gold.Chemscore.DEInternal.Weighted>
0.7857

> <Gold.Chemscore.Rot.Weighted>
10.0717

> <Gold.Chemscore.Internal.Correction.Weighted>
   9.000000E+99

> <Gold.Protein.RotatedTorsions>
[ 6907 6896 6895 6894 ] final -104.39 input  -60.11 | X-H torsion
[ 7974 7965 7964 7962 ] final  -87.65 input  175.53 | X-H torsion
[ 8008 7997 7996 7995 ] final -140.81 input   59.86 | X-H torsion
[ 10167 10162 10161 10158 ] final  -48.05 input  -65.29 | X-H torsion
[ 10718 10713 10712 10709 ] final -136.09 input   66.30 | X-H torsion
[ 10763 10752 10751 10750 ] final   99.83 input  -60.55 | X-H torsion
[ 11005 11000 10999 10996 ] final  172.44 input  -57.11 | X-H torsion

> <Gold.Protein.ActiveResidues>
 VAL166  LYS551  ARG553  GLY616  TRP617  ASP618  TYR619  PRO620  LYS621  CYS622 
 ASP623  PHE694  ASN695  SER759  ASP760  ASP761  ALA762  ILE779  LEU786  VAL792 
 PHE793  MET794  SER795  GLU796  ALA797  LYS798  CYS799  TRP800  GLU811  SER814 

> <Gold.Protein.RotatedAtoms>
  150.7285  134.0285  159.3725 H   0  0  0  0  0  0  0  0  0  0  0  0  # atno 6907 bound_to 6896
  151.8253  135.0636  160.0439 H   0  0  0  0  0  0  0  0  0  0  0  0  # atno 6908 bound_to 6896
  152.2973  133.5584  159.5632 H   0  0  0  0  0  0  0  0  0  0  0  0  # atno 6909 bound_to 6896
  145.4637  140.9560  143.1955 H   0  0  0  0  0  0  0  0  0  0  0  0  # atno 7974 bound_to 7965
  155.4674  140.0550  157.2983 H   0  0  0  0  0  0  0  0  0  0  0  0  # atno 8008 bound_to 7997
  154.4712  140.2041  155.9944 H   0  0  0  0  0  0  0  0  0  0  0  0  # atno 8009 bound_to 7997
  156.1059  140.3212  155.8009 H   0  0  0  0  0  0  0  0  0  0  0  0  # atno 8010 bound_to 7997
  140.6748  143.2757  151.4015 H   0  0  0  0  0  0  0  0  0  0  0  0  # atno 10167 bound_to 10162
  156.2733  130.7278  151.1252 H   0  0  0  0  0  0  0  0  0  0  0  0  # atno 10718 bound_to 10713
  153.3063  135.4100  155.1297 H   0  0  0  0  0  0  0  0  0  0  0  0  # atno 10763 bound_to 10752
  154.8563  135.3553  154.5784 H   0  0  0  0  0  0  0  0  0  0  0  0  # atno 10764 bound_to 10752
  153.6211  135.7064  153.5369 H   0  0  0  0  0  0  0  0  0  0  0  0  # atno 10765 bound_to 10752
  140.3298  134.7367  157.4126 H   0  0  0  0  0  0  0  0  0  0  0  0  # atno 11005 bound_to 11000
  144.7987  139.6183  143.7081 LP  0  0  0  0  0  0  0  0  0  0  0  0  # atno 17320 bound_to 7965
  146.2436  139.6053  142.9474 LP  0  0  0  0  0  0  0  0  0  0  0  0  # atno 17321 bound_to 7965
  139.6035  144.1246  152.2223 LP  0  0  0  0  0  0  0  0  0  0  0  0  # atno 17342 bound_to 10162
  140.0638  144.5835  150.7243 LP  0  0  0  0  0  0  0  0  0  0  0  0  # atno 17343 bound_to 10162
  157.7291  131.0627  150.5790 LP  0  0  0  0  0  0  0  0  0  0  0  0  # atno 17370 bound_to 10713
  156.5888  130.4324  149.5945 LP  0  0  0  0  0  0  0  0  0  0  0  0  # atno 17371 bound_to 10713
  140.0870  134.5652  155.8482 LP  0  0  0  0  0  0  0  0  0  0  0  0  # atno 17394 bound_to 11000
  141.2066  133.6657  156.6253 LP  0  0  0  0  0  0  0  0  0  0  0  0  # atno 17395 bound_to 11000

$$$$
