AV-unprocessed.smi:371|AV-procd|sdf|2441|dock8
  -GOLD-   2262022383D 1   1.00000     0.00000
 Structure written by MMmdl.
 39 40  0  0  0  0  0  0  0  0  1 V2000
  153.5761  142.7397  163.5272 C   0  0  0  0  0  0  0  0  0  0  0  0
  153.2581  142.4485  162.0655 C   0  0  0  0  0  0  0  0  0  0  0  0
  152.3834  143.3628  161.3691 C   0  0  0  0  0  0  0  0  0  0  0  0
  152.0142  143.1390  160.0978 C   0  0  0  0  0  0  0  0  0  0  0  0
  151.0787  144.1049  159.3791 C   0  0  0  0  0  0  0  0  0  0  0  0
  152.4991  142.0016  159.3947 N   0  0  0  0  0  0  0  0  0  0  0  0
  152.0652  141.7639  157.9970 C   0  0  0  0  0  0  0  0  0  0  0  0
  150.7295  140.9856  157.9234 C   0  0  2  0  0  0  0  0  0  0  0  0
  150.6835  140.0442  158.9777 O   0  0  0  0  0  0  0  0  0  0  0  0
  150.5719  140.2931  156.5754 C   0  0  0  0  0  0  0  0  0  0  0  0
  151.5016  139.3067  156.1750 C   0  0  0  0  0  0  0  0  0  0  0  0
  151.3659  138.6614  154.9308 C   0  0  0  0  0  0  0  0  0  0  0  0
  150.3004  138.9988  154.0757 C   0  0  0  0  0  0  0  0  0  0  0  0
  149.3722  139.9828  154.4655 C   0  0  0  0  0  0  0  0  0  0  0  0
  149.5048  140.6292  155.7101 C   0  0  0  0  0  0  0  0  0  0  0  0
  148.5987  141.5715  156.0653 F   0  0  0  0  0  0  0  0  0  0  0  0
  153.3738  141.1119  159.9655 C   0  0  0  0  0  0  0  0  0  0  0  0
  153.8390  140.1815  159.2992 O   0  0  0  0  0  0  0  0  0  0  0  0
  153.7201  141.3600  161.3925 C   0  0  0  0  0  0  0  0  0  0  0  0
  154.6157  140.3782  162.0363 C   0  0  0  0  0  0  0  0  0  0  0  0
  154.6555  139.1725  161.4525 N   0  0  0  0  0  0  0  0  0  0  0  0
  155.2397  140.5736  163.0781 O   0  0  0  0  0  0  0  0  0  0  0  0
  152.9574  143.5512  163.9111 H   0  0  0  0  0  0  0  0  0  0  0  0
  154.6189  143.0369  163.6405 H   0  0  0  0  0  0  0  0  0  0  0  0
  153.3896  141.8654  164.1518 H   0  0  0  0  0  0  0  0  0  0  0  0
  152.0113  144.2365  161.8847 H   0  0  0  0  0  0  0  0  0  0  0  0
  150.6143  144.7910  160.0880 H   0  0  0  0  0  0  0  0  0  0  0  0
  150.2682  143.5920  158.8651 H   0  0  0  0  0  0  0  0  0  0  0  0
  151.6325  144.7067  158.6581 H   0  0  0  0  0  0  0  0  0  0  0  0
  151.9612  142.7180  157.4824 H   0  0  0  0  0  0  0  0  0  0  0  0
  152.8274  141.2637  157.3965 H   0  0  0  0  0  0  0  0  0  0  0  0
  149.8938  141.6690  158.0731 H   0  0  0  0  0  0  0  0  0  0  0  0
  151.5696  139.8223  159.2200 H   0  0  0  0  0  0  0  0  0  0  0  0
  152.3241  139.0419  156.8232 H   0  0  0  0  0  0  0  0  0  0  0  0
  152.0796  137.9074  154.6329 H   0  0  0  0  0  0  0  0  0  0  0  0
  150.1949  138.5039  153.1215 H   0  0  0  0  0  0  0  0  0  0  0  0
  148.5552  140.2423  153.8085 H   0  0  0  0  0  0  0  0  0  0  0  0
  155.2289  138.4403  161.8461 H   0  0  0  0  0  0  0  0  0  0  0  0
  154.0950  138.9942  160.6319 H   0  0  0  0  0  0  0  0  0  0  0  0
  1  2  1  0  0  0  0
  1 23  1  0  0  0  0
  1 24  1  0  0  0  0
  1 25  1  0  0  0  0
  2 19  2  0  0  0  0
  2  3  1  0  0  0  0
  3  4  2  0  0  0  0
  3 26  1  0  0  0  0
  4  5  1  0  0  0  0
  4  6  1  0  0  0  0
  5 27  1  0  0  0  0
  5 28  1  0  0  0  0
  5 29  1  0  0  0  0
  6  7  1  0  0  0  0
  6 17  1  0  0  0  0
  7  8  1  0  0  0  0
  7 30  1  0  0  0  0
  7 31  1  0  0  0  0
  8  9  1  0  0  0  0
  8 10  1  0  0  0  0
  8 32  1  0  0  0  0
  9 33  1  0  0  0  0
 10 15  1  0  0  0  0
 10 11  2  0  0  0  0
 11 12  1  0  0  0  0
 11 34  1  0  0  0  0
 12 13  2  0  0  0  0
 12 35  1  0  0  0  0
 13 14  1  0  0  0  0
 13 36  1  0  0  0  0
 14 15  2  0  0  0  0
 14 37  1  0  0  0  0
 15 16  1  0  0  0  0
 17 18  2  0  0  0  0
 17 19  1  0  0  0  0
 19 20  1  0  0  0  0
 20 21  1  0  0  0  0
 20 22  2  0  0  0  0
 21 38  1  0  0  0  0
 21 39  1  0  0  0  0
M  END
> <s_m_source_file>
AV-unprocessed.smi

> <i_m_source_file_index>
371

> <i_lp_mmshare_version>
43012

> <i_f3d_flags>
0

> <s_epik_input>
W0NIM11jMVtjSF1jKFtDSDNdKW4oYyg9TyljMUMoPU8pW05IMl0pW0NIMl1bQ0BIXShbT0hdKWMyW2NIXVtjSF1bY0hdW2NIXWMyRg==

> <s_epik_cmdline>
J2VwaWtfcHl0aG9uJywgJy1waCcsICc3LjAnLCAnLXRuJywgJzgnLCAnLW1hJywgJzIwMCcsICctbWV0YWxfYmluZGluZycsICctaW1hZScsICc8aW5maWxlLm1hZT4nLCAnLW9tYWUnLCAnPG91dGZpbGUubWFlPic=

> <r_lp_tautomer_probability>
1

> <r_epik_Ionization_Penalty>
3.46512e-07

> <r_epik_Ionization_Penalty_Charging>
1.35363e-07

> <r_epik_Ionization_Penalty_Neutral>
2.11149e-07

> <r_epik_State_Penalty>
-0

> <r_epik_Charging_Adjusted_Penalty>
1.35363e-07

> <i_epik_Tot_Q>
0

> <i_epik_Tot_abs_Q>
0

> <r_epik_Metal_State_Penalty>
-0

> <b_epik_Metal_Only>
0

> <s_lp_Force_Field>
OPLS_2005

> <r_lp_Energy>
40.8148

> <b_lp_Chiralities_Consistent>
1

> <s_lp_Variant>
AV-unprocessed.smi:371-1

> <Gold.Version>
5.8.1

> <Gold.Id.Protein>
6NUR|6NUR_protein|mol2

> <Gold.PLP.Fitness>
50.0379

> <Gold.PLP.PLP>
-49.1571

> <Gold.PLP.part.hbond>
-2.0000

> <Gold.PLP.part.metal>
0.0000

> <Gold.PLP.part.buried>
-3.9237

> <Gold.PLP.part.nonpolar>
-40.6091

> <Gold.PLP.part.repulsive>
0.0000

> <Gold.PLP.ligand.clash>
0.0000

> <Gold.PLP.ligand.torsion>
0.7628

> <Gold.PLP.Chemscore.Hbond>
0.6989

> <Gold.PLP.Chemscore.CHOScore>
0.0000

> <Gold.PLP.Chemscore.Metal>
0.0000

> <Gold.Chemscore.Hbonds>
donor molecule, donor type, donor heavy atom, donor atom, acceptor molecule, acceptor atom, score
      P1  H  7997  8010       L1    18  0.31

> <Gold.PLP.Chemscore.Internal.Correction>
0.3097

> <Gold.Rescore>
     Score         DG    S(hbond)    S(metal)    S(lipo)     H(rot)  DE(clash)    DE(int)     intcor
     14.71     -17.12       0.97        0.00     116.27       2.04       0.31       2.10       ----

> <Gold.Chemscore.Fitness>
14.7063

> <Gold.Chemscore.DG>
-17.1170

> <Gold.Chemscore.ZeroCoef>
-5.4800

> <Gold.Chemscore.Hbond>
0.9743

> <Gold.Chemscore.Metal>
0.0000

> <Gold.Chemscore.Lipo>
116.2743

> <Gold.Chemscore.Internal_Hbond>
0.0000

> <Gold.Chemscore.DEClash>
0.3124

> <Gold.Chemscore.DEInternal>
2.0983

> <Gold.Chemscore.Rot>
2.0396

> <Gold.Chemscore.Internal.Correction>
   9.000000E+99

> <Gold.Chemscore.Hbonds>
donor molecule, donor type, donor heavy atom, donor atom, acceptor molecule, acceptor atom, score
      P1  H  7997  8010       L1    18  0.30

> <Gold.Chemscore.Hbond.Weighted>
-3.2542

> <Gold.Chemscore.Metal.Weighted>
-0.0000

> <Gold.Chemscore.Lipo.Weighted>
-13.6041

> <Gold.Chemscore.Internal_Hbond.Weighted>
0.0000

> <Gold.Chemscore.DEClash.Weighted>
0.3124

> <Gold.Chemscore.DEInternal.Weighted>
2.0983

> <Gold.Chemscore.Rot.Weighted>
5.2214

> <Gold.Chemscore.Internal.Correction.Weighted>
   9.000000E+99

> <Gold.Protein.RotatedTorsions>
[ 6907 6896 6895 6894 ] final   81.35 input  -60.11 | X-H torsion
[ 7974 7965 7964 7962 ] final   33.74 input  175.53 | X-H torsion
[ 8008 7997 7996 7995 ] final   13.34 input   59.86 | X-H torsion
[ 10167 10162 10161 10158 ] final   -9.88 input  -65.29 | X-H torsion
[ 10718 10713 10712 10709 ] final -168.42 input   66.30 | X-H torsion
[ 10763 10752 10751 10750 ] final  121.94 input  -60.55 | X-H torsion
[ 11005 11000 10999 10996 ] final -101.65 input  -57.11 | X-H torsion

> <Gold.Protein.ActiveResidues>
 VAL166  LYS551  ARG553  GLY616  TRP617  ASP618  TYR619  PRO620  LYS621  CYS622 
 ASP623  PHE694  ASN695  SER759  ASP760  ASP761  ALA762  ILE779  LEU786  VAL792 
 PHE793  MET794  SER795  GLU796  ALA797  LYS798  CYS799  TRP800  GLU811  SER814 

> <Gold.Protein.RotatedAtoms>
  152.5265  134.3217  159.9150 H   0  0  0  0  0  0  0  0  0  0  0  0  # atno 6907 bound_to 6896
  151.3166  133.4051  159.2659 H   0  0  0  0  0  0  0  0  0  0  0  0  # atno 6908 bound_to 6896
  150.9993  134.9326  159.8002 H   0  0  0  0  0  0  0  0  0  0  0  0  # atno 6909 bound_to 6896
  146.1400  139.6358  142.9169 H   0  0  0  0  0  0  0  0  0  0  0  0  # atno 7974 bound_to 7965
  154.8331  140.2902  155.5709 H   0  0  0  0  0  0  0  0  0  0  0  0  # atno 8008 bound_to 7997
  156.3007  140.2528  156.3191 H   0  0  0  0  0  0  0  0  0  0  0  0  # atno 8009 bound_to 7997
  154.9209  140.0386  157.1986 H   0  0  0  0  0  0  0  0  0  0  0  0  # atno 8010 bound_to 7997
  140.7099  143.5809  150.8992 H   0  0  0  0  0  0  0  0  0  0  0  0  # atno 10167 bound_to 10162
  156.6967  130.9180  151.3075 H   0  0  0  0  0  0  0  0  0  0  0  0  # atno 10718 bound_to 10713
  153.6219  135.3411  155.3013 H   0  0  0  0  0  0  0  0  0  0  0  0  # atno 10763 bound_to 10752
  154.8598  135.4275  154.2198 H   0  0  0  0  0  0  0  0  0  0  0  0  # atno 10764 bound_to 10752
  153.3073  135.7029  153.7221 H   0  0  0  0  0  0  0  0  0  0  0  0  # atno 10765 bound_to 10752
  141.1222  133.8495  157.1259 H   0  0  0  0  0  0  0  0  0  0  0  0  # atno 11005 bound_to 11000
  145.5068  141.0436  143.2510 LP  0  0  0  0  0  0  0  0  0  0  0  0  # atno 17320 bound_to 7965
  144.7782  139.6583  143.7166 LP  0  0  0  0  0  0  0  0  0  0  0  0  # atno 17321 bound_to 7965
  139.9535  143.6244  152.3022 LP  0  0  0  0  0  0  0  0  0  0  0  0  # atno 17342 bound_to 10162
  139.6772  144.7658  151.1675 LP  0  0  0  0  0  0  0  0  0  0  0  0  # atno 17343 bound_to 10162
  157.6989  130.9311  150.0725 LP  0  0  0  0  0  0  0  0  0  0  0  0  # atno 17370 bound_to 10713
  156.1758  130.3648  149.9102 LP  0  0  0  0  0  0  0  0  0  0  0  0  # atno 17371 bound_to 10713
  140.0189  134.9955  157.0550 LP  0  0  0  0  0  0  0  0  0  0  0  0  # atno 17394 bound_to 11000
  140.4473  134.1618  155.7178 LP  0  0  0  0  0  0  0  0  0  0  0  0  # atno 17395 bound_to 11000

$$$$
