AV-unprocessed.smi:1576|AV-procd|sdf|6345|dock4
  -GOLD-   22720 6563D 1   1.00000     0.00000
 Structure written by MMmdl.
 46 48  0  0  0  0  0  0  0  0  2 V2000
  147.7053  138.8885  155.3009 O   0  0  0  0  0  0  0  0  0  0  0  0
  148.0594  138.1926  154.3496 C   0  0  0  0  0  0  0  0  0  0  0  0
  147.2328  137.5382  153.5156 N   0  0  0  0  0  0  0  0  0  0  0  0
  145.8140  137.4655  153.5536 C   0  0  0  0  0  0  0  0  0  0  0  0
  145.0468  136.5256  152.8233 C   0  0  0  0  0  0  0  0  0  0  0  0
  143.6401  136.5496  152.9192 C   0  0  0  0  0  0  0  0  0  0  0  0
  143.0003  137.5146  153.7377 C   0  0  0  0  0  0  0  0  0  0  0  0
  141.5984  137.6166  153.8897 N   0  0  0  0  0  0  0  0  0  0  0  0
  140.8163  136.4364  153.5063 C   0  0  0  0  0  0  0  0  0  0  0  0
  139.3944  136.4870  154.0906 C   0  0  0  0  0  0  0  0  0  0  0  0
  138.6953  137.8051  153.7323 C   0  0  0  0  0  0  0  0  0  0  0  0
  139.5518  138.9899  154.1979 C   0  0  0  0  0  0  0  0  0  0  0  0
  140.9738  138.9127  153.6158 C   0  0  0  0  0  0  0  0  0  0  0  0
  143.7816  138.4002  154.4029 N   0  3  0  0  0  0  0  0  0  0  0  0
  145.1301  138.4142  154.3394 C   0  0  0  0  0  0  0  0  0  0  0  0
  149.3421  138.0090  154.0063 N   0  0  0  0  0  0  0  0  0  0  0  0
  150.4862  138.5914  154.7014 C   0  0  2  0  0  0  0  0  0  0  0  0
  151.7734  138.4503  153.8681 C   0  0  0  0  0  0  0  0  0  0  0  0
  152.9774  138.7434  154.7716 C   0  0  0  0  0  0  0  0  0  0  0  0
  152.4962  138.1926  156.4523 S   0  0  0  0  0  0  0  0  0  0  0  0
  153.1265  136.8967  156.7452 O   0  0  0  0  0  0  0  0  0  0  0  0
  152.6261  139.3254  157.3810 O   0  0  0  0  0  0  0  0  0  0  0  0
  150.7264  137.9200  156.0633 C   0  0  0  0  0  0  0  0  0  0  0  0
  147.6694  137.0772  152.7307 H   0  0  0  0  0  0  0  0  0  0  0  0
  145.5059  135.7915  152.1797 H   0  0  0  0  0  0  0  0  0  0  0  0
  143.0789  135.8154  152.3615 H   0  0  0  0  0  0  0  0  0  0  0  0
  140.7687  136.3915  152.4175 H   0  0  0  0  0  0  0  0  0  0  0  0
  141.2894  135.5126  153.8379 H   0  0  0  0  0  0  0  0  0  0  0  0
  138.8110  135.6424  153.7230 H   0  0  0  0  0  0  0  0  0  0  0  0
  139.4414  136.3817  155.1754 H   0  0  0  0  0  0  0  0  0  0  0  0
  138.5392  137.8613  152.6543 H   0  0  0  0  0  0  0  0  0  0  0  0
  137.7092  137.8475  154.1956 H   0  0  0  0  0  0  0  0  0  0  0  0
  139.0811  139.9295  153.9074 H   0  0  0  0  0  0  0  0  0  0  0  0
  139.6037  138.9946  155.2874 H   0  0  0  0  0  0  0  0  0  0  0  0
  141.5644  139.7178  154.0537 H   0  0  0  0  0  0  0  0  0  0  0  0
  140.9474  139.0755  152.5377 H   0  0  0  0  0  0  0  0  0  0  0  0
  145.6178  139.1811  154.9242 H   0  0  0  0  0  0  0  0  0  0  0  0
  149.5445  137.4267  153.2067 H   0  0  0  0  0  0  0  0  0  0  0  0
  150.3121  139.6569  154.8643 H   0  0  0  0  0  0  0  0  0  0  0  0
  151.8549  137.4255  153.5031 H   0  0  0  0  0  0  0  0  0  0  0  0
  151.7638  139.1002  152.9925 H   0  0  0  0  0  0  0  0  0  0  0  0
  153.8857  138.2326  154.4519 H   0  0  0  0  0  0  0  0  0  0  0  0
  153.1766  139.8143  154.8139 H   0  0  0  0  0  0  0  0  0  0  0  0
  150.1005  138.3293  156.8566 H   0  0  0  0  0  0  0  0  0  0  0  0
  150.5610  136.8434  156.0100 H   0  0  0  0  0  0  0  0  0  0  0  0
  143.3229  139.1014  154.9848 H   0  0  0  0  0  0  0  0  0  0  0  0
  1  2  2  0  0  0  0
  2  3  1  0  0  0  0
  2 16  1  0  0  0  0
  3  4  1  0  0  0  0
  3 24  1  0  0  0  0
  4 15  1  0  0  0  0
  4  5  2  0  0  0  0
  5  6  1  0  0  0  0
  5 25  1  0  0  0  0
  6  7  2  0  0  0  0
  6 26  1  0  0  0  0
  7  8  1  0  0  0  0
  7 14  1  0  0  0  0
  8 13  1  0  0  0  0
  8  9  1  0  0  0  0
  9 10  1  0  0  0  0
  9 27  1  0  0  0  0
  9 28  1  0  0  0  0
 10 11  1  0  0  0  0
 10 29  1  0  0  0  0
 10 30  1  0  0  0  0
 11 12  1  0  0  0  0
 11 31  1  0  0  0  0
 11 32  1  0  0  0  0
 12 13  1  0  0  0  0
 12 33  1  0  0  0  0
 12 34  1  0  0  0  0
 13 35  1  0  0  0  0
 13 36  1  0  0  0  0
 14 15  2  0  0  0  0
 14 46  1  0  0  0  0
 15 37  1  0  0  0  0
 16 17  1  0  0  0  0
 16 38  1  0  0  0  0
 17 23  1  0  0  0  0
 17 18  1  0  0  0  0
 17 39  1  0  0  0  0
 18 19  1  0  0  0  0
 18 40  1  0  0  0  0
 18 41  1  0  0  0  0
 19 20  1  0  0  0  0
 19 42  1  0  0  0  0
 19 43  1  0  0  0  0
 20 21  2  0  0  0  0
 20 22  2  0  0  0  0
 20 23  1  0  0  0  0
 23 44  1  0  0  0  0
 23 45  1  0  0  0  0
M  CHG  1  14   1
M  END
> <s_m_source_file>
AV-unprocessed.smi

> <i_m_source_file_index>
1576

> <i_lp_mmshare_version>
43012

> <i_f3d_flags>
0

> <s_epik_input>
Tz1TMSg9TylbQ0gyXVtDSDJdW0NASF0oW0NIMl0xKVtOSF1DKD1PKVtOSF1jMltjSF1bY0hdYyhuW2NIXTIpTjNbQ0gyXVtDSDJdW0NIMl1bQ0gyXVtDSDJdMw==

> <s_epik_cmdline>
J2VwaWtfcHl0aG9uJywgJy1waCcsICc3LjAnLCAnLXRuJywgJzgnLCAnLW1hJywgJzIwMCcsICctbWV0YWxfYmluZGluZycsICctaW1hZScsICc8aW5maWxlLm1hZT4nLCAnLW9tYWUnLCAnPG91dGZpbGUubWFlPic=

> <r_lp_tautomer_probability>
0.999994

> <r_epik_Ionization_Penalty>
1.19724

> <r_epik_Ionization_Penalty_Charging>
1.19722

> <r_epik_Ionization_Penalty_Neutral>
2.11505e-05

> <r_epik_State_Penalty>
1.26251

> <r_epik_Charging_Adjusted_Penalty>
2.45973

> <i_epik_Tot_Q>
1

> <i_epik_Tot_abs_Q>
1

> <r_epik_Metal_State_Penalty>
1.33857

> <b_epik_Metal_Only>
0

> <s_lp_Force_Field>
OPLS_2005

> <r_lp_Energy>
26.9885

> <b_lp_Chiralities_Consistent>
1

> <s_lp_Variant>
AV-unprocessed.smi:1576-3

> <Gold.Version>
5.8.1

> <Gold.Id.Protein>
6NUR|6NUR_protein|mol2

> <Gold.PLP.Fitness>
41.9716

> <Gold.PLP.PLP>
-30.6750

> <Gold.PLP.part.hbond>
-5.0000

> <Gold.PLP.part.metal>
0.0000

> <Gold.PLP.part.buried>
-3.3993

> <Gold.PLP.part.nonpolar>
-21.2084

> <Gold.PLP.part.repulsive>
0.2045

> <Gold.PLP.ligand.clash>
0.0000

> <Gold.PLP.ligand.torsion>
0.4812

> <Gold.PLP.Chemscore.Hbond>
3.9120

> <Gold.PLP.Chemscore.CHOScore>
0.0000

> <Gold.PLP.Chemscore.Metal>
0.0000

> <Gold.Chemscore.Hbonds>
donor molecule, donor type, donor heavy atom, donor atom, acceptor molecule, acceptor atom, score
      L1  H     3    24       P1  7948  1.00
      L1  H    16    38       P1  7948  1.00
      P1  H  7997  8010       L1    22  0.81
      P1  H 10752 10764       L1    21  0.76

> <Gold.PLP.Chemscore.Internal.Correction>
0.5229

> <Gold.Rescore>
     Score         DG    S(hbond)    S(metal)    S(lipo)     H(rot)  DE(clash)    DE(int)     intcor
     19.50     -22.70       3.59        0.00      71.98       1.25       1.37       1.83       ----

> <Gold.Chemscore.Fitness>
19.5028

> <Gold.Chemscore.DG>
-22.6976

> <Gold.Chemscore.ZeroCoef>
-5.4800

> <Gold.Chemscore.Hbond>
3.5895

> <Gold.Chemscore.Metal>
0.0000

> <Gold.Chemscore.Lipo>
71.9805

> <Gold.Chemscore.Internal_Hbond>
0.0000

> <Gold.Chemscore.DEClash>
1.3687

> <Gold.Chemscore.DEInternal>
1.8262

> <Gold.Chemscore.Rot>
1.2473

> <Gold.Chemscore.Internal.Correction>
   9.000000E+99

> <Gold.Chemscore.Hbonds>
donor molecule, donor type, donor heavy atom, donor atom, acceptor molecule, acceptor atom, score
      L1  H     3    24       P1  7948  0.99
      L1  H    16    38       P1  7948  0.82
      P1  H  7997  8010       L1    22  0.13
      P1  H 10752 10764       L1    21  0.72

> <Gold.Chemscore.Hbond.Weighted>
-11.9891

> <Gold.Chemscore.Metal.Weighted>
-0.0000

> <Gold.Chemscore.Lipo.Weighted>
-8.4217

> <Gold.Chemscore.Internal_Hbond.Weighted>
0.0000

> <Gold.Chemscore.DEClash.Weighted>
1.3687

> <Gold.Chemscore.DEInternal.Weighted>
1.8262

> <Gold.Chemscore.Rot.Weighted>
3.1931

> <Gold.Chemscore.Internal.Correction.Weighted>
   9.000000E+99

> <Gold.Protein.RotatedTorsions>
[ 6907 6896 6895 6894 ] final   72.40 input  -60.11 | X-H torsion
[ 7974 7965 7964 7962 ] final  -90.44 input  175.53 | X-H torsion
[ 8008 7997 7996 7995 ] final   61.52 input   59.86 | X-H torsion
[ 10167 10162 10161 10158 ] final  136.72 input  -65.29 | X-H torsion
[ 10718 10713 10712 10709 ] final  -55.87 input   66.30 | X-H torsion
[ 10763 10752 10751 10750 ] final   -2.13 input  -60.55 | X-H torsion
[ 11005 11000 10999 10996 ] final  171.00 input  -57.11 | X-H torsion

> <Gold.Protein.ActiveResidues>
 VAL166  LYS551  ARG553  GLY616  TRP617  ASP618  TYR619  PRO620  LYS621  CYS622 
 ASP623  PHE694  ASN695  SER759  ASP760  ASP761  ALA762  ILE779  LEU786  VAL792 
 PHE793  MET794  SER795  GLU796  ALA797  LYS798  CYS799  TRP800  GLU811  SER814 

> <Gold.Protein.RotatedAtoms>
  152.4865  134.4577  159.9594 H   0  0  0  0  0  0  0  0  0  0  0  0  # atno 6907 bound_to 6896
  151.4572  133.3596  159.2811 H   0  0  0  0  0  0  0  0  0  0  0  0  # atno 6908 bound_to 6896
  150.8981  134.8416  159.7401 H   0  0  0  0  0  0  0  0  0  0  0  0  # atno 6909 bound_to 6896
  145.4264  140.9554  143.2152 H   0  0  0  0  0  0  0  0  0  0  0  0  # atno 7974 bound_to 7965
  155.5997  140.3494  155.4590 H   0  0  0  0  0  0  0  0  0  0  0  0  # atno 8008 bound_to 7997
  156.0237  140.1259  157.0355 H   0  0  0  0  0  0  0  0  0  0  0  0  # atno 8009 bound_to 7997
  154.4325  140.1057  156.5987 H   0  0  0  0  0  0  0  0  0  0  0  0  # atno 8010 bound_to 7997
  139.5170  144.6449  151.5467 H   0  0  0  0  0  0  0  0  0  0  0  0  # atno 10167 bound_to 10162
  156.1334  130.4158  150.0229 H   0  0  0  0  0  0  0  0  0  0  0  0  # atno 10718 bound_to 10713
  153.3539  135.6987  153.6766 H   0  0  0  0  0  0  0  0  0  0  0  0  # atno 10763 bound_to 10752
  153.5482  135.3559  155.2748 H   0  0  0  0  0  0  0  0  0  0  0  0  # atno 10764 bound_to 10752
  154.8658  135.4220  154.2781 H   0  0  0  0  0  0  0  0  0  0  0  0  # atno 10765 bound_to 10752
  140.3144  134.7490  157.4016 H   0  0  0  0  0  0  0  0  0  0  0  0  # atno 11005 bound_to 11000
  144.8212  139.5789  143.6986 LP  0  0  0  0  0  0  0  0  0  0  0  0  # atno 17320 bound_to 7965
  146.2630  139.6454  142.9349 LP  0  0  0  0  0  0  0  0  0  0  0  0  # atno 17321 bound_to 7965
  140.6230  143.9222  150.6541 LP  0  0  0  0  0  0  0  0  0  0  0  0  # atno 17342 bound_to 10162
  140.2502  143.3599  152.1412 LP  0  0  0  0  0  0  0  0  0  0  0  0  # atno 17343 bound_to 10162
  156.8135  130.9333  151.3643 LP  0  0  0  0  0  0  0  0  0  0  0  0  # atno 17370 bound_to 10713
  157.6509  130.8884  149.9632 LP  0  0  0  0  0  0  0  0  0  0  0  0  # atno 17371 bound_to 10713
  140.0997  134.5490  155.8365 LP  0  0  0  0  0  0  0  0  0  0  0  0  # atno 17394 bound_to 11000
  141.2101  133.6691  156.6485 LP  0  0  0  0  0  0  0  0  0  0  0  0  # atno 17395 bound_to 11000

$$$$
