AV-unprocessed.smi:104|AV-procd|sdf|1004|dock10
  -GOLD-   2262017593D 1   1.00000     0.00000
 Structure written by MMmdl.
 47 49  0  0  0  0  0  0  0  0  1 V2000
  146.8352  135.2976  162.3425 C   0  0  0  0  0  0  0  0  0  0  0  0
  147.5287  135.9205  161.1381 C   0  0  0  0  0  0  0  0  0  0  0  0
  148.0240  137.0466  161.1900 O   0  0  0  0  0  0  0  0  0  0  0  0
  147.5196  135.1108  160.0705 O   0  0  0  0  0  0  0  0  0  0  0  0
  148.4027  135.3606  158.9900 C   0  0  0  0  0  0  0  0  0  0  0  0
  147.5921  135.4222  157.6922 C   0  0  1  0  0  0  0  0  0  0  0  0
  146.7366  136.5557  157.7000 O   0  0  0  0  0  0  0  0  0  0  0  0
  146.3261  136.8244  156.3986 C   0  0  2  0  0  0  0  0  0  0  0  0
  145.0336  136.1076  156.1060 N   0  0  0  0  0  0  0  0  0  0  0  0
  144.1547  135.4132  156.9219 C   0  0  0  0  0  0  0  0  0  0  0  0
  144.3792  135.1680  158.7998 Br  0  0  0  0  0  0  0  0  0  0  0  0
  143.0917  134.9135  156.3554 N   0  0  0  0  0  0  0  0  0  0  0  0
  143.2097  135.3350  155.0399 C   0  0  0  0  0  0  0  0  0  0  0  0
  142.4136  135.1744  153.8780 C   0  0  0  0  0  0  0  0  0  0  0  0
  141.2690  134.4777  153.8669 N   0  0  0  0  0  0  0  0  0  0  0  0
  142.8244  135.7549  152.7265 N   0  0  0  0  0  0  0  0  0  0  0  0
  143.9589  136.4618  152.7138 C   0  0  0  0  0  0  0  0  0  0  0  0
  144.8074  136.6961  153.7180 N   0  0  0  0  0  0  0  0  0  0  0  0
  144.3994  136.1007  154.8776 C   0  0  0  0  0  0  0  0  0  0  0  0
  147.4461  136.2996  155.4796 C   0  0  1  0  0  0  0  0  0  0  0  0
  148.0340  137.3815  154.7688 O   0  0  0  0  0  0  0  0  0  0  0  0
  148.7366  138.3249  155.4204 C   0  0  0  0  0  0  0  0  0  0  0  0
  149.3591  139.3457  154.4766 C   0  0  0  0  0  0  0  0  0  0  0  0
  148.8884  138.4059  156.6394 O   0  0  0  0  0  0  0  0  0  0  0  0
  148.4417  135.6729  156.4508 C   0  0  2  0  0  0  0  0  0  0  0  0
  148.9376  134.4416  155.9418 O   0  0  0  0  0  0  0  0  0  0  0  0
  149.9838  133.8356  156.5281 C   0  0  0  0  0  0  0  0  0  0  0  0
  150.4904  132.6450  155.7252 C   0  0  0  0  0  0  0  0  0  0  0  0
  150.5109  134.1639  157.5912 O   0  0  0  0  0  0  0  0  0  0  0  0
  145.7666  135.1974  162.1517 H   0  0  0  0  0  0  0  0  0  0  0  0
  146.9723  135.9191  163.2277 H   0  0  0  0  0  0  0  0  0  0  0  0
  147.2448  134.3085  162.5477 H   0  0  0  0  0  0  0  0  0  0  0  0
  148.9521  136.2908  159.1418 H   0  0  0  0  0  0  0  0  0  0  0  0
  149.1313  134.5506  158.9366 H   0  0  0  0  0  0  0  0  0  0  0  0
  146.9979  134.5154  157.5613 H   0  0  0  0  0  0  0  0  0  0  0  0
  146.0828  137.8790  156.2652 H   0  0  0  0  0  0  0  0  0  0  0  0
  140.9394  134.0385  154.7145 H   0  0  0  0  0  0  0  0  0  0  0  0
  140.7397  134.3912  153.0115 H   0  0  0  0  0  0  0  0  0  0  0  0
  144.2264  136.9004  151.7638 H   0  0  0  0  0  0  0  0  0  0  0  0
  147.0332  135.5364  154.8185 H   0  0  0  0  0  0  0  0  0  0  0  0
  148.8466  140.3031  154.5684 H   0  0  0  0  0  0  0  0  0  0  0  0
  149.2883  139.0138  153.4406 H   0  0  0  0  0  0  0  0  0  0  0  0
  150.4115  139.4914  154.7204 H   0  0  0  0  0  0  0  0  0  0  0  0
  149.2374  136.3788  156.6965 H   0  0  0  0  0  0  0  0  0  0  0  0
  149.8521  131.7778  155.8941 H   0  0  0  0  0  0  0  0  0  0  0  0
  151.5076  132.3893  156.0223 H   0  0  0  0  0  0  0  0  0  0  0  0
  150.4908  132.8745  154.6595 H   0  0  0  0  0  0  0  0  0  0  0  0
  1  2  1  0  0  0  0
  1 30  1  0  0  0  0
  1 31  1  0  0  0  0
  1 32  1  0  0  0  0
  2  3  2  0  0  0  0
  2  4  1  0  0  0  0
  4  5  1  0  0  0  0
  5  6  1  0  0  0  0
  5 33  1  0  0  0  0
  5 34  1  0  0  0  0
  6 25  1  0  0  0  0
  6  7  1  0  0  0  0
  6 35  1  0  0  0  0
  7  8  1  0  0  0  0
  8  9  1  0  0  0  0
  8 20  1  0  0  0  0
  8 36  1  0  0  0  0
  9 19  1  0  0  0  0
  9 10  1  0  0  0  0
 10 11  1  0  0  0  0
 10 12  2  0  0  0  0
 12 13  1  0  0  0  0
 13 19  2  0  0  0  0
 13 14  1  0  0  0  0
 14 15  1  0  0  0  0
 14 16  2  0  0  0  0
 15 37  1  0  0  0  0
 15 38  1  0  0  0  0
 16 17  1  0  0  0  0
 17 18  2  0  0  0  0
 17 39  1  0  0  0  0
 18 19  1  0  0  0  0
 20 21  1  0  0  0  0
 20 25  1  0  0  0  0
 20 40  1  0  0  0  0
 21 22  1  0  0  0  0
 22 23  1  0  0  0  0
 22 24  2  0  0  0  0
 23 41  1  0  0  0  0
 23 42  1  0  0  0  0
 23 43  1  0  0  0  0
 25 26  1  0  0  0  0
 25 44  1  0  0  0  0
 26 27  1  0  0  0  0
 27 28  1  0  0  0  0
 27 29  2  0  0  0  0
 28 45  1  0  0  0  0
 28 46  1  0  0  0  0
 28 47  1  0  0  0  0
M  END
> <s_m_source_file>
AV-unprocessed.smi

> <i_m_source_file_index>
104

> <i_lp_mmshare_version>
43012

> <i_f3d_flags>
0

> <s_epik_input>
W0NIM11DKD1PKU9bQ0gyXVtDQEBIXTFPW0NASF0oW0NAQEhdKE9DKD1PKVtDSDNdKVtDQEhdMU9DKD1PKVtDSDNdKW4oYyhCciluMiljKGMyMyluW2NIXW5jM1tOSDJd

> <s_epik_cmdline>
J2VwaWtfcHl0aG9uJywgJy1waCcsICc3LjAnLCAnLXRuJywgJzgnLCAnLW1hJywgJzIwMCcsICctbWV0YWxfYmluZGluZycsICctaW1hZScsICc8aW5maWxlLm1hZT4nLCAnLW9tYWUnLCAnPG91dGZpbGUubWFlPic=

> <r_lp_tautomer_probability>
1

> <r_epik_Ionization_Penalty>
7.36622e-05

> <r_epik_Ionization_Penalty_Charging>
0

> <r_epik_Ionization_Penalty_Neutral>
7.36622e-05

> <r_epik_State_Penalty>
-0

> <r_epik_Charging_Adjusted_Penalty>
0

> <i_epik_Tot_Q>
0

> <i_epik_Tot_abs_Q>
0

> <r_epik_Metal_State_Penalty>
-0

> <b_epik_Metal_Only>
0

> <s_epik_Chemistry_Notes>
This compound has an ester and may undergo hydrolysis at high or low pH. This compound contains an acetal/aminal-like group ( X-CH(R)-Y where X, Y are N, S, or O) that may be acid/base labile, releasing an aldehyde.

> <s_lp_Force_Field>
OPLS_2005

> <r_lp_Energy>
12.8289

> <b_lp_Chiralities_Consistent>
1

> <s_lp_Variant>
AV-unprocessed.smi:104-12

> <Gold.Version>
5.8.1

> <Gold.Id.Protein>
6NUR|6NUR_protein|mol2

> <Gold.PLP.Fitness>
36.7891

> <Gold.PLP.PLP>
-25.5774

> <Gold.PLP.part.hbond>
-5.4860

> <Gold.PLP.part.metal>
0.0000

> <Gold.PLP.part.buried>
-5.1313

> <Gold.PLP.part.nonpolar>
-15.9511

> <Gold.PLP.part.repulsive>
0.6518

> <Gold.PLP.ligand.clash>
0.0000

> <Gold.PLP.ligand.torsion>
0.8989

> <Gold.PLP.Chemscore.Hbond>
3.2811

> <Gold.PLP.Chemscore.CHOScore>
1.0000

> <Gold.PLP.Chemscore.Metal>
0.0000

> <Gold.Chemscore.Hbonds>
donor molecule, donor type, donor heavy atom, donor atom, acceptor molecule, acceptor atom, score
      L1  H    15    37       P1 11000  1.00
      P1  H  6896  6907       L1    29  0.67
      P1  H  6931  6943       L1     3  1.00
      P1  H  6934  6947       L1     3  0.49
      P1  H 11000 11005       L1    12  0.01
      L1  C    17    39       P1 10171  0.82

> <Gold.PLP.Chemscore.Internal.Correction>
0.1661

> <Gold.Rescore>
     Score         DG    S(hbond)    S(metal)    S(lipo)     H(rot)  DE(clash)    DE(int)     intcor
      4.56     -10.00       3.56        0.00      31.21       4.31       0.21       5.23       ----

> <Gold.Chemscore.Fitness>
4.5595

> <Gold.Chemscore.DG>
-10.0014

> <Gold.Chemscore.ZeroCoef>
-5.4800

> <Gold.Chemscore.Hbond>
3.5615

> <Gold.Chemscore.Metal>
0.0000

> <Gold.Chemscore.Lipo>
31.2117

> <Gold.Chemscore.Internal_Hbond>
0.0000

> <Gold.Chemscore.DEClash>
0.2115

> <Gold.Chemscore.DEInternal>
5.2305

> <Gold.Chemscore.Rot>
4.3070

> <Gold.Chemscore.Internal.Correction>
   9.000000E+99

> <Gold.Chemscore.Hbonds>
donor molecule, donor type, donor heavy atom, donor atom, acceptor molecule, acceptor atom, score
      L1  H    15    37       P1 11000  0.72
      P1  H  6896  6907       L1    29  0.66
      P1  H  6931  6943       L1     3  0.98
      P1  H  6934  6947       L1     3  0.49
      P1  H 11000 11005       L1    12  0.02

> <Gold.Chemscore.Hbond.Weighted>
-11.8956

> <Gold.Chemscore.Metal.Weighted>
-0.0000

> <Gold.Chemscore.Lipo.Weighted>
-3.6518

> <Gold.Chemscore.Internal_Hbond.Weighted>
0.0000

> <Gold.Chemscore.DEClash.Weighted>
0.2115

> <Gold.Chemscore.DEInternal.Weighted>
5.2305

> <Gold.Chemscore.Rot.Weighted>
11.0259

> <Gold.Chemscore.Internal.Correction.Weighted>
   9.000000E+99

> <Gold.Protein.RotatedTorsions>
[ 6907 6896 6895 6894 ] final -123.12 input  -60.11 | X-H torsion
[ 7974 7965 7964 7962 ] final -175.19 input  175.53 | X-H torsion
[ 8008 7997 7996 7995 ] final  -71.17 input   59.86 | X-H torsion
[ 10167 10162 10161 10158 ] final -145.75 input  -65.29 | X-H torsion
[ 10718 10713 10712 10709 ] final   57.55 input   66.30 | X-H torsion
[ 10763 10752 10751 10750 ] final -141.45 input  -60.55 | X-H torsion
[ 11005 11000 10999 10996 ] final -123.10 input  -57.11 | X-H torsion

> <Gold.Protein.ActiveResidues>
 VAL166  LYS551  ARG553  GLY616  TRP617  ASP618  TYR619  PRO620  LYS621  CYS622 
 ASP623  PHE694  ASN695  SER759  ASP760  ASP761  ALA762  ILE779  LEU786  VAL792 
 PHE793  MET794  SER795  GLU796  ALA797  LYS798  CYS799  TRP800  GLU811  SER814 

> <Gold.Protein.RotatedAtoms>
  150.8641  133.7601  159.2982 H   0  0  0  0  0  0  0  0  0  0  0  0  # atno 6907 bound_to 6896
  151.5234  135.1066  159.9894 H   0  0  0  0  0  0  0  0  0  0  0  0  # atno 6908 bound_to 6896
  152.4648  133.7854  159.6929 H   0  0  0  0  0  0  0  0  0  0  0  0  # atno 6909 bound_to 6896
  144.7129  140.1358  143.6395 H   0  0  0  0  0  0  0  0  0  0  0  0  # atno 7974 bound_to 7965
  154.5067  140.0820  156.7909 H   0  0  0  0  0  0  0  0  0  0  0  0  # atno 8008 bound_to 7997
  155.3877  140.3431  155.4231 H   0  0  0  0  0  0  0  0  0  0  0  0  # atno 8009 bound_to 7997
  156.1524  140.1562  156.8735 H   0  0  0  0  0  0  0  0  0  0  0  0  # atno 8010 bound_to 7997
  139.7776  143.8147  152.2634 H   0  0  0  0  0  0  0  0  0  0  0  0  # atno 10167 bound_to 10162
  157.5524  130.8775  149.8983 H   0  0  0  0  0  0  0  0  0  0  0  0  # atno 10718 bound_to 10713
  154.8544  135.3524  154.5870 H   0  0  0  0  0  0  0  0  0  0  0  0  # atno 10763 bound_to 10752
  153.6480  135.6995  153.5223 H   0  0  0  0  0  0  0  0  0  0  0  0  # atno 10764 bound_to 10752
  153.2917  135.4233  155.1131 H   0  0  0  0  0  0  0  0  0  0  0  0  # atno 10765 bound_to 10752
  140.9945  134.0491  157.3614 H   0  0  0  0  0  0  0  0  0  0  0  0  # atno 11005 bound_to 11000
  145.9246  139.2567  143.1361 LP  0  0  0  0  0  0  0  0  0  0  0  0  # atno 17320 bound_to 7965
  145.9585  140.8854  143.0223 LP  0  0  0  0  0  0  0  0  0  0  0  0  # atno 17321 bound_to 7965
  139.8200  144.7300  150.9585 LP  0  0  0  0  0  0  0  0  0  0  0  0  # atno 17342 bound_to 10162
  140.7817  143.4168  151.0904 LP  0  0  0  0  0  0  0  0  0  0  0  0  # atno 17343 bound_to 10162
  156.0588  130.3703  150.1029 LP  0  0  0  0  0  0  0  0  0  0  0  0  # atno 17370 bound_to 10713
  156.9201  130.9680  151.3550 LP  0  0  0  0  0  0  0  0  0  0  0  0  # atno 17371 bound_to 10713
  139.9008  135.0163  156.7258 LP  0  0  0  0  0  0  0  0  0  0  0  0  # atno 17394 bound_to 11000
  140.6988  133.9325  155.8011 LP  0  0  0  0  0  0  0  0  0  0  0  0  # atno 17395 bound_to 11000

$$$$
