AV-unprocessed.smi:803|AV-procd|sdf|3793|dock10
  -GOLD-   22720 1233D 1   1.00000     0.00000
 Structure written by MMmdl.
 37 38  0  0  0  0  0  0  0  0  1 V2000
  146.1767  138.0062  152.0059 C   0  0  0  0  0  0  0  0  0  0  0  0
  146.6921  139.4404  151.8339 C   0  0  0  0  0  0  0  0  0  0  0  0
  147.5446  139.8438  152.9351 N   0  0  0  0  0  0  0  0  0  0  0  0
  147.7452  141.1139  153.4385 C   0  0  0  0  0  0  0  0  0  0  0  0
  148.6345  140.9679  154.4654 C   0  0  0  0  0  0  0  0  0  0  0  0
  149.1809  141.9504  155.3289 N   0  0  0  0  0  0  0  0  0  0  0  0
  150.2671  141.8357  156.1105 C   0  0  0  0  0  0  0  0  0  0  0  0
  150.9642  140.8256  156.2096 O   0  0  0  0  0  0  0  0  0  0  0  0
  150.5008  142.9700  156.7860 N   0  0  0  0  0  0  0  0  0  0  0  0
  151.5930  143.1796  157.7316 C   0  0  0  0  0  0  0  0  0  0  0  0
  151.6720  142.0080  158.7319 C   0  0  0  0  0  0  0  0  0  0  0  0
  152.7617  142.2447  159.7900 C   0  0  0  0  0  0  0  0  0  0  0  0
  152.5517  143.5811  160.5191 C   0  0  0  0  0  0  0  0  0  0  0  0
  152.4806  144.7503  159.5247 C   0  0  0  0  0  0  0  0  0  0  0  0
  151.3889  144.5173  158.4678 C   0  0  0  0  0  0  0  0  0  0  0  0
  148.9300  139.5815  154.5278 C   0  0  0  0  0  0  0  0  0  0  0  0
  148.2707  138.9087  153.5970 N   0  0  0  0  0  0  0  0  0  0  0  0
  145.5247  137.7271  151.1782 H   0  0  0  0  0  0  0  0  0  0  0  0
  145.6063  137.9016  152.9295 H   0  0  0  0  0  0  0  0  0  0  0  0
  146.9987  137.2904  152.0362 H   0  0  0  0  0  0  0  0  0  0  0  0
  147.2546  139.5342  150.9040 H   0  0  0  0  0  0  0  0  0  0  0  0
  145.8536  140.1346  151.7689 H   0  0  0  0  0  0  0  0  0  0  0  0
  147.2452  141.9793  153.0290 H   0  0  0  0  0  0  0  0  0  0  0  0
  148.6904  142.8323  155.3572 H   0  0  0  0  0  0  0  0  0  0  0  0
  149.8733  143.7472  156.6396 H   0  0  0  0  0  0  0  0  0  0  0  0
  152.5363  143.2380  157.1848 H   0  0  0  0  0  0  0  0  0  0  0  0
  150.7089  141.8807  159.2287 H   0  0  0  0  0  0  0  0  0  0  0  0
  151.8724  141.0748  158.2038 H   0  0  0  0  0  0  0  0  0  0  0  0
  152.7651  141.4255  160.5097 H   0  0  0  0  0  0  0  0  0  0  0  0
  153.7417  142.2396  159.3111 H   0  0  0  0  0  0  0  0  0  0  0  0
  151.6297  143.5392  161.1003 H   0  0  0  0  0  0  0  0  0  0  0  0
  153.3598  143.7474  161.2320 H   0  0  0  0  0  0  0  0  0  0  0  0
  152.2882  145.6810  160.0588 H   0  0  0  0  0  0  0  0  0  0  0  0
  153.4465  144.8710  159.0323 H   0  0  0  0  0  0  0  0  0  0  0  0
  151.3900  145.3411  157.7531 H   0  0  0  0  0  0  0  0  0  0  0  0
  150.4110  144.5291  158.9517 H   0  0  0  0  0  0  0  0  0  0  0  0
  149.5876  139.0520  155.2012 H   0  0  0  0  0  0  0  0  0  0  0  0
  1  2  1  0  0  0  0
  1 18  1  0  0  0  0
  1 19  1  0  0  0  0
  1 20  1  0  0  0  0
  2  3  1  0  0  0  0
  2 21  1  0  0  0  0
  2 22  1  0  0  0  0
  3 17  1  0  0  0  0
  3  4  1  0  0  0  0
  4  5  2  0  0  0  0
  4 23  1  0  0  0  0
  5  6  1  0  0  0  0
  5 16  1  0  0  0  0
  6  7  1  0  0  0  0
  6 24  1  0  0  0  0
  7  8  2  0  0  0  0
  7  9  1  0  0  0  0
  9 10  1  0  0  0  0
  9 25  1  0  0  0  0
 10 15  1  0  0  0  0
 10 11  1  0  0  0  0
 10 26  1  0  0  0  0
 11 12  1  0  0  0  0
 11 27  1  0  0  0  0
 11 28  1  0  0  0  0
 12 13  1  0  0  0  0
 12 29  1  0  0  0  0
 12 30  1  0  0  0  0
 13 14  1  0  0  0  0
 13 31  1  0  0  0  0
 13 32  1  0  0  0  0
 14 15  1  0  0  0  0
 14 33  1  0  0  0  0
 14 34  1  0  0  0  0
 15 35  1  0  0  0  0
 15 36  1  0  0  0  0
 16 17  2  0  0  0  0
 16 37  1  0  0  0  0
M  END
> <s_m_source_file>
AV-unprocessed.smi

> <i_m_source_file_index>
803

> <i_lp_mmshare_version>
43012

> <i_f3d_flags>
0

> <s_epik_input>
W0NIM11bQ0gyXW4xW2NIXWMoW2NIXW4xKVtOSF1DKD1PKVtOSF1bQ0hdMltDSDJdW0NIMl1bQ0gyXVtDSDJdW0NIMl0y

> <s_epik_cmdline>
J2VwaWtfcHl0aG9uJywgJy1waCcsICc3LjAnLCAnLXRuJywgJzgnLCAnLW1hJywgJzIwMCcsICctbWV0YWxfYmluZGluZycsICctaW1hZScsICc8aW5maWxlLm1hZT4nLCAnLW9tYWUnLCAnPG91dGZpbGUubWFlPic=

> <r_lp_tautomer_probability>
1

> <r_epik_Ionization_Penalty>
0.000191435

> <r_epik_Ionization_Penalty_Charging>
0

> <r_epik_Ionization_Penalty_Neutral>
0.000191435

> <r_epik_State_Penalty>
-0

> <r_epik_Charging_Adjusted_Penalty>
0

> <i_epik_Tot_Q>
0

> <i_epik_Tot_abs_Q>
0

> <r_epik_Metal_State_Penalty>
-0

> <b_epik_Metal_Only>
0

> <s_lp_Force_Field>
OPLS_2005

> <r_lp_Energy>
12.5011

> <b_lp_Chiralities_Consistent>
1

> <s_lp_Variant>
AV-unprocessed.smi:803-1

> <Gold.Version>
5.8.1

> <Gold.Id.Protein>
6NUR|6NUR_protein|mol2

> <Gold.PLP.Fitness>
42.8842

> <Gold.PLP.PLP>
-38.3245

> <Gold.PLP.part.hbond>
-2.0000

> <Gold.PLP.part.metal>
0.0000

> <Gold.PLP.part.buried>
-0.2884

> <Gold.PLP.part.nonpolar>
-36.8146

> <Gold.PLP.part.repulsive>
0.8557

> <Gold.PLP.ligand.clash>
0.0000

> <Gold.PLP.ligand.torsion>
0.5417

> <Gold.PLP.Chemscore.Hbond>
1.8800

> <Gold.PLP.Chemscore.CHOScore>
0.0000

> <Gold.PLP.Chemscore.Metal>
0.0000

> <Gold.Chemscore.Hbonds>
donor molecule, donor type, donor heavy atom, donor atom, acceptor molecule, acceptor atom, score
      L1  H     6    24       P1  8028  0.91
      L1  H     9    25       P1  8028  1.00

> <Gold.PLP.Chemscore.Internal.Correction>
0.0032

> <Gold.Rescore>
     Score         DG    S(hbond)    S(metal)    S(lipo)     H(rot)  DE(clash)    DE(int)     intcor
     17.73     -21.15       1.84        0.00     107.04       1.17       1.04       2.37       ----

> <Gold.Chemscore.Fitness>
17.7346

> <Gold.Chemscore.DG>
-21.1529

> <Gold.Chemscore.ZeroCoef>
-5.4800

> <Gold.Chemscore.Hbond>
1.8372

> <Gold.Chemscore.Metal>
0.0000

> <Gold.Chemscore.Lipo>
107.0383

> <Gold.Chemscore.Internal_Hbond>
0.0000

> <Gold.Chemscore.DEClash>
1.0441

> <Gold.Chemscore.DEInternal>
2.3742

> <Gold.Chemscore.Rot>
1.1667

> <Gold.Chemscore.Internal.Correction>
   9.000000E+99

> <Gold.Chemscore.Hbonds>
donor molecule, donor type, donor heavy atom, donor atom, acceptor molecule, acceptor atom, score
      L1  H     6    24       P1  8028  0.88
      L1  H     9    25       P1  8028  0.97

> <Gold.Chemscore.Hbond.Weighted>
-6.1361

> <Gold.Chemscore.Metal.Weighted>
-0.0000

> <Gold.Chemscore.Lipo.Weighted>
-12.5235

> <Gold.Chemscore.Internal_Hbond.Weighted>
0.0000

> <Gold.Chemscore.DEClash.Weighted>
1.0441

> <Gold.Chemscore.DEInternal.Weighted>
2.3742

> <Gold.Chemscore.Rot.Weighted>
2.9867

> <Gold.Chemscore.Internal.Correction.Weighted>
   9.000000E+99

> <Gold.Protein.RotatedTorsions>
[ 6907 6896 6895 6894 ] final -157.17 input  -60.11 | X-H torsion
[ 7974 7965 7964 7962 ] final    8.89 input  175.53 | X-H torsion
[ 8008 7997 7996 7995 ] final -133.20 input   59.86 | X-H torsion
[ 10167 10162 10161 10158 ] final  -43.74 input  -65.29 | X-H torsion
[ 10718 10713 10712 10709 ] final  -98.06 input   66.30 | X-H torsion
[ 10763 10752 10751 10750 ] final   25.89 input  -60.55 | X-H torsion
[ 11005 11000 10999 10996 ] final   29.04 input  -57.11 | X-H torsion

> <Gold.Protein.ActiveResidues>
 VAL166  LYS551  ARG553  GLY616  TRP617  ASP618  TYR619  PRO620  LYS621  CYS622 
 ASP623  PHE694  ASN695  SER759  ASP760  ASP761  ALA762  ILE779  LEU786  VAL792 
 PHE793  MET794  SER795  GLU796  ALA797  LYS798  CYS799  TRP800  GLU811  SER814 

> <Gold.Protein.RotatedAtoms>
  151.2988  133.4132  159.2637 H   0  0  0  0  0  0  0  0  0  0  0  0  # atno 6907 bound_to 6896
  151.0214  134.9472  159.8072 H   0  0  0  0  0  0  0  0  0  0  0  0  # atno 6908 bound_to 6896
  152.5325  134.2950  159.9110 H   0  0  0  0  0  0  0  0  0  0  0  0  # atno 6909 bound_to 6896
  146.2410  139.9865  142.8430 H   0  0  0  0  0  0  0  0  0  0  0  0  # atno 7974 bound_to 7965
  155.3416  140.0472  157.3045 H   0  0  0  0  0  0  0  0  0  0  0  0  # atno 8008 bound_to 7997
  154.5274  140.2245  155.8830 H   0  0  0  0  0  0  0  0  0  0  0  0  # atno 8009 bound_to 7997
  156.1754  140.3086  155.9055 H   0  0  0  0  0  0  0  0  0  0  0  0  # atno 8010 bound_to 7997
  140.6923  143.2966  151.3396 H   0  0  0  0  0  0  0  0  0  0  0  0  # atno 10167 bound_to 10162
  156.0098  130.5222  150.6467 H   0  0  0  0  0  0  0  0  0  0  0  0  # atno 10718 bound_to 10713
  153.0660  135.6573  154.0353 H   0  0  0  0  0  0  0  0  0  0  0  0  # atno 10763 bound_to 10752
  154.0010  135.2937  155.3404 H   0  0  0  0  0  0  0  0  0  0  0  0  # atno 10764 bound_to 10752
  154.7018  135.5241  153.8607 H   0  0  0  0  0  0  0  0  0  0  0  0  # atno 10765 bound_to 10752
  140.3091  134.2670  155.7738 H   0  0  0  0  0  0  0  0  0  0  0  0  # atno 11005 bound_to 11000
  145.1543  140.9640  143.4414 LP  0  0  0  0  0  0  0  0  0  0  0  0  # atno 17320 bound_to 7965
  145.0175  139.3453  143.6089 LP  0  0  0  0  0  0  0  0  0  0  0  0  # atno 17321 bound_to 7965
  139.6338  144.0670  152.2499 LP  0  0  0  0  0  0  0  0  0  0  0  0  # atno 17342 bound_to 10162
  140.0153  144.6193  150.7612 LP  0  0  0  0  0  0  0  0  0  0  0  0  # atno 17343 bound_to 10162
  157.4237  131.0840  151.1106 LP  0  0  0  0  0  0  0  0  0  0  0  0  # atno 17370 bound_to 10713
  157.1700  130.6263  149.5638 LP  0  0  0  0  0  0  0  0  0  0  0  0  # atno 17371 bound_to 10713
  141.2112  133.7696  156.9881 LP  0  0  0  0  0  0  0  0  0  0  0  0  # atno 17394 bound_to 11000
  140.1040  134.9518  157.1967 LP  0  0  0  0  0  0  0  0  0  0  0  0  # atno 17395 bound_to 11000

$$$$
