AV-unprocessed.smi:2886|AV-procd|sdf|11094|dock1
  -GOLD-   2272015563D 1   1.00000     0.00000
 Structure written by MMmdl.
 28 30  0  0  0  0  0  0  0  0  3 V2000
  150.7449  139.1019  154.0268 O   0  0  0  0  0  0  0  0  0  0  0  0
  150.5839  139.9898  154.8618 C   0  0  0  0  0  0  0  0  0  0  0  0
  149.8021  141.0892  154.6443 N   0  5  0  0  0  0  0  0  0  0  0  0
  149.6478  142.0238  155.5557 N   0  3  0  0  0  0  0  0  0  0  0  0
  150.2266  141.9881  156.7519 C   0  0  0  0  0  0  0  0  0  0  0  0
  151.0722  140.8994  157.1040 C   0  0  0  0  0  0  0  0  0  0  0  0
  151.6960  140.8176  158.3428 N   0  0  0  0  0  0  0  0  0  0  0  0
  151.6271  141.7501  159.4595 C   0  0  1  0  0  0  0  0  0  0  0  0
  152.7238  141.5068  160.4994 C   0  0  0  0  0  0  0  0  0  0  0  0
  153.4019  142.8813  160.5650 C   0  0  2  0  0  0  0  0  0  0  0  0
  152.4985  143.9473  161.2015 C   0  0  0  0  0  0  0  0  0  0  0  0
  151.4784  144.1974  160.0906 C   0  0  0  0  0  0  0  0  0  0  0  0
  151.9254  143.1929  159.0201 C   0  0  1  0  0  0  0  0  0  0  0  0
  153.3311  143.2566  159.2008 O   0  0  0  0  0  0  0  0  0  0  0  0
  151.2447  139.9127  156.1778 C   0  0  0  0  0  0  0  0  0  0  0  0
  152.2511  138.5434  156.5165 Cl  0  0  0  0  0  0  0  0  0  0  0  0
  149.0473  142.8427  155.3711 H   0  0  0  0  0  0  0  0  0  0  0  0
  150.0179  142.8109  157.4237 H   0  0  0  0  0  0  0  0  0  0  0  0
  152.4019  140.1013  158.4428 H   0  0  0  0  0  0  0  0  0  0  0  0
  150.6370  141.7126  159.9136 H   0  0  0  0  0  0  0  0  0  0  0  0
  152.3262  141.1908  161.4642 H   0  0  0  0  0  0  0  0  0  0  0  0
  153.4348  140.7510  160.1622 H   0  0  0  0  0  0  0  0  0  0  0  0
  154.4130  142.8560  160.9722 H   0  0  0  0  0  0  0  0  0  0  0  0
  152.0395  143.6003  162.1279 H   0  0  0  0  0  0  0  0  0  0  0  0
  153.0599  144.8573  161.4170 H   0  0  0  0  0  0  0  0  0  0  0  0
  150.4494  144.0362  160.4133 H   0  0  0  0  0  0  0  0  0  0  0  0
  151.5629  145.2189  159.7182 H   0  0  0  0  0  0  0  0  0  0  0  0
  151.5819  143.4419  158.0152 H   0  0  0  0  0  0  0  0  0  0  0  0
  1  2  2  0  0  0  0
  2  3  1  0  0  0  0
  2 15  1  0  0  0  0
  3  4  1  0  0  0  0
  4  5  2  0  0  0  0
  4 17  1  0  0  0  0
  5  6  1  0  0  0  0
  5 18  1  0  0  0  0
  6 15  2  0  0  0  0
  6  7  1  0  0  0  0
  7  8  1  0  0  0  0
  7 19  1  0  0  0  0
  8 13  1  0  0  0  0
  8  9  1  0  0  0  0
  8 20  1  0  0  0  0
  9 10  1  0  0  0  0
  9 21  1  0  0  0  0
  9 22  1  0  0  0  0
 10 14  1  0  0  0  0
 10 11  1  0  0  0  0
 10 23  1  0  0  0  0
 11 12  1  0  0  0  0
 11 24  1  0  0  0  0
 11 25  1  0  0  0  0
 12 13  1  0  0  0  0
 12 26  1  0  0  0  0
 12 27  1  0  0  0  0
 13 14  1  0  0  0  0
 13 28  1  0  0  0  0
 15 16  1  0  0  0  0
M  CHG  1   3  -1
M  CHG  1   4   1
M  END
> <s_m_source_file>
AV-unprocessed.smi

> <i_m_source_file_index>
2886

> <i_lp_mmshare_version>
43012

> <i_f3d_flags>
0

> <s_epik_input>
Tz1jMVtuSF1uW2NIXWMoYzFDbClbTkhdW0NASF0oW0NIMl1bQ0BASF0yMylbQ0BASF0oTzMpW0NIMl1bQ0gyXTI=

> <s_epik_cmdline>
J2VwaWtfcHl0aG9uJywgJy1waCcsICc3LjAnLCAnLXRuJywgJzgnLCAnLW1hJywgJzIwMCcsICctbWV0YWxfYmluZGluZycsICctaW1hZScsICc8aW5maWxlLm1hZT4nLCAnLW9tYWUnLCAnPG91dGZpbGUubWFlPic=

> <r_lp_tautomer_probability>
0.0138196

> <r_epik_Ionization_Penalty>
2.43027

> <r_epik_Ionization_Penalty_Charging>
2.43027

> <r_epik_Ionization_Penalty_Neutral>
1.33267e-06

> <r_epik_State_Penalty>
2.7044

> <r_epik_Charging_Adjusted_Penalty>
5.13467

> <i_epik_Tot_Q>
0

> <i_epik_Tot_abs_Q>
2

> <r_epik_Metal_State_Penalty>
2.98589

> <b_epik_Metal_Only>
0

> <s_lp_Force_Field>
OPLS_2005

> <r_lp_Energy>
57.4962

> <b_lp_Chiralities_Consistent>
1

> <s_lp_Variant>
AV-unprocessed.smi:2886-8

> <Gold.Version>
5.8.1

> <Gold.Id.Protein>
6NUR|6NUR_protein|mol2

> <Gold.PLP.Fitness>
34.1876

> <Gold.PLP.PLP>
-29.0584

> <Gold.PLP.part.hbond>
-3.0000

> <Gold.PLP.part.metal>
0.0000

> <Gold.PLP.part.buried>
-1.8071

> <Gold.PLP.part.nonpolar>
-23.8422

> <Gold.PLP.part.repulsive>
0.6119

> <Gold.PLP.ligand.clash>
0.0000

> <Gold.PLP.ligand.torsion>
0.1328

> <Gold.PLP.Chemscore.Hbond>
1.7920

> <Gold.PLP.Chemscore.CHOScore>
0.0000

> <Gold.PLP.Chemscore.Metal>
0.0000

> <Gold.Chemscore.Hbonds>
donor molecule, donor type, donor heavy atom, donor atom, acceptor molecule, acceptor atom, score
      L1  H     4    17       P1  8028  1.76

> <Gold.PLP.Chemscore.Internal.Correction>
0.0188

> <Gold.Rescore>
     Score         DG    S(hbond)    S(metal)    S(lipo)     H(rot)  DE(clash)    DE(int)     intcor
     15.83     -16.06       0.91        0.00      86.43       1.00       0.13       0.10       ----

> <Gold.Chemscore.Fitness>
15.8261

> <Gold.Chemscore.DG>
-16.0635

> <Gold.Chemscore.ZeroCoef>
-5.4800

> <Gold.Chemscore.Hbond>
0.9077

> <Gold.Chemscore.Metal>
0.0000

> <Gold.Chemscore.Lipo>
86.4260

> <Gold.Chemscore.Internal_Hbond>
0.0000

> <Gold.Chemscore.DEClash>
0.1339

> <Gold.Chemscore.DEInternal>
0.1036

> <Gold.Chemscore.Rot>
1.0000

> <Gold.Chemscore.Internal.Correction>
   9.000000E+99

> <Gold.Chemscore.Hbonds>
donor molecule, donor type, donor heavy atom, donor atom, acceptor molecule, acceptor atom, score
      L1  H     4    17       P1  8028  0.86

> <Gold.Chemscore.Hbond.Weighted>
-3.0317

> <Gold.Chemscore.Metal.Weighted>
-0.0000

> <Gold.Chemscore.Lipo.Weighted>
-10.1118

> <Gold.Chemscore.Internal_Hbond.Weighted>
0.0000

> <Gold.Chemscore.DEClash.Weighted>
0.1339

> <Gold.Chemscore.DEInternal.Weighted>
0.1036

> <Gold.Chemscore.Rot.Weighted>
2.5600

> <Gold.Chemscore.Internal.Correction.Weighted>
   9.000000E+99

> <Gold.Protein.RotatedTorsions>
[ 6907 6896 6895 6894 ] final -117.27 input  -60.11 | X-H torsion
[ 7974 7965 7964 7962 ] final  164.16 input  175.53 | X-H torsion
[ 8008 7997 7996 7995 ] final  -53.19 input   59.86 | X-H torsion
[ 10167 10162 10161 10158 ] final  168.09 input  -65.29 | X-H torsion
[ 10718 10713 10712 10709 ] final -122.74 input   66.30 | X-H torsion
[ 10763 10752 10751 10750 ] final  101.41 input  -60.55 | X-H torsion
[ 11005 11000 10999 10996 ] final   66.43 input  -57.11 | X-H torsion

> <Gold.Protein.ActiveResidues>
 VAL166  LYS551  ARG553  GLY616  TRP617  ASP618  TYR619  PRO620  LYS621  CYS622 
 ASP623  PHE694  ASN695  SER759  ASP760  ASP761  ALA762  ILE779  LEU786  VAL792 
 PHE793  MET794  SER795  GLU796  ALA797  LYS798  CYS799  TRP800  GLU811  SER814 

> <Gold.Protein.RotatedAtoms>
  150.8123  133.8400  159.3176 H   0  0  0  0  0  0  0  0  0  0  0  0  # atno 6907 bound_to 6896
  151.6182  135.1032  160.0105 H   0  0  0  0  0  0  0  0  0  0  0  0  # atno 6908 bound_to 6896
  152.4214  133.7083  159.6521 H   0  0  0  0  0  0  0  0  0  0  0  0  # atno 6909 bound_to 6896
  144.7557  139.8286  143.6350 H   0  0  0  0  0  0  0  0  0  0  0  0  # atno 7974 bound_to 7965
  154.4126  140.1206  156.5113 H   0  0  0  0  0  0  0  0  0  0  0  0  # atno 8008 bound_to 7997
  155.6796  140.3496  155.4831 H   0  0  0  0  0  0  0  0  0  0  0  0  # atno 8009 bound_to 7997
  155.9563  140.1114  157.0924 H   0  0  0  0  0  0  0  0  0  0  0  0  # atno 8010 bound_to 7997
  139.4960  144.3852  151.9578 H   0  0  0  0  0  0  0  0  0  0  0  0  # atno 10167 bound_to 10162
  156.1443  130.6489  150.9819 H   0  0  0  0  0  0  0  0  0  0  0  0  # atno 10718 bound_to 10713
  153.3263  135.4045  155.1458 H   0  0  0  0  0  0  0  0  0  0  0  0  # atno 10763 bound_to 10752
  154.8612  135.3599  154.5530 H   0  0  0  0  0  0  0  0  0  0  0  0  # atno 10764 bound_to 10752
  153.5966  135.7072  153.5460 H   0  0  0  0  0  0  0  0  0  0  0  0  # atno 10765 bound_to 10752
  139.9832  134.6710  156.0223 H   0  0  0  0  0  0  0  0  0  0  0  0  # atno 11005 bound_to 11000
  146.1564  139.4664  143.0016 LP  0  0  0  0  0  0  0  0  0  0  0  0  # atno 17320 bound_to 7965
  145.6787  141.0197  143.1618 LP  0  0  0  0  0  0  0  0  0  0  0  0  # atno 17321 bound_to 7965
  140.3289  144.3340  150.5992 LP  0  0  0  0  0  0  0  0  0  0  0  0  # atno 17342 bound_to 10162
  140.5662  143.2186  151.7680 LP  0  0  0  0  0  0  0  0  0  0  0  0  # atno 17343 bound_to 10162
  157.6603  131.0882  150.7853 LP  0  0  0  0  0  0  0  0  0  0  0  0  # atno 17370 bound_to 10713
  156.7926  130.4895  149.5382 LP  0  0  0  0  0  0  0  0  0  0  0  0  # atno 17371 bound_to 10713
  141.1501  133.6550  156.3988 LP  0  0  0  0  0  0  0  0  0  0  0  0  # atno 17394 bound_to 11000
  140.5054  134.6446  157.5264 LP  0  0  0  0  0  0  0  0  0  0  0  0  # atno 17395 bound_to 11000

$$$$
