AV-unprocessed.smi:1985|AV-procd|sdf|8044|dock4
  -GOLD-   2272010243D 1   1.00000     0.00000
 Structure written by MMmdl.
 51 52  0  0  0  0  0  0  0  0  2 V2000
  145.8454  143.6436  153.2246 C   0  0  0  0  0  0  0  0  0  0  0  0
  146.3772  142.2042  153.3433 C   0  0  0  0  0  0  0  0  0  0  0  0
  146.1798  141.5220  154.7328 C   0  0  1  0  0  0  0  0  0  0  0  0
  146.9063  140.1518  154.6774 C   0  0  0  0  0  0  0  0  0  0  0  0
  146.8343  142.3894  155.8546 C   0  0  0  0  0  0  0  0  0  0  0  0
  148.2962  142.3567  155.8371 N   0  0  0  0  0  0  0  0  0  0  0  0
  149.0637  141.4690  156.4876 C   0  0  0  0  0  0  0  0  0  0  0  0
  148.6077  140.5326  157.1445 O   0  0  0  0  0  0  0  0  0  0  0  0
  150.5795  141.6745  156.3815 C   0  0  0  0  0  0  0  0  0  0  0  0
  151.1522  142.2106  157.6228 N   0  0  0  0  0  0  0  0  0  0  0  0
  150.8297  143.4928  158.0295 C   0  0  0  0  0  0  0  0  0  0  0  0
  151.3274  144.0674  159.1460 C   0  0  0  0  0  0  0  0  0  0  0  0
  152.2579  143.3463  160.0051 C   0  0  0  0  0  0  0  0  0  0  0  0
  152.7431  143.8238  161.0318 O   0  0  0  0  0  0  0  0  0  0  0  0
  152.5706  142.0387  159.5690 N   0  0  0  0  0  0  0  0  0  0  0  0
  153.4978  141.2920  160.3935 C   0  0  0  0  0  0  0  0  0  0  0  0
  152.0459  141.4401  158.3999 C   0  0  0  0  0  0  0  0  0  0  0  0
  152.3444  140.2953  158.0506 O   0  0  0  0  0  0  0  0  0  0  0  0
  144.7083  141.3259  155.0018 N   0  3  0  0  0  0  0  0  0  0  0  0
  144.3562  140.2850  156.0089 C   0  0  0  0  0  0  0  0  0  0  0  0
  142.8350  140.0558  156.0380 C   0  0  0  0  0  0  0  0  0  0  0  0
  142.1662  141.2784  156.3138 O   0  0  0  0  0  0  0  0  0  0  0  0
  142.4216  142.2541  155.3132 C   0  0  0  0  0  0  0  0  0  0  0  0
  143.9260  142.5655  155.2742 C   0  0  0  0  0  0  0  0  0  0  0  0
  146.0182  144.0293  152.2196 H   0  0  0  0  0  0  0  0  0  0  0  0
  146.3416  144.3206  153.9200 H   0  0  0  0  0  0  0  0  0  0  0  0
  144.7727  143.6963  153.4089 H   0  0  0  0  0  0  0  0  0  0  0  0
  145.8796  141.6158  152.5724 H   0  0  0  0  0  0  0  0  0  0  0  0
  147.4286  142.1903  153.0573 H   0  0  0  0  0  0  0  0  0  0  0  0
  147.9116  140.2446  154.2644 H   0  0  0  0  0  0  0  0  0  0  0  0
  146.3705  139.4324  154.0578 H   0  0  0  0  0  0  0  0  0  0  0  0
  147.0237  139.7102  155.6672 H   0  0  0  0  0  0  0  0  0  0  0  0
  146.4965  143.4243  155.8007 H   0  0  0  0  0  0  0  0  0  0  0  0
  146.5298  142.0306  156.8373 H   0  0  0  0  0  0  0  0  0  0  0  0
  148.7607  143.0871  155.3167 H   0  0  0  0  0  0  0  0  0  0  0  0
  151.0375  140.7150  156.1379 H   0  0  0  0  0  0  0  0  0  0  0  0
  150.8166  142.3363  155.5465 H   0  0  0  0  0  0  0  0  0  0  0  0
  150.1476  144.0702  157.4225 H   0  0  0  0  0  0  0  0  0  0  0  0
  151.0355  145.0745  159.4053 H   0  0  0  0  0  0  0  0  0  0  0  0
  153.6748  140.2946  159.9928 H   0  0  0  0  0  0  0  0  0  0  0  0
  153.0566  141.2156  161.3890 H   0  0  0  0  0  0  0  0  0  0  0  0
  154.4338  141.8532  160.4150 H   0  0  0  0  0  0  0  0  0  0  0  0
  144.8263  139.3299  155.7825 H   0  0  0  0  0  0  0  0  0  0  0  0
  144.6986  140.5872  156.9987 H   0  0  0  0  0  0  0  0  0  0  0  0
  142.4859  139.6425  155.0903 H   0  0  0  0  0  0  0  0  0  0  0  0
  142.5790  139.3329  156.8125 H   0  0  0  0  0  0  0  0  0  0  0  0
  142.0691  141.9029  154.3419 H   0  0  0  0  0  0  0  0  0  0  0  0
  141.8577  143.1565  155.5496 H   0  0  0  0  0  0  0  0  0  0  0  0
  144.2213  143.0010  156.2289 H   0  0  0  0  0  0  0  0  0  0  0  0
  144.0943  143.3220  154.5102 H   0  0  0  0  0  0  0  0  0  0  0  0
  144.3432  140.9730  154.1286 H   0  0  0  0  0  0  0  0  0  0  0  0
  1  2  1  0  0  0  0
  1 25  1  0  0  0  0
  1 26  1  0  0  0  0
  1 27  1  0  0  0  0
  2  3  1  0  0  0  0
  2 28  1  0  0  0  0
  2 29  1  0  0  0  0
  3  4  1  0  0  0  0
  3  5  1  0  0  0  0
  3 19  1  0  0  0  0
  4 30  1  0  0  0  0
  4 31  1  0  0  0  0
  4 32  1  0  0  0  0
  5  6  1  0  0  0  0
  5 33  1  0  0  0  0
  5 34  1  0  0  0  0
  6  7  1  0  0  0  0
  6 35  1  0  0  0  0
  7  8  2  0  0  0  0
  7  9  1  0  0  0  0
  9 10  1  0  0  0  0
  9 36  1  0  0  0  0
  9 37  1  0  0  0  0
 10 17  1  0  0  0  0
 10 11  1  0  0  0  0
 11 12  2  0  0  0  0
 11 38  1  0  0  0  0
 12 13  1  0  0  0  0
 12 39  1  0  0  0  0
 13 14  2  0  0  0  0
 13 15  1  0  0  0  0
 15 16  1  0  0  0  0
 15 17  1  0  0  0  0
 16 40  1  0  0  0  0
 16 41  1  0  0  0  0
 16 42  1  0  0  0  0
 17 18  2  0  0  0  0
 19 24  1  0  0  0  0
 19 20  1  0  0  0  0
 19 51  1  0  0  0  0
 20 21  1  0  0  0  0
 20 43  1  0  0  0  0
 20 44  1  0  0  0  0
 21 22  1  0  0  0  0
 21 45  1  0  0  0  0
 21 46  1  0  0  0  0
 22 23  1  0  0  0  0
 23 24  1  0  0  0  0
 23 47  1  0  0  0  0
 23 48  1  0  0  0  0
 24 49  1  0  0  0  0
 24 50  1  0  0  0  0
M  CHG  1  19   1
M  END
> <s_m_source_file>
AV-unprocessed.smi

> <i_m_source_file_index>
1985

> <i_lp_mmshare_version>
43012

> <i_f3d_flags>
0

> <s_epik_input>
W0NIMl0xW0NIMl1PW0NIMl1bQ0gyXU4xW0NAQF0oW0NIM10pKFtDSDJdW0NIM10pW0NIMl1bTkhdQyg9TylbQ0gyXW4yW2NIXVtjSF1jKD1PKW4oW0NIM10pYzI9Tw==

> <s_epik_cmdline>
J2VwaWtfcHl0aG9uJywgJy1waCcsICc3LjAnLCAnLXRuJywgJzgnLCAnLW1hJywgJzIwMCcsICctbWV0YWxfYmluZGluZycsICctaW1hZScsICc8aW5maWxlLm1hZT4nLCAnLW9tYWUnLCAnPG91dGZpbGUubWFlPic=

> <r_lp_tautomer_probability>
1

> <r_epik_Ionization_Penalty>
0.519658

> <r_epik_Ionization_Penalty_Charging>
0.519658

> <r_epik_Ionization_Penalty_Neutral>
8.70177e-08

> <r_epik_State_Penalty>
0.527569

> <r_epik_Charging_Adjusted_Penalty>
1.04723

> <i_epik_Tot_Q>
1

> <i_epik_Tot_abs_Q>
1

> <r_epik_Metal_State_Penalty>
0.527613

> <b_epik_Metal_Only>
0

> <s_lp_Force_Field>
OPLS_2005

> <r_lp_Energy>
36.0852

> <b_lp_Chiralities_Consistent>
1

> <s_lp_Variant>
AV-unprocessed.smi:1985-3

> <Gold.Version>
5.8.1

> <Gold.Id.Protein>
6NUR|6NUR_protein|mol2

> <Gold.PLP.Fitness>
51.2820

> <Gold.PLP.PLP>
-37.6841

> <Gold.PLP.part.hbond>
-2.9134

> <Gold.PLP.part.metal>
0.0000

> <Gold.PLP.part.buried>
-5.8878

> <Gold.PLP.part.nonpolar>
-29.2952

> <Gold.PLP.part.repulsive>
0.2018

> <Gold.PLP.ligand.clash>
0.0000

> <Gold.PLP.ligand.torsion>
0.9066

> <Gold.PLP.Chemscore.Hbond>
3.9833

> <Gold.PLP.Chemscore.CHOScore>
1.0000

> <Gold.PLP.Chemscore.Metal>
0.0000

> <Gold.Chemscore.Hbonds>
donor molecule, donor type, donor heavy atom, donor atom, acceptor molecule, acceptor atom, score
      L1  H     6    35       P1  8028  0.59
      L1  H    19    51       P1 10175  2.00
      L1  C    11    38       P1  8028  1.00

> <Gold.PLP.Chemscore.Internal.Correction>
0.4611

> <Gold.Rescore>
     Score         DG    S(hbond)    S(metal)    S(lipo)     H(rot)  DE(clash)    DE(int)     intcor
     15.89     -17.02       2.86        0.00      66.65       2.27       0.02       1.10       ----

> <Gold.Chemscore.Fitness>
15.8948

> <Gold.Chemscore.DG>
-17.0154

> <Gold.Chemscore.ZeroCoef>
-5.4800

> <Gold.Chemscore.Hbond>
2.8606

> <Gold.Chemscore.Metal>
0.0000

> <Gold.Chemscore.Lipo>
66.6519

> <Gold.Chemscore.Internal_Hbond>
0.0000

> <Gold.Chemscore.DEClash>
0.0207

> <Gold.Chemscore.DEInternal>
1.0999

> <Gold.Chemscore.Rot>
2.2724

> <Gold.Chemscore.Internal.Correction>
   9.000000E+99

> <Gold.Chemscore.Hbonds>
donor molecule, donor type, donor heavy atom, donor atom, acceptor molecule, acceptor atom, score
      L1  H     6    35       P1  8028  0.60
      L1  H    19    51       P1 10175  0.88
      P1  H  7997  8009       L1    18  0.05

> <Gold.Chemscore.Hbond.Weighted>
-9.5545

> <Gold.Chemscore.Metal.Weighted>
-0.0000

> <Gold.Chemscore.Lipo.Weighted>
-7.7983

> <Gold.Chemscore.Internal_Hbond.Weighted>
0.0000

> <Gold.Chemscore.DEClash.Weighted>
0.0207

> <Gold.Chemscore.DEInternal.Weighted>
1.0999

> <Gold.Chemscore.Rot.Weighted>
5.8174

> <Gold.Chemscore.Internal.Correction.Weighted>
   9.000000E+99

> <Gold.Protein.RotatedTorsions>
[ 6907 6896 6895 6894 ] final -114.40 input  -60.11 | X-H torsion
[ 7974 7965 7964 7962 ] final  -30.02 input  175.53 | X-H torsion
[ 8008 7997 7996 7995 ] final  172.27 input   59.86 | X-H torsion
[ 10167 10162 10161 10158 ] final   45.15 input  -65.29 | X-H torsion
[ 10718 10713 10712 10709 ] final   44.72 input   66.30 | X-H torsion
[ 10763 10752 10751 10750 ] final   52.44 input  -60.55 | X-H torsion
[ 11005 11000 10999 10996 ] final  177.84 input  -57.11 | X-H torsion

> <Gold.Protein.ActiveResidues>
 VAL166  LYS551  ARG553  GLY616  TRP617  ASP618  TYR619  PRO620  LYS621  CYS622 
 ASP623  PHE694  ASN695  SER759  ASP760  ASP761  ALA762  ILE779  LEU786  VAL792 
 PHE793  MET794  SER795  GLU796  ALA797  LYS798  CYS799  TRP800  GLU811  SER814 

> <Gold.Protein.RotatedAtoms>
  150.7899  133.8807  159.3284 H   0  0  0  0  0  0  0  0  0  0  0  0  # atno 6907 bound_to 6896
  151.6648  135.0982  160.0196 H   0  0  0  0  0  0  0  0  0  0  0  0  # atno 6908 bound_to 6896
  152.3971  133.6724  159.6320 H   0  0  0  0  0  0  0  0  0  0  0  0  # atno 6909 bound_to 6896
  146.1174  140.5486  142.8750 H   0  0  0  0  0  0  0  0  0  0  0  0  # atno 7974 bound_to 7965
  156.1190  140.1490  156.9231 H   0  0  0  0  0  0  0  0  0  0  0  0  # atno 8008 bound_to 7997
  154.4822  140.0876  156.7445 H   0  0  0  0  0  0  0  0  0  0  0  0  # atno 8009 bound_to 7997
  155.4462  140.3433  155.4297 H   0  0  0  0  0  0  0  0  0  0  0  0  # atno 8010 bound_to 7997
  140.3271  144.2634  150.6173 H   0  0  0  0  0  0  0  0  0  0  0  0  # atno 10167 bound_to 10162
  157.4299  130.8018  149.7593 H   0  0  0  0  0  0  0  0  0  0  0  0  # atno 10718 bound_to 10713
  152.9789  135.5812  154.4579 H   0  0  0  0  0  0  0  0  0  0  0  0  # atno 10763 bound_to 10752
  154.4159  135.2771  155.2009 H   0  0  0  0  0  0  0  0  0  0  0  0  # atno 10764 bound_to 10752
  154.3779  135.6153  153.5829 H   0  0  0  0  0  0  0  0  0  0  0  0  # atno 10765 bound_to 10752
  140.3885  134.6883  157.4493 H   0  0  0  0  0  0  0  0  0  0  0  0  # atno 11005 bound_to 11000
  144.7565  140.5321  143.6765 LP  0  0  0  0  0  0  0  0  0  0  0  0  # atno 17320 bound_to 7965
  145.5538  139.1477  143.3379 LP  0  0  0  0  0  0  0  0  0  0  0  0  # atno 17321 bound_to 7965
  140.5431  143.2220  151.8052 LP  0  0  0  0  0  0  0  0  0  0  0  0  # atno 17342 bound_to 10162
  139.4863  144.4574  151.9581 LP  0  0  0  0  0  0  0  0  0  0  0  0  # atno 17343 bound_to 10162
  155.9909  130.3941  150.3006 LP  0  0  0  0  0  0  0  0  0  0  0  0  # atno 17370 bound_to 10713
  157.1162  131.0234  151.3028 LP  0  0  0  0  0  0  0  0  0  0  0  0  # atno 17371 bound_to 10713
  140.0424  134.6248  155.8963 LP  0  0  0  0  0  0  0  0  0  0  0  0  # atno 17394 bound_to 11000
  141.1899  133.6567  156.5388 LP  0  0  0  0  0  0  0  0  0  0  0  0  # atno 17395 bound_to 11000

$$$$
