AV-unprocessed.smi:2026|AV-procd|sdf|8204|dock6
  -GOLD-   2272010463D 1   1.00000     0.00000
 Structure written by MMmdl.
 47 49  0  0  0  0  0  0  0  0  2 V2000
  152.2772  144.7010  160.3208 C   0  0  0  0  0  0  0  0  0  0  0  0
  152.0350  143.5621  159.3452 C   0  0  0  0  0  0  0  0  0  0  0  0
  151.2250  143.8051  158.2131 C   0  0  0  0  0  0  0  0  0  0  0  0
  151.0201  142.7434  157.3400 C   0  0  0  0  0  0  0  0  0  0  0  0
  150.2868  142.6651  156.1543 N   0  3  0  0  0  0  0  0  0  0  0  0
  150.3817  141.4063  155.6440 C   0  0  0  0  0  0  0  0  0  0  0  0
  151.1633  140.6788  156.4871 N   0  0  0  0  0  0  0  0  0  0  0  0
  151.5810  139.2723  156.3935 C   0  0  0  0  0  0  0  0  0  0  0  0
  150.4453  138.2917  156.7452 C   0  0  1  0  0  0  0  0  0  0  0  0
  151.0119  137.0466  157.1051 O   0  0  0  0  0  0  0  0  0  0  0  0
  149.5925  138.8055  157.9232 C   0  0  0  0  0  0  0  0  0  0  0  0
  148.7459  137.7487  158.4859 N   0  0  0  0  0  0  0  0  0  0  0  0
  147.4733  137.5190  158.1175 C   0  0  0  0  0  0  0  0  0  0  0  0
  146.8384  138.1288  157.2582 O   0  0  0  0  0  0  0  0  0  0  0  0
  146.9994  136.5046  158.8530 N   0  0  0  0  0  0  0  0  0  0  0  0
  147.9729  135.9864  159.7954 C   0  0  0  0  0  0  0  0  0  0  0  0
  147.4933  136.1847  161.2445 C   0  0  0  0  0  0  0  0  0  0  0  0
  148.3087  134.5162  159.4876 C   0  0  0  0  0  0  0  0  0  0  0  0
  149.1321  136.9117  159.4582 C   0  0  0  0  0  0  0  0  0  0  0  0
  150.2290  136.8764  160.0165 O   0  0  0  0  0  0  0  0  0  0  0  0
  151.5868  141.4726  157.5600 C   0  0  0  0  0  0  0  0  0  0  0  0
  152.3901  141.2180  158.6697 C   0  0  0  0  0  0  0  0  0  0  0  0
  152.6123  142.2853  159.5690 C   0  0  0  0  0  0  0  0  0  0  0  0
  153.4871  142.0365  160.7859 C   0  0  0  0  0  0  0  0  0  0  0  0
  151.7254  145.5965  160.0334 H   0  0  0  0  0  0  0  0  0  0  0  0
  153.3363  144.9576  160.3533 H   0  0  0  0  0  0  0  0  0  0  0  0
  151.9567  144.4216  161.3246 H   0  0  0  0  0  0  0  0  0  0  0  0
  150.7847  144.7753  158.0343 H   0  0  0  0  0  0  0  0  0  0  0  0
  149.9224  141.0501  154.7331 H   0  0  0  0  0  0  0  0  0  0  0  0
  151.9864  139.0748  155.4010 H   0  0  0  0  0  0  0  0  0  0  0  0
  152.4093  139.1423  157.0912 H   0  0  0  0  0  0  0  0  0  0  0  0
  149.8228  138.1481  155.8607 H   0  0  0  0  0  0  0  0  0  0  0  0
  151.6594  137.1935  157.7775 H   0  0  0  0  0  0  0  0  0  0  0  0
  150.2220  139.2607  158.6901 H   0  0  0  0  0  0  0  0  0  0  0  0
  148.9404  139.6099  157.5778 H   0  0  0  0  0  0  0  0  0  0  0  0
  146.0622  136.1367  158.7766 H   0  0  0  0  0  0  0  0  0  0  0  0
  148.2283  135.8111  161.9584 H   0  0  0  0  0  0  0  0  0  0  0  0
  146.5597  135.6509  161.4245 H   0  0  0  0  0  0  0  0  0  0  0  0
  147.3183  137.2375  161.4720 H   0  0  0  0  0  0  0  0  0  0  0  0
  149.0553  134.1275  160.1814 H   0  0  0  0  0  0  0  0  0  0  0  0
  148.7020  134.3936  158.4773 H   0  0  0  0  0  0  0  0  0  0  0  0
  147.4225  133.8864  159.5728 H   0  0  0  0  0  0  0  0  0  0  0  0
  152.8333  140.2487  158.8413 H   0  0  0  0  0  0  0  0  0  0  0  0
  153.8947  141.0249  160.7850 H   0  0  0  0  0  0  0  0  0  0  0  0
  152.9112  142.1631  161.7031 H   0  0  0  0  0  0  0  0  0  0  0  0
  154.3266  142.7319  160.8041 H   0  0  0  0  0  0  0  0  0  0  0  0
  149.7619  143.4144  155.7219 H   0  0  0  0  0  0  0  0  0  0  0  0
  1  2  1  0  0  0  0
  1 25  1  0  0  0  0
  1 26  1  0  0  0  0
  1 27  1  0  0  0  0
  2 23  1  0  0  0  0
  2  3  2  0  0  0  0
  3  4  1  0  0  0  0
  3 28  1  0  0  0  0
  4 21  2  0  0  0  0
  4  5  1  0  0  0  0
  5  6  2  0  0  0  0
  5 47  1  0  0  0  0
  6  7  1  0  0  0  0
  6 29  1  0  0  0  0
  7  8  1  0  0  0  0
  7 21  1  0  0  0  0
  8  9  1  0  0  0  0
  8 30  1  0  0  0  0
  8 31  1  0  0  0  0
  9 10  1  0  0  0  0
  9 11  1  0  0  0  0
  9 32  1  0  0  0  0
 10 33  1  0  0  0  0
 11 12  1  0  0  0  0
 11 34  1  0  0  0  0
 11 35  1  0  0  0  0
 12 19  1  0  0  0  0
 12 13  1  0  0  0  0
 13 14  2  0  0  0  0
 13 15  1  0  0  0  0
 15 16  1  0  0  0  0
 15 36  1  0  0  0  0
 16 17  1  0  0  0  0
 16 18  1  0  0  0  0
 16 19  1  0  0  0  0
 17 37  1  0  0  0  0
 17 38  1  0  0  0  0
 17 39  1  0  0  0  0
 18 40  1  0  0  0  0
 18 41  1  0  0  0  0
 18 42  1  0  0  0  0
 19 20  2  0  0  0  0
 21 22  1  0  0  0  0
 22 23  2  0  0  0  0
 22 43  1  0  0  0  0
 23 24  1  0  0  0  0
 24 44  1  0  0  0  0
 24 45  1  0  0  0  0
 24 46  1  0  0  0  0
M  CHG  1   5   1
M  END
> <s_m_source_file>
AV-unprocessed.smi

> <i_m_source_file_index>
2026

> <i_lp_mmshare_version>
43012

> <i_f3d_flags>
0

> <s_epik_input>
W0NIM11jKFtjSF0xKWMoW0NIM10pW2NIXWMoYzEyKW4oW2NIXW4yKVtDSDJdW0NASF0oW09IXSlbQ0gyXU4oQzM9TylDKD1PKVtOSF1DMyhbQ0gzXSlbQ0gzXQ==

> <s_epik_cmdline>
J2VwaWtfcHl0aG9uJywgJy1waCcsICc3LjAnLCAnLXRuJywgJzgnLCAnLW1hJywgJzIwMCcsICctbWV0YWxfYmluZGluZycsICctaW1hZScsICc8aW5maWxlLm1hZT4nLCAnLW9tYWUnLCAnPG91dGZpbGUubWFlPic=

> <r_lp_tautomer_probability>
1

> <r_epik_Ionization_Penalty>
1.08255

> <r_epik_Ionization_Penalty_Charging>
1.08249

> <r_epik_Ionization_Penalty_Neutral>
6.65731e-05

> <r_epik_State_Penalty>
1.13805

> <r_epik_Charging_Adjusted_Penalty>
2.22054

> <i_epik_Tot_Q>
1

> <i_epik_Tot_abs_Q>
1

> <r_epik_Metal_State_Penalty>
1.29676

> <b_epik_Metal_Only>
0

> <s_lp_Force_Field>
OPLS_2005

> <r_lp_Energy>
29.7067

> <b_lp_Chiralities_Consistent>
1

> <s_lp_Variant>
AV-unprocessed.smi:2026-4

> <Gold.Version>
5.8.1

> <Gold.Id.Protein>
6NUR|6NUR_protein|mol2

> <Gold.PLP.Fitness>
49.8913

> <Gold.PLP.PLP>
-42.6534

> <Gold.PLP.part.hbond>
-2.7784

> <Gold.PLP.part.metal>
0.0000

> <Gold.PLP.part.buried>
-4.5615

> <Gold.PLP.part.nonpolar>
-35.5908

> <Gold.PLP.part.repulsive>
0.1752

> <Gold.PLP.ligand.clash>
0.0000

> <Gold.PLP.ligand.torsion>
0.8590

> <Gold.PLP.Chemscore.Hbond>
2.9750

> <Gold.PLP.Chemscore.CHOScore>
0.0000

> <Gold.PLP.Chemscore.Metal>
0.0000

> <Gold.Chemscore.Hbonds>
donor molecule, donor type, donor heavy atom, donor atom, acceptor molecule, acceptor atom, score
      L1  H     5    47       P1  8028  2.00
      P1  H  6896  6909       L1    20  1.00

> <Gold.PLP.Chemscore.Internal.Correction>
0.0309

> <Gold.Rescore>
     Score         DG    S(hbond)    S(metal)    S(lipo)     H(rot)  DE(clash)    DE(int)     intcor
     16.91     -17.81       1.97        0.00     103.62       2.49       0.11       0.78       ----

> <Gold.Chemscore.Fitness>
16.9087

> <Gold.Chemscore.DG>
-17.8062

> <Gold.Chemscore.ZeroCoef>
-5.4800

> <Gold.Chemscore.Hbond>
1.9714

> <Gold.Chemscore.Metal>
0.0000

> <Gold.Chemscore.Lipo>
103.6188

> <Gold.Chemscore.Internal_Hbond>
0.0000

> <Gold.Chemscore.DEClash>
0.1139

> <Gold.Chemscore.DEInternal>
0.7835

> <Gold.Chemscore.Rot>
2.4929

> <Gold.Chemscore.Internal.Correction>
   9.000000E+99

> <Gold.Chemscore.Hbonds>
donor molecule, donor type, donor heavy atom, donor atom, acceptor molecule, acceptor atom, score
      L1  H     5    47       P1  8028  0.96
      P1  H  6896  6909       L1    20  0.75

> <Gold.Chemscore.Hbond.Weighted>
-6.5846

> <Gold.Chemscore.Metal.Weighted>
-0.0000

> <Gold.Chemscore.Lipo.Weighted>
-12.1234

> <Gold.Chemscore.Internal_Hbond.Weighted>
0.0000

> <Gold.Chemscore.DEClash.Weighted>
0.1139

> <Gold.Chemscore.DEInternal.Weighted>
0.7835

> <Gold.Chemscore.Rot.Weighted>
6.3819

> <Gold.Chemscore.Internal.Correction.Weighted>
   9.000000E+99

> <Gold.Protein.RotatedTorsions>
[ 6907 6896 6895 6894 ] final   89.06 input  -60.11 | X-H torsion
[ 7974 7965 7964 7962 ] final  -13.76 input  175.53 | X-H torsion
[ 8008 7997 7996 7995 ] final  149.12 input   59.86 | X-H torsion
[ 10167 10162 10161 10158 ] final  -82.75 input  -65.29 | X-H torsion
[ 10718 10713 10712 10709 ] final   53.87 input   66.30 | X-H torsion
[ 10763 10752 10751 10750 ] final   54.84 input  -60.55 | X-H torsion
[ 11005 11000 10999 10996 ] final -176.39 input  -57.11 | X-H torsion

> <Gold.Protein.ActiveResidues>
 VAL166  LYS551  ARG553  GLY616  TRP617  ASP618  TYR619  PRO620  LYS621  CYS622 
 ASP623  PHE694  ASN695  SER759  ASP760  ASP761  ALA762  ILE779  LEU786  VAL792 
 PHE793  MET794  SER795  GLU796  ALA797  LYS798  CYS799  TRP800  GLU811  SER814 

> <Gold.Protein.RotatedAtoms>
  152.5432  134.2025  159.8717 H   0  0  0  0  0  0  0  0  0  0  0  0  # atno 6907 bound_to 6896
  151.2013  133.4602  159.2604 H   0  0  0  0  0  0  0  0  0  0  0  0  # atno 6908 bound_to 6896
  151.0987  134.9971  159.8493 H   0  0  0  0  0  0  0  0  0  0  0  0  # atno 6909 bound_to 6896
  146.2101  140.3250  142.8394 H   0  0  0  0  0  0  0  0  0  0  0  0  # atno 7974 bound_to 7965
  156.2766  140.2110  156.5807 H   0  0  0  0  0  0  0  0  0  0  0  0  # atno 8008 bound_to 7997
  154.7061  140.0516  157.0528 H   0  0  0  0  0  0  0  0  0  0  0  0  # atno 8009 bound_to 7997
  155.0669  140.3172  155.4646 H   0  0  0  0  0  0  0  0  0  0  0  0  # atno 8010 bound_to 7997
  140.4290  143.2555  151.8785 H   0  0  0  0  0  0  0  0  0  0  0  0  # atno 10167 bound_to 10162
  157.5206  130.8562  149.8553 H   0  0  0  0  0  0  0  0  0  0  0  0  # atno 10718 bound_to 10713
  152.9809  135.5731  154.4970 H   0  0  0  0  0  0  0  0  0  0  0  0  # atno 10763 bound_to 10752
  154.4495  135.2778  155.1793 H   0  0  0  0  0  0  0  0  0  0  0  0  # atno 10764 bound_to 10752
  154.3426  135.6226  153.5657 H   0  0  0  0  0  0  0  0  0  0  0  0  # atno 10765 bound_to 10752
  140.4527  134.6328  157.4808 H   0  0  0  0  0  0  0  0  0  0  0  0  # atno 11005 bound_to 11000
  144.8892  140.7502  143.5937 LP  0  0  0  0  0  0  0  0  0  0  0  0  # atno 17320 bound_to 7965
  145.3172  139.1799  143.4607 LP  0  0  0  0  0  0  0  0  0  0  0  0  # atno 17321 bound_to 7965
  139.4784  144.5355  151.8605 LP  0  0  0  0  0  0  0  0  0  0  0  0  # atno 17342 bound_to 10162
  140.4448  144.1936  150.5893 LP  0  0  0  0  0  0  0  0  0  0  0  0  # atno 17343 bound_to 10162
  156.0351  130.3753  150.1583 LP  0  0  0  0  0  0  0  0  0  0  0  0  # atno 17370 bound_to 10713
  156.9771  130.9852  151.3446 LP  0  0  0  0  0  0  0  0  0  0  0  0  # atno 17371 bound_to 10713
  139.9996  134.6856  155.9551 LP  0  0  0  0  0  0  0  0  0  0  0  0  # atno 17394 bound_to 11000
  141.1657  133.6537  156.4471 LP  0  0  0  0  0  0  0  0  0  0  0  0  # atno 17395 bound_to 11000

$$$$
