AV-unprocessed.smi:3283|AV-procd|sdf|12568|dock2
  -GOLD-   2272018483D 1   1.00000     0.00000
 Structure written by MMmdl.
 44 45  0  0  0  0  0  0  0  0  2 V2000
  152.0763  144.7319  158.2073 C   0  0  0  0  0  0  0  0  0  0  0  0
  152.3670  143.9568  159.4815 C   0  0  0  0  0  0  0  0  0  0  0  0
  152.1767  144.5115  160.6946 C   0  0  0  0  0  0  0  0  0  0  0  0
  152.4798  143.8265  162.0143 C   0  0  0  0  0  0  0  0  0  0  0  0
  152.8189  142.3370  161.8500 C   0  0  0  0  0  0  0  0  0  0  0  0
  153.6706  142.0880  160.5925 C   0  0  1  0  0  0  0  0  0  0  0  0
  154.2284  140.6550  160.5591 C   0  0  0  0  0  0  0  0  0  0  0  0
  152.9233  142.5415  159.3006 C   0  0  1  0  0  0  0  0  0  0  0  0
  151.7986  141.5814  158.8334 C   0  0  0  0  0  0  0  0  0  0  0  0
  151.2889  141.9271  157.4912 N   0  3  0  0  0  0  0  0  0  0  0  0
  150.4283  140.8940  156.8835 C   0  0  0  0  0  0  0  0  0  0  0  0
  150.7269  140.7446  155.3846 C   0  0  0  0  0  0  0  0  0  0  0  0
  150.7287  139.3293  154.8925 C   0  0  0  0  0  0  0  0  0  0  0  0
  149.7139  138.4237  154.7417 C   0  0  0  0  0  0  0  0  0  0  0  0
  150.3573  137.2601  154.2372 C   0  0  0  0  0  0  0  0  0  0  0  0
  151.6593  137.4264  154.0861 N   0  0  0  0  0  0  0  0  0  0  0  0
  151.8887  138.6947  154.4865 N   0  0  0  0  0  0  0  0  0  0  0  0
  153.2421  139.2151  154.4513 C   0  0  0  0  0  0  0  0  0  0  0  0
  152.9722  144.7923  157.5890 H   0  0  0  0  0  0  0  0  0  0  0  0
  151.7554  145.7504  158.4282 H   0  0  0  0  0  0  0  0  0  0  0  0
  151.2885  144.2574  157.6241 H   0  0  0  0  0  0  0  0  0  0  0  0
  151.8074  145.5242  160.7676 H   0  0  0  0  0  0  0  0  0  0  0  0
  153.3220  144.3486  162.4694 H   0  0  0  0  0  0  0  0  0  0  0  0
  151.6326  143.9462  162.6899 H   0  0  0  0  0  0  0  0  0  0  0  0
  153.3424  141.9893  162.7414 H   0  0  0  0  0  0  0  0  0  0  0  0
  151.8984  141.7555  161.7967 H   0  0  0  0  0  0  0  0  0  0  0  0
  154.5456  142.7350  160.6804 H   0  0  0  0  0  0  0  0  0  0  0  0
  153.4338  139.9098  160.6042 H   0  0  0  0  0  0  0  0  0  0  0  0
  154.8834  140.4758  161.4123 H   0  0  0  0  0  0  0  0  0  0  0  0
  154.8154  140.4789  159.6574 H   0  0  0  0  0  0  0  0  0  0  0  0
  153.6650  142.6064  158.5029 H   0  0  0  0  0  0  0  0  0  0  0  0
  152.1468  140.5486  158.8428 H   0  0  0  0  0  0  0  0  0  0  0  0
  150.9479  141.6219  159.5127 H   0  0  0  0  0  0  0  0  0  0  0  0
  150.7656  142.7885  157.5581 H   0  0  0  0  0  0  0  0  0  0  0  0
  150.5969  139.9444  157.3932 H   0  0  0  0  0  0  0  0  0  0  0  0
  149.3825  141.1649  157.0345 H   0  0  0  0  0  0  0  0  0  0  0  0
  149.9931  141.3161  154.8151 H   0  0  0  0  0  0  0  0  0  0  0  0
  151.6966  141.1944  155.1676 H   0  0  0  0  0  0  0  0  0  0  0  0
  148.6659  138.5661  154.9592 H   0  0  0  0  0  0  0  0  0  0  0  0
  149.9205  136.3067  153.9787 H   0  0  0  0  0  0  0  0  0  0  0  0
  153.5781  139.4290  155.4661 H   0  0  0  0  0  0  0  0  0  0  0  0
  153.2684  140.1335  153.8645 H   0  0  0  0  0  0  0  0  0  0  0  0
  153.9220  138.4915  153.9996 H   0  0  0  0  0  0  0  0  0  0  0  0
  152.0815  142.0773  156.8832 H   0  0  0  0  0  0  0  0  0  0  0  0
  1  2  1  0  0  0  0
  1 19  1  0  0  0  0
  1 20  1  0  0  0  0
  1 21  1  0  0  0  0
  2  8  1  0  0  0  0
  2  3  2  0  0  0  0
  3  4  1  0  0  0  0
  3 22  1  0  0  0  0
  4  5  1  0  0  0  0
  4 23  1  0  0  0  0
  4 24  1  0  0  0  0
  5  6  1  0  0  0  0
  5 25  1  0  0  0  0
  5 26  1  0  0  0  0
  6  7  1  0  0  0  0
  6  8  1  0  0  0  0
  6 27  1  0  0  0  0
  7 28  1  0  0  0  0
  7 29  1  0  0  0  0
  7 30  1  0  0  0  0
  8  9  1  0  0  0  0
  8 31  1  0  0  0  0
  9 10  1  0  0  0  0
  9 32  1  0  0  0  0
  9 33  1  0  0  0  0
 10 11  1  0  0  0  0
 10 34  1  0  0  0  0
 10 44  1  0  0  0  0
 11 12  1  0  0  0  0
 11 35  1  0  0  0  0
 11 36  1  0  0  0  0
 12 13  1  0  0  0  0
 12 37  1  0  0  0  0
 12 38  1  0  0  0  0
 13 17  1  0  0  0  0
 13 14  2  0  0  0  0
 14 15  1  0  0  0  0
 14 39  1  0  0  0  0
 15 16  2  0  0  0  0
 15 40  1  0  0  0  0
 16 17  1  0  0  0  0
 17 18  1  0  0  0  0
 18 41  1  0  0  0  0
 18 42  1  0  0  0  0
 18 43  1  0  0  0  0
M  CHG  1  10   1
M  END
> <s_m_source_file>
AV-unprocessed.smi

> <i_m_source_file_index>
3283

> <i_lp_mmshare_version>
43012

> <i_f3d_flags>
0

> <s_epik_input>
W0NIM11DMT1bQ0hdW0NIMl1bQ0gyXVtDQEBIXShbQ0gzXSlbQ0BIXTFbQ0gyXVtOSF1bQ0gyXVtDSDJdYzJbY0hdW2NIXW5uMltDSDNd

> <s_epik_cmdline>
J2VwaWtfcHl0aG9uJywgJy1waCcsICc3LjAnLCAnLXRuJywgJzgnLCAnLW1hJywgJzIwMCcsICctbWV0YWxfYmluZGluZycsICctaW1hZScsICc8aW5maWxlLm1hZT4nLCAnLW9tYWUnLCAnPG91dGZpbGUubWFlPic=

> <r_lp_tautomer_probability>
1

> <r_epik_Ionization_Penalty>
0.000866911

> <r_epik_Ionization_Penalty_Charging>
0.000836385

> <r_epik_Ionization_Penalty_Neutral>
3.05258e-05

> <r_epik_State_Penalty>
-0

> <r_epik_Charging_Adjusted_Penalty>
0.000836385

> <i_epik_Tot_Q>
1

> <i_epik_Tot_abs_Q>
1

> <r_epik_Metal_State_Penalty>
-0

> <b_epik_Metal_Only>
0

> <s_lp_Force_Field>
OPLS_2005

> <r_lp_Energy>
14.2558

> <b_lp_Chiralities_Consistent>
1

> <s_lp_Variant>
AV-unprocessed.smi:3283-1

> <Gold.Version>
5.8.1

> <Gold.Id.Protein>
6NUR|6NUR_protein|mol2

> <Gold.PLP.Fitness>
52.6537

> <Gold.PLP.PLP>
-49.2671

> <Gold.PLP.part.hbond>
-1.0000

> <Gold.PLP.part.metal>
0.0000

> <Gold.PLP.part.buried>
-1.8193

> <Gold.PLP.part.nonpolar>
-45.6771

> <Gold.PLP.part.repulsive>
0.2341

> <Gold.PLP.ligand.clash>
0.0028

> <Gold.PLP.ligand.torsion>
0.7144

> <Gold.PLP.Chemscore.Hbond>
1.0000

> <Gold.PLP.Chemscore.CHOScore>
0.5343

> <Gold.PLP.Chemscore.Metal>
0.0000

> <Gold.Chemscore.Hbonds>
donor molecule, donor type, donor heavy atom, donor atom, acceptor molecule, acceptor atom, score
      P1  H 10752 10765       L1    16  0.55
      L1  C    15    40       P1  7948  0.69

> <Gold.PLP.Chemscore.Internal.Correction>
0.2154

> <Gold.Rescore>
     Score         DG    S(hbond)    S(metal)    S(lipo)     H(rot)  DE(clash)    DE(int)     intcor
     20.29     -21.51       0.99        0.00     141.17       1.48       0.44       0.78       ----

> <Gold.Chemscore.Fitness>
20.2910

> <Gold.Chemscore.DG>
-21.5104

> <Gold.Chemscore.ZeroCoef>
-5.4800

> <Gold.Chemscore.Hbond>
0.9923

> <Gold.Chemscore.Metal>
0.0000

> <Gold.Chemscore.Lipo>
141.1714

> <Gold.Chemscore.Internal_Hbond>
0.0000

> <Gold.Chemscore.DEClash>
0.4363

> <Gold.Chemscore.DEInternal>
0.7831

> <Gold.Chemscore.Rot>
1.4847

> <Gold.Chemscore.Internal.Correction>
   9.000000E+99

> <Gold.Chemscore.Hbonds>
donor molecule, donor type, donor heavy atom, donor atom, acceptor molecule, acceptor atom, score
      P1  H 10752 10765       L1    16  0.50

> <Gold.Chemscore.Hbond.Weighted>
-3.3141

> <Gold.Chemscore.Metal.Weighted>
-0.0000

> <Gold.Chemscore.Lipo.Weighted>
-16.5171

> <Gold.Chemscore.Internal_Hbond.Weighted>
0.0000

> <Gold.Chemscore.DEClash.Weighted>
0.4363

> <Gold.Chemscore.DEInternal.Weighted>
0.7831

> <Gold.Chemscore.Rot.Weighted>
3.8008

> <Gold.Chemscore.Internal.Correction.Weighted>
   9.000000E+99

> <Gold.Protein.RotatedTorsions>
[ 6907 6896 6895 6894 ] final -123.61 input  -60.11 | X-H torsion
[ 7974 7965 7964 7962 ] final  144.56 input  175.53 | X-H torsion
[ 8008 7997 7996 7995 ] final -119.39 input   59.86 | X-H torsion
[ 10167 10162 10161 10158 ] final -123.75 input  -65.29 | X-H torsion
[ 10718 10713 10712 10709 ] final  -74.19 input   66.30 | X-H torsion
[ 10763 10752 10751 10750 ] final  169.18 input  -60.55 | X-H torsion
[ 11005 11000 10999 10996 ] final -127.58 input  -57.11 | X-H torsion

> <Gold.Protein.ActiveResidues>
 VAL166  LYS551  ARG553  GLY616  TRP617  ASP618  TYR619  PRO620  LYS621  CYS622 
 ASP623  PHE694  ASN695  SER759  ASP760  ASP761  ALA762  ILE779  LEU786  VAL792 
 PHE793  MET794  SER795  GLU796  ALA797  LYS798  CYS799  TRP800  GLU811  SER814 

> <Gold.Protein.RotatedAtoms>
  150.8687  133.7537  159.2968 H   0  0  0  0  0  0  0  0  0  0  0  0  # atno 6907 bound_to 6896
  151.5155  135.1064  159.9874 H   0  0  0  0  0  0  0  0  0  0  0  0  # atno 6908 bound_to 6896
  152.4680  133.7920  159.6963 H   0  0  0  0  0  0  0  0  0  0  0  0  # atno 6909 bound_to 6896
  144.8825  139.5677  143.5836 H   0  0  0  0  0  0  0  0  0  0  0  0  # atno 7974 bound_to 7965
  155.1150  140.0398  157.2734 H   0  0  0  0  0  0  0  0  0  0  0  0  # atno 8008 bound_to 7997
  154.6656  140.2601  155.7036 H   0  0  0  0  0  0  0  0  0  0  0  0  # atno 8009 bound_to 7997
  156.2637  140.2808  156.1145 H   0  0  0  0  0  0  0  0  0  0  0  0  # atno 8010 bound_to 7997
  140.0001  143.5549  152.2307 H   0  0  0  0  0  0  0  0  0  0  0  0  # atno 10167 bound_to 10162
  156.0251  130.4411  150.2856 H   0  0  0  0  0  0  0  0  0  0  0  0  # atno 10718 bound_to 10713
  154.3793  135.2753  155.2220 H   0  0  0  0  0  0  0  0  0  0  0  0  # atno 10763 bound_to 10752
  154.4334  135.5972  153.6086 H   0  0  0  0  0  0  0  0  0  0  0  0  # atno 10764 bound_to 10752
  152.9835  135.6001  154.4034 H   0  0  0  0  0  0  0  0  0  0  0  0  # atno 10765 bound_to 10752
  140.9587  134.0966  157.3990 H   0  0  0  0  0  0  0  0  0  0  0  0  # atno 11005 bound_to 11000
  146.3004  139.7408  142.9096 LP  0  0  0  0  0  0  0  0  0  0  0  0  # atno 17320 bound_to 7965
  145.3927  141.0374  143.3114 LP  0  0  0  0  0  0  0  0  0  0  0  0  # atno 17321 bound_to 7965
  139.6278  144.7640  151.2602 LP  0  0  0  0  0  0  0  0  0  0  0  0  # atno 17342 bound_to 10162
  140.7422  143.6533  150.8229 LP  0  0  0  0  0  0  0  0  0  0  0  0  # atno 17343 bound_to 10162
  157.0959  131.0182  151.3104 LP  0  0  0  0  0  0  0  0  0  0  0  0  # atno 17370 bound_to 10713
  157.4818  130.7769  149.7421 LP  0  0  0  0  0  0  0  0  0  0  0  0  # atno 17371 bound_to 10713
  139.8871  135.0087  156.6538 LP  0  0  0  0  0  0  0  0  0  0  0  0  # atno 17394 bound_to 11000
  140.7498  133.8906  155.8339 LP  0  0  0  0  0  0  0  0  0  0  0  0  # atno 17395 bound_to 11000

$$$$
