AV-unprocessed.smi:2953|AV-procd|sdf|11295|dock9
  -GOLD-   2272016193D 1   1.00000     0.00000
 Structure written by MMmdl.
 46 48  0  0  0  0  0  0  0  0  2 V2000
  154.2161  136.5692  159.5606 C   0  0  0  0  0  0  0  0  0  0  0  0
  154.9402  137.9003  159.6383 C   0  0  0  0  0  0  0  0  0  0  0  0
  156.3362  137.9451  159.4397 C   0  0  0  0  0  0  0  0  0  0  0  0
  157.0238  139.1698  159.5105 C   0  0  0  0  0  0  0  0  0  0  0  0
  156.3163  140.3545  159.7805 C   0  0  0  0  0  0  0  0  0  0  0  0
  154.9233  140.3156  159.9798 C   0  0  0  0  0  0  0  0  0  0  0  0
  154.2187  139.0861  159.9118 C   0  0  0  0  0  0  0  0  0  0  0  0
  152.8561  138.9732  160.0998 O   0  0  0  0  0  0  0  0  0  0  0  0
  152.0502  140.1276  159.9170 C   0  0  0  0  0  0  0  0  0  0  0  0
  152.0609  140.4959  158.4287 C   0  0  0  0  0  0  0  0  0  0  0  0
  151.3400  141.7495  158.1716 N   0  0  0  0  0  0  0  0  0  0  0  0
  150.3748  142.0421  157.2523 C   0  0  0  0  0  0  0  0  0  0  0  0
  149.7724  141.0889  156.2579 C   0  0  2  0  0  0  0  0  0  0  0  0
  150.8210  140.1543  155.6250 C   0  0  0  0  0  0  0  0  0  0  0  0
  148.9832  141.7748  155.2372 N   0  0  0  0  0  0  0  0  0  0  0  0
  148.1792  141.1804  154.3447 C   0  0  0  0  0  0  0  0  0  0  0  0
  148.0193  139.9642  154.2904 O   0  0  0  0  0  0  0  0  0  0  0  0
  150.0274  143.3485  157.4419 N   0  3  0  0  0  0  0  0  0  0  0  0
  150.7893  143.8982  158.4734 C   0  0  0  0  0  0  0  0  0  0  0  0
  150.8003  145.1793  159.0165 C   0  0  0  0  0  0  0  0  0  0  0  0
  151.7086  145.4116  160.0704 C   0  0  0  0  0  0  0  0  0  0  0  0
  152.5598  144.3923  160.5444 C   0  0  0  0  0  0  0  0  0  0  0  0
  152.5383  143.0968  159.9865 C   0  0  0  0  0  0  0  0  0  0  0  0
  151.6366  142.8760  158.9459 C   0  0  0  0  0  0  0  0  0  0  0  0
  154.8801  135.7727  159.2247 H   0  0  0  0  0  0  0  0  0  0  0  0
  153.3818  136.6287  158.8613 H   0  0  0  0  0  0  0  0  0  0  0  0
  153.8251  136.2954  160.5407 H   0  0  0  0  0  0  0  0  0  0  0  0
  156.8863  137.0387  159.2326 H   0  0  0  0  0  0  0  0  0  0  0  0
  158.0926  139.2002  159.3586 H   0  0  0  0  0  0  0  0  0  0  0  0
  156.8432  141.2957  159.8357 H   0  0  0  0  0  0  0  0  0  0  0  0
  154.4183  141.2469  160.1852 H   0  0  0  0  0  0  0  0  0  0  0  0
  151.0279  139.9298  160.2430 H   0  0  0  0  0  0  0  0  0  0  0  0
  152.4428  140.9592  160.5047 H   0  0  0  0  0  0  0  0  0  0  0  0
  153.0861  140.6178  158.0786 H   0  0  0  0  0  0  0  0  0  0  0  0
  151.6208  139.7031  157.8228 H   0  0  0  0  0  0  0  0  0  0  0  0
  149.0707  140.4580  156.8047 H   0  0  0  0  0  0  0  0  0  0  0  0
  151.3386  139.5742  156.3897 H   0  0  0  0  0  0  0  0  0  0  0  0
  151.5738  140.7058  155.0608 H   0  0  0  0  0  0  0  0  0  0  0  0
  150.3507  139.4465  154.9415 H   0  0  0  0  0  0  0  0  0  0  0  0
  149.0666  142.7805  155.1970 H   0  0  0  0  0  0  0  0  0  0  0  0
  147.6914  141.9096  153.6791 H   0  0  0  0  0  0  0  0  0  0  0  0
  150.1494  145.9618  158.6550 H   0  0  0  0  0  0  0  0  0  0  0  0
  151.7530  146.3911  160.5241 H   0  0  0  0  0  0  0  0  0  0  0  0
  153.2434  144.6076  161.3530 H   0  0  0  0  0  0  0  0  0  0  0  0
  153.1949  142.3229  160.3562 H   0  0  0  0  0  0  0  0  0  0  0  0
  149.3187  143.8268  156.9007 H   0  0  0  0  0  0  0  0  0  0  0  0
  1  2  1  0  0  0  0
  1 25  1  0  0  0  0
  1 26  1  0  0  0  0
  1 27  1  0  0  0  0
  2  7  1  0  0  0  0
  2  3  2  0  0  0  0
  3  4  1  0  0  0  0
  3 28  1  0  0  0  0
  4  5  2  0  0  0  0
  4 29  1  0  0  0  0
  5  6  1  0  0  0  0
  5 30  1  0  0  0  0
  6  7  2  0  0  0  0
  6 31  1  0  0  0  0
  7  8  1  0  0  0  0
  8  9  1  0  0  0  0
  9 10  1  0  0  0  0
  9 32  1  0  0  0  0
  9 33  1  0  0  0  0
 10 11  1  0  0  0  0
 10 34  1  0  0  0  0
 10 35  1  0  0  0  0
 11 24  1  0  0  0  0
 11 12  1  0  0  0  0
 12 13  1  0  0  0  0
 12 18  2  0  0  0  0
 13 14  1  0  0  0  0
 13 15  1  0  0  0  0
 13 36  1  0  0  0  0
 14 37  1  0  0  0  0
 14 38  1  0  0  0  0
 14 39  1  0  0  0  0
 15 16  1  0  0  0  0
 15 40  1  0  0  0  0
 16 17  2  0  0  0  0
 16 41  1  0  0  0  0
 18 19  1  0  0  0  0
 18 46  1  0  0  0  0
 19 24  2  0  0  0  0
 19 20  1  0  0  0  0
 20 21  2  0  0  0  0
 20 42  1  0  0  0  0
 21 22  1  0  0  0  0
 21 43  1  0  0  0  0
 22 23  2  0  0  0  0
 22 44  1  0  0  0  0
 23 24  1  0  0  0  0
 23 45  1  0  0  0  0
M  CHG  1  18   1
M  END
> <s_m_source_file>
AV-unprocessed.smi

> <i_m_source_file_index>
2953

> <i_lp_mmshare_version>
43012

> <i_f3d_flags>
0

> <s_epik_input>
W0NIM11jMVtjSF1bY0hdW2NIXVtjSF1jMU9bQ0gyXVtDSDJdbihjKG4yKVtDQEhdKFtDSDNdKVtOSF1bQ0hdPU8pYyhjMjMpW2NIXVtjSF1bY0hdW2NIXTM=

> <s_epik_cmdline>
J2VwaWtfcHl0aG9uJywgJy1waCcsICc3LjAnLCAnLXRuJywgJzgnLCAnLW1hJywgJzIwMCcsICctbWV0YWxfYmluZGluZycsICctaW1hZScsICc8aW5maWxlLm1hZT4nLCAnLW9tYWUnLCAnPG91dGZpbGUubWFlPic=

> <r_lp_tautomer_probability>
1

> <r_epik_Ionization_Penalty>
1.14644

> <r_epik_Ionization_Penalty_Charging>
1.14644

> <r_epik_Ionization_Penalty_Neutral>
5.5802e-08

> <r_epik_State_Penalty>
1.20743

> <r_epik_Charging_Adjusted_Penalty>
2.35387

> <i_epik_Tot_Q>
1

> <i_epik_Tot_abs_Q>
1

> <r_epik_Metal_State_Penalty>
1.28856

> <b_epik_Metal_Only>
0

> <s_lp_Force_Field>
OPLS_2005

> <r_lp_Energy>
18.7543

> <b_lp_Chiralities_Consistent>
1

> <s_lp_Variant>
AV-unprocessed.smi:2953-3

> <Gold.Version>
5.8.1

> <Gold.Id.Protein>
6NUR|6NUR_protein|mol2

> <Gold.PLP.Fitness>
49.7430

> <Gold.PLP.PLP>
-42.4952

> <Gold.PLP.part.hbond>
-1.8206

> <Gold.PLP.part.metal>
0.0000

> <Gold.PLP.part.buried>
-5.3865

> <Gold.PLP.part.nonpolar>
-37.1164

> <Gold.PLP.part.repulsive>
0.8117

> <Gold.PLP.ligand.clash>
0.0000

> <Gold.PLP.ligand.torsion>
0.9252

> <Gold.PLP.Chemscore.Hbond>
3.0000

> <Gold.PLP.Chemscore.CHOScore>
0.0000

> <Gold.PLP.Chemscore.Metal>
0.0000

> <Gold.Chemscore.Hbonds>
donor molecule, donor type, donor heavy atom, donor atom, acceptor molecule, acceptor atom, score
      L1  H    15    40       P1  8028  1.00
      L1  H    18    46       P1  8028  2.00

> <Gold.PLP.Chemscore.Internal.Correction>
0.0981

> <Gold.Rescore>
     Score         DG    S(hbond)    S(metal)    S(lipo)     H(rot)  DE(clash)    DE(int)     intcor
     18.65     -20.40       1.75        0.00     128.43       2.32       1.09       0.65       ----

> <Gold.Chemscore.Fitness>
18.6545

> <Gold.Chemscore.DG>
-20.4017

> <Gold.Chemscore.ZeroCoef>
-5.4800

> <Gold.Chemscore.Hbond>
1.7487

> <Gold.Chemscore.Metal>
0.0000

> <Gold.Chemscore.Lipo>
128.4291

> <Gold.Chemscore.Internal_Hbond>
0.0000

> <Gold.Chemscore.DEClash>
1.0949

> <Gold.Chemscore.DEInternal>
0.6523

> <Gold.Chemscore.Rot>
2.3223

> <Gold.Chemscore.Internal.Correction>
   9.000000E+99

> <Gold.Chemscore.Hbonds>
donor molecule, donor type, donor heavy atom, donor atom, acceptor molecule, acceptor atom, score
      L1  H    15    40       P1  8028  0.97
      L1  H    18    46       P1  8028  0.69

> <Gold.Chemscore.Hbond.Weighted>
-5.8405

> <Gold.Chemscore.Metal.Weighted>
-0.0000

> <Gold.Chemscore.Lipo.Weighted>
-15.0262

> <Gold.Chemscore.Internal_Hbond.Weighted>
0.0000

> <Gold.Chemscore.DEClash.Weighted>
1.0949

> <Gold.Chemscore.DEInternal.Weighted>
0.6523

> <Gold.Chemscore.Rot.Weighted>
5.9450

> <Gold.Chemscore.Internal.Correction.Weighted>
   9.000000E+99

> <Gold.Protein.RotatedTorsions>
[ 6907 6896 6895 6894 ] final  107.14 input  -60.11 | X-H torsion
[ 7974 7965 7964 7962 ] final -120.15 input  175.53 | X-H torsion
[ 8008 7997 7996 7995 ] final  175.49 input   59.86 | X-H torsion
[ 10167 10162 10161 10158 ] final   30.83 input  -65.29 | X-H torsion
[ 10718 10713 10712 10709 ] final  -42.43 input   66.30 | X-H torsion
[ 10763 10752 10751 10750 ] final   72.86 input  -60.55 | X-H torsion
[ 11005 11000 10999 10996 ] final -152.34 input  -57.11 | X-H torsion

> <Gold.Protein.ActiveResidues>
 VAL166  LYS551  ARG553  GLY616  TRP617  ASP618  TYR619  PRO620  LYS621  CYS622 
 ASP623  PHE694  ASN695  SER759  ASP760  ASP761  ALA762  ILE779  LEU786  VAL792 
 PHE793  MET794  SER795  GLU796  ALA797  LYS798  CYS799  TRP800  GLU811  SER814 

> <Gold.Protein.RotatedAtoms>
  152.5166  133.9277  159.7565 H   0  0  0  0  0  0  0  0  0  0  0  0  # atno 6907 bound_to 6896
  150.9635  133.6411  159.2757 H   0  0  0  0  0  0  0  0  0  0  0  0  # atno 6908 bound_to 6896
  151.3648  135.0916  159.9499 H   0  0  0  0  0  0  0  0  0  0  0  0  # atno 6909 bound_to 6896
  145.0546  140.8244  143.4189 H   0  0  0  0  0  0  0  0  0  0  0  0  # atno 7974 bound_to 7965
  156.0865  140.1407  156.9646 H   0  0  0  0  0  0  0  0  0  0  0  0  # atno 8008 bound_to 7997
  154.4616  140.0941  156.6956 H   0  0  0  0  0  0  0  0  0  0  0  0  # atno 8009 bound_to 7997
  155.4990  140.3450  155.4370 H   0  0  0  0  0  0  0  0  0  0  0  0  # atno 8010 bound_to 7997
  140.4643  144.0859  150.6220 H   0  0  0  0  0  0  0  0  0  0  0  0  # atno 10167 bound_to 10162
  156.2597  130.4196  149.8556 H   0  0  0  0  0  0  0  0  0  0  0  0  # atno 10718 bound_to 10713
  153.0485  135.5084  154.7807 H   0  0  0  0  0  0  0  0  0  0  0  0  # atno 10763 bound_to 10752
  154.6688  135.2950  154.9772 H   0  0  0  0  0  0  0  0  0  0  0  0  # atno 10764 bound_to 10752
  154.0597  135.6692  153.4863 H   0  0  0  0  0  0  0  0  0  0  0  0  # atno 10765 bound_to 10752
  140.7199  134.3739  157.5185 H   0  0  0  0  0  0  0  0  0  0  0  0  # atno 11005 bound_to 11000
  145.1485  139.2529  143.5453 LP  0  0  0  0  0  0  0  0  0  0  0  0  # atno 17320 bound_to 7965
  146.3520  140.1181  142.8601 LP  0  0  0  0  0  0  0  0  0  0  0  0  # atno 17321 bound_to 7965
  140.4055  143.2682  151.9896 LP  0  0  0  0  0  0  0  0  0  0  0  0  # atno 17342 bound_to 10162
  139.4810  144.5960  151.7689 LP  0  0  0  0  0  0  0  0  0  0  0  0  # atno 17343 bound_to 10162
  156.6076  130.8573  151.3447 LP  0  0  0  0  0  0  0  0  0  0  0  0  # atno 17370 bound_to 10713
  157.7246  130.9604  150.1579 LP  0  0  0  0  0  0  0  0  0  0  0  0  # atno 17371 bound_to 10713
  139.8851  134.8948  156.2666 LP  0  0  0  0  0  0  0  0  0  0  0  0  # atno 17394 bound_to 11000
  141.0012  133.7150  156.0964 LP  0  0  0  0  0  0  0  0  0  0  0  0  # atno 17395 bound_to 11000

$$$$
