AV-unprocessed.smi:2881|AV-procd|sdf|11057|dock2
  -GOLD-   2272015523D 1   1.00000     0.00000
 Structure written by MMmdl.
 40 42  0  0  0  0  0  0  0  0  1 V2000
  146.5686  138.1305  152.9917 C   0  0  0  0  0  0  0  0  0  0  0  0
  147.6373  139.0300  153.5126 C   0  0  0  0  0  0  0  0  0  0  0  0
  147.5775  140.2752  154.0712 C   0  0  0  0  0  0  0  0  0  0  0  0
  148.9356  140.5966  154.3655 C   0  0  0  0  0  0  0  0  0  0  0  0
  149.4733  141.8507  155.0014 C   0  0  0  0  0  0  0  0  0  0  0  0
  150.0781  141.5303  156.3688 C   0  0  0  0  0  0  0  0  0  0  0  0
  150.4084  140.3767  156.6433 O   0  0  0  0  0  0  0  0  0  0  0  0
  150.2157  142.5607  157.2167 N   0  0  0  0  0  0  0  0  0  0  0  0
  150.8034  142.4766  158.5509 C   0  0  2  0  0  0  0  0  0  0  0  0
  150.8101  143.8241  159.3169 C   0  0  2  0  0  0  0  0  0  0  0  0
  151.4281  144.9552  158.4672 C   0  0  0  0  0  0  0  0  0  0  0  0
  152.9171  144.5654  158.4204 C   0  0  0  0  0  0  0  0  0  0  0  0
  152.9604  143.2797  159.2695 C   0  0  1  0  0  0  0  0  0  0  0  0
  151.9164  143.5872  160.3371 C   0  0  0  0  0  0  0  0  0  0  0  0
  152.3116  142.1192  158.4793 C   0  0  1  0  0  0  0  0  0  0  0  0
  152.6409  140.7340  159.0683 C   0  0  0  0  0  0  0  0  0  0  0  0
  153.0111  139.8428  158.0371 O   0  0  0  0  0  0  0  0  0  0  0  0
  149.7710  139.6300  154.0094 N   0  0  0  0  0  0  0  0  0  0  0  0
  148.9679  138.6813  153.4930 N   0  0  0  0  0  0  0  0  0  0  0  0
  149.3370  137.8117  153.1354 H   0  0  0  0  0  0  0  0  0  0  0  0
  145.5808  138.4943  153.2754 H   0  0  0  0  0  0  0  0  0  0  0  0
  146.6819  137.1216  153.3887 H   0  0  0  0  0  0  0  0  0  0  0  0
  146.6073  138.0740  151.9039 H   0  0  0  0  0  0  0  0  0  0  0  0
  146.6938  140.8700  154.2499 H   0  0  0  0  0  0  0  0  0  0  0  0
  150.2315  142.3183  154.3714 H   0  0  0  0  0  0  0  0  0  0  0  0
  148.6751  142.5844  155.1215 H   0  0  0  0  0  0  0  0  0  0  0  0
  149.9221  143.4750  156.9038 H   0  0  0  0  0  0  0  0  0  0  0  0
  150.2644  141.7284  159.1357 H   0  0  0  0  0  0  0  0  0  0  0  0
  149.8428  144.0842  159.7480 H   0  0  0  0  0  0  0  0  0  0  0  0
  150.9856  145.0468  157.4753 H   0  0  0  0  0  0  0  0  0  0  0  0
  151.3047  145.9169  158.9667 H   0  0  0  0  0  0  0  0  0  0  0  0
  153.2745  144.4054  157.4026 H   0  0  0  0  0  0  0  0  0  0  0  0
  153.5304  145.3482  158.8687 H   0  0  0  0  0  0  0  0  0  0  0  0
  153.9560  143.0517  159.6515 H   0  0  0  0  0  0  0  0  0  0  0  0
  152.1534  144.4704  160.9330 H   0  0  0  0  0  0  0  0  0  0  0  0
  151.7148  142.7512  161.0082 H   0  0  0  0  0  0  0  0  0  0  0  0
  152.6777  142.1427  157.4509 H   0  0  0  0  0  0  0  0  0  0  0  0
  153.4720  140.8089  159.7701 H   0  0  0  0  0  0  0  0  0  0  0  0
  151.7940  140.3194  159.6152 H   0  0  0  0  0  0  0  0  0  0  0  0
  152.2269  139.5358  157.6083 H   0  0  0  0  0  0  0  0  0  0  0  0
  1  2  1  0  0  0  0
  1 21  1  0  0  0  0
  1 22  1  0  0  0  0
  1 23  1  0  0  0  0
  2 19  1  0  0  0  0
  2  3  2  0  0  0  0
  3  4  1  0  0  0  0
  3 24  1  0  0  0  0
  4  5  1  0  0  0  0
  4 18  2  0  0  0  0
  5  6  1  0  0  0  0
  5 25  1  0  0  0  0
  5 26  1  0  0  0  0
  6  7  2  0  0  0  0
  6  8  1  0  0  0  0
  8  9  1  0  0  0  0
  8 27  1  0  0  0  0
  9 15  1  0  0  0  0
  9 10  1  0  0  0  0
  9 28  1  0  0  0  0
 10 14  1  0  0  0  0
 10 11  1  0  0  0  0
 10 29  1  0  0  0  0
 11 12  1  0  0  0  0
 11 30  1  0  0  0  0
 11 31  1  0  0  0  0
 12 13  1  0  0  0  0
 12 32  1  0  0  0  0
 12 33  1  0  0  0  0
 13 14  1  0  0  0  0
 13 15  1  0  0  0  0
 13 34  1  0  0  0  0
 14 35  1  0  0  0  0
 14 36  1  0  0  0  0
 15 16  1  0  0  0  0
 15 37  1  0  0  0  0
 16 17  1  0  0  0  0
 16 38  1  0  0  0  0
 16 39  1  0  0  0  0
 17 40  1  0  0  0  0
 18 19  1  0  0  0  0
 19 20  1  0  0  0  0
M  END
> <s_m_source_file>
AV-unprocessed.smi

> <i_m_source_file_index>
2881

> <i_lp_mmshare_version>
43012

> <i_f3d_flags>
0

> <s_epik_input>
W0NIM11jMVtjSF1jKG5bbkhdMSlbQ0gyXUMoPU8pW05IXVtDQEhdKFtDQEBIXTIzKVtDQEhdKFtDSDJdW09IXSlbQ0BASF0oW0NIMl0zKVtDSDJdW0NIMl0y

> <s_epik_cmdline>
J2VwaWtfcHl0aG9uJywgJy1waCcsICc3LjAnLCAnLXRuJywgJzgnLCAnLW1hJywgJzIwMCcsICctbWV0YWxfYmluZGluZycsICctaW1hZScsICc8aW5maWxlLm1hZT4nLCAnLW9tYWUnLCAnPG91dGZpbGUubWFlPic=

> <r_lp_tautomer_probability>
0.5

> <r_epik_Ionization_Penalty>
9.4349e-05

> <r_epik_Ionization_Penalty_Charging>
0

> <r_epik_Ionization_Penalty_Neutral>
9.4349e-05

> <r_epik_State_Penalty>
0.41068

> <r_epik_Charging_Adjusted_Penalty>
0.41068

> <i_epik_Tot_Q>
0

> <i_epik_Tot_abs_Q>
0

> <r_epik_Metal_State_Penalty>
0.4107

> <b_epik_Metal_Only>
0

> <s_lp_Force_Field>
OPLS_2005

> <r_lp_Energy>
47.2373

> <b_lp_Chiralities_Consistent>
1

> <s_lp_Variant>
AV-unprocessed.smi:2881-3

> <Gold.Version>
5.8.1

> <Gold.Id.Protein>
6NUR|6NUR_protein|mol2

> <Gold.PLP.Fitness>
46.2770

> <Gold.PLP.PLP>
-38.3747

> <Gold.PLP.part.hbond>
-4.5853

> <Gold.PLP.part.metal>
0.0000

> <Gold.PLP.part.buried>
-3.9590

> <Gold.PLP.part.nonpolar>
-31.5626

> <Gold.PLP.part.repulsive>
1.9185

> <Gold.PLP.ligand.clash>
0.0000

> <Gold.PLP.ligand.torsion>
1.0077

> <Gold.PLP.Chemscore.Hbond>
3.2961

> <Gold.PLP.Chemscore.CHOScore>
0.0000

> <Gold.PLP.Chemscore.Metal>
0.0000

> <Gold.Chemscore.Hbonds>
donor molecule, donor type, donor heavy atom, donor atom, acceptor molecule, acceptor atom, score
      L1  H     8    27       P1  8028  0.99
      L1  H    19    20       P1  7948  0.89
      P1  H  7989  7998       L1    18  0.35
      P1  H  7997  8010       L1    17  1.00

> <Gold.PLP.Chemscore.Internal.Correction>
0.0293

> <Gold.Rescore>
     Score         DG    S(hbond)    S(metal)    S(lipo)     H(rot)  DE(clash)    DE(int)     intcor
     19.75     -22.55       2.79        0.00     116.11       2.28       0.44       2.36       ----

> <Gold.Chemscore.Fitness>
19.7540

> <Gold.Chemscore.DG>
-22.5497

> <Gold.Chemscore.ZeroCoef>
-5.4800

> <Gold.Chemscore.Hbond>
2.7876

> <Gold.Chemscore.Metal>
0.0000

> <Gold.Chemscore.Lipo>
116.1054

> <Gold.Chemscore.Internal_Hbond>
0.0000

> <Gold.Chemscore.DEClash>
0.4395

> <Gold.Chemscore.DEInternal>
2.3561

> <Gold.Chemscore.Rot>
2.2755

> <Gold.Chemscore.Internal.Correction>
   9.000000E+99

> <Gold.Chemscore.Hbonds>
donor molecule, donor type, donor heavy atom, donor atom, acceptor molecule, acceptor atom, score
      L1  H     8    27       P1  8028  0.90
      L1  H    19    20       P1  7948  0.79
      P1  H  7989  7998       L1    18  0.09
      P1  H  7997  8010       L1    17  0.93

> <Gold.Chemscore.Hbond.Weighted>
-9.3106

> <Gold.Chemscore.Metal.Weighted>
-0.0000

> <Gold.Chemscore.Lipo.Weighted>
-13.5843

> <Gold.Chemscore.Internal_Hbond.Weighted>
0.0000

> <Gold.Chemscore.DEClash.Weighted>
0.4395

> <Gold.Chemscore.DEInternal.Weighted>
2.3561

> <Gold.Chemscore.Rot.Weighted>
5.8252

> <Gold.Chemscore.Internal.Correction.Weighted>
   9.000000E+99

> <Gold.Protein.RotatedTorsions>
[ 6907 6896 6895 6894 ] final   52.13 input  -60.11 | X-H torsion
[ 7974 7965 7964 7962 ] final    6.14 input  175.53 | X-H torsion
[ 8008 7997 7996 7995 ] final   38.68 input   59.86 | X-H torsion
[ 10167 10162 10161 10158 ] final  -88.58 input  -65.29 | X-H torsion
[ 10718 10713 10712 10709 ] final  114.07 input   66.30 | X-H torsion
[ 10763 10752 10751 10750 ] final -124.40 input  -60.55 | X-H torsion
[ 11005 11000 10999 10996 ] final  -85.29 input  -57.11 | X-H torsion

> <Gold.Protein.ActiveResidues>
 VAL166  LYS551  ARG553  GLY616  TRP617  ASP618  TYR619  PRO620  LYS621  CYS622 
 ASP623  PHE694  ASN695  SER759  ASP760  ASP761  ALA762  ILE779  LEU786  VAL792 
 PHE793  MET794  SER795  GLU796  ALA797  LYS798  CYS799  TRP800  GLU811  SER814 

> <Gold.Protein.RotatedAtoms>
  152.3201  134.7391  160.0315 H   0  0  0  0  0  0  0  0  0  0  0  0  # atno 6907 bound_to 6896
  151.7843  133.3347  159.3488 H   0  0  0  0  0  0  0  0  0  0  0  0  # atno 6908 bound_to 6896
  150.7365  134.5833  159.5994 H   0  0  0  0  0  0  0  0  0  0  0  0  # atno 6909 bound_to 6896
  146.2436  140.0278  142.8392 H   0  0  0  0  0  0  0  0  0  0  0  0  # atno 7974 bound_to 7965
  155.2242  140.3333  155.4311 H   0  0  0  0  0  0  0  0  0  0  0  0  # atno 8008 bound_to 7997
  156.2321  140.1855  156.7262 H   0  0  0  0  0  0  0  0  0  0  0  0  # atno 8009 bound_to 7997
  154.5996  140.0625  156.9335 H   0  0  0  0  0  0  0  0  0  0  0  0  # atno 8010 bound_to 7997
  140.3733  143.2784  151.9474 H   0  0  0  0  0  0  0  0  0  0  0  0  # atno 10167 bound_to 10162
  157.6302  131.0993  150.7133 H   0  0  0  0  0  0  0  0  0  0  0  0  # atno 10718 bound_to 10713
  154.8722  135.4065  154.3100 H   0  0  0  0  0  0  0  0  0  0  0  0  # atno 10763 bound_to 10752
  153.3945  135.7016  153.6476 H   0  0  0  0  0  0  0  0  0  0  0  0  # atno 10764 bound_to 10752
  153.5244  135.3680  155.2618 H   0  0  0  0  0  0  0  0  0  0  0  0  # atno 10765 bound_to 10752
  141.1642  133.7392  156.8994 H   0  0  0  0  0  0  0  0  0  0  0  0  # atno 11005 bound_to 11000
  145.1182  140.9447  143.4616 LP  0  0  0  0  0  0  0  0  0  0  0  0  # atno 17320 bound_to 7965
  145.0507  139.3184  143.5930 LP  0  0  0  0  0  0  0  0  0  0  0  0  # atno 17321 bound_to 7965
  139.4802  144.5887  151.7809 LP  0  0  0  0  0  0  0  0  0  0  0  0  # atno 17342 bound_to 10162
  140.5012  144.1167  150.5971 LP  0  0  0  0  0  0  0  0  0  0  0  0  # atno 17343 bound_to 10162
  156.7473  130.4758  149.5464 LP  0  0  0  0  0  0  0  0  0  0  0  0  # atno 17370 bound_to 10713
  156.1501  130.6304  151.0583 LP  0  0  0  0  0  0  0  0  0  0  0  0  # atno 17371 bound_to 10713
  140.1593  134.9176  157.2694 LP  0  0  0  0  0  0  0  0  0  0  0  0  # atno 17394 bound_to 11000
  140.2630  134.3549  155.7400 LP  0  0  0  0  0  0  0  0  0  0  0  0  # atno 17395 bound_to 11000

$$$$
