AV-unprocessed.smi:3292|AV-procd|sdf|12626|dock6
  -GOLD-   2272018563D 1   1.00000     0.00000
 Structure written by MMmdl.
 38 39  0  0  0  0  0  0  0  0  1 V2000
  146.2563  142.6573  153.7595 C   0  0  0  0  0  0  0  0  0  0  0  0
  147.2234  141.6249  154.3625 C   0  0  1  0  0  0  0  0  0  0  0  0
  147.8907  140.7243  153.2996 C   0  0  0  0  0  0  0  0  0  0  0  0
  147.1047  139.5447  152.9913 N   0  0  0  0  0  0  0  0  0  0  0  0
  146.3533  138.7861  153.8791 C   0  0  0  0  0  0  0  0  0  0  0  0
  145.7863  137.7691  153.1449 C   0  0  0  0  0  0  0  0  0  0  0  0
  146.1770  137.8784  151.8124 N   0  0  0  0  0  0  0  0  0  0  0  0
  146.9590  138.9503  151.7990 C   0  0  0  0  0  0  0  0  0  0  0  0
  148.2403  142.3223  155.1446 N   0  0  0  0  0  0  0  0  0  0  0  0
  149.1948  141.7296  155.8759 C   0  0  0  0  0  0  0  0  0  0  0  0
  149.3374  140.5100  155.9656 O   0  0  0  0  0  0  0  0  0  0  0  0
  149.9718  142.6263  156.4998 N   0  0  0  0  0  0  0  0  0  0  0  0
  151.0926  142.3068  157.3785 C   0  0  0  0  0  0  0  0  0  0  0  0
  151.1412  143.2346  158.6072 C   0  0  2  0  0  0  0  0  0  0  0  0
  151.4739  144.6745  158.2740 C   0  0  0  0  0  0  0  0  0  0  0  0
  151.9053  145.2263  159.6302 C   0  0  0  0  0  0  0  0  0  0  0  0
  152.4544  144.1236  160.3467 O   0  0  0  0  0  0  0  0  0  0  0  0
  152.2399  142.9164  159.6229 C   0  0  0  0  0  0  0  0  0  0  0  0
  145.4255  142.1746  153.2444 H   0  0  0  0  0  0  0  0  0  0  0  0
  146.7630  143.3031  153.0418 H   0  0  0  0  0  0  0  0  0  0  0  0
  145.8282  143.2926  154.5355 H   0  0  0  0  0  0  0  0  0  0  0  0
  146.6431  140.9933  155.0381 H   0  0  0  0  0  0  0  0  0  0  0  0
  148.0539  141.2841  152.3775 H   0  0  0  0  0  0  0  0  0  0  0  0
  148.8720  140.3923  153.6404 H   0  0  0  0  0  0  0  0  0  0  0  0
  146.2855  139.0280  154.9296 H   0  0  0  0  0  0  0  0  0  0  0  0
  145.1338  136.9726  153.4708 H   0  0  0  0  0  0  0  0  0  0  0  0
  147.4334  139.3140  150.8991 H   0  0  0  0  0  0  0  0  0  0  0  0
  148.2067  143.3312  155.1359 H   0  0  0  0  0  0  0  0  0  0  0  0
  149.7709  143.6058  156.3606 H   0  0  0  0  0  0  0  0  0  0  0  0
  151.0603  141.2601  157.6859 H   0  0  0  0  0  0  0  0  0  0  0  0
  152.0087  142.4247  156.7994 H   0  0  0  0  0  0  0  0  0  0  0  0
  150.1761  143.2129  159.1163 H   0  0  0  0  0  0  0  0  0  0  0  0
  152.3074  144.7196  157.5715 H   0  0  0  0  0  0  0  0  0  0  0  0
  150.6346  145.2203  157.8426 H   0  0  0  0  0  0  0  0  0  0  0  0
  152.6253  146.0393  159.5366 H   0  0  0  0  0  0  0  0  0  0  0  0
  151.0419  145.6004  160.1814 H   0  0  0  0  0  0  0  0  0  0  0  0
  151.9715  142.0965  160.2894 H   0  0  0  0  0  0  0  0  0  0  0  0
  153.1687  142.6506  159.1164 H   0  0  0  0  0  0  0  0  0  0  0  0
  1  2  1  0  0  0  0
  1 19  1  0  0  0  0
  1 20  1  0  0  0  0
  1 21  1  0  0  0  0
  2  3  1  0  0  0  0
  2  9  1  0  0  0  0
  2 22  1  0  0  0  0
  3  4  1  0  0  0  0
  3 23  1  0  0  0  0
  3 24  1  0  0  0  0
  4  8  1  0  0  0  0
  4  5  1  0  0  0  0
  5  6  2  0  0  0  0
  5 25  1  0  0  0  0
  6  7  1  0  0  0  0
  6 26  1  0  0  0  0
  7  8  2  0  0  0  0
  8 27  1  0  0  0  0
  9 10  1  0  0  0  0
  9 28  1  0  0  0  0
 10 11  2  0  0  0  0
 10 12  1  0  0  0  0
 12 13  1  0  0  0  0
 12 29  1  0  0  0  0
 13 14  1  0  0  0  0
 13 30  1  0  0  0  0
 13 31  1  0  0  0  0
 14 18  1  0  0  0  0
 14 15  1  0  0  0  0
 14 32  1  0  0  0  0
 15 16  1  0  0  0  0
 15 33  1  0  0  0  0
 15 34  1  0  0  0  0
 16 17  1  0  0  0  0
 16 35  1  0  0  0  0
 16 36  1  0  0  0  0
 17 18  1  0  0  0  0
 18 37  1  0  0  0  0
 18 38  1  0  0  0  0
M  END
> <s_m_source_file>
AV-unprocessed.smi

> <i_m_source_file_index>
3292

> <i_lp_mmshare_version>
43012

> <i_f3d_flags>
0

> <s_epik_input>
W2NIXTFuW2NIXVtjSF1uMVtDSDJdW0NAQEhdKFtDSDNdKVtOSF1DKD1PKVtOSF1bQ0gyXVtDQEBIXTJbQ0gyXVtDSDJdT1tDSDJdMg==

> <s_epik_cmdline>
J2VwaWtfcHl0aG9uJywgJy1waCcsICc3LjAnLCAnLXRuJywgJzgnLCAnLW1hJywgJzIwMCcsICctbWV0YWxfYmluZGluZycsICctaW1hZScsICc8aW5maWxlLm1hZT4nLCAnLW9tYWUnLCAnPG91dGZpbGUubWFlPic=

> <r_lp_tautomer_probability>
1

> <r_epik_Ionization_Penalty>
0.621291

> <r_epik_Ionization_Penalty_Charging>
0.621234

> <r_epik_Ionization_Penalty_Neutral>
5.72199e-05

> <r_epik_State_Penalty>
0.637278

> <r_epik_Charging_Adjusted_Penalty>
1.25851

> <i_epik_Tot_Q>
0

> <i_epik_Tot_abs_Q>
0

> <r_epik_Metal_State_Penalty>
0.306757

> <b_epik_Metal_Only>
0

> <s_lp_Force_Field>
OPLS_2005

> <r_lp_Energy>
18.3972

> <b_lp_Chiralities_Consistent>
1

> <s_lp_Variant>
AV-unprocessed.smi:3292-6

> <Gold.Version>
5.8.1

> <Gold.Id.Protein>
6NUR|6NUR_protein|mol2

> <Gold.PLP.Fitness>
44.0187

> <Gold.PLP.PLP>
-37.2986

> <Gold.PLP.part.hbond>
-2.0000

> <Gold.PLP.part.metal>
0.0000

> <Gold.PLP.part.buried>
-2.5605

> <Gold.PLP.part.nonpolar>
-33.8043

> <Gold.PLP.part.repulsive>
0.5885

> <Gold.PLP.ligand.clash>
0.0000

> <Gold.PLP.ligand.torsion>
0.8549

> <Gold.PLP.Chemscore.Hbond>
1.9920

> <Gold.PLP.Chemscore.CHOScore>
0.8072

> <Gold.PLP.Chemscore.Metal>
0.0000

> <Gold.Chemscore.Hbonds>
donor molecule, donor type, donor heavy atom, donor atom, acceptor molecule, acceptor atom, score
      L1  H     9    28       P1  8028  0.98
      L1  H    12    29       P1  8028  0.99
      L1  C     8    27       P1  7957  0.74

> <Gold.PLP.Chemscore.Internal.Correction>
0.0323

> <Gold.Rescore>
     Score         DG    S(hbond)    S(metal)    S(lipo)     H(rot)  DE(clash)    DE(int)     intcor
     14.34     -15.59       1.83        0.00      81.24       2.16       0.28       0.96       ----

> <Gold.Chemscore.Fitness>
14.3448

> <Gold.Chemscore.DG>
-15.5853

> <Gold.Chemscore.ZeroCoef>
-5.4800

> <Gold.Chemscore.Hbond>
1.8335

> <Gold.Chemscore.Metal>
0.0000

> <Gold.Chemscore.Lipo>
81.2408

> <Gold.Chemscore.Internal_Hbond>
0.0000

> <Gold.Chemscore.DEClash>
0.2780

> <Gold.Chemscore.DEInternal>
0.9625

> <Gold.Chemscore.Rot>
2.1577

> <Gold.Chemscore.Internal.Correction>
   9.000000E+99

> <Gold.Chemscore.Hbonds>
donor molecule, donor type, donor heavy atom, donor atom, acceptor molecule, acceptor atom, score
      L1  H     9    28       P1  8028  0.86
      L1  H    12    29       P1  8028  0.91

> <Gold.Chemscore.Hbond.Weighted>
-6.1238

> <Gold.Chemscore.Metal.Weighted>
-0.0000

> <Gold.Chemscore.Lipo.Weighted>
-9.5052

> <Gold.Chemscore.Internal_Hbond.Weighted>
0.0000

> <Gold.Chemscore.DEClash.Weighted>
0.2780

> <Gold.Chemscore.DEInternal.Weighted>
0.9625

> <Gold.Chemscore.Rot.Weighted>
5.5237

> <Gold.Chemscore.Internal.Correction.Weighted>
   9.000000E+99

> <Gold.Protein.RotatedTorsions>
[ 6907 6896 6895 6894 ] final   21.53 input  -60.11 | X-H torsion
[ 7974 7965 7964 7962 ] final  -11.34 input  175.53 | X-H torsion
[ 8008 7997 7996 7995 ] final -178.52 input   59.86 | X-H torsion
[ 10167 10162 10161 10158 ] final   15.61 input  -65.29 | X-H torsion
[ 10718 10713 10712 10709 ] final  -37.20 input   66.30 | X-H torsion
[ 10763 10752 10751 10750 ] final  108.00 input  -60.55 | X-H torsion
[ 11005 11000 10999 10996 ] final   -2.08 input  -57.11 | X-H torsion

> <Gold.Protein.ActiveResidues>
 VAL166  LYS551  ARG553  GLY616  TRP617  ASP618  TYR619  PRO620  LYS621  CYS622 
 ASP623  PHE694  ASN695  SER759  ASP760  ASP761  ALA762  ILE779  LEU786  VAL792 
 PHE793  MET794  SER795  GLU796  ALA797  LYS798  CYS799  TRP800  GLU811  SER814 

> <Gold.Protein.RotatedAtoms>
  151.9132  135.0330  160.0515 H   0  0  0  0  0  0  0  0  0  0  0  0  # atno 6907 bound_to 6896
  152.2262  133.5017  159.5198 H   0  0  0  0  0  0  0  0  0  0  0  0  # atno 6908 bound_to 6896
  150.7013  134.1194  159.4072 H   0  0  0  0  0  0  0  0  0  0  0  0  # atno 6909 bound_to 6896
  146.2190  140.2897  142.8367 H   0  0  0  0  0  0  0  0  0  0  0  0  # atno 7974 bound_to 7965
  156.0198  140.1258  157.0369 H   0  0  0  0  0  0  0  0  0  0  0  0  # atno 8008 bound_to 7997
  154.4307  140.1071  156.6017 H   0  0  0  0  0  0  0  0  0  0  0  0  # atno 8009 bound_to 7997
  155.5961  140.3470  155.4582 H   0  0  0  0  0  0  0  0  0  0  0  0  # atno 8010 bound_to 7997
  140.5855  143.8898  150.6826 H   0  0  0  0  0  0  0  0  0  0  0  0  # atno 10167 bound_to 10162
  156.3179  130.4261  149.7988 H   0  0  0  0  0  0  0  0  0  0  0  0  # atno 10718 bound_to 10713
  153.4146  135.3826  155.2072 H   0  0  0  0  0  0  0  0  0  0  0  0  # atno 10763 bound_to 10752
  154.8740  135.3802  154.4459 H   0  0  0  0  0  0  0  0  0  0  0  0  # atno 10764 bound_to 10752
  153.4971  135.7088  153.5914 H   0  0  0  0  0  0  0  0  0  0  0  0  # atno 10765 bound_to 10752
  140.6544  133.9376  155.8399 H   0  0  0  0  0  0  0  0  0  0  0  0  # atno 11005 bound_to 11000
  144.9136  140.7786  143.5792 LP  0  0  0  0  0  0  0  0  0  0  0  0  # atno 17320 bound_to 7965
  145.2829  139.1911  143.4781 LP  0  0  0  0  0  0  0  0  0  0  0  0  # atno 17321 bound_to 7965
  140.2408  143.3665  152.1488 LP  0  0  0  0  0  0  0  0  0  0  0  0  # atno 17342 bound_to 10162
  139.5195  144.7020  151.5465 LP  0  0  0  0  0  0  0  0  0  0  0  0  # atno 17343 bound_to 10162
  156.5306  130.8256  151.3236 LP  0  0  0  0  0  0  0  0  0  0  0  0  # atno 17370 bound_to 10713
  157.7405  130.9852  150.2385 LP  0  0  0  0  0  0  0  0  0  0  0  0  # atno 17371 bound_to 10713
  141.0512  134.0481  157.3780 LP  0  0  0  0  0  0  0  0  0  0  0  0  # atno 17394 bound_to 11000
  139.9034  135.0172  156.7377 LP  0  0  0  0  0  0  0  0  0  0  0  0  # atno 17395 bound_to 11000

$$$$
