AV-unprocessed.smi:1867|AV-procd|sdf|7572|dock2
  -GOLD-   22720 9283D 1   1.00000     0.00000
 Structure written by MMmdl.
 53 56  0  0  0  0  0  0  0  0  3 V2000
  146.1342  138.8126  154.2435 O   0  0  0  0  0  0  0  0  0  0  0  0
  146.9835  138.2067  153.5949 C   0  0  0  0  0  0  0  0  0  0  0  0
  148.3137  138.3108  153.7865 N   0  0  0  0  0  0  0  0  0  0  0  0
  149.0189  139.1518  154.6899 C   0  0  0  0  0  0  0  0  0  0  0  0
  150.4181  139.3760  154.6422 C   0  0  0  0  0  0  0  0  0  0  0  0
  151.0196  140.2185  155.5993 C   0  0  0  0  0  0  0  0  0  0  0  0
  150.2210  140.8178  156.6006 C   0  0  0  0  0  0  0  0  0  0  0  0
  150.7211  141.6756  157.5904 N   0  0  0  0  0  0  0  0  0  0  0  0
  151.7202  141.0996  158.4760 C   0  0  0  0  0  0  0  0  0  0  0  0
  152.4078  142.2903  159.1494 C   0  0  0  0  0  0  0  0  0  0  0  0
  152.1324  143.4810  158.2237 C   0  0  0  0  0  0  0  0  0  0  0  0
  151.3015  142.9038  157.0748 C   0  0  0  0  0  0  0  0  0  0  0  0
  148.8934  140.5691  156.6167 N   0  3  0  0  0  0  0  0  0  0  0  0
  148.2776  139.7701  155.7187 C   0  0  0  0  0  0  0  0  0  0  0  0
  146.6288  137.3405  152.6288 N   0  0  0  0  0  0  0  0  0  0  0  0
  145.2818  136.9927  152.1703 C   0  0  2  0  0  0  0  0  0  0  0  0
  144.3125  136.7300  153.3160 C   0  0  0  0  0  0  0  0  0  0  0  0
  143.1825  135.9472  152.6406 C   0  0  0  0  0  0  0  0  0  0  0  0
  143.7832  135.2430  151.4814 N   0  3  2  0  0  0  0  0  0  0  0  0
  143.5807  133.7694  151.5001 C   0  0  0  0  0  0  0  0  0  0  0  0
  144.5313  133.0713  150.5168 C   0  0  0  0  0  0  0  0  0  0  0  0
  146.0061  133.3075  150.8933 C   0  0  0  0  0  0  0  0  0  0  0  0
  146.2037  134.5830  151.7346 C   0  0  0  0  0  0  0  0  0  0  0  0
  145.1982  135.6939  151.3433 C   0  0  2  0  0  0  0  0  0  0  0  0
  148.8887  137.6872  153.2396 H   0  0  0  0  0  0  0  0  0  0  0  0
  151.0477  138.9120  153.8992 H   0  0  0  0  0  0  0  0  0  0  0  0
  152.0840  140.3980  155.5575 H   0  0  0  0  0  0  0  0  0  0  0  0
  151.2578  140.4386  159.2100 H   0  0  0  0  0  0  0  0  0  0  0  0
  152.4514  140.5172  157.9145 H   0  0  0  0  0  0  0  0  0  0  0  0
  151.9718  142.4752  160.1321 H   0  0  0  0  0  0  0  0  0  0  0  0
  153.4743  142.1110  159.2885 H   0  0  0  0  0  0  0  0  0  0  0  0
  151.5643  144.2436  158.7581 H   0  0  0  0  0  0  0  0  0  0  0  0
  153.0498  143.9448  157.8602 H   0  0  0  0  0  0  0  0  0  0  0  0
  151.9414  142.6914  156.2170 H   0  0  0  0  0  0  0  0  0  0  0  0
  150.5262  143.5997  156.7527 H   0  0  0  0  0  0  0  0  0  0  0  0
  147.2112  139.6552  155.8492 H   0  0  0  0  0  0  0  0  0  0  0  0
  147.3858  136.8607  152.1626 H   0  0  0  0  0  0  0  0  0  0  0  0
  144.8701  137.8164  151.5832 H   0  0  0  0  0  0  0  0  0  0  0  0
  144.7858  136.1099  154.0790 H   0  0  0  0  0  0  0  0  0  0  0  0
  143.9629  137.6444  153.7962 H   0  0  0  0  0  0  0  0  0  0  0  0
  142.6832  135.2767  153.3414 H   0  0  0  0  0  0  0  0  0  0  0  0
  142.4284  136.6360  152.2584 H   0  0  0  0  0  0  0  0  0  0  0  0
  143.7536  133.3780  152.5042 H   0  0  0  0  0  0  0  0  0  0  0  0
  142.5419  133.5511  151.2508 H   0  0  0  0  0  0  0  0  0  0  0  0
  144.3240  132.0015  150.4780 H   0  0  0  0  0  0  0  0  0  0  0  0
  144.3451  133.4538  149.5123 H   0  0  0  0  0  0  0  0  0  0  0  0
  146.3915  132.4533  151.4511 H   0  0  0  0  0  0  0  0  0  0  0  0
  146.6001  133.3651  149.9805 H   0  0  0  0  0  0  0  0  0  0  0  0
  146.0787  134.3401  152.7908 H   0  0  0  0  0  0  0  0  0  0  0  0
  147.2330  134.9243  151.6230 H   0  0  0  0  0  0  0  0  0  0  0  0
  145.3706  135.9348  150.2933 H   0  0  0  0  0  0  0  0  0  0  0  0
  143.3025  135.5874  150.6625 H   0  0  0  0  0  0  0  0  0  0  0  0
  148.3282  141.0064  157.3452 H   0  0  0  0  0  0  0  0  0  0  0  0
  1  2  2  0  0  0  0
  2  3  1  0  0  0  0
  2 15  1  0  0  0  0
  3  4  1  0  0  0  0
  3 25  1  0  0  0  0
  4 14  1  0  0  0  0
  4  5  2  0  0  0  0
  5  6  1  0  0  0  0
  5 26  1  0  0  0  0
  6  7  2  0  0  0  0
  6 27  1  0  0  0  0
  7  8  1  0  0  0  0
  7 13  1  0  0  0  0
  8 12  1  0  0  0  0
  8  9  1  0  0  0  0
  9 10  1  0  0  0  0
  9 28  1  0  0  0  0
  9 29  1  0  0  0  0
 10 11  1  0  0  0  0
 10 30  1  0  0  0  0
 10 31  1  0  0  0  0
 11 12  1  0  0  0  0
 11 32  1  0  0  0  0
 11 33  1  0  0  0  0
 12 34  1  0  0  0  0
 12 35  1  0  0  0  0
 13 14  2  0  0  0  0
 13 53  1  0  0  0  0
 14 36  1  0  0  0  0
 15 16  1  0  0  0  0
 15 37  1  0  0  0  0
 16 24  1  0  0  0  0
 16 17  1  0  0  0  0
 16 38  1  0  0  0  0
 17 18  1  0  0  0  0
 17 39  1  0  0  0  0
 17 40  1  0  0  0  0
 18 19  1  0  0  0  0
 18 41  1  0  0  0  0
 18 42  1  0  0  0  0
 19 24  1  0  0  0  0
 19 20  1  0  0  0  0
 19 52  1  0  0  0  0
 20 21  1  0  0  0  0
 20 43  1  0  0  0  0
 20 44  1  0  0  0  0
 21 22  1  0  0  0  0
 21 45  1  0  0  0  0
 21 46  1  0  0  0  0
 22 23  1  0  0  0  0
 22 47  1  0  0  0  0
 22 48  1  0  0  0  0
 23 24  1  0  0  0  0
 23 49  1  0  0  0  0
 23 50  1  0  0  0  0
 24 51  1  0  0  0  0
M  CHG  1  13   1
M  CHG  1  19   1
M  END
> <s_m_source_file>
AV-unprocessed.smi

> <i_m_source_file_index>
1867

> <i_lp_mmshare_version>
43012

> <i_f3d_flags>
0

> <s_epik_input>
W0NIMl0xW0NIMl1bQ0gyXVtDSDJdW0NASF0oTjEyKVtDQEBIXShbQ0gyXVtDSDJdMilbTkhdQyg9TylbTkhdYzNbY0hdW2NIXWMobltjSF0zKU40W0NIMl1bQ0gyXVtDSDJdW0NIMl00

> <s_epik_cmdline>
J2VwaWtfcHl0aG9uJywgJy1waCcsICc3LjAnLCAnLXRuJywgJzgnLCAnLW1hJywgJzIwMCcsICctbWV0YWxfYmluZGluZycsICctaW1hZScsICc8aW5maWxlLm1hZT4nLCAnLW9tYWUnLCAnPG91dGZpbGUubWFlPic=

> <r_lp_tautomer_probability>
0.999994

> <r_epik_Ionization_Penalty>
1.27347

> <r_epik_Ionization_Penalty_Charging>
1.27345

> <r_epik_Ionization_Penalty_Neutral>
1.96458e-05

> <r_epik_State_Penalty>
1.34393

> <r_epik_Charging_Adjusted_Penalty>
2.61738

> <i_epik_Tot_Q>
2

> <i_epik_Tot_abs_Q>
2

> <r_epik_Metal_State_Penalty>
1.41094

> <b_epik_Metal_Only>
0

> <s_lp_Force_Field>
OPLS_2005

> <r_lp_Energy>
89.9373

> <b_lp_Chiralities_Consistent>
1

> <s_lp_Variant>
AV-unprocessed.smi:1867-13

> <Gold.Version>
5.8.1

> <Gold.Id.Protein>
6NUR|6NUR_protein|mol2

> <Gold.PLP.Fitness>
44.6556

> <Gold.PLP.PLP>
-39.1934

> <Gold.PLP.part.hbond>
-2.0000

> <Gold.PLP.part.metal>
0.0000

> <Gold.PLP.part.buried>
-5.3089

> <Gold.PLP.part.nonpolar>
-32.3020

> <Gold.PLP.part.repulsive>
0.2343

> <Gold.PLP.ligand.clash>
0.0000

> <Gold.PLP.ligand.torsion>
0.2455

> <Gold.PLP.Chemscore.Hbond>
1.9760

> <Gold.PLP.Chemscore.CHOScore>
0.0000

> <Gold.PLP.Chemscore.Metal>
0.0000

> <Gold.Chemscore.Hbonds>
donor molecule, donor type, donor heavy atom, donor atom, acceptor molecule, acceptor atom, score
      L1  H     3    25       P1  7948  0.96
      L1  H    15    37       P1  7948  1.00

> <Gold.PLP.Chemscore.Internal.Correction>
0.0253

> <Gold.Rescore>
     Score         DG    S(hbond)    S(metal)    S(lipo)     H(rot)  DE(clash)    DE(int)     intcor
     18.92     -21.40       1.93        0.00     106.98       1.20       0.06       2.42       ----

> <Gold.Chemscore.Fitness>
18.9220

> <Gold.Chemscore.DG>
-21.3970

> <Gold.Chemscore.ZeroCoef>
-5.4800

> <Gold.Chemscore.Hbond>
1.9339

> <Gold.Chemscore.Metal>
0.0000

> <Gold.Chemscore.Lipo>
106.9835

> <Gold.Chemscore.Internal_Hbond>
0.0000

> <Gold.Chemscore.DEClash>
0.0599

> <Gold.Chemscore.DEInternal>
2.4151

> <Gold.Chemscore.Rot>
1.1950

> <Gold.Chemscore.Internal.Correction>
   9.000000E+99

> <Gold.Chemscore.Hbonds>
donor molecule, donor type, donor heavy atom, donor atom, acceptor molecule, acceptor atom, score
      L1  H     3    25       P1  7948  0.90
      L1  H    15    37       P1  7948  1.00

> <Gold.Chemscore.Hbond.Weighted>
-6.4592

> <Gold.Chemscore.Metal.Weighted>
-0.0000

> <Gold.Chemscore.Lipo.Weighted>
-12.5171

> <Gold.Chemscore.Internal_Hbond.Weighted>
0.0000

> <Gold.Chemscore.DEClash.Weighted>
0.0599

> <Gold.Chemscore.DEInternal.Weighted>
2.4151

> <Gold.Chemscore.Rot.Weighted>
3.0593

> <Gold.Chemscore.Internal.Correction.Weighted>
   9.000000E+99

> <Gold.Protein.RotatedTorsions>
[ 6907 6896 6895 6894 ] final  -55.14 input  -60.11 | X-H torsion
[ 7974 7965 7964 7962 ] final  154.37 input  175.53 | X-H torsion
[ 8008 7997 7996 7995 ] final  162.45 input   59.86 | X-H torsion
[ 10167 10162 10161 10158 ] final  -27.39 input  -65.29 | X-H torsion
[ 10718 10713 10712 10709 ] final -125.02 input   66.30 | X-H torsion
[ 10763 10752 10751 10750 ] final -122.49 input  -60.55 | X-H torsion
[ 11005 11000 10999 10996 ] final  129.86 input  -57.11 | X-H torsion

> <Gold.Protein.ActiveResidues>
 VAL166  LYS551  ARG553  GLY616  TRP617  ASP618  TYR619  PRO620  LYS621  CYS622 
 ASP623  PHE694  ASN695  SER759  ASP760  ASP761  ALA762  ILE779  LEU786  VAL792 
 PHE793  MET794  SER795  GLU796  ALA797  LYS798  CYS799  TRP800  GLU811  SER814 

> <Gold.Protein.RotatedAtoms>
  150.8277  134.7515  159.6826 H   0  0  0  0  0  0  0  0  0  0  0  0  # atno 6907 bound_to 6896
  152.4385  134.5634  159.9910 H   0  0  0  0  0  0  0  0  0  0  0  0  # atno 6908 bound_to 6896
  151.5803  133.3341  159.3043 H   0  0  0  0  0  0  0  0  0  0  0  0  # atno 6909 bound_to 6896
  144.8093  139.6924  143.6148 H   0  0  0  0  0  0  0  0  0  0  0  0  # atno 7974 bound_to 7965
  156.2030  140.1750  156.7859 H   0  0  0  0  0  0  0  0  0  0  0  0  # atno 8008 bound_to 7997
  154.5617  140.0698  156.8860 H   0  0  0  0  0  0  0  0  0  0  0  0  # atno 8009 bound_to 7997
  155.2836  140.3350  155.4259 H   0  0  0  0  0  0  0  0  0  0  0  0  # atno 8010 bound_to 7997
  140.7277  143.4097  151.1125 H   0  0  0  0  0  0  0  0  0  0  0  0  # atno 10167 bound_to 10162
  156.1638  130.6620  151.0087 H   0  0  0  0  0  0  0  0  0  0  0  0  # atno 10718 bound_to 10713
  154.8690  135.4131  154.2791 H   0  0  0  0  0  0  0  0  0  0  0  0  # atno 10763 bound_to 10752
  153.3687  135.7006  153.6660 H   0  0  0  0  0  0  0  0  0  0  0  0  # atno 10764 bound_to 10752
  153.5531  135.3625  155.2740 H   0  0  0  0  0  0  0  0  0  0  0  0  # atno 10765 bound_to 10752
  139.9639  134.9595  156.9209 H   0  0  0  0  0  0  0  0  0  0  0  0  # atno 11005 bound_to 11000
  146.2389  139.5962  142.9504 LP  0  0  0  0  0  0  0  0  0  0  0  0  # atno 17320 bound_to 7965
  145.5362  141.0424  143.2356 LP  0  0  0  0  0  0  0  0  0  0  0  0  # atno 17321 bound_to 7965
  139.7729  143.8467  152.3124 LP  0  0  0  0  0  0  0  0  0  0  0  0  # atno 17342 bound_to 10162
  139.8392  144.7218  150.9352 LP  0  0  0  0  0  0  0  0  0  0  0  0  # atno 17343 bound_to 10162
  157.6753  131.0852  150.7511 LP  0  0  0  0  0  0  0  0  0  0  0  0  # atno 17370 bound_to 10713
  156.7572  130.4787  149.5444 LP  0  0  0  0  0  0  0  0  0  0  0  0  # atno 17371 bound_to 10713
  140.5439  134.0693  155.7349 LP  0  0  0  0  0  0  0  0  0  0  0  0  # atno 17394 bound_to 11000
  141.1318  133.9289  157.2520 LP  0  0  0  0  0  0  0  0  0  0  0  0  # atno 17395 bound_to 11000

$$$$
