AV-unprocessed.smi:256|AV-procd|sdf|1960|dock6
  -GOLD-   2262021103D 1   1.00000     0.00000
 Structure written by MMmdl.
 62 65  0  0  0  0  0  0  0  0  2 V2000
  148.9029  132.1924  154.1587 C   0  0  0  0  0  0  0  0  0  0  0  0
  149.6413  133.5348  154.0518 C   0  0  0  0  0  0  0  0  0  0  0  0
  148.9571  134.6960  154.8219 C   0  0  1  0  0  0  0  0  0  0  0  0
  149.9821  135.8446  155.0123 C   0  0  0  0  0  0  0  0  0  0  0  0
  149.3709  137.0620  155.5319 N   0  0  0  0  0  0  0  0  0  0  0  0
  150.1754  138.0203  156.0584 C   0  0  0  0  0  0  0  0  0  0  0  0
  151.2285  137.6663  156.8426 N   0  0  0  0  0  0  0  0  0  0  0  0
  152.0252  138.6030  157.3660 C   0  0  0  0  0  0  0  0  0  0  0  0
  151.9482  139.9289  157.2399 N   0  0  0  0  0  0  0  0  0  0  0  0
  150.8889  140.2924  156.4623 C   0  0  0  0  0  0  0  0  0  0  0  0
  149.9633  139.4105  155.8357 C   0  0  0  0  0  0  0  0  0  0  0  0
  149.0152  140.1432  155.1316 N   0  0  0  0  0  0  0  0  0  0  0  0
  149.3658  141.3856  155.3227 C   0  0  0  0  0  0  0  0  0  0  0  0
  150.4728  141.5679  156.1206 N   0  0  0  0  0  0  0  0  0  0  0  0
  151.0699  142.8393  156.5032 C   0  0  0  0  0  0  0  0  0  0  0  0
  150.6710  143.3234  157.9245 C   0  0  0  0  0  0  0  0  0  0  0  0
  149.2566  143.3582  157.9826 O   0  0  0  0  0  0  0  0  0  0  0  0
  151.1612  142.4025  159.0630 C   0  0  0  0  0  0  0  0  0  0  0  0
  152.6770  142.5449  159.2855 C   0  0  0  0  0  0  0  0  0  0  0  0
  153.0005  143.9037  159.5603 O   0  0  0  0  0  0  0  0  0  0  0  0
  152.6874  144.7806  158.4833 C   0  0  0  0  0  0  0  0  0  0  0  0
  151.1737  144.7540  158.2036 C   0  0  0  0  0  0  0  0  0  0  0  0
  148.2544  137.5419  154.7345 C   0  0  0  0  0  0  0  0  0  0  0  0
  147.1825  136.4540  154.6556 C   0  0  0  0  0  0  0  0  0  0  0  0
  147.7156  135.1687  154.1263 N   0  3  2  0  0  0  0  0  0  0  0  0
  146.6298  134.1510  154.0443 C   0  0  0  0  0  0  0  0  0  0  0  0
  145.9731  134.1549  152.6589 C   0  0  0  0  0  0  0  0  0  0  0  0
  145.9370  135.4848  152.1693 O   0  0  0  0  0  0  0  0  0  0  0  0
  145.4804  135.5579  150.8303 C   0  0  0  0  0  0  0  0  0  0  0  0
  149.3789  131.4412  153.5280 H   0  0  0  0  0  0  0  0  0  0  0  0
  147.8658  132.2860  153.8351 H   0  0  0  0  0  0  0  0  0  0  0  0
  148.9059  131.8056  155.1776 H   0  0  0  0  0  0  0  0  0  0  0  0
  150.6648  133.4120  154.4083 H   0  0  0  0  0  0  0  0  0  0  0  0
  149.7315  133.7565  152.9907 H   0  0  0  0  0  0  0  0  0  0  0  0
  148.6545  134.3439  155.8097 H   0  0  0  0  0  0  0  0  0  0  0  0
  150.7695  135.5210  155.6939 H   0  0  0  0  0  0  0  0  0  0  0  0
  150.4598  136.0794  154.0599 H   0  0  0  0  0  0  0  0  0  0  0  0
  152.8403  138.2382  157.9738 H   0  0  0  0  0  0  0  0  0  0  0  0
  148.8166  142.2104  154.8921 H   0  0  0  0  0  0  0  0  0  0  0  0
  152.1518  142.7412  156.4180 H   0  0  0  0  0  0  0  0  0  0  0  0
  150.7806  143.5830  155.7593 H   0  0  0  0  0  0  0  0  0  0  0  0
  148.9290  143.6575  157.1481 H   0  0  0  0  0  0  0  0  0  0  0  0
  150.6569  142.6723  159.9921 H   0  0  0  0  0  0  0  0  0  0  0  0
  150.9003  141.3609  158.8754 H   0  0  0  0  0  0  0  0  0  0  0  0
  152.9870  141.9336  160.1331 H   0  0  0  0  0  0  0  0  0  0  0  0
  153.2421  142.1940  158.4218 H   0  0  0  0  0  0  0  0  0  0  0  0
  152.9959  145.7899  158.7560 H   0  0  0  0  0  0  0  0  0  0  0  0
  153.2621  144.5074  157.5978 H   0  0  0  0  0  0  0  0  0  0  0  0
  150.9316  145.4166  157.3717 H   0  0  0  0  0  0  0  0  0  0  0  0
  150.6600  145.1601  159.0766 H   0  0  0  0  0  0  0  0  0  0  0  0
  147.8203  138.4528  155.1448 H   0  0  0  0  0  0  0  0  0  0  0  0
  148.6127  137.7900  153.7343 H   0  0  0  0  0  0  0  0  0  0  0  0
  146.7701  136.2918  155.6530 H   0  0  0  0  0  0  0  0  0  0  0  0
  146.3618  136.7962  154.0241 H   0  0  0  0  0  0  0  0  0  0  0  0
  146.9756  133.1467  154.2818 H   0  0  0  0  0  0  0  0  0  0  0  0
  145.8684  134.3545  154.7988 H   0  0  0  0  0  0  0  0  0  0  0  0
  146.5560  133.5320  151.9787 H   0  0  0  0  0  0  0  0  0  0  0  0
  144.9676  133.7338  152.7070 H   0  0  0  0  0  0  0  0  0  0  0  0
  145.4633  136.5981  150.5056 H   0  0  0  0  0  0  0  0  0  0  0  0
  144.4698  135.1588  150.7353 H   0  0  0  0  0  0  0  0  0  0  0  0
  146.1391  135.0065  150.1582 H   0  0  0  0  0  0  0  0  0  0  0  0
  148.0023  135.3538  153.1755 H   0  0  0  0  0  0  0  0  0  0  0  0
  1  2  1  0  0  0  0
  1 30  1  0  0  0  0
  1 31  1  0  0  0  0
  1 32  1  0  0  0  0
  2  3  1  0  0  0  0
  2 33  1  0  0  0  0
  2 34  1  0  0  0  0
  3 25  1  0  0  0  0
  3  4  1  0  0  0  0
  3 35  1  0  0  0  0
  4  5  1  0  0  0  0
  4 36  1  0  0  0  0
  4 37  1  0  0  0  0
  5  6  1  0  0  0  0
  5 23  1  0  0  0  0
  6 11  1  0  0  0  0
  6  7  2  0  0  0  0
  7  8  1  0  0  0  0
  8  9  2  0  0  0  0
  8 38  1  0  0  0  0
  9 10  1  0  0  0  0
 10 14  1  0  0  0  0
 10 11  2  0  0  0  0
 11 12  1  0  0  0  0
 12 13  2  0  0  0  0
 13 14  1  0  0  0  0
 13 39  1  0  0  0  0
 14 15  1  0  0  0  0
 15 16  1  0  0  0  0
 15 40  1  0  0  0  0
 15 41  1  0  0  0  0
 16 22  1  0  0  0  0
 16 17  1  0  0  0  0
 16 18  1  0  0  0  0
 17 42  1  0  0  0  0
 18 19  1  0  0  0  0
 18 43  1  0  0  0  0
 18 44  1  0  0  0  0
 19 20  1  0  0  0  0
 19 45  1  0  0  0  0
 19 46  1  0  0  0  0
 20 21  1  0  0  0  0
 21 22  1  0  0  0  0
 21 47  1  0  0  0  0
 21 48  1  0  0  0  0
 22 49  1  0  0  0  0
 22 50  1  0  0  0  0
 23 24  1  0  0  0  0
 23 51  1  0  0  0  0
 23 52  1  0  0  0  0
 24 25  1  0  0  0  0
 24 53  1  0  0  0  0
 24 54  1  0  0  0  0
 25 26  1  0  0  0  0
 25 62  1  0  0  0  0
 26 27  1  0  0  0  0
 26 55  1  0  0  0  0
 26 56  1  0  0  0  0
 27 28  1  0  0  0  0
 27 57  1  0  0  0  0
 27 58  1  0  0  0  0
 28 29  1  0  0  0  0
 29 59  1  0  0  0  0
 29 60  1  0  0  0  0
 29 61  1  0  0  0  0
M  CHG  1  25   1
M  END
> <s_m_source_file>
AV-unprocessed.smi

> <i_m_source_file_index>
256

> <i_lp_mmshare_version>
43012

> <i_f3d_flags>
0

> <s_epik_input>
W0NIM11PW0NIMl1bQ0gyXU4xW0NIMl1bQ0gyXU4oW0NIMl1bQ0BIXTFbQ0gyXVtDSDNdKWMobltjSF1uMiljKGMyMyluW2NIXW4zW0NIMl1DNChbT0hdKVtDSDJdW0NIMl1PW0NIMl1bQ0gyXTQ=

> <s_epik_cmdline>
J2VwaWtfcHl0aG9uJywgJy1waCcsICc3LjAnLCAnLXRuJywgJzgnLCAnLW1hJywgJzIwMCcsICctbWV0YWxfYmluZGluZycsICctaW1hZScsICc8aW5maWxlLm1hZT4nLCAnLW9tYWUnLCAnPG91dGZpbGUubWFlPic=

> <r_lp_tautomer_probability>
1

> <r_epik_Ionization_Penalty>
0.233023

> <r_epik_Ionization_Penalty_Charging>
0.23295

> <r_epik_Ionization_Penalty_Neutral>
7.2493e-05

> <r_epik_State_Penalty>
0.223667

> <r_epik_Charging_Adjusted_Penalty>
0.456618

> <i_epik_Tot_Q>
1

> <i_epik_Tot_abs_Q>
1

> <r_epik_Metal_State_Penalty>
0.226879

> <b_epik_Metal_Only>
0

> <s_lp_Force_Field>
OPLS_2005

> <r_lp_Energy>
45.9613

> <b_lp_Chiralities_Consistent>
1

> <s_lp_Variant>
AV-unprocessed.smi:256-4

> <Gold.Version>
5.8.1

> <Gold.Id.Protein>
6NUR|6NUR_protein|mol2

> <Gold.PLP.Fitness>
51.7925

> <Gold.PLP.PLP>
-42.5569

> <Gold.PLP.part.hbond>
-2.8522

> <Gold.PLP.part.metal>
0.0000

> <Gold.PLP.part.buried>
-2.6571

> <Gold.PLP.part.nonpolar>
-36.8561

> <Gold.PLP.part.repulsive>
0.3110

> <Gold.PLP.ligand.clash>
0.3914

> <Gold.PLP.ligand.torsion>
1.3720

> <Gold.PLP.Chemscore.Hbond>
3.0000

> <Gold.PLP.Chemscore.CHOScore>
0.9020

> <Gold.PLP.Chemscore.Metal>
0.0000

> <Gold.Chemscore.Hbonds>
donor molecule, donor type, donor heavy atom, donor atom, acceptor molecule, acceptor atom, score
      L1  H    17    42       P1  8028  1.00
      L1  H    25    62       P1  7948  2.00
      L1  C    13    39       P1  8028  0.76

> <Gold.PLP.Chemscore.Internal.Correction>
0.6650

> <Gold.Rescore>
     Score         DG    S(hbond)    S(metal)    S(lipo)     H(rot)  DE(clash)    DE(int)     intcor
     11.58     -16.38       1.71        0.00     108.41       2.92       0.49       4.31       ----

> <Gold.Chemscore.Fitness>
11.5827

> <Gold.Chemscore.DG>
-16.3844

> <Gold.Chemscore.ZeroCoef>
-5.4800

> <Gold.Chemscore.Hbond>
1.7089

> <Gold.Chemscore.Metal>
0.0000

> <Gold.Chemscore.Lipo>
108.4110

> <Gold.Chemscore.Internal_Hbond>
0.0000

> <Gold.Chemscore.DEClash>
0.4884

> <Gold.Chemscore.DEInternal>
4.3133

> <Gold.Chemscore.Rot>
2.9247

> <Gold.Chemscore.Internal.Correction>
   9.000000E+99

> <Gold.Chemscore.Hbonds>
donor molecule, donor type, donor heavy atom, donor atom, acceptor molecule, acceptor atom, score
      L1  H    17    42       P1  8028  0.29
      L1  H    25    62       P1  7948  0.98

> <Gold.Chemscore.Hbond.Weighted>
-5.7076

> <Gold.Chemscore.Metal.Weighted>
-0.0000

> <Gold.Chemscore.Lipo.Weighted>
-12.6841

> <Gold.Chemscore.Internal_Hbond.Weighted>
0.0000

> <Gold.Chemscore.DEClash.Weighted>
0.4884

> <Gold.Chemscore.DEInternal.Weighted>
4.3133

> <Gold.Chemscore.Rot.Weighted>
7.4873

> <Gold.Chemscore.Internal.Correction.Weighted>
   9.000000E+99

> <Gold.Protein.RotatedTorsions>
[ 6907 6896 6895 6894 ] final  169.44 input  -60.11 | X-H torsion
[ 7974 7965 7964 7962 ] final   17.99 input  175.53 | X-H torsion
[ 8008 7997 7996 7995 ] final -170.20 input   59.86 | X-H torsion
[ 10167 10162 10161 10158 ] final -100.22 input  -65.29 | X-H torsion
[ 10718 10713 10712 10709 ] final -147.61 input   66.30 | X-H torsion
[ 10763 10752 10751 10750 ] final  -46.64 input  -60.55 | X-H torsion
[ 11005 11000 10999 10996 ] final -101.90 input  -57.11 | X-H torsion

> <Gold.Protein.ActiveResidues>
 VAL166  LYS551  ARG553  GLY616  TRP617  ASP618  TYR619  PRO620  LYS621  CYS622 
 ASP623  PHE694  ASN695  SER759  ASP760  ASP761  ALA762  ILE779  LEU786  VAL792 
 PHE793  MET794  SER795  GLU796  ALA797  LYS798  CYS799  TRP800  GLU811  SER814 

> <Gold.Protein.RotatedAtoms>
  151.8318  133.3410  159.3615 H   0  0  0  0  0  0  0  0  0  0  0  0  # atno 6907 bound_to 6896
  150.7262  134.5475  159.5787 H   0  0  0  0  0  0  0  0  0  0  0  0  # atno 6908 bound_to 6896
  152.2930  134.7700  160.0425 H   0  0  0  0  0  0  0  0  0  0  0  0  # atno 6909 bound_to 6896
  146.2200  139.8522  142.8620 H   0  0  0  0  0  0  0  0  0  0  0  0  # atno 7974 bound_to 7965
  155.9152  140.1064  157.1249 H   0  0  0  0  0  0  0  0  0  0  0  0  # atno 8008 bound_to 7997
  154.4045  140.1266  156.4673 H   0  0  0  0  0  0  0  0  0  0  0  0  # atno 8009 bound_to 7997
  155.7263  140.3469  155.5041 H   0  0  0  0  0  0  0  0  0  0  0  0  # atno 8010 bound_to 7997
  140.2542  143.3451  152.0686 H   0  0  0  0  0  0  0  0  0  0  0  0  # atno 10167 bound_to 10162
  156.4097  130.7975  151.2192 H   0  0  0  0  0  0  0  0  0  0  0  0  # atno 10718 bound_to 10713
  154.0483  135.6634  153.4797 H   0  0  0  0  0  0  0  0  0  0  0  0  # atno 10763 bound_to 10752
  153.0474  135.5106  154.7775 H   0  0  0  0  0  0  0  0  0  0  0  0  # atno 10764 bound_to 10752
  154.6774  135.3039  154.9626 H   0  0  0  0  0  0  0  0  0  0  0  0  # atno 10765 bound_to 10752
  141.1212  133.8515  157.1290 H   0  0  0  0  0  0  0  0  0  0  0  0  # atno 11005 bound_to 11000
  145.2789  141.0132  143.3729 LP  0  0  0  0  0  0  0  0  0  0  0  0  # atno 17320 bound_to 7965
  144.9165  139.4464  143.6562 LP  0  0  0  0  0  0  0  0  0  0  0  0  # atno 17321 bound_to 7965
  139.5036  144.6760  151.6128 LP  0  0  0  0  0  0  0  0  0  0  0  0  # atno 17342 bound_to 10162
  140.6016  143.9599  150.6390 LP  0  0  0  0  0  0  0  0  0  0  0  0  # atno 17343 bound_to 10162
  157.7506  131.0261  150.3949 LP  0  0  0  0  0  0  0  0  0  0  0  0  # atno 17370 bound_to 10713
  156.4245  130.3959  149.6802 LP  0  0  0  0  0  0  0  0  0  0  0  0  # atno 17371 bound_to 10713
  140.0171  134.9963  157.0515 LP  0  0  0  0  0  0  0  0  0  0  0  0  # atno 17394 bound_to 11000
  140.4502  134.1590  155.7181 LP  0  0  0  0  0  0  0  0  0  0  0  0  # atno 17395 bound_to 11000

$$$$
