AV-unprocessed.smi:809|AV-procd|sdf|3806|dock10
  -GOLD-   22720 1243D 1   1.00000     0.00000
 Structure written by MMmdl.
 40 41  0  0  0  0  0  0  0  0  2 V2000
  153.9594  141.4698  160.3565 C   0  0  0  0  0  0  0  0  0  0  0  0
  153.1712  142.4790  159.5824 C   0  0  0  0  0  0  0  0  0  0  0  0
  153.2430  143.8463  159.6933 C   0  0  0  0  0  0  0  0  0  0  0  0
  152.1478  144.6493  158.5998 S   0  0  0  0  0  0  0  0  0  0  0  0
  151.6257  143.0728  158.0274 C   0  0  0  0  0  0  0  0  0  0  0  0
  150.6396  142.9283  157.0164 N   0  0  0  0  0  0  0  0  0  0  0  0
  150.3657  141.8408  156.2752 C   0  0  0  0  0  0  0  0  0  0  0  0
  150.9356  140.7533  156.3712 O   0  0  0  0  0  0  0  0  0  0  0  0
  149.3843  142.0871  155.3952 N   0  0  0  0  0  0  0  0  0  0  0  0
  148.8456  141.1336  154.4267 C   0  0  0  0  0  0  0  0  0  0  0  0
  147.4215  141.5061  153.9344 C   0  0  1  0  0  0  0  0  0  0  0  0
  147.3509  142.9195  153.9467 O   0  0  0  0  0  0  0  0  0  0  0  0
  147.0660  141.0122  152.5124 C   0  0  0  0  0  0  0  0  0  0  0  0
  146.8541  139.4885  152.4681 C   0  0  0  0  0  0  0  0  0  0  0  0
  145.8021  139.0706  153.4270 N   0  3  1  0  0  0  0  0  0  0  0  0
  145.4894  137.6289  153.3254 C   0  0  0  0  0  0  0  0  0  0  0  0
  146.1162  139.4830  154.8174 C   0  0  0  0  0  0  0  0  0  0  0  0
  146.3357  141.0053  154.9119 C   0  0  0  0  0  0  0  0  0  0  0  0
  152.2445  142.0498  158.6282 N   0  0  0  0  0  0  0  0  0  0  0  0
  154.7397  141.9446  160.9516 H   0  0  0  0  0  0  0  0  0  0  0  0
  154.4428  140.7529  159.6924 H   0  0  0  0  0  0  0  0  0  0  0  0
  153.3188  140.9101  161.0382 H   0  0  0  0  0  0  0  0  0  0  0  0
  153.8728  144.4282  160.3498 H   0  0  0  0  0  0  0  0  0  0  0  0
  150.0850  143.7511  156.8309 H   0  0  0  0  0  0  0  0  0  0  0  0
  148.9760  143.0106  155.3879 H   0  0  0  0  0  0  0  0  0  0  0  0
  149.5295  141.0406  153.5832 H   0  0  0  0  0  0  0  0  0  0  0  0
  148.8335  140.1484  154.8951 H   0  0  0  0  0  0  0  0  0  0  0  0
  148.0402  143.2542  154.4996 H   0  0  0  0  0  0  0  0  0  0  0  0
  146.1446  141.4948  152.1822 H   0  0  0  0  0  0  0  0  0  0  0  0
  147.8242  141.3078  151.7872 H   0  0  0  0  0  0  0  0  0  0  0  0
  146.5630  139.1946  151.4590 H   0  0  0  0  0  0  0  0  0  0  0  0
  147.7817  138.9625  152.6931 H   0  0  0  0  0  0  0  0  0  0  0  0
  146.3515  137.0204  153.6024 H   0  0  0  0  0  0  0  0  0  0  0  0
  145.1994  137.3678  152.3070 H   0  0  0  0  0  0  0  0  0  0  0  0
  144.6604  137.3676  153.9839 H   0  0  0  0  0  0  0  0  0  0  0  0
  145.2925  139.1972  155.4728 H   0  0  0  0  0  0  0  0  0  0  0  0
  146.9947  138.9424  155.1711 H   0  0  0  0  0  0  0  0  0  0  0  0
  146.5901  141.2803  155.9365 H   0  0  0  0  0  0  0  0  0  0  0  0
  145.3886  141.5014  154.6931 H   0  0  0  0  0  0  0  0  0  0  0  0
  144.9614  139.5643  153.1631 H   0  0  0  0  0  0  0  0  0  0  0  0
  1  2  1  0  0  0  0
  1 20  1  0  0  0  0
  1 21  1  0  0  0  0
  1 22  1  0  0  0  0
  2 19  1  0  0  0  0
  2  3  2  0  0  0  0
  3  4  1  0  0  0  0
  3 23  1  0  0  0  0
  4  5  1  0  0  0  0
  5  6  1  0  0  0  0
  5 19  2  0  0  0  0
  6  7  1  0  0  0  0
  6 24  1  0  0  0  0
  7  8  2  0  0  0  0
  7  9  1  0  0  0  0
  9 10  1  0  0  0  0
  9 25  1  0  0  0  0
 10 11  1  0  0  0  0
 10 26  1  0  0  0  0
 10 27  1  0  0  0  0
 11 18  1  0  0  0  0
 11 12  1  0  0  0  0
 11 13  1  0  0  0  0
 12 28  1  0  0  0  0
 13 14  1  0  0  0  0
 13 29  1  0  0  0  0
 13 30  1  0  0  0  0
 14 15  1  0  0  0  0
 14 31  1  0  0  0  0
 14 32  1  0  0  0  0
 15 16  1  0  0  0  0
 15 17  1  0  0  0  0
 15 40  1  0  0  0  0
 16 33  1  0  0  0  0
 16 34  1  0  0  0  0
 16 35  1  0  0  0  0
 17 18  1  0  0  0  0
 17 36  1  0  0  0  0
 17 37  1  0  0  0  0
 18 38  1  0  0  0  0
 18 39  1  0  0  0  0
M  CHG  1  15   1
M  END
> <s_m_source_file>
AV-unprocessed.smi

> <i_m_source_file_index>
809

> <i_lp_mmshare_version>
43012

> <i_f3d_flags>
0

> <s_epik_input>
W0NIM11jMVtjSF1zYyhuMSlbTkhdQyg9TylbTkhdW0NIMl1DMihbT0hdKVtDSDJdW0NIMl1OKFtDSDNdKVtDSDJdW0NIMl0y

> <s_epik_cmdline>
J2VwaWtfcHl0aG9uJywgJy1waCcsICc3LjAnLCAnLXRuJywgJzgnLCAnLW1hJywgJzIwMCcsICctbWV0YWxfYmluZGluZycsICctaW1hZScsICc8aW5maWxlLm1hZT4nLCAnLW9tYWUnLCAnPG91dGZpbGUubWFlPic=

> <r_lp_tautomer_probability>
0.999

> <r_epik_Ionization_Penalty>
0.00116503

> <r_epik_Ionization_Penalty_Charging>
0.000767707

> <r_epik_Ionization_Penalty_Neutral>
0.00039732

> <r_epik_State_Penalty>
0.000177984

> <r_epik_Charging_Adjusted_Penalty>
0.00094569

> <i_epik_Tot_Q>
1

> <i_epik_Tot_abs_Q>
1

> <r_epik_Metal_State_Penalty>
0.00775393

> <b_epik_Metal_Only>
0

> <s_lp_Force_Field>
OPLS_2005

> <r_lp_Energy>
16.2661

> <b_lp_Chiralities_Consistent>
1

> <s_lp_Variant>
AV-unprocessed.smi:809-2

> <Gold.Version>
5.8.1

> <Gold.Id.Protein>
6NUR|6NUR_protein|mol2

> <Gold.PLP.Fitness>
50.0702

> <Gold.PLP.PLP>
-36.4411

> <Gold.PLP.part.hbond>
-5.2225

> <Gold.PLP.part.metal>
0.0000

> <Gold.PLP.part.buried>
-2.7849

> <Gold.PLP.part.nonpolar>
-28.5114

> <Gold.PLP.part.repulsive>
0.1956

> <Gold.PLP.ligand.clash>
0.0000

> <Gold.PLP.ligand.torsion>
0.6757

> <Gold.PLP.Chemscore.Hbond>
4.9913

> <Gold.PLP.Chemscore.CHOScore>
0.0000

> <Gold.PLP.Chemscore.Metal>
0.0000

> <Gold.Chemscore.Hbonds>
donor molecule, donor type, donor heavy atom, donor atom, acceptor molecule, acceptor atom, score
      L1  H     6    24       P1  8028  1.00
      L1  H     9    25       P1  8028  1.00
      L1  H    12    28       P1  8028  1.00
      L1  H    15    40       P1 10175  2.00

> <Gold.PLP.Chemscore.Internal.Correction>
0.0068

> <Gold.Rescore>
     Score         DG    S(hbond)    S(metal)    S(lipo)     H(rot)  DE(clash)    DE(int)     intcor
     20.00     -23.26       3.55        0.00      90.94       1.85       1.42       1.84       ----

> <Gold.Chemscore.Fitness>
20.0003

> <Gold.Chemscore.DG>
-23.2613

> <Gold.Chemscore.ZeroCoef>
-5.4800

> <Gold.Chemscore.Hbond>
3.5539

> <Gold.Chemscore.Metal>
0.0000

> <Gold.Chemscore.Lipo>
90.9389

> <Gold.Chemscore.Internal_Hbond>
0.0000

> <Gold.Chemscore.DEClash>
1.4186

> <Gold.Chemscore.DEInternal>
1.8424

> <Gold.Chemscore.Rot>
1.8471

> <Gold.Chemscore.Internal.Correction>
   9.000000E+99

> <Gold.Chemscore.Hbonds>
donor molecule, donor type, donor heavy atom, donor atom, acceptor molecule, acceptor atom, score
      L1  H     6    24       P1  8028  0.94
      L1  H     9    25       P1  8028  0.99
      L1  H    12    28       P1  8028  0.84
      L1  H    15    40       P1 10175  1.00

> <Gold.Chemscore.Hbond.Weighted>
-11.8700

> <Gold.Chemscore.Metal.Weighted>
-0.0000

> <Gold.Chemscore.Lipo.Weighted>
-10.6399

> <Gold.Chemscore.Internal_Hbond.Weighted>
0.0000

> <Gold.Chemscore.DEClash.Weighted>
1.4186

> <Gold.Chemscore.DEInternal.Weighted>
1.8424

> <Gold.Chemscore.Rot.Weighted>
4.7286

> <Gold.Chemscore.Internal.Correction.Weighted>
   9.000000E+99

> <Gold.Protein.RotatedTorsions>
[ 6907 6896 6895 6894 ] final  147.43 input  -60.11 | X-H torsion
[ 7974 7965 7964 7962 ] final   18.10 input  175.53 | X-H torsion
[ 8008 7997 7996 7995 ] final -130.82 input   59.86 | X-H torsion
[ 10167 10162 10161 10158 ] final    2.07 input  -65.29 | X-H torsion
[ 10718 10713 10712 10709 ] final    6.38 input   66.30 | X-H torsion
[ 10763 10752 10751 10750 ] final   59.04 input  -60.55 | X-H torsion
[ 11005 11000 10999 10996 ] final  149.28 input  -57.11 | X-H torsion

> <Gold.Protein.ActiveResidues>
 VAL166  LYS551  ARG553  GLY616  TRP617  ASP618  TYR619  PRO620  LYS621  CYS622 
 ASP623  PHE694  ASN695  SER759  ASP760  ASP761  ALA762  ILE779  LEU786  VAL792 
 PHE793  MET794  SER795  GLU796  ALA797  LYS798  CYS799  TRP800  GLU811  SER814 

> <Gold.Protein.RotatedAtoms>
  152.1549  133.4545  159.4831 H   0  0  0  0  0  0  0  0  0  0  0  0  # atno 6907 bound_to 6896
  150.6900  134.2143  159.4381 H   0  0  0  0  0  0  0  0  0  0  0  0  # atno 6908 bound_to 6896
  152.0042  134.9911  160.0617 H   0  0  0  0  0  0  0  0  0  0  0  0  # atno 6909 bound_to 6896
  146.2196  139.8507  142.8623 H   0  0  0  0  0  0  0  0  0  0  0  0  # atno 7974 bound_to 7965
  155.3021  140.0453  157.3030 H   0  0  0  0  0  0  0  0  0  0  0  0  # atno 8008 bound_to 7997
  154.5481  140.2309  155.8497 H   0  0  0  0  0  0  0  0  0  0  0  0  # atno 8009 bound_to 7997
  156.1942  140.3043  155.9400 H   0  0  0  0  0  0  0  0  0  0  0  0  # atno 8010 bound_to 7997
  140.6652  143.7197  150.7814 H   0  0  0  0  0  0  0  0  0  0  0  0  # atno 10167 bound_to 10162
  156.9213  130.5792  149.5648 H   0  0  0  0  0  0  0  0  0  0  0  0  # atno 10718 bound_to 10713
  152.9885  135.5585  154.5649 H   0  0  0  0  0  0  0  0  0  0  0  0  # atno 10763 bound_to 10752
  154.5061  135.2800  155.1383 H   0  0  0  0  0  0  0  0  0  0  0  0  # atno 10764 bound_to 10752
  154.2794  135.6347  153.5394 H   0  0  0  0  0  0  0  0  0  0  0  0  # atno 10765 bound_to 10752
  140.1031  134.8971  157.1825 H   0  0  0  0  0  0  0  0  0  0  0  0  # atno 11005 bound_to 11000
  145.2805  141.0137  143.3720 LP  0  0  0  0  0  0  0  0  0  0  0  0  # atno 17320 bound_to 7965
  144.9154  139.4477  143.6567 LP  0  0  0  0  0  0  0  0  0  0  0  0  # atno 17321 bound_to 7965
  140.0873  143.4911  152.2498 LP  0  0  0  0  0  0  0  0  0  0  0  0  # atno 17342 bound_to 10162
  139.5899  144.7546  151.3427 LP  0  0  0  0  0  0  0  0  0  0  0  0  # atno 17343 bound_to 10162
  156.0490  130.5562  150.8946 LP  0  0  0  0  0  0  0  0  0  0  0  0  # atno 17370 bound_to 10713
  157.5906  131.0944  150.9125 LP  0  0  0  0  0  0  0  0  0  0  0  0  # atno 17371 bound_to 10713
  140.3193  134.2935  155.7250 LP  0  0  0  0  0  0  0  0  0  0  0  0  # atno 17394 bound_to 11000
  141.2111  133.7699  156.9887 LP  0  0  0  0  0  0  0  0  0  0  0  0  # atno 17395 bound_to 11000

$$$$
