AV-unprocessed.smi:2451|AV-procd|sdf|9671|dock6
  -GOLD-   2272013313D 1   1.00000     0.00000
 Structure written by MMmdl.
 38 39  0  0  0  0  0  0  0  0  1 V2000
  151.0899  145.3476  159.5412 C   0  0  0  0  0  0  0  0  0  0  0  0
  151.4433  143.9530  160.0901 C   0  0  2  0  0  0  0  0  0  0  0  0
  152.3673  144.1002  161.3155 C   0  0  0  0  0  0  0  0  0  0  0  0
  152.7213  142.7405  161.9267 C   0  0  0  0  0  0  0  0  0  0  0  0
  153.3958  141.8453  160.8841 C   0  0  0  0  0  0  0  0  0  0  0  0
  152.5074  141.6663  159.6408 C   0  0  2  0  0  0  0  0  0  0  0  0
  153.2451  140.8687  158.6560 N   0  0  0  0  0  0  0  0  0  0  0  0
  152.9438  139.1733  158.5651 S   0  0  0  0  0  0  0  0  0  0  0  0
  153.8859  138.6065  157.5882 O   0  0  0  0  0  0  0  0  0  0  0  0
  152.9101  138.6522  159.9406 O   0  0  0  0  0  0  0  0  0  0  0  0
  151.2386  139.1117  157.8722 C   0  0  0  0  0  0  0  0  0  0  0  0
  151.2585  138.4079  156.5461 C   0  0  0  0  0  0  0  0  0  0  0  0
  150.8766  138.9136  155.2726 C   0  0  0  0  0  0  0  0  0  0  0  0
  151.0971  137.8605  154.4325 C   0  0  0  0  0  0  0  0  0  0  0  0
  151.5775  136.7953  155.1221 O   0  0  0  0  0  0  0  0  0  0  0  0
  151.6794  137.1551  156.4709 N   0  0  0  0  0  0  0  0  0  0  0  0
  152.0716  143.0187  159.0166 C   0  0  1  0  0  0  0  0  0  0  0  0
  151.1066  142.7842  157.8336 C   0  0  0  0  0  0  0  0  0  0  0  0
  151.9591  145.8290  159.0923 H   0  0  0  0  0  0  0  0  0  0  0  0
  150.7247  145.9995  160.3353 H   0  0  0  0  0  0  0  0  0  0  0  0
  150.3036  145.3022  158.7886 H   0  0  0  0  0  0  0  0  0  0  0  0
  150.5160  143.4934  160.4355 H   0  0  0  0  0  0  0  0  0  0  0  0
  153.2824  144.6207  161.0287 H   0  0  0  0  0  0  0  0  0  0  0  0
  151.8863  144.7197  162.0735 H   0  0  0  0  0  0  0  0  0  0  0  0
  153.3819  142.8773  162.7833 H   0  0  0  0  0  0  0  0  0  0  0  0
  151.8191  142.2565  162.3028 H   0  0  0  0  0  0  0  0  0  0  0  0
  154.3517  142.2857  160.5971 H   0  0  0  0  0  0  0  0  0  0  0  0
  153.6228  140.8742  161.3260 H   0  0  0  0  0  0  0  0  0  0  0  0
  151.6103  141.1219  159.9393 H   0  0  0  0  0  0  0  0  0  0  0  0
  154.2447  141.0670  158.6933 H   0  0  0  0  0  0  0  0  0  0  0  0
  150.6016  138.5829  158.5809 H   0  0  0  0  0  0  0  0  0  0  0  0
  150.8626  140.1313  157.7828 H   0  0  0  0  0  0  0  0  0  0  0  0
  150.4971  139.8919  155.0176 H   0  0  0  0  0  0  0  0  0  0  0  0
  150.9685  137.7194  153.3695 H   0  0  0  0  0  0  0  0  0  0  0  0
  152.9644  143.5112  158.6273 H   0  0  0  0  0  0  0  0  0  0  0  0
  150.1683  142.3425  158.1706 H   0  0  0  0  0  0  0  0  0  0  0  0
  151.5344  142.1131  157.0889 H   0  0  0  0  0  0  0  0  0  0  0  0
  150.8733  143.7098  157.3093 H   0  0  0  0  0  0  0  0  0  0  0  0
  1  2  1  0  0  0  0
  1 19  1  0  0  0  0
  1 20  1  0  0  0  0
  1 21  1  0  0  0  0
  2 17  1  0  0  0  0
  2  3  1  0  0  0  0
  2 22  1  0  0  0  0
  3  4  1  0  0  0  0
  3 23  1  0  0  0  0
  3 24  1  0  0  0  0
  4  5  1  0  0  0  0
  4 25  1  0  0  0  0
  4 26  1  0  0  0  0
  5  6  1  0  0  0  0
  5 27  1  0  0  0  0
  5 28  1  0  0  0  0
  6  7  1  0  0  0  0
  6 17  1  0  0  0  0
  6 29  1  0  0  0  0
  7  8  1  0  0  0  0
  7 30  1  0  0  0  0
  8  9  2  0  0  0  0
  8 10  2  0  0  0  0
  8 11  1  0  0  0  0
 11 12  1  0  0  0  0
 11 31  1  0  0  0  0
 11 32  1  0  0  0  0
 12 16  2  0  0  0  0
 12 13  1  0  0  0  0
 13 14  2  0  0  0  0
 13 33  1  0  0  0  0
 14 15  1  0  0  0  0
 14 34  1  0  0  0  0
 15 16  1  0  0  0  0
 17 18  1  0  0  0  0
 17 35  1  0  0  0  0
 18 36  1  0  0  0  0
 18 37  1  0  0  0  0
 18 38  1  0  0  0  0
M  END
> <s_m_source_file>
AV-unprocessed.smi

> <i_m_source_file_index>
2451

> <i_lp_mmshare_version>
43012

> <i_f3d_flags>
0

> <s_epik_input>
W0NIM11bQ0BASF0xW0NIMl1bQ0gyXVtDSDJdW0NASF0oW0NASF0xW0NIM10pW05IXVMoPU8pKD1PKVtDSDJdYzJbY0hdW2NIXW9uMg==

> <s_epik_cmdline>
J2VwaWtfcHl0aG9uJywgJy1waCcsICc3LjAnLCAnLXRuJywgJzgnLCAnLW1hJywgJzIwMCcsICctbWV0YWxfYmluZGluZycsICctaW1hZScsICc8aW5maWxlLm1hZT4nLCAnLW9tYWUnLCAnPG91dGZpbGUubWFlPic=

> <r_lp_tautomer_probability>
1

> <r_epik_Ionization_Penalty>
8.73668e-05

> <r_epik_Ionization_Penalty_Charging>
0

> <r_epik_Ionization_Penalty_Neutral>
8.73668e-05

> <r_epik_State_Penalty>
-0

> <r_epik_Charging_Adjusted_Penalty>
0

> <i_epik_Tot_Q>
0

> <i_epik_Tot_abs_Q>
0

> <r_epik_Metal_State_Penalty>
0.0716439

> <b_epik_Metal_Only>
0

> <s_lp_Force_Field>
OPLS_2005

> <r_lp_Energy>
6.58047

> <b_lp_Chiralities_Consistent>
1

> <s_lp_Variant>
AV-unprocessed.smi:2451-3

> <Gold.Version>
5.8.1

> <Gold.Id.Protein>
6NUR|6NUR_protein|mol2

> <Gold.PLP.Fitness>
46.1576

> <Gold.PLP.PLP>
-38.8254

> <Gold.PLP.part.hbond>
-2.9642

> <Gold.PLP.part.metal>
0.0000

> <Gold.PLP.part.buried>
-3.9988

> <Gold.PLP.part.nonpolar>
-32.5427

> <Gold.PLP.part.repulsive>
0.1252

> <Gold.PLP.ligand.clash>
0.0000

> <Gold.PLP.ligand.torsion>
0.7403

> <Gold.PLP.Chemscore.Hbond>
1.9120

> <Gold.PLP.Chemscore.CHOScore>
0.9775

> <Gold.PLP.Chemscore.Metal>
0.0000

> <Gold.Chemscore.Hbonds>
donor molecule, donor type, donor heavy atom, donor atom, acceptor molecule, acceptor atom, score
      P1  H  7997  8008       L1     9  0.94
      P1  H 10752 10763       L1    15  1.00
      L1  C    14    34       P1  7948  0.06
      L1  C    14    34       P1  7949  0.93

> <Gold.PLP.Chemscore.Internal.Correction>
0.1445

> <Gold.Rescore>
     Score         DG    S(hbond)    S(metal)    S(lipo)     H(rot)  DE(clash)    DE(int)     intcor
     17.50     -19.17       1.74        0.00     103.66       1.66       0.02       1.65       ----

> <Gold.Chemscore.Fitness>
17.5011

> <Gold.Chemscore.DG>
-19.1682

> <Gold.Chemscore.ZeroCoef>
-5.4800

> <Gold.Chemscore.Hbond>
1.7387

> <Gold.Chemscore.Metal>
0.0000

> <Gold.Chemscore.Lipo>
103.6553

> <Gold.Chemscore.Internal_Hbond>
0.0000

> <Gold.Chemscore.DEClash>
0.0208

> <Gold.Chemscore.DEInternal>
1.6463

> <Gold.Chemscore.Rot>
1.6588

> <Gold.Chemscore.Internal.Correction>
   9.000000E+99

> <Gold.Chemscore.Hbonds>
donor molecule, donor type, donor heavy atom, donor atom, acceptor molecule, acceptor atom, score
      P1  H  7997  8008       L1     9  0.27
      P1  H 10752 10763       L1    15  0.74

> <Gold.Chemscore.Hbond.Weighted>
-5.8072

> <Gold.Chemscore.Metal.Weighted>
-0.0000

> <Gold.Chemscore.Lipo.Weighted>
-12.1277

> <Gold.Chemscore.Internal_Hbond.Weighted>
0.0000

> <Gold.Chemscore.DEClash.Weighted>
0.0208

> <Gold.Chemscore.DEInternal.Weighted>
1.6463

> <Gold.Chemscore.Rot.Weighted>
4.2466

> <Gold.Chemscore.Internal.Correction.Weighted>
   9.000000E+99

> <Gold.Protein.RotatedTorsions>
[ 6907 6896 6895 6894 ] final   44.85 input  -60.11 | X-H torsion
[ 7974 7965 7964 7962 ] final  -24.37 input  175.53 | X-H torsion
[ 8008 7997 7996 7995 ] final  -75.01 input   59.86 | X-H torsion
[ 10167 10162 10161 10158 ] final  138.76 input  -65.29 | X-H torsion
[ 10718 10713 10712 10709 ] final   89.86 input   66.30 | X-H torsion
[ 10763 10752 10751 10750 ] final   65.27 input  -60.55 | X-H torsion
[ 11005 11000 10999 10996 ] final   96.93 input  -57.11 | X-H torsion

> <Gold.Protein.ActiveResidues>
 VAL166  LYS551  ARG553  GLY616  TRP617  ASP618  TYR619  PRO620  LYS621  CYS622 
 ASP623  PHE694  ASN695  SER759  ASP760  ASP761  ALA762  ILE779  LEU786  VAL792 
 PHE793  MET794  SER795  GLU796  ALA797  LYS798  CYS799  TRP800  GLU811  SER814 

> <Gold.Protein.RotatedAtoms>
  152.2375  134.8261  160.0464 H   0  0  0  0  0  0  0  0  0  0  0  0  # atno 6907 bound_to 6896
  151.8988  133.3528  159.3831 H   0  0  0  0  0  0  0  0  0  0  0  0  # atno 6908 bound_to 6896
  150.7043  134.4775  159.5499 H   0  0  0  0  0  0  0  0  0  0  0  0  # atno 6909 bound_to 6896
  146.1558  140.4743  142.8592 H   0  0  0  0  0  0  0  0  0  0  0  0  # atno 7974 bound_to 7965
  154.5380  140.0751  156.8461 H   0  0  0  0  0  0  0  0  0  0  0  0  # atno 8008 bound_to 7997
  155.3239  140.3397  155.4222 H   0  0  0  0  0  0  0  0  0  0  0  0  # atno 8009 bound_to 7997
  156.1847  140.1664  156.8195 H   0  0  0  0  0  0  0  0  0  0  0  0  # atno 8010 bound_to 7997
  139.5100  144.6335  151.5758 H   0  0  0  0  0  0  0  0  0  0  0  0  # atno 10167 bound_to 10162
  157.6957  131.0349  150.3490 H   0  0  0  0  0  0  0  0  0  0  0  0  # atno 10718 bound_to 10713
  153.0089  135.5363  154.6641 H   0  0  0  0  0  0  0  0  0  0  0  0  # atno 10763 bound_to 10752
  154.5842  135.2853  155.0704 H   0  0  0  0  0  0  0  0  0  0  0  0  # atno 10764 bound_to 10752
  154.1821  135.6514  153.5089 H   0  0  0  0  0  0  0  0  0  0  0  0  # atno 10765 bound_to 10752
  139.8778  134.8975  156.4232 H   0  0  0  0  0  0  0  0  0  0  0  0  # atno 11005 bound_to 11000
  144.7962  140.6127  143.6508 LP  0  0  0  0  0  0  0  0  0  0  0  0  # atno 17320 bound_to 7965
  145.4711  139.1503  143.3814 LP  0  0  0  0  0  0  0  0  0  0  0  0  # atno 17321 bound_to 7965
  140.6075  143.9497  150.6429 LP  0  0  0  0  0  0  0  0  0  0  0  0  # atno 17342 bound_to 10162
  140.2728  143.3443  152.1222 LP  0  0  0  0  0  0  0  0  0  0  0  0  # atno 17343 bound_to 10162
  156.3941  130.3903  149.7008 LP  0  0  0  0  0  0  0  0  0  0  0  0  # atno 17370 bound_to 10713
  156.4348  130.7832  151.2853 LP  0  0  0  0  0  0  0  0  0  0  0  0  # atno 17371 bound_to 10713
  140.9119  133.7705  155.9802 LP  0  0  0  0  0  0  0  0  0  0  0  0  # atno 17394 bound_to 11000
  140.8536  134.2924  157.5265 LP  0  0  0  0  0  0  0  0  0  0  0  0  # atno 17395 bound_to 11000

$$$$
