AV-unprocessed.smi:156|AV-procd|sdf|1289|dock10
  -GOLD-   2262018573D 1   1.00000     0.00000
 Structure written by MMmdl.
 51 53  0  0  0  0  0  0  0  0  1 V2000
  148.8556  139.6164  154.8041 C   0  0  0  0  0  0  0  0  0  0  0  0
  149.7423  139.0203  155.9164 C   0  0  2  0  0  0  0  0  0  0  0  0
  150.9048  139.9571  156.3564 C   0  0  1  0  0  0  0  0  0  0  0  0
  150.4276  141.3814  156.6991 C   0  0  0  0  0  0  0  0  0  0  0  0
  151.8715  139.2703  157.8008 S   0  0  0  0  0  0  0  0  0  0  0  0
  151.8640  140.6538  159.0184 C   0  0  0  0  0  0  0  0  0  0  0  0
  151.1341  138.1467  158.3977 O   0  0  0  0  0  0  0  0  0  0  0  0
  153.2647  139.0692  157.3738 O   0  0  0  0  0  0  0  0  0  0  0  0
  150.2274  137.6926  155.5177 N   0  0  0  0  0  0  0  0  0  0  0  0
  150.9183  137.4985  154.2458 C   0  0  0  0  0  0  0  0  0  0  0  0
  149.8357  136.5832  156.2003 C   0  0  0  0  0  0  0  0  0  0  0  0
  150.3413  135.3723  155.8443 N   0  0  0  0  0  0  0  0  0  0  0  0
  149.9758  134.2647  156.4951 C   0  0  0  0  0  0  0  0  0  0  0  0
  149.1228  134.1392  157.5120 N   0  0  0  0  0  0  0  0  0  0  0  0
  148.6004  135.3465  157.8711 C   0  0  0  0  0  0  0  0  0  0  0  0
  148.9069  136.6070  157.2821 C   0  0  0  0  0  0  0  0  0  0  0  0
  148.1831  137.6078  157.9200 N   0  0  0  0  0  0  0  0  0  0  0  0
  147.4944  136.9778  158.8310 C   0  0  0  0  0  0  0  0  0  0  0  0
  147.6678  135.6125  158.8598 N   0  0  0  0  0  0  0  0  0  0  0  0
  147.0246  134.6660  159.7616 C   0  0  0  0  0  0  0  0  0  0  0  0
  147.1030  135.0381  161.2630 C   0  0  0  0  0  0  0  0  0  0  0  0
  146.6683  133.8143  162.0815 C   0  0  0  0  0  0  0  0  0  0  0  0
  145.3209  133.4739  161.8233 O   0  0  0  0  0  0  0  0  0  0  0  0
  148.4119  135.7003  161.7263 C   0  0  0  0  0  0  0  0  0  0  0  0
  147.8092  137.0112  161.7352 O   0  0  0  0  0  0  0  0  0  0  0  0
  146.5076  136.3891  161.6971 C   0  0  0  0  0  0  0  0  0  0  0  0
  148.3150  140.4967  155.1504 H   0  0  0  0  0  0  0  0  0  0  0  0
  148.1041  138.8974  154.4766 H   0  0  0  0  0  0  0  0  0  0  0  0
  149.4391  139.9070  153.9306 H   0  0  0  0  0  0  0  0  0  0  0  0
  149.0981  138.9160  156.7883 H   0  0  0  0  0  0  0  0  0  0  0  0
  151.6192  140.0461  155.5376 H   0  0  0  0  0  0  0  0  0  0  0  0
  150.0008  141.8822  155.8309 H   0  0  0  0  0  0  0  0  0  0  0  0
  151.2533  142.0070  157.0376 H   0  0  0  0  0  0  0  0  0  0  0  0
  149.6726  141.3731  157.4849 H   0  0  0  0  0  0  0  0  0  0  0  0
  152.4859  140.3803  159.8702 H   0  0  0  0  0  0  0  0  0  0  0  0
  150.8498  140.8358  159.3719 H   0  0  0  0  0  0  0  0  0  0  0  0
  152.2637  141.5576  158.5605 H   0  0  0  0  0  0  0  0  0  0  0  0
  150.5304  136.6269  153.7175 H   0  0  0  0  0  0  0  0  0  0  0  0
  151.9863  137.3557  154.4094 H   0  0  0  0  0  0  0  0  0  0  0  0
  150.7982  138.3606  153.5909 H   0  0  0  0  0  0  0  0  0  0  0  0
  150.4300  133.3477  156.1500 H   0  0  0  0  0  0  0  0  0  0  0  0
  146.8323  137.4983  159.5071 H   0  0  0  0  0  0  0  0  0  0  0  0
  145.9873  134.5653  159.4409 H   0  0  0  0  0  0  0  0  0  0  0  0
  147.4799  133.6893  159.5926 H   0  0  0  0  0  0  0  0  0  0  0  0
  147.2999  132.9519  161.8656 H   0  0  0  0  0  0  0  0  0  0  0  0
  146.7627  134.0075  163.1507 H   0  0  0  0  0  0  0  0  0  0  0  0
  145.1058  133.7416  160.9428 H   0  0  0  0  0  0  0  0  0  0  0  0
  148.7316  135.4004  162.7258 H   0  0  0  0  0  0  0  0  0  0  0  0
  149.2404  135.6165  161.0245 H   0  0  0  0  0  0  0  0  0  0  0  0
  145.8361  136.8497  160.9748 H   0  0  0  0  0  0  0  0  0  0  0  0
  146.0445  136.3676  162.6852 H   0  0  0  0  0  0  0  0  0  0  0  0
  1  2  1  0  0  0  0
  1 27  1  0  0  0  0
  1 28  1  0  0  0  0
  1 29  1  0  0  0  0
  2  3  1  0  0  0  0
  2  9  1  0  0  0  0
  2 30  1  0  0  0  0
  3  4  1  0  0  0  0
  3  5  1  0  0  0  0
  3 31  1  0  0  0  0
  4 32  1  0  0  0  0
  4 33  1  0  0  0  0
  4 34  1  0  0  0  0
  5  6  1  0  0  0  0
  5  7  2  0  0  0  0
  5  8  2  0  0  0  0
  6 35  1  0  0  0  0
  6 36  1  0  0  0  0
  6 37  1  0  0  0  0
  9 10  1  0  0  0  0
  9 11  1  0  0  0  0
 10 38  1  0  0  0  0
 10 39  1  0  0  0  0
 10 40  1  0  0  0  0
 11 16  1  0  0  0  0
 11 12  2  0  0  0  0
 12 13  1  0  0  0  0
 13 14  2  0  0  0  0
 13 41  1  0  0  0  0
 14 15  1  0  0  0  0
 15 19  1  0  0  0  0
 15 16  2  0  0  0  0
 16 17  1  0  0  0  0
 17 18  2  0  0  0  0
 18 19  1  0  0  0  0
 18 42  1  0  0  0  0
 19 20  1  0  0  0  0
 20 21  1  0  0  0  0
 20 43  1  0  0  0  0
 20 44  1  0  0  0  0
 21 26  1  0  0  0  0
 21 22  1  0  0  0  0
 21 24  1  0  0  0  0
 22 23  1  0  0  0  0
 22 45  1  0  0  0  0
 22 46  1  0  0  0  0
 23 47  1  0  0  0  0
 24 25  1  0  0  0  0
 24 48  1  0  0  0  0
 24 49  1  0  0  0  0
 25 26  1  0  0  0  0
 26 50  1  0  0  0  0
 26 51  1  0  0  0  0
M  END
> <s_m_source_file>
AV-unprocessed.smi

> <i_m_source_file_index>
156

> <i_lp_mmshare_version>
43012

> <i_f3d_flags>
0

> <s_epik_input>
W0NIM11TKD1PKSg9TylbQ0BASF0oW0NIM10pW0NAQEhdKFtDSDNdKU4oW0NIM10pYyhuW2NIXW4xKWMoYzEyKW5bY0hdbjJbQ0gyXUMzKFtDSDJdW09IXSlbQ0gyXU9bQ0gyXTM=

> <s_epik_cmdline>
J2VwaWtfcHl0aG9uJywgJy1waCcsICc3LjAnLCAnLXRuJywgJzgnLCAnLW1hJywgJzIwMCcsICctbWV0YWxfYmluZGluZycsICctaW1hZScsICc8aW5maWxlLm1hZT4nLCAnLW9tYWUnLCAnPG91dGZpbGUubWFlPic=

> <r_lp_tautomer_probability>
1

> <r_epik_Ionization_Penalty>
0.00107697

> <r_epik_Ionization_Penalty_Charging>
0

> <r_epik_Ionization_Penalty_Neutral>
0.00107697

> <r_epik_State_Penalty>
0.000614712

> <r_epik_Charging_Adjusted_Penalty>
0.000614712

> <i_epik_Tot_Q>
0

> <i_epik_Tot_abs_Q>
0

> <r_epik_Metal_State_Penalty>
-0

> <b_epik_Metal_Only>
0

> <s_lp_Force_Field>
OPLS_2005

> <r_lp_Energy>
28.6083

> <b_lp_Chiralities_Consistent>
1

> <s_lp_Variant>
AV-unprocessed.smi:156-3

> <Gold.Version>
5.8.1

> <Gold.Id.Protein>
6NUR|6NUR_protein|mol2

> <Gold.PLP.Fitness>
41.0164

> <Gold.PLP.PLP>
-30.6570

> <Gold.PLP.part.hbond>
-4.0000

> <Gold.PLP.part.metal>
0.0000

> <Gold.PLP.part.buried>
-5.3090

> <Gold.PLP.part.nonpolar>
-22.2464

> <Gold.PLP.part.repulsive>
0.0359

> <Gold.PLP.ligand.clash>
0.0000

> <Gold.PLP.ligand.torsion>
0.6687

> <Gold.PLP.Chemscore.Hbond>
3.5792

> <Gold.PLP.Chemscore.CHOScore>
0.0000

> <Gold.PLP.Chemscore.Metal>
0.0000

> <Gold.Chemscore.Hbonds>
donor molecule, donor type, donor heavy atom, donor atom, acceptor molecule, acceptor atom, score
      P1  H  6896  6909       L1    14  0.07
      P1  H  6931  6943       L1    25  1.00
      P1  H  6934  6947       L1    25  0.29
      P1  H  7997  8009       L1     8  1.00

> <Gold.PLP.Chemscore.Internal.Correction>
0.9592

> <Gold.Rescore>
     Score         DG    S(hbond)    S(metal)    S(lipo)     H(rot)  DE(clash)    DE(int)     intcor
      8.24     -11.62       1.91        0.00      68.13       3.21       0.04       3.35       ----

> <Gold.Chemscore.Fitness>
8.2370

> <Gold.Chemscore.DG>
-11.6222

> <Gold.Chemscore.ZeroCoef>
-5.4800

> <Gold.Chemscore.Hbond>
1.9141

> <Gold.Chemscore.Metal>
0.0000

> <Gold.Chemscore.Lipo>
68.1267

> <Gold.Chemscore.Internal_Hbond>
0.0000

> <Gold.Chemscore.DEClash>
0.0354

> <Gold.Chemscore.DEInternal>
3.3499

> <Gold.Chemscore.Rot>
3.2115

> <Gold.Chemscore.Internal.Correction>
   9.000000E+99

> <Gold.Chemscore.Hbonds>
donor molecule, donor type, donor heavy atom, donor atom, acceptor molecule, acceptor atom, score
      P1  H  6931  6943       L1    25  0.78
      P1  H  6934  6947       L1    25  0.06
      P1  H  7997  8009       L1     8  0.95

> <Gold.Chemscore.Hbond.Weighted>
-6.3929

> <Gold.Chemscore.Metal.Weighted>
-0.0000

> <Gold.Chemscore.Lipo.Weighted>
-7.9708

> <Gold.Chemscore.Internal_Hbond.Weighted>
0.0000

> <Gold.Chemscore.DEClash.Weighted>
0.0354

> <Gold.Chemscore.DEInternal.Weighted>
3.3499

> <Gold.Chemscore.Rot.Weighted>
8.2215

> <Gold.Chemscore.Internal.Correction.Weighted>
   9.000000E+99

> <Gold.Protein.RotatedTorsions>
[ 6907 6896 6895 6894 ] final   14.03 input  -60.11 | X-H torsion
[ 7974 7965 7964 7962 ] final -130.58 input  175.53 | X-H torsion
[ 8008 7997 7996 7995 ] final -173.53 input   59.86 | X-H torsion
[ 10167 10162 10161 10158 ] final  -57.65 input  -65.29 | X-H torsion
[ 10718 10713 10712 10709 ] final   37.51 input   66.30 | X-H torsion
[ 10763 10752 10751 10750 ] final   98.04 input  -60.55 | X-H torsion
[ 11005 11000 10999 10996 ] final  132.62 input  -57.11 | X-H torsion

> <Gold.Protein.ActiveResidues>
 VAL166  LYS551  ARG553  GLY616  TRP617  ASP618  TYR619  PRO620  LYS621  CYS622 
 ASP623  PHE694  ASN695  SER759  ASP760  ASP761  ALA762  ILE779  LEU786  VAL792 
 PHE793  MET794  SER795  GLU796  ALA797  LYS798  CYS799  TRP800  GLU811  SER814 

> <Gold.Protein.RotatedAtoms>
  151.7958  135.0723  160.0393 H   0  0  0  0  0  0  0  0  0  0  0  0  # atno 6907 bound_to 6896
  152.3124  133.5762  159.5698 H   0  0  0  0  0  0  0  0  0  0  0  0  # atno 6908 bound_to 6896
  150.7327  134.0049  159.3692 H   0  0  0  0  0  0  0  0  0  0  0  0  # atno 6909 bound_to 6896
  144.9461  140.7293  143.4816 H   0  0  0  0  0  0  0  0  0  0  0  0  # atno 7974 bound_to 7965
  155.9587  140.1140  157.0915 H   0  0  0  0  0  0  0  0  0  0  0  0  # atno 8008 bound_to 7997
  154.4126  140.1186  156.5216 H   0  0  0  0  0  0  0  0  0  0  0  0  # atno 8009 bound_to 7997
  155.6749  140.3473  155.4835 H   0  0  0  0  0  0  0  0  0  0  0  0  # atno 8010 bound_to 7997
  140.6245  143.2433  151.5397 H   0  0  0  0  0  0  0  0  0  0  0  0  # atno 10167 bound_to 10162
  157.3477  130.7582  149.6956 H   0  0  0  0  0  0  0  0  0  0  0  0  # atno 10718 bound_to 10713
  153.2842  135.4162  155.1107 H   0  0  0  0  0  0  0  0  0  0  0  0  # atno 10763 bound_to 10752
  154.8499  135.3502  154.6070 H   0  0  0  0  0  0  0  0  0  0  0  0  # atno 10764 bound_to 10752
  153.6492  135.7053  153.5272 H   0  0  0  0  0  0  0  0  0  0  0  0  # atno 10765 bound_to 10752
  139.9801  134.9551  156.9608 H   0  0  0  0  0  0  0  0  0  0  0  0  # atno 11005 bound_to 11000
  145.2916  139.1882  143.4737 LP  0  0  0  0  0  0  0  0  0  0  0  0  # atno 17320 bound_to 7965
  146.3304  140.2893  142.8614 LP  0  0  0  0  0  0  0  0  0  0  0  0  # atno 17321 bound_to 7965
  139.5468  144.2500  152.1457 LP  0  0  0  0  0  0  0  0  0  0  0  0  # atno 17342 bound_to 10162
  140.1729  144.4919  150.6570 LP  0  0  0  0  0  0  0  0  0  0  0  0  # atno 17343 bound_to 10162
  155.9717  130.4149  150.4157 LP  0  0  0  0  0  0  0  0  0  0  0  0  # atno 17370 bound_to 10713
  157.2215  131.0483  151.2544 LP  0  0  0  0  0  0  0  0  0  0  0  0  # atno 17371 bound_to 10713
  140.5114  134.0999  155.7271 LP  0  0  0  0  0  0  0  0  0  0  0  0  # atno 17394 bound_to 11000
  141.1474  133.9030  157.2182 LP  0  0  0  0  0  0  0  0  0  0  0  0  # atno 17395 bound_to 11000

$$$$
