AV-unprocessed.smi:1836|AV-procd|sdf|7479|dock10
  -GOLD-   22720 9173D 1   1.00000     0.00000
 Structure written by MMmdl.
 32 33  0  0  0  0  0  0  0  0  2 V2000
  147.6303  144.9985  161.9029 C   0  0  0  0  0  0  0  0  0  0  0  0
  148.5736  144.2400  160.9592 C   0  0  2  0  0  0  0  0  0  0  0  0
  149.8626  145.0511  160.6914 C   0  0  0  0  0  0  0  0  0  0  0  0
  151.0210  144.1965  160.4337 N   0  0  0  0  0  0  0  0  0  0  0  0
  151.5609  143.3417  161.4788 C   0  0  0  0  0  0  0  0  0  0  0  0
  152.9225  142.8811  160.9425 C   0  0  0  0  0  0  0  0  0  0  0  0
  152.8821  143.1530  159.4350 C   0  0  0  0  0  0  0  0  0  0  0  0
  151.6980  144.0933  159.2836 C   0  0  0  0  0  0  0  0  0  0  0  0
  151.4346  144.6719  158.2303 O   0  0  0  0  0  0  0  0  0  0  0  0
  147.8647  143.9795  159.7060 N   0  0  0  0  0  0  0  0  0  0  0  0
  147.0042  142.9772  159.4716 C   0  0  0  0  0  0  0  0  0  0  0  0
  146.7077  142.1923  160.3754 O   0  0  0  0  0  0  0  0  0  0  0  0
  146.5571  142.9310  158.1965 N   0  5  0  0  0  0  0  0  0  0  0  0
  146.3468  141.7428  157.6065 C   0  0  0  0  0  0  0  0  0  0  0  0
  146.4720  140.5800  158.2656 N   0  0  0  0  0  0  0  0  0  0  0  0
  146.2099  139.4717  157.4713 N   0  0  0  0  0  0  0  0  0  0  0  0
  145.8846  139.8299  156.2295 C   0  0  0  0  0  0  0  0  0  0  0  0
  145.8653  141.5526  155.9176 S   0  0  0  0  0  0  0  0  0  0  0  0
  148.1085  145.1903  162.8636 H   0  0  0  0  0  0  0  0  0  0  0  0
  146.7238  144.4241  162.0967 H   0  0  0  0  0  0  0  0  0  0  0  0
  147.3330  145.9592  161.4810 H   0  0  0  0  0  0  0  0  0  0  0  0
  148.8262  143.2993  161.4512 H   0  0  0  0  0  0  0  0  0  0  0  0
  149.7137  145.7347  159.8540 H   0  0  0  0  0  0  0  0  0  0  0  0
  150.0907  145.6783  161.5545 H   0  0  0  0  0  0  0  0  0  0  0  0
  151.6582  143.8707  162.4277 H   0  0  0  0  0  0  0  0  0  0  0  0
  150.8916  142.4936  161.6279 H   0  0  0  0  0  0  0  0  0  0  0  0
  153.7186  143.4701  161.4006 H   0  0  0  0  0  0  0  0  0  0  0  0
  153.1153  141.8321  161.1690 H   0  0  0  0  0  0  0  0  0  0  0  0
  153.8041  143.6091  159.0732 H   0  0  0  0  0  0  0  0  0  0  0  0
  152.6941  142.2399  158.8697 H   0  0  0  0  0  0  0  0  0  0  0  0
  148.0698  144.5967  158.9339 H   0  0  0  0  0  0  0  0  0  0  0  0
  145.6517  139.0751  155.4932 H   0  0  0  0  0  0  0  0  0  0  0  0
  1  2  1  0  0  0  0
  1 19  1  0  0  0  0
  1 20  1  0  0  0  0
  1 21  1  0  0  0  0
  2  3  1  0  0  0  0
  2 10  1  0  0  0  0
  2 22  1  0  0  0  0
  3  4  1  0  0  0  0
  3 23  1  0  0  0  0
  3 24  1  0  0  0  0
  4  8  1  0  0  0  0
  4  5  1  0  0  0  0
  5  6  1  0  0  0  0
  5 25  1  0  0  0  0
  5 26  1  0  0  0  0
  6  7  1  0  0  0  0
  6 27  1  0  0  0  0
  6 28  1  0  0  0  0
  7  8  1  0  0  0  0
  7 29  1  0  0  0  0
  7 30  1  0  0  0  0
  8  9  2  0  0  0  0
 10 11  1  0  0  0  0
 10 31  1  0  0  0  0
 11 12  2  0  0  0  0
 11 13  1  0  0  0  0
 13 14  1  0  0  0  0
 14 18  1  0  0  0  0
 14 15  2  0  0  0  0
 15 16  1  0  0  0  0
 16 17  2  0  0  0  0
 17 18  1  0  0  0  0
 17 32  1  0  0  0  0
M  CHG  1  13  -1
M  END
> <s_m_source_file>
AV-unprocessed.smi

> <i_m_source_file_index>
1836

> <i_lp_mmshare_version>
43012

> <i_f3d_flags>
0

> <s_epik_input>
Tz1DMVtDSDJdW0NIMl1bQ0gyXU4xW0NIMl1bQ0BASF0oW0NIM10pW05IXUMoPU8pW05IXWMybm5bY0hdczI=

> <s_epik_cmdline>
J2VwaWtfcHl0aG9uJywgJy1waCcsICc3LjAnLCAnLXRuJywgJzgnLCAnLW1hJywgJzIwMCcsICctbWV0YWxfYmluZGluZycsICctaW1hZScsICc8aW5maWxlLm1hZT4nLCAnLW9tYWUnLCAnPG91dGZpbGUubWFlPic=

> <r_lp_tautomer_probability>
1

> <r_epik_Ionization_Penalty>
3.44722

> <r_epik_Ionization_Penalty_Charging>
3.40341

> <r_epik_Ionization_Penalty_Neutral>
0.0438099

> <r_epik_State_Penalty>
3.40151

> <r_epik_Charging_Adjusted_Penalty>
6.80491

> <i_epik_Tot_Q>
-1

> <i_epik_Tot_abs_Q>
1

> <r_epik_Metal_State_Penalty>
0.49534

> <b_epik_Metal_Only>
1

> <s_lp_Force_Field>
OPLS_2005

> <r_lp_Energy>
15.5322

> <b_lp_Chiralities_Consistent>
1

> <s_lp_Variant>
AV-unprocessed.smi:1836-3

> <Gold.Version>
5.8.1

> <Gold.Id.Protein>
6NUR|6NUR_protein|mol2

> <Gold.PLP.Fitness>
39.3560

> <Gold.PLP.PLP>
-33.3874

> <Gold.PLP.part.hbond>
-4.0000

> <Gold.PLP.part.metal>
0.0000

> <Gold.PLP.part.buried>
-4.6385

> <Gold.PLP.part.nonpolar>
-26.1359

> <Gold.PLP.part.repulsive>
0.8906

> <Gold.PLP.ligand.clash>
0.0000

> <Gold.PLP.ligand.torsion>
1.0027

> <Gold.PLP.Chemscore.Hbond>
2.6324

> <Gold.PLP.Chemscore.CHOScore>
0.0000

> <Gold.PLP.Chemscore.Metal>
0.0000

> <Gold.Chemscore.Hbonds>
donor molecule, donor type, donor heavy atom, donor atom, acceptor molecule, acceptor atom, score
      L1  H    10    31       P1  8029  0.71
      P1  H  6933  6944       L1    12  0.45
      P1  H  6934  6946       L1    12  0.63

> <Gold.PLP.Chemscore.Internal.Correction>
0.0766

> <Gold.Rescore>
     Score         DG    S(hbond)    S(metal)    S(lipo)     H(rot)  DE(clash)    DE(int)     intcor
     13.93     -16.59       2.56        0.00      59.60       1.73       0.07       2.59       ----

> <Gold.Chemscore.Fitness>
13.9254

> <Gold.Chemscore.DG>
-16.5879

> <Gold.Chemscore.ZeroCoef>
-5.4800

> <Gold.Chemscore.Hbond>
2.5643

> <Gold.Chemscore.Metal>
0.0000

> <Gold.Chemscore.Lipo>
59.5954

> <Gold.Chemscore.Internal_Hbond>
0.0000

> <Gold.Chemscore.DEClash>
0.0734

> <Gold.Chemscore.DEInternal>
2.5890

> <Gold.Chemscore.Rot>
1.7302

> <Gold.Chemscore.Internal.Correction>
   9.000000E+99

> <Gold.Chemscore.Hbonds>
donor molecule, donor type, donor heavy atom, donor atom, acceptor molecule, acceptor atom, score
      L1  H    10    31       P1  8029  0.70
      P1  H  6933  6944       L1    12  0.08
      P1  H  6934  6946       L1    12  0.61

> <Gold.Chemscore.Hbond.Weighted>
-8.5646

> <Gold.Chemscore.Metal.Weighted>
-0.0000

> <Gold.Chemscore.Lipo.Weighted>
-6.9727

> <Gold.Chemscore.Internal_Hbond.Weighted>
0.0000

> <Gold.Chemscore.DEClash.Weighted>
0.0734

> <Gold.Chemscore.DEInternal.Weighted>
2.5890

> <Gold.Chemscore.Rot.Weighted>
4.4294

> <Gold.Chemscore.Internal.Correction.Weighted>
   9.000000E+99

> <Gold.Protein.RotatedTorsions>
[ 6907 6896 6895 6894 ] final  173.39 input  -60.11 | X-H torsion
[ 7974 7965 7964 7962 ] final -170.90 input  175.53 | X-H torsion
[ 8008 7997 7996 7995 ] final -169.57 input   59.86 | X-H torsion
[ 10167 10162 10161 10158 ] final  128.31 input  -65.29 | X-H torsion
[ 10718 10713 10712 10709 ] final -168.02 input   66.30 | X-H torsion
[ 10763 10752 10751 10750 ] final   53.18 input  -60.55 | X-H torsion
[ 11005 11000 10999 10996 ] final  161.45 input  -57.11 | X-H torsion

> <Gold.Protein.ActiveResidues>
 VAL166  LYS551  ARG553  GLY616  TRP617  ASP618  TYR619  PRO620  LYS621  CYS622 
 ASP623  PHE694  ASN695  SER759  ASP760  ASP761  ALA762  ILE779  LEU786  VAL792 
 PHE793  MET794  SER795  GLU796  ALA797  LYS798  CYS799  TRP800  GLU811  SER814 

> <Gold.Protein.RotatedAtoms>
  151.7691  133.3339  159.3439 H   0  0  0  0  0  0  0  0  0  0  0  0  # atno 6907 bound_to 6896
  150.7468  134.6035  159.6058 H   0  0  0  0  0  0  0  0  0  0  0  0  # atno 6908 bound_to 6896
  152.3353  134.7207  160.0330 H   0  0  0  0  0  0  0  0  0  0  0  0  # atno 6909 bound_to 6896
  144.7164  140.2002  143.6339 H   0  0  0  0  0  0  0  0  0  0  0  0  # atno 7974 bound_to 7965
  155.9068  140.1050  157.1309 H   0  0  0  0  0  0  0  0  0  0  0  0  # atno 8008 bound_to 7997
  154.4033  140.1282  156.4570 H   0  0  0  0  0  0  0  0  0  0  0  0  # atno 8009 bound_to 7997
  155.7358  140.3467  155.5083 H   0  0  0  0  0  0  0  0  0  0  0  0  # atno 8010 bound_to 7997
  139.5534  144.6830  151.4256 H   0  0  0  0  0  0  0  0  0  0  0  0  # atno 10167 bound_to 10162
  156.6909  130.9159  151.3069 H   0  0  0  0  0  0  0  0  0  0  0  0  # atno 10718 bound_to 10713
  152.9793  135.5787  154.4699 H   0  0  0  0  0  0  0  0  0  0  0  0  # atno 10763 bound_to 10752
  154.4263  135.2772  155.1944 H   0  0  0  0  0  0  0  0  0  0  0  0  # atno 10764 bound_to 10752
  154.3671  135.6176  153.5774 H   0  0  0  0  0  0  0  0  0  0  0  0  # atno 10765 bound_to 10752
  140.2159  134.8232  157.3170 H   0  0  0  0  0  0  0  0  0  0  0  0  # atno 11005 bound_to 11000
  145.8687  139.2260  143.1674 LP  0  0  0  0  0  0  0  0  0  0  0  0  # atno 17320 bound_to 7965
  146.0105  140.8439  142.9973 LP  0  0  0  0  0  0  0  0  0  0  0  0  # atno 17321 bound_to 7965
  140.6801  143.8100  150.7110 LP  0  0  0  0  0  0  0  0  0  0  0  0  # atno 17342 bound_to 10162
  140.1551  143.4324  152.2105 LP  0  0  0  0  0  0  0  0  0  0  0  0  # atno 17343 bound_to 10162
  157.7009  130.9332  150.0783 LP  0  0  0  0  0  0  0  0  0  0  0  0  # atno 17370 bound_to 10713
  156.1798  130.3649  149.9050 LP  0  0  0  0  0  0  0  0  0  0  0  0  # atno 17371 bound_to 10713
  140.1901  134.4383  155.7721 LP  0  0  0  0  0  0  0  0  0  0  0  0  # atno 17394 bound_to 11000
  141.2225  133.7023  156.8012 LP  0  0  0  0  0  0  0  0  0  0  0  0  # atno 17395 bound_to 11000

$$$$
