AV-unprocessed.smi:1878|AV-procd|sdf|7630|dock2
  -GOLD-   22720 9353D 1   1.00000     0.00000
 Structure written by MMmdl.
 35 36  0  0  0  0  0  0  0  0  3 V2000
  153.0130  136.7023  160.2826 O   0  0  0  0  0  0  0  0  0  0  0  0
  154.0609  137.0431  160.8321 C   0  0  0  0  0  0  0  0  0  0  0  0
  154.8716  136.1009  161.3307 N   0  0  0  0  0  0  0  0  0  0  0  0
  154.6205  134.6651  161.2857 C   0  0  0  0  0  0  0  0  0  0  0  0
  154.8061  134.0260  162.6695 C   0  0  0  0  0  0  0  0  0  0  0  0
  156.0984  134.0449  162.9940 F   0  0  0  0  0  0  0  0  0  0  0  0
  154.1236  134.7066  163.5908 F   0  0  0  0  0  0  0  0  0  0  0  0
  154.3865  132.7606  162.6572 F   0  0  0  0  0  0  0  0  0  0  0  0
  154.5365  138.3012  161.0147 N   0  5  0  0  0  0  0  0  0  0  0  0
  153.9221  139.4593  160.6899 C   0  0  0  0  0  0  0  0  0  0  0  0
  154.2095  140.5863  161.4958 C   0  0  0  0  0  0  0  0  0  0  0  0
  153.6169  141.8386  161.2394 C   0  0  0  0  0  0  0  0  0  0  0  0
  152.7227  141.9679  160.1558 C   0  0  0  0  0  0  0  0  0  0  0  0
  152.0766  143.1633  159.8111 N   0  0  0  0  0  0  0  0  0  0  0  0
  152.4868  143.7432  158.5429 C   0  0  0  0  0  0  0  0  0  0  0  0
  151.9978  145.1934  158.5785 C   0  0  0  0  0  0  0  0  0  0  0  0
  151.8215  145.5134  160.0676 C   0  0  0  0  0  0  0  0  0  0  0  0
  152.2064  144.2233  160.7966 C   0  0  0  0  0  0  0  0  0  0  0  0
  152.4582  140.8840  159.3997 N   0  3  0  0  0  0  0  0  0  0  0  0
  153.0087  139.6705  159.6208 C   0  0  0  0  0  0  0  0  0  0  0  0
  155.7261  136.4024  161.7756 H   0  0  0  0  0  0  0  0  0  0  0  0
  153.6050  134.4878  160.9282 H   0  0  0  0  0  0  0  0  0  0  0  0
  155.2998  134.2016  160.5686 H   0  0  0  0  0  0  0  0  0  0  0  0
  154.8942  140.4929  162.3268 H   0  0  0  0  0  0  0  0  0  0  0  0
  153.8500  142.6816  161.8728 H   0  0  0  0  0  0  0  0  0  0  0  0
  153.5721  143.7176  158.4376 H   0  0  0  0  0  0  0  0  0  0  0  0
  152.0553  143.1960  157.7042 H   0  0  0  0  0  0  0  0  0  0  0  0
  152.7016  145.8670  158.0886 H   0  0  0  0  0  0  0  0  0  0  0  0
  151.0400  145.2828  158.0643 H   0  0  0  0  0  0  0  0  0  0  0  0
  152.4387  146.3535  160.3875 H   0  0  0  0  0  0  0  0  0  0  0  0
  150.7811  145.7692  160.2718 H   0  0  0  0  0  0  0  0  0  0  0  0
  151.5598  144.0407  161.6556 H   0  0  0  0  0  0  0  0  0  0  0  0
  153.2342  144.2877  161.1570 H   0  0  0  0  0  0  0  0  0  0  0  0
  152.6848  138.9178  158.9200 H   0  0  0  0  0  0  0  0  0  0  0  0
  151.8091  140.9835  158.6194 H   0  0  0  0  0  0  0  0  0  0  0  0
  1  2  2  0  0  0  0
  2  3  1  0  0  0  0
  2  9  1  0  0  0  0
  3  4  1  0  0  0  0
  3 21  1  0  0  0  0
  4  5  1  0  0  0  0
  4 22  1  0  0  0  0
  4 23  1  0  0  0  0
  5  6  1  0  0  0  0
  5  7  1  0  0  0  0
  5  8  1  0  0  0  0
  9 10  1  0  0  0  0
 10 20  1  0  0  0  0
 10 11  2  0  0  0  0
 11 12  1  0  0  0  0
 11 24  1  0  0  0  0
 12 13  2  0  0  0  0
 12 25  1  0  0  0  0
 13 14  1  0  0  0  0
 13 19  1  0  0  0  0
 14 18  1  0  0  0  0
 14 15  1  0  0  0  0
 15 16  1  0  0  0  0
 15 26  1  0  0  0  0
 15 27  1  0  0  0  0
 16 17  1  0  0  0  0
 16 28  1  0  0  0  0
 16 29  1  0  0  0  0
 17 18  1  0  0  0  0
 17 30  1  0  0  0  0
 17 31  1  0  0  0  0
 18 32  1  0  0  0  0
 18 33  1  0  0  0  0
 19 20  2  0  0  0  0
 19 35  1  0  0  0  0
 20 34  1  0  0  0  0
M  CHG  1   9  -1
M  CHG  1  19   1
M  END
> <s_m_source_file>
AV-unprocessed.smi

> <i_m_source_file_index>
1878

> <i_lp_mmshare_version>
43012

> <i_f3d_flags>
0

> <s_epik_input>
RkMoRikoRilbQ0gyXVtOSF1DKD1PKVtOSF1jMVtjSF1bY0hdYyhuW2NIXTEpTjJbQ0gyXVtDSDJdW0NIMl1bQ0gyXTI=

> <s_epik_cmdline>
J2VwaWtfcHl0aG9uJywgJy1waCcsICc3LjAnLCAnLXRuJywgJzgnLCAnLW1hJywgJzIwMCcsICctbWV0YWxfYmluZGluZycsICctaW1hZScsICc8aW5maWxlLm1hZT4nLCAnLW9tYWUnLCAnPG91dGZpbGUubWFlPic=

> <r_lp_tautomer_probability>
0.999994

> <r_epik_Ionization_Penalty>
6.00991

> <r_epik_Ionization_Penalty_Charging>
6.00991

> <r_epik_Ionization_Penalty_Neutral>
1.33916e-07

> <r_epik_State_Penalty>
7.27363

> <r_epik_Charging_Adjusted_Penalty>
13.2835

> <i_epik_Tot_Q>
0

> <i_epik_Tot_abs_Q>
2

> <r_epik_Metal_State_Penalty>
3.28277

> <b_epik_Metal_Only>
1

> <s_lp_Force_Field>
OPLS_2005

> <r_lp_Energy>
31.9355

> <b_lp_Chiralities_Consistent>
1

> <s_lp_Variant>
AV-unprocessed.smi:1878-5

> <Gold.Version>
5.8.1

> <Gold.Id.Protein>
6NUR|6NUR_protein|mol2

> <Gold.PLP.Fitness>
43.6054

> <Gold.PLP.PLP>
-41.4933

> <Gold.PLP.part.hbond>
-0.9601

> <Gold.PLP.part.metal>
0.0000

> <Gold.PLP.part.buried>
-6.1997

> <Gold.PLP.part.nonpolar>
-35.2491

> <Gold.PLP.part.repulsive>
0.1654

> <Gold.PLP.ligand.clash>
0.0000

> <Gold.PLP.ligand.torsion>
0.4728

> <Gold.PLP.Chemscore.Hbond>
0.9913

> <Gold.PLP.Chemscore.CHOScore>
0.0000

> <Gold.PLP.Chemscore.Metal>
0.0000

> <Gold.Chemscore.Hbonds>
donor molecule, donor type, donor heavy atom, donor atom, acceptor molecule, acceptor atom, score
      P1  H  6896  6908       L1     1  1.00

> <Gold.PLP.Chemscore.Internal.Correction>
0.0840

> <Gold.Rescore>
     Score         DG    S(hbond)    S(metal)    S(lipo)     H(rot)  DE(clash)    DE(int)     intcor
     15.40     -16.05       0.95        0.00      92.24       1.33       0.33       0.32       ----

> <Gold.Chemscore.Fitness>
15.3957

> <Gold.Chemscore.DG>
-16.0464

> <Gold.Chemscore.ZeroCoef>
-5.4800

> <Gold.Chemscore.Hbond>
0.9530

> <Gold.Chemscore.Metal>
0.0000

> <Gold.Chemscore.Lipo>
92.2433

> <Gold.Chemscore.Internal_Hbond>
0.0000

> <Gold.Chemscore.DEClash>
0.3342

> <Gold.Chemscore.DEInternal>
0.3165

> <Gold.Chemscore.Rot>
1.3317

> <Gold.Chemscore.Internal.Correction>
   9.000000E+99

> <Gold.Chemscore.Hbonds>
donor molecule, donor type, donor heavy atom, donor atom, acceptor molecule, acceptor atom, score
      P1  H  6896  6908       L1     1  0.99

> <Gold.Chemscore.Hbond.Weighted>
-3.1832

> <Gold.Chemscore.Metal.Weighted>
-0.0000

> <Gold.Chemscore.Lipo.Weighted>
-10.7925

> <Gold.Chemscore.Internal_Hbond.Weighted>
0.0000

> <Gold.Chemscore.DEClash.Weighted>
0.3342

> <Gold.Chemscore.DEInternal.Weighted>
0.3165

> <Gold.Chemscore.Rot.Weighted>
3.4092

> <Gold.Chemscore.Internal.Correction.Weighted>
   9.000000E+99

> <Gold.Protein.RotatedTorsions>
[ 6907 6896 6895 6894 ] final  -87.83 input  -60.11 | X-H torsion
[ 7974 7965 7964 7962 ] final  -18.17 input  175.53 | X-H torsion
[ 8008 7997 7996 7995 ] final -165.59 input   59.86 | X-H torsion
[ 10167 10162 10161 10158 ] final -150.54 input  -65.29 | X-H torsion
[ 10718 10713 10712 10709 ] final  123.48 input   66.30 | X-H torsion
[ 10763 10752 10751 10750 ] final   -8.79 input  -60.55 | X-H torsion
[ 11005 11000 10999 10996 ] final   32.52 input  -57.11 | X-H torsion

> <Gold.Protein.ActiveResidues>
 VAL166  LYS551  ARG553  GLY616  TRP617  ASP618  TYR619  PRO620  LYS621  CYS622 
 ASP623  PHE694  ASN695  SER759  ASP760  ASP761  ALA762  ILE779  LEU786  VAL792 
 PHE793  MET794  SER795  GLU796  ALA797  LYS798  CYS799  TRP800  GLU811  SER814 

> <Gold.Protein.RotatedAtoms>
  150.6867  134.2835  159.4636 H   0  0  0  0  0  0  0  0  0  0  0  0  # atno 6907 bound_to 6896
  152.0747  134.9508  160.0583 H   0  0  0  0  0  0  0  0  0  0  0  0  # atno 6908 bound_to 6896
  152.0884  133.4153  159.4569 H   0  0  0  0  0  0  0  0  0  0  0  0  # atno 6909 bound_to 6896
  146.1905  140.3883  142.8460 H   0  0  0  0  0  0  0  0  0  0  0  0  # atno 7974 bound_to 7965
  155.8519  140.0964  157.1669 H   0  0  0  0  0  0  0  0  0  0  0  0  # atno 8008 bound_to 7997
  154.3986  140.1381  156.3916 H   0  0  0  0  0  0  0  0  0  0  0  0  # atno 8009 bound_to 7997
  155.7952  140.3454  155.5374 H   0  0  0  0  0  0  0  0  0  0  0  0  # atno 8010 bound_to 7997
  139.7345  143.8756  152.2545 H   0  0  0  0  0  0  0  0  0  0  0  0  # atno 10167 bound_to 10162
  157.5661  131.1086  150.8452 H   0  0  0  0  0  0  0  0  0  0  0  0  # atno 10718 bound_to 10713
  153.4454  135.7014  153.6142 H   0  0  0  0  0  0  0  0  0  0  0  0  # atno 10763 bound_to 10752
  153.4499  135.3760  155.2278 H   0  0  0  0  0  0  0  0  0  0  0  0  # atno 10764 bound_to 10752
  154.8728  135.3994  154.3859 H   0  0  0  0  0  0  0  0  0  0  0  0  # atno 10765 bound_to 10752
  140.2726  134.3064  155.7823 H   0  0  0  0  0  0  0  0  0  0  0  0  # atno 11005 bound_to 11000
  144.8478  140.6956  143.6187 LP  0  0  0  0  0  0  0  0  0  0  0  0  # atno 17320 bound_to 7965
  145.3806  139.1638  143.4283 LP  0  0  0  0  0  0  0  0  0  0  0  0  # atno 17321 bound_to 7965
  139.8689  144.7078  150.9011 LP  0  0  0  0  0  0  0  0  0  0  0  0  # atno 17342 bound_to 10162
  140.7776  143.3755  151.1571 LP  0  0  0  0  0  0  0  0  0  0  0  0  # atno 17343 bound_to 10162
  156.8936  130.5221  149.5285 LP  0  0  0  0  0  0  0  0  0  0  0  0  # atno 17370 bound_to 10713
  156.0709  130.5742  150.9381 LP  0  0  0  0  0  0  0  0  0  0  0  0  # atno 17371 bound_to 10713
  141.2175  133.7476  156.9358 LP  0  0  0  0  0  0  0  0  0  0  0  0  # atno 17394 bound_to 11000
  140.1358  134.9326  157.2400 LP  0  0  0  0  0  0  0  0  0  0  0  0  # atno 17395 bound_to 11000

$$$$
