AV-unprocessed.smi:1484|AV-procd|sdf|5994|dock5
  -GOLD-   22720 6 83D 1   1.00000     0.00000
 Structure written by MMmdl.
 37 38  0  0  0  0  0  0  0  0  2 V2000
  153.4216  142.1276  161.0798 C   0  0  0  0  0  0  0  0  0  0  0  0
  152.2513  142.8380  160.3845 C   0  0  1  0  0  0  0  0  0  0  0  0
  152.5344  144.3412  160.1985 C   0  0  0  0  0  0  0  0  0  0  0  0
  151.3640  145.0538  159.5026 C   0  0  0  0  0  0  0  0  0  0  0  0
  151.0265  144.3920  158.1578 C   0  0  0  0  0  0  0  0  0  0  0  0
  150.7412  142.8884  158.3284 C   0  0  1  0  0  0  0  0  0  0  0  0
  150.5074  142.2778  157.0225 N   0  0  0  0  0  0  0  0  0  0  0  0
  149.3914  141.6390  156.6373 C   0  0  0  0  0  0  0  0  0  0  0  0
  148.4129  141.4856  157.3703 O   0  0  0  0  0  0  0  0  0  0  0  0
  149.4051  141.1000  155.1976 C   0  0  0  0  0  0  0  0  0  0  0  0
  149.8736  139.7115  155.0730 N   0  0  0  0  0  0  0  0  0  0  0  0
  151.3074  139.5935  154.8213 N   0  5  0  0  0  0  0  0  0  0  0  0
  151.8605  138.3570  154.7070 C   0  0  0  0  0  0  0  0  0  0  0  0
  153.0606  138.1794  154.5112 O   0  0  0  0  0  0  0  0  0  0  0  0
  150.9844  137.2025  154.8183 C   0  0  0  0  0  0  0  0  0  0  0  0
  149.6602  137.3417  155.0252 C   0  0  0  0  0  0  0  0  0  0  0  0
  149.0250  138.6472  155.1569 C   0  0  0  0  0  0  0  0  0  0  0  0
  147.8141  138.7816  155.3352 O   0  0  0  0  0  0  0  0  0  0  0  0
  151.9170  142.1821  159.0303 C   0  0  0  0  0  0  0  0  0  0  0  0
  154.3328  142.1860  160.4835 H   0  0  0  0  0  0  0  0  0  0  0  0
  153.1984  141.0730  161.2437 H   0  0  0  0  0  0  0  0  0  0  0  0
  153.6309  142.5747  162.0520 H   0  0  0  0  0  0  0  0  0  0  0  0
  151.3774  142.7377  161.0303 H   0  0  0  0  0  0  0  0  0  0  0  0
  152.7227  144.8084  161.1657 H   0  0  0  0  0  0  0  0  0  0  0  0
  153.4426  144.4753  159.6092 H   0  0  0  0  0  0  0  0  0  0  0  0
  150.4863  145.0339  160.1497 H   0  0  0  0  0  0  0  0  0  0  0  0
  151.6091  146.1047  159.3469 H   0  0  0  0  0  0  0  0  0  0  0  0
  150.1642  144.8877  157.7100 H   0  0  0  0  0  0  0  0  0  0  0  0
  151.8588  144.5352  157.4670 H   0  0  0  0  0  0  0  0  0  0  0  0
  149.8588  142.7770  158.9613 H   0  0  0  0  0  0  0  0  0  0  0  0
  151.2565  142.3513  156.3498 H   0  0  0  0  0  0  0  0  0  0  0  0
  148.3993  141.1855  154.7828 H   0  0  0  0  0  0  0  0  0  0  0  0
  150.0260  141.7627  154.5918 H   0  0  0  0  0  0  0  0  0  0  0  0
  151.4044  136.2112  154.7307 H   0  0  0  0  0  0  0  0  0  0  0  0
  149.0468  136.4562  155.0994 H   0  0  0  0  0  0  0  0  0  0  0  0
  152.7978  142.2066  158.3868 H   0  0  0  0  0  0  0  0  0  0  0  0
  151.6742  141.1291  159.1804 H   0  0  0  0  0  0  0  0  0  0  0  0
  1  2  1  0  0  0  0
  1 20  1  0  0  0  0
  1 21  1  0  0  0  0
  1 22  1  0  0  0  0
  2 19  1  0  0  0  0
  2  3  1  0  0  0  0
  2 23  1  0  0  0  0
  3  4  1  0  0  0  0
  3 24  1  0  0  0  0
  3 25  1  0  0  0  0
  4  5  1  0  0  0  0
  4 26  1  0  0  0  0
  4 27  1  0  0  0  0
  5  6  1  0  0  0  0
  5 28  1  0  0  0  0
  5 29  1  0  0  0  0
  6  7  1  0  0  0  0
  6 19  1  0  0  0  0
  6 30  1  0  0  0  0
  7  8  1  0  0  0  0
  7 31  1  0  0  0  0
  8  9  2  0  0  0  0
  8 10  1  0  0  0  0
 10 32  1  0  0  0  0
 10 33  1  0  0  0  0
 10 11  1  0  0  0  0
 11 12  1  0  0  0  0
 11 17  1  0  0  0  0
 12 13  1  0  0  0  0
 13 14  2  0  0  0  0
 13 15  1  0  0  0  0
 15 34  1  0  0  0  0
 15 16  2  0  0  0  0
 16 35  1  0  0  0  0
 16 17  1  0  0  0  0
 17 18  2  0  0  0  0
 19 36  1  0  0  0  0
 19 37  1  0  0  0  0
M  CHG  1  12  -1
M  END
> <s_m_source_file>
AV-unprocessed.smi

> <i_m_source_file_index>
1484

> <i_lp_mmshare_version>
43012

> <i_f3d_flags>
0

> <s_epik_input>
W0NIM11bQ0BASF0xW0NIMl1bQ0gyXVtDSDJdW0NASF0oW0NIMl0xKVtOSF1DKD1PKVtDSDJdbjJbbkhdYyg9TylbY0hdW2NIXWMyPU8=

> <s_epik_cmdline>
J2VwaWtfcHl0aG9uJywgJy1waCcsICc3LjAnLCAnLXRuJywgJzgnLCAnLW1hJywgJzIwMCcsICctbWV0YWxfYmluZGluZycsICctaW1hZScsICc8aW5maWxlLm1hZT4nLCAnLW9tYWUnLCAnPG91dGZpbGUubWFlPic=

> <r_lp_tautomer_probability>
1

> <r_epik_Ionization_Penalty>
0.101352

> <r_epik_Ionization_Penalty_Charging>
0.101352

> <r_epik_Ionization_Penalty_Neutral>
1.90469e-08

> <r_epik_State_Penalty>
0.0358555

> <r_epik_Charging_Adjusted_Penalty>
0.137208

> <i_epik_Tot_Q>
-1

> <i_epik_Tot_abs_Q>
1

> <r_epik_Metal_State_Penalty>
0.0358555

> <b_epik_Metal_Only>
0

> <s_lp_Force_Field>
OPLS_2005

> <r_lp_Energy>
25.5617

> <b_lp_Chiralities_Consistent>
1

> <s_lp_Variant>
AV-unprocessed.smi:1484-2

> <Gold.Version>
5.8.1

> <Gold.Id.Protein>
6NUR|6NUR_protein|mol2

> <Gold.PLP.Fitness>
41.4974

> <Gold.PLP.PLP>
-40.5816

> <Gold.PLP.part.hbond>
-1.7409

> <Gold.PLP.part.metal>
0.0000

> <Gold.PLP.part.buried>
-4.9027

> <Gold.PLP.part.nonpolar>
-33.9388

> <Gold.PLP.part.repulsive>
0.3063

> <Gold.PLP.ligand.clash>
0.0000

> <Gold.PLP.ligand.torsion>
0.7460

> <Gold.PLP.Chemscore.Hbond>
0.8000

> <Gold.PLP.Chemscore.CHOScore>
0.0000

> <Gold.PLP.Chemscore.Metal>
0.0000

> <Gold.Chemscore.Hbonds>
donor molecule, donor type, donor heavy atom, donor atom, acceptor molecule, acceptor atom, score
      P1  H  7989  7998       L1    12  1.00

> <Gold.PLP.Chemscore.Internal.Correction>
0.0080

> <Gold.Rescore>
     Score         DG    S(hbond)    S(metal)    S(lipo)     H(rot)  DE(clash)    DE(int)     intcor
     13.32     -13.96       0.55        0.00      92.89       1.65       0.06       0.58       ----

> <Gold.Chemscore.Fitness>
13.3222

> <Gold.Chemscore.DG>
-13.9567

> <Gold.Chemscore.ZeroCoef>
-5.4800

> <Gold.Chemscore.Hbond>
0.5525

> <Gold.Chemscore.Metal>
0.0000

> <Gold.Chemscore.Lipo>
92.8877

> <Gold.Chemscore.Internal_Hbond>
0.0000

> <Gold.Chemscore.DEClash>
0.0590

> <Gold.Chemscore.DEInternal>
0.5755

> <Gold.Chemscore.Rot>
1.6549

> <Gold.Chemscore.Internal.Correction>
   9.000000E+99

> <Gold.Chemscore.Hbonds>
donor molecule, donor type, donor heavy atom, donor atom, acceptor molecule, acceptor atom, score
      P1  H  7989  7998       L1    12  0.43

> <Gold.Chemscore.Hbond.Weighted>
-1.8453

> <Gold.Chemscore.Metal.Weighted>
-0.0000

> <Gold.Chemscore.Lipo.Weighted>
-10.8679

> <Gold.Chemscore.Internal_Hbond.Weighted>
0.0000

> <Gold.Chemscore.DEClash.Weighted>
0.0590

> <Gold.Chemscore.DEInternal.Weighted>
0.5755

> <Gold.Chemscore.Rot.Weighted>
4.2364

> <Gold.Chemscore.Internal.Correction.Weighted>
   9.000000E+99

> <Gold.Protein.RotatedTorsions>
[ 6907 6896 6895 6894 ] final -137.91 input  -60.11 | X-H torsion
[ 7974 7965 7964 7962 ] final   54.47 input  175.53 | X-H torsion
[ 8008 7997 7996 7995 ] final   90.84 input   59.86 | X-H torsion
[ 10167 10162 10161 10158 ] final -118.64 input  -65.29 | X-H torsion
[ 10718 10713 10712 10709 ] final -176.85 input   66.30 | X-H torsion
[ 10763 10752 10751 10750 ] final   90.08 input  -60.55 | X-H torsion
[ 11005 11000 10999 10996 ] final -146.18 input  -57.11 | X-H torsion

> <Gold.Protein.ActiveResidues>
 VAL166  LYS551  ARG553  GLY616  TRP617  ASP618  TYR619  PRO620  LYS621  CYS622 
 ASP623  PHE694  ASN695  SER759  ASP760  ASP761  ALA762  ILE779  LEU786  VAL792 
 PHE793  MET794  SER795  GLU796  ALA797  LYS798  CYS799  TRP800  GLU811  SER814 

> <Gold.Protein.RotatedAtoms>
  151.0283  133.5813  159.2663 H   0  0  0  0  0  0  0  0  0  0  0  0  # atno 6907 bound_to 6896
  151.2904  135.0739  159.9212 H   0  0  0  0  0  0  0  0  0  0  0  0  # atno 6908 bound_to 6896
  152.5339  133.9983  159.7937 H   0  0  0  0  0  0  0  0  0  0  0  0  # atno 6909 bound_to 6896
  145.9606  139.4055  143.0251 H   0  0  0  0  0  0  0  0  0  0  0  0  # atno 7974 bound_to 7965
  156.0167  140.3344  155.6996 H   0  0  0  0  0  0  0  0  0  0  0  0  # atno 8008 bound_to 7997
  155.6081  140.0662  157.2732 H   0  0  0  0  0  0  0  0  0  0  0  0  # atno 8009 bound_to 7997
  154.4301  140.1798  156.1231 H   0  0  0  0  0  0  0  0  0  0  0  0  # atno 8010 bound_to 7997
  140.0553  143.5020  152.2060 H   0  0  0  0  0  0  0  0  0  0  0  0  # atno 10167 bound_to 10162
  156.8207  130.9619  151.3112 H   0  0  0  0  0  0  0  0  0  0  0  0  # atno 10718 bound_to 10713
  153.1938  135.4447  155.0183 H   0  0  0  0  0  0  0  0  0  0  0  0  # atno 10763 bound_to 10752
  154.8106  135.3293  154.7316 H   0  0  0  0  0  0  0  0  0  0  0  0  # atno 10764 bound_to 10752
  153.7768  135.6980  153.4951 H   0  0  0  0  0  0  0  0  0  0  0  0  # atno 10765 bound_to 10752
  140.7846  134.3039  157.5034 H   0  0  0  0  0  0  0  0  0  0  0  0  # atno 11005 bound_to 11000
  145.8046  140.9755  143.0981 LP  0  0  0  0  0  0  0  0  0  0  0  0  # atno 17320 bound_to 7965
  144.6814  139.9844  143.7484 LP  0  0  0  0  0  0  0  0  0  0  0  0  # atno 17321 bound_to 7965
  139.5927  144.7556  151.3361 LP  0  0  0  0  0  0  0  0  0  0  0  0  # atno 17342 bound_to 10162
  140.7197  143.7168  150.7726 LP  0  0  0  0  0  0  0  0  0  0  0  0  # atno 17343 bound_to 10162
  157.6458  130.8843  149.9536 LP  0  0  0  0  0  0  0  0  0  0  0  0  # atno 17370 bound_to 10713
  156.0990  130.3657  150.0252 LP  0  0  0  0  0  0  0  0  0  0  0  0  # atno 17371 bound_to 10713
  139.8738  134.9339  156.3592 LP  0  0  0  0  0  0  0  0  0  0  0  0  # atno 17394 bound_to 11000
  140.9449  133.7490  156.0195 LP  0  0  0  0  0  0  0  0  0  0  0  0  # atno 17395 bound_to 11000

$$$$
