AV-unprocessed.smi:2267|AV-procd|sdf|9148|dock6
  -GOLD-   2272012353D 1   1.00000     0.00000
 Structure written by MMmdl.
 41 42  0  0  0  0  0  0  0  0  1 V2000
  153.0710  142.7829  162.0836 C   0  0  0  0  0  0  0  0  0  0  0  0
  152.5738  142.9586  160.6636 C   0  0  0  0  0  0  0  0  0  0  0  0
  152.4514  144.2475  160.1071 C   0  0  0  0  0  0  0  0  0  0  0  0
  151.9904  144.4014  158.7869 C   0  0  0  0  0  0  0  0  0  0  0  0
  151.6515  143.2688  158.0226 C   0  0  0  0  0  0  0  0  0  0  0  0
  151.7681  141.9719  158.5632 C   0  0  0  0  0  0  0  0  0  0  0  0
  151.4140  140.9203  157.7451 O   0  0  0  0  0  0  0  0  0  0  0  0
  151.5390  141.0871  156.3389 C   0  0  0  0  0  0  0  0  0  0  0  0
  151.6013  139.7000  155.6767 C   0  0  2  0  0  0  0  0  0  0  0  0
  152.7760  139.6661  154.8899 O   0  0  0  0  0  0  0  0  0  0  0  0
  150.3963  139.4532  154.7406 C   0  0  0  0  0  0  0  0  0  0  0  0
  149.1892  140.1694  155.1877 N   0  0  0  0  0  0  0  0  0  0  0  0
  148.7075  139.8402  156.4654 C   0  0  0  0  0  0  0  0  0  0  0  0
  147.6547  140.4037  156.9607 N   0  0  0  0  0  0  0  0  0  0  0  0
  146.9682  141.3709  156.2209 C   0  0  0  0  0  0  0  0  0  0  0  0
  145.7468  141.9688  156.8965 C   0  0  0  0  0  0  0  0  0  0  0  0
  147.3869  141.7402  154.9795 C   0  0  0  0  0  0  0  0  0  0  0  0
  146.6814  142.7896  154.1293 C   0  0  0  0  0  0  0  0  0  0  0  0
  148.5851  141.1085  154.4034 C   0  0  0  0  0  0  0  0  0  0  0  0
  149.0244  141.3998  153.2892 O   0  0  0  0  0  0  0  0  0  0  0  0
  152.2349  141.8260  159.8944 C   0  0  0  0  0  0  0  0  0  0  0  0
  153.0856  143.7326  162.6192 H   0  0  0  0  0  0  0  0  0  0  0  0
  154.0821  142.3757  162.0803 H   0  0  0  0  0  0  0  0  0  0  0  0
  152.4251  142.0959  162.6310 H   0  0  0  0  0  0  0  0  0  0  0  0
  152.7101  145.1204  160.6886 H   0  0  0  0  0  0  0  0  0  0  0  0
  151.8962  145.3887  158.3595 H   0  0  0  0  0  0  0  0  0  0  0  0
  151.2980  143.3966  157.0098 H   0  0  0  0  0  0  0  0  0  0  0  0
  150.6564  141.6214  155.9833 H   0  0  0  0  0  0  0  0  0  0  0  0
  152.4165  141.6816  156.0778 H   0  0  0  0  0  0  0  0  0  0  0  0
  151.6484  138.9311  156.4491 H   0  0  0  0  0  0  0  0  0  0  0  0
  152.9128  138.7802  154.5908 H   0  0  0  0  0  0  0  0  0  0  0  0
  150.6391  139.7974  153.7336 H   0  0  0  0  0  0  0  0  0  0  0  0
  150.2185  138.3826  154.6178 H   0  0  0  0  0  0  0  0  0  0  0  0
  149.2826  139.0852  157.0043 H   0  0  0  0  0  0  0  0  0  0  0  0
  144.8521  141.7893  156.2995 H   0  0  0  0  0  0  0  0  0  0  0  0
  145.8709  143.0443  157.0265 H   0  0  0  0  0  0  0  0  0  0  0  0
  145.5838  141.5302  157.8819 H   0  0  0  0  0  0  0  0  0  0  0  0
  147.3604  143.6145  153.9117 H   0  0  0  0  0  0  0  0  0  0  0  0
  145.7991  143.2095  154.6092 H   0  0  0  0  0  0  0  0  0  0  0  0
  146.3629  142.3537  153.1819 H   0  0  0  0  0  0  0  0  0  0  0  0
  152.3421  140.8527  160.3483 H   0  0  0  0  0  0  0  0  0  0  0  0
  1  2  1  0  0  0  0
  1 22  1  0  0  0  0
  1 23  1  0  0  0  0
  1 24  1  0  0  0  0
  2 21  1  0  0  0  0
  2  3  2  0  0  0  0
  3  4  1  0  0  0  0
  3 25  1  0  0  0  0
  4  5  2  0  0  0  0
  4 26  1  0  0  0  0
  5  6  1  0  0  0  0
  5 27  1  0  0  0  0
  6  7  1  0  0  0  0
  6 21  2  0  0  0  0
  7  8  1  0  0  0  0
  8  9  1  0  0  0  0
  8 28  1  0  0  0  0
  8 29  1  0  0  0  0
  9 10  1  0  0  0  0
  9 11  1  0  0  0  0
  9 30  1  0  0  0  0
 10 31  1  0  0  0  0
 11 12  1  0  0  0  0
 11 32  1  0  0  0  0
 11 33  1  0  0  0  0
 12 19  1  0  0  0  0
 12 13  1  0  0  0  0
 13 14  2  0  0  0  0
 13 34  1  0  0  0  0
 14 15  1  0  0  0  0
 15 16  1  0  0  0  0
 15 17  2  0  0  0  0
 16 35  1  0  0  0  0
 16 36  1  0  0  0  0
 16 37  1  0  0  0  0
 17 18  1  0  0  0  0
 17 19  1  0  0  0  0
 18 38  1  0  0  0  0
 18 39  1  0  0  0  0
 18 40  1  0  0  0  0
 19 20  2  0  0  0  0
 21 41  1  0  0  0  0
M  END
> <s_m_source_file>
AV-unprocessed.smi

> <i_m_source_file_index>
2267

> <i_lp_mmshare_version>
43012

> <i_f3d_flags>
0

> <s_epik_input>
W0NIM11jMVtjSF1bY0hdW2NIXWMoW2NIXTEpT1tDSDJdW0NASF0oW09IXSlbQ0gyXW4yW2NIXW5jKFtDSDNdKWMoW0NIM10pYzI9Tw==

> <s_epik_cmdline>
J2VwaWtfcHl0aG9uJywgJy1waCcsICc3LjAnLCAnLXRuJywgJzgnLCAnLW1hJywgJzIwMCcsICctbWV0YWxfYmluZGluZycsICctaW1hZScsICc8aW5maWxlLm1hZT4nLCAnLW9tYWUnLCAnPG91dGZpbGUubWFlPic=

> <r_lp_tautomer_probability>
1

> <r_epik_Ionization_Penalty>
3.72236e-05

> <r_epik_Ionization_Penalty_Charging>
8.38864e-08

> <r_epik_Ionization_Penalty_Neutral>
3.71397e-05

> <r_epik_State_Penalty>
-0

> <r_epik_Charging_Adjusted_Penalty>
8.38864e-08

> <i_epik_Tot_Q>
0

> <i_epik_Tot_abs_Q>
0

> <r_epik_Metal_State_Penalty>
-0

> <b_epik_Metal_Only>
0

> <s_lp_Force_Field>
OPLS_2005

> <r_lp_Energy>
23.9214

> <b_lp_Chiralities_Consistent>
1

> <s_lp_Variant>
AV-unprocessed.smi:2267-1

> <Gold.Version>
5.8.1

> <Gold.Id.Protein>
6NUR|6NUR_protein|mol2

> <Gold.PLP.Fitness>
47.2969

> <Gold.PLP.PLP>
-44.1500

> <Gold.PLP.part.hbond>
-3.9082

> <Gold.PLP.part.metal>
0.0000

> <Gold.PLP.part.buried>
-6.1302

> <Gold.PLP.part.nonpolar>
-38.1921

> <Gold.PLP.part.repulsive>
3.8307

> <Gold.PLP.ligand.clash>
0.0000

> <Gold.PLP.ligand.torsion>
1.6023

> <Gold.PLP.Chemscore.Hbond>
2.1032

> <Gold.PLP.Chemscore.CHOScore>
0.0000

> <Gold.PLP.Chemscore.Metal>
0.0000

> <Gold.Chemscore.Hbonds>
donor molecule, donor type, donor heavy atom, donor atom, acceptor molecule, acceptor atom, score
      P1  H  7989  7998       L1    10  0.11
      P1  H  7997  8010       L1    10  1.00
      P1  H  8011  8017       L1    20  0.96

> <Gold.PLP.Chemscore.Internal.Correction>
0.0419

> <Gold.Rescore>
     Score         DG    S(hbond)    S(metal)    S(lipo)     H(rot)  DE(clash)    DE(int)     intcor
     17.02     -20.01       2.13        0.00     114.93       2.35       1.52       1.47       ----

> <Gold.Chemscore.Fitness>
17.0174

> <Gold.Chemscore.DG>
-20.0114

> <Gold.Chemscore.ZeroCoef>
-5.4800

> <Gold.Chemscore.Hbond>
2.1251

> <Gold.Chemscore.Metal>
0.0000

> <Gold.Chemscore.Lipo>
114.9326

> <Gold.Chemscore.Internal_Hbond>
0.0000

> <Gold.Chemscore.DEClash>
1.5218

> <Gold.Chemscore.DEInternal>
1.4722

> <Gold.Chemscore.Rot>
2.3490

> <Gold.Chemscore.Internal.Correction>
   9.000000E+99

> <Gold.Chemscore.Hbonds>
donor molecule, donor type, donor heavy atom, donor atom, acceptor molecule, acceptor atom, score
      P1  H  7997  8010       L1    10  0.46
      P1  H  8011  8017       L1    20  0.91

> <Gold.Chemscore.Hbond.Weighted>
-7.0979

> <Gold.Chemscore.Metal.Weighted>
-0.0000

> <Gold.Chemscore.Lipo.Weighted>
-13.4471

> <Gold.Chemscore.Internal_Hbond.Weighted>
0.0000

> <Gold.Chemscore.DEClash.Weighted>
1.5218

> <Gold.Chemscore.DEInternal.Weighted>
1.4722

> <Gold.Chemscore.Rot.Weighted>
6.0136

> <Gold.Chemscore.Internal.Correction.Weighted>
   9.000000E+99

> <Gold.Protein.RotatedTorsions>
[ 6907 6896 6895 6894 ] final  -79.48 input  -60.11 | X-H torsion
[ 7974 7965 7964 7962 ] final -161.42 input  175.53 | X-H torsion
[ 8008 7997 7996 7995 ] final  104.14 input   59.86 | X-H torsion
[ 10167 10162 10161 10158 ] final -167.54 input  -65.29 | X-H torsion
[ 10718 10713 10712 10709 ] final -164.42 input   66.30 | X-H torsion
[ 10763 10752 10751 10750 ] final   30.23 input  -60.55 | X-H torsion
[ 11005 11000 10999 10996 ] final   12.27 input  -57.11 | X-H torsion

> <Gold.Protein.ActiveResidues>
 VAL166  LYS551  ARG553  GLY616  TRP617  ASP618  TYR619  PRO620  LYS621  CYS622 
 ASP623  PHE694  ASN695  SER759  ASP760  ASP761  ALA762  ILE779  LEU786  VAL792 
 PHE793  MET794  SER795  GLU796  ALA797  LYS798  CYS799  TRP800  GLU811  SER814 

> <Gold.Protein.RotatedAtoms>
  150.6949  134.4115  159.5163 H   0  0  0  0  0  0  0  0  0  0  0  0  # atno 6907 bound_to 6896
  152.1873  134.8700  160.0530 H   0  0  0  0  0  0  0  0  0  0  0  0  # atno 6908 bound_to 6896
  151.9668  133.3678  159.4093 H   0  0  0  0  0  0  0  0  0  0  0  0  # atno 6909 bound_to 6896
  144.7392  140.3400  143.6136 H   0  0  0  0  0  0  0  0  0  0  0  0  # atno 7974 bound_to 7965
  156.1546  140.3153  155.8705 H   0  0  0  0  0  0  0  0  0  0  0  0  # atno 8008 bound_to 7997
  155.3903  140.0493  157.3058 H   0  0  0  0  0  0  0  0  0  0  0  0  # atno 8009 bound_to 7997
  154.5090  140.2157  155.9206 H   0  0  0  0  0  0  0  0  0  0  0  0  # atno 8010 bound_to 7997
  139.6043  144.0946  152.1776 H   0  0  0  0  0  0  0  0  0  0  0  0  # atno 10167 bound_to 10162
  156.6387  130.8960  151.2992 H   0  0  0  0  0  0  0  0  0  0  0  0  # atno 10718 bound_to 10713
  153.0384  135.6469  154.1012 H   0  0  0  0  0  0  0  0  0  0  0  0  # atno 10763 bound_to 10752
  154.0723  135.2879  155.3307 H   0  0  0  0  0  0  0  0  0  0  0  0  # atno 10764 bound_to 10752
  154.6586  135.5400  153.8054 H   0  0  0  0  0  0  0  0  0  0  0  0  # atno 10765 bound_to 10752
  140.4939  134.0813  155.7777 H   0  0  0  0  0  0  0  0  0  0  0  0  # atno 11005 bound_to 11000
  145.7384  139.1757  143.2390 LP  0  0  0  0  0  0  0  0  0  0  0  0  # atno 17320 bound_to 7965
  146.1153  140.7377  142.9483 LP  0  0  0  0  0  0  0  0  0  0  0  0  # atno 17321 bound_to 7965
  140.0550  144.5902  150.7307 LP  0  0  0  0  0  0  0  0  0  0  0  0  # atno 17342 bound_to 10162
  140.7273  143.2650  151.4076 LP  0  0  0  0  0  0  0  0  0  0  0  0  # atno 17343 bound_to 10162
  157.7177  130.9519  150.1319 LP  0  0  0  0  0  0  0  0  0  0  0  0  # atno 17370 bound_to 10713
  156.2176  130.3671  149.8594 LP  0  0  0  0  0  0  0  0  0  0  0  0  # atno 17371 bound_to 10713
  141.1470  133.9037  157.2191 LP  0  0  0  0  0  0  0  0  0  0  0  0  # atno 17394 bound_to 11000
  139.9753  135.0116  156.9615 LP  0  0  0  0  0  0  0  0  0  0  0  0  # atno 17395 bound_to 11000

$$$$
