AV-unprocessed.smi:2914|AV-procd|sdf|11186|dock9
  -GOLD-   2272016 73D 1   1.00000     0.00000
 Structure written by MMmdl.
 32 34  0  0  0  0  0  0  0  0  1 V2000
  151.6272  141.3318  157.0242 O   0  0  0  0  0  0  0  0  0  0  0  0
  150.9309  142.2154  156.5238 C   0  0  0  0  0  0  0  0  0  0  0  0
  150.0096  142.0305  155.5620 N   0  0  0  0  0  0  0  0  0  0  0  0
  149.6389  140.8748  154.9489 C   0  0  0  0  0  0  0  0  0  0  0  0
  150.2453  139.6487  154.9868 C   0  0  0  0  0  0  0  0  0  0  0  0
  149.3919  138.8573  154.1661 C   0  0  0  0  0  0  0  0  0  0  0  0
  148.3641  139.5381  153.6755 N   0  0  0  0  0  0  0  0  0  0  0  0
  148.5140  140.7922  154.1560 N   0  0  0  0  0  0  0  0  0  0  0  0
  147.5424  141.8166  153.8169 C   0  0  0  0  0  0  0  0  0  0  0  0
  146.7805  142.2911  155.0388 C   0  0  0  0  0  0  0  0  0  0  0  0
  145.3860  141.7843  155.3236 C   0  0  0  0  0  0  0  0  0  0  0  0
  145.5963  143.2190  154.9027 C   0  0  0  0  0  0  0  0  0  0  0  0
  151.0025  143.5056  156.8793 N   0  0  0  0  0  0  0  0  0  0  0  0
  151.8789  144.0449  157.8687 C   0  0  0  0  0  0  0  0  0  0  0  0
  151.8009  143.4686  159.2659 C   0  0  0  0  0  0  0  0  0  0  0  0
  151.2592  144.8449  158.9940 C   0  0  0  0  0  0  0  0  0  0  0  0
  149.5196  142.8567  155.2523 H   0  0  0  0  0  0  0  0  0  0  0  0
  151.1420  139.3471  155.5063 H   0  0  0  0  0  0  0  0  0  0  0  0
  149.4873  137.8116  153.9135 H   0  0  0  0  0  0  0  0  0  0  0  0
  148.0575  142.6613  153.3586 H   0  0  0  0  0  0  0  0  0  0  0  0
  146.8477  141.4222  153.0734 H   0  0  0  0  0  0  0  0  0  0  0  0
  147.4110  142.4485  155.9119 H   0  0  0  0  0  0  0  0  0  0  0  0
  144.9356  141.1085  154.5992 H   0  0  0  0  0  0  0  0  0  0  0  0
  145.1231  141.5971  156.3625 H   0  0  0  0  0  0  0  0  0  0  0  0
  145.4725  143.9893  155.6611 H   0  0  0  0  0  0  0  0  0  0  0  0
  145.2799  143.4977  153.8996 H   0  0  0  0  0  0  0  0  0  0  0  0
  150.3910  144.1598  156.4133 H   0  0  0  0  0  0  0  0  0  0  0  0
  152.8656  144.3689  157.5401 H   0  0  0  0  0  0  0  0  0  0  0  0
  151.0811  142.6729  159.4498 H   0  0  0  0  0  0  0  0  0  0  0  0
  152.7281  143.3970  159.8312 H   0  0  0  0  0  0  0  0  0  0  0  0
  151.8247  145.6921  159.3770 H   0  0  0  0  0  0  0  0  0  0  0  0
  150.1777  144.9680  158.9970 H   0  0  0  0  0  0  0  0  0  0  0  0
  1  2  2  0  0  0  0
  2  3  1  0  0  0  0
  2 13  1  0  0  0  0
  3  4  1  0  0  0  0
  3 17  1  0  0  0  0
  4  8  1  0  0  0  0
  4  5  2  0  0  0  0
  5  6  1  0  0  0  0
  5 18  1  0  0  0  0
  6  7  2  0  0  0  0
  6 19  1  0  0  0  0
  7  8  1  0  0  0  0
  8  9  1  0  0  0  0
  9 10  1  0  0  0  0
  9 20  1  0  0  0  0
  9 21  1  0  0  0  0
 10 12  1  0  0  0  0
 10 11  1  0  0  0  0
 10 22  1  0  0  0  0
 11 12  1  0  0  0  0
 11 23  1  0  0  0  0
 11 24  1  0  0  0  0
 12 25  1  0  0  0  0
 12 26  1  0  0  0  0
 13 14  1  0  0  0  0
 13 27  1  0  0  0  0
 14 16  1  0  0  0  0
 14 15  1  0  0  0  0
 14 28  1  0  0  0  0
 15 16  1  0  0  0  0
 15 29  1  0  0  0  0
 15 30  1  0  0  0  0
 16 31  1  0  0  0  0
 16 32  1  0  0  0  0
M  END
> <s_m_source_file>
AV-unprocessed.smi

> <i_m_source_file_index>
2914

> <i_lp_mmshare_version>
43012

> <i_f3d_flags>
0

> <s_epik_input>
W0NIMl0xW0NIMl1bQ0hdMVtOSF1DKD1PKVtOSF1jMltjSF1bY0hdbm4yW0NIMl1bQ0hdM1tDSDJdW0NIMl0z

> <s_epik_cmdline>
J2VwaWtfcHl0aG9uJywgJy1waCcsICc3LjAnLCAnLXRuJywgJzgnLCAnLW1hJywgJzIwMCcsICctbWV0YWxfYmluZGluZycsICctaW1hZScsICc8aW5maWxlLm1hZT4nLCAnLW9tYWUnLCAnPG91dGZpbGUubWFlPic=

> <r_lp_tautomer_probability>
1

> <r_epik_Ionization_Penalty>
4.83987e-05

> <r_epik_Ionization_Penalty_Charging>
0

> <r_epik_Ionization_Penalty_Neutral>
4.83987e-05

> <r_epik_State_Penalty>
-0

> <r_epik_Charging_Adjusted_Penalty>
0

> <i_epik_Tot_Q>
0

> <i_epik_Tot_abs_Q>
0

> <r_epik_Metal_State_Penalty>
-0

> <b_epik_Metal_Only>
0

> <s_lp_Force_Field>
OPLS_2005

> <r_lp_Energy>
29.2759

> <b_lp_Chiralities_Consistent>
1

> <s_lp_Variant>
AV-unprocessed.smi:2914-1

> <Gold.Version>
5.8.1

> <Gold.Id.Protein>
6NUR|6NUR_protein|mol2

> <Gold.PLP.Fitness>
44.4285

> <Gold.PLP.PLP>
-36.0822

> <Gold.PLP.part.hbond>
-2.0000

> <Gold.PLP.part.metal>
0.0000

> <Gold.PLP.part.buried>
-3.5550

> <Gold.PLP.part.nonpolar>
-31.3167

> <Gold.PLP.part.repulsive>
2.1210

> <Gold.PLP.ligand.clash>
0.0000

> <Gold.PLP.ligand.torsion>
0.3786

> <Gold.PLP.Chemscore.Hbond>
1.9920

> <Gold.PLP.Chemscore.CHOScore>
0.8453

> <Gold.PLP.Chemscore.Metal>
0.0000

> <Gold.Chemscore.Hbonds>
donor molecule, donor type, donor heavy atom, donor atom, acceptor molecule, acceptor atom, score
      L1  H     3    17       P1  8028  0.98
      L1  H    13    27       P1  8028  1.00
      L1  C     6    19       P1  7948  0.78

> <Gold.PLP.Chemscore.Internal.Correction>
0.5917

> <Gold.Rescore>
     Score         DG    S(hbond)    S(metal)    S(lipo)     H(rot)  DE(clash)    DE(int)     intcor
     14.90     -16.55       1.91        0.00      70.63       1.39       0.17       1.48       ----

> <Gold.Chemscore.Fitness>
14.8964

> <Gold.Chemscore.DG>
-16.5498

> <Gold.Chemscore.ZeroCoef>
-5.4800

> <Gold.Chemscore.Hbond>
1.9076

> <Gold.Chemscore.Metal>
0.0000

> <Gold.Chemscore.Lipo>
70.6339

> <Gold.Chemscore.Internal_Hbond>
0.0000

> <Gold.Chemscore.DEClash>
0.1691

> <Gold.Chemscore.DEInternal>
1.4844

> <Gold.Chemscore.Rot>
1.3929

> <Gold.Chemscore.Internal.Correction>
   9.000000E+99

> <Gold.Chemscore.Hbonds>
donor molecule, donor type, donor heavy atom, donor atom, acceptor molecule, acceptor atom, score
      L1  H     3    17       P1  8028  0.90
      L1  H    13    27       P1  8028  0.99

> <Gold.Chemscore.Hbond.Weighted>
-6.3714

> <Gold.Chemscore.Metal.Weighted>
-0.0000

> <Gold.Chemscore.Lipo.Weighted>
-8.2642

> <Gold.Chemscore.Internal_Hbond.Weighted>
0.0000

> <Gold.Chemscore.DEClash.Weighted>
0.1691

> <Gold.Chemscore.DEInternal.Weighted>
1.4844

> <Gold.Chemscore.Rot.Weighted>
3.5657

> <Gold.Chemscore.Internal.Correction.Weighted>
   9.000000E+99

> <Gold.Protein.RotatedTorsions>
[ 6907 6896 6895 6894 ] final   63.68 input  -60.11 | X-H torsion
[ 7974 7965 7964 7962 ] final  179.42 input  175.53 | X-H torsion
[ 8008 7997 7996 7995 ] final -145.95 input   59.86 | X-H torsion
[ 10167 10162 10161 10158 ] final  -35.03 input  -65.29 | X-H torsion
[ 10718 10713 10712 10709 ] final -172.69 input   66.30 | X-H torsion
[ 10763 10752 10751 10750 ] final -133.61 input  -60.55 | X-H torsion
[ 11005 11000 10999 10996 ] final  -60.29 input  -57.11 | X-H torsion

> <Gold.Protein.ActiveResidues>
 VAL166  LYS551  ARG553  GLY616  TRP617  ASP618  TYR619  PRO620  LYS621  CYS622 
 ASP623  PHE694  ASN695  SER759  ASP760  ASP761  ALA762  ILE779  LEU786  VAL792 
 PHE793  MET794  SER795  GLU796  ALA797  LYS798  CYS799  TRP800  GLU811  SER814 

> <Gold.Protein.RotatedAtoms>
  152.4272  134.5846  159.9957 H   0  0  0  0  0  0  0  0  0  0  0  0  # atno 6907 bound_to 6896
  151.5980  133.3354  159.3049 H   0  0  0  0  0  0  0  0  0  0  0  0  # atno 6908 bound_to 6896
  150.8162  134.7382  159.6797 H   0  0  0  0  0  0  0  0  0  0  0  0  # atno 6909 bound_to 6896
  144.7146  140.0545  143.6434 H   0  0  0  0  0  0  0  0  0  0  0  0  # atno 7974 bound_to 7965
  155.5514  140.0617  157.2849 H   0  0  0  0  0  0  0  0  0  0  0  0  # atno 8008 bound_to 7997
  154.4419  140.1902  156.0735 H   0  0  0  0  0  0  0  0  0  0  0  0  # atno 8009 bound_to 7997
  156.0513  140.3284  155.7358 H   0  0  0  0  0  0  0  0  0  0  0  0  # atno 8010 bound_to 7997
  140.7173  143.3506  151.2164 H   0  0  0  0  0  0  0  0  0  0  0  0  # atno 10167 bound_to 10162
  156.7593  130.9407  151.3117 H   0  0  0  0  0  0  0  0  0  0  0  0  # atno 10718 bound_to 10713
  154.8730  135.3761  154.4600 H   0  0  0  0  0  0  0  0  0  0  0  0  # atno 10763 bound_to 10752
  153.5269  135.7028  153.5708 H   0  0  0  0  0  0  0  0  0  0  0  0  # atno 10764 bound_to 10752
  153.3930  135.3967  155.1901 H   0  0  0  0  0  0  0  0  0  0  0  0  # atno 10765 bound_to 10752
  141.1281  133.6621  156.5201 H   0  0  0  0  0  0  0  0  0  0  0  0  # atno 11005 bound_to 11000
  145.9916  139.3019  143.0981 LP  0  0  0  0  0  0  0  0  0  0  0  0  # atno 17320 bound_to 7965
  145.8896  140.9312  143.0559 LP  0  0  0  0  0  0  0  0  0  0  0  0  # atno 17321 bound_to 7965
  139.7035  143.9493  152.2916 LP  0  0  0  0  0  0  0  0  0  0  0  0  # atno 17342 bound_to 10162
  139.9194  144.6809  150.8477 LP  0  0  0  0  0  0  0  0  0  0  0  0  # atno 17343 bound_to 10162
  157.6742  130.9079  150.0110 LP  0  0  0  0  0  0  0  0  0  0  0  0  # atno 17370 bound_to 10713
  156.1349  130.3643  149.9672 LP  0  0  0  0  0  0  0  0  0  0  0  0  # atno 17371 bound_to 10713
  140.4299  134.7111  157.4936 LP  0  0  0  0  0  0  0  0  0  0  0  0  # atno 17394 bound_to 11000
  140.0301  134.6419  155.9118 LP  0  0  0  0  0  0  0  0  0  0  0  0  # atno 17395 bound_to 11000

$$$$
