AV-unprocessed.smi:205|AV-procd|sdf|1600|dock10
  -GOLD-   2262019513D 1   1.00000     0.00000
 Structure written by MMmdl.
 54 56  0  0  0  0  0  0  0  0  1 V2000
  153.1552  133.0907  157.5323 O   0  0  0  0  0  0  0  0  0  0  0  0
  154.5169  132.7310  157.4343 C   0  0  0  0  0  0  0  0  0  0  0  0
  155.2756  133.1975  158.6825 C   0  0  0  0  0  0  0  0  0  0  0  0
  154.4170  133.1102  159.8075 O   0  0  0  0  0  0  0  0  0  0  0  0
  154.9360  133.7783  160.9450 C   0  0  0  0  0  0  0  0  0  0  0  0
  155.2703  135.2332  160.5692 C   0  0  0  0  0  0  0  0  0  0  0  0
  154.4575  136.2291  161.2693 N   0  0  0  0  0  0  0  0  0  0  0  0
  154.9204  136.6882  162.5785 C   0  0  0  0  0  0  0  0  0  0  0  0
  153.9413  136.3602  163.7208 C   0  0  0  0  0  0  0  0  0  0  0  0
  154.4365  136.8472  164.9499 O   0  0  0  0  0  0  0  0  0  0  0  0
  153.7654  137.1503  160.5535 C   0  0  0  0  0  0  0  0  0  0  0  0
  152.7437  136.6966  159.7837 N   0  0  0  0  0  0  0  0  0  0  0  0
  152.0301  137.5470  159.0411 C   0  0  0  0  0  0  0  0  0  0  0  0
  152.1678  138.8686  158.9226 N   0  0  0  0  0  0  0  0  0  0  0  0
  153.1866  139.3336  159.7014 C   0  0  0  0  0  0  0  0  0  0  0  0
  154.0214  138.5529  160.5512 C   0  0  0  0  0  0  0  0  0  0  0  0
  154.9212  139.3807  161.2132 N   0  0  0  0  0  0  0  0  0  0  0  0
  154.6447  140.5759  160.7696 C   0  0  0  0  0  0  0  0  0  0  0  0
  153.6403  140.6351  159.8308 N   0  0  0  0  0  0  0  0  0  0  0  0
  153.1221  141.8180  159.2080 C   0  0  0  0  0  0  0  0  0  0  0  0
  153.6689  143.2033  159.5648 C   0  0  0  0  0  0  0  0  0  0  0  0
  152.2530  143.8093  159.4522 C   0  0  0  0  0  0  0  0  0  0  0  0
  151.8475  144.7327  160.6112 C   0  0  0  0  0  0  0  0  0  0  0  0
  151.8561  144.0423  161.8443 O   0  0  0  0  0  0  0  0  0  0  0  0
  151.9033  144.5457  158.1401 C   0  0  0  0  0  0  0  0  0  0  0  0
  150.5327  144.8733  158.0329 O   0  0  0  0  0  0  0  0  0  0  0  0
  151.7373  142.3585  159.5803 C   0  0  0  0  0  0  0  0  0  0  0  0
  152.8674  133.4109  156.6912 H   0  0  0  0  0  0  0  0  0  0  0  0
  154.6196  131.6557  157.2849 H   0  0  0  0  0  0  0  0  0  0  0  0
  154.9243  133.2210  156.5496 H   0  0  0  0  0  0  0  0  0  0  0  0
  156.1318  132.5423  158.8499 H   0  0  0  0  0  0  0  0  0  0  0  0
  155.6628  134.2095  158.5492 H   0  0  0  0  0  0  0  0  0  0  0  0
  154.1872  133.7753  161.7383 H   0  0  0  0  0  0  0  0  0  0  0  0
  155.8084  133.2519  161.3328 H   0  0  0  0  0  0  0  0  0  0  0  0
  156.3201  135.4230  160.7953 H   0  0  0  0  0  0  0  0  0  0  0  0
  155.1667  135.3741  159.4936 H   0  0  0  0  0  0  0  0  0  0  0  0
  155.8809  136.2196  162.7954 H   0  0  0  0  0  0  0  0  0  0  0  0
  155.1240  137.7591  162.5428 H   0  0  0  0  0  0  0  0  0  0  0  0
  152.9388  136.7451  163.5318 H   0  0  0  0  0  0  0  0  0  0  0  0
  153.8510  135.2782  163.8184 H   0  0  0  0  0  0  0  0  0  0  0  0
  155.3256  137.1403  164.8213 H   0  0  0  0  0  0  0  0  0  0  0  0
  151.2396  137.1042  158.4533 H   0  0  0  0  0  0  0  0  0  0  0  0
  155.1772  141.4515  161.1117 H   0  0  0  0  0  0  0  0  0  0  0  0
  153.1924  141.6429  158.1337 H   0  0  0  0  0  0  0  0  0  0  0  0
  154.0647  143.2422  160.5811 H   0  0  0  0  0  0  0  0  0  0  0  0
  154.3933  143.5969  158.8507 H   0  0  0  0  0  0  0  0  0  0  0  0
  152.5116  145.5948  160.6822 H   0  0  0  0  0  0  0  0  0  0  0  0
  150.8426  145.1293  160.4617 H   0  0  0  0  0  0  0  0  0  0  0  0
  152.7047  144.1567  162.2448 H   0  0  0  0  0  0  0  0  0  0  0  0
  152.4713  145.4727  158.0547 H   0  0  0  0  0  0  0  0  0  0  0  0
  152.1624  143.9404  157.2712 H   0  0  0  0  0  0  0  0  0  0  0  0
  150.2253  144.6020  157.1813 H   0  0  0  0  0  0  0  0  0  0  0  0
  150.9473  142.0880  158.8790 H   0  0  0  0  0  0  0  0  0  0  0  0
  151.4532  142.0979  160.6013 H   0  0  0  0  0  0  0  0  0  0  0  0
  1  2  1  0  0  0  0
  1 28  1  0  0  0  0
  2  3  1  0  0  0  0
  2 29  1  0  0  0  0
  2 30  1  0  0  0  0
  3  4  1  0  0  0  0
  3 31  1  0  0  0  0
  3 32  1  0  0  0  0
  4  5  1  0  0  0  0
  5  6  1  0  0  0  0
  5 33  1  0  0  0  0
  5 34  1  0  0  0  0
  6  7  1  0  0  0  0
  6 35  1  0  0  0  0
  6 36  1  0  0  0  0
  7  8  1  0  0  0  0
  7 11  1  0  0  0  0
  8  9  1  0  0  0  0
  8 37  1  0  0  0  0
  8 38  1  0  0  0  0
  9 10  1  0  0  0  0
  9 39  1  0  0  0  0
  9 40  1  0  0  0  0
 10 41  1  0  0  0  0
 11 16  1  0  0  0  0
 11 12  2  0  0  0  0
 12 13  1  0  0  0  0
 13 14  2  0  0  0  0
 13 42  1  0  0  0  0
 14 15  1  0  0  0  0
 15 19  1  0  0  0  0
 15 16  2  0  0  0  0
 16 17  1  0  0  0  0
 17 18  2  0  0  0  0
 18 19  1  0  0  0  0
 18 43  1  0  0  0  0
 19 20  1  0  0  0  0
 20 27  1  0  0  0  0
 20 21  1  0  0  0  0
 20 44  1  0  0  0  0
 21 22  1  0  0  0  0
 21 45  1  0  0  0  0
 21 46  1  0  0  0  0
 22 23  1  0  0  0  0
 22 25  1  0  0  0  0
 22 27  1  0  0  0  0
 23 24  1  0  0  0  0
 23 47  1  0  0  0  0
 23 48  1  0  0  0  0
 24 49  1  0  0  0  0
 25 26  1  0  0  0  0
 25 50  1  0  0  0  0
 25 51  1  0  0  0  0
 26 52  1  0  0  0  0
 27 53  1  0  0  0  0
 27 54  1  0  0  0  0
M  END
> <s_m_source_file>
AV-unprocessed.smi

> <i_m_source_file_index>
205

> <i_lp_mmshare_version>
43012

> <i_f3d_flags>
0

> <s_epik_input>
W09IXVtDSDJdW0NIMl1PW0NIMl1bQ0gyXU4oW0NIMl1bQ0gyXVtPSF0pYyhuW2NIXW4xKWMoYzEyKW5bY0hdbjJbQ0hdKFtDSDJdMylbQ0gyXUMzKFtDSDJdW09IXSlbQ0gyXVtPSF0=

> <s_epik_cmdline>
J2VwaWtfcHl0aG9uJywgJy1waCcsICc3LjAnLCAnLXRuJywgJzgnLCAnLW1hJywgJzIwMCcsICctbWV0YWxfYmluZGluZycsICctaW1hZScsICc8aW5maWxlLm1hZT4nLCAnLW9tYWUnLCAnPG91dGZpbGUubWFlPic=

> <r_lp_tautomer_probability>
1

> <r_epik_Ionization_Penalty>
0.00545557

> <r_epik_Ionization_Penalty_Charging>
0

> <r_epik_Ionization_Penalty_Neutral>
0.00545557

> <r_epik_State_Penalty>
0.00384469

> <r_epik_Charging_Adjusted_Penalty>
0.00384469

> <i_epik_Tot_Q>
0

> <i_epik_Tot_abs_Q>
0

> <r_epik_Metal_State_Penalty>
-0

> <b_epik_Metal_Only>
0

> <s_lp_Force_Field>
OPLS_2005

> <r_lp_Energy>
40.5801

> <b_lp_Chiralities_Consistent>
1

> <s_lp_Variant>
AV-unprocessed.smi:205-1

> <Gold.Version>
5.8.1

> <Gold.Id.Protein>
6NUR|6NUR_protein|mol2

> <Gold.PLP.Fitness>
58.9376

> <Gold.PLP.PLP>
-52.7727

> <Gold.PLP.part.hbond>
-7.2052

> <Gold.PLP.part.metal>
0.0000

> <Gold.PLP.part.buried>
-7.6062

> <Gold.PLP.part.nonpolar>
-36.6396

> <Gold.PLP.part.repulsive>
0.0000

> <Gold.PLP.ligand.clash>
0.0000

> <Gold.PLP.ligand.torsion>
2.1603

> <Gold.PLP.Chemscore.Hbond>
3.0000

> <Gold.PLP.Chemscore.CHOScore>
0.0000

> <Gold.PLP.Chemscore.Metal>
0.0000

> <Gold.Chemscore.Hbonds>
donor molecule, donor type, donor heavy atom, donor atom, acceptor molecule, acceptor atom, score
      L1  H    26    52       P1  8028  0.99
      P1  H  6896  6907       L1     4  0.99
      P1  H  6896  6909       L1    12  1.00

> <Gold.PLP.Chemscore.Internal.Correction>
1.4855

> <Gold.Rescore>
     Score         DG    S(hbond)    S(metal)    S(lipo)     H(rot)  DE(clash)    DE(int)     intcor
      4.60      -7.83       2.18        0.00     105.68       6.76       0.19       3.04       ----

> <Gold.Chemscore.Fitness>
4.5972

> <Gold.Chemscore.DG>
-7.8310

> <Gold.Chemscore.ZeroCoef>
-5.4800

> <Gold.Chemscore.Hbond>
2.1833

> <Gold.Chemscore.Metal>
0.0000

> <Gold.Chemscore.Lipo>
105.6780

> <Gold.Chemscore.Internal_Hbond>
0.0000

> <Gold.Chemscore.DEClash>
0.1941

> <Gold.Chemscore.DEInternal>
3.0397

> <Gold.Chemscore.Rot>
6.7600

> <Gold.Chemscore.Internal.Correction>
   9.000000E+99

> <Gold.Chemscore.Hbonds>
donor molecule, donor type, donor heavy atom, donor atom, acceptor molecule, acceptor atom, score
      L1  H    26    52       P1  8028  0.45
      P1  H  6896  6907       L1     4  0.53
      P1  H  6896  6909       L1    12  0.57

> <Gold.Chemscore.Hbond.Weighted>
-7.2921

> <Gold.Chemscore.Metal.Weighted>
-0.0000

> <Gold.Chemscore.Lipo.Weighted>
-12.3643

> <Gold.Chemscore.Internal_Hbond.Weighted>
0.0000

> <Gold.Chemscore.DEClash.Weighted>
0.1941

> <Gold.Chemscore.DEInternal.Weighted>
3.0397

> <Gold.Chemscore.Rot.Weighted>
17.3055

> <Gold.Chemscore.Internal.Correction.Weighted>
   9.000000E+99

> <Gold.Protein.RotatedTorsions>
[ 6907 6896 6895 6894 ] final  125.33 input  -60.11 | X-H torsion
[ 7974 7965 7964 7962 ] final  -34.93 input  175.53 | X-H torsion
[ 8008 7997 7996 7995 ] final -122.85 input   59.86 | X-H torsion
[ 10167 10162 10161 10158 ] final   42.28 input  -65.29 | X-H torsion
[ 10718 10713 10712 10709 ] final  -16.30 input   66.30 | X-H torsion
[ 10763 10752 10751 10750 ] final   30.31 input  -60.55 | X-H torsion
[ 11005 11000 10999 10996 ] final -134.21 input  -57.11 | X-H torsion

> <Gold.Protein.ActiveResidues>
 VAL166  LYS551  ARG553  GLY616  TRP617  ASP618  TYR619  PRO620  LYS621  CYS622 
 ASP623  PHE694  ASN695  SER759  ASP760  ASP761  ALA762  ILE779  LEU786  VAL792 
 PHE793  MET794  SER795  GLU796  ALA797  LYS798  CYS799  TRP800  GLU811  SER814 

> <Gold.Protein.RotatedAtoms>
  152.4001  133.6805  159.6309 H   0  0  0  0  0  0  0  0  0  0  0  0  # atno 6907 bound_to 6896
  150.7894  133.8805  159.3293 H   0  0  0  0  0  0  0  0  0  0  0  0  # atno 6908 bound_to 6896
  151.6573  135.0995  160.0224 H   0  0  0  0  0  0  0  0  0  0  0  0  # atno 6909 bound_to 6896
  146.0788  140.6098  142.8918 H   0  0  0  0  0  0  0  0  0  0  0  0  # atno 7974 bound_to 7965
  155.1709  140.0408  157.2862 H   0  0  0  0  0  0  0  0  0  0  0  0  # atno 8008 bound_to 7997
  154.6270  140.2515  155.7452 H   0  0  0  0  0  0  0  0  0  0  0  0  # atno 8009 bound_to 7997
  156.2464  140.2883  156.0604 H   0  0  0  0  0  0  0  0  0  0  0  0  # atno 8010 bound_to 7997
  140.3560  144.2290  150.6141 H   0  0  0  0  0  0  0  0  0  0  0  0  # atno 10167 bound_to 10162
  156.5896  130.4795  149.6285 H   0  0  0  0  0  0  0  0  0  0  0  0  # atno 10718 bound_to 10713
  153.0379  135.6467  154.1025 H   0  0  0  0  0  0  0  0  0  0  0  0  # atno 10763 bound_to 10752
  154.0736  135.2878  155.3305 H   0  0  0  0  0  0  0  0  0  0  0  0  # atno 10764 bound_to 10752
  154.6577  135.5403  153.8044 H   0  0  0  0  0  0  0  0  0  0  0  0  # atno 10765 bound_to 10752
  140.9011  134.1689  157.4460 H   0  0  0  0  0  0  0  0  0  0  0  0  # atno 11005 bound_to 11000
  144.7279  140.4583  143.6959 LP  0  0  0  0  0  0  0  0  0  0  0  0  # atno 17320 bound_to 7965
  145.6256  139.1529  143.2998 LP  0  0  0  0  0  0  0  0  0  0  0  0  # atno 17321 bound_to 7965
  140.5173  143.2274  151.8443 LP  0  0  0  0  0  0  0  0  0  0  0  0  # atno 17342 bound_to 10162
  139.4820  144.4879  151.9224 LP  0  0  0  0  0  0  0  0  0  0  0  0  # atno 17343 bound_to 10162
  156.2561  130.6935  151.1689 LP  0  0  0  0  0  0  0  0  0  0  0  0  # atno 17370 bound_to 10713
  157.7307  131.0614  150.5715 LP  0  0  0  0  0  0  0  0  0  0  0  0  # atno 17371 bound_to 10713
  139.8742  134.9898  156.5474 LP  0  0  0  0  0  0  0  0  0  0  0  0  # atno 17394 bound_to 11000
  140.8229  133.8339  155.8912 LP  0  0  0  0  0  0  0  0  0  0  0  0  # atno 17395 bound_to 11000

$$$$
