AV-unprocessed.smi:572|AV-procd|sdf|2966|dock3
  -GOLD-   2262023473D 1   1.00000     0.00000
 Structure written by MMmdl.
 45 47  0  0  0  0  0  0  0  0  2 V2000
  153.2238  137.8470  159.3178 C   0  0  0  0  0  0  0  0  0  0  0  0
  153.5303  139.0175  158.5804 O   0  0  0  0  0  0  0  0  0  0  0  0
  152.9939  140.1869  159.1730 C   0  0  0  0  0  0  0  0  0  0  0  0
  151.5092  140.2912  158.8055 C   0  0  0  0  0  0  0  0  0  0  0  0
  151.1560  141.6456  158.3560 N   0  0  0  0  0  0  0  0  0  0  0  0
  150.5320  142.0819  157.2261 C   0  0  0  0  0  0  0  0  0  0  0  0
  150.0208  141.2462  156.1300 C   0  0  0  0  0  0  0  0  0  0  0  0
  150.6804  140.0564  155.7619 C   0  0  0  0  0  0  0  0  0  0  0  0
  150.1950  139.2481  154.7056 C   0  0  0  0  0  0  0  0  0  0  0  0
  150.7979  138.0757  154.2973 O   0  0  0  0  0  0  0  0  0  0  0  0
  152.1539  137.8559  154.6575 C   0  0  0  0  0  0  0  0  0  0  0  0
  149.0282  139.6515  154.0216 C   0  0  0  0  0  0  0  0  0  0  0  0
  148.5521  138.8800  152.9993 O   0  0  0  0  0  0  0  0  0  0  0  0
  148.3469  140.8366  154.3746 C   0  0  0  0  0  0  0  0  0  0  0  0
  147.2154  141.1594  153.6533 O   0  0  0  0  0  0  0  0  0  0  0  0
  146.6321  142.4387  153.8512 C   0  0  0  0  0  0  0  0  0  0  0  0
  148.8537  141.6243  155.4368 C   0  0  0  0  0  0  0  0  0  0  0  0
  150.4805  143.4405  157.2542 N   0  3  0  0  0  0  0  0  0  0  0  0
  151.0773  143.8905  158.4340 C   0  0  0  0  0  0  0  0  0  0  0  0
  151.2645  145.1799  158.9223 C   0  0  0  0  0  0  0  0  0  0  0  0
  151.9246  145.2977  160.1630 C   0  0  0  0  0  0  0  0  0  0  0  0
  152.3734  144.1618  160.8673 C   0  0  0  0  0  0  0  0  0  0  0  0
  152.1787  142.8584  160.3642 C   0  0  0  0  0  0  0  0  0  0  0  0
  151.5189  142.7479  159.1404 C   0  0  0  0  0  0  0  0  0  0  0  0
  153.6525  136.9775  158.8198 H   0  0  0  0  0  0  0  0  0  0  0  0
  152.1458  137.6965  159.3900 H   0  0  0  0  0  0  0  0  0  0  0  0
  153.6393  137.8956  160.3253 H   0  0  0  0  0  0  0  0  0  0  0  0
  153.1144  140.1459  160.2569 H   0  0  0  0  0  0  0  0  0  0  0  0
  153.5292  141.0673  158.8133 H   0  0  0  0  0  0  0  0  0  0  0  0
  151.2739  139.5924  158.0038 H   0  0  0  0  0  0  0  0  0  0  0  0
  150.8741  140.0139  159.6470 H   0  0  0  0  0  0  0  0  0  0  0  0
  151.5658  139.7783  156.3132 H   0  0  0  0  0  0  0  0  0  0  0  0
  152.4815  136.8968  154.2569 H   0  0  0  0  0  0  0  0  0  0  0  0
  152.2779  137.8197  155.7407 H   0  0  0  0  0  0  0  0  0  0  0  0
  152.8063  138.6263  154.2440 H   0  0  0  0  0  0  0  0  0  0  0  0
  148.8871  137.9966  153.0222 H   0  0  0  0  0  0  0  0  0  0  0  0
  145.7669  142.5440  153.1968 H   0  0  0  0  0  0  0  0  0  0  0  0
  147.3315  143.2380  153.6033 H   0  0  0  0  0  0  0  0  0  0  0  0
  146.2862  142.5648  154.8778 H   0  0  0  0  0  0  0  0  0  0  0  0
  148.3623  142.5375  155.7363 H   0  0  0  0  0  0  0  0  0  0  0  0
  150.9256  146.0525  158.3834 H   0  0  0  0  0  0  0  0  0  0  0  0
  152.0923  146.2794  160.5818 H   0  0  0  0  0  0  0  0  0  0  0  0
  152.8781  144.2927  161.8137 H   0  0  0  0  0  0  0  0  0  0  0  0
  152.5293  141.9967  160.9126 H   0  0  0  0  0  0  0  0  0  0  0  0
  150.0690  144.0105  156.5264 H   0  0  0  0  0  0  0  0  0  0  0  0
  1  2  1  0  0  0  0
  1 25  1  0  0  0  0
  1 26  1  0  0  0  0
  1 27  1  0  0  0  0
  2  3  1  0  0  0  0
  3  4  1  0  0  0  0
  3 28  1  0  0  0  0
  3 29  1  0  0  0  0
  4  5  1  0  0  0  0
  4 30  1  0  0  0  0
  4 31  1  0  0  0  0
  5 24  1  0  0  0  0
  5  6  1  0  0  0  0
  6  7  1  0  0  0  0
  6 18  2  0  0  0  0
  7 17  1  0  0  0  0
  7  8  2  0  0  0  0
  8  9  1  0  0  0  0
  8 32  1  0  0  0  0
  9 10  1  0  0  0  0
  9 12  2  0  0  0  0
 10 11  1  0  0  0  0
 11 33  1  0  0  0  0
 11 34  1  0  0  0  0
 11 35  1  0  0  0  0
 12 13  1  0  0  0  0
 12 14  1  0  0  0  0
 13 36  1  0  0  0  0
 14 15  1  0  0  0  0
 14 17  2  0  0  0  0
 15 16  1  0  0  0  0
 16 37  1  0  0  0  0
 16 38  1  0  0  0  0
 16 39  1  0  0  0  0
 17 40  1  0  0  0  0
 18 19  1  0  0  0  0
 18 45  1  0  0  0  0
 19 24  2  0  0  0  0
 19 20  1  0  0  0  0
 20 21  2  0  0  0  0
 20 41  1  0  0  0  0
 21 22  1  0  0  0  0
 21 42  1  0  0  0  0
 22 23  2  0  0  0  0
 22 43  1  0  0  0  0
 23 24  1  0  0  0  0
 23 44  1  0  0  0  0
M  CHG  1  18   1
M  END
> <s_m_source_file>
AV-unprocessed.smi

> <i_m_source_file_index>
572

> <i_lp_mmshare_version>
43012

> <i_f3d_flags>
0

> <s_epik_input>
W2NIXTFbY0hdW2NIXVtjSF1jKGMxMiluKFtDSDJdW0NIMl1PW0NIM10pYyhuMiktYzNbY0hdYyhPW0NIM10pYyhbT0hdKWMoW2NIXTMpT1tDSDNd

> <s_epik_cmdline>
J2VwaWtfcHl0aG9uJywgJy1waCcsICc3LjAnLCAnLXRuJywgJzgnLCAnLW1hJywgJzIwMCcsICctbWV0YWxfYmluZGluZycsICctaW1hZScsICc8aW5maWxlLm1hZT4nLCAnLW9tYWUnLCAnPG91dGZpbGUubWFlPic=

> <r_lp_tautomer_probability>
1

> <r_epik_Ionization_Penalty>
0.612873

> <r_epik_Ionization_Penalty_Charging>
0.607243

> <r_epik_Ionization_Penalty_Neutral>
0.00563032

> <r_epik_State_Penalty>
0.761569

> <r_epik_Charging_Adjusted_Penalty>
1.36881

> <i_epik_Tot_Q>
1

> <i_epik_Tot_abs_Q>
1

> <r_epik_Metal_State_Penalty>
4.6608

> <b_epik_Metal_Only>
0

> <s_lp_Force_Field>
OPLS_2005

> <r_lp_Energy>
27.0724

> <b_lp_Chiralities_Consistent>
1

> <s_lp_Variant>
AV-unprocessed.smi:572-2

> <Gold.Version>
5.8.1

> <Gold.Id.Protein>
6NUR|6NUR_protein|mol2

> <Gold.PLP.Fitness>
61.6278

> <Gold.PLP.PLP>
-53.0149

> <Gold.PLP.part.hbond>
-3.1329

> <Gold.PLP.part.metal>
0.0000

> <Gold.PLP.part.buried>
-4.3746

> <Gold.PLP.part.nonpolar>
-45.4841

> <Gold.PLP.part.repulsive>
0.3960

> <Gold.PLP.ligand.clash>
0.0000

> <Gold.PLP.ligand.torsion>
1.3317

> <Gold.PLP.Chemscore.Hbond>
3.7293

> <Gold.PLP.Chemscore.CHOScore>
0.0000

> <Gold.PLP.Chemscore.Metal>
0.0000

> <Gold.Chemscore.Hbonds>
donor molecule, donor type, donor heavy atom, donor atom, acceptor molecule, acceptor atom, score
      L1  H    13    36       P1  7948  0.70
      L1  H    18    45       P1  8028  2.00
      P1  H  7997  8010       L1     2  0.62

> <Gold.PLP.Chemscore.Internal.Correction>
0.0885

> <Gold.Rescore>
     Score         DG    S(hbond)    S(metal)    S(lipo)     H(rot)  DE(clash)    DE(int)     intcor
     21.52     -22.71       2.05        0.00     138.16       2.26       0.34       0.85       ----

> <Gold.Chemscore.Fitness>
21.5212

> <Gold.Chemscore.DG>
-22.7089

> <Gold.Chemscore.ZeroCoef>
-5.4800

> <Gold.Chemscore.Hbond>
2.0528

> <Gold.Chemscore.Metal>
0.0000

> <Gold.Chemscore.Lipo>
138.1613

> <Gold.Chemscore.Internal_Hbond>
0.0000

> <Gold.Chemscore.DEClash>
0.3366

> <Gold.Chemscore.DEInternal>
0.8510

> <Gold.Chemscore.Rot>
2.2626

> <Gold.Chemscore.Internal.Correction>
   9.000000E+99

> <Gold.Chemscore.Hbonds>
donor molecule, donor type, donor heavy atom, donor atom, acceptor molecule, acceptor atom, score
      L1  H    13    36       P1  7948  0.68
      L1  H    18    45       P1  8028  0.98
      P1  H  7997  8010       L1     2  0.11

> <Gold.Chemscore.Hbond.Weighted>
-6.8562

> <Gold.Chemscore.Metal.Weighted>
-0.0000

> <Gold.Chemscore.Lipo.Weighted>
-16.1649

> <Gold.Chemscore.Internal_Hbond.Weighted>
0.0000

> <Gold.Chemscore.DEClash.Weighted>
0.3366

> <Gold.Chemscore.DEInternal.Weighted>
0.8510

> <Gold.Chemscore.Rot.Weighted>
5.7922

> <Gold.Chemscore.Internal.Correction.Weighted>
   9.000000E+99

> <Gold.Protein.RotatedTorsions>
[ 6907 6896 6895 6894 ] final  -94.06 input  -60.11 | X-H torsion
[ 7974 7965 7964 7962 ] final -140.96 input  175.53 | X-H torsion
[ 8008 7997 7996 7995 ] final   14.79 input   59.86 | X-H torsion
[ 10167 10162 10161 10158 ] final   33.28 input  -65.29 | X-H torsion
[ 10718 10713 10712 10709 ] final  -85.59 input   66.30 | X-H torsion
[ 10763 10752 10751 10750 ] final   51.80 input  -60.55 | X-H torsion
[ 11005 11000 10999 10996 ] final   48.16 input  -57.11 | X-H torsion

> <Gold.Protein.ActiveResidues>
 VAL166  LYS551  ARG553  GLY616  TRP617  ASP618  TYR619  PRO620  LYS621  CYS622 
 ASP623  PHE694  ASN695  SER759  ASP760  ASP761  ALA762  ILE779  LEU786  VAL792 
 PHE793  MET794  SER795  GLU796  ALA797  LYS798  CYS799  TRP800  GLU811  SER814 

> <Gold.Protein.RotatedAtoms>
  150.6934  134.1870  159.4270 H   0  0  0  0  0  0  0  0  0  0  0  0  # atno 6907 bound_to 6896
  151.9842  135.0010  160.0568 H   0  0  0  0  0  0  0  0  0  0  0  0  # atno 6908 bound_to 6896
  152.1727  133.4619  159.4954 H   0  0  0  0  0  0  0  0  0  0  0  0  # atno 6909 bound_to 6896
  144.8556  140.6138  143.5361 H   0  0  0  0  0  0  0  0  0  0  0  0  # atno 7974 bound_to 7965
  154.8534  140.2933  155.5584 H   0  0  0  0  0  0  0  0  0  0  0  0  # atno 8008 bound_to 7997
  156.3017  140.2491  156.3429 H   0  0  0  0  0  0  0  0  0  0  0  0  # atno 8009 bound_to 7997
  154.8996  140.0392  157.1874 H   0  0  0  0  0  0  0  0  0  0  0  0  # atno 8010 bound_to 7997
  140.4421  144.1171  150.6176 H   0  0  0  0  0  0  0  0  0  0  0  0  # atno 10167 bound_to 10162
  155.9995  130.4736  150.4585 H   0  0  0  0  0  0  0  0  0  0  0  0  # atno 10718 bound_to 10713
  152.9786  135.5833  154.4475 H   0  0  0  0  0  0  0  0  0  0  0  0  # atno 10763 bound_to 10752
  154.4068  135.2769  155.2064 H   0  0  0  0  0  0  0  0  0  0  0  0  # atno 10764 bound_to 10752
  154.3871  135.6134  153.5876 H   0  0  0  0  0  0  0  0  0  0  0  0  # atno 10765 bound_to 10752
  140.1215  134.4823  155.8593 H   0  0  0  0  0  0  0  0  0  0  0  0  # atno 11005 bound_to 11000
  145.4412  139.1535  143.3969 LP  0  0  0  0  0  0  0  0  0  0  0  0  # atno 17320 bound_to 7965
  146.2821  140.4533  142.8772 LP  0  0  0  0  0  0  0  0  0  0  0  0  # atno 17321 bound_to 7965
  140.4306  143.2570  151.9601 LP  0  0  0  0  0  0  0  0  0  0  0  0  # atno 17342 bound_to 10162
  139.4790  144.5748  151.8030 LP  0  0  0  0  0  0  0  0  0  0  0  0  # atno 17343 bound_to 10162
  157.2612  131.0567  151.2319 LP  0  0  0  0  0  0  0  0  0  0  0  0  # atno 17370 bound_to 10713
  157.3433  130.7044  149.6395 LP  0  0  0  0  0  0  0  0  0  0  0  0  # atno 17371 bound_to 10713
  141.2152  133.6762  156.6898 LP  0  0  0  0  0  0  0  0  0  0  0  0  # atno 17394 bound_to 11000
  140.2959  134.8203  157.4056 LP  0  0  0  0  0  0  0  0  0  0  0  0  # atno 17395 bound_to 11000

$$$$
