AV-unprocessed.smi:2845|AV-procd|sdf|10948|dock9
  -GOLD-   2272015403D 1   1.00000     0.00000
 Structure written by MMmdl.
 43 45  0  0  0  0  0  0  0  0  2 V2000
  152.2073  144.1234  161.0258 C   0  0  0  0  0  0  0  0  0  0  0  0
  152.0466  143.1324  159.8855 C   0  0  0  0  0  0  0  0  0  0  0  0
  151.1945  143.4729  158.8101 C   0  0  0  0  0  0  0  0  0  0  0  0
  151.0699  142.5464  157.7815 C   0  0  0  0  0  0  0  0  0  0  0  0
  150.3227  142.5808  156.6014 N   0  3  0  0  0  0  0  0  0  0  0  0
  150.5268  141.4310  155.8997 C   0  0  0  0  0  0  0  0  0  0  0  0
  151.3906  140.6627  156.6170 N   0  0  0  0  0  0  0  0  0  0  0  0
  151.9501  139.3372  156.3265 C   0  0  0  0  0  0  0  0  0  0  0  0
  152.5104  139.2335  154.8914 C   0  0  1  0  0  0  0  0  0  0  0  0
  153.9118  139.0614  154.9463 O   0  0  0  0  0  0  0  0  0  0  0  0
  151.8979  138.0792  154.0712 C   0  0  0  0  0  0  0  0  0  0  0  0
  150.9790  137.2584  154.8422 N   0  0  0  0  0  0  0  0  0  0  0  0
  149.7594  137.5310  155.3165 C   0  0  0  0  0  0  0  0  0  0  0  0
  149.2066  136.5311  155.9921 N   0  0  0  0  0  0  0  0  0  0  0  0
  150.2207  135.6234  155.8957 C   0  0  0  0  0  0  0  0  0  0  0  0
  150.0786  133.9512  156.5995 S   0  0  1  0  0  0  0  0  0  0  0  0
  150.0760  133.0777  154.9638 C   0  0  0  0  0  0  0  0  0  0  0  0
  151.4286  133.6541  157.2560 O   0  0  0  0  0  0  0  0  0  0  0  0
  151.3128  136.0072  155.2398 N   0  0  0  0  0  0  0  0  0  0  0  0
  151.7574  141.3179  157.7971 C   0  0  0  0  0  0  0  0  0  0  0  0
  152.5996  140.9659  158.8490 C   0  0  0  0  0  0  0  0  0  0  0  0
  152.7394  141.8940  159.9048 C   0  0  0  0  0  0  0  0  0  0  0  0
  153.6507  141.5365  161.0665 C   0  0  0  0  0  0  0  0  0  0  0  0
  151.6028  145.0170  160.8668 H   0  0  0  0  0  0  0  0  0  0  0  0
  153.2476  144.4367  161.1161 H   0  0  0  0  0  0  0  0  0  0  0  0
  151.8968  143.6753  161.9701 H   0  0  0  0  0  0  0  0  0  0  0  0
  150.6637  144.4136  158.7894 H   0  0  0  0  0  0  0  0  0  0  0  0
  150.0836  141.1752  154.9478 H   0  0  0  0  0  0  0  0  0  0  0  0
  152.7349  139.1377  157.0575 H   0  0  0  0  0  0  0  0  0  0  0  0
  151.1679  138.5997  156.5093 H   0  0  0  0  0  0  0  0  0  0  0  0
  152.3268  140.1699  154.3630 H   0  0  0  0  0  0  0  0  0  0  0  0
  154.0969  138.1386  155.0298 H   0  0  0  0  0  0  0  0  0  0  0  0
  151.3580  138.4714  153.2084 H   0  0  0  0  0  0  0  0  0  0  0  0
  152.6880  137.4348  153.6827 H   0  0  0  0  0  0  0  0  0  0  0  0
  149.2616  138.4761  155.1561 H   0  0  0  0  0  0  0  0  0  0  0  0
  149.3553  133.5344  154.2851 H   0  0  0  0  0  0  0  0  0  0  0  0
  149.8073  132.0304  155.0987 H   0  0  0  0  0  0  0  0  0  0  0  0
  151.0635  133.1261  154.5053 H   0  0  0  0  0  0  0  0  0  0  0  0
  153.1255  140.0230  158.8651 H   0  0  0  0  0  0  0  0  0  0  0  0
  154.1048  140.5553  160.9294 H   0  0  0  0  0  0  0  0  0  0  0  0
  153.0898  141.5139  162.0011 H   0  0  0  0  0  0  0  0  0  0  0  0
  154.4558  142.2652  161.1613 H   0  0  0  0  0  0  0  0  0  0  0  0
  149.7191  143.3329  156.2943 H   0  0  0  0  0  0  0  0  0  0  0  0
  1  2  1  0  0  0  0
  1 24  1  0  0  0  0
  1 25  1  0  0  0  0
  1 26  1  0  0  0  0
  2 22  1  0  0  0  0
  2  3  2  0  0  0  0
  3  4  1  0  0  0  0
  3 27  1  0  0  0  0
  4 20  2  0  0  0  0
  4  5  1  0  0  0  0
  5  6  2  0  0  0  0
  5 43  1  0  0  0  0
  6  7  1  0  0  0  0
  6 28  1  0  0  0  0
  7  8  1  0  0  0  0
  7 20  1  0  0  0  0
  8  9  1  0  0  0  0
  8 29  1  0  0  0  0
  8 30  1  0  0  0  0
  9 10  1  0  0  0  0
  9 11  1  0  0  0  0
  9 31  1  0  0  0  0
 10 32  1  0  0  0  0
 11 12  1  0  0  0  0
 11 33  1  0  0  0  0
 11 34  1  0  0  0  0
 12 19  1  0  0  0  0
 12 13  1  0  0  0  0
 13 14  2  0  0  0  0
 13 35  1  0  0  0  0
 14 15  1  0  0  0  0
 15 16  1  0  0  0  0
 15 19  2  0  0  0  0
 16 17  1  0  0  0  0
 16 18  2  0  0  0  0
 17 36  1  0  0  0  0
 17 37  1  0  0  0  0
 17 38  1  0  0  0  0
 20 21  1  0  0  0  0
 21 22  2  0  0  0  0
 21 39  1  0  0  0  0
 22 23  1  0  0  0  0
 23 40  1  0  0  0  0
 23 41  1  0  0  0  0
 23 42  1  0  0  0  0
M  CHG  1   5   1
M  END
> <s_m_source_file>
AV-unprocessed.smi

> <i_m_source_file_index>
2845

> <i_lp_mmshare_version>
43012

> <i_f3d_flags>
0

> <s_epik_input>
W0NIM11jKFtjSF0xKWMoW0NIM10pW2NIXWMoYzEyKW4oW2NIXW4yKVtDSDJdW0NASF0oW09IXSlbQ0gyXW4zW2NIXW5jKG4zKVtTQF0oPU8pW0NIM10=

> <s_epik_cmdline>
J2VwaWtfcHl0aG9uJywgJy1waCcsICc3LjAnLCAnLXRuJywgJzgnLCAnLW1hJywgJzIwMCcsICctbWV0YWxfYmluZGluZycsICctaW1hZScsICc8aW5maWxlLm1hZT4nLCAnLW9tYWUnLCAnPG91dGZpbGUubWFlPic=

> <r_lp_tautomer_probability>
1

> <r_epik_Ionization_Penalty>
1.12076

> <r_epik_Ionization_Penalty_Charging>
1.12075

> <r_epik_Ionization_Penalty_Neutral>
1.54566e-06

> <r_epik_State_Penalty>
1.17957

> <r_epik_Charging_Adjusted_Penalty>
2.30033

> <i_epik_Tot_Q>
1

> <i_epik_Tot_abs_Q>
1

> <r_epik_Metal_State_Penalty>
1.26402

> <b_epik_Metal_Only>
0

> <s_lp_Force_Field>
OPLS_2005

> <r_lp_Energy>
13.65

> <b_lp_Chiralities_Consistent>
1

> <s_lp_Variant>
AV-unprocessed.smi:2845-6

> <Gold.Version>
5.8.1

> <Gold.Id.Protein>
6NUR|6NUR_protein|mol2

> <Gold.PLP.Fitness>
57.7885

> <Gold.PLP.PLP>
-48.6933

> <Gold.PLP.part.hbond>
-3.7312

> <Gold.PLP.part.metal>
0.0000

> <Gold.PLP.part.buried>
-6.8688

> <Gold.PLP.part.nonpolar>
-38.7830

> <Gold.PLP.part.repulsive>
0.2159

> <Gold.PLP.ligand.clash>
0.0000

> <Gold.PLP.ligand.torsion>
2.6973

> <Gold.PLP.Chemscore.Hbond>
4.4880

> <Gold.PLP.Chemscore.CHOScore>
0.0000

> <Gold.PLP.Chemscore.Metal>
0.0000

> <Gold.Chemscore.Hbonds>
donor molecule, donor type, donor heavy atom, donor atom, acceptor molecule, acceptor atom, score
      L1  H     5    43       P1  8028  2.00
      P1  H  6896  6908       L1    18  0.53
      P1  H  7997  8009       L1    10  0.94
      P1  H 10752 10763       L1    19  1.00

> <Gold.PLP.Chemscore.Internal.Correction>
1.0258

> <Gold.Rescore>
     Score         DG    S(hbond)    S(metal)    S(lipo)     H(rot)  DE(clash)    DE(int)     intcor
     17.44     -20.37       2.99        0.00     102.42       2.77       0.09       2.84       ----

> <Gold.Chemscore.Fitness>
17.4407

> <Gold.Chemscore.DG>
-20.3703

> <Gold.Chemscore.ZeroCoef>
-5.4800

> <Gold.Chemscore.Hbond>
2.9921

> <Gold.Chemscore.Metal>
0.0000

> <Gold.Chemscore.Lipo>
102.4194

> <Gold.Chemscore.Internal_Hbond>
0.0000

> <Gold.Chemscore.DEClash>
0.0901

> <Gold.Chemscore.DEInternal>
2.8394

> <Gold.Chemscore.Rot>
2.7681

> <Gold.Chemscore.Internal.Correction>
   9.000000E+99

> <Gold.Chemscore.Hbonds>
donor molecule, donor type, donor heavy atom, donor atom, acceptor molecule, acceptor atom, score
      L1  H     5    43       P1  8028  1.00
      P1  H  6896  6908       L1    18  0.44
      P1  H  7997  8009       L1    10  0.68
      P1  H 10752 10763       L1    19  0.59

> <Gold.Chemscore.Hbond.Weighted>
-9.9935

> <Gold.Chemscore.Metal.Weighted>
-0.0000

> <Gold.Chemscore.Lipo.Weighted>
-11.9831

> <Gold.Chemscore.Internal_Hbond.Weighted>
0.0000

> <Gold.Chemscore.DEClash.Weighted>
0.0901

> <Gold.Chemscore.DEInternal.Weighted>
2.8394

> <Gold.Chemscore.Rot.Weighted>
7.0863

> <Gold.Chemscore.Internal.Correction.Weighted>
   9.000000E+99

> <Gold.Protein.RotatedTorsions>
[ 6907 6896 6895 6894 ] final   83.55 input  -60.11 | X-H torsion
[ 7974 7965 7964 7962 ] final   92.90 input  175.53 | X-H torsion
[ 8008 7997 7996 7995 ] final -125.90 input   59.86 | X-H torsion
[ 10167 10162 10161 10158 ] final  122.55 input  -65.29 | X-H torsion
[ 10718 10713 10712 10709 ] final   84.09 input   66.30 | X-H torsion
[ 10763 10752 10751 10750 ] final   49.80 input  -60.55 | X-H torsion
[ 11005 11000 10999 10996 ] final  172.31 input  -57.11 | X-H torsion

> <Gold.Protein.ActiveResidues>
 VAL166  LYS551  ARG553  GLY616  TRP617  ASP618  TYR619  PRO620  LYS621  CYS622 
 ASP623  PHE694  ASN695  SER759  ASP760  ASP761  ALA762  ILE779  LEU786  VAL792 
 PHE793  MET794  SER795  GLU796  ALA797  LYS798  CYS799  TRP800  GLU811  SER814 

> <Gold.Protein.RotatedAtoms>
  152.5330  134.2878  159.9031 H   0  0  0  0  0  0  0  0  0  0  0  0  # atno 6907 bound_to 6896
  151.2831  133.4194  159.2636 H   0  0  0  0  0  0  0  0  0  0  0  0  # atno 6908 bound_to 6896
  151.0266  134.9524  159.8145 H   0  0  0  0  0  0  0  0  0  0  0  0  # atno 6909 bound_to 6896
  145.4861  139.2277  143.2856 H   0  0  0  0  0  0  0  0  0  0  0  0  # atno 7974 bound_to 7965
  155.2208  140.0422  157.2948 H   0  0  0  0  0  0  0  0  0  0  0  0  # atno 8008 bound_to 7997
  154.5951  140.2437  155.7839 H   0  0  0  0  0  0  0  0  0  0  0  0  # atno 8009 bound_to 7997
  156.2284  140.2946  156.0135 H   0  0  0  0  0  0  0  0  0  0  0  0  # atno 8010 bound_to 7997
  139.5852  144.7003  151.3427 H   0  0  0  0  0  0  0  0  0  0  0  0  # atno 10167 bound_to 10162
  157.6891  131.0118  150.2621 H   0  0  0  0  0  0  0  0  0  0  0  0  # atno 10718 bound_to 10713
  152.9786  135.5900  154.4148 H   0  0  0  0  0  0  0  0  0  0  0  0  # atno 10763 bound_to 10752
  154.3779  135.2767  155.2230 H   0  0  0  0  0  0  0  0  0  0  0  0  # atno 10764 bound_to 10752
  154.4157  135.6071  153.6034 H   0  0  0  0  0  0  0  0  0  0  0  0  # atno 10765 bound_to 10752
  140.3284  134.7378  157.4116 H   0  0  0  0  0  0  0  0  0  0  0  0  # atno 11005 bound_to 11000
  146.2312  140.5651  142.8974 LP  0  0  0  0  0  0  0  0  0  0  0  0  # atno 17320 bound_to 7965
  144.7861  140.5939  143.6573 LP  0  0  0  0  0  0  0  0  0  0  0  0  # atno 17321 bound_to 7965
  140.7125  143.7354  150.7593 LP  0  0  0  0  0  0  0  0  0  0  0  0  # atno 17342 bound_to 10162
  140.0896  143.4890  152.2486 LP  0  0  0  0  0  0  0  0  0  0  0  0  # atno 17343 bound_to 10162
  156.3198  130.3784  149.7585 LP  0  0  0  0  0  0  0  0  0  0  0  0  # atno 17370 bound_to 10713
  156.5159  130.8193  151.3186 LP  0  0  0  0  0  0  0  0  0  0  0  0  # atno 17371 bound_to 10713
  140.0882  134.5637  155.8471 LP  0  0  0  0  0  0  0  0  0  0  0  0  # atno 17394 bound_to 11000
  141.2069  133.6660  156.6275 LP  0  0  0  0  0  0  0  0  0  0  0  0  # atno 17395 bound_to 11000

$$$$
