AV-unprocessed.smi:14|AV-procd|sdf|78|dock9
  -GOLD-   2262015203D 1   1.00000     0.00000
 Structure written by MMmdl.
 57 60  0  0  0  0  0  0  0  0  1 V2000
  150.6512  139.8994  156.1052 N   0  0  0  0  0  0  0  0  0  0  0  0
  151.4888  140.3360  156.7734 C   0  0  0  0  0  0  0  0  0  0  0  0
  152.5527  140.8904  157.6232 C   0  0  0  0  0  0  0  0  0  0  0  0
  152.4326  140.4271  159.0833 C   0  0  0  0  0  0  0  0  0  0  0  0
  153.4962  140.9575  159.9393 N   0  0  0  0  0  0  0  0  0  0  0  0
  153.3039  142.3065  160.4763 C   0  0  0  0  0  0  0  0  0  0  0  0
  152.2604  143.1453  159.7085 C   0  0  1  0  0  0  0  0  0  0  0  0
  151.7024  144.3369  160.4660 C   0  0  0  0  0  0  0  0  0  0  0  0
  151.1651  145.2169  159.3414 C   0  0  0  0  0  0  0  0  0  0  0  0
  151.9668  144.9296  158.1997 O   0  0  0  0  0  0  0  0  0  0  0  0
  152.8462  143.8473  158.4840 C   0  0  0  0  0  0  0  0  0  0  0  0
  154.1887  140.0930  160.7299 C   0  0  0  0  0  0  0  0  0  0  0  0
  155.1032  139.2565  160.1684 N   0  0  0  0  0  0  0  0  0  0  0  0
  155.7676  138.3743  160.9189 C   0  0  0  0  0  0  0  0  0  0  0  0
  155.6761  138.1621  162.2318 N   0  0  0  0  0  0  0  0  0  0  0  0
  154.7737  139.0052  162.8084 C   0  0  0  0  0  0  0  0  0  0  0  0
  153.9922  139.9897  162.1379 C   0  0  0  0  0  0  0  0  0  0  0  0
  153.1865  140.6526  163.0561 N   0  0  0  0  0  0  0  0  0  0  0  0
  153.4606  140.0812  164.1962 C   0  0  0  0  0  0  0  0  0  0  0  0
  154.4175  139.0928  164.1440 N   0  0  0  0  0  0  0  0  0  0  0  0
  154.9049  138.2949  165.2615 C   0  0  0  0  0  0  0  0  0  0  0  0
  153.8377  137.3861  165.9511 C   0  0  0  0  0  0  0  0  0  0  0  0
  153.4435  136.2437  164.9728 C   0  0  0  0  0  0  0  0  0  0  0  0
  152.5164  135.3267  165.5194 O   0  0  0  0  0  0  0  0  0  0  0  0
  154.4484  136.7910  167.2469 C   0  0  0  0  0  0  0  0  0  0  0  0
  154.6137  137.8396  168.3627 C   0  0  0  0  0  0  0  0  0  0  0  0
  153.3633  138.4597  168.6353 O   0  0  0  0  0  0  0  0  0  0  0  0
  152.8411  139.1654  167.5166 C   0  0  0  0  0  0  0  0  0  0  0  0
  152.5737  138.1880  166.3568 C   0  0  0  0  0  0  0  0  0  0  0  0
  153.5057  140.5968  157.1847 H   0  0  0  0  0  0  0  0  0  0  0  0
  152.4916  141.9774  157.5649 H   0  0  0  0  0  0  0  0  0  0  0  0
  151.4682  140.7509  159.4761 H   0  0  0  0  0  0  0  0  0  0  0  0
  152.4267  139.3374  159.1329 H   0  0  0  0  0  0  0  0  0  0  0  0
  153.0555  142.2821  161.5356 H   0  0  0  0  0  0  0  0  0  0  0  0
  154.2673  142.8150  160.4248 H   0  0  0  0  0  0  0  0  0  0  0  0
  151.4357  142.5123  159.3777 H   0  0  0  0  0  0  0  0  0  0  0  0
  150.9293  144.0698  161.1860 H   0  0  0  0  0  0  0  0  0  0  0  0
  152.5001  144.8560  160.9999 H   0  0  0  0  0  0  0  0  0  0  0  0
  150.1316  144.9540  159.1128 H   0  0  0  0  0  0  0  0  0  0  0  0
  151.1973  146.2770  159.5943 H   0  0  0  0  0  0  0  0  0  0  0  0
  153.8325  144.2564  158.7088 H   0  0  0  0  0  0  0  0  0  0  0  0
  152.9455  143.1808  157.6269 H   0  0  0  0  0  0  0  0  0  0  0  0
  156.4702  137.7460  160.3916 H   0  0  0  0  0  0  0  0  0  0  0  0
  152.9746  140.3731  165.1159 H   0  0  0  0  0  0  0  0  0  0  0  0
  155.7207  137.6760  164.8852 H   0  0  0  0  0  0  0  0  0  0  0  0
  155.3687  138.9773  165.9721 H   0  0  0  0  0  0  0  0  0  0  0  0
  152.9934  136.6467  164.0657 H   0  0  0  0  0  0  0  0  0  0  0  0
  154.3283  135.6843  164.6671 H   0  0  0  0  0  0  0  0  0  0  0  0
  152.8925  134.4604  165.4818 H   0  0  0  0  0  0  0  0  0  0  0  0
  153.8085  136.0008  167.6402 H   0  0  0  0  0  0  0  0  0  0  0  0
  155.4082  136.3184  167.0347 H   0  0  0  0  0  0  0  0  0  0  0  0
  154.9653  137.3554  169.2738 H   0  0  0  0  0  0  0  0  0  0  0  0
  155.3604  138.5911  168.1055 H   0  0  0  0  0  0  0  0  0  0  0  0
  151.9105  139.6480  167.8149 H   0  0  0  0  0  0  0  0  0  0  0  0
  153.5242  139.9633  167.2260 H   0  0  0  0  0  0  0  0  0  0  0  0
  152.1555  138.7192  165.5024 H   0  0  0  0  0  0  0  0  0  0  0  0
  151.7914  137.5033  166.6852 H   0  0  0  0  0  0  0  0  0  0  0  0
  1  2  3  0  0  0  0
  2  3  1  0  0  0  0
  3  4  1  0  0  0  0
  3 30  1  0  0  0  0
  3 31  1  0  0  0  0
  4  5  1  0  0  0  0
  4 32  1  0  0  0  0
  4 33  1  0  0  0  0
  5  6  1  0  0  0  0
  5 12  1  0  0  0  0
  6  7  1  0  0  0  0
  6 34  1  0  0  0  0
  6 35  1  0  0  0  0
  7 11  1  0  0  0  0
  7  8  1  0  0  0  0
  7 36  1  0  0  0  0
  8  9  1  0  0  0  0
  8 37  1  0  0  0  0
  8 38  1  0  0  0  0
  9 10  1  0  0  0  0
  9 39  1  0  0  0  0
  9 40  1  0  0  0  0
 10 11  1  0  0  0  0
 11 41  1  0  0  0  0
 11 42  1  0  0  0  0
 12 17  1  0  0  0  0
 12 13  2  0  0  0  0
 13 14  1  0  0  0  0
 14 15  2  0  0  0  0
 14 43  1  0  0  0  0
 15 16  1  0  0  0  0
 16 20  1  0  0  0  0
 16 17  2  0  0  0  0
 17 18  1  0  0  0  0
 18 19  2  0  0  0  0
 19 20  1  0  0  0  0
 19 44  1  0  0  0  0
 20 21  1  0  0  0  0
 21 22  1  0  0  0  0
 21 45  1  0  0  0  0
 21 46  1  0  0  0  0
 22 29  1  0  0  0  0
 22 23  1  0  0  0  0
 22 25  1  0  0  0  0
 23 24  1  0  0  0  0
 23 47  1  0  0  0  0
 23 48  1  0  0  0  0
 24 49  1  0  0  0  0
 25 26  1  0  0  0  0
 25 50  1  0  0  0  0
 25 51  1  0  0  0  0
 26 27  1  0  0  0  0
 26 52  1  0  0  0  0
 26 53  1  0  0  0  0
 27 28  1  0  0  0  0
 28 29  1  0  0  0  0
 28 54  1  0  0  0  0
 28 55  1  0  0  0  0
 29 56  1  0  0  0  0
 29 57  1  0  0  0  0
M  END
> <s_m_source_file>
AV-unprocessed.smi

> <i_m_source_file_index>
14

> <i_lp_mmshare_version>
43012

> <i_f3d_flags>
0

> <s_epik_input>
W0NIMl0xT1tDSDJdW0NIMl1bQ0BIXTFbQ0gyXU4oW0NIMl1bQ0gyXUMjTiljKG5bY0hdbjIpYyhjMjMpbltjSF1uM1tDSDJdQzQoW0NIMl1bT0hdKVtDSDJdW0NIMl1PW0NIMl1bQ0gyXTQ=

> <s_epik_cmdline>
J2VwaWtfcHl0aG9uJywgJy1waCcsICc3LjAnLCAnLXRuJywgJzgnLCAnLW1hJywgJzIwMCcsICctbWV0YWxfYmluZGluZycsICctaW1hZScsICc8aW5maWxlLm1hZT4nLCAnLW9tYWUnLCAnPG91dGZpbGUubWFlPic=

> <r_lp_tautomer_probability>
1

> <r_epik_Ionization_Penalty>
0.000542547

> <r_epik_Ionization_Penalty_Charging>
0

> <r_epik_Ionization_Penalty_Neutral>
0.000542547

> <r_epik_State_Penalty>
0.000265709

> <r_epik_Charging_Adjusted_Penalty>
0.000265709

> <i_epik_Tot_Q>
0

> <i_epik_Tot_abs_Q>
0

> <r_epik_Metal_State_Penalty>
-0

> <b_epik_Metal_Only>
0

> <s_lp_Force_Field>
OPLS_2005

> <r_lp_Energy>
43.0361

> <b_lp_Chiralities_Consistent>
1

> <s_lp_Variant>
AV-unprocessed.smi:14-2

> <Gold.Version>
5.8.1

> <Gold.Id.Protein>
6NUR|6NUR_protein|mol2

> <Gold.PLP.Fitness>
50.7291

> <Gold.PLP.PLP>
-50.1428

> <Gold.PLP.part.hbond>
-4.0000

> <Gold.PLP.part.metal>
0.0000

> <Gold.PLP.part.buried>
-5.7121

> <Gold.PLP.part.nonpolar>
-39.9385

> <Gold.PLP.part.repulsive>
0.1960

> <Gold.PLP.ligand.clash>
0.0000

> <Gold.PLP.ligand.torsion>
1.7484

> <Gold.PLP.Chemscore.Hbond>
1.0000

> <Gold.PLP.Chemscore.CHOScore>
0.0000

> <Gold.PLP.Chemscore.Metal>
0.0000

> <Gold.PLP.Chemscore.Internal.Correction>
1.0831

> <Gold.Rescore>
     Score         DG    S(hbond)    S(metal)    S(lipo)     H(rot)  DE(clash)    DE(int)     intcor
      8.36     -11.06       0.86        0.00      94.29       3.26       0.10       2.60       ----

> <Gold.Chemscore.Fitness>
8.3570

> <Gold.Chemscore.DG>
-11.0582

> <Gold.Chemscore.ZeroCoef>
-5.4800

> <Gold.Chemscore.Hbond>
0.8623

> <Gold.Chemscore.Metal>
0.0000

> <Gold.Chemscore.Lipo>
94.2877

> <Gold.Chemscore.Internal_Hbond>
0.0000

> <Gold.Chemscore.DEClash>
0.1029

> <Gold.Chemscore.DEInternal>
2.5983

> <Gold.Chemscore.Rot>
3.2553

> <Gold.Chemscore.Internal.Correction>
   9.000000E+99

> <Gold.Chemscore.Hbond.Weighted>
-2.8801

> <Gold.Chemscore.Metal.Weighted>
-0.0000

> <Gold.Chemscore.Lipo.Weighted>
-11.0317

> <Gold.Chemscore.Internal_Hbond.Weighted>
0.0000

> <Gold.Chemscore.DEClash.Weighted>
0.1029

> <Gold.Chemscore.DEInternal.Weighted>
2.5983

> <Gold.Chemscore.Rot.Weighted>
8.3336

> <Gold.Chemscore.Internal.Correction.Weighted>
   9.000000E+99

> <Gold.Protein.RotatedTorsions>
[ 6907 6896 6895 6894 ] final -157.83 input  -60.11 | X-H torsion
[ 7974 7965 7964 7962 ] final  117.04 input  175.53 | X-H torsion
[ 8008 7997 7996 7995 ] final  119.92 input   59.86 | X-H torsion
[ 10167 10162 10161 10158 ] final  111.05 input  -65.29 | X-H torsion
[ 10718 10713 10712 10709 ] final   39.81 input   66.30 | X-H torsion
[ 10763 10752 10751 10750 ] final   71.87 input  -60.55 | X-H torsion
[ 11005 11000 10999 10996 ] final   -3.83 input  -57.11 | X-H torsion

> <Gold.Protein.ActiveResidues>
 VAL166  LYS551  ARG553  GLY616  TRP617  ASP618  TYR619  PRO620  LYS621  CYS622 
 ASP623  PHE694  ASN695  SER759  ASP760  ASP761  ALA762  ILE779  LEU786  VAL792 
 PHE793  MET794  SER795  GLU796  ALA797  LYS798  CYS799  TRP800  GLU811  SER814 

> <Gold.Protein.RotatedAtoms>
  151.3088  133.4089  159.2645 H   0  0  0  0  0  0  0  0  0  0  0  0  # atno 6907 bound_to 6896
  151.0132  134.9413  159.8029 H   0  0  0  0  0  0  0  0  0  0  0  0  # atno 6908 bound_to 6896
  152.5306  134.3052  159.9146 H   0  0  0  0  0  0  0  0  0  0  0  0  # atno 6909 bound_to 6896
  145.1722  139.3095  143.4462 H   0  0  0  0  0  0  0  0  0  0  0  0  # atno 7974 bound_to 7965
  156.2618  140.2842  156.1067 H   0  0  0  0  0  0  0  0  0  0  0  0  # atno 8008 bound_to 7997
  155.1301  140.0393  157.2790 H   0  0  0  0  0  0  0  0  0  0  0  0  # atno 8009 bound_to 7997
  154.6606  140.2565  155.7119 H   0  0  0  0  0  0  0  0  0  0  0  0  # atno 8010 bound_to 7997
  139.6641  144.7128  151.1809 H   0  0  0  0  0  0  0  0  0  0  0  0  # atno 10167 bound_to 10162
  157.3749  130.7721  149.7147 H   0  0  0  0  0  0  0  0  0  0  0  0  # atno 10718 bound_to 10713
  153.0424  135.5121  154.7658 H   0  0  0  0  0  0  0  0  0  0  0  0  # atno 10763 bound_to 10752
  154.6584  135.2935  154.9900 H   0  0  0  0  0  0  0  0  0  0  0  0  # atno 10764 bound_to 10752
  154.0759  135.6671  153.4883 H   0  0  0  0  0  0  0  0  0  0  0  0  # atno 10765 bound_to 10752
  140.6736  133.9215  155.8510 H   0  0  0  0  0  0  0  0  0  0  0  0  # atno 11005 bound_to 11000
  146.3467  140.1871  142.8589 LP  0  0  0  0  0  0  0  0  0  0  0  0  # atno 17320 bound_to 7965
  145.0221  140.8802  143.5160 LP  0  0  0  0  0  0  0  0  0  0  0  0  # atno 17321 bound_to 7965
  140.7592  143.5947  150.8760 LP  0  0  0  0  0  0  0  0  0  0  0  0  # atno 17342 bound_to 10162
  139.9607  143.6167  152.3003 LP  0  0  0  0  0  0  0  0  0  0  0  0  # atno 17343 bound_to 10162
  155.9763  130.4077  150.3788 LP  0  0  0  0  0  0  0  0  0  0  0  0  # atno 17370 bound_to 10713
  157.1884  131.0409  151.2713 LP  0  0  0  0  0  0  0  0  0  0  0  0  # atno 17371 bound_to 10713
  141.0373  134.0672  157.3944 LP  0  0  0  0  0  0  0  0  0  0  0  0  # atno 17394 bound_to 11000
  139.8974  135.0150  156.7097 LP  0  0  0  0  0  0  0  0  0  0  0  0  # atno 17395 bound_to 11000

$$$$
