AV-unprocessed.smi:870|AV-procd|sdf|4008|dock1
  -GOLD-   22720 1493D 1   1.00000     0.00000
 Structure written by MMmdl.
 46 48  0  0  0  0  0  0  0  0  1 V2000
  140.4242  136.2719  153.8624 C   0  0  0  0  0  0  0  0  0  0  0  0
  141.4335  135.3928  154.3235 O   0  0  0  0  0  0  0  0  0  0  0  0
  142.7376  135.8839  154.0625 C   0  0  0  0  0  0  0  0  0  0  0  0
  143.3456  135.0102  153.0071 C   0  0  0  0  0  0  0  0  0  0  0  0
  142.6519  134.0368  152.4158 N   0  0  0  0  0  0  0  0  0  0  0  0
  143.5778  133.4851  151.5521 C   0  0  0  0  0  0  0  0  0  0  0  0
  143.4581  132.4088  150.6439 C   0  0  0  0  0  0  0  0  0  0  0  0
  144.5596  132.0128  149.8572 C   0  0  0  0  0  0  0  0  0  0  0  0
  145.7939  132.6851  149.9678 C   0  0  0  0  0  0  0  0  0  0  0  0
  145.9345  133.7601  150.8664 C   0  0  0  0  0  0  0  0  0  0  0  0
  144.8312  134.1532  151.6477 C   0  0  0  0  0  0  0  0  0  0  0  0
  144.6343  135.1473  152.6010 N   0  0  0  0  0  0  0  0  0  0  0  0
  145.6298  136.1111  153.0542 C   0  0  0  0  0  0  0  0  0  0  0  0
  145.5712  137.4440  152.2756 C   0  0  1  0  0  0  0  0  0  0  0  0
  144.3132  138.0777  152.3948 O   0  0  0  0  0  0  0  0  0  0  0  0
  146.6724  138.4385  152.6762 C   0  0  0  0  0  0  0  0  0  0  0  0
  146.7433  138.5208  154.0941 O   0  0  0  0  0  0  0  0  0  0  0  0
  147.6000  139.4390  154.6634 C   0  0  0  0  0  0  0  0  0  0  0  0
  148.3386  140.3943  153.9198 C   0  0  0  0  0  0  0  0  0  0  0  0
  149.1953  141.3010  154.5725 C   0  0  0  0  0  0  0  0  0  0  0  0
  149.3253  141.2664  155.9723 C   0  0  0  0  0  0  0  0  0  0  0  0
  148.5969  140.3234  156.7199 C   0  0  0  0  0  0  0  0  0  0  0  0
  147.7375  139.4125  156.0708 C   0  0  0  0  0  0  0  0  0  0  0  0
  146.9540  138.4051  156.8915 C   0  0  0  0  0  0  0  0  0  0  0  0
  139.4433  135.8452  154.0709 H   0  0  0  0  0  0  0  0  0  0  0  0
  140.5007  136.4290  152.7858 H   0  0  0  0  0  0  0  0  0  0  0  0
  140.4858  137.2392  154.3624 H   0  0  0  0  0  0  0  0  0  0  0  0
  142.7137  136.9174  153.7139 H   0  0  0  0  0  0  0  0  0  0  0  0
  143.3459  135.8496  154.9681 H   0  0  0  0  0  0  0  0  0  0  0  0
  142.5171  131.8869  150.5530 H   0  0  0  0  0  0  0  0  0  0  0  0
  144.4572  131.1890  149.1660 H   0  0  0  0  0  0  0  0  0  0  0  0
  146.6329  132.3749  149.3621 H   0  0  0  0  0  0  0  0  0  0  0  0
  146.8787  134.2762  150.9535 H   0  0  0  0  0  0  0  0  0  0  0  0
  145.5031  136.2845  154.1216 H   0  0  0  0  0  0  0  0  0  0  0  0
  146.6158  135.6598  152.9404 H   0  0  0  0  0  0  0  0  0  0  0  0
  145.6916  137.2296  151.2135 H   0  0  0  0  0  0  0  0  0  0  0  0
  143.9559  138.1982  151.5280 H   0  0  0  0  0  0  0  0  0  0  0  0
  147.6271  138.0802  152.2881 H   0  0  0  0  0  0  0  0  0  0  0  0
  146.4789  139.4182  152.2355 H   0  0  0  0  0  0  0  0  0  0  0  0
  148.2664  140.4530  152.8447 H   0  0  0  0  0  0  0  0  0  0  0  0
  149.7534  142.0247  153.9971 H   0  0  0  0  0  0  0  0  0  0  0  0
  149.9829  141.9624  156.4720 H   0  0  0  0  0  0  0  0  0  0  0  0
  148.7006  140.3033  157.7949 H   0  0  0  0  0  0  0  0  0  0  0  0
  147.2447  138.4322  157.9417 H   0  0  0  0  0  0  0  0  0  0  0  0
  147.1240  137.3941  156.5201 H   0  0  0  0  0  0  0  0  0  0  0  0
  145.8872  138.6197  156.8280 H   0  0  0  0  0  0  0  0  0  0  0  0
  1  2  1  0  0  0  0
  1 25  1  0  0  0  0
  1 26  1  0  0  0  0
  1 27  1  0  0  0  0
  2  3  1  0  0  0  0
  3  4  1  0  0  0  0
  3 28  1  0  0  0  0
  3 29  1  0  0  0  0
  4 12  1  0  0  0  0
  4  5  2  0  0  0  0
  5  6  1  0  0  0  0
  6 11  2  0  0  0  0
  6  7  1  0  0  0  0
  7  8  2  0  0  0  0
  7 30  1  0  0  0  0
  8  9  1  0  0  0  0
  8 31  1  0  0  0  0
  9 10  2  0  0  0  0
  9 32  1  0  0  0  0
 10 11  1  0  0  0  0
 10 33  1  0  0  0  0
 11 12  1  0  0  0  0
 12 13  1  0  0  0  0
 13 14  1  0  0  0  0
 13 34  1  0  0  0  0
 13 35  1  0  0  0  0
 14 15  1  0  0  0  0
 14 16  1  0  0  0  0
 14 36  1  0  0  0  0
 15 37  1  0  0  0  0
 16 17  1  0  0  0  0
 16 38  1  0  0  0  0
 16 39  1  0  0  0  0
 17 18  1  0  0  0  0
 18 23  1  0  0  0  0
 18 19  2  0  0  0  0
 19 20  1  0  0  0  0
 19 40  1  0  0  0  0
 20 21  2  0  0  0  0
 20 41  1  0  0  0  0
 21 22  1  0  0  0  0
 21 42  1  0  0  0  0
 22 23  2  0  0  0  0
 22 43  1  0  0  0  0
 23 24  1  0  0  0  0
 24 44  1  0  0  0  0
 24 45  1  0  0  0  0
 24 46  1  0  0  0  0
M  END
> <s_m_source_file>
AV-unprocessed.smi

> <i_m_source_file_index>
870

> <i_lp_mmshare_version>
43012

> <i_f3d_flags>
0

> <s_epik_input>
W2NIXTFbY0hdW2NIXVtjSF1jKGMxMiluKGMobjIpW0NIMl1PW0NIM10pW0NIMl1bQ0BIXShbT0hdKVtDSDJdT2MzW2NIXVtjSF1bY0hdW2NIXWMzW0NIM10=

> <s_epik_cmdline>
J2VwaWtfcHl0aG9uJywgJy1waCcsICc3LjAnLCAnLXRuJywgJzgnLCAnLW1hJywgJzIwMCcsICctbWV0YWxfYmluZGluZycsICctaW1hZScsICc8aW5maWxlLm1hZT4nLCAnLW9tYWUnLCAnPG91dGZpbGUubWFlPic=

> <r_lp_tautomer_probability>
1

> <r_epik_Ionization_Penalty>
0.0447032

> <r_epik_Ionization_Penalty_Charging>
0

> <r_epik_Ionization_Penalty_Neutral>
0.0447032

> <r_epik_State_Penalty>
0.0379025

> <r_epik_Charging_Adjusted_Penalty>
0.0379025

> <i_epik_Tot_Q>
0

> <i_epik_Tot_abs_Q>
0

> <r_epik_Metal_State_Penalty>
3.91398e-05

> <b_epik_Metal_Only>
0

> <s_lp_Force_Field>
OPLS_2005

> <r_lp_Energy>
16.5078

> <b_lp_Chiralities_Consistent>
1

> <s_lp_Variant>
AV-unprocessed.smi:870-2

> <Gold.Version>
5.8.1

> <Gold.Id.Protein>
6NUR|6NUR_protein|mol2

> <Gold.PLP.Fitness>
42.9281

> <Gold.PLP.PLP>
-39.4420

> <Gold.PLP.part.hbond>
-2.6441

> <Gold.PLP.part.metal>
0.0000

> <Gold.PLP.part.buried>
-5.7196

> <Gold.PLP.part.nonpolar>
-32.3525

> <Gold.PLP.part.repulsive>
0.4913

> <Gold.PLP.ligand.clash>
0.0000

> <Gold.PLP.ligand.torsion>
0.9034

> <Gold.PLP.Chemscore.Hbond>
1.6760

> <Gold.PLP.Chemscore.CHOScore>
0.0000

> <Gold.PLP.Chemscore.Metal>
0.0000

> <Gold.Chemscore.Hbonds>
donor molecule, donor type, donor heavy atom, donor atom, acceptor molecule, acceptor atom, score
      L1  H    15    37       P1 10171  1.00
      P1  H 11000 11005       L1     2  0.66

> <Gold.PLP.Chemscore.Internal.Correction>
0.2648

> <Gold.Rescore>
     Score         DG    S(hbond)    S(metal)    S(lipo)     H(rot)  DE(clash)    DE(int)     intcor
     15.34     -16.38       1.50        0.00     102.00       2.36       0.03       1.01       ----

> <Gold.Chemscore.Fitness>
15.3370

> <Gold.Chemscore.DG>
-16.3845

> <Gold.Chemscore.ZeroCoef>
-5.4800

> <Gold.Chemscore.Hbond>
1.4994

> <Gold.Chemscore.Metal>
0.0000

> <Gold.Chemscore.Lipo>
102.0030

> <Gold.Chemscore.Internal_Hbond>
0.0000

> <Gold.Chemscore.DEClash>
0.0328

> <Gold.Chemscore.DEInternal>
1.0146

> <Gold.Chemscore.Rot>
2.3585

> <Gold.Chemscore.Internal.Correction>
   9.000000E+99

> <Gold.Chemscore.Hbonds>
donor molecule, donor type, donor heavy atom, donor atom, acceptor molecule, acceptor atom, score
      L1  H    15    37       P1 10171  0.99
      P1  H 11000 11005       L1     2  0.28

> <Gold.Chemscore.Hbond.Weighted>
-5.0079

> <Gold.Chemscore.Metal.Weighted>
-0.0000

> <Gold.Chemscore.Lipo.Weighted>
-11.9344

> <Gold.Chemscore.Internal_Hbond.Weighted>
0.0000

> <Gold.Chemscore.DEClash.Weighted>
0.0328

> <Gold.Chemscore.DEInternal.Weighted>
1.0146

> <Gold.Chemscore.Rot.Weighted>
6.0378

> <Gold.Chemscore.Internal.Correction.Weighted>
   9.000000E+99

> <Gold.Protein.RotatedTorsions>
[ 6907 6896 6895 6894 ] final   80.32 input  -60.11 | X-H torsion
[ 7974 7965 7964 7962 ] final   34.89 input  175.53 | X-H torsion
[ 8008 7997 7996 7995 ] final   39.77 input   59.86 | X-H torsion
[ 10167 10162 10161 10158 ] final   32.41 input  -65.29 | X-H torsion
[ 10718 10713 10712 10709 ] final  -71.43 input   66.30 | X-H torsion
[ 10763 10752 10751 10750 ] final  -76.71 input  -60.55 | X-H torsion
[ 11005 11000 10999 10996 ] final   19.28 input  -57.11 | X-H torsion

> <Gold.Protein.ActiveResidues>
 VAL166  LYS551  ARG553  GLY616  TRP617  ASP618  TYR619  PRO620  LYS621  CYS622 
 ASP623  PHE694  ASN695  SER759  ASP760  ASP761  ALA762  ILE779  LEU786  VAL792 
 PHE793  MET794  SER795  GLU796  ALA797  LYS798  CYS799  TRP800  GLU811  SER814 

> <Gold.Protein.RotatedAtoms>
  152.5230  134.3376  159.9205 H   0  0  0  0  0  0  0  0  0  0  0  0  # atno 6907 bound_to 6896
  151.3326  133.3988  159.2671 H   0  0  0  0  0  0  0  0  0  0  0  0  # atno 6908 bound_to 6896
  150.9868  134.9230  159.7934 H   0  0  0  0  0  0  0  0  0  0  0  0  # atno 6909 bound_to 6896
  146.1322  139.6212  142.9219 H   0  0  0  0  0  0  0  0  0  0  0  0  # atno 7974 bound_to 7965
  155.2421  140.3346  155.4291 H   0  0  0  0  0  0  0  0  0  0  0  0  # atno 8008 bound_to 7997
  156.2251  140.1826  156.7427 H   0  0  0  0  0  0  0  0  0  0  0  0  # atno 8009 bound_to 7997
  154.5886  140.0641  156.9192 H   0  0  0  0  0  0  0  0  0  0  0  0  # atno 8010 bound_to 7997
  140.4501  144.1061  150.6190 H   0  0  0  0  0  0  0  0  0  0  0  0  # atno 10167 bound_to 10162
  156.0363  130.4351  150.2443 H   0  0  0  0  0  0  0  0  0  0  0  0  # atno 10718 bound_to 10713
  154.5034  135.5788  153.6548 H   0  0  0  0  0  0  0  0  0  0  0  0  # atno 10763 bound_to 10752
  152.9883  135.6141  154.2973 H   0  0  0  0  0  0  0  0  0  0  0  0  # atno 10764 bound_to 10752
  154.2882  135.2849  155.2646 H   0  0  0  0  0  0  0  0  0  0  0  0  # atno 10765 bound_to 10752
  140.4154  134.1574  155.7669 H   0  0  0  0  0  0  0  0  0  0  0  0  # atno 11005 bound_to 11000
  145.5236  141.0430  143.2421 LP  0  0  0  0  0  0  0  0  0  0  0  0  # atno 17320 bound_to 7965
  144.7702  139.6753  143.7198 LP  0  0  0  0  0  0  0  0  0  0  0  0  # atno 17321 bound_to 7965
  140.4217  143.2608  151.9707 LP  0  0  0  0  0  0  0  0  0  0  0  0  # atno 17342 bound_to 10162
  139.4796  144.5825  151.7909 LP  0  0  0  0  0  0  0  0  0  0  0  0  # atno 17343 bound_to 10162
  157.0542  131.0071  151.3244 LP  0  0  0  0  0  0  0  0  0  0  0  0  # atno 17370 bound_to 10713
  157.5118  130.7943  149.7713 LP  0  0  0  0  0  0  0  0  0  0  0  0  # atno 17371 bound_to 10713
  141.1805  133.8424  157.1275 LP  0  0  0  0  0  0  0  0  0  0  0  0  # atno 17394 bound_to 11000
  140.0238  134.9933  157.0644 LP  0  0  0  0  0  0  0  0  0  0  0  0  # atno 17395 bound_to 11000

$$$$
