AV-unprocessed.smi:3218|AV-procd|sdf|12294|dock8
  -GOLD-   2272018133D 1   1.00000     0.00000
 Structure written by MMmdl.
 37 38  0  0  0  0  0  0  0  0  1 V2000
  146.9335  141.4638  154.0241 C   0  0  0  0  0  0  0  0  0  0  0  0
  148.2586  140.8014  154.2691 C   0  0  0  0  0  0  0  0  0  0  0  0
  149.4436  141.3886  154.7975 C   0  0  0  0  0  0  0  0  0  0  0  0
  150.4478  140.5317  154.8849 N   0  0  0  0  0  0  0  0  0  0  0  0
  149.9406  139.3705  154.4198 N   0  0  0  0  0  0  0  0  0  0  0  0
  150.7798  138.1900  154.3612 C   0  0  0  0  0  0  0  0  0  0  0  0
  152.1434  138.4412  155.0185 C   0  0  0  0  0  0  0  0  0  0  0  0
  151.9698  138.6397  156.4478 N   0  0  0  0  0  0  0  0  0  0  0  0
  152.3797  139.9853  156.8118 C   0  0  0  0  0  0  0  0  0  0  0  0
  151.8322  140.3329  158.2042 C   0  0  0  0  0  0  0  0  0  0  0  0
  152.0103  141.7507  158.5011 N   0  0  0  0  0  0  0  0  0  0  0  0
  151.3947  142.7685  157.6661 C   0  0  0  0  0  0  0  0  0  0  0  0
  151.9973  144.0950  158.1503 C   0  0  0  0  0  0  0  0  0  0  0  0
  152.6470  143.7857  159.5034 C   0  0  0  0  0  0  0  0  0  0  0  0
  152.6923  142.2672  159.5301 C   0  0  0  0  0  0  0  0  0  0  0  0
  153.2880  141.6316  160.3987 O   0  0  0  0  0  0  0  0  0  0  0  0
  148.6222  139.5044  154.0399 C   0  0  0  0  0  0  0  0  0  0  0  0
  146.7030  142.2012  154.7932 H   0  0  0  0  0  0  0  0  0  0  0  0
  146.1155  140.7431  154.0154 H   0  0  0  0  0  0  0  0  0  0  0  0
  146.9162  141.9825  153.0656 H   0  0  0  0  0  0  0  0  0  0  0  0
  149.6032  142.4079  155.1168 H   0  0  0  0  0  0  0  0  0  0  0  0
  150.2603  137.3658  154.8531 H   0  0  0  0  0  0  0  0  0  0  0  0
  150.9052  137.9076  153.3149 H   0  0  0  0  0  0  0  0  0  0  0  0
  152.8051  137.5919  154.8422 H   0  0  0  0  0  0  0  0  0  0  0  0
  152.6151  139.3222  154.5811 H   0  0  0  0  0  0  0  0  0  0  0  0
  152.5249  137.9663  156.9565 H   0  0  0  0  0  0  0  0  0  0  0  0
  153.4688  140.0490  156.8047 H   0  0  0  0  0  0  0  0  0  0  0  0
  152.0036  140.6967  156.0750 H   0  0  0  0  0  0  0  0  0  0  0  0
  150.7716  140.0834  158.2635 H   0  0  0  0  0  0  0  0  0  0  0  0
  152.3329  139.7377  158.9700 H   0  0  0  0  0  0  0  0  0  0  0  0
  151.5977  142.5931  156.6088 H   0  0  0  0  0  0  0  0  0  0  0  0
  150.3143  142.7516  157.8154 H   0  0  0  0  0  0  0  0  0  0  0  0
  152.7568  144.4386  157.4466 H   0  0  0  0  0  0  0  0  0  0  0  0
  151.2427  144.8786  158.2267 H   0  0  0  0  0  0  0  0  0  0  0  0
  153.6442  144.2179  159.5921 H   0  0  0  0  0  0  0  0  0  0  0  0
  152.0335  144.1440  160.3307 H   0  0  0  0  0  0  0  0  0  0  0  0
  148.0585  138.6743  153.6395 H   0  0  0  0  0  0  0  0  0  0  0  0
  1  2  1  0  0  0  0
  1 18  1  0  0  0  0
  1 19  1  0  0  0  0
  1 20  1  0  0  0  0
  2 17  2  0  0  0  0
  2  3  1  0  0  0  0
  3  4  2  0  0  0  0
  3 21  1  0  0  0  0
  4  5  1  0  0  0  0
  5  6  1  0  0  0  0
  5 17  1  0  0  0  0
  6  7  1  0  0  0  0
  6 22  1  0  0  0  0
  6 23  1  0  0  0  0
  7  8  1  0  0  0  0
  7 24  1  0  0  0  0
  7 25  1  0  0  0  0
  8  9  1  0  0  0  0
  8 26  1  0  0  0  0
  9 10  1  0  0  0  0
  9 27  1  0  0  0  0
  9 28  1  0  0  0  0
 10 11  1  0  0  0  0
 10 29  1  0  0  0  0
 10 30  1  0  0  0  0
 11 15  1  0  0  0  0
 11 12  1  0  0  0  0
 12 13  1  0  0  0  0
 12 31  1  0  0  0  0
 12 32  1  0  0  0  0
 13 14  1  0  0  0  0
 13 33  1  0  0  0  0
 13 34  1  0  0  0  0
 14 15  1  0  0  0  0
 14 35  1  0  0  0  0
 14 36  1  0  0  0  0
 15 16  2  0  0  0  0
 17 37  1  0  0  0  0
M  END
> <s_m_source_file>
AV-unprocessed.smi

> <i_m_source_file_index>
3218

> <i_lp_mmshare_version>
43012

> <i_f3d_flags>
0

> <s_epik_input>
W0NIM11jMVtjSF1ubihbY0hdMSlbQ0gyXVtDSDJdW05IXVtDSDJdW0NIMl1OMltDSDJdW0NIMl1bQ0gyXUMyPU8=

> <s_epik_cmdline>
J2VwaWtfcHl0aG9uJywgJy1waCcsICc3LjAnLCAnLXRuJywgJzgnLCAnLW1hJywgJzIwMCcsICctbWV0YWxfYmluZGluZycsICctaW1hZScsICc8aW5maWxlLm1hZT4nLCAnLW9tYWUnLCAnPG91dGZpbGUubWFlPic=

> <r_lp_tautomer_probability>
1

> <r_epik_Ionization_Penalty>
2.53806

> <r_epik_Ionization_Penalty_Charging>
0

> <r_epik_Ionization_Penalty_Neutral>
2.53806

> <r_epik_State_Penalty>
2.70334

> <r_epik_Charging_Adjusted_Penalty>
2.70334

> <i_epik_Tot_Q>
0

> <i_epik_Tot_abs_Q>
0

> <r_epik_Metal_State_Penalty>
2.70114

> <b_epik_Metal_Only>
0

> <s_lp_Force_Field>
OPLS_2005

> <r_lp_Energy>
17.5506

> <b_lp_Chiralities_Consistent>
1

> <s_lp_Variant>
AV-unprocessed.smi:3218-2

> <Gold.Version>
5.8.1

> <Gold.Id.Protein>
6NUR|6NUR_protein|mol2

> <Gold.PLP.Fitness>
46.2801

> <Gold.PLP.PLP>
-41.3543

> <Gold.PLP.part.hbond>
-1.0000

> <Gold.PLP.part.metal>
0.0000

> <Gold.PLP.part.buried>
-3.1955

> <Gold.PLP.part.nonpolar>
-37.2527

> <Gold.PLP.part.repulsive>
0.0849

> <Gold.PLP.ligand.clash>
0.0000

> <Gold.PLP.ligand.torsion>
0.5142

> <Gold.PLP.Chemscore.Hbond>
0.9600

> <Gold.PLP.Chemscore.CHOScore>
1.0000

> <Gold.PLP.Chemscore.Metal>
0.0000

> <Gold.Chemscore.Hbonds>
donor molecule, donor type, donor heavy atom, donor atom, acceptor molecule, acceptor atom, score
      P1  H  7989  7998       L1     4  0.89
      L1  C     3    21       P1  8028  1.00

> <Gold.PLP.Chemscore.Internal.Correction>
0.0742

> <Gold.Rescore>
     Score         DG    S(hbond)    S(metal)    S(lipo)     H(rot)  DE(clash)    DE(int)     intcor
     13.25     -14.08       0.82        0.00      92.76       1.95       0.20       0.62       ----

> <Gold.Chemscore.Fitness>
13.2515

> <Gold.Chemscore.DG>
-14.0766

> <Gold.Chemscore.ZeroCoef>
-5.4800

> <Gold.Chemscore.Hbond>
0.8163

> <Gold.Chemscore.Metal>
0.0000

> <Gold.Chemscore.Lipo>
92.7573

> <Gold.Chemscore.Internal_Hbond>
0.0000

> <Gold.Chemscore.DEClash>
0.2022

> <Gold.Chemscore.DEInternal>
0.6229

> <Gold.Chemscore.Rot>
1.9463

> <Gold.Chemscore.Internal.Correction>
   9.000000E+99

> <Gold.Chemscore.Hbonds>
donor molecule, donor type, donor heavy atom, donor atom, acceptor molecule, acceptor atom, score
      P1  H  7989  7998       L1     4  0.11

> <Gold.Chemscore.Hbond.Weighted>
-2.7264

> <Gold.Chemscore.Metal.Weighted>
-0.0000

> <Gold.Chemscore.Lipo.Weighted>
-10.8526

> <Gold.Chemscore.Internal_Hbond.Weighted>
0.0000

> <Gold.Chemscore.DEClash.Weighted>
0.2022

> <Gold.Chemscore.DEInternal.Weighted>
0.6229

> <Gold.Chemscore.Rot.Weighted>
4.9824

> <Gold.Chemscore.Internal.Correction.Weighted>
   9.000000E+99

> <Gold.Protein.RotatedTorsions>
[ 6907 6896 6895 6894 ] final   81.44 input  -60.11 | X-H torsion
[ 7974 7965 7964 7962 ] final   42.56 input  175.53 | X-H torsion
[ 8008 7997 7996 7995 ] final  147.30 input   59.86 | X-H torsion
[ 10167 10162 10161 10158 ] final -109.72 input  -65.29 | X-H torsion
[ 10718 10713 10712 10709 ] final   93.00 input   66.30 | X-H torsion
[ 10763 10752 10751 10750 ] final  139.31 input  -60.55 | X-H torsion
[ 11005 11000 10999 10996 ] final   43.66 input  -57.11 | X-H torsion

> <Gold.Protein.ActiveResidues>
 VAL166  LYS551  ARG553  GLY616  TRP617  ASP618  TYR619  PRO620  LYS621  CYS622 
 ASP623  PHE694  ASN695  SER759  ASP760  ASP761  ALA762  ILE779  LEU786  VAL792 
 PHE793  MET794  SER795  GLU796  ALA797  LYS798  CYS799  TRP800  GLU811  SER814 

> <Gold.Protein.RotatedAtoms>
  152.5268  134.3204  159.9145 H   0  0  0  0  0  0  0  0  0  0  0  0  # atno 6907 bound_to 6896
  151.3153  133.4056  159.2658 H   0  0  0  0  0  0  0  0  0  0  0  0  # atno 6908 bound_to 6896
  151.0004  134.9334  159.8008 H   0  0  0  0  0  0  0  0  0  0  0  0  # atno 6909 bound_to 6896
  146.0730  139.5287  142.9585 H   0  0  0  0  0  0  0  0  0  0  0  0  # atno 7974 bound_to 7965
  156.2829  140.2159  156.5515 H   0  0  0  0  0  0  0  0  0  0  0  0  # atno 8008 bound_to 7997
  154.7287  140.0497  157.0729 H   0  0  0  0  0  0  0  0  0  0  0  0  # atno 8009 bound_to 7997
  155.0382  140.3143  155.4737 H   0  0  0  0  0  0  0  0  0  0  0  0  # atno 8010 bound_to 7997
  140.1522  143.4189  152.1486 H   0  0  0  0  0  0  0  0  0  0  0  0  # atno 10167 bound_to 10162
  157.6956  131.0463  150.3967 H   0  0  0  0  0  0  0  0  0  0  0  0  # atno 10718 bound_to 10713
  153.9041  135.3018  155.3448 H   0  0  0  0  0  0  0  0  0  0  0  0  # atno 10763 bound_to 10752
  154.7656  135.4912  153.9551 H   0  0  0  0  0  0  0  0  0  0  0  0  # atno 10764 bound_to 10752
  153.1229  135.6786  153.9406 H   0  0  0  0  0  0  0  0  0  0  0  0  # atno 10765 bound_to 10752
  140.1624  134.4325  155.8309 H   0  0  0  0  0  0  0  0  0  0  0  0  # atno 11005 bound_to 11000
  145.6357  141.0295  143.1839 LP  0  0  0  0  0  0  0  0  0  0  0  0  # atno 17320 bound_to 7965
  144.7244  139.7925  143.7370 LP  0  0  0  0  0  0  0  0  0  0  0  0  # atno 17321 bound_to 7965
  139.5420  144.7265  151.4702 LP  0  0  0  0  0  0  0  0  0  0  0  0  # atno 17342 bound_to 10162
  140.6695  143.8324  150.6982 LP  0  0  0  0  0  0  0  0  0  0  0  0  # atno 17343 bound_to 10162
  156.4365  130.3982  149.6725 LP  0  0  0  0  0  0  0  0  0  0  0  0  # atno 17370 bound_to 10713
  156.3924  130.7634  151.2636 LP  0  0  0  0  0  0  0  0  0  0  0  0  # atno 17371 bound_to 10713
  141.2210  133.6919  156.7617 LP  0  0  0  0  0  0  0  0  0  0  0  0  # atno 17394 bound_to 11000
  140.2474  134.8567  157.3634 LP  0  0  0  0  0  0  0  0  0  0  0  0  # atno 17395 bound_to 11000

$$$$
