AV-unprocessed.smi:244|AV-procd|sdf|1870|dock4
  -GOLD-   2262020513D 1   1.00000     0.00000
 Structure written by MMmdl.
 57 61  0  0  0  0  0  0  0  0  2 V2000
  149.1935  143.4946  158.8848 C   0  0  0  0  0  0  0  0  0  0  0  0
  150.3197  143.5264  157.9231 N   0  3  1  0  0  0  0  0  0  0  0  0
  151.3009  144.6099  158.1918 C   0  0  0  0  0  0  0  0  0  0  0  0
  152.2371  144.2690  159.3665 C   0  0  0  0  0  0  0  0  0  0  0  0
  152.9330  142.9232  159.1269 C   0  0  1  0  0  0  0  0  0  0  0  0
  153.7488  142.5971  160.2465 O   0  0  0  0  0  0  0  0  0  0  0  0
  154.4665  141.3845  160.0392 C   0  0  0  0  0  0  0  0  0  0  0  0
  153.4721  140.2294  159.8386 C   0  0  0  0  0  0  0  0  0  0  0  0
  152.5553  140.5300  158.7424 N   0  0  0  0  0  0  0  0  0  0  0  0
  151.7348  139.4916  158.4664 C   0  0  0  0  0  0  0  0  0  0  0  0
  151.2438  138.7228  159.4743 N   0  0  0  0  0  0  0  0  0  0  0  0
  150.4079  137.7173  159.1971 C   0  0  0  0  0  0  0  0  0  0  0  0
  149.9356  137.3271  158.0107 N   0  0  0  0  0  0  0  0  0  0  0  0
  150.4245  138.1036  157.0010 C   0  0  0  0  0  0  0  0  0  0  0  0
  151.3274  139.1935  157.1411 C   0  0  0  0  0  0  0  0  0  0  0  0
  151.6062  139.7488  155.8997 N   0  0  0  0  0  0  0  0  0  0  0  0
  150.9079  139.0239  155.0684 C   0  0  0  0  0  0  0  0  0  0  0  0
  150.1518  138.0278  155.6465 N   0  0  0  0  0  0  0  0  0  0  0  0
  149.2742  137.0913  154.9616 C   0  0  0  0  0  0  0  0  0  0  0  0
  149.4178  135.6203  155.4299 C   0  0  0  0  0  0  0  0  0  0  0  0
  148.9102  134.8372  154.3648 O   0  0  0  0  0  0  0  0  0  0  0  0
  150.8850  135.2094  155.6799 C   0  0  0  0  0  0  0  0  0  0  0  0
  150.9939  133.7770  156.2329 C   0  0  0  0  0  0  0  0  0  0  0  0
  150.2169  133.6535  157.4185 O   0  0  0  0  0  0  0  0  0  0  0  0
  148.8284  133.8688  157.1945 C   0  0  0  0  0  0  0  0  0  0  0  0
  148.5933  135.3068  156.6978 C   0  0  0  0  0  0  0  0  0  0  0  0
  151.8775  141.8168  158.9172 C   0  0  2  0  0  0  0  0  0  0  0  0
  150.9668  142.2033  157.7233 C   0  0  0  0  0  0  0  0  0  0  0  0
  149.5258  143.2535  159.8944 H   0  0  0  0  0  0  0  0  0  0  0  0
  148.4559  142.7497  158.5848 H   0  0  0  0  0  0  0  0  0  0  0  0
  148.6906  144.4615  158.9158 H   0  0  0  0  0  0  0  0  0  0  0  0
  151.8948  144.7624  157.2895 H   0  0  0  0  0  0  0  0  0  0  0  0
  150.7801  145.5501  158.3771 H   0  0  0  0  0  0  0  0  0  0  0  0
  152.9820  145.0562  159.4859 H   0  0  0  0  0  0  0  0  0  0  0  0
  151.6741  144.2362  160.2996 H   0  0  0  0  0  0  0  0  0  0  0  0
  153.5653  143.0095  158.2405 H   0  0  0  0  0  0  0  0  0  0  0  0
  155.1294  141.4814  159.1781 H   0  0  0  0  0  0  0  0  0  0  0  0
  155.0977  141.1915  160.9068 H   0  0  0  0  0  0  0  0  0  0  0  0
  154.0135  139.3059  159.6275 H   0  0  0  0  0  0  0  0  0  0  0  0
  152.9097  140.0698  160.7598 H   0  0  0  0  0  0  0  0  0  0  0  0
  150.0649  137.1462  160.0473 H   0  0  0  0  0  0  0  0  0  0  0  0
  150.9129  139.2057  154.0033 H   0  0  0  0  0  0  0  0  0  0  0  0
  148.2472  137.4310  155.1035 H   0  0  0  0  0  0  0  0  0  0  0  0
  149.4708  137.1648  153.8908 H   0  0  0  0  0  0  0  0  0  0  0  0
  148.9713  135.3400  153.5669 H   0  0  0  0  0  0  0  0  0  0  0  0
  151.4718  135.3062  154.7655 H   0  0  0  0  0  0  0  0  0  0  0  0
  151.3387  135.8811  156.4083 H   0  0  0  0  0  0  0  0  0  0  0  0
  150.6712  133.0420  155.4940 H   0  0  0  0  0  0  0  0  0  0  0  0
  152.0328  133.5481  156.4705 H   0  0  0  0  0  0  0  0  0  0  0  0
  148.4439  133.1362  156.4835 H   0  0  0  0  0  0  0  0  0  0  0  0
  148.2947  133.7072  158.1312 H   0  0  0  0  0  0  0  0  0  0  0  0
  148.8784  135.9833  157.5030 H   0  0  0  0  0  0  0  0  0  0  0  0
  147.5310  135.4744  156.5168 H   0  0  0  0  0  0  0  0  0  0  0  0
  151.2682  141.7458  159.8196 H   0  0  0  0  0  0  0  0  0  0  0  0
  150.1902  141.4570  157.5522 H   0  0  0  0  0  0  0  0  0  0  0  0
  151.5592  142.2431  156.8080 H   0  0  0  0  0  0  0  0  0  0  0  0
  149.8938  143.7575  157.0368 H   0  0  0  0  0  0  0  0  0  0  0  0
  1  2  1  0  0  0  0
  1 29  1  0  0  0  0
  1 30  1  0  0  0  0
  1 31  1  0  0  0  0
  2 28  1  0  0  0  0
  2  3  1  0  0  0  0
  2 57  1  0  0  0  0
  3  4  1  0  0  0  0
  3 32  1  0  0  0  0
  3 33  1  0  0  0  0
  4  5  1  0  0  0  0
  4 34  1  0  0  0  0
  4 35  1  0  0  0  0
  5 27  1  0  0  0  0
  5  6  1  0  0  0  0
  5 36  1  0  0  0  0
  6  7  1  0  0  0  0
  7  8  1  0  0  0  0
  7 37  1  0  0  0  0
  7 38  1  0  0  0  0
  8  9  1  0  0  0  0
  8 39  1  0  0  0  0
  8 40  1  0  0  0  0
  9 10  1  0  0  0  0
  9 27  1  0  0  0  0
 10 15  1  0  0  0  0
 10 11  2  0  0  0  0
 11 12  1  0  0  0  0
 12 13  2  0  0  0  0
 12 41  1  0  0  0  0
 13 14  1  0  0  0  0
 14 18  1  0  0  0  0
 14 15  2  0  0  0  0
 15 16  1  0  0  0  0
 16 17  2  0  0  0  0
 17 18  1  0  0  0  0
 17 42  1  0  0  0  0
 18 19  1  0  0  0  0
 19 20  1  0  0  0  0
 19 43  1  0  0  0  0
 19 44  1  0  0  0  0
 20 26  1  0  0  0  0
 20 21  1  0  0  0  0
 20 22  1  0  0  0  0
 21 45  1  0  0  0  0
 22 23  1  0  0  0  0
 22 46  1  0  0  0  0
 22 47  1  0  0  0  0
 23 24  1  0  0  0  0
 23 48  1  0  0  0  0
 23 49  1  0  0  0  0
 24 25  1  0  0  0  0
 25 26  1  0  0  0  0
 25 50  1  0  0  0  0
 25 51  1  0  0  0  0
 26 52  1  0  0  0  0
 26 53  1  0  0  0  0
 27 28  1  0  0  0  0
 27 54  1  0  0  0  0
 28 55  1  0  0  0  0
 28 56  1  0  0  0  0
M  CHG  1   2   1
M  END
> <s_m_source_file>
AV-unprocessed.smi

> <i_m_source_file_index>
244

> <i_lp_mmshare_version>
43012

> <i_f3d_flags>
0

> <s_epik_input>
W0NIMl0xW0NIMl1OKFtDSDNdKVtDSDJdW0NAQEhdKFtDQEhdMTIpTihbQ0gyXVtDSDJdTzIpYyhuW2NIXW4zKWMoYzM0KW5bY0hdbjRbQ0gyXUM1KFtPSF0pW0NIMl1bQ0gyXU9bQ0gyXVtDSDJdNQ==

> <s_epik_cmdline>
J2VwaWtfcHl0aG9uJywgJy1waCcsICc3LjAnLCAnLXRuJywgJzgnLCAnLW1hJywgJzIwMCcsICctbWV0YWxfYmluZGluZycsICctaW1hZScsICc8aW5maWxlLm1hZT4nLCAnLW9tYWUnLCAnPG91dGZpbGUubWFlPic=

> <r_lp_tautomer_probability>
1

> <r_epik_Ionization_Penalty>
0.0136215

> <r_epik_Ionization_Penalty_Charging>
0.0131385

> <r_epik_Ionization_Penalty_Neutral>
0.000483022

> <r_epik_State_Penalty>
0.0104001

> <r_epik_Charging_Adjusted_Penalty>
0.0235387

> <i_epik_Tot_Q>
1

> <i_epik_Tot_abs_Q>
1

> <r_epik_Metal_State_Penalty>
0.0104469

> <b_epik_Metal_Only>
0

> <s_lp_Force_Field>
OPLS_2005

> <r_lp_Energy>
43.6006

> <b_lp_Chiralities_Consistent>
1

> <s_lp_Variant>
AV-unprocessed.smi:244-7

> <Gold.Version>
5.8.1

> <Gold.Id.Protein>
6NUR|6NUR_protein|mol2

> <Gold.PLP.Fitness>
48.6738

> <Gold.PLP.PLP>
-39.0078

> <Gold.PLP.part.hbond>
-3.8317

> <Gold.PLP.part.metal>
0.0000

> <Gold.PLP.part.buried>
-4.0503

> <Gold.PLP.part.nonpolar>
-31.6535

> <Gold.PLP.part.repulsive>
0.0263

> <Gold.PLP.ligand.clash>
0.0000

> <Gold.PLP.ligand.torsion>
1.2103

> <Gold.PLP.Chemscore.Hbond>
3.9920

> <Gold.PLP.Chemscore.CHOScore>
0.0000

> <Gold.PLP.Chemscore.Metal>
0.0000

> <Gold.Chemscore.Hbonds>
donor molecule, donor type, donor heavy atom, donor atom, acceptor molecule, acceptor atom, score
      L1  H     2    57       P1  8028  2.00
      L1  H    21    45       P1  7948  1.00
      P1  H  6896  6908       L1    24  0.98

> <Gold.PLP.Chemscore.Internal.Correction>
0.1106

> <Gold.Rescore>
     Score         DG    S(hbond)    S(metal)    S(lipo)     H(rot)  DE(clash)    DE(int)     intcor
     18.74     -21.41       2.83        0.00     101.23       2.09       0.04       2.63       ----

> <Gold.Chemscore.Fitness>
18.7435

> <Gold.Chemscore.DG>
-21.4104

> <Gold.Chemscore.ZeroCoef>
-5.4800

> <Gold.Chemscore.Hbond>
2.8264

> <Gold.Chemscore.Metal>
0.0000

> <Gold.Chemscore.Lipo>
101.2258

> <Gold.Chemscore.Internal_Hbond>
0.0000

> <Gold.Chemscore.DEClash>
0.0374

> <Gold.Chemscore.DEInternal>
2.6295

> <Gold.Chemscore.Rot>
2.0911

> <Gold.Chemscore.Internal.Correction>
   9.000000E+99

> <Gold.Chemscore.Hbonds>
donor molecule, donor type, donor heavy atom, donor atom, acceptor molecule, acceptor atom, score
      L1  H     2    57       P1  8028  0.95
      L1  H    21    45       P1  7948  0.65
      P1  H  6896  6908       L1    24  0.86

> <Gold.Chemscore.Hbond.Weighted>
-9.4401

> <Gold.Chemscore.Metal.Weighted>
-0.0000

> <Gold.Chemscore.Lipo.Weighted>
-11.8434

> <Gold.Chemscore.Internal_Hbond.Weighted>
0.0000

> <Gold.Chemscore.DEClash.Weighted>
0.0374

> <Gold.Chemscore.DEInternal.Weighted>
2.6295

> <Gold.Chemscore.Rot.Weighted>
5.3531

> <Gold.Chemscore.Internal.Correction.Weighted>
   9.000000E+99

> <Gold.Protein.RotatedTorsions>
[ 6907 6896 6895 6894 ] final  119.25 input  -60.11 | X-H torsion
[ 7974 7965 7964 7962 ] final  -19.33 input  175.53 | X-H torsion
[ 8008 7997 7996 7995 ] final -161.18 input   59.86 | X-H torsion
[ 10167 10162 10161 10158 ] final   -2.60 input  -65.29 | X-H torsion
[ 10718 10713 10712 10709 ] final   96.71 input   66.30 | X-H torsion
[ 10763 10752 10751 10750 ] final -166.31 input  -60.55 | X-H torsion
[ 11005 11000 10999 10996 ] final   61.53 input  -57.11 | X-H torsion

> <Gold.Protein.ActiveResidues>
 VAL166  LYS551  ARG553  GLY616  TRP617  ASP618  TYR619  PRO620  LYS621  CYS622 
 ASP623  PHE694  ASN695  SER759  ASP760  ASP761  ALA762  ILE779  LEU786  VAL792 
 PHE793  MET794  SER795  GLU796  ALA797  LYS798  CYS799  TRP800  GLU811  SER814 

> <Gold.Protein.RotatedAtoms>
  152.4485  133.7583  159.6732 H   0  0  0  0  0  0  0  0  0  0  0  0  # atno 6907 bound_to 6896
  150.8391  133.7955  159.3074 H   0  0  0  0  0  0  0  0  0  0  0  0  # atno 6908 bound_to 6896
  151.5585  135.1068  160.0019 H   0  0  0  0  0  0  0  0  0  0  0  0  # atno 6909 bound_to 6896
  146.1846  140.4047  142.8481 H   0  0  0  0  0  0  0  0  0  0  0  0  # atno 7974 bound_to 7965
  155.7883  140.0875  157.2022 H   0  0  0  0  0  0  0  0  0  0  0  0  # atno 8008 bound_to 7997
  154.3986  140.1495  156.3191 H   0  0  0  0  0  0  0  0  0  0  0  0  # atno 8009 bound_to 7997
  155.8584  140.3431  155.5742 H   0  0  0  0  0  0  0  0  0  0  0  0  # atno 8010 bound_to 7997
  140.6857  143.6637  150.8244 H   0  0  0  0  0  0  0  0  0  0  0  0  # atno 10167 bound_to 10162
  157.6923  131.0586  150.4533 H   0  0  0  0  0  0  0  0  0  0  0  0  # atno 10718 bound_to 10713
  154.6846  135.2960  154.9565 H   0  0  0  0  0  0  0  0  0  0  0  0  # atno 10763 bound_to 10752
  154.0549  135.6639  153.4808 H   0  0  0  0  0  0  0  0  0  0  0  0  # atno 10764 bound_to 10752
  153.0570  135.5138  154.7907 H   0  0  0  0  0  0  0  0  0  0  0  0  # atno 10765 bound_to 10752
  140.0155  134.6232  155.9717 H   0  0  0  0  0  0  0  0  0  0  0  0  # atno 11005 bound_to 11000
  144.8375  140.6805  143.6251 LP  0  0  0  0  0  0  0  0  0  0  0  0  # atno 17320 bound_to 7965
  145.3975  139.1604  143.4195 LP  0  0  0  0  0  0  0  0  0  0  0  0  # atno 17321 bound_to 7965
  140.0344  143.5410  152.2746 LP  0  0  0  0  0  0  0  0  0  0  0  0  # atno 17342 bound_to 10162
  139.6215  144.7630  151.2731 LP  0  0  0  0  0  0  0  0  0  0  0  0  # atno 17343 bound_to 10162
  156.4882  130.4089  149.6421 LP  0  0  0  0  0  0  0  0  0  0  0  0  # atno 17370 bound_to 10713
  156.3442  130.7398  151.2348 LP  0  0  0  0  0  0  0  0  0  0  0  0  # atno 17371 bound_to 10713
  141.1739  133.6539  156.4756 LP  0  0  0  0  0  0  0  0  0  0  0  0  # atno 17394 bound_to 11000
  140.4479  134.6955  157.5025 LP  0  0  0  0  0  0  0  0  0  0  0  0  # atno 17395 bound_to 11000

$$$$
