AV-unprocessed.smi:3303|AV-procd|sdf|12674|dock9
  -GOLD-   2272019 13D 1   1.00000     0.00000
 Structure written by MMmdl.
 44 45  0  0  0  0  0  0  0  0  2 V2000
  150.2488  139.1070  154.8912 C   0  0  0  0  0  0  0  0  0  0  0  0
  148.9632  139.7772  154.3785 C   0  0  1  0  0  0  0  0  0  0  0  0
  147.7073  139.2478  155.0994 C   0  0  0  0  0  0  0  0  0  0  0  0
  146.5034  139.8132  154.4894 N   0  0  0  0  0  0  0  0  0  0  0  0
  145.3086  139.1619  155.0119 C   0  0  0  0  0  0  0  0  0  0  0  0
  146.4380  141.2806  154.5706 C   0  0  1  0  0  0  0  0  0  0  0  0
  146.1812  141.8307  155.9930 C   0  0  0  0  0  0  0  0  0  0  0  0
  147.6883  141.8889  153.8918 C   0  0  0  0  0  0  0  0  0  0  0  0
  149.0260  141.3191  154.4161 C   0  0  1  0  0  0  0  0  0  0  0  0
  149.3649  141.8149  155.7715 N   0  3  0  0  0  0  0  0  0  0  0  0
  150.8003  141.7886  156.1194 C   0  0  0  0  0  0  0  0  0  0  0  0
  150.9940  141.5723  157.6260 C   0  0  0  0  0  0  0  0  0  0  0  0
  151.3356  142.8614  158.3487 C   0  0  0  0  0  0  0  0  0  0  0  0
  152.5268  142.9768  159.0964 C   0  0  0  0  0  0  0  0  0  0  0  0
  152.7985  144.2003  159.7391 C   0  0  0  0  0  0  0  0  0  0  0  0
  151.8743  145.2548  159.6088 C   0  0  0  0  0  0  0  0  0  0  0  0
  150.7144  145.0387  158.8387 C   0  0  0  0  0  0  0  0  0  0  0  0
  150.4448  143.8699  158.2177 N   0  0  0  0  0  0  0  0  0  0  0  0
  150.4001  139.2819  155.9566 H   0  0  0  0  0  0  0  0  0  0  0  0
  151.1257  139.4805  154.3615 H   0  0  0  0  0  0  0  0  0  0  0  0
  150.2101  138.0278  154.7403 H   0  0  0  0  0  0  0  0  0  0  0  0
  148.8701  139.4902  153.3293 H   0  0  0  0  0  0  0  0  0  0  0  0
  147.6740  138.1615  155.0041 H   0  0  0  0  0  0  0  0  0  0  0  0
  147.7428  139.4663  156.1669 H   0  0  0  0  0  0  0  0  0  0  0  0
  144.4111  139.5780  154.5528 H   0  0  0  0  0  0  0  0  0  0  0  0
  145.2277  139.2721  156.0937 H   0  0  0  0  0  0  0  0  0  0  0  0
  145.3306  138.0953  154.7863 H   0  0  0  0  0  0  0  0  0  0  0  0
  145.5814  141.5844  153.9674 H   0  0  0  0  0  0  0  0  0  0  0  0
  146.2276  142.9201  155.9971 H   0  0  0  0  0  0  0  0  0  0  0  0
  146.9007  141.4710  156.7265 H   0  0  0  0  0  0  0  0  0  0  0  0
  145.1880  141.5606  156.3516 H   0  0  0  0  0  0  0  0  0  0  0  0
  147.6277  141.6692  152.8247 H   0  0  0  0  0  0  0  0  0  0  0  0
  147.6637  142.9763  153.9544 H   0  0  0  0  0  0  0  0  0  0  0  0
  149.8266  141.6380  153.7469 H   0  0  0  0  0  0  0  0  0  0  0  0
  149.0175  142.7586  155.8660 H   0  0  0  0  0  0  0  0  0  0  0  0
  151.2932  140.9893  155.5645 H   0  0  0  0  0  0  0  0  0  0  0  0
  151.2693  142.7262  155.8225 H   0  0  0  0  0  0  0  0  0  0  0  0
  150.0868  141.1528  158.0638 H   0  0  0  0  0  0  0  0  0  0  0  0
  151.7854  140.8420  157.8008 H   0  0  0  0  0  0  0  0  0  0  0  0
  153.2184  142.1509  159.1761 H   0  0  0  0  0  0  0  0  0  0  0  0
  153.6997  144.3283  160.3203 H   0  0  0  0  0  0  0  0  0  0  0  0
  152.0502  146.2069  160.0876 H   0  0  0  0  0  0  0  0  0  0  0  0
  149.9848  145.8258  158.7169 H   0  0  0  0  0  0  0  0  0  0  0  0
  148.8827  141.2285  156.4377 H   0  0  0  0  0  0  0  0  0  0  0  0
  1  2  1  0  0  0  0
  1 19  1  0  0  0  0
  1 20  1  0  0  0  0
  1 21  1  0  0  0  0
  2  9  1  0  0  0  0
  2  3  1  0  0  0  0
  2 22  1  0  0  0  0
  3  4  1  0  0  0  0
  3 23  1  0  0  0  0
  3 24  1  0  0  0  0
  4  5  1  0  0  0  0
  4  6  1  0  0  0  0
  5 25  1  0  0  0  0
  5 26  1  0  0  0  0
  5 27  1  0  0  0  0
  6  7  1  0  0  0  0
  6  8  1  0  0  0  0
  6 28  1  0  0  0  0
  7 29  1  0  0  0  0
  7 30  1  0  0  0  0
  7 31  1  0  0  0  0
  8  9  1  0  0  0  0
  8 32  1  0  0  0  0
  8 33  1  0  0  0  0
  9 10  1  0  0  0  0
  9 34  1  0  0  0  0
 10 11  1  0  0  0  0
 10 35  1  0  0  0  0
 10 44  1  0  0  0  0
 11 12  1  0  0  0  0
 11 36  1  0  0  0  0
 11 37  1  0  0  0  0
 12 13  1  0  0  0  0
 12 38  1  0  0  0  0
 12 39  1  0  0  0  0
 13 18  1  0  0  0  0
 13 14  2  0  0  0  0
 14 15  1  0  0  0  0
 14 40  1  0  0  0  0
 15 16  2  0  0  0  0
 15 41  1  0  0  0  0
 16 17  1  0  0  0  0
 16 42  1  0  0  0  0
 17 18  2  0  0  0  0
 17 43  1  0  0  0  0
M  CHG  1  10   1
M  END
> <s_m_source_file>
AV-unprocessed.smi

> <i_m_source_file_index>
3303

> <i_lp_mmshare_version>
43012

> <i_f3d_flags>
0

> <s_epik_input>
W0NIM11bQ0BASF0xW0NIMl1OKFtDSDNdKVtDQEBIXShbQ0gzXSlbQ0gyXVtDQEhdMVtOSF1bQ0gyXVtDSDJdYzJbY0hdW2NIXVtjSF1bY0hdbjI=

> <s_epik_cmdline>
J2VwaWtfcHl0aG9uJywgJy1waCcsICc3LjAnLCAnLXRuJywgJzgnLCAnLW1hJywgJzIwMCcsICctbWV0YWxfYmluZGluZycsICctaW1hZScsICc8aW5maWxlLm1hZT4nLCAnLW9tYWUnLCAnPG91dGZpbGUubWFlPic=

> <r_epik_Ionization_Penalty>
1.37325

> <r_epik_Ionization_Penalty_Charging>
0.000251572

> <r_epik_Ionization_Penalty_Neutral>
1.373

> <r_epik_State_Penalty>
1.46343

> <r_epik_Charging_Adjusted_Penalty>
1.46368

> <i_epik_Tot_Q>
1

> <i_epik_Tot_abs_Q>
1

> <r_epik_Metal_State_Penalty>
1.46331

> <b_epik_Metal_Only>
0

> <s_lp_Force_Field>
OPLS_2005

> <r_lp_Energy>
24.8067

> <b_lp_Chiralities_Consistent>
1

> <s_lp_Variant>
AV-unprocessed.smi:3303-18

> <Gold.Version>
5.8.1

> <Gold.Id.Protein>
6NUR|6NUR_protein|mol2

> <Gold.PLP.Fitness>
43.8783

> <Gold.PLP.PLP>
-36.3810

> <Gold.PLP.part.hbond>
-1.0000

> <Gold.PLP.part.metal>
0.0000

> <Gold.PLP.part.buried>
-5.5642

> <Gold.PLP.part.nonpolar>
-30.6013

> <Gold.PLP.part.repulsive>
0.4539

> <Gold.PLP.ligand.clash>
0.0000

> <Gold.PLP.ligand.torsion>
0.7278

> <Gold.PLP.Chemscore.Hbond>
2.0000

> <Gold.PLP.Chemscore.CHOScore>
0.9804

> <Gold.PLP.Chemscore.Metal>
0.0000

> <Gold.Chemscore.Hbonds>
donor molecule, donor type, donor heavy atom, donor atom, acceptor molecule, acceptor atom, score
      L1  H    10    35       P1  8028  2.00
      L1  C    17    43       P1  8029  1.00

> <Gold.PLP.Chemscore.Internal.Correction>
0.0117

> <Gold.Rescore>
     Score         DG    S(hbond)    S(metal)    S(lipo)     H(rot)  DE(clash)    DE(int)     intcor
     16.85     -18.60       0.99        0.00     113.12       1.33       0.03       1.72       ----

> <Gold.Chemscore.Fitness>
16.8487

> <Gold.Chemscore.DG>
-18.6026

> <Gold.Chemscore.ZeroCoef>
-5.4800

> <Gold.Chemscore.Hbond>
0.9855

> <Gold.Chemscore.Metal>
0.0000

> <Gold.Chemscore.Lipo>
113.1215

> <Gold.Chemscore.Internal_Hbond>
0.0000

> <Gold.Chemscore.DEClash>
0.0305

> <Gold.Chemscore.DEInternal>
1.7235

> <Gold.Chemscore.Rot>
1.3298

> <Gold.Chemscore.Internal.Correction>
   9.000000E+99

> <Gold.Chemscore.Hbonds>
donor molecule, donor type, donor heavy atom, donor atom, acceptor molecule, acceptor atom, score
      L1  H    10    35       P1  8028  0.97

> <Gold.Chemscore.Hbond.Weighted>
-3.2917

> <Gold.Chemscore.Metal.Weighted>
-0.0000

> <Gold.Chemscore.Lipo.Weighted>
-13.2352

> <Gold.Chemscore.Internal_Hbond.Weighted>
0.0000

> <Gold.Chemscore.DEClash.Weighted>
0.0305

> <Gold.Chemscore.DEInternal.Weighted>
1.7235

> <Gold.Chemscore.Rot.Weighted>
3.4043

> <Gold.Chemscore.Internal.Correction.Weighted>
   9.000000E+99

> <Gold.Protein.RotatedTorsions>
[ 6907 6896 6895 6894 ] final   78.40 input  -60.11 | X-H torsion
[ 7974 7965 7964 7962 ] final  169.38 input  175.53 | X-H torsion
[ 8008 7997 7996 7995 ] final -169.64 input   59.86 | X-H torsion
[ 10167 10162 10161 10158 ] final  -37.89 input  -65.29 | X-H torsion
[ 10718 10713 10712 10709 ] final -167.53 input   66.30 | X-H torsion
[ 10763 10752 10751 10750 ] final   -1.31 input  -60.55 | X-H torsion
[ 11005 11000 10999 10996 ] final -101.50 input  -57.11 | X-H torsion

> <Gold.Protein.ActiveResidues>
 VAL166  LYS551  ARG553  GLY616  TRP617  ASP618  TYR619  PRO620  LYS621  CYS622 
 ASP623  PHE694  ASN695  SER759  ASP760  ASP761  ALA762  ILE779  LEU786  VAL792 
 PHE793  MET794  SER795  GLU796  ALA797  LYS798  CYS799  TRP800  GLU811  SER814 

> <Gold.Protein.RotatedAtoms>
  152.5158  134.3670  159.9304 H   0  0  0  0  0  0  0  0  0  0  0  0  # atno 6907 bound_to 6896
  151.3623  133.3878  159.2699 H   0  0  0  0  0  0  0  0  0  0  0  0  # atno 6908 bound_to 6896
  150.9642  134.9044  159.7807 H   0  0  0  0  0  0  0  0  0  0  0  0  # atno 6909 bound_to 6896
  144.7357  139.9046  143.6411 H   0  0  0  0  0  0  0  0  0  0  0  0  # atno 7974 bound_to 7965
  155.9077  140.1052  157.1303 H   0  0  0  0  0  0  0  0  0  0  0  0  # atno 8008 bound_to 7997
  154.4035  140.1280  156.4581 H   0  0  0  0  0  0  0  0  0  0  0  0  # atno 8009 bound_to 7997
  155.7348  140.3468  155.5078 H   0  0  0  0  0  0  0  0  0  0  0  0  # atno 8010 bound_to 7997
  140.7107  143.3313  151.2564 H   0  0  0  0  0  0  0  0  0  0  0  0  # atno 10167 bound_to 10162
  156.6837  130.9132  151.3060 H   0  0  0  0  0  0  0  0  0  0  0  0  # atno 10718 bound_to 10713
  153.3432  135.6981  153.6850 H   0  0  0  0  0  0  0  0  0  0  0  0  # atno 10763 bound_to 10752
  153.5606  135.3535  155.2798 H   0  0  0  0  0  0  0  0  0  0  0  0  # atno 10764 bound_to 10752
  154.8640  135.4248  154.2649 H   0  0  0  0  0  0  0  0  0  0  0  0  # atno 10765 bound_to 10752
  141.1228  133.8483  157.1240 H   0  0  0  0  0  0  0  0  0  0  0  0  # atno 11005 bound_to 11000
  146.1046  139.4045  143.0325 LP  0  0  0  0  0  0  0  0  0  0  0  0  # atno 17320 bound_to 7965
  145.7530  140.9965  143.1240 LP  0  0  0  0  0  0  0  0  0  0  0  0  # atno 17321 bound_to 7965
  139.6795  143.9879  152.2800 LP  0  0  0  0  0  0  0  0  0  0  0  0  # atno 17342 bound_to 10162
  139.9504  144.6624  150.8177 LP  0  0  0  0  0  0  0  0  0  0  0  0  # atno 17343 bound_to 10162
  157.7034  130.9358  150.0855 LP  0  0  0  0  0  0  0  0  0  0  0  0  # atno 17370 bound_to 10713
  156.1848  130.3652  149.8987 LP  0  0  0  0  0  0  0  0  0  0  0  0  # atno 17371 bound_to 10713
  140.0200  134.9950  157.0571 LP  0  0  0  0  0  0  0  0  0  0  0  0  # atno 17394 bound_to 11000
  140.4456  134.1635  155.7177 LP  0  0  0  0  0  0  0  0  0  0  0  0  # atno 17395 bound_to 11000

$$$$
