AV-unprocessed.smi:3314|AV-procd|sdf|12733|dock7
  -GOLD-   2272019 73D 1   1.00000     0.00000
 Structure written by MMmdl.
 38 39  0  0  0  0  0  0  0  0  2 V2000
  154.8062  139.7691  160.9951 C   0  0  0  0  0  0  0  0  0  0  0  0
  153.7258  140.7474  160.5838 C   0  0  0  0  0  0  0  0  0  0  0  0
  153.5208  141.9424  161.2996 C   0  0  0  0  0  0  0  0  0  0  0  0
  152.5011  142.8115  160.8646 C   0  0  0  0  0  0  0  0  0  0  0  0
  152.2251  144.1126  161.5882 C   0  0  0  0  0  0  0  0  0  0  0  0
  151.7166  142.5508  159.7967 N   0  0  0  0  0  0  0  0  0  0  0  0
  151.9070  141.4039  159.0988 C   0  0  0  0  0  0  0  0  0  0  0  0
  151.1375  141.0375  157.9633 N   0  0  0  0  0  0  0  0  0  0  0  0
  151.5288  140.3404  156.8803 C   0  0  0  0  0  0  0  0  0  0  0  0
  152.6613  139.8849  156.7143 O   0  0  0  0  0  0  0  0  0  0  0  0
  150.4411  140.1261  155.8100 C   0  0  2  0  0  0  0  0  0  0  0  0
  149.4152  139.0152  156.1400 C   0  0  0  0  0  0  0  0  0  0  0  0
  150.0216  137.6671  156.0253 N   0  3  1  0  0  0  0  0  0  0  0  0
  149.0787  136.5849  156.3779 C   0  0  0  0  0  0  0  0  0  0  0  0
  150.6380  137.4783  154.6932 C   0  0  0  0  0  0  0  0  0  0  0  0
  151.6631  138.5898  154.4169 C   0  0  0  0  0  0  0  0  0  0  0  0
  151.0334  139.8658  154.5339 O   0  0  0  0  0  0  0  0  0  0  0  0
  152.9053  140.4760  159.4704 C   0  0  0  0  0  0  0  0  0  0  0  0
  155.3347  140.1123  161.8850 H   0  0  0  0  0  0  0  0  0  0  0  0
  155.5330  139.6503  160.1913 H   0  0  0  0  0  0  0  0  0  0  0  0
  154.3709  138.7935  161.2122 H   0  0  0  0  0  0  0  0  0  0  0  0
  154.1286  142.1867  162.1588 H   0  0  0  0  0  0  0  0  0  0  0  0
  152.9439  144.2792  162.3910 H   0  0  0  0  0  0  0  0  0  0  0  0
  151.2254  144.0989  162.0230 H   0  0  0  0  0  0  0  0  0  0  0  0
  152.2884  144.9531  160.8965 H   0  0  0  0  0  0  0  0  0  0  0  0
  150.1733  141.3364  157.9787 H   0  0  0  0  0  0  0  0  0  0  0  0
  149.8980  141.0683  155.7246 H   0  0  0  0  0  0  0  0  0  0  0  0
  149.0137  139.1554  157.1449 H   0  0  0  0  0  0  0  0  0  0  0  0
  148.5685  139.0865  155.4554 H   0  0  0  0  0  0  0  0  0  0  0  0
  148.2396  136.5531  155.6814 H   0  0  0  0  0  0  0  0  0  0  0  0
  148.6838  136.7322  157.3837 H   0  0  0  0  0  0  0  0  0  0  0  0
  149.5799  135.6169  156.3553 H   0  0  0  0  0  0  0  0  0  0  0  0
  151.1261  136.5043  154.6461 H   0  0  0  0  0  0  0  0  0  0  0  0
  149.8622  137.4856  153.9258 H   0  0  0  0  0  0  0  0  0  0  0  0
  152.5163  138.5088  155.0916 H   0  0  0  0  0  0  0  0  0  0  0  0
  152.0583  138.4882  153.4061 H   0  0  0  0  0  0  0  0  0  0  0  0
  153.0462  139.5648  158.9070 H   0  0  0  0  0  0  0  0  0  0  0  0
  150.7717  137.6305  156.7019 H   0  0  0  0  0  0  0  0  0  0  0  0
  1  2  1  0  0  0  0
  1 19  1  0  0  0  0
  1 20  1  0  0  0  0
  1 21  1  0  0  0  0
  2 18  1  0  0  0  0
  2  3  2  0  0  0  0
  3  4  1  0  0  0  0
  3 22  1  0  0  0  0
  4  5  1  0  0  0  0
  4  6  2  0  0  0  0
  5 23  1  0  0  0  0
  5 24  1  0  0  0  0
  5 25  1  0  0  0  0
  6  7  1  0  0  0  0
  7  8  1  0  0  0  0
  7 18  2  0  0  0  0
  8  9  1  0  0  0  0
  8 26  1  0  0  0  0
  9 10  2  0  0  0  0
  9 11  1  0  0  0  0
 11 17  1  0  0  0  0
 11 12  1  0  0  0  0
 11 27  1  0  0  0  0
 12 13  1  0  0  0  0
 12 28  1  0  0  0  0
 12 29  1  0  0  0  0
 13 14  1  0  0  0  0
 13 15  1  0  0  0  0
 13 38  1  0  0  0  0
 14 30  1  0  0  0  0
 14 31  1  0  0  0  0
 14 32  1  0  0  0  0
 15 16  1  0  0  0  0
 15 33  1  0  0  0  0
 15 34  1  0  0  0  0
 16 17  1  0  0  0  0
 16 35  1  0  0  0  0
 16 36  1  0  0  0  0
 18 37  1  0  0  0  0
M  CHG  1  13   1
M  END
> <s_m_source_file>
AV-unprocessed.smi

> <i_m_source_file_index>
3314

> <i_lp_mmshare_version>
43012

> <i_f3d_flags>
0

> <s_epik_input>
W0NIM11jMVtjSF1jKFtDSDNdKW5jKFtjSF0xKVtOSF1DKD1PKVtDQEBIXTJbQ0gyXU4oW0NIM10pW0NIMl1bQ0gyXU8y

> <s_epik_cmdline>
J2VwaWtfcHl0aG9uJywgJy1waCcsICc3LjAnLCAnLXRuJywgJzgnLCAnLW1hJywgJzIwMCcsICctbWV0YWxfYmluZGluZycsICctaW1hZScsICc8aW5maWxlLm1hZT4nLCAnLW9tYWUnLCAnPG91dGZpbGUubWFlPic=

> <r_epik_Ionization_Penalty>
0.32442

> <r_epik_Ionization_Penalty_Charging>
0.314023

> <r_epik_Ionization_Penalty_Neutral>
0.0103972

> <r_epik_State_Penalty>
0.29453

> <r_epik_Charging_Adjusted_Penalty>
0.608553

> <i_epik_Tot_Q>
1

> <i_epik_Tot_abs_Q>
1

> <r_epik_Metal_State_Penalty>
0.286909

> <b_epik_Metal_Only>
0

> <s_lp_Force_Field>
OPLS_2005

> <r_lp_Energy>
14.9445

> <b_lp_Chiralities_Consistent>
1

> <s_lp_Variant>
AV-unprocessed.smi:3314-3

> <Gold.Version>
5.8.1

> <Gold.Id.Protein>
6NUR|6NUR_protein|mol2

> <Gold.PLP.Fitness>
39.1442

> <Gold.PLP.PLP>
-34.7012

> <Gold.PLP.part.hbond>
-2.0000

> <Gold.PLP.part.metal>
0.0000

> <Gold.PLP.part.buried>
-5.2081

> <Gold.PLP.part.nonpolar>
-26.7388

> <Gold.PLP.part.repulsive>
0.1835

> <Gold.PLP.ligand.clash>
0.0000

> <Gold.PLP.ligand.torsion>
0.7892

> <Gold.PLP.Chemscore.Hbond>
2.0000

> <Gold.PLP.Chemscore.CHOScore>
0.0000

> <Gold.PLP.Chemscore.Metal>
0.0000

> <Gold.Chemscore.Hbonds>
donor molecule, donor type, donor heavy atom, donor atom, acceptor molecule, acceptor atom, score
      P1  H  7989  7998       L1    17  1.00
      P1  H  7997  8008       L1    10  1.00

> <Gold.PLP.Chemscore.Internal.Correction>
0.0214

> <Gold.Rescore>
     Score         DG    S(hbond)    S(metal)    S(lipo)     H(rot)  DE(clash)    DE(int)     intcor
     15.94     -19.34       1.96        0.00      84.38       1.00       0.01       3.40       ----

> <Gold.Chemscore.Fitness>
15.9365

> <Gold.Chemscore.DG>
-19.3434

> <Gold.Chemscore.ZeroCoef>
-5.4800

> <Gold.Chemscore.Hbond>
1.9615

> <Gold.Chemscore.Metal>
0.0000

> <Gold.Chemscore.Lipo>
84.3772

> <Gold.Chemscore.Internal_Hbond>
0.0000

> <Gold.Chemscore.DEClash>
0.0106

> <Gold.Chemscore.DEInternal>
3.3963

> <Gold.Chemscore.Rot>
1.0000

> <Gold.Chemscore.Internal.Correction>
   9.000000E+99

> <Gold.Chemscore.Hbonds>
donor molecule, donor type, donor heavy atom, donor atom, acceptor molecule, acceptor atom, score
      P1  H  7989  7998       L1    17  0.71
      P1  H  7997  8008       L1    10  0.97

> <Gold.Chemscore.Hbond.Weighted>
-6.5513

> <Gold.Chemscore.Metal.Weighted>
-0.0000

> <Gold.Chemscore.Lipo.Weighted>
-9.8721

> <Gold.Chemscore.Internal_Hbond.Weighted>
0.0000

> <Gold.Chemscore.DEClash.Weighted>
0.0106

> <Gold.Chemscore.DEInternal.Weighted>
3.3963

> <Gold.Chemscore.Rot.Weighted>
2.5600

> <Gold.Chemscore.Internal.Correction.Weighted>
   9.000000E+99

> <Gold.Protein.RotatedTorsions>
[ 6907 6896 6895 6894 ] final  102.34 input  -60.11 | X-H torsion
[ 7974 7965 7964 7962 ] final  -78.57 input  175.53 | X-H torsion
[ 8008 7997 7996 7995 ] final  -66.56 input   59.86 | X-H torsion
[ 10167 10162 10161 10158 ] final  -50.06 input  -65.29 | X-H torsion
[ 10718 10713 10712 10709 ] final -126.53 input   66.30 | X-H torsion
[ 10763 10752 10751 10750 ] final  157.38 input  -60.55 | X-H torsion
[ 11005 11000 10999 10996 ] final   -9.82 input  -57.11 | X-H torsion

> <Gold.Protein.ActiveResidues>
 VAL166  LYS551  ARG553  GLY616  TRP617  ASP618  TYR619  PRO620  LYS621  CYS622 
 ASP623  PHE694  ASN695  SER759  ASP760  ASP761  ALA762  ILE779  LEU786  VAL792 
 PHE793  MET794  SER795  GLU796  ALA797  LYS798  CYS799  TRP800  GLU811  SER814 

> <Gold.Protein.RotatedAtoms>
  152.5326  133.9990  159.7885 H   0  0  0  0  0  0  0  0  0  0  0  0  # atno 6907 bound_to 6896
  151.0213  133.5866  159.2678 H   0  0  0  0  0  0  0  0  0  0  0  0  # atno 6908 bound_to 6896
  151.2905  135.0747  159.9256 H   0  0  0  0  0  0  0  0  0  0  0  0  # atno 6909 bound_to 6896
  145.5848  140.9441  143.1324 H   0  0  0  0  0  0  0  0  0  0  0  0  # atno 7974 bound_to 7965
  154.4743  140.0910  156.7222 H   0  0  0  0  0  0  0  0  0  0  0  0  # atno 8008 bound_to 7997
  155.4640  140.3462  155.4298 H   0  0  0  0  0  0  0  0  0  0  0  0  # atno 8009 bound_to 7997
  156.1090  140.1442  156.9353 H   0  0  0  0  0  0  0  0  0  0  0  0  # atno 8010 bound_to 7997
  140.6655  143.2672  151.4305 H   0  0  0  0  0  0  0  0  0  0  0  0  # atno 10167 bound_to 10162
  156.1773  130.6708  151.0259 H   0  0  0  0  0  0  0  0  0  0  0  0  # atno 10718 bound_to 10713
  154.1993  135.2791  155.2996 H   0  0  0  0  0  0  0  0  0  0  0  0  # atno 10763 bound_to 10752
  154.5867  135.5572  153.7241 H   0  0  0  0  0  0  0  0  0  0  0  0  # atno 10764 bound_to 10752
  153.0092  135.6358  154.2131 H   0  0  0  0  0  0  0  0  0  0  0  0  # atno 10765 bound_to 10752
  140.7382  133.8692  155.8947 H   0  0  0  0  0  0  0  0  0  0  0  0  # atno 11005 bound_to 11000
  144.7378  139.7536  143.7323 LP  0  0  0  0  0  0  0  0  0  0  0  0  # atno 17320 bound_to 7965
  146.1690  139.4833  142.9940 LP  0  0  0  0  0  0  0  0  0  0  0  0  # atno 17321 bound_to 7965
  139.5903  144.1514  152.2080 LP  0  0  0  0  0  0  0  0  0  0  0  0  # atno 17342 bound_to 10162
  140.0866  144.5656  150.7084 LP  0  0  0  0  0  0  0  0  0  0  0  0  # atno 17343 bound_to 10162
  157.6844  131.0829  150.7282 LP  0  0  0  0  0  0  0  0  0  0  0  0  # atno 17370 bound_to 10713
  156.7339  130.4718  149.5493 LP  0  0  0  0  0  0  0  0  0  0  0  0  # atno 17371 bound_to 10713
  140.9860  134.1342  157.4451 LP  0  0  0  0  0  0  0  0  0  0  0  0  # atno 17394 bound_to 11000
  139.8811  135.0025  156.6134 LP  0  0  0  0  0  0  0  0  0  0  0  0  # atno 17395 bound_to 11000

$$$$
