AV-unprocessed.smi:2717|AV-procd|sdf|10484|dock4
  -GOLD-   2272014523D 1   1.00000     0.00000
 Structure written by MMmdl.
 43 44  0  0  0  0  0  0  0  0  1 V2000
  150.5635  141.8147  155.6697 C   0  0  0  0  0  0  0  0  0  0  0  0
  150.8510  140.6785  156.6568 C   0  0  0  0  0  0  0  0  0  0  0  0
  150.6892  139.3294  156.0403 C   0  0  0  0  0  0  0  0  0  0  0  0
  149.8241  138.4155  156.4873 N   0  0  0  0  0  0  0  0  0  0  0  0
  149.8839  137.2181  155.7678 C   0  0  0  0  0  0  0  0  0  0  0  0
  148.9710  136.0848  156.1270 C   0  0  0  0  0  0  0  0  0  0  0  0
  149.3330  134.7890  155.3828 C   0  0  0  0  0  0  0  0  0  0  0  0
  148.6456  134.6968  154.0998 N   0  0  0  0  0  0  0  0  0  0  0  0
  147.6217  133.8730  153.8357 C   0  0  0  0  0  0  0  0  0  0  0  0
  147.1351  133.0926  154.6544 O   0  0  0  0  0  0  0  0  0  0  0  0
  147.1942  133.9991  152.5712 N   0  0  0  0  0  0  0  0  0  0  0  0
  146.0934  133.2472  151.9756 C   0  0  2  0  0  0  0  0  0  0  0  0
  146.5195  132.6276  150.6277 C   0  0  0  0  0  0  0  0  0  0  0  0
  145.3491  131.8967  149.9499 C   0  0  0  0  0  0  0  0  0  0  0  0
  144.1412  132.8317  149.7676 C   0  0  1  0  0  0  0  0  0  0  0  0
  143.0640  132.1091  149.2094 O   0  0  0  0  0  0  0  0  0  0  0  0
  143.7076  133.4403  151.1121 C   0  0  0  0  0  0  0  0  0  0  0  0
  144.8760  134.1734  151.7907 C   0  0  0  0  0  0  0  0  0  0  0  0
  150.8222  137.2359  154.7658 C   0  0  0  0  0  0  0  0  0  0  0  0
  151.6684  138.7574  154.6945 S   0  0  0  0  0  0  0  0  0  0  0  0
  150.6936  142.7859  156.1473 H   0  0  0  0  0  0  0  0  0  0  0  0
  149.5409  141.7611  155.2953 H   0  0  0  0  0  0  0  0  0  0  0  0
  151.2368  141.7715  154.8132 H   0  0  0  0  0  0  0  0  0  0  0  0
  151.8668  140.7697  157.0432 H   0  0  0  0  0  0  0  0  0  0  0  0
  150.1825  140.7533  157.5148 H   0  0  0  0  0  0  0  0  0  0  0  0
  149.0059  135.9071  157.2025 H   0  0  0  0  0  0  0  0  0  0  0  0
  147.9393  136.3604  155.9042 H   0  0  0  0  0  0  0  0  0  0  0  0
  150.4123  134.7190  155.2357 H   0  0  0  0  0  0  0  0  0  0  0  0
  149.0457  133.9249  155.9827 H   0  0  0  0  0  0  0  0  0  0  0  0
  148.9751  135.3010  153.3613 H   0  0  0  0  0  0  0  0  0  0  0  0
  147.6610  134.6681  151.9767 H   0  0  0  0  0  0  0  0  0  0  0  0
  145.8064  132.4439  152.6570 H   0  0  0  0  0  0  0  0  0  0  0  0
  146.8921  133.4084  149.9629 H   0  0  0  0  0  0  0  0  0  0  0  0
  147.3448  131.9303  150.7762 H   0  0  0  0  0  0  0  0  0  0  0  0
  145.6697  131.5036  148.9846 H   0  0  0  0  0  0  0  0  0  0  0  0
  145.0632  131.0357  150.5562 H   0  0  0  0  0  0  0  0  0  0  0  0
  144.4035  133.6329  149.0755 H   0  0  0  0  0  0  0  0  0  0  0  0
  142.3296  132.6950  149.1067 H   0  0  0  0  0  0  0  0  0  0  0  0
  142.8770  134.1308  150.9612 H   0  0  0  0  0  0  0  0  0  0  0  0
  143.3413  132.6544  151.7744 H   0  0  0  0  0  0  0  0  0  0  0  0
  144.5521  134.5625  152.7568 H   0  0  0  0  0  0  0  0  0  0  0  0
  145.1565  135.0381  151.1872 H   0  0  0  0  0  0  0  0  0  0  0  0
  151.0685  136.4482  154.0696 H   0  0  0  0  0  0  0  0  0  0  0  0
  1  2  1  0  0  0  0
  1 21  1  0  0  0  0
  1 22  1  0  0  0  0
  1 23  1  0  0  0  0
  2  3  1  0  0  0  0
  2 24  1  0  0  0  0
  2 25  1  0  0  0  0
  3 20  1  0  0  0  0
  3  4  2  0  0  0  0
  4  5  1  0  0  0  0
  5  6  1  0  0  0  0
  5 19  2  0  0  0  0
  6  7  1  0  0  0  0
  6 26  1  0  0  0  0
  6 27  1  0  0  0  0
  7  8  1  0  0  0  0
  7 28  1  0  0  0  0
  7 29  1  0  0  0  0
  8  9  1  0  0  0  0
  8 30  1  0  0  0  0
  9 10  2  0  0  0  0
  9 11  1  0  0  0  0
 11 12  1  0  0  0  0
 11 31  1  0  0  0  0
 12 18  1  0  0  0  0
 12 13  1  0  0  0  0
 12 32  1  0  0  0  0
 13 14  1  0  0  0  0
 13 33  1  0  0  0  0
 13 34  1  0  0  0  0
 14 15  1  0  0  0  0
 14 35  1  0  0  0  0
 14 36  1  0  0  0  0
 15 16  1  0  0  0  0
 15 17  1  0  0  0  0
 15 37  1  0  0  0  0
 16 38  1  0  0  0  0
 17 18  1  0  0  0  0
 17 39  1  0  0  0  0
 17 40  1  0  0  0  0
 18 41  1  0  0  0  0
 18 42  1  0  0  0  0
 19 20  1  0  0  0  0
 19 43  1  0  0  0  0
M  END
> <s_m_source_file>
AV-unprocessed.smi

> <i_m_source_file_index>
2717

> <i_lp_mmshare_version>
43012

> <i_f3d_flags>
0

> <s_epik_input>
W0NIM11bQ0gyXWMxbmMoW2NIXXMxKVtDSDJdW0NIMl1bTkhdQyg9TylbTkhdW0NAQEhdMltDSDJdW0NIMl1bQ0BASF0oW09IXSlbQ0gyXVtDSDJdMg==

> <s_epik_cmdline>
J2VwaWtfcHl0aG9uJywgJy1waCcsICc3LjAnLCAnLXRuJywgJzgnLCAnLW1hJywgJzIwMCcsICctbWV0YWxfYmluZGluZycsICctaW1hZScsICc8aW5maWxlLm1hZT4nLCAnLW9tYWUnLCAnPG91dGZpbGUubWFlPic=

> <r_epik_Ionization_Penalty>
0.00202099

> <r_epik_Ionization_Penalty_Charging>
0

> <r_epik_Ionization_Penalty_Neutral>
0.00202099

> <r_epik_State_Penalty>
0.00133629

> <r_epik_Charging_Adjusted_Penalty>
0.00133629

> <i_epik_Tot_Q>
0

> <i_epik_Tot_abs_Q>
0

> <r_epik_Metal_State_Penalty>
-0

> <b_epik_Metal_Only>
0

> <s_lp_Force_Field>
OPLS_2005

> <r_lp_Energy>
-3.71108

> <b_lp_Chiralities_Consistent>
1

> <s_lp_Variant>
AV-unprocessed.smi:2717-1

> <Gold.Version>
5.8.1

> <Gold.Id.Protein>
6NUR|6NUR_protein|mol2

> <Gold.PLP.Fitness>
50.1205

> <Gold.PLP.PLP>
-37.0784

> <Gold.PLP.part.hbond>
-4.9125

> <Gold.PLP.part.metal>
0.0000

> <Gold.PLP.part.buried>
-5.3824

> <Gold.PLP.part.nonpolar>
-28.4733

> <Gold.PLP.part.repulsive>
0.0360

> <Gold.PLP.ligand.clash>
0.0000

> <Gold.PLP.ligand.torsion>
0.4575

> <Gold.PLP.Chemscore.Hbond>
3.6338

> <Gold.PLP.Chemscore.CHOScore>
1.0000

> <Gold.PLP.Chemscore.Metal>
0.0000

> <Gold.Chemscore.Hbonds>
donor molecule, donor type, donor heavy atom, donor atom, acceptor molecule, acceptor atom, score
      L1  H     8    30       P1  7948  1.00
      L1  H    11    31       P1  7948  0.96
      L1  H    16    38       P1 10186  0.55
      P1  H 10785 10796       L1    16  1.00
      L1  C    19    43       P1  7949  0.78

> <Gold.PLP.Chemscore.Internal.Correction>
0.0558

> <Gold.Rescore>
     Score         DG    S(hbond)    S(metal)    S(lipo)     H(rot)  DE(clash)    DE(int)     intcor
     17.89     -18.49       2.44        0.00      89.86       2.21       0.11       0.49       ----

> <Gold.Chemscore.Fitness>
17.8854

> <Gold.Chemscore.DG>
-18.4857

> <Gold.Chemscore.ZeroCoef>
-5.4800

> <Gold.Chemscore.Hbond>
2.4389

> <Gold.Chemscore.Metal>
0.0000

> <Gold.Chemscore.Lipo>
89.8578

> <Gold.Chemscore.Internal_Hbond>
0.0000

> <Gold.Chemscore.DEClash>
0.1056

> <Gold.Chemscore.DEInternal>
0.4947

> <Gold.Chemscore.Rot>
2.2084

> <Gold.Chemscore.Internal.Correction>
   9.000000E+99

> <Gold.Chemscore.Hbonds>
donor molecule, donor type, donor heavy atom, donor atom, acceptor molecule, acceptor atom, score
      L1  H     8    30       P1  7948  0.55
      L1  H    11    31       P1  7948  0.50
      L1  H    16    38       P1 10186  0.56
      P1  H 10785 10796       L1    16  0.92

> <Gold.Chemscore.Hbond.Weighted>
-8.1458

> <Gold.Chemscore.Metal.Weighted>
-0.0000

> <Gold.Chemscore.Lipo.Weighted>
-10.5134

> <Gold.Chemscore.Internal_Hbond.Weighted>
0.0000

> <Gold.Chemscore.DEClash.Weighted>
0.1056

> <Gold.Chemscore.DEInternal.Weighted>
0.4947

> <Gold.Chemscore.Rot.Weighted>
5.6535

> <Gold.Chemscore.Internal.Correction.Weighted>
   9.000000E+99

> <Gold.Protein.RotatedTorsions>
[ 6907 6896 6895 6894 ] final  -57.34 input  -60.11 | X-H torsion
[ 7974 7965 7964 7962 ] final  -83.62 input  175.53 | X-H torsion
[ 8008 7997 7996 7995 ] final  -36.81 input   59.86 | X-H torsion
[ 10167 10162 10161 10158 ] final    3.16 input  -65.29 | X-H torsion
[ 10718 10713 10712 10709 ] final -107.78 input   66.30 | X-H torsion
[ 10763 10752 10751 10750 ] final  -29.20 input  -60.55 | X-H torsion
[ 11005 11000 10999 10996 ] final -172.34 input  -57.11 | X-H torsion

> <Gold.Protein.ActiveResidues>
 VAL166  LYS551  ARG553  GLY616  TRP617  ASP618  TYR619  PRO620  LYS621  CYS622 
 ASP623  PHE694  ASN695  SER759  ASP760  ASP761  ALA762  ILE779  LEU786  VAL792 
 PHE793  MET794  SER795  GLU796  ALA797  LYS798  CYS799  TRP800  GLU811  SER814 

> <Gold.Protein.RotatedAtoms>
  150.8094  134.7239  159.6673 H   0  0  0  0  0  0  0  0  0  0  0  0  # atno 6907 bound_to 6896
  152.4214  134.5945  159.9993 H   0  0  0  0  0  0  0  0  0  0  0  0  # atno 6908 bound_to 6896
  151.6160  133.3306  159.3113 H   0  0  0  0  0  0  0  0  0  0  0  0  # atno 6909 bound_to 6896
  145.5176  140.9534  143.1673 H   0  0  0  0  0  0  0  0  0  0  0  0  # atno 7974 bound_to 7965
  154.4065  140.1621  156.2435 H   0  0  0  0  0  0  0  0  0  0  0  0  # atno 8008 bound_to 7997
  155.9180  140.3423  155.6128 H   0  0  0  0  0  0  0  0  0  0  0  0  # atno 8009 bound_to 7997
  155.7256  140.0774  157.2302 H   0  0  0  0  0  0  0  0  0  0  0  0  # atno 8010 bound_to 7997
  140.6600  143.7329  150.7721 H   0  0  0  0  0  0  0  0  0  0  0  0  # atno 10167 bound_to 10162
  156.0453  130.5680  150.7870 H   0  0  0  0  0  0  0  0  0  0  0  0  # atno 10718 bound_to 10713
  153.7607  135.6919  153.4926 H   0  0  0  0  0  0  0  0  0  0  0  0  # atno 10763 bound_to 10752
  153.1940  135.4460  155.0184 H   0  0  0  0  0  0  0  0  0  0  0  0  # atno 10764 bound_to 10752
  154.8154  135.3396  154.7122 H   0  0  0  0  0  0  0  0  0  0  0  0  # atno 10765 bound_to 10752
  140.4981  134.5920  157.4978 H   0  0  0  0  0  0  0  0  0  0  0  0  # atno 11005 bound_to 11000
  144.7693  139.6771  143.7201 LP  0  0  0  0  0  0  0  0  0  0  0  0  # atno 17320 bound_to 7965
  146.2127  139.5494  142.9670 LP  0  0  0  0  0  0  0  0  0  0  0  0  # atno 17321 bound_to 7965
  140.0996  143.4800  152.2433 LP  0  0  0  0  0  0  0  0  0  0  0  0  # atno 17342 bound_to 10162
  139.5831  144.7519  151.3589 LP  0  0  0  0  0  0  0  0  0  0  0  0  # atno 17343 bound_to 10162
  157.5321  131.0937  150.9940 LP  0  0  0  0  0  0  0  0  0  0  0  0  # atno 17370 bound_to 10713
  157.0244  130.5686  149.5335 LP  0  0  0  0  0  0  0  0  0  0  0  0  # atno 17371 bound_to 10713
  139.9729  134.7263  156.0006 LP  0  0  0  0  0  0  0  0  0  0  0  0  # atno 17394 bound_to 11000
  141.1449  133.6557  156.3839 LP  0  0  0  0  0  0  0  0  0  0  0  0  # atno 17395 bound_to 11000

$$$$
