AV-unprocessed.smi:771|AV-procd|sdf|3681|dock2
  -GOLD-   22720 1 93D 1   1.00000     0.00000
 Structure written by MMmdl.
 41 42  0  0  0  0  0  0  0  0  3 V2000
  149.4371  143.2840  158.0526 O   0  0  0  0  0  0  0  0  0  0  0  0
  150.5763  142.8438  157.8913 C   0  0  0  0  0  0  0  0  0  0  0  0
  151.8000  143.6267  158.3886 C   0  0  0  0  0  0  0  0  0  0  0  0
  152.3626  143.0943  159.6411 N   0  0  0  0  0  0  0  0  0  0  0  0
  153.0626  141.8739  159.5607 C   0  0  0  0  0  0  0  0  0  0  0  0
  153.6262  141.2992  160.6411 C   0  0  0  0  0  0  0  0  0  0  0  0
  154.3472  140.0494  160.5391 N   0  3  0  0  0  0  0  0  0  0  0  0
  154.7292  139.5048  161.5700 O   0  0  0  0  0  0  0  0  0  0  0  0
  154.5548  139.5704  159.4281 O   0  5  0  0  0  0  0  0  0  0  0  0
  153.4897  141.9795  161.9147 C   0  0  0  0  0  0  0  0  0  0  0  0
  152.8254  143.1491  161.9972 C   0  0  0  0  0  0  0  0  0  0  0  0
  152.2184  143.7759  160.8186 C   0  0  0  0  0  0  0  0  0  0  0  0
  151.6172  144.8480  160.8859 O   0  0  0  0  0  0  0  0  0  0  0  0
  150.8372  141.6880  157.2611 N   0  0  0  0  0  0  0  0  0  0  0  0
  149.8384  140.7836  156.6963 C   0  0  0  0  0  0  0  0  0  0  0  0
  149.0011  141.4469  155.5761 C   0  0  2  0  0  0  0  0  0  0  0  0
  147.6854  142.0516  156.1225 C   0  0  0  0  0  0  0  0  0  0  0  0
  146.8232  142.6742  155.0140 C   0  0  0  0  0  0  0  0  0  0  0  0
  146.5159  141.6527  153.9121 C   0  0  0  0  0  0  0  0  0  0  0  0
  147.8130  141.0719  153.3346 C   0  0  0  0  0  0  0  0  0  0  0  0
  148.6890  140.4448  154.4354 C   0  0  1  0  0  0  0  0  0  0  0  0
  149.8854  139.9986  153.8285 O   0  0  0  0  0  0  0  0  0  0  0  0
  152.5624  143.6407  157.6072 H   0  0  0  0  0  0  0  0  0  0  0  0
  151.5052  144.6692  158.5168 H   0  0  0  0  0  0  0  0  0  0  0  0
  153.1140  141.4516  158.5674 H   0  0  0  0  0  0  0  0  0  0  0  0
  153.9190  141.5566  162.8112 H   0  0  0  0  0  0  0  0  0  0  0  0
  152.7362  143.6388  162.9559 H   0  0  0  0  0  0  0  0  0  0  0  0
  151.8032  141.4087  157.1700 H   0  0  0  0  0  0  0  0  0  0  0  0
  150.3829  139.9266  156.2995 H   0  0  0  0  0  0  0  0  0  0  0  0
  149.1825  140.3861  157.4726 H   0  0  0  0  0  0  0  0  0  0  0  0
  149.5899  142.2635  155.1546 H   0  0  0  0  0  0  0  0  0  0  0  0
  147.1124  141.2780  156.6353 H   0  0  0  0  0  0  0  0  0  0  0  0
  147.8977  142.8190  156.8667 H   0  0  0  0  0  0  0  0  0  0  0  0
  145.8930  143.0543  155.4372 H   0  0  0  0  0  0  0  0  0  0  0  0
  147.3415  143.5327  154.5849 H   0  0  0  0  0  0  0  0  0  0  0  0
  145.8999  140.8484  154.3166 H   0  0  0  0  0  0  0  0  0  0  0  0
  145.9329  142.1231  153.1198 H   0  0  0  0  0  0  0  0  0  0  0  0
  147.5739  140.3253  152.5760 H   0  0  0  0  0  0  0  0  0  0  0  0
  148.3654  141.8635  152.8261 H   0  0  0  0  0  0  0  0  0  0  0  0
  148.1759  139.5748  154.8476 H   0  0  0  0  0  0  0  0  0  0  0  0
  149.6720  139.6048  152.9965 H   0  0  0  0  0  0  0  0  0  0  0  0
  1  2  2  0  0  0  0
  2  3  1  0  0  0  0
  2 14  1  0  0  0  0
  3  4  1  0  0  0  0
  3 23  1  0  0  0  0
  3 24  1  0  0  0  0
  4 12  1  0  0  0  0
  4  5  1  0  0  0  0
  5  6  2  0  0  0  0
  5 25  1  0  0  0  0
  6  7  1  0  0  0  0
  6 10  1  0  0  0  0
  7  8  2  0  0  0  0
  7  9  1  0  0  0  0
 10 11  2  0  0  0  0
 10 26  1  0  0  0  0
 11 12  1  0  0  0  0
 11 27  1  0  0  0  0
 12 13  2  0  0  0  0
 14 15  1  0  0  0  0
 14 28  1  0  0  0  0
 15 16  1  0  0  0  0
 15 29  1  0  0  0  0
 15 30  1  0  0  0  0
 16 21  1  0  0  0  0
 16 17  1  0  0  0  0
 16 31  1  0  0  0  0
 17 18  1  0  0  0  0
 17 32  1  0  0  0  0
 17 33  1  0  0  0  0
 18 19  1  0  0  0  0
 18 34  1  0  0  0  0
 18 35  1  0  0  0  0
 19 20  1  0  0  0  0
 19 36  1  0  0  0  0
 19 37  1  0  0  0  0
 20 21  1  0  0  0  0
 20 38  1  0  0  0  0
 20 39  1  0  0  0  0
 21 22  1  0  0  0  0
 21 40  1  0  0  0  0
 22 41  1  0  0  0  0
M  CHG  1   7   1
M  CHG  1   9  -1
M  END
> <s_m_source_file>
AV-unprocessed.smi

> <i_m_source_file_index>
771

> <i_lp_mmshare_version>
43012

> <i_f3d_flags>
0

> <s_epik_input>
Tz1jMVtjSF1bY0hdYyhbTitdKD1PKVtPLV0pW2NIXW4xW0NIMl1DKD1PKVtOSF1bQ0gyXVtDQEBIXTJbQ0gyXVtDSDJdW0NIMl1bQ0gyXVtDQEhdMltPSF0=

> <s_epik_cmdline>
J2VwaWtfcHl0aG9uJywgJy1waCcsICc3LjAnLCAnLXRuJywgJzgnLCAnLW1hJywgJzIwMCcsICctbWV0YWxfYmluZGluZycsICctaW1hZScsICc8aW5maWxlLm1hZT4nLCAnLW9tYWUnLCAnPG91dGZpbGUubWFlPic=

> <r_lp_tautomer_probability>
1

> <r_epik_Ionization_Penalty>
3.77175e-07

> <r_epik_Ionization_Penalty_Charging>
7.70067e-11

> <r_epik_Ionization_Penalty_Neutral>
3.77098e-07

> <r_epik_State_Penalty>
-0

> <r_epik_Charging_Adjusted_Penalty>
7.70067e-11

> <i_epik_Tot_Q>
0

> <i_epik_Tot_abs_Q>
2

> <r_epik_Metal_State_Penalty>
-0

> <b_epik_Metal_Only>
0

> <s_lp_Force_Field>
OPLS_2005

> <r_lp_Energy>
23.4116

> <b_lp_Chiralities_Consistent>
1

> <s_lp_Variant>
AV-unprocessed.smi:771-1

> <Gold.Version>
5.8.1

> <Gold.Id.Protein>
6NUR|6NUR_protein|mol2

> <Gold.PLP.Fitness>
52.9492

> <Gold.PLP.PLP>
-46.4241

> <Gold.PLP.part.hbond>
-3.0000

> <Gold.PLP.part.metal>
0.0000

> <Gold.PLP.part.buried>
-5.1915

> <Gold.PLP.part.nonpolar>
-39.9548

> <Gold.PLP.part.repulsive>
1.9310

> <Gold.PLP.ligand.clash>
0.0000

> <Gold.PLP.ligand.torsion>
0.8935

> <Gold.PLP.Chemscore.Hbond>
2.7520

> <Gold.PLP.Chemscore.CHOScore>
0.0000

> <Gold.PLP.Chemscore.Metal>
0.0000

> <Gold.Chemscore.Hbonds>
donor molecule, donor type, donor heavy atom, donor atom, acceptor molecule, acceptor atom, score
      L1  H    22    41       P1  7957  0.82
      P1  H  7989  7998       L1    22  0.80
      P1  H  7997  8009       L1     9  0.55

> <Gold.PLP.Chemscore.Internal.Correction>
0.0561

> <Gold.Rescore>
     Score         DG    S(hbond)    S(metal)    S(lipo)     H(rot)  DE(clash)    DE(int)     intcor
     14.89     -17.08       2.13        0.00      92.52       2.48       0.17       2.02       ----

> <Gold.Chemscore.Fitness>
14.8937

> <Gold.Chemscore.DG>
-17.0838

> <Gold.Chemscore.ZeroCoef>
-5.4800

> <Gold.Chemscore.Hbond>
2.1304

> <Gold.Chemscore.Metal>
0.0000

> <Gold.Chemscore.Lipo>
92.5218

> <Gold.Chemscore.Internal_Hbond>
0.0000

> <Gold.Chemscore.DEClash>
0.1726

> <Gold.Chemscore.DEInternal>
2.0175

> <Gold.Chemscore.Rot>
2.4753

> <Gold.Chemscore.Internal.Correction>
   9.000000E+99

> <Gold.Chemscore.Hbonds>
donor molecule, donor type, donor heavy atom, donor atom, acceptor molecule, acceptor atom, score
      L1  H    22    41       P1  7957  0.79
      P1  H  7989  7998       L1    22  0.31
      P1  H  7997  8009       L1     9  0.54

> <Gold.Chemscore.Hbond.Weighted>
-7.1156

> <Gold.Chemscore.Metal.Weighted>
-0.0000

> <Gold.Chemscore.Lipo.Weighted>
-10.8250

> <Gold.Chemscore.Internal_Hbond.Weighted>
0.0000

> <Gold.Chemscore.DEClash.Weighted>
0.1726

> <Gold.Chemscore.DEInternal.Weighted>
2.0175

> <Gold.Chemscore.Rot.Weighted>
6.3369

> <Gold.Chemscore.Internal.Correction.Weighted>
   9.000000E+99

> <Gold.Protein.RotatedTorsions>
[ 6907 6896 6895 6894 ] final  -86.26 input  -60.11 | X-H torsion
[ 7974 7965 7964 7962 ] final -133.52 input  175.53 | X-H torsion
[ 8008 7997 7996 7995 ] final  127.00 input   59.86 | X-H torsion
[ 10167 10162 10161 10158 ] final  -12.73 input  -65.29 | X-H torsion
[ 10718 10713 10712 10709 ] final   70.59 input   66.30 | X-H torsion
[ 10763 10752 10751 10750 ] final    1.88 input  -60.55 | X-H torsion
[ 11005 11000 10999 10996 ] final  -32.69 input  -57.11 | X-H torsion

> <Gold.Protein.ActiveResidues>
 VAL166  LYS551  ARG553  GLY616  TRP617  ASP618  TYR619  PRO620  LYS621  CYS622 
 ASP623  PHE694  ASN695  SER759  ASP760  ASP761  ALA762  ILE779  LEU786  VAL792 
 PHE793  MET794  SER795  GLU796  ALA797  LYS798  CYS799  TRP800  GLU811  SER814 

> <Gold.Protein.RotatedAtoms>
  150.6867  134.3077  159.4732 H   0  0  0  0  0  0  0  0  0  0  0  0  # atno 6907 bound_to 6896
  152.0966  134.9368  160.0580 H   0  0  0  0  0  0  0  0  0  0  0  0  # atno 6908 bound_to 6896
  152.0663  133.4051  159.4476 H   0  0  0  0  0  0  0  0  0  0  0  0  # atno 6909 bound_to 6896
  144.9185  140.6985  143.4980 H   0  0  0  0  0  0  0  0  0  0  0  0  # atno 7974 bound_to 7965
  156.2879  140.2679  156.2202 H   0  0  0  0  0  0  0  0  0  0  0  0  # atno 8008 bound_to 7997
  155.0176  140.0387  157.2442 H   0  0  0  0  0  0  0  0  0  0  0  0  # atno 8009 bound_to 7997
  154.7464  140.2734  155.6335 H   0  0  0  0  0  0  0  0  0  0  0  0  # atno 8010 bound_to 7997
  140.7167  143.5502  150.9310 H   0  0  0  0  0  0  0  0  0  0  0  0  # atno 10167 bound_to 10162
  157.6407  130.9485  150.0671 H   0  0  0  0  0  0  0  0  0  0  0  0  # atno 10718 bound_to 10713
  153.3025  135.6957  153.7190 H   0  0  0  0  0  0  0  0  0  0  0  0  # atno 10763 bound_to 10752
  153.6099  135.3446  155.2975 H   0  0  0  0  0  0  0  0  0  0  0  0  # atno 10764 bound_to 10752
  154.8554  135.4361  154.2140 H   0  0  0  0  0  0  0  0  0  0  0  0  # atno 10765 bound_to 10752
  140.9573  133.7185  156.1314 H   0  0  0  0  0  0  0  0  0  0  0  0  # atno 11005 bound_to 11000
  145.3335  139.1752  143.4524 LP  0  0  0  0  0  0  0  0  0  0  0  0  # atno 17320 bound_to 7965
  146.3193  140.3367  142.8644 LP  0  0  0  0  0  0  0  0  0  0  0  0  # atno 17321 bound_to 7965
  139.9226  143.6588  152.3093 LP  0  0  0  0  0  0  0  0  0  0  0  0  # atno 17342 bound_to 10162
  139.7010  144.7635  151.1273 LP  0  0  0  0  0  0  0  0  0  0  0  0  # atno 17343 bound_to 10162
  156.1686  130.3646  149.9197 LP  0  0  0  0  0  0  0  0  0  0  0  0  # atno 17370 bound_to 10713
  156.7177  130.8995  151.3615 LP  0  0  0  0  0  0  0  0  0  0  0  0  # atno 17371 bound_to 10713
  140.7517  134.4037  157.5540 LP  0  0  0  0  0  0  0  0  0  0  0  0  # atno 17394 bound_to 11000
  139.8866  134.8904  156.2573 LP  0  0  0  0  0  0  0  0  0  0  0  0  # atno 17395 bound_to 11000

$$$$
