AV-unprocessed.smi:2902|AV-procd|sdf|11156|dock6
  -GOLD-   2272016 43D 1   1.00000     0.00000
 Structure written by MMmdl.
 47 48  0  0  0  0  0  0  0  0  1 V2000
  149.8878  138.7084  158.1324 C   0  0  0  0  0  0  0  0  0  0  0  0
  150.8611  139.8906  158.2140 C   0  0  0  0  0  0  0  0  0  0  0  0
  150.3448  141.1401  157.4763 C   0  0  1  0  0  0  0  0  0  0  0  0
  151.3522  142.1475  157.5570 O   0  0  0  0  0  0  0  0  0  0  0  0
  151.1990  143.1165  158.5906 C   0  0  0  0  0  0  0  0  0  0  0  0
  151.5473  144.5370  158.1351 C   0  0  0  0  0  0  0  0  0  0  0  0
  151.9673  145.2756  159.4116 C   0  0  0  0  0  0  0  0  0  0  0  0
  152.3435  144.1922  160.4345 C   0  0  0  0  0  0  0  0  0  0  0  0
  152.2138  142.8538  159.7017 C   0  0  0  0  0  0  0  0  0  0  0  0
  150.0171  140.8209  156.0099 C   0  0  0  0  0  0  0  0  0  0  0  0
  150.9238  140.6544  155.1940 O   0  0  0  0  0  0  0  0  0  0  0  0
  148.7136  140.7362  155.6982 N   0  0  0  0  0  0  0  0  0  0  0  0
  148.1639  140.3919  154.3860 C   0  0  2  0  0  0  0  0  0  0  0  0
  147.5443  141.6649  153.7855 C   0  0  0  0  0  0  0  0  0  0  0  0
  147.1506  139.2212  154.5169 C   0  0  1  0  0  0  0  0  0  0  0  0
  145.8857  139.6003  155.3118 C   0  0  0  0  0  0  0  0  0  0  0  0
  146.7808  138.6890  153.2097 N   0  0  0  0  0  0  0  0  0  0  0  0
  147.0681  139.1373  151.9857 C   0  0  0  0  0  0  0  0  0  0  0  0
  146.5158  138.4300  151.0102 N   0  0  0  0  0  0  0  0  0  0  0  0
  145.8521  137.4960  151.7542 C   0  0  0  0  0  0  0  0  0  0  0  0
  145.9751  137.6070  153.0767 N   0  0  0  0  0  0  0  0  0  0  0  0
  150.2872  137.8405  158.6574 H   0  0  0  0  0  0  0  0  0  0  0  0
  149.7076  138.4171  157.0974 H   0  0  0  0  0  0  0  0  0  0  0  0
  148.9267  138.9559  158.5838 H   0  0  0  0  0  0  0  0  0  0  0  0
  151.0514  140.1273  159.2620 H   0  0  0  0  0  0  0  0  0  0  0  0
  151.8190  139.5822  157.7913 H   0  0  0  0  0  0  0  0  0  0  0  0
  149.4414  141.4872  157.9818 H   0  0  0  0  0  0  0  0  0  0  0  0
  150.1971  143.0949  159.0244 H   0  0  0  0  0  0  0  0  0  0  0  0
  152.3903  144.5018  157.4436 H   0  0  0  0  0  0  0  0  0  0  0  0
  150.7238  145.0343  157.6227 H   0  0  0  0  0  0  0  0  0  0  0  0
  152.7984  145.9541  159.2161 H   0  0  0  0  0  0  0  0  0  0  0  0
  151.1399  145.8749  159.7936 H   0  0  0  0  0  0  0  0  0  0  0  0
  153.3478  144.3352  160.8346 H   0  0  0  0  0  0  0  0  0  0  0  0
  151.6492  144.2239  161.2752 H   0  0  0  0  0  0  0  0  0  0  0  0
  151.9126  142.0390  160.3608 H   0  0  0  0  0  0  0  0  0  0  0  0
  153.1769  142.5861  159.2643 H   0  0  0  0  0  0  0  0  0  0  0  0
  148.0459  140.9006  156.4373 H   0  0  0  0  0  0  0  0  0  0  0  0
  148.9690  140.0805  153.7179 H   0  0  0  0  0  0  0  0  0  0  0  0
  147.2175  141.5080  152.7580 H   0  0  0  0  0  0  0  0  0  0  0  0
  148.2686  142.4800  153.7663 H   0  0  0  0  0  0  0  0  0  0  0  0
  146.6835  142.0001  154.3649 H   0  0  0  0  0  0  0  0  0  0  0  0
  147.6397  138.4094  155.0574 H   0  0  0  0  0  0  0  0  0  0  0  0
  146.1177  139.8253  156.3523 H   0  0  0  0  0  0  0  0  0  0  0  0
  145.1677  138.7795  155.3171 H   0  0  0  0  0  0  0  0  0  0  0  0
  145.3899  140.4724  154.8844 H   0  0  0  0  0  0  0  0  0  0  0  0
  147.6828  140.0068  151.8050 H   0  0  0  0  0  0  0  0  0  0  0  0
  145.2586  136.7119  151.3075 H   0  0  0  0  0  0  0  0  0  0  0  0
  1  2  1  0  0  0  0
  1 22  1  0  0  0  0
  1 23  1  0  0  0  0
  1 24  1  0  0  0  0
  2  3  1  0  0  0  0
  2 25  1  0  0  0  0
  2 26  1  0  0  0  0
  3  4  1  0  0  0  0
  3 10  1  0  0  0  0
  3 27  1  0  0  0  0
  4  5  1  0  0  0  0
  5  9  1  0  0  0  0
  5  6  1  0  0  0  0
  5 28  1  0  0  0  0
  6  7  1  0  0  0  0
  6 29  1  0  0  0  0
  6 30  1  0  0  0  0
  7  8  1  0  0  0  0
  7 31  1  0  0  0  0
  7 32  1  0  0  0  0
  8  9  1  0  0  0  0
  8 33  1  0  0  0  0
  8 34  1  0  0  0  0
  9 35  1  0  0  0  0
  9 36  1  0  0  0  0
 10 11  2  0  0  0  0
 10 12  1  0  0  0  0
 12 13  1  0  0  0  0
 12 37  1  0  0  0  0
 13 14  1  0  0  0  0
 13 15  1  0  0  0  0
 13 38  1  0  0  0  0
 14 39  1  0  0  0  0
 14 40  1  0  0  0  0
 14 41  1  0  0  0  0
 15 16  1  0  0  0  0
 15 17  1  0  0  0  0
 15 42  1  0  0  0  0
 16 43  1  0  0  0  0
 16 44  1  0  0  0  0
 16 45  1  0  0  0  0
 17 21  1  0  0  0  0
 17 18  1  0  0  0  0
 18 19  2  0  0  0  0
 18 46  1  0  0  0  0
 19 20  1  0  0  0  0
 20 21  2  0  0  0  0
 20 47  1  0  0  0  0
M  END
> <s_m_source_file>
AV-unprocessed.smi

> <i_m_source_file_index>
2902

> <i_lp_mmshare_version>
43012

> <i_f3d_flags>
0

> <s_epik_input>
W0NIMl0xW0NIMl1bQ0gyXVtDSDJdW0NIXTFPW0NAQEhdKFtDSDJdW0NIM10pQyg9TylbTkhdW0NASF0oW0NIM10pW0NASF0oW0NIM10pbjJbY0hdbltjSF1uMg==

> <s_epik_cmdline>
J2VwaWtfcHl0aG9uJywgJy1waCcsICc3LjAnLCAnLXRuJywgJzgnLCAnLW1hJywgJzIwMCcsICctbWV0YWxfYmluZGluZycsICctaW1hZScsICc8aW5maWxlLm1hZT4nLCAnLW9tYWUnLCAnPG91dGZpbGUubWFlPic=

> <r_lp_tautomer_probability>
1

> <r_epik_Ionization_Penalty>
6.95617e-05

> <r_epik_Ionization_Penalty_Charging>
0

> <r_epik_Ionization_Penalty_Neutral>
6.95617e-05

> <r_epik_State_Penalty>
-0

> <r_epik_Charging_Adjusted_Penalty>
0

> <i_epik_Tot_Q>
0

> <i_epik_Tot_abs_Q>
0

> <r_epik_Metal_State_Penalty>
-0

> <b_epik_Metal_Only>
0

> <s_lp_Force_Field>
OPLS_2005

> <r_lp_Energy>
29.6491

> <b_lp_Chiralities_Consistent>
1

> <s_lp_Variant>
AV-unprocessed.smi:2902-6

> <Gold.Version>
5.8.1

> <Gold.Id.Protein>
6NUR|6NUR_protein|mol2

> <Gold.PLP.Fitness>
41.7134

> <Gold.PLP.PLP>
-36.5833

> <Gold.PLP.part.hbond>
-2.0000

> <Gold.PLP.part.metal>
0.0000

> <Gold.PLP.part.buried>
-2.3705

> <Gold.PLP.part.nonpolar>
-35.6734

> <Gold.PLP.part.repulsive>
2.0816

> <Gold.PLP.ligand.clash>
0.0000

> <Gold.PLP.ligand.torsion>
1.6842

> <Gold.PLP.Chemscore.Hbond>
1.8800

> <Gold.PLP.Chemscore.CHOScore>
0.8787

> <Gold.PLP.Chemscore.Metal>
0.0000

> <Gold.Chemscore.Hbonds>
donor molecule, donor type, donor heavy atom, donor atom, acceptor molecule, acceptor atom, score
      P1  H  7954  7966       L1    19  0.91
      P1  H  7989  7998       L1    11  0.90
      L1  C    18    46       P1  7957  0.87
      L1  C    20    47       P1 10171  0.09

> <Gold.PLP.Chemscore.Internal.Correction>
0.2223

> <Gold.Rescore>
     Score         DG    S(hbond)    S(metal)    S(lipo)     H(rot)  DE(clash)    DE(int)     intcor
     10.89     -13.40       1.48        0.00      84.47       2.69       1.62       0.89       ----

> <Gold.Chemscore.Fitness>
10.8868

> <Gold.Chemscore.DG>
-13.4036

> <Gold.Chemscore.ZeroCoef>
-5.4800

> <Gold.Chemscore.Hbond>
1.4778

> <Gold.Chemscore.Metal>
0.0000

> <Gold.Chemscore.Lipo>
84.4719

> <Gold.Chemscore.Internal_Hbond>
0.0000

> <Gold.Chemscore.DEClash>
1.6245

> <Gold.Chemscore.DEInternal>
0.8923

> <Gold.Chemscore.Rot>
2.6935

> <Gold.Chemscore.Internal.Correction>
   9.000000E+99

> <Gold.Chemscore.Hbonds>
donor molecule, donor type, donor heavy atom, donor atom, acceptor molecule, acceptor atom, score
      P1  H  7954  7966       L1    19  0.29
      P1  H  7989  7998       L1    11  0.88

> <Gold.Chemscore.Hbond.Weighted>
-4.9358

> <Gold.Chemscore.Metal.Weighted>
-0.0000

> <Gold.Chemscore.Lipo.Weighted>
-9.8832

> <Gold.Chemscore.Internal_Hbond.Weighted>
0.0000

> <Gold.Chemscore.DEClash.Weighted>
1.6245

> <Gold.Chemscore.DEInternal.Weighted>
0.8923

> <Gold.Chemscore.Rot.Weighted>
6.8954

> <Gold.Chemscore.Internal.Correction.Weighted>
   9.000000E+99

> <Gold.Protein.RotatedTorsions>
[ 6907 6896 6895 6894 ] final -173.44 input  -60.11 | X-H torsion
[ 7974 7965 7964 7962 ] final   74.81 input  175.53 | X-H torsion
[ 8008 7997 7996 7995 ] final  145.86 input   59.86 | X-H torsion
[ 10167 10162 10161 10158 ] final   64.17 input  -65.29 | X-H torsion
[ 10718 10713 10712 10709 ] final   58.28 input   66.30 | X-H torsion
[ 10763 10752 10751 10750 ] final -157.96 input  -60.55 | X-H torsion
[ 11005 11000 10999 10996 ] final   -2.67 input  -57.11 | X-H torsion

> <Gold.Protein.ActiveResidues>
 VAL166  LYS551  ARG553  GLY616  TRP617  ASP618  TYR619  PRO620  LYS621  CYS622 
 ASP623  PHE694  ASN695  SER759  ASP760  ASP761  ALA762  ILE779  LEU786  VAL792 
 PHE793  MET794  SER795  GLU796  ALA797  LYS798  CYS799  TRP800  GLU811  SER814 

> <Gold.Protein.RotatedAtoms>
  151.5561  133.3410  159.2962 H   0  0  0  0  0  0  0  0  0  0  0  0  # atno 6907 bound_to 6896
  150.8450  134.7758  159.6974 H   0  0  0  0  0  0  0  0  0  0  0  0  # atno 6908 bound_to 6896
  152.4509  134.5402  159.9888 H   0  0  0  0  0  0  0  0  0  0  0  0  # atno 6909 bound_to 6896
  145.7235  139.2657  143.1582 H   0  0  0  0  0  0  0  0  0  0  0  0  # atno 7974 bound_to 7965
  156.2871  140.2198  156.5284 H   0  0  0  0  0  0  0  0  0  0  0  0  # atno 8008 bound_to 7997
  154.7469  140.0483  157.0882 H   0  0  0  0  0  0  0  0  0  0  0  0  # atno 8009 bound_to 7997
  155.0159  140.3118  155.4815 H   0  0  0  0  0  0  0  0  0  0  0  0  # atno 8010 bound_to 7997
  140.1251  144.4695  150.6897 H   0  0  0  0  0  0  0  0  0  0  0  0  # atno 10167 bound_to 10162
  157.5583  130.8817  149.9071 H   0  0  0  0  0  0  0  0  0  0  0  0  # atno 10718 bound_to 10713
  154.7594  135.3113  154.8407 H   0  0  0  0  0  0  0  0  0  0  0  0  # atno 10763 bound_to 10752
  153.9172  135.6799  153.4753 H   0  0  0  0  0  0  0  0  0  0  0  0  # atno 10764 bound_to 10752
  153.1194  135.4829  154.9101 H   0  0  0  0  0  0  0  0  0  0  0  0  # atno 10765 bound_to 10752
  140.6608  133.9321  155.8435 H   0  0  0  0  0  0  0  0  0  0  0  0  # atno 11005 bound_to 11000
  146.0603  140.7977  142.9738 LP  0  0  0  0  0  0  0  0  0  0  0  0  # atno 17320 bound_to 7965
  144.6910  140.3187  143.7236 LP  0  0  0  0  0  0  0  0  0  0  0  0  # atno 17321 bound_to 7965
  140.6850  143.2345  151.5285 LP  0  0  0  0  0  0  0  0  0  0  0  0  # atno 17342 bound_to 10162
  139.5548  144.2302  152.1594 LP  0  0  0  0  0  0  0  0  0  0  0  0  # atno 17343 bound_to 10162
  156.0639  130.3695  150.0921 LP  0  0  0  0  0  0  0  0  0  0  0  0  # atno 17370 bound_to 10713
  156.9088  130.9645  151.3566 LP  0  0  0  0  0  0  0  0  0  0  0  0  # atno 17371 bound_to 10713
  141.0466  134.0545  157.3836 LP  0  0  0  0  0  0  0  0  0  0  0  0  # atno 17394 bound_to 11000
  139.9013  135.0165  156.7283 LP  0  0  0  0  0  0  0  0  0  0  0  0  # atno 17395 bound_to 11000

$$$$
