AV-unprocessed.smi:3335|AV-procd|sdf|12847|dock7
  -GOLD-   2272019233D 1   1.00000     0.00000
 Structure written by MMmdl.
 46 47  0  0  0  0  0  0  0  0  1 V2000
  146.2966  137.6222  151.0930 C   0  0  0  0  0  0  0  0  0  0  0  0
  146.1983  138.1447  152.4972 C   0  0  0  0  0  0  0  0  0  0  0  0
  145.2681  137.7680  153.5062 C   0  0  0  0  0  0  0  0  0  0  0  0
  145.4473  138.4241  154.6402 N   0  0  0  0  0  0  0  0  0  0  0  0
  146.5006  139.2389  154.4036 N   0  0  0  0  0  0  0  0  0  0  0  0
  146.9812  140.1586  155.4330 C   0  0  2  0  0  0  0  0  0  0  0  0
  146.0193  141.3429  155.6563 C   0  0  0  0  0  0  0  0  0  0  0  0
  148.4557  140.5994  155.2220 C   0  0  1  0  0  0  0  0  0  0  0  0
  148.5950  141.6267  154.0799 C   0  0  0  0  0  0  0  0  0  0  0  0
  149.0025  141.1098  156.4826 N   0  0  0  0  0  0  0  0  0  0  0  0
  150.4392  141.4418  156.4643 C   0  0  2  0  0  0  0  0  0  0  0  0
  151.2104  140.3126  155.7638 C   0  0  0  0  0  0  0  0  0  0  0  0
  151.0106  141.6481  157.8839 C   0  0  0  0  0  0  0  0  0  0  0  0
  150.9806  140.7074  158.6795 O   0  0  0  0  0  0  0  0  0  0  0  0
  151.5224  142.8506  158.2262 N   0  0  0  0  0  0  0  0  0  0  0  0
  152.0483  143.1448  159.5585 C   0  0  0  0  0  0  0  0  0  0  0  0
  152.2901  144.6539  159.5881 C   0  0  0  0  0  0  0  0  0  0  0  0
  152.5079  145.0216  158.1280 C   0  0  0  0  0  0  0  0  0  0  0  0
  151.6435  144.0224  157.3592 C   0  0  0  0  0  0  0  0  0  0  0  0
  146.9672  139.0908  153.1132 C   0  0  0  0  0  0  0  0  0  0  0  0
  145.3295  137.2854  150.7190 H   0  0  0  0  0  0  0  0  0  0  0  0
  146.9798  136.7754  151.0270 H   0  0  0  0  0  0  0  0  0  0  0  0
  146.6589  138.3843  150.4026 H   0  0  0  0  0  0  0  0  0  0  0  0
  144.4700  137.0427  153.4471 H   0  0  0  0  0  0  0  0  0  0  0  0
  146.9620  139.5920  156.3652 H   0  0  0  0  0  0  0  0  0  0  0  0
  146.3482  141.9596  156.4929 H   0  0  0  0  0  0  0  0  0  0  0  0
  145.0135  140.9893  155.8856 H   0  0  0  0  0  0  0  0  0  0  0  0
  145.9502  141.9879  154.7798 H   0  0  0  0  0  0  0  0  0  0  0  0
  149.0149  139.7046  154.9447 H   0  0  0  0  0  0  0  0  0  0  0  0
  148.0561  141.2964  153.1916 H   0  0  0  0  0  0  0  0  0  0  0  0
  149.6345  141.7592  153.7816 H   0  0  0  0  0  0  0  0  0  0  0  0
  148.1996  142.6027  154.3633 H   0  0  0  0  0  0  0  0  0  0  0  0
  148.7924  140.4476  157.2155 H   0  0  0  0  0  0  0  0  0  0  0  0
  150.5709  142.3373  155.8584 H   0  0  0  0  0  0  0  0  0  0  0  0
  152.2762  140.5371  155.7045 H   0  0  0  0  0  0  0  0  0  0  0  0
  150.8519  140.1692  154.7440 H   0  0  0  0  0  0  0  0  0  0  0  0
  151.0991  139.3630  156.2894 H   0  0  0  0  0  0  0  0  0  0  0  0
  151.3595  142.8396  160.3481 H   0  0  0  0  0  0  0  0  0  0  0  0
  152.9853  142.6035  159.6977 H   0  0  0  0  0  0  0  0  0  0  0  0
  151.3990  145.1599  159.9622 H   0  0  0  0  0  0  0  0  0  0  0  0
  153.1277  144.9367  160.2263 H   0  0  0  0  0  0  0  0  0  0  0  0
  152.2524  146.0589  157.9095 H   0  0  0  0  0  0  0  0  0  0  0  0
  153.5569  144.8738  157.8675 H   0  0  0  0  0  0  0  0  0  0  0  0
  152.0920  143.7796  156.3950 H   0  0  0  0  0  0  0  0  0  0  0  0
  150.6503  144.4380  157.1824 H   0  0  0  0  0  0  0  0  0  0  0  0
  147.7994  139.6705  152.7415 H   0  0  0  0  0  0  0  0  0  0  0  0
  1  2  1  0  0  0  0
  1 21  1  0  0  0  0
  1 22  1  0  0  0  0
  1 23  1  0  0  0  0
  2 20  2  0  0  0  0
  2  3  1  0  0  0  0
  3  4  2  0  0  0  0
  3 24  1  0  0  0  0
  4  5  1  0  0  0  0
  5  6  1  0  0  0  0
  5 20  1  0  0  0  0
  6  7  1  0  0  0  0
  6  8  1  0  0  0  0
  6 25  1  0  0  0  0
  7 26  1  0  0  0  0
  7 27  1  0  0  0  0
  7 28  1  0  0  0  0
  8  9  1  0  0  0  0
  8 10  1  0  0  0  0
  8 29  1  0  0  0  0
  9 30  1  0  0  0  0
  9 31  1  0  0  0  0
  9 32  1  0  0  0  0
 10 11  1  0  0  0  0
 10 33  1  0  0  0  0
 11 12  1  0  0  0  0
 11 13  1  0  0  0  0
 11 34  1  0  0  0  0
 12 35  1  0  0  0  0
 12 36  1  0  0  0  0
 12 37  1  0  0  0  0
 13 14  2  0  0  0  0
 13 15  1  0  0  0  0
 15 19  1  0  0  0  0
 15 16  1  0  0  0  0
 16 17  1  0  0  0  0
 16 38  1  0  0  0  0
 16 39  1  0  0  0  0
 17 18  1  0  0  0  0
 17 40  1  0  0  0  0
 17 41  1  0  0  0  0
 18 19  1  0  0  0  0
 18 42  1  0  0  0  0
 18 43  1  0  0  0  0
 19 44  1  0  0  0  0
 19 45  1  0  0  0  0
 20 46  1  0  0  0  0
M  END
> <s_m_source_file>
AV-unprocessed.smi

> <i_m_source_file_index>
3335

> <i_lp_mmshare_version>
43012

> <i_f3d_flags>
0

> <s_epik_input>
W0NIM11jMVtjSF1ubihbY0hdMSlbQ0BIXShbQ0gzXSlbQ0BIXShbQ0gzXSlbTkhdW0NASF0oW0NIM10pQyg9TylOMltDSDJdW0NIMl1bQ0gyXVtDSDJdMg==

> <s_epik_cmdline>
J2VwaWtfcHl0aG9uJywgJy1waCcsICc3LjAnLCAnLXRuJywgJzgnLCAnLW1hJywgJzIwMCcsICctbWV0YWxfYmluZGluZycsICctaW1hZScsICc8aW5maWxlLm1hZT4nLCAnLW9tYWUnLCAnPG91dGZpbGUubWFlPic=

> <r_lp_tautomer_probability>
1

> <r_epik_Ionization_Penalty>
0.918803

> <r_epik_Ionization_Penalty_Charging>
0

> <r_epik_Ionization_Penalty_Neutral>
0.918803

> <r_epik_State_Penalty>
0.958258

> <r_epik_Charging_Adjusted_Penalty>
0.958258

> <i_epik_Tot_Q>
0

> <i_epik_Tot_abs_Q>
0

> <r_epik_Metal_State_Penalty>
0.956786

> <b_epik_Metal_Only>
0

> <s_lp_Force_Field>
OPLS_2005

> <r_lp_Energy>
40.8069

> <b_lp_Chiralities_Consistent>
1

> <s_lp_Variant>
AV-unprocessed.smi:3335-11

> <Gold.Version>
5.8.1

> <Gold.Id.Protein>
6NUR|6NUR_protein|mol2

> <Gold.PLP.Fitness>
38.7766

> <Gold.PLP.PLP>
-37.1255

> <Gold.PLP.part.hbond>
0.0000

> <Gold.PLP.part.metal>
0.0000

> <Gold.PLP.part.buried>
2.2009

> <Gold.PLP.part.nonpolar>
-39.9225

> <Gold.PLP.part.repulsive>
0.0831

> <Gold.PLP.ligand.clash>
0.0000

> <Gold.PLP.ligand.torsion>
0.7748

> <Gold.PLP.Chemscore.Hbond>
0.0000

> <Gold.PLP.Chemscore.CHOScore>
1.0000

> <Gold.PLP.Chemscore.Metal>
0.0000

> <Gold.Chemscore.Hbonds>
donor molecule, donor type, donor heavy atom, donor atom, acceptor molecule, acceptor atom, score
      L1  C    20    46       P1  7957  1.00

> <Gold.PLP.Chemscore.Internal.Correction>
0.2008

> <Gold.Rescore>
     Score         DG    S(hbond)    S(metal)    S(lipo)     H(rot)  DE(clash)    DE(int)     intcor
     12.58     -14.38       0.00        0.00     111.52       1.62       1.24       0.57       ----

> <Gold.Chemscore.Fitness>
12.5762

> <Gold.Chemscore.DG>
-14.3793

> <Gold.Chemscore.ZeroCoef>
-5.4800

> <Gold.Chemscore.Hbond>
0.0000

> <Gold.Chemscore.Metal>
0.0000

> <Gold.Chemscore.Lipo>
111.5170

> <Gold.Chemscore.Internal_Hbond>
0.0000

> <Gold.Chemscore.DEClash>
1.2359

> <Gold.Chemscore.DEInternal>
0.5672

> <Gold.Chemscore.Rot>
1.6204

> <Gold.Chemscore.Internal.Correction>
   9.000000E+99

> <Gold.Chemscore.Hbond.Weighted>
-0.0000

> <Gold.Chemscore.Metal.Weighted>
-0.0000

> <Gold.Chemscore.Lipo.Weighted>
-13.0475

> <Gold.Chemscore.Internal_Hbond.Weighted>
0.0000

> <Gold.Chemscore.DEClash.Weighted>
1.2359

> <Gold.Chemscore.DEInternal.Weighted>
0.5672

> <Gold.Chemscore.Rot.Weighted>
4.1482

> <Gold.Chemscore.Internal.Correction.Weighted>
   9.000000E+99

> <Gold.Protein.RotatedTorsions>
[ 6907 6896 6895 6894 ] final -121.43 input  -60.11 | X-H torsion
[ 7974 7965 7964 7962 ] final  -56.98 input  175.53 | X-H torsion
[ 8008 7997 7996 7995 ] final  -27.21 input   59.86 | X-H torsion
[ 10167 10162 10161 10158 ] final -174.13 input  -65.29 | X-H torsion
[ 10718 10713 10712 10709 ] final  -29.93 input   66.30 | X-H torsion
[ 10763 10752 10751 10750 ] final -137.53 input  -60.55 | X-H torsion
[ 11005 11000 10999 10996 ] final  -77.93 input  -57.11 | X-H torsion

> <Gold.Protein.ActiveResidues>
 VAL166  LYS551  ARG553  GLY616  TRP617  ASP618  TYR619  PRO620  LYS621  CYS622 
 ASP623  PHE694  ASN695  SER759  ASP760  ASP761  ALA762  ILE779  LEU786  VAL792 
 PHE793  MET794  SER795  GLU796  ALA797  LYS798  CYS799  TRP800  GLU811  SER814 

> <Gold.Protein.RotatedAtoms>
  150.8483  133.7827  159.3034 H   0  0  0  0  0  0  0  0  0  0  0  0  # atno 6907 bound_to 6896
  151.5507  135.1066  159.9958 H   0  0  0  0  0  0  0  0  0  0  0  0  # atno 6908 bound_to 6896
  152.4531  133.7626  159.6811 H   0  0  0  0  0  0  0  0  0  0  0  0  # atno 6909 bound_to 6896
  145.8564  140.8316  142.9959 H   0  0  0  0  0  0  0  0  0  0  0  0  # atno 7974 bound_to 7965
  154.4388  140.1878  156.0896 H   0  0  0  0  0  0  0  0  0  0  0  0  # atno 8008 bound_to 7997
  156.0376  140.3323  155.7182 H   0  0  0  0  0  0  0  0  0  0  0  0  # atno 8009 bound_to 7997
  155.5747  140.0616  157.2789 H   0  0  0  0  0  0  0  0  0  0  0  0  # atno 8010 bound_to 7997
  139.5651  144.1776  152.1299 H   0  0  0  0  0  0  0  0  0  0  0  0  # atno 10167 bound_to 10162
  156.4062  130.4399  149.7286 H   0  0  0  0  0  0  0  0  0  0  0  0  # atno 10718 bound_to 10713
  154.8659  135.3639  154.5238 H   0  0  0  0  0  0  0  0  0  0  0  0  # atno 10763 bound_to 10752
  153.5867  135.7017  153.5445 H   0  0  0  0  0  0  0  0  0  0  0  0  # atno 10764 bound_to 10752
  153.3409  135.4098  155.1533 H   0  0  0  0  0  0  0  0  0  0  0  0  # atno 10765 bound_to 10752
  141.1662  133.7042  156.7895 H   0  0  0  0  0  0  0  0  0  0  0  0  # atno 11005 bound_to 11000
  144.6727  140.1030  143.7459 LP  0  0  0  0  0  0  0  0  0  0  0  0  # atno 17320 bound_to 7965
  145.9299  139.2599  143.1331 LP  0  0  0  0  0  0  0  0  0  0  0  0  # atno 17321 bound_to 7965
  140.1297  144.5299  150.6810 LP  0  0  0  0  0  0  0  0  0  0  0  0  # atno 17342 bound_to 10162
  140.6933  143.2389  151.5070 LP  0  0  0  0  0  0  0  0  0  0  0  0  # atno 17343 bound_to 10162
  156.4282  130.7802  151.2821 LP  0  0  0  0  0  0  0  0  0  0  0  0  # atno 17370 bound_to 10713
  157.7505  131.0162  150.3535 LP  0  0  0  0  0  0  0  0  0  0  0  0  # atno 17371 bound_to 10713
  140.2336  134.8667  157.3502 LP  0  0  0  0  0  0  0  0  0  0  0  0  # atno 17394 bound_to 11000
  140.1866  134.4423  155.7740 LP  0  0  0  0  0  0  0  0  0  0  0  0  # atno 17395 bound_to 11000

$$$$
