AV-unprocessed.smi:1765|AV-procd|sdf|7134|dock10
  -GOLD-   22720 8373D 1   1.00000     0.00000
 Structure written by MMmdl.
 39 40  0  0  0  0  0  0  0  0  1 V2000
  145.6330  141.9727  155.9326 C   0  0  0  0  0  0  0  0  0  0  0  0
  147.0040  141.4913  155.8553 N   0  0  0  0  0  0  0  0  0  0  0  0
  147.7033  141.0145  156.8985 C   0  0  0  0  0  0  0  0  0  0  0  0
  147.2168  140.9526  158.0290 O   0  0  0  0  0  0  0  0  0  0  0  0
  149.0622  140.5878  156.5552 C   0  0  0  0  0  0  0  0  0  0  0  0
  149.6167  140.7003  155.2141 C   0  0  0  0  0  0  0  0  0  0  0  0
  150.8760  140.2954  154.9570 C   0  0  0  0  0  0  0  0  0  0  0  0
  151.7336  139.7295  156.0019 C   0  0  0  0  0  0  0  0  0  0  0  0
  152.8852  139.3593  155.7721 O   0  0  0  0  0  0  0  0  0  0  0  0
  151.1731  139.6374  157.2459 N   0  0  0  0  0  0  0  0  0  0  0  0
  151.9386  139.0831  158.3753 C   0  0  0  0  0  0  0  0  0  0  0  0
  152.9077  140.0946  159.0032 C   0  0  0  0  0  0  0  0  0  0  0  0
  154.1260  139.9541  158.8892 O   0  0  0  0  0  0  0  0  0  0  0  0
  152.3431  141.1274  159.6468 N   0  0  0  0  0  0  0  0  0  0  0  0
  153.0701  142.2047  160.3130 C   0  0  0  0  0  0  0  0  0  0  0  0
  152.7632  142.2200  161.8233 C   0  0  0  0  0  0  0  0  0  0  0  0
  152.4029  143.6657  162.1695 C   0  0  0  0  0  0  0  0  0  0  0  0
  151.8093  144.2275  160.8818 C   0  0  0  0  0  0  0  0  0  0  0  0
  152.6463  143.5857  159.7753 C   0  0  0  0  0  0  0  0  0  0  0  0
  149.8569  140.0653  157.5099 C   0  0  0  0  0  0  0  0  0  0  0  0
  145.2913  142.2812  154.9447 H   0  0  0  0  0  0  0  0  0  0  0  0
  145.5599  142.8307  156.6021 H   0  0  0  0  0  0  0  0  0  0  0  0
  144.9658  141.1895  156.2946 H   0  0  0  0  0  0  0  0  0  0  0  0
  147.4520  141.5181  154.9511 H   0  0  0  0  0  0  0  0  0  0  0  0
  149.0383  141.1090  154.3988 H   0  0  0  0  0  0  0  0  0  0  0  0
  151.2662  140.3897  153.9541 H   0  0  0  0  0  0  0  0  0  0  0  0
  151.2673  138.7285  159.1585 H   0  0  0  0  0  0  0  0  0  0  0  0
  152.4909  138.1979  158.0535 H   0  0  0  0  0  0  0  0  0  0  0  0
  151.3349  141.1677  159.6842 H   0  0  0  0  0  0  0  0  0  0  0  0
  154.1434  142.0703  160.1641 H   0  0  0  0  0  0  0  0  0  0  0  0
  151.9117  141.5768  162.0514 H   0  0  0  0  0  0  0  0  0  0  0  0
  153.6041  141.8599  162.4167 H   0  0  0  0  0  0  0  0  0  0  0  0
  151.7183  143.7368  163.0152 H   0  0  0  0  0  0  0  0  0  0  0  0
  153.3078  144.2182  162.4261 H   0  0  0  0  0  0  0  0  0  0  0  0
  150.7696  143.9115  160.7874 H   0  0  0  0  0  0  0  0  0  0  0  0
  151.8321  145.3171  160.8477 H   0  0  0  0  0  0  0  0  0  0  0  0
  153.5374  144.1907  159.6032 H   0  0  0  0  0  0  0  0  0  0  0  0
  152.1058  143.5388  158.8291 H   0  0  0  0  0  0  0  0  0  0  0  0
  149.5473  139.9430  158.5384 H   0  0  0  0  0  0  0  0  0  0  0  0
  1  2  1  0  0  0  0
  1 21  1  0  0  0  0
  1 22  1  0  0  0  0
  1 23  1  0  0  0  0
  2  3  1  0  0  0  0
  2 24  1  0  0  0  0
  3  4  2  0  0  0  0
  3  5  1  0  0  0  0
  5 20  2  0  0  0  0
  5  6  1  0  0  0  0
  6  7  2  0  0  0  0
  6 25  1  0  0  0  0
  7  8  1  0  0  0  0
  7 26  1  0  0  0  0
  8  9  2  0  0  0  0
  8 10  1  0  0  0  0
 10 11  1  0  0  0  0
 10 20  1  0  0  0  0
 11 12  1  0  0  0  0
 11 27  1  0  0  0  0
 11 28  1  0  0  0  0
 12 13  2  0  0  0  0
 12 14  1  0  0  0  0
 14 15  1  0  0  0  0
 14 29  1  0  0  0  0
 15 19  1  0  0  0  0
 15 16  1  0  0  0  0
 15 30  1  0  0  0  0
 16 17  1  0  0  0  0
 16 31  1  0  0  0  0
 16 32  1  0  0  0  0
 17 18  1  0  0  0  0
 17 33  1  0  0  0  0
 17 34  1  0  0  0  0
 18 19  1  0  0  0  0
 18 35  1  0  0  0  0
 18 36  1  0  0  0  0
 19 37  1  0  0  0  0
 19 38  1  0  0  0  0
 20 39  1  0  0  0  0
M  END
> <s_m_source_file>
AV-unprocessed.smi

> <i_m_source_file_index>
1765

> <i_lp_mmshare_version>
43012

> <i_f3d_flags>
0

> <s_epik_input>
W0NIM11bTkhdQyg9TyljMVtjSF1bY0hdYyg9TyluKFtjSF0xKVtDSDJdQyg9TylbTkhdW0NIXTJbQ0gyXVtDSDJdW0NIMl1bQ0gyXTI=

> <s_epik_cmdline>
J2VwaWtfcHl0aG9uJywgJy1waCcsICc3LjAnLCAnLXRuJywgJzgnLCAnLW1hJywgJzIwMCcsICctbWV0YWxfYmluZGluZycsICctaW1hZScsICc8aW5maWxlLm1hZT4nLCAnLW9tYWUnLCAnPG91dGZpbGUubWFlPic=

> <r_lp_tautomer_probability>
1

> <r_epik_Ionization_Penalty>
3.69544e-07

> <r_epik_Ionization_Penalty_Charging>
4.98828e-08

> <r_epik_Ionization_Penalty_Neutral>
3.19661e-07

> <r_epik_State_Penalty>
-0

> <r_epik_Charging_Adjusted_Penalty>
4.98828e-08

> <i_epik_Tot_Q>
0

> <i_epik_Tot_abs_Q>
0

> <r_epik_Metal_State_Penalty>
-0

> <b_epik_Metal_Only>
0

> <s_lp_Force_Field>
OPLS_2005

> <r_lp_Energy>
30.5558

> <b_lp_Chiralities_Consistent>
1

> <s_lp_Variant>
AV-unprocessed.smi:1765-1

> <Gold.Version>
5.8.1

> <Gold.Id.Protein>
6NUR|6NUR_protein|mol2

> <Gold.PLP.Fitness>
42.3833

> <Gold.PLP.PLP>
-38.1188

> <Gold.PLP.part.hbond>
-2.0548

> <Gold.PLP.part.metal>
0.0000

> <Gold.PLP.part.buried>
-3.0139

> <Gold.PLP.part.nonpolar>
-31.9117

> <Gold.PLP.part.repulsive>
0.1642

> <Gold.PLP.ligand.clash>
0.0000

> <Gold.PLP.ligand.torsion>
0.3681

> <Gold.PLP.Chemscore.Hbond>
1.6640

> <Gold.PLP.Chemscore.CHOScore>
0.0000

> <Gold.PLP.Chemscore.Metal>
0.0000

> <Gold.Chemscore.Hbonds>
donor molecule, donor type, donor heavy atom, donor atom, acceptor molecule, acceptor atom, score
      P1  H  7997  8008       L1    13  0.77
      P1  H  7997  8009       L1     9  0.94

> <Gold.PLP.Chemscore.Internal.Correction>
0.0087

> <Gold.Rescore>
     Score         DG    S(hbond)    S(metal)    S(lipo)     H(rot)  DE(clash)    DE(int)     intcor
     15.94     -16.88       1.64        0.00      84.01       1.52       0.54       0.40       ----

> <Gold.Chemscore.Fitness>
15.9355

> <Gold.Chemscore.DG>
-16.8837

> <Gold.Chemscore.ZeroCoef>
-5.4800

> <Gold.Chemscore.Hbond>
1.6402

> <Gold.Chemscore.Metal>
0.0000

> <Gold.Chemscore.Lipo>
84.0127

> <Gold.Chemscore.Internal_Hbond>
0.0000

> <Gold.Chemscore.DEClash>
0.5439

> <Gold.Chemscore.DEInternal>
0.4043

> <Gold.Chemscore.Rot>
1.5250

> <Gold.Chemscore.Internal.Correction>
   9.000000E+99

> <Gold.Chemscore.Hbonds>
donor molecule, donor type, donor heavy atom, donor atom, acceptor molecule, acceptor atom, score
      P1  H  7997  8008       L1    13  0.76
      P1  H  7997  8009       L1     9  0.92

> <Gold.Chemscore.Hbond.Weighted>
-5.4782

> <Gold.Chemscore.Metal.Weighted>
-0.0000

> <Gold.Chemscore.Lipo.Weighted>
-9.8295

> <Gold.Chemscore.Internal_Hbond.Weighted>
0.0000

> <Gold.Chemscore.DEClash.Weighted>
0.5439

> <Gold.Chemscore.DEInternal.Weighted>
0.4043

> <Gold.Chemscore.Rot.Weighted>
3.9039

> <Gold.Chemscore.Internal.Correction.Weighted>
   9.000000E+99

> <Gold.Protein.RotatedTorsions>
[ 6907 6896 6895 6894 ] final  100.00 input  -60.11 | X-H torsion
[ 7974 7965 7964 7962 ] final -175.82 input  175.53 | X-H torsion
[ 8008 7997 7996 7995 ] final -130.72 input   59.86 | X-H torsion
[ 10167 10162 10161 10158 ] final  140.44 input  -65.29 | X-H torsion
[ 10718 10713 10712 10709 ] final  155.93 input   66.30 | X-H torsion
[ 10763 10752 10751 10750 ] final -106.82 input  -60.55 | X-H torsion
[ 11005 11000 10999 10996 ] final   68.71 input  -57.11 | X-H torsion

> <Gold.Protein.ActiveResidues>
 VAL166  LYS551  ARG553  GLY616  TRP617  ASP618  TYR619  PRO620  LYS621  CYS622 
 ASP623  PHE694  ASN695  SER759  ASP760  ASP761  ALA762  ILE779  LEU786  VAL792 
 PHE793  MET794  SER795  GLU796  ALA797  LYS798  CYS799  TRP800  GLU811  SER814 

> <Gold.Protein.RotatedAtoms>
  152.5381  134.0343  159.8038 H   0  0  0  0  0  0  0  0  0  0  0  0  # atno 6907 bound_to 6896
  151.0509  133.5618  159.2649 H   0  0  0  0  0  0  0  0  0  0  0  0  # atno 6908 bound_to 6896
  151.2552  135.0643  159.9131 H   0  0  0  0  0  0  0  0  0  0  0  0  # atno 6909 bound_to 6896
  144.7127  140.1263  143.6402 H   0  0  0  0  0  0  0  0  0  0  0  0  # atno 7974 bound_to 7965
  155.3005  140.0452  157.3029 H   0  0  0  0  0  0  0  0  0  0  0  0  # atno 8008 bound_to 7997
  154.5489  140.2311  155.8484 H   0  0  0  0  0  0  0  0  0  0  0  0  # atno 8009 bound_to 7997
  156.1949  140.3041  155.9414 H   0  0  0  0  0  0  0  0  0  0  0  0  # atno 8010 bound_to 7997
  139.5049  144.6233  151.5997 H   0  0  0  0  0  0  0  0  0  0  0  0  # atno 10167 bound_to 10162
  157.2118  131.0699  151.1965 H   0  0  0  0  0  0  0  0  0  0  0  0  # atno 10718 bound_to 10713
  154.8036  135.4698  154.0338 H   0  0  0  0  0  0  0  0  0  0  0  0  # atno 10763 bound_to 10752
  153.1824  135.6842  153.8468 H   0  0  0  0  0  0  0  0  0  0  0  0  # atno 10764 bound_to 10752
  153.8014  135.3229  155.3368 H   0  0  0  0  0  0  0  0  0  0  0  0  # atno 10765 bound_to 10752
  139.9696  134.6923  156.0475 H   0  0  0  0  0  0  0  0  0  0  0  0  # atno 11005 bound_to 11000
  145.9326  139.2616  143.1316 LP  0  0  0  0  0  0  0  0  0  0  0  0  # atno 17320 bound_to 7965
  145.9507  140.8911  143.0261 LP  0  0  0  0  0  0  0  0  0  0  0  0  # atno 17321 bound_to 7965
  140.5943  143.9725  150.6344 LP  0  0  0  0  0  0  0  0  0  0  0  0  # atno 17342 bound_to 10162
  140.2915  143.3321  152.1058 LP  0  0  0  0  0  0  0  0  0  0  0  0  # atno 17343 bound_to 10162
  157.3665  130.7158  149.6536 LP  0  0  0  0  0  0  0  0  0  0  0  0  # atno 17370 bound_to 10713
  155.9690  130.4211  150.4453 LP  0  0  0  0  0  0  0  0  0  0  0  0  # atno 17371 bound_to 10713
  141.1375  133.6572  156.3636 LP  0  0  0  0  0  0  0  0  0  0  0  0  # atno 17394 bound_to 11000
  140.5323  134.6201  157.5354 LP  0  0  0  0  0  0  0  0  0  0  0  0  # atno 17395 bound_to 11000

$$$$
