AV-unprocessed.smi:139|AV-procd|sdf|1182|dock1
  -GOLD-   2262018333D 1   1.00000     0.00000
 Structure written by MMmdl.
 50 53  0  0  0  0  0  0  0  0  1 V2000
  150.8726  140.6650  155.1848 O   0  0  0  0  0  0  0  0  0  0  0  0
  150.2640  140.4310  156.2297 C   0  0  0  0  0  0  0  0  0  0  0  0
  148.8223  139.9050  156.1927 C   0  0  0  0  0  0  0  0  0  0  0  0
  148.7525  138.4436  156.4088 N   0  0  0  0  0  0  0  0  0  0  0  0
  149.3458  137.5755  155.4586 C   0  0  0  0  0  0  0  0  0  0  0  0
  149.9046  138.0139  154.4522 O   0  0  0  0  0  0  0  0  0  0  0  0
  149.2495  136.1516  155.7605 C   0  0  0  0  0  0  0  0  0  0  0  0
  149.7652  135.2533  154.9044 F   0  0  0  0  0  0  0  0  0  0  0  0
  148.6478  135.7197  156.8879 C   0  0  0  0  0  0  0  0  0  0  0  0
  148.0944  136.5801  157.8176 N   0  0  0  0  0  0  0  0  0  0  0  0
  147.4373  136.0532  159.0721 C   0  0  1  0  0  0  0  0  0  0  0  0
  147.3324  134.5244  159.0158 C   0  0  0  0  0  0  0  0  0  0  0  0
  148.5151  134.0933  159.8567 C   0  0  0  0  0  0  0  0  0  0  0  0
  148.5799  135.2106  160.8905 C   0  0  0  0  0  0  0  0  0  0  0  0
  148.2319  136.3895  160.1728 O   0  0  0  0  0  0  0  0  0  0  0  0
  148.1232  137.9718  157.5862 C   0  0  0  0  0  0  0  0  0  0  0  0
  147.6125  138.7563  158.3890 O   0  0  0  0  0  0  0  0  0  0  0  0
  150.7950  140.6108  157.4481 N   0  0  0  0  0  0  0  0  0  0  0  0
  152.1596  141.0518  157.7250 C   0  0  2  0  0  0  0  0  0  0  0  0
  153.0262  139.8592  158.1775 C   0  0  0  0  0  0  0  0  0  0  0  0
  152.8338  139.5424  159.6634 C   0  0  0  0  0  0  0  0  0  0  0  0
  153.2152  140.7430  160.5374 C   0  0  0  0  0  0  0  0  0  0  0  0
  152.6349  142.0601  160.0443 C   0  0  0  0  0  0  0  0  0  0  0  0
  152.5960  143.1579  160.9297 C   0  0  0  0  0  0  0  0  0  0  0  0
  152.0767  144.3964  160.5082 C   0  0  0  0  0  0  0  0  0  0  0  0
  151.5922  144.5446  159.1959 C   0  0  0  0  0  0  0  0  0  0  0  0
  151.6295  143.4548  158.3063 C   0  0  0  0  0  0  0  0  0  0  0  0
  152.1525  142.2096  158.7182 C   0  0  0  0  0  0  0  0  0  0  0  0
  148.2199  140.4239  156.9410 H   0  0  0  0  0  0  0  0  0  0  0  0
  148.3788  140.2018  155.2414 H   0  0  0  0  0  0  0  0  0  0  0  0
  148.6013  134.6547  157.0601 H   0  0  0  0  0  0  0  0  0  0  0  0
  146.4731  136.5564  159.1587 H   0  0  0  0  0  0  0  0  0  0  0  0
  146.3966  134.2234  159.4883 H   0  0  0  0  0  0  0  0  0  0  0  0
  147.3507  134.1434  157.9939 H   0  0  0  0  0  0  0  0  0  0  0  0
  148.3878  133.1063  160.3021 H   0  0  0  0  0  0  0  0  0  0  0  0
  149.4238  134.0821  159.2539 H   0  0  0  0  0  0  0  0  0  0  0  0
  147.8419  135.0450  161.6767 H   0  0  0  0  0  0  0  0  0  0  0  0
  149.5618  135.3000  161.3558 H   0  0  0  0  0  0  0  0  0  0  0  0
  150.2176  140.4018  158.2497 H   0  0  0  0  0  0  0  0  0  0  0  0
  152.5883  141.4419  156.7996 H   0  0  0  0  0  0  0  0  0  0  0  0
  152.8306  138.9782  157.5646 H   0  0  0  0  0  0  0  0  0  0  0  0
  154.0763  140.1064  158.0172 H   0  0  0  0  0  0  0  0  0  0  0  0
  151.7898  139.2801  159.8385 H   0  0  0  0  0  0  0  0  0  0  0  0
  153.4227  138.6705  159.9493 H   0  0  0  0  0  0  0  0  0  0  0  0
  152.8987  140.5649  161.5659 H   0  0  0  0  0  0  0  0  0  0  0  0
  154.3006  140.8467  160.5585 H   0  0  0  0  0  0  0  0  0  0  0  0
  152.9679  143.0525  161.9384 H   0  0  0  0  0  0  0  0  0  0  0  0
  152.0508  145.2321  161.1918 H   0  0  0  0  0  0  0  0  0  0  0  0
  151.1921  145.4936  158.8711 H   0  0  0  0  0  0  0  0  0  0  0  0
  151.2535  143.5755  157.3006 H   0  0  0  0  0  0  0  0  0  0  0  0
  1  2  2  0  0  0  0
  2  3  1  0  0  0  0
  2 18  1  0  0  0  0
  3  4  1  0  0  0  0
  3 29  1  0  0  0  0
  3 30  1  0  0  0  0
  4 16  1  0  0  0  0
  4  5  1  0  0  0  0
  5  6  2  0  0  0  0
  5  7  1  0  0  0  0
  7  8  1  0  0  0  0
  7  9  2  0  0  0  0
  9 10  1  0  0  0  0
  9 31  1  0  0  0  0
 10 11  1  0  0  0  0
 10 16  1  0  0  0  0
 11 15  1  0  0  0  0
 11 12  1  0  0  0  0
 11 32  1  0  0  0  0
 12 13  1  0  0  0  0
 12 33  1  0  0  0  0
 12 34  1  0  0  0  0
 13 14  1  0  0  0  0
 13 35  1  0  0  0  0
 13 36  1  0  0  0  0
 14 15  1  0  0  0  0
 14 37  1  0  0  0  0
 14 38  1  0  0  0  0
 16 17  2  0  0  0  0
 18 19  1  0  0  0  0
 18 39  1  0  0  0  0
 19 28  1  0  0  0  0
 19 20  1  0  0  0  0
 19 40  1  0  0  0  0
 20 21  1  0  0  0  0
 20 41  1  0  0  0  0
 20 42  1  0  0  0  0
 21 22  1  0  0  0  0
 21 43  1  0  0  0  0
 21 44  1  0  0  0  0
 22 23  1  0  0  0  0
 22 45  1  0  0  0  0
 22 46  1  0  0  0  0
 23 28  2  0  0  0  0
 23 24  1  0  0  0  0
 24 25  2  0  0  0  0
 24 47  1  0  0  0  0
 25 26  1  0  0  0  0
 25 48  1  0  0  0  0
 26 27  2  0  0  0  0
 26 49  1  0  0  0  0
 27 28  1  0  0  0  0
 27 50  1  0  0  0  0
M  END
> <s_m_source_file>
AV-unprocessed.smi

> <i_m_source_file_index>
139

> <i_lp_mmshare_version>
43012

> <i_f3d_flags>
0

> <s_epik_input>
W2NIXTFbY0hdW2NIXVtjSF1jKGMxMilbQ0BASF0oW0NIMl1bQ0gyXVtDSDJdMilbTkhdQyg9TylbQ0gyXW4zYyg9TyljKEYpW2NIXW4oYzM9TylbQ0BASF00W0NIMl1bQ0gyXVtDSDJdTzQ=

> <s_epik_cmdline>
J2VwaWtfcHl0aG9uJywgJy1waCcsICc3LjAnLCAnLXRuJywgJzgnLCAnLW1hJywgJzIwMCcsICctbWV0YWxfYmluZGluZycsICctaW1hZScsICc8aW5maWxlLm1hZT4nLCAnLW9tYWUnLCAnPG91dGZpbGUubWFlPic=

> <r_lp_tautomer_probability>
1

> <r_epik_Ionization_Penalty>
3.261e-08

> <r_epik_Ionization_Penalty_Charging>
3.6725e-09

> <r_epik_Ionization_Penalty_Neutral>
2.89375e-08

> <r_epik_State_Penalty>
-0

> <r_epik_Charging_Adjusted_Penalty>
3.6725e-09

> <i_epik_Tot_Q>
0

> <i_epik_Tot_abs_Q>
0

> <r_epik_Metal_State_Penalty>
-0

> <b_epik_Metal_Only>
0

> <s_epik_Chemistry_Notes>
This compound contains an acetal/aminal-like group ( X-CH(R)-Y where X, Y are N, S, or O) that may be acid/base labile, releasing an aldehyde.

> <s_lp_Force_Field>
OPLS_2005

> <r_lp_Energy>
30.9445

> <b_lp_Chiralities_Consistent>
1

> <s_lp_Variant>
AV-unprocessed.smi:139-2

> <Gold.Version>
5.8.1

> <Gold.Id.Protein>
6NUR|6NUR_protein|mol2

> <Gold.PLP.Fitness>
47.0960

> <Gold.PLP.PLP>
-42.4198

> <Gold.PLP.part.hbond>
-4.0000

> <Gold.PLP.part.metal>
0.0000

> <Gold.PLP.part.buried>
-5.9633

> <Gold.PLP.part.nonpolar>
-33.0104

> <Gold.PLP.part.repulsive>
0.2751

> <Gold.PLP.ligand.clash>
0.0000

> <Gold.PLP.ligand.torsion>
0.6088

> <Gold.PLP.Chemscore.Hbond>
1.9522

> <Gold.PLP.Chemscore.CHOScore>
0.0000

> <Gold.PLP.Chemscore.Metal>
0.0000

> <Gold.Chemscore.Hbonds>
donor molecule, donor type, donor heavy atom, donor atom, acceptor molecule, acceptor atom, score
      P1  H  7989  7998       L1     1  0.90

> <Gold.PLP.Chemscore.Internal.Correction>
0.0371

> <Gold.Rescore>
     Score         DG    S(hbond)    S(metal)    S(lipo)     H(rot)  DE(clash)    DE(int)     intcor
     17.82     -21.17       1.86        0.00     120.68       1.82       0.01       3.34       ----

> <Gold.Chemscore.Fitness>
17.8220

> <Gold.Chemscore.DG>
-21.1720

> <Gold.Chemscore.ZeroCoef>
-5.4800

> <Gold.Chemscore.Hbond>
1.8639

> <Gold.Chemscore.Metal>
0.0000

> <Gold.Chemscore.Lipo>
120.6758

> <Gold.Chemscore.Internal_Hbond>
0.0000

> <Gold.Chemscore.DEClash>
0.0141

> <Gold.Chemscore.DEInternal>
3.3359

> <Gold.Chemscore.Rot>
1.8174

> <Gold.Chemscore.Internal.Correction>
   9.000000E+99

> <Gold.Chemscore.Hbonds>
donor molecule, donor type, donor heavy atom, donor atom, acceptor molecule, acceptor atom, score
      P1  H  7989  7998       L1     1  0.88

> <Gold.Chemscore.Hbond.Weighted>
-6.2254

> <Gold.Chemscore.Metal.Weighted>
-0.0000

> <Gold.Chemscore.Lipo.Weighted>
-14.1191

> <Gold.Chemscore.Internal_Hbond.Weighted>
0.0000

> <Gold.Chemscore.DEClash.Weighted>
0.0141

> <Gold.Chemscore.DEInternal.Weighted>
3.3359

> <Gold.Chemscore.Rot.Weighted>
4.6524

> <Gold.Chemscore.Internal.Correction.Weighted>
   9.000000E+99

> <Gold.Protein.RotatedTorsions>
[ 6907 6896 6895 6894 ] final  -98.24 input  -60.11 | X-H torsion
[ 7974 7965 7964 7962 ] final -166.93 input  175.53 | X-H torsion
[ 8008 7997 7996 7995 ] final  -16.50 input   59.86 | X-H torsion
[ 10167 10162 10161 10158 ] final -101.89 input  -65.29 | X-H torsion
[ 10718 10713 10712 10709 ] final  152.10 input   66.30 | X-H torsion
[ 10763 10752 10751 10750 ] final   95.57 input  -60.55 | X-H torsion
[ 11005 11000 10999 10996 ] final  -43.05 input  -57.11 | X-H torsion

> <Gold.Protein.ActiveResidues>
 VAL166  LYS551  ARG553  GLY616  TRP617  ASP618  TYR619  PRO620  LYS621  CYS622 
 ASP623  PHE694  ASN695  SER759  ASP760  ASP761  ALA762  ILE779  LEU786  VAL792 
 PHE793  MET794  SER795  GLU796  ALA797  LYS798  CYS799  TRP800  GLU811  SER814 

> <Gold.Protein.RotatedAtoms>
  150.7041  134.1225  159.4039 H   0  0  0  0  0  0  0  0  0  0  0  0  # atno 6907 bound_to 6896
  151.9211  135.0295  160.0531 H   0  0  0  0  0  0  0  0  0  0  0  0  # atno 6908 bound_to 6896
  152.2255  133.4982  159.5223 H   0  0  0  0  0  0  0  0  0  0  0  0  # atno 6909 bound_to 6896
  144.7234  140.2594  143.6267 H   0  0  0  0  0  0  0  0  0  0  0  0  # atno 7974 bound_to 7965
  154.5048  140.2168  155.9273 H   0  0  0  0  0  0  0  0  0  0  0  0  # atno 8008 bound_to 7997
  156.1480  140.3167  155.8568 H   0  0  0  0  0  0  0  0  0  0  0  0  # atno 8009 bound_to 7997
  155.3994  140.0483  157.3028 H   0  0  0  0  0  0  0  0  0  0  0  0  # atno 8010 bound_to 7997
  140.2365  143.3569  152.0840 H   0  0  0  0  0  0  0  0  0  0  0  0  # atno 10167 bound_to 10162
  157.2622  131.0800  151.1658 H   0  0  0  0  0  0  0  0  0  0  0  0  # atno 10718 bound_to 10713
  153.2547  135.4249  155.0833 H   0  0  0  0  0  0  0  0  0  0  0  0  # atno 10763 bound_to 10752
  154.8396  135.3434  154.6462 H   0  0  0  0  0  0  0  0  0  0  0  0  # atno 10764 bound_to 10752
  153.6883  135.7035  153.5154 H   0  0  0  0  0  0  0  0  0  0  0  0  # atno 10765 bound_to 10752
  141.0358  133.6801  156.2679 H   0  0  0  0  0  0  0  0  0  0  0  0  # atno 11005 bound_to 11000
  145.8150  139.2019  143.1971 LP  0  0  0  0  0  0  0  0  0  0  0  0  # atno 17320 bound_to 7965
  146.0563  140.8017  142.9757 LP  0  0  0  0  0  0  0  0  0  0  0  0  # atno 17321 bound_to 7965
  139.5092  144.6863  151.5879 LP  0  0  0  0  0  0  0  0  0  0  0  0  # atno 17342 bound_to 10162
  140.6146  143.9372  150.6479 LP  0  0  0  0  0  0  0  0  0  0  0  0  # atno 17343 bound_to 10162
  157.3163  130.6915  149.6244 LP  0  0  0  0  0  0  0  0  0  0  0  0  # atno 17370 bound_to 10713
  155.9664  130.4348  150.5066 LP  0  0  0  0  0  0  0  0  0  0  0  0  # atno 17371 bound_to 10713
  140.6325  134.5249  157.5561 LP  0  0  0  0  0  0  0  0  0  0  0  0  # atno 17394 bound_to 11000
  139.9239  134.8094  156.1126 LP  0  0  0  0  0  0  0  0  0  0  0  0  # atno 17395 bound_to 11000

$$$$
