AV-unprocessed.smi:2671|AV-procd|sdf|10353|dock7
  -GOLD-   2272014383D 1   1.00000     0.00000
 Structure written by MMmdl.
 29 30  0  0  0  0  0  0  0  0  1 V2000
  151.5728  136.9909  154.0560 O   0  0  0  0  0  0  0  0  0  0  0  0
  151.0850  138.1045  154.6737 C   0  0  0  0  0  0  0  0  0  0  0  0
  149.8915  138.6960  154.2103 C   0  0  0  0  0  0  0  0  0  0  0  0
  149.4469  139.8473  154.9004 C   0  0  0  0  0  0  0  0  0  0  0  0
  148.1755  140.5846  154.5086 C   0  0  0  0  0  0  0  0  0  0  0  0
  148.4685  141.8423  154.1774 F   0  0  0  0  0  0  0  0  0  0  0  0
  147.5725  140.0036  153.4704 F   0  0  0  0  0  0  0  0  0  0  0  0
  147.3281  140.5958  155.5373 F   0  0  0  0  0  0  0  0  0  0  0  0
  150.1359  140.3496  155.9506 N   0  0  0  0  0  0  0  0  0  0  0  0
  151.2507  139.7061  156.2998 C   0  0  0  0  0  0  0  0  0  0  0  0
  152.1259  140.4093  157.6881 S   0  0  0  0  0  0  0  0  0  0  0  0
  151.1343  141.8798  158.0918 C   0  0  0  0  0  0  0  0  0  0  0  0
  151.9073  142.8593  158.9850 C   0  0  1  0  0  0  0  0  0  0  0  0
  151.6891  144.3364  158.6526 C   0  0  0  0  0  0  0  0  0  0  0  0
  151.9166  145.0453  159.9799 C   0  0  0  0  0  0  0  0  0  0  0  0
  151.9473  143.9135  161.0105 C   0  0  0  0  0  0  0  0  0  0  0  0
  151.4439  142.7777  160.3227 O   0  0  0  0  0  0  0  0  0  0  0  0
  151.7635  138.6160  155.7230 N   0  0  0  0  0  0  0  0  0  0  0  0
  151.3400  136.9427  153.1419 H   0  0  0  0  0  0  0  0  0  0  0  0
  149.3491  138.2862  153.3711 H   0  0  0  0  0  0  0  0  0  0  0  0
  150.8243  142.3746  157.1707 H   0  0  0  0  0  0  0  0  0  0  0  0
  150.2284  141.5593  158.6069 H   0  0  0  0  0  0  0  0  0  0  0  0
  152.9731  142.6236  158.9724 H   0  0  0  0  0  0  0  0  0  0  0  0
  152.3551  144.6898  157.8649 H   0  0  0  0  0  0  0  0  0  0  0  0
  150.6628  144.5039  158.3227 H   0  0  0  0  0  0  0  0  0  0  0  0
  152.8545  145.6015  159.9867 H   0  0  0  0  0  0  0  0  0  0  0  0
  151.1078  145.7480  160.1831 H   0  0  0  0  0  0  0  0  0  0  0  0
  152.9710  143.7135  161.3298 H   0  0  0  0  0  0  0  0  0  0  0  0
  151.3521  144.1353  161.8965 H   0  0  0  0  0  0  0  0  0  0  0  0
  1  2  1  0  0  0  0
  1 19  1  0  0  0  0
  2 18  1  0  0  0  0
  2  3  2  0  0  0  0
  3  4  1  0  0  0  0
  3 20  1  0  0  0  0
  4  5  1  0  0  0  0
  4  9  2  0  0  0  0
  5  6  1  0  0  0  0
  5  7  1  0  0  0  0
  5  8  1  0  0  0  0
  9 10  1  0  0  0  0
 10 11  1  0  0  0  0
 10 18  2  0  0  0  0
 11 12  1  0  0  0  0
 12 13  1  0  0  0  0
 12 21  1  0  0  0  0
 12 22  1  0  0  0  0
 13 17  1  0  0  0  0
 13 14  1  0  0  0  0
 13 23  1  0  0  0  0
 14 15  1  0  0  0  0
 14 24  1  0  0  0  0
 14 25  1  0  0  0  0
 15 16  1  0  0  0  0
 15 26  1  0  0  0  0
 15 27  1  0  0  0  0
 16 17  1  0  0  0  0
 16 28  1  0  0  0  0
 16 29  1  0  0  0  0
M  END
> <s_m_source_file>
AV-unprocessed.smi

> <i_m_source_file_index>
2671

> <i_lp_mmshare_version>
43012

> <i_f3d_flags>
0

> <s_epik_input>
W09IXWMxW2NIXWMoQyhGKShGKUYpbmMobjEpU1tDSDJdW0NAQEhdMltDSDJdW0NIMl1bQ0gyXU8y

> <s_epik_cmdline>
J2VwaWtfcHl0aG9uJywgJy1waCcsICc3LjAnLCAnLXRuJywgJzgnLCAnLW1hJywgJzIwMCcsICctbWV0YWxfYmluZGluZycsICctaW1hZScsICc8aW5maWxlLm1hZT4nLCAnLW9tYWUnLCAnPG91dGZpbGUubWFlPic=

> <r_lp_tautomer_probability>
0.0660145

> <r_epik_Ionization_Penalty>
3.60098

> <r_epik_Ionization_Penalty_Charging>
0

> <r_epik_Ionization_Penalty_Neutral>
3.60098

> <r_epik_State_Penalty>
2.71709

> <r_epik_Charging_Adjusted_Penalty>
2.71709

> <i_epik_Tot_Q>
0

> <i_epik_Tot_abs_Q>
0

> <r_epik_Metal_State_Penalty>
3.44057

> <b_epik_Metal_Only>
0

> <s_lp_Force_Field>
OPLS_2005

> <r_lp_Energy>
10.3894

> <b_lp_Chiralities_Consistent>
1

> <s_lp_Variant>
AV-unprocessed.smi:2671-8

> <Gold.Version>
5.8.1

> <Gold.Id.Protein>
6NUR|6NUR_protein|mol2

> <Gold.PLP.Fitness>
44.6946

> <Gold.PLP.PLP>
-40.0252

> <Gold.PLP.part.hbond>
-2.0329

> <Gold.PLP.part.metal>
0.0000

> <Gold.PLP.part.buried>
-4.7902

> <Gold.PLP.part.nonpolar>
-32.3081

> <Gold.PLP.part.repulsive>
0.0606

> <Gold.PLP.ligand.clash>
0.0000

> <Gold.PLP.ligand.torsion>
0.6593

> <Gold.PLP.Chemscore.Hbond>
1.9920

> <Gold.PLP.Chemscore.CHOScore>
0.0000

> <Gold.PLP.Chemscore.Metal>
0.0000

> <Gold.Chemscore.Hbonds>
donor molecule, donor type, donor heavy atom, donor atom, acceptor molecule, acceptor atom, score
      L1  H     1    19       P1  7949  1.00
      P1  H 10752 10764       L1     1  1.00

> <Gold.PLP.Chemscore.Internal.Correction>
0.0120

> <Gold.Rescore>
     Score         DG    S(hbond)    S(metal)    S(lipo)     H(rot)  DE(clash)    DE(int)     intcor
     14.44     -14.63       1.76        0.00      77.53       2.27       0.01       0.18       ----

> <Gold.Chemscore.Fitness>
14.4432

> <Gold.Chemscore.DG>
-14.6306

> <Gold.Chemscore.ZeroCoef>
-5.4800

> <Gold.Chemscore.Hbond>
1.7599

> <Gold.Chemscore.Metal>
0.0000

> <Gold.Chemscore.Lipo>
77.5293

> <Gold.Chemscore.Internal_Hbond>
0.0000

> <Gold.Chemscore.DEClash>
0.0085

> <Gold.Chemscore.DEInternal>
0.1788

> <Gold.Chemscore.Rot>
2.2650

> <Gold.Chemscore.Internal.Correction>
   9.000000E+99

> <Gold.Chemscore.Hbonds>
donor molecule, donor type, donor heavy atom, donor atom, acceptor molecule, acceptor atom, score
      L1  H     1    19       P1  7949  0.71
      P1  H 10752 10764       L1     1  0.45

> <Gold.Chemscore.Hbond.Weighted>
-5.8781

> <Gold.Chemscore.Metal.Weighted>
-0.0000

> <Gold.Chemscore.Lipo.Weighted>
-9.0709

> <Gold.Chemscore.Internal_Hbond.Weighted>
0.0000

> <Gold.Chemscore.DEClash.Weighted>
0.0085

> <Gold.Chemscore.DEInternal.Weighted>
0.1788

> <Gold.Chemscore.Rot.Weighted>
5.7984

> <Gold.Chemscore.Internal.Correction.Weighted>
   9.000000E+99

> <Gold.Protein.RotatedTorsions>
[ 6907 6896 6895 6894 ] final   64.41 input  -60.11 | X-H torsion
[ 7974 7965 7964 7962 ] final  -64.75 input  175.53 | X-H torsion
[ 8008 7997 7996 7995 ] final   64.92 input   59.86 | X-H torsion
[ 10167 10162 10161 10158 ] final  102.32 input  -65.29 | X-H torsion
[ 10718 10713 10712 10709 ] final   75.63 input   66.30 | X-H torsion
[ 10763 10752 10751 10750 ] final  -77.93 input  -60.55 | X-H torsion
[ 11005 11000 10999 10996 ] final  128.57 input  -57.11 | X-H torsion

> <Gold.Protein.ActiveResidues>
 VAL166  LYS551  ARG553  GLY616  TRP617  ASP618  TYR619  PRO620  LYS621  CYS622 
 ASP623  PHE694  ASN695  SER759  ASP760  ASP761  ALA762  ILE779  LEU786  VAL792 
 PHE793  MET794  SER795  GLU796  ALA797  LYS798  CYS799  TRP800  GLU811  SER814 

> <Gold.Protein.RotatedAtoms>
  152.4329  134.5743  159.9929 H   0  0  0  0  0  0  0  0  0  0  0  0  # atno 6907 bound_to 6896
  151.5861  133.3366  159.3026 H   0  0  0  0  0  0  0  0  0  0  0  0  # atno 6908 bound_to 6896
  150.8224  134.7473  159.6848 H   0  0  0  0  0  0  0  0  0  0  0  0  # atno 6909 bound_to 6896
  145.7629  140.8852  143.0420 H   0  0  0  0  0  0  0  0  0  0  0  0  # atno 7974 bound_to 7965
  155.6537  140.3497  155.4757 H   0  0  0  0  0  0  0  0  0  0  0  0  # atno 8008 bound_to 7997
  155.9827  140.1177  157.0735 H   0  0  0  0  0  0  0  0  0  0  0  0  # atno 8009 bound_to 7997
  154.4196  140.1135  156.5443 H   0  0  0  0  0  0  0  0  0  0  0  0  # atno 8010 bound_to 7997
  139.7360  144.7024  151.0648 H   0  0  0  0  0  0  0  0  0  0  0  0  # atno 10167 bound_to 10162
  157.6641  130.9735  150.1380 H   0  0  0  0  0  0  0  0  0  0  0  0  # atno 10718 bound_to 10713
  154.5193  135.5747  153.6668 H   0  0  0  0  0  0  0  0  0  0  0  0  # atno 10763 bound_to 10752
  152.9914  135.6178  154.2775 H   0  0  0  0  0  0  0  0  0  0  0  0  # atno 10764 bound_to 10752
  154.2695  135.2854  155.2724 H   0  0  0  0  0  0  0  0  0  0  0  0  # atno 10765 bound_to 10752
  139.9568  134.9611  156.9022 H   0  0  0  0  0  0  0  0  0  0  0  0  # atno 11005 bound_to 11000
  144.6827  139.9747  143.7482 LP  0  0  0  0  0  0  0  0  0  0  0  0  # atno 17320 bound_to 7965
  146.0246  139.3281  143.0792 LP  0  0  0  0  0  0  0  0  0  0  0  0  # atno 17321 bound_to 7965
  140.7779  143.4983  150.9804 LP  0  0  0  0  0  0  0  0  0  0  0  0  # atno 17342 bound_to 10162
  139.8671  143.7239  152.3169 LP  0  0  0  0  0  0  0  0  0  0  0  0  # atno 17343 bound_to 10162
  156.2210  130.3674  149.8556 LP  0  0  0  0  0  0  0  0  0  0  0  0  # atno 17370 bound_to 10713
  156.6409  130.8704  151.3513 LP  0  0  0  0  0  0  0  0  0  0  0  0  # atno 17371 bound_to 10713
  140.5591  134.0552  155.7393 LP  0  0  0  0  0  0  0  0  0  0  0  0  # atno 17394 bound_to 11000
  141.1240  133.9413  157.2672 LP  0  0  0  0  0  0  0  0  0  0  0  0  # atno 17395 bound_to 11000

$$$$
