AV-unprocessed.smi:72|AV-procd|sdf|699|dock1
  -GOLD-   2262017 13D 1   1.00000     0.00000
 Structure written by MMmdl.
 30 31  0  0  0  0  0  0  0  0  2 V2000
  146.2754  138.1674  152.5797 N   0  0  0  0  0  0  0  0  0  0  0  0
  145.6098  136.9962  152.2829 C   0  0  0  0  0  0  0  0  0  0  0  0
  146.3088  136.0153  151.6018 N   0  3  0  0  0  0  0  0  0  0  0  0
  145.8121  134.8233  151.2442 C   0  0  0  0  0  0  0  0  0  0  0  0
  144.5679  134.5285  151.5610 N   0  0  0  0  0  0  0  0  0  0  0  0
  143.9615  133.2085  151.1741 C   0  0  2  0  0  0  0  0  0  0  0  0
  144.5101  132.2305  152.0037 O   0  0  0  0  0  0  0  0  0  0  0  0
  144.9284  131.1124  151.2288 C   0  0  2  0  0  0  0  0  0  0  0  0
  146.0202  130.3047  151.9524 C   0  0  0  0  0  0  0  0  0  0  0  0
  146.8831  129.7063  151.0096 O   0  0  0  0  0  0  0  0  0  0  0  0
  145.3445  131.7431  149.8937 C   0  0  2  0  0  0  0  0  0  0  0  0
  146.6557  132.2751  149.9659 O   0  0  0  0  0  0  0  0  0  0  0  0
  144.3319  132.8659  149.7212 C   0  0  1  0  0  0  0  0  0  0  0  0
  143.2055  132.4096  149.0002 O   0  0  0  0  0  0  0  0  0  0  0  0
  143.7624  135.4812  152.2345 C   0  0  0  0  0  0  0  0  0  0  0  0
  142.5862  135.2300  152.4943 O   0  0  0  0  0  0  0  0  0  0  0  0
  144.3723  136.6990  152.5697 N   0  0  0  0  0  0  0  0  0  0  0  0
  142.8894  133.2903  151.3623 H   0  0  0  0  0  0  0  0  0  0  0  0
  144.0571  130.4809  151.0442 H   0  0  0  0  0  0  0  0  0  0  0  0
  145.3165  131.0236  149.0741 H   0  0  0  0  0  0  0  0  0  0  0  0
  144.7467  133.7281  149.1957 H   0  0  0  0  0  0  0  0  0  0  0  0
  145.8453  138.9395  153.0697 H   0  0  0  0  0  0  0  0  0  0  0  0
  147.2370  138.3488  152.3303 H   0  0  0  0  0  0  0  0  0  0  0  0
  146.4372  134.1275  150.6987 H   0  0  0  0  0  0  0  0  0  0  0  0
  146.6261  130.9659  152.5726 H   0  0  0  0  0  0  0  0  0  0  0  0
  145.5900  129.5455  152.6063 H   0  0  0  0  0  0  0  0  0  0  0  0
  147.5706  130.3193  150.7968 H   0  0  0  0  0  0  0  0  0  0  0  0
  146.6223  133.1877  149.7216 H   0  0  0  0  0  0  0  0  0  0  0  0
  142.4763  132.9833  149.1819 H   0  0  0  0  0  0  0  0  0  0  0  0
  147.2673  136.2168  151.3553 H   0  0  0  0  0  0  0  0  0  0  0  0
  1  2  1  0  0  0  0
  1 22  1  0  0  0  0
  1 23  1  0  0  0  0
  2 17  2  0  0  0  0
  2  3  1  0  0  0  0
  3  4  2  0  0  0  0
  3 30  1  0  0  0  0
  4  5  1  0  0  0  0
  4 24  1  0  0  0  0
  5  6  1  0  0  0  0
  5 15  1  0  0  0  0
  6 18  1  0  0  0  0
  6 13  1  0  0  0  0
  6  7  1  0  0  0  0
  7  8  1  0  0  0  0
  8 19  1  0  0  0  0
  8  9  1  0  0  0  0
  8 11  1  0  0  0  0
  9 10  1  0  0  0  0
  9 25  1  0  0  0  0
  9 26  1  0  0  0  0
 10 27  1  0  0  0  0
 11 20  1  0  0  0  0
 11 12  1  0  0  0  0
 11 13  1  0  0  0  0
 12 28  1  0  0  0  0
 13 21  1  0  0  0  0
 13 14  1  0  0  0  0
 14 29  1  0  0  0  0
 15 16  2  0  0  0  0
 15 17  1  0  0  0  0
M  CHG  1   3   1
M  END
> <s_m_source_file>
AV-unprocessed.smi

> <i_m_source_file_index>
72

> <i_lp_mmshare_version>
43012

> <i_f3d_flags>
0

> <s_epik_input>
W05IMl1jMW5bY0hdbihjKD1PKW4xKVtDQEBIXTJPW0NASF0oW0NIMl1bT0hdKVtDQEBIXShbT0hdKVtDQEhdMltPSF0=

> <s_epik_cmdline>
J2VwaWtfcHl0aG9uJywgJy1waCcsICc3LjAnLCAnLXRuJywgJzgnLCAnLW1hJywgJzIwMCcsICctbWV0YWxfYmluZGluZycsICctaW1hZScsICc8aW5maWxlLm1hZT4nLCAnLW9tYWUnLCAnPG91dGZpbGUubWFlPic=

> <r_lp_tautomer_probability>
4.77166e-05

> <r_epik_Ionization_Penalty>
0.104979

> <r_epik_Ionization_Penalty_Charging>
0.0999619

> <r_epik_Ionization_Penalty_Neutral>
0.00501745

> <r_epik_State_Penalty>
2.51541

> <r_epik_Charging_Adjusted_Penalty>
2.61537

> <i_epik_Tot_Q>
1

> <i_epik_Tot_abs_Q>
1

> <r_epik_Metal_State_Penalty>
3.53763

> <b_epik_Metal_Only>
0

> <s_epik_Chemistry_Notes>
This compound contains an acetal/aminal-like group ( X-CH(R)-Y where X, Y are N, S, or O) that may be acid/base labile, releasing an aldehyde.

> <s_lp_Force_Field>
OPLS_2005

> <r_lp_Energy>
28.7493

> <b_lp_Chiralities_Consistent>
1

> <s_lp_Variant>
AV-unprocessed.smi:72-37

> <Gold.Version>
5.8.1

> <Gold.Id.Protein>
6NUR|6NUR_protein|mol2

> <Gold.PLP.Fitness>
41.2327

> <Gold.PLP.PLP>
-30.8453

> <Gold.PLP.part.hbond>
-4.6679

> <Gold.PLP.part.metal>
0.0000

> <Gold.PLP.part.buried>
-8.8660

> <Gold.PLP.part.nonpolar>
-19.0530

> <Gold.PLP.part.repulsive>
0.6485

> <Gold.PLP.ligand.clash>
0.8952

> <Gold.PLP.ligand.torsion>
0.6960

> <Gold.PLP.Chemscore.Hbond>
4.2200

> <Gold.PLP.Chemscore.CHOScore>
0.0000

> <Gold.PLP.Chemscore.Metal>
0.0000

> <Gold.Chemscore.Hbonds>
donor molecule, donor type, donor heavy atom, donor atom, acceptor molecule, acceptor atom, score
      L1  H     3    30       P1  7948  1.95
      L1  H    10    27       P1 10747  1.00
      L1  H    14    29       P1 10186  0.88
      P1  H 10785 10796       L1    14  0.37

> <Gold.PLP.Chemscore.Internal.Correction>
0.0147

> <Gold.Rescore>
     Score         DG    S(hbond)    S(metal)    S(lipo)     H(rot)  DE(clash)    DE(int)     intcor
      9.18     -10.88       3.35        0.00      39.86       4.08       0.00       1.70       ----

> <Gold.Chemscore.Fitness>
9.1775

> <Gold.Chemscore.DG>
-10.8840

> <Gold.Chemscore.ZeroCoef>
-5.4800

> <Gold.Chemscore.Hbond>
3.3476

> <Gold.Chemscore.Metal>
0.0000

> <Gold.Chemscore.Lipo>
39.8577

> <Gold.Chemscore.Internal_Hbond>
0.0000

> <Gold.Chemscore.DEClash>
0.0021

> <Gold.Chemscore.DEInternal>
1.7044

> <Gold.Chemscore.Rot>
4.0783

> <Gold.Chemscore.Internal.Correction>
   9.000000E+99

> <Gold.Chemscore.Hbonds>
donor molecule, donor type, donor heavy atom, donor atom, acceptor molecule, acceptor atom, score
      L1  H     3    30       P1  7948  0.93
      L1  H    10    27       P1 10747  0.96
      L1  H    14    29       P1 10186  0.86
      P1  H 10785 10796       L1    14  0.30

> <Gold.Chemscore.Hbond.Weighted>
-11.1811

> <Gold.Chemscore.Metal.Weighted>
-0.0000

> <Gold.Chemscore.Lipo.Weighted>
-4.6633

> <Gold.Chemscore.Internal_Hbond.Weighted>
0.0000

> <Gold.Chemscore.DEClash.Weighted>
0.0021

> <Gold.Chemscore.DEInternal.Weighted>
1.7044

> <Gold.Chemscore.Rot.Weighted>
10.4404

> <Gold.Chemscore.Internal.Correction.Weighted>
   9.000000E+99

> <Gold.Protein.RotatedTorsions>
[ 6907 6896 6895 6894 ] final -143.44 input  -60.11 | X-H torsion
[ 7974 7965 7964 7962 ] final  159.57 input  175.53 | X-H torsion
[ 8008 7997 7996 7995 ] final   -2.13 input   59.86 | X-H torsion
[ 10167 10162 10161 10158 ] final  152.28 input  -65.29 | X-H torsion
[ 10718 10713 10712 10709 ] final  -20.15 input   66.30 | X-H torsion
[ 10763 10752 10751 10750 ] final  167.21 input  -60.55 | X-H torsion
[ 11005 11000 10999 10996 ] final  -47.19 input  -57.11 | X-H torsion

> <Gold.Protein.ActiveResidues>
 VAL166  LYS551  ARG553  GLY616  TRP617  ASP618  TYR619  PRO620  LYS621  CYS622 
 ASP623  PHE694  ASN695  SER759  ASP760  ASP761  ALA762  ILE779  LEU786  VAL792 
 PHE793  MET794  SER795  GLU796  ALA797  LYS798  CYS799  TRP800  GLU811  SER814 

> <Gold.Protein.RotatedAtoms>
  151.1005  133.5247  159.2609 H   0  0  0  0  0  0  0  0  0  0  0  0  # atno 6907 bound_to 6896
  151.2079  135.0469  159.8909 H   0  0  0  0  0  0  0  0  0  0  0  0  # atno 6908 bound_to 6896
  152.5442  134.0825  159.8295 H   0  0  0  0  0  0  0  0  0  0  0  0  # atno 6909 bound_to 6896
  144.7783  139.7636  143.6270 H   0  0  0  0  0  0  0  0  0  0  0  0  # atno 7974 bound_to 7965
  154.6392  140.2542  155.7342 H   0  0  0  0  0  0  0  0  0  0  0  0  # atno 8008 bound_to 7997
  156.2520  140.2891  156.0698 H   0  0  0  0  0  0  0  0  0  0  0  0  # atno 8009 bound_to 7997
  155.1624  140.0384  157.2835 H   0  0  0  0  0  0  0  0  0  0  0  0  # atno 8010 bound_to 7997
  139.4834  144.5371  151.7627 H   0  0  0  0  0  0  0  0  0  0  0  0  # atno 10167 bound_to 10162
  156.5359  130.4666  149.6523 H   0  0  0  0  0  0  0  0  0  0  0  0  # atno 10718 bound_to 10713
  154.3505  135.2753  155.2374 H   0  0  0  0  0  0  0  0  0  0  0  0  # atno 10763 bound_to 10752
  154.4606  135.5908  153.6256 H   0  0  0  0  0  0  0  0  0  0  0  0  # atno 10764 bound_to 10752
  152.9850  135.6064  154.3715 H   0  0  0  0  0  0  0  0  0  0  0  0  # atno 10765 bound_to 10752
  141.0625  133.6704  156.3262 H   0  0  0  0  0  0  0  0  0  0  0  0  # atno 11005 bound_to 11000
  146.1976  139.5252  142.9764 LP  0  0  0  0  0  0  0  0  0  0  0  0  # atno 17320 bound_to 7965
  145.6122  141.0337  143.1960 LP  0  0  0  0  0  0  0  0  0  0  0  0  # atno 17321 bound_to 7965
  140.4905  144.1318  150.5949 LP  0  0  0  0  0  0  0  0  0  0  0  0  # atno 17342 bound_to 10162
  140.4177  143.2626  151.9755 LP  0  0  0  0  0  0  0  0  0  0  0  0  # atno 17343 bound_to 10162
  156.3016  130.7180  151.2053 LP  0  0  0  0  0  0  0  0  0  0  0  0  # atno 17370 bound_to 10713
  157.7414  131.0505  150.5101 LP  0  0  0  0  0  0  0  0  0  0  0  0  # atno 17371 bound_to 10713
  140.5839  134.5718  157.5485 LP  0  0  0  0  0  0  0  0  0  0  0  0  # atno 17394 bound_to 11000
  139.9446  134.7725  156.0594 LP  0  0  0  0  0  0  0  0  0  0  0  0  # atno 17395 bound_to 11000

$$$$
