AV-unprocessed.smi:2640|AV-procd|sdf|10271|dock2
  -GOLD-   2272014283D 1   1.00000     0.00000
 Structure written by MMmdl.
 41 42  0  0  0  0  0  0  0  0  1 V2000
  146.6136  138.1063  154.1412 O   0  0  0  0  0  0  0  0  0  0  0  0
  147.1144  138.6623  153.1643 C   0  0  0  0  0  0  0  0  0  0  0  0
  146.4957  138.4858  151.7798 C   0  0  0  0  0  0  0  0  0  0  0  0
  145.2878  137.6588  151.8424 N   0  0  0  0  0  0  0  0  0  0  0  0
  145.6136  136.2496  151.6789 C   0  0  0  0  0  0  0  0  0  0  0  0
  144.5682  135.5677  150.7797 C   0  0  0  0  0  0  0  0  0  0  0  0
  144.7499  134.1281  150.7128 N   0  0  0  0  0  0  0  0  0  0  0  0
  143.7961  133.1383  150.8238 C   0  0  0  0  0  0  0  0  0  0  0  0
  144.4359  131.9405  150.6828 C   0  0  0  0  0  0  0  0  0  0  0  0
  145.7977  132.3053  150.4902 C   0  0  0  0  0  0  0  0  0  0  0  0
  145.9828  133.6153  150.5100 N   0  0  0  0  0  0  0  0  0  0  0  0
  148.2046  139.4445  153.2326 N   0  0  0  0  0  0  0  0  0  0  0  0
  148.9269  139.7932  154.4577 C   0  0  1  0  0  0  0  0  0  0  0  0
  150.3837  139.3006  154.2992 C   0  0  0  0  0  0  0  0  0  0  0  0
  151.1190  139.0987  155.6358 C   0  0  0  0  0  0  0  0  0  0  0  0
  151.3463  140.3801  156.4526 C   0  0  0  0  0  0  0  0  0  0  0  0
  150.0450  141.0706  156.8957 C   0  0  0  0  0  0  0  0  0  0  0  0
  149.4278  141.8224  155.8111 N   0  0  0  0  0  0  0  0  0  0  0  0
  148.9311  141.3257  154.6679 C   0  0  0  0  0  0  0  0  0  0  0  0
  148.4928  142.0816  153.8006 O   0  0  0  0  0  0  0  0  0  0  0  0
  146.2555  139.4688  151.3714 H   0  0  0  0  0  0  0  0  0  0  0  0
  147.2255  138.0251  151.1119 H   0  0  0  0  0  0  0  0  0  0  0  0
  144.6260  137.9245  151.1270 H   0  0  0  0  0  0  0  0  0  0  0  0
  146.6086  136.1403  151.2449 H   0  0  0  0  0  0  0  0  0  0  0  0
  145.6315  135.7651  152.6560 H   0  0  0  0  0  0  0  0  0  0  0  0
  143.5647  135.7689  151.1571 H   0  0  0  0  0  0  0  0  0  0  0  0
  144.6080  135.9754  149.7685 H   0  0  0  0  0  0  0  0  0  0  0  0
  142.7531  133.3669  150.9866 H   0  0  0  0  0  0  0  0  0  0  0  0
  143.9979  130.9539  150.7118 H   0  0  0  0  0  0  0  0  0  0  0  0
  146.6513  131.6616  150.3369 H   0  0  0  0  0  0  0  0  0  0  0  0
  148.5400  139.8597  152.3759 H   0  0  0  0  0  0  0  0  0  0  0  0
  148.4518  139.2980  155.3065 H   0  0  0  0  0  0  0  0  0  0  0  0
  150.3789  138.3355  153.7897 H   0  0  0  0  0  0  0  0  0  0  0  0
  150.9547  139.9680  153.6511 H   0  0  0  0  0  0  0  0  0  0  0  0
  150.5732  138.3751  156.2426 H   0  0  0  0  0  0  0  0  0  0  0  0
  152.0884  138.6426  155.4328 H   0  0  0  0  0  0  0  0  0  0  0  0
  151.9167  140.1157  157.3435 H   0  0  0  0  0  0  0  0  0  0  0  0
  151.9719  141.0777  155.8941 H   0  0  0  0  0  0  0  0  0  0  0  0
  149.3391  140.3534  157.3162 H   0  0  0  0  0  0  0  0  0  0  0  0
  150.2698  141.7817  157.6909 H   0  0  0  0  0  0  0  0  0  0  0  0
  149.4027  142.8258  155.9229 H   0  0  0  0  0  0  0  0  0  0  0  0
  1  2  2  0  0  0  0
  2  3  1  0  0  0  0
  2 12  1  0  0  0  0
  3  4  1  0  0  0  0
  3 21  1  0  0  0  0
  3 22  1  0  0  0  0
  4  5  1  0  0  0  0
  4 23  1  0  0  0  0
  5  6  1  0  0  0  0
  5 24  1  0  0  0  0
  5 25  1  0  0  0  0
  6  7  1  0  0  0  0
  6 26  1  0  0  0  0
  6 27  1  0  0  0  0
  7 11  1  0  0  0  0
  7  8  1  0  0  0  0
  8  9  2  0  0  0  0
  8 28  1  0  0  0  0
  9 10  1  0  0  0  0
  9 29  1  0  0  0  0
 10 11  2  0  0  0  0
 10 30  1  0  0  0  0
 12 13  1  0  0  0  0
 12 31  1  0  0  0  0
 13 19  1  0  0  0  0
 13 14  1  0  0  0  0
 13 32  1  0  0  0  0
 14 15  1  0  0  0  0
 14 33  1  0  0  0  0
 14 34  1  0  0  0  0
 15 16  1  0  0  0  0
 15 35  1  0  0  0  0
 15 36  1  0  0  0  0
 16 17  1  0  0  0  0
 16 37  1  0  0  0  0
 16 38  1  0  0  0  0
 17 18  1  0  0  0  0
 17 39  1  0  0  0  0
 17 40  1  0  0  0  0
 18 19  1  0  0  0  0
 18 41  1  0  0  0  0
 19 20  2  0  0  0  0
M  END
> <s_m_source_file>
AV-unprocessed.smi

> <i_m_source_file_index>
2640

> <i_lp_mmshare_version>
43012

> <i_f3d_flags>
0

> <s_epik_input>
Tz1DMVtOSF1bQ0gyXVtDSDJdW0NIMl1bQ0gyXVtDQEhdMVtOSF1DKD1PKVtDSDJdW05IXVtDSDJdW0NIMl1uMltjSF1bY0hdW2NIXW4y

> <s_epik_cmdline>
J2VwaWtfcHl0aG9uJywgJy1waCcsICc3LjAnLCAnLXRuJywgJzgnLCAnLW1hJywgJzIwMCcsICctbWV0YWxfYmluZGluZycsICctaW1hZScsICc8aW5maWxlLm1hZT4nLCAnLW9tYWUnLCAnPG91dGZpbGUubWFlPic=

> <r_lp_tautomer_probability>
1

> <r_epik_Ionization_Penalty>
0.641667

> <r_epik_Ionization_Penalty_Charging>
0

> <r_epik_Ionization_Penalty_Neutral>
0.641667

> <r_epik_State_Penalty>
0.657743

> <r_epik_Charging_Adjusted_Penalty>
0.657743

> <i_epik_Tot_Q>
0

> <i_epik_Tot_abs_Q>
0

> <r_epik_Metal_State_Penalty>
0.656014

> <b_epik_Metal_Only>
0

> <s_lp_Force_Field>
OPLS_2005

> <r_lp_Energy>
12.1888

> <b_lp_Chiralities_Consistent>
1

> <s_lp_Variant>
AV-unprocessed.smi:2640-4

> <Gold.Version>
5.8.1

> <Gold.Id.Protein>
6NUR|6NUR_protein|mol2

> <Gold.PLP.Fitness>
55.3821

> <Gold.PLP.PLP>
-40.4496

> <Gold.PLP.part.hbond>
-4.1660

> <Gold.PLP.part.metal>
0.0000

> <Gold.PLP.part.buried>
-4.5390

> <Gold.PLP.part.nonpolar>
-34.1246

> <Gold.PLP.part.repulsive>
0.8742

> <Gold.PLP.ligand.clash>
0.0000

> <Gold.PLP.ligand.torsion>
0.6554

> <Gold.PLP.Chemscore.Hbond>
3.3840

> <Gold.PLP.Chemscore.CHOScore>
2.0000

> <Gold.PLP.Chemscore.Metal>
0.0000

> <Gold.Chemscore.Hbonds>
donor molecule, donor type, donor heavy atom, donor atom, acceptor molecule, acceptor atom, score
      L1  H     4    23       P1 10171  1.00
      L1  H    12    31       P1  7957  1.00
      L1  H    18    41       P1  8028  1.00
      P1  H  8011  8017       L1    20  0.38
      L1  C     8    28       P1 10186  1.00
      L1  C    10    30       P1 10747  1.00

> <Gold.PLP.Chemscore.Internal.Correction>
0.0912

> <Gold.Rescore>
     Score         DG    S(hbond)    S(metal)    S(lipo)     H(rot)  DE(clash)    DE(int)     intcor
     19.41     -20.10       3.40        0.00      79.85       2.37       0.11       0.59       ----

> <Gold.Chemscore.Fitness>
19.4061

> <Gold.Chemscore.DG>
-20.1027

> <Gold.Chemscore.ZeroCoef>
-5.4800

> <Gold.Chemscore.Hbond>
3.3999

> <Gold.Chemscore.Metal>
0.0000

> <Gold.Chemscore.Lipo>
79.8487

> <Gold.Chemscore.Internal_Hbond>
0.0000

> <Gold.Chemscore.DEClash>
0.1084

> <Gold.Chemscore.DEInternal>
0.5882

> <Gold.Chemscore.Rot>
2.3732

> <Gold.Chemscore.Internal.Correction>
   9.000000E+99

> <Gold.Chemscore.Hbonds>
donor molecule, donor type, donor heavy atom, donor atom, acceptor molecule, acceptor atom, score
      L1  H     4    23       P1 10171  1.00
      L1  H    12    31       P1  7957  0.97
      L1  H    18    41       P1  8028  0.97
      P1  H  8011  8017       L1    20  0.33

> <Gold.Chemscore.Hbond.Weighted>
-11.3557

> <Gold.Chemscore.Metal.Weighted>
-0.0000

> <Gold.Chemscore.Lipo.Weighted>
-9.3423

> <Gold.Chemscore.Internal_Hbond.Weighted>
0.0000

> <Gold.Chemscore.DEClash.Weighted>
0.1084

> <Gold.Chemscore.DEInternal.Weighted>
0.5882

> <Gold.Chemscore.Rot.Weighted>
6.0753

> <Gold.Chemscore.Internal.Correction.Weighted>
   9.000000E+99

> <Gold.Protein.RotatedTorsions>
[ 6907 6896 6895 6894 ] final   72.19 input  -60.11 | X-H torsion
[ 7974 7965 7964 7962 ] final  134.30 input  175.53 | X-H torsion
[ 8008 7997 7996 7995 ] final   13.56 input   59.86 | X-H torsion
[ 10167 10162 10161 10158 ] final -166.30 input  -65.29 | X-H torsion
[ 10718 10713 10712 10709 ] final  172.89 input   66.30 | X-H torsion
[ 10763 10752 10751 10750 ] final  -96.16 input  -60.55 | X-H torsion
[ 11005 11000 10999 10996 ] final  -40.28 input  -57.11 | X-H torsion

> <Gold.Protein.ActiveResidues>
 VAL166  LYS551  ARG553  GLY616  TRP617  ASP618  TYR619  PRO620  LYS621  CYS622 
 ASP623  PHE694  ASN695  SER759  ASP760  ASP761  ALA762  ILE779  LEU786  VAL792 
 PHE793  MET794  SER795  GLU796  ALA797  LYS798  CYS799  TRP800  GLU811  SER814 

> <Gold.Protein.RotatedAtoms>
  152.4854  134.4608  159.9604 H   0  0  0  0  0  0  0  0  0  0  0  0  # atno 6907 bound_to 6896
  151.4605  133.3588  159.2816 H   0  0  0  0  0  0  0  0  0  0  0  0  # atno 6908 bound_to 6896
  150.8960  134.8393  159.7387 H   0  0  0  0  0  0  0  0  0  0  0  0  # atno 6909 bound_to 6896
  144.9777  139.4537  143.5401 H   0  0  0  0  0  0  0  0  0  0  0  0  # atno 7974 bound_to 7965
  154.8361  140.2907  155.5690 H   0  0  0  0  0  0  0  0  0  0  0  0  # atno 8008 bound_to 7997
  156.3009  140.2523  156.3227 H   0  0  0  0  0  0  0  0  0  0  0  0  # atno 8009 bound_to 7997
  154.9177  140.0387  157.1970 H   0  0  0  0  0  0  0  0  0  0  0  0  # atno 8010 bound_to 7997
  139.6124  144.0788  152.1855 H   0  0  0  0  0  0  0  0  0  0  0  0  # atno 10167 bound_to 10162
  156.9724  131.0094  151.2902 H   0  0  0  0  0  0  0  0  0  0  0  0  # atno 10718 bound_to 10713
  154.7214  135.5094  153.8818 H   0  0  0  0  0  0  0  0  0  0  0  0  # atno 10763 bound_to 10752
  153.0866  135.6647  153.9946 H   0  0  0  0  0  0  0  0  0  0  0  0  # atno 10764 bound_to 10752
  153.9768  135.3033  155.3402 H   0  0  0  0  0  0  0  0  0  0  0  0  # atno 10765 bound_to 10752
  141.0163  133.6883  156.2301 H   0  0  0  0  0  0  0  0  0  0  0  0  # atno 11005 bound_to 11000
  146.3400  139.9030  142.8791 LP  0  0  0  0  0  0  0  0  0  0  0  0  # atno 17320 bound_to 7965
  145.2466  141.0029  143.3905 LP  0  0  0  0  0  0  0  0  0  0  0  0  # atno 17321 bound_to 7965
  140.0410  144.6007  150.7411 LP  0  0  0  0  0  0  0  0  0  0  0  0  # atno 17342 bound_to 10162
  140.7328  143.2710  151.3890 LP  0  0  0  0  0  0  0  0  0  0  0  0  # atno 17343 bound_to 10162
  157.5583  130.8229  149.8233 LP  0  0  0  0  0  0  0  0  0  0  0  0  # atno 17370 bound_to 10713
  156.0277  130.3774  150.1775 LP  0  0  0  0  0  0  0  0  0  0  0  0  # atno 17371 bound_to 10713
  140.6648  134.4930  157.5585 LP  0  0  0  0  0  0  0  0  0  0  0  0  # atno 17394 bound_to 11000
  139.9119  134.8326  156.1498 LP  0  0  0  0  0  0  0  0  0  0  0  0  # atno 17395 bound_to 11000

$$$$
