AV-unprocessed.smi:1701|AV-procd|sdf|6821|dock1
  -GOLD-   22720 7593D 1   1.00000     0.00000
 Structure written by MMmdl.
 55 57  0  0  0  0  0  0  0  0  3 V2000
  152.4187  141.5620  159.9140 C   0  0  0  0  0  0  0  0  0  0  0  0
  152.7732  141.1477  158.4776 C   0  0  0  0  0  0  0  0  0  0  0  0
  151.6729  141.3346  157.5315 N   0  0  0  0  0  0  0  0  0  0  0  0
  151.1955  142.6896  157.2450 C   0  0  0  0  0  0  0  0  0  0  0  0
  152.0534  143.7850  157.8954 C   0  0  0  0  0  0  0  0  0  0  0  0
  151.2112  140.2447  156.7531 C   0  0  0  0  0  0  0  0  0  0  0  0
  150.9420  140.3312  155.3639 C   0  0  0  0  0  0  0  0  0  0  0  0
  150.4772  139.1995  154.6632 C   0  0  0  0  0  0  0  0  0  0  0  0
  150.2913  137.9787  155.3432 C   0  0  0  0  0  0  0  0  0  0  0  0
  149.7986  136.8728  154.5990 N   0  0  0  0  0  0  0  0  0  0  0  0
  149.5387  135.6200  155.0232 C   0  0  0  0  0  0  0  0  0  0  0  0
  149.7810  135.1994  156.1517 O   0  0  0  0  0  0  0  0  0  0  0  0
  149.0042  134.8191  154.0842 N   0  0  0  0  0  0  0  0  0  0  0  0
  148.6079  133.4159  154.2138 C   0  0  2  0  0  0  0  0  0  0  0  0
  149.6702  132.5199  154.8738 C   0  0  0  0  0  0  0  0  0  0  0  0
  149.6299  131.1903  154.0947 C   0  0  0  0  0  0  0  0  0  0  0  0
  148.5262  131.3046  153.1145 N   0  3  1  0  0  0  0  0  0  0  0  0
  147.2747  130.6633  153.6031 C   0  0  0  0  0  0  0  0  0  0  0  0
  146.0736  130.9815  152.7041 C   0  0  0  0  0  0  0  0  0  0  0  0
  145.8699  132.4957  152.6116 C   0  0  0  0  0  0  0  0  0  0  0  0
  147.1413  133.1500  152.0605 C   0  0  0  0  0  0  0  0  0  0  0  0
  148.4149  132.7584  152.8432 C   0  0  1  0  0  0  0  0  0  0  0  0
  150.5692  137.9396  156.7295 C   0  0  0  0  0  0  0  0  0  0  0  0
  151.0099  139.0491  157.3605 N   0  3  0  0  0  0  0  0  0  0  0  0
  153.2787  141.4322  160.5709 H   0  0  0  0  0  0  0  0  0  0  0  0
  151.6089  140.9577  160.3196 H   0  0  0  0  0  0  0  0  0  0  0  0
  152.1166  142.6076  159.9723 H   0  0  0  0  0  0  0  0  0  0  0  0
  153.6578  141.6828  158.1327 H   0  0  0  0  0  0  0  0  0  0  0  0
  153.0605  140.0958  158.4776 H   0  0  0  0  0  0  0  0  0  0  0  0
  151.1391  142.8478  156.1677 H   0  0  0  0  0  0  0  0  0  0  0  0
  150.1697  142.7848  157.6022 H   0  0  0  0  0  0  0  0  0  0  0  0
  151.6848  144.7727  157.6185 H   0  0  0  0  0  0  0  0  0  0  0  0
  153.0945  143.7222  157.5781 H   0  0  0  0  0  0  0  0  0  0  0  0
  152.0290  143.7244  158.9821 H   0  0  0  0  0  0  0  0  0  0  0  0
  151.0766  141.2508  154.8155 H   0  0  0  0  0  0  0  0  0  0  0  0
  150.2673  139.2739  153.6062 H   0  0  0  0  0  0  0  0  0  0  0  0
  149.6373  137.0485  153.6183 H   0  0  0  0  0  0  0  0  0  0  0  0
  148.8852  135.2259  153.1671 H   0  0  0  0  0  0  0  0  0  0  0  0
  147.6755  133.3477  154.7765 H   0  0  0  0  0  0  0  0  0  0  0  0
  150.6660  132.9601  154.8023 H   0  0  0  0  0  0  0  0  0  0  0  0
  149.4535  132.3728  155.9325 H   0  0  0  0  0  0  0  0  0  0  0  0
  150.5634  131.0609  153.5457 H   0  0  0  0  0  0  0  0  0  0  0  0
  149.5198  130.3255  154.7508 H   0  0  0  0  0  0  0  0  0  0  0  0
  147.4246  129.5841  153.6507 H   0  0  0  0  0  0  0  0  0  0  0  0
  147.0608  130.9926  154.6211 H   0  0  0  0  0  0  0  0  0  0  0  0
  146.2301  130.5628  151.7090 H   0  0  0  0  0  0  0  0  0  0  0  0
  145.1753  130.5092  153.1029 H   0  0  0  0  0  0  0  0  0  0  0  0
  145.0221  132.7221  151.9643 H   0  0  0  0  0  0  0  0  0  0  0  0
  145.6291  132.9033  153.5940 H   0  0  0  0  0  0  0  0  0  0  0  0
  147.2632  132.8434  151.0208 H   0  0  0  0  0  0  0  0  0  0  0  0
  147.0280  134.2344  152.0407 H   0  0  0  0  0  0  0  0  0  0  0  0
  149.2739  133.0232  152.2231 H   0  0  0  0  0  0  0  0  0  0  0  0
  150.4457  137.0772  157.3670 H   0  0  0  0  0  0  0  0  0  0  0  0
  148.7881  130.8346  152.2594 H   0  0  0  0  0  0  0  0  0  0  0  0
  151.1981  138.9837  158.3609 H   0  0  0  0  0  0  0  0  0  0  0  0
  1  2  1  0  0  0  0
  1 25  1  0  0  0  0
  1 26  1  0  0  0  0
  1 27  1  0  0  0  0
  2  3  1  0  0  0  0
  2 28  1  0  0  0  0
  2 29  1  0  0  0  0
  3  4  1  0  0  0  0
  3  6  1  0  0  0  0
  4  5  1  0  0  0  0
  4 30  1  0  0  0  0
  4 31  1  0  0  0  0
  5 32  1  0  0  0  0
  5 33  1  0  0  0  0
  5 34  1  0  0  0  0
  6 24  1  0  0  0  0
  6  7  2  0  0  0  0
  7  8  1  0  0  0  0
  7 35  1  0  0  0  0
  8  9  2  0  0  0  0
  8 36  1  0  0  0  0
  9 10  1  0  0  0  0
  9 23  1  0  0  0  0
 10 11  1  0  0  0  0
 10 37  1  0  0  0  0
 11 12  2  0  0  0  0
 11 13  1  0  0  0  0
 13 14  1  0  0  0  0
 13 38  1  0  0  0  0
 14 22  1  0  0  0  0
 14 15  1  0  0  0  0
 14 39  1  0  0  0  0
 15 16  1  0  0  0  0
 15 40  1  0  0  0  0
 15 41  1  0  0  0  0
 16 17  1  0  0  0  0
 16 42  1  0  0  0  0
 16 43  1  0  0  0  0
 17 22  1  0  0  0  0
 17 18  1  0  0  0  0
 17 54  1  0  0  0  0
 18 19  1  0  0  0  0
 18 44  1  0  0  0  0
 18 45  1  0  0  0  0
 19 20  1  0  0  0  0
 19 46  1  0  0  0  0
 19 47  1  0  0  0  0
 20 21  1  0  0  0  0
 20 48  1  0  0  0  0
 20 49  1  0  0  0  0
 21 22  1  0  0  0  0
 21 50  1  0  0  0  0
 21 51  1  0  0  0  0
 22 52  1  0  0  0  0
 23 24  2  0  0  0  0
 23 53  1  0  0  0  0
 24 55  1  0  0  0  0
M  CHG  1  17   1
M  CHG  1  24   1
M  END
> <s_m_source_file>
AV-unprocessed.smi

> <i_m_source_file_index>
1701

> <i_lp_mmshare_version>
43012

> <i_f3d_flags>
0

> <s_epik_input>
W0NIM11bQ0gyXU4oW0NIMl1bQ0gzXSljMVtjSF1bY0hdYyhbY0hdbjEpW05IXUMoPU8pW05IXVtDQEhdKFtDSDJdW0NIMl0yKVtDQEBIXShOMjMpW0NIMl1bQ0gyXVtDSDJdW0NIMl0z

> <s_epik_cmdline>
J2VwaWtfcHl0aG9uJywgJy1waCcsICc3LjAnLCAnLXRuJywgJzgnLCAnLW1hJywgJzIwMCcsICctbWV0YWxfYmluZGluZycsICctaW1hZScsICc8aW5maWxlLm1hZT4nLCAnLW9tYWUnLCAnPG91dGZpbGUubWFlPic=

> <r_lp_tautomer_probability>
0.999994

> <r_epik_Ionization_Penalty>
0.302862

> <r_epik_Ionization_Penalty_Charging>
0.302842

> <r_epik_Ionization_Penalty_Neutral>
1.95166e-05

> <r_epik_State_Penalty>
0.019791

> <r_epik_Charging_Adjusted_Penalty>
0.322633

> <i_epik_Tot_Q>
2

> <i_epik_Tot_abs_Q>
2

> <r_epik_Metal_State_Penalty>
0.0536763

> <b_epik_Metal_Only>
0

> <s_lp_Force_Field>
OPLS_2005

> <r_lp_Energy>
65.2354

> <b_lp_Chiralities_Consistent>
1

> <s_lp_Variant>
AV-unprocessed.smi:1701-1

> <Gold.Version>
5.8.1

> <Gold.Id.Protein>
6NUR|6NUR_protein|mol2

> <Gold.PLP.Fitness>
48.9021

> <Gold.PLP.PLP>
-41.9043

> <Gold.PLP.part.hbond>
-3.0000

> <Gold.PLP.part.metal>
0.0000

> <Gold.PLP.part.buried>
-3.5862

> <Gold.PLP.part.nonpolar>
-35.6002

> <Gold.PLP.part.repulsive>
0.0877

> <Gold.PLP.ligand.clash>
0.0000

> <Gold.PLP.ligand.torsion>
0.9468

> <Gold.PLP.Chemscore.Hbond>
2.8892

> <Gold.PLP.Chemscore.CHOScore>
0.0000

> <Gold.PLP.Chemscore.Metal>
0.0000

> <Gold.Chemscore.Hbonds>
donor molecule, donor type, donor heavy atom, donor atom, acceptor molecule, acceptor atom, score
      L1  H    10    37       P1  7948  0.90
      L1  H    13    38       P1  7948  1.00
      L1  H    17    54       P1 10747  1.00

> <Gold.PLP.Chemscore.Internal.Correction>
0.2239

> <Gold.Rescore>
     Score         DG    S(hbond)    S(metal)    S(lipo)     H(rot)  DE(clash)    DE(int)     intcor
     19.24     -22.77       2.71        0.00      99.02       1.30       0.03       3.50       ----

> <Gold.Chemscore.Fitness>
19.2426

> <Gold.Chemscore.DG>
-22.7667

> <Gold.Chemscore.ZeroCoef>
-5.4800

> <Gold.Chemscore.Hbond>
2.7051

> <Gold.Chemscore.Metal>
0.0000

> <Gold.Chemscore.Lipo>
99.0158

> <Gold.Chemscore.Internal_Hbond>
0.0000

> <Gold.Chemscore.DEClash>
0.0264

> <Gold.Chemscore.DEInternal>
3.4978

> <Gold.Chemscore.Rot>
1.3020

> <Gold.Chemscore.Internal.Correction>
   9.000000E+99

> <Gold.Chemscore.Hbonds>
donor molecule, donor type, donor heavy atom, donor atom, acceptor molecule, acceptor atom, score
      L1  H    10    37       P1  7948  0.65
      L1  H    13    38       P1  7948  0.50
      L1  H    17    54       P1 10747  0.61

> <Gold.Chemscore.Hbond.Weighted>
-9.0349

> <Gold.Chemscore.Metal.Weighted>
-0.0000

> <Gold.Chemscore.Lipo.Weighted>
-11.5848

> <Gold.Chemscore.Internal_Hbond.Weighted>
0.0000

> <Gold.Chemscore.DEClash.Weighted>
0.0264

> <Gold.Chemscore.DEInternal.Weighted>
3.4978

> <Gold.Chemscore.Rot.Weighted>
3.3330

> <Gold.Chemscore.Internal.Correction.Weighted>
   9.000000E+99

> <Gold.Protein.RotatedTorsions>
[ 6907 6896 6895 6894 ] final   56.63 input  -60.11 | X-H torsion
[ 7974 7965 7964 7962 ] final -100.99 input  175.53 | X-H torsion
[ 8008 7997 7996 7995 ] final -121.14 input   59.86 | X-H torsion
[ 10167 10162 10161 10158 ] final  103.65 input  -65.29 | X-H torsion
[ 10718 10713 10712 10709 ] final  -81.60 input   66.30 | X-H torsion
[ 10763 10752 10751 10750 ] final  158.27 input  -60.55 | X-H torsion
[ 11005 11000 10999 10996 ] final  160.12 input  -57.11 | X-H torsion

> <Gold.Protein.ActiveResidues>
 VAL166  LYS551  ARG553  GLY616  TRP617  ASP618  TYR619  PRO620  LYS621  CYS622 
 ASP623  PHE694  ASN695  SER759  ASP760  ASP761  ALA762  ILE779  LEU786  VAL792 
 PHE793  MET794  SER795  GLU796  ALA797  LYS798  CYS799  TRP800  GLU811  SER814 

> <Gold.Protein.RotatedAtoms>
  152.3655  134.6811  160.0193 H   0  0  0  0  0  0  0  0  0  0  0  0  # atno 6907 bound_to 6896
  151.7121  133.3307  159.3301 H   0  0  0  0  0  0  0  0  0  0  0  0  # atno 6908 bound_to 6896
  150.7635  134.6458  159.6306 H   0  0  0  0  0  0  0  0  0  0  0  0  # atno 6909 bound_to 6896
  145.2874  140.9343  143.2897 H   0  0  0  0  0  0  0  0  0  0  0  0  # atno 7974 bound_to 7965
  155.1431  140.0402  157.2803 H   0  0  0  0  0  0  0  0  0  0  0  0  # atno 8008 bound_to 7997
  154.6458  140.2558  155.7243 H   0  0  0  0  0  0  0  0  0  0  0  0  # atno 8009 bound_to 7997
  156.2554  140.2846  156.0871 H   0  0  0  0  0  0  0  0  0  0  0  0  # atno 8010 bound_to 7997
  139.7244  144.7051  151.0821 H   0  0  0  0  0  0  0  0  0  0  0  0  # atno 10167 bound_to 10162
  156.0047  130.4609  150.3978 H   0  0  0  0  0  0  0  0  0  0  0  0  # atno 10718 bound_to 10713
  154.2134  135.2785  155.2950 H   0  0  0  0  0  0  0  0  0  0  0  0  # atno 10763 bound_to 10752
  154.5760  135.5604  153.7143 H   0  0  0  0  0  0  0  0  0  0  0  0  # atno 10764 bound_to 10752
  153.0059  135.6333  154.2273 H   0  0  0  0  0  0  0  0  0  0  0  0  # atno 10765 bound_to 10752
  140.2029  134.8325  157.3037 H   0  0  0  0  0  0  0  0  0  0  0  0  # atno 11005 bound_to 11000
  144.9202  139.4421  143.6545 LP  0  0  0  0  0  0  0  0  0  0  0  0  # atno 17320 bound_to 7965
  146.3196  139.8058  142.8956 LP  0  0  0  0  0  0  0  0  0  0  0  0  # atno 17321 bound_to 7965
  140.7760  143.5124  150.9636 LP  0  0  0  0  0  0  0  0  0  0  0  0  # atno 17342 bound_to 10162
  139.8811  143.7071  152.3157 LP  0  0  0  0  0  0  0  0  0  0  0  0  # atno 17343 bound_to 10162
  157.2048  131.0446  151.2631 LP  0  0  0  0  0  0  0  0  0  0  0  0  # atno 17370 bound_to 10713
  157.3942  130.7298  149.6719 LP  0  0  0  0  0  0  0  0  0  0  0  0  # atno 17371 bound_to 10713
  140.2035  134.4226  155.7650 LP  0  0  0  0  0  0  0  0  0  0  0  0  # atno 17394 bound_to 11000
  141.2227  133.7083  156.8222 LP  0  0  0  0  0  0  0  0  0  0  0  0  # atno 17395 bound_to 11000

$$$$
