AV-unprocessed.smi:1727|AV-procd|sdf|6965|dock3
  -GOLD-   22720 8173D 1   1.00000     0.00000
 Structure written by MMmdl.
 49 51  0  0  0  0  0  0  0  0  1 V2000
  151.4989  140.4390  158.8063 C   0  0  0  0  0  0  0  0  0  0  0  0
  152.4292  139.9021  157.7161 C   0  0  0  0  0  0  0  0  0  0  0  0
  153.5451  139.5058  158.0526 O   0  0  0  0  0  0  0  0  0  0  0  0
  151.9998  139.8770  156.4314 N   0  0  0  0  0  0  0  0  0  0  0  0
  152.8017  139.3157  155.3378 C   0  0  0  0  0  0  0  0  0  0  0  0
  152.1532  138.0006  154.8697 C   0  0  0  0  0  0  0  0  0  0  0  0
  150.6818  138.2166  154.4564 C   0  0  0  0  0  0  0  0  0  0  0  0
  150.0520  136.9264  154.1940 N   0  0  0  0  0  0  0  0  0  0  0  0
  150.2214  135.8193  154.9302 C   0  0  0  0  0  0  0  0  0  0  0  0
  150.9386  135.7670  155.9297 O   0  0  0  0  0  0  0  0  0  0  0  0
  149.5295  134.7870  154.4203 N   0  0  0  0  0  0  0  0  0  0  0  0
  149.4984  133.4435  154.8875 C   0  0  0  0  0  0  0  0  0  0  0  0
  150.5280  132.9279  155.7120 C   0  0  0  0  0  0  0  0  0  0  0  0
  150.4215  131.6185  156.2111 C   0  0  0  0  0  0  0  0  0  0  0  0
  149.2778  130.8731  155.8809 C   0  0  0  0  0  0  0  0  0  0  0  0
  148.2830  131.3537  155.1085 N   0  0  0  0  0  0  0  0  0  0  0  0
  148.3775  132.6100  154.6069 C   0  0  0  0  0  0  0  0  0  0  0  0
  147.3126  133.0527  153.7886 N   0  0  0  0  0  0  0  0  0  0  0  0
  147.5161  133.2685  152.3596 C   0  0  0  0  0  0  0  0  0  0  0  0
  146.3155  134.0957  151.9093 C   0  0  0  0  0  0  0  0  0  0  0  0
  146.0601  134.9850  153.1218 C   0  0  0  0  0  0  0  0  0  0  0  0
  146.4292  134.0918  154.3105 C   0  0  0  0  0  0  0  0  0  0  0  0
  149.8998  138.9932  155.5408 C   0  0  0  0  0  0  0  0  0  0  0  0
  150.6575  140.2601  155.9761 C   0  0  0  0  0  0  0  0  0  0  0  0
  150.5756  139.8605  158.8466 H   0  0  0  0  0  0  0  0  0  0  0  0
  151.2551  141.4861  158.6252 H   0  0  0  0  0  0  0  0  0  0  0  0
  151.9757  140.3730  159.7849 H   0  0  0  0  0  0  0  0  0  0  0  0
  152.8402  140.0296  154.5138 H   0  0  0  0  0  0  0  0  0  0  0  0
  153.8392  139.1364  155.6231 H   0  0  0  0  0  0  0  0  0  0  0  0
  152.7191  137.5830  154.0363 H   0  0  0  0  0  0  0  0  0  0  0  0
  152.2083  137.2696  155.6781 H   0  0  0  0  0  0  0  0  0  0  0  0
  150.6808  138.8093  153.5397 H   0  0  0  0  0  0  0  0  0  0  0  0
  149.4459  136.8728  153.3885 H   0  0  0  0  0  0  0  0  0  0  0  0
  149.0657  134.9506  153.5385 H   0  0  0  0  0  0  0  0  0  0  0  0
  151.3844  133.5246  155.9876 H   0  0  0  0  0  0  0  0  0  0  0  0
  151.1920  131.2013  156.8425 H   0  0  0  0  0  0  0  0  0  0  0  0
  149.1545  129.8661  156.2508 H   0  0  0  0  0  0  0  0  0  0  0  0
  148.4322  133.8324  152.1787 H   0  0  0  0  0  0  0  0  0  0  0  0
  147.5817  132.3230  151.8204 H   0  0  0  0  0  0  0  0  0  0  0  0
  146.5056  134.6599  150.9960 H   0  0  0  0  0  0  0  0  0  0  0  0
  145.4569  133.4454  151.7361 H   0  0  0  0  0  0  0  0  0  0  0  0
  146.7276  135.8472  153.0898 H   0  0  0  0  0  0  0  0  0  0  0  0
  145.0359  135.3546  153.1717 H   0  0  0  0  0  0  0  0  0  0  0  0
  145.5317  133.6205  154.7120 H   0  0  0  0  0  0  0  0  0  0  0  0
  146.8970  134.6667  155.1109 H   0  0  0  0  0  0  0  0  0  0  0  0
  148.9100  139.2634  155.1706 H   0  0  0  0  0  0  0  0  0  0  0  0
  149.7403  138.3553  156.4114 H   0  0  0  0  0  0  0  0  0  0  0  0
  150.0784  140.7985  156.7246 H   0  0  0  0  0  0  0  0  0  0  0  0
  150.7482  140.9458  155.1325 H   0  0  0  0  0  0  0  0  0  0  0  0
  1  2  1  0  0  0  0
  1 25  1  0  0  0  0
  1 26  1  0  0  0  0
  1 27  1  0  0  0  0
  2  3  2  0  0  0  0
  2  4  1  0  0  0  0
  4 24  1  0  0  0  0
  4  5  1  0  0  0  0
  5  6  1  0  0  0  0
  5 28  1  0  0  0  0
  5 29  1  0  0  0  0
  6  7  1  0  0  0  0
  6 30  1  0  0  0  0
  6 31  1  0  0  0  0
  7  8  1  0  0  0  0
  7 23  1  0  0  0  0
  7 32  1  0  0  0  0
  8  9  1  0  0  0  0
  8 33  1  0  0  0  0
  9 10  2  0  0  0  0
  9 11  1  0  0  0  0
 11 12  1  0  0  0  0
 11 34  1  0  0  0  0
 12 17  1  0  0  0  0
 12 13  2  0  0  0  0
 13 14  1  0  0  0  0
 13 35  1  0  0  0  0
 14 15  2  0  0  0  0
 14 36  1  0  0  0  0
 15 16  1  0  0  0  0
 15 37  1  0  0  0  0
 16 17  2  0  0  0  0
 17 18  1  0  0  0  0
 18 22  1  0  0  0  0
 18 19  1  0  0  0  0
 19 20  1  0  0  0  0
 19 38  1  0  0  0  0
 19 39  1  0  0  0  0
 20 21  1  0  0  0  0
 20 40  1  0  0  0  0
 20 41  1  0  0  0  0
 21 22  1  0  0  0  0
 21 42  1  0  0  0  0
 21 43  1  0  0  0  0
 22 44  1  0  0  0  0
 22 45  1  0  0  0  0
 23 24  1  0  0  0  0
 23 46  1  0  0  0  0
 23 47  1  0  0  0  0
 24 48  1  0  0  0  0
 24 49  1  0  0  0  0
M  END
> <s_m_source_file>
AV-unprocessed.smi

> <i_m_source_file_index>
1727

> <i_lp_mmshare_version>
43012

> <i_f3d_flags>
0

> <s_epik_input>
W0NIM11DKD1PKU4xW0NIMl1bQ0gyXVtDSF0oW0NIMl1bQ0gyXTEpW05IXUMoPU8pW05IXWMyW2NIXVtjSF1bY0hdbmMyTjNbQ0gyXVtDSDJdW0NIMl1bQ0gyXTM=

> <s_epik_cmdline>
J2VwaWtfcHl0aG9uJywgJy1waCcsICc3LjAnLCAnLXRuJywgJzgnLCAnLW1hJywgJzIwMCcsICctbWV0YWxfYmluZGluZycsICctaW1hZScsICc8aW5maWxlLm1hZT4nLCAnLW9tYWUnLCAnPG91dGZpbGUubWFlPic=

> <r_lp_tautomer_probability>
1

> <r_epik_Ionization_Penalty>
0.102256

> <r_epik_Ionization_Penalty_Charging>
0

> <r_epik_Ionization_Penalty_Neutral>
0.102256

> <r_epik_State_Penalty>
0.0916633

> <r_epik_Charging_Adjusted_Penalty>
0.0916633

> <i_epik_Tot_Q>
0

> <i_epik_Tot_abs_Q>
0

> <r_epik_Metal_State_Penalty>
0.0781079

> <b_epik_Metal_Only>
0

> <s_lp_Force_Field>
OPLS_2005

> <r_lp_Energy>
49.5361

> <b_lp_Chiralities_Consistent>
1

> <s_lp_Variant>
AV-unprocessed.smi:1727-1

> <Gold.Version>
5.8.1

> <Gold.Id.Protein>
6NUR|6NUR_protein|mol2

> <Gold.PLP.Fitness>
44.7197

> <Gold.PLP.PLP>
-35.1550

> <Gold.PLP.part.hbond>
-4.5154

> <Gold.PLP.part.metal>
0.0000

> <Gold.PLP.part.buried>
1.7315

> <Gold.PLP.part.nonpolar>
-30.9963

> <Gold.PLP.part.repulsive>
0.2680

> <Gold.PLP.ligand.clash>
0.0000

> <Gold.PLP.ligand.torsion>
0.5611

> <Gold.PLP.Chemscore.Hbond>
3.4481

> <Gold.PLP.Chemscore.CHOScore>
0.0000

> <Gold.PLP.Chemscore.Metal>
0.0000

> <Gold.Chemscore.Hbonds>
donor molecule, donor type, donor heavy atom, donor atom, acceptor molecule, acceptor atom, score
      L1  H     8    33       P1  7948  1.00
      L1  H    11    34       P1  7948  0.80
      P1  H  7997  8010       L1     3  1.00
      P1  H 10752 10764       L1    10  0.19

> <Gold.PLP.Chemscore.Internal.Correction>
0.3427

> <Gold.Rescore>
     Score         DG    S(hbond)    S(metal)    S(lipo)     H(rot)  DE(clash)    DE(int)     intcor
     15.62     -19.14       2.41        0.00      74.30       1.21       0.17       3.35       ----

> <Gold.Chemscore.Fitness>
15.6168

> <Gold.Chemscore.DG>
-19.1357

> <Gold.Chemscore.ZeroCoef>
-5.4800

> <Gold.Chemscore.Hbond>
2.4144

> <Gold.Chemscore.Metal>
0.0000

> <Gold.Chemscore.Lipo>
74.3048

> <Gold.Chemscore.Internal_Hbond>
0.0000

> <Gold.Chemscore.DEClash>
0.1676

> <Gold.Chemscore.DEInternal>
3.3513

> <Gold.Chemscore.Rot>
1.2117

> <Gold.Chemscore.Internal.Correction>
   9.000000E+99

> <Gold.Chemscore.Hbonds>
donor molecule, donor type, donor heavy atom, donor atom, acceptor molecule, acceptor atom, score
      L1  H     8    33       P1  7948  0.85
      L1  H    11    34       P1  7948  0.19
      P1  H  7997  8010       L1     3  0.33
      P1  H 10752 10764       L1    10  0.04

> <Gold.Chemscore.Hbond.Weighted>
-8.0639

> <Gold.Chemscore.Metal.Weighted>
-0.0000

> <Gold.Chemscore.Lipo.Weighted>
-8.6937

> <Gold.Chemscore.Internal_Hbond.Weighted>
0.0000

> <Gold.Chemscore.DEClash.Weighted>
0.1676

> <Gold.Chemscore.DEInternal.Weighted>
3.3513

> <Gold.Chemscore.Rot.Weighted>
3.1019

> <Gold.Chemscore.Internal.Correction.Weighted>
   9.000000E+99

> <Gold.Protein.RotatedTorsions>
[ 6907 6896 6895 6894 ] final  -76.75 input  -60.11 | X-H torsion
[ 7974 7965 7964 7962 ] final   62.85 input  175.53 | X-H torsion
[ 8008 7997 7996 7995 ] final   49.19 input   59.86 | X-H torsion
[ 10167 10162 10161 10158 ] final   76.44 input  -65.29 | X-H torsion
[ 10718 10713 10712 10709 ] final   71.32 input   66.30 | X-H torsion
[ 10763 10752 10751 10750 ] final  -43.87 input  -60.55 | X-H torsion
[ 11005 11000 10999 10996 ] final -109.04 input  -57.11 | X-H torsion

> <Gold.Protein.ActiveResidues>
 VAL166  LYS551  ARG553  GLY616  TRP617  ASP618  TYR619  PRO620  LYS621  CYS622 
 ASP623  PHE694  ASN695  SER759  ASP760  ASP761  ALA762  ILE779  LEU786  VAL792 
 PHE793  MET794  SER795  GLU796  ALA797  LYS798  CYS799  TRP800  GLU811  SER814 

> <Gold.Protein.RotatedAtoms>
  150.7018  134.4525  159.5342 H   0  0  0  0  0  0  0  0  0  0  0  0  # atno 6907 bound_to 6896
  152.2215  134.8405  160.0494 H   0  0  0  0  0  0  0  0  0  0  0  0  # atno 6908 bound_to 6896
  151.9254  133.3561  159.3948 H   0  0  0  0  0  0  0  0  0  0  0  0  # atno 6909 bound_to 6896
  145.8686  139.3362  143.0776 H   0  0  0  0  0  0  0  0  0  0  0  0  # atno 7974 bound_to 7965
  155.3980  140.3436  155.4255 H   0  0  0  0  0  0  0  0  0  0  0  0  # atno 8008 bound_to 7997
  156.1520  140.1574  156.8787 H   0  0  0  0  0  0  0  0  0  0  0  0  # atno 8009 bound_to 7997
  154.5060  140.0802  156.7877 H   0  0  0  0  0  0  0  0  0  0  0  0  # atno 8010 bound_to 7997
  139.9922  144.5748  150.7808 H   0  0  0  0  0  0  0  0  0  0  0  0  # atno 10167 bound_to 10162
  157.6446  130.9522  150.0773 H   0  0  0  0  0  0  0  0  0  0  0  0  # atno 10718 bound_to 10713
  154.0027  135.6691  153.4760 H   0  0  0  0  0  0  0  0  0  0  0  0  # atno 10763 bound_to 10752
  153.0655  135.5003  154.8187 H   0  0  0  0  0  0  0  0  0  0  0  0  # atno 10764 bound_to 10752
  154.7043  135.3085  154.9257 H   0  0  0  0  0  0  0  0  0  0  0  0  # atno 10765 bound_to 10752
  141.0869  133.9123  157.2164 H   0  0  0  0  0  0  0  0  0  0  0  0  # atno 11005 bound_to 11000
  145.9164  140.9145  143.0428 LP  0  0  0  0  0  0  0  0  0  0  0  0  # atno 17320 bound_to 7965
  144.6726  140.1229  143.7448 LP  0  0  0  0  0  0  0  0  0  0  0  0  # atno 17321 bound_to 7965
  140.7450  143.2869  151.3438 LP  0  0  0  0  0  0  0  0  0  0  0  0  # atno 17342 bound_to 10162
  139.6331  144.0682  152.2493 LP  0  0  0  0  0  0  0  0  0  0  0  0  # atno 17343 bound_to 10162
  156.1760  130.3648  149.9100 LP  0  0  0  0  0  0  0  0  0  0  0  0  # atno 17370 bound_to 10713
  156.7064  130.8953  151.3605 LP  0  0  0  0  0  0  0  0  0  0  0  0  # atno 17371 bound_to 10713
  139.9689  135.0134  156.9460 LP  0  0  0  0  0  0  0  0  0  0  0  0  # atno 17394 bound_to 11000
  140.5341  134.0784  155.7323 LP  0  0  0  0  0  0  0  0  0  0  0  0  # atno 17395 bound_to 11000

$$$$
