AV-unprocessed.smi:2475|AV-procd|sdf|9755|dock4
  -GOLD-   2272013393D 1   1.00000     0.00000
 Structure written by MMmdl.
 37 38  0  0  0  0  0  0  0  0  1 V2000
  151.7984  145.6120  159.4307 C   0  0  0  0  0  0  0  0  0  0  0  0
  152.0642  144.1525  159.1287 C   0  0  0  0  0  0  0  0  0  0  0  0
  151.4816  143.5100  158.0162 C   0  0  0  0  0  0  0  0  0  0  0  0
  151.7947  142.1461  157.8223 C   0  0  0  0  0  0  0  0  0  0  0  0
  151.1936  141.5266  156.6961 N   0  0  0  0  0  0  0  0  0  0  0  0
  151.6229  140.4522  156.0064 C   0  0  0  0  0  0  0  0  0  0  0  0
  152.6297  139.8022  156.2905 O   0  0  0  0  0  0  0  0  0  0  0  0
  150.7542  140.0179  154.8159 C   0  0  2  0  0  0  0  0  0  0  0  0
  149.5591  140.9456  154.5193 C   0  0  0  0  0  0  0  0  0  0  0  0
  148.3548  140.0184  154.5297 C   0  0  0  0  0  0  0  0  0  0  0  0
  148.9781  138.6457  154.3198 C   0  0  0  0  0  0  0  0  0  0  0  0
  150.1764  138.7384  155.0695 O   0  0  0  0  0  0  0  0  0  0  0  0
  152.6263  141.5140  158.6866 N   0  0  0  0  0  0  0  0  0  0  0  0
  153.1237  142.2126  159.7125 C   0  0  0  0  0  0  0  0  0  0  0  0
  154.0620  141.4763  160.6599 C   0  0  0  0  0  0  0  0  0  0  0  0
  154.1245  139.9728  160.3507 C   0  0  0  0  0  0  0  0  0  0  0  0
  153.7434  141.7729  162.1336 C   0  0  0  0  0  0  0  0  0  0  0  0
  152.8864  143.5002  159.9769 N   0  0  0  0  0  0  0  0  0  0  0  0
  151.1357  146.0542  158.6866 H   0  0  0  0  0  0  0  0  0  0  0  0
  152.7321  146.1748  159.4328 H   0  0  0  0  0  0  0  0  0  0  0  0
  151.3305  145.7172  160.4099 H   0  0  0  0  0  0  0  0  0  0  0  0
  150.8235  144.0403  157.3429 H   0  0  0  0  0  0  0  0  0  0  0  0
  150.3387  141.9514  156.3671 H   0  0  0  0  0  0  0  0  0  0  0  0
  151.3861  139.9393  153.9300 H   0  0  0  0  0  0  0  0  0  0  0  0
  149.4317  141.7513  155.2438 H   0  0  0  0  0  0  0  0  0  0  0  0
  149.6811  141.4048  153.5377 H   0  0  0  0  0  0  0  0  0  0  0  0
  147.8679  140.0557  155.5049 H   0  0  0  0  0  0  0  0  0  0  0  0
  147.6146  140.2698  153.7699 H   0  0  0  0  0  0  0  0  0  0  0  0
  148.3417  137.8338  154.6727 H   0  0  0  0  0  0  0  0  0  0  0  0
  149.2112  138.4748  153.2675 H   0  0  0  0  0  0  0  0  0  0  0  0
  155.0664  141.8653  160.4833 H   0  0  0  0  0  0  0  0  0  0  0  0
  154.4271  139.7987  159.3178 H   0  0  0  0  0  0  0  0  0  0  0  0
  153.1556  139.4950  160.4996 H   0  0  0  0  0  0  0  0  0  0  0  0
  154.8452  139.4693  160.9956 H   0  0  0  0  0  0  0  0  0  0  0  0
  153.7757  142.8443  162.3332 H   0  0  0  0  0  0  0  0  0  0  0  0
  154.4638  141.2913  162.7952 H   0  0  0  0  0  0  0  0  0  0  0  0
  152.7511  141.4125  162.4072 H   0  0  0  0  0  0  0  0  0  0  0  0
  1  2  1  0  0  0  0
  1 19  1  0  0  0  0
  1 20  1  0  0  0  0
  1 21  1  0  0  0  0
  2 18  1  0  0  0  0
  2  3  2  0  0  0  0
  3  4  1  0  0  0  0
  3 22  1  0  0  0  0
  4  5  1  0  0  0  0
  4 13  2  0  0  0  0
  5  6  1  0  0  0  0
  5 23  1  0  0  0  0
  6  7  2  0  0  0  0
  6  8  1  0  0  0  0
  8 12  1  0  0  0  0
  8  9  1  0  0  0  0
  8 24  1  0  0  0  0
  9 10  1  0  0  0  0
  9 25  1  0  0  0  0
  9 26  1  0  0  0  0
 10 11  1  0  0  0  0
 10 27  1  0  0  0  0
 10 28  1  0  0  0  0
 11 12  1  0  0  0  0
 11 29  1  0  0  0  0
 11 30  1  0  0  0  0
 13 14  1  0  0  0  0
 14 15  1  0  0  0  0
 14 18  2  0  0  0  0
 15 16  1  0  0  0  0
 15 17  1  0  0  0  0
 15 31  1  0  0  0  0
 16 32  1  0  0  0  0
 16 33  1  0  0  0  0
 16 34  1  0  0  0  0
 17 35  1  0  0  0  0
 17 36  1  0  0  0  0
 17 37  1  0  0  0  0
M  END
> <s_m_source_file>
AV-unprocessed.smi

> <i_m_source_file_index>
2475

> <i_lp_mmshare_version>
43012

> <i_f3d_flags>
0

> <s_epik_input>
W0NIM11bQ0hdKFtDSDNdKWMobjEpbmMoW2NIXWMxW0NIM10pW05IXUMoPU8pW0NAQEhdMltDSDJdW0NIMl1bQ0gyXU8y

> <s_epik_cmdline>
J2VwaWtfcHl0aG9uJywgJy1waCcsICc3LjAnLCAnLXRuJywgJzgnLCAnLW1hJywgJzIwMCcsICctbWV0YWxfYmluZGluZycsICctaW1hZScsICc8aW5maWxlLm1hZT4nLCAnLW9tYWUnLCAnPG91dGZpbGUubWFlPic=

> <r_lp_tautomer_probability>
1

> <r_epik_Ionization_Penalty>
1.42804e-05

> <r_epik_Ionization_Penalty_Charging>
0

> <r_epik_Ionization_Penalty_Neutral>
1.42804e-05

> <r_epik_State_Penalty>
-0

> <r_epik_Charging_Adjusted_Penalty>
0

> <i_epik_Tot_Q>
0

> <i_epik_Tot_abs_Q>
0

> <r_epik_Metal_State_Penalty>
-0

> <b_epik_Metal_Only>
0

> <s_lp_Force_Field>
OPLS_2005

> <r_lp_Energy>
10.8571

> <b_lp_Chiralities_Consistent>
1

> <s_lp_Variant>
AV-unprocessed.smi:2475-1

> <Gold.Version>
5.8.1

> <Gold.Id.Protein>
6NUR|6NUR_protein|mol2

> <Gold.PLP.Fitness>
41.6393

> <Gold.PLP.PLP>
-39.3924

> <Gold.PLP.part.hbond>
-1.0000

> <Gold.PLP.part.metal>
0.0000

> <Gold.PLP.part.buried>
-2.7772

> <Gold.PLP.part.nonpolar>
-35.6628

> <Gold.PLP.part.repulsive>
0.1754

> <Gold.PLP.ligand.clash>
0.0000

> <Gold.PLP.ligand.torsion>
0.4137

> <Gold.PLP.Chemscore.Hbond>
1.0000

> <Gold.PLP.Chemscore.CHOScore>
0.0000

> <Gold.PLP.Chemscore.Metal>
0.0000

> <Gold.Chemscore.Hbonds>
donor molecule, donor type, donor heavy atom, donor atom, acceptor molecule, acceptor atom, score
      P1  H  7997  8008       L1     7  1.00

> <Gold.PLP.Chemscore.Internal.Correction>
0.0743

> <Gold.Rescore>
     Score         DG    S(hbond)    S(metal)    S(lipo)     H(rot)  DE(clash)    DE(int)     intcor
     14.71     -16.16       1.00        0.00      88.73       1.18       0.04       1.41       ----

> <Gold.Chemscore.Fitness>
14.7108

> <Gold.Chemscore.DG>
-16.1646

> <Gold.Chemscore.ZeroCoef>
-5.4800

> <Gold.Chemscore.Hbond>
0.9984

> <Gold.Chemscore.Metal>
0.0000

> <Gold.Chemscore.Lipo>
88.7291

> <Gold.Chemscore.Internal_Hbond>
0.0000

> <Gold.Chemscore.DEClash>
0.0420

> <Gold.Chemscore.DEInternal>
1.4117

> <Gold.Chemscore.Rot>
1.1842

> <Gold.Chemscore.Internal.Correction>
   9.000000E+99

> <Gold.Chemscore.Hbonds>
donor molecule, donor type, donor heavy atom, donor atom, acceptor molecule, acceptor atom, score
      P1  H  7997  8008       L1     7  1.00

> <Gold.Chemscore.Hbond.Weighted>
-3.3348

> <Gold.Chemscore.Metal.Weighted>
-0.0000

> <Gold.Chemscore.Lipo.Weighted>
-10.3813

> <Gold.Chemscore.Internal_Hbond.Weighted>
0.0000

> <Gold.Chemscore.DEClash.Weighted>
0.0420

> <Gold.Chemscore.DEInternal.Weighted>
1.4117

> <Gold.Chemscore.Rot.Weighted>
3.0315

> <Gold.Chemscore.Internal.Correction.Weighted>
   9.000000E+99

> <Gold.Protein.RotatedTorsions>
[ 6907 6896 6895 6894 ] final   41.91 input  -60.11 | X-H torsion
[ 7974 7965 7964 7962 ] final  135.33 input  175.53 | X-H torsion
[ 8008 7997 7996 7995 ] final  -32.25 input   59.86 | X-H torsion
[ 10167 10162 10161 10158 ] final  153.87 input  -65.29 | X-H torsion
[ 10718 10713 10712 10709 ] final   66.51 input   66.30 | X-H torsion
[ 10763 10752 10751 10750 ] final -113.57 input  -60.55 | X-H torsion
[ 11005 11000 10999 10996 ] final  140.80 input  -57.11 | X-H torsion

> <Gold.Protein.ActiveResidues>
 VAL166  LYS551  ARG553  GLY616  TRP617  ASP618  TYR619  PRO620  LYS621  CYS622 
 ASP623  PHE694  ASN695  SER759  ASP760  ASP761  ALA762  ILE779  LEU786  VAL792 
 PHE793  MET794  SER795  GLU796  ALA797  LYS798  CYS799  TRP800  GLU811  SER814 

> <Gold.Protein.RotatedAtoms>
  152.2013  134.8585  160.0507 H   0  0  0  0  0  0  0  0  0  0  0  0  # atno 6907 bound_to 6896
  151.9438  133.3640  159.3983 H   0  0  0  0  0  0  0  0  0  0  0  0  # atno 6908 bound_to 6896
  150.6955  134.4336  159.5304 H   0  0  0  0  0  0  0  0  0  0  0  0  # atno 6909 bound_to 6896
  144.9674  139.4643  143.5450 H   0  0  0  0  0  0  0  0  0  0  0  0  # atno 7974 bound_to 7965
  154.4186  140.1742  156.1697 H   0  0  0  0  0  0  0  0  0  0  0  0  # atno 8008 bound_to 7997
  155.9770  140.3381  155.6604 H   0  0  0  0  0  0  0  0  0  0  0  0  # atno 8009 bound_to 7997
  155.6550  140.0694  157.2565 H   0  0  0  0  0  0  0  0  0  0  0  0  # atno 8010 bound_to 7997
  139.4825  144.5236  151.7837 H   0  0  0  0  0  0  0  0  0  0  0  0  # atno 10167 bound_to 10162
  157.6173  130.9271  150.0118 H   0  0  0  0  0  0  0  0  0  0  0  0  # atno 10718 bound_to 10713
  154.8402  135.4449  154.1370 H   0  0  0  0  0  0  0  0  0  0  0  0  # atno 10763 bound_to 10752
  153.2566  135.6932  153.7629 H   0  0  0  0  0  0  0  0  0  0  0  0  # atno 10764 bound_to 10752
  153.6922  135.3385  155.3180 H   0  0  0  0  0  0  0  0  0  0  0  0  # atno 10765 bound_to 10752
  140.0354  134.9331  157.0742 H   0  0  0  0  0  0  0  0  0  0  0  0  # atno 11005 bound_to 11000
  146.3372  139.8864  142.8816 LP  0  0  0  0  0  0  0  0  0  0  0  0  # atno 17320 bound_to 7965
  145.2610  141.0077  143.3826 LP  0  0  0  0  0  0  0  0  0  0  0  0  # atno 17321 bound_to 7965
  140.4753  144.1528  150.5924 LP  0  0  0  0  0  0  0  0  0  0  0  0  # atno 17342 bound_to 10162
  140.4337  143.2556  151.9562 LP  0  0  0  0  0  0  0  0  0  0  0  0  # atno 17343 bound_to 10162
  156.1301  130.3643  149.9745 LP  0  0  0  0  0  0  0  0  0  0  0  0  # atno 17370 bound_to 10713
  156.7808  130.9220  151.3646 LP  0  0  0  0  0  0  0  0  0  0  0  0  # atno 17371 bound_to 10713
  140.4157  134.1934  155.7163 LP  0  0  0  0  0  0  0  0  0  0  0  0  # atno 17394 bound_to 11000
  141.1854  133.8324  157.1105 LP  0  0  0  0  0  0  0  0  0  0  0  0  # atno 17395 bound_to 11000

$$$$
