AV-unprocessed.smi:2124|AV-procd|sdf|8655|dock6
  -GOLD-   2272011403D 1   1.00000     0.00000
 Structure written by MMmdl.
 47 49  0  0  0  0  0  0  0  0  1 V2000
  150.7897  142.4264  158.0522 C   0  0  0  0  0  0  0  0  0  0  0  0
  150.3224  141.3261  157.1229 C   0  0  0  0  0  0  0  0  0  0  0  0
  150.4097  140.0657  157.3955 N   0  0  0  0  0  0  0  0  0  0  0  0
  149.9438  139.1387  156.4525 C   0  0  0  0  0  0  0  0  0  0  0  0
  150.0875  137.6771  156.8412 C   0  0  0  0  0  0  0  0  0  0  0  0
  149.4001  139.5376  155.2652 C   0  0  0  0  0  0  0  0  0  0  0  0
  148.8877  138.5532  154.2146 C   0  0  0  0  0  0  0  0  0  0  0  0
  147.6414  137.7495  154.5943 C   0  0  0  0  0  0  0  0  0  0  0  0
  147.1063  137.9087  155.6917 O   0  0  0  0  0  0  0  0  0  0  0  0
  147.1918  136.8928  153.6618 N   0  0  0  0  0  0  0  0  0  0  0  0
  146.0112  136.0280  153.7411 C   0  0  1  0  0  0  0  0  0  0  0  0
  144.7205  136.8685  153.8101 C   0  0  0  0  0  0  0  0  0  0  0  0
  145.9796  134.9619  152.6124 C   0  0  2  0  0  0  0  0  0  0  0  0
  145.4917  135.5168  151.2521 C   0  0  0  0  0  0  0  0  0  0  0  0
  144.3559  134.5544  150.8635 C   0  0  1  0  0  0  0  0  0  0  0  0
  144.9441  133.1730  150.5223 C   0  0  0  0  0  0  0  0  0  0  0  0
  145.3534  132.6297  151.9040 C   0  0  0  0  0  0  0  0  0  0  0  0
  144.9887  133.7918  152.8472 C   0  0  2  0  0  0  0  0  0  0  0  0
  143.6980  134.2998  152.2130 C   0  0  0  0  0  0  0  0  0  0  0  0
  149.3074  140.9790  154.9637 C   0  0  0  0  0  0  0  0  0  0  0  0
  148.8455  141.4457  153.9235 O   0  0  0  0  0  0  0  0  0  0  0  0
  149.7816  141.7987  155.9283 N   0  0  0  0  0  0  0  0  0  0  0  0
  149.7419  142.7947  155.7688 H   0  0  0  0  0  0  0  0  0  0  0  0
  151.8550  142.3167  158.2574 H   0  0  0  0  0  0  0  0  0  0  0  0
  150.2501  142.3736  158.9980 H   0  0  0  0  0  0  0  0  0  0  0  0
  150.6259  143.4150  157.6205 H   0  0  0  0  0  0  0  0  0  0  0  0
  149.1071  137.2156  156.9596 H   0  0  0  0  0  0  0  0  0  0  0  0
  150.6233  137.5698  157.7850 H   0  0  0  0  0  0  0  0  0  0  0  0
  150.6413  137.1266  156.0804 H   0  0  0  0  0  0  0  0  0  0  0  0
  148.6671  139.1054  153.3007 H   0  0  0  0  0  0  0  0  0  0  0  0
  149.6759  137.8537  153.9335 H   0  0  0  0  0  0  0  0  0  0  0  0
  147.7137  136.8439  152.7989 H   0  0  0  0  0  0  0  0  0  0  0  0
  146.1073  135.5079  154.6947 H   0  0  0  0  0  0  0  0  0  0  0  0
  143.8526  136.2484  154.0324 H   0  0  0  0  0  0  0  0  0  0  0  0
  144.5200  137.3817  152.8696 H   0  0  0  0  0  0  0  0  0  0  0  0
  144.7858  137.6241  154.5937 H   0  0  0  0  0  0  0  0  0  0  0  0
  146.9864  134.5602  152.4912 H   0  0  0  0  0  0  0  0  0  0  0  0
  145.0969  136.5288  151.3497 H   0  0  0  0  0  0  0  0  0  0  0  0
  146.2870  135.5443  150.5065 H   0  0  0  0  0  0  0  0  0  0  0  0
  143.6923  134.9507  150.0944 H   0  0  0  0  0  0  0  0  0  0  0  0
  144.1914  132.5299  150.0645 H   0  0  0  0  0  0  0  0  0  0  0  0
  145.7888  133.2434  149.8361 H   0  0  0  0  0  0  0  0  0  0  0  0
  144.7752  131.7380  152.1498 H   0  0  0  0  0  0  0  0  0  0  0  0
  146.4100  132.3639  151.9547 H   0  0  0  0  0  0  0  0  0  0  0  0
  144.8927  133.4745  153.8856 H   0  0  0  0  0  0  0  0  0  0  0  0
  143.3063  135.2031  152.6828 H   0  0  0  0  0  0  0  0  0  0  0  0
  142.9088  133.5469  152.1741 H   0  0  0  0  0  0  0  0  0  0  0  0
  1  2  1  0  0  0  0
  1 24  1  0  0  0  0
  1 25  1  0  0  0  0
  1 26  1  0  0  0  0
  2 22  1  0  0  0  0
  2  3  2  0  0  0  0
  3  4  1  0  0  0  0
  4  5  1  0  0  0  0
  4  6  2  0  0  0  0
  5 27  1  0  0  0  0
  5 28  1  0  0  0  0
  5 29  1  0  0  0  0
  6  7  1  0  0  0  0
  6 20  1  0  0  0  0
  7  8  1  0  0  0  0
  7 30  1  0  0  0  0
  7 31  1  0  0  0  0
  8  9  2  0  0  0  0
  8 10  1  0  0  0  0
 10 11  1  0  0  0  0
 10 32  1  0  0  0  0
 11 12  1  0  0  0  0
 11 13  1  0  0  0  0
 11 33  1  0  0  0  0
 12 34  1  0  0  0  0
 12 35  1  0  0  0  0
 12 36  1  0  0  0  0
 13 18  1  0  0  0  0
 13 14  1  0  0  0  0
 13 37  1  0  0  0  0
 14 15  1  0  0  0  0
 14 38  1  0  0  0  0
 14 39  1  0  0  0  0
 15 19  1  0  0  0  0
 15 16  1  0  0  0  0
 15 40  1  0  0  0  0
 16 17  1  0  0  0  0
 16 41  1  0  0  0  0
 16 42  1  0  0  0  0
 17 18  1  0  0  0  0
 17 43  1  0  0  0  0
 17 44  1  0  0  0  0
 18 19  1  0  0  0  0
 18 45  1  0  0  0  0
 19 46  1  0  0  0  0
 19 47  1  0  0  0  0
 20 21  2  0  0  0  0
 20 22  1  0  0  0  0
 22 23  1  0  0  0  0
M  END
> <s_m_source_file>
AV-unprocessed.smi

> <i_m_source_file_index>
2124

> <i_lp_mmshare_version>
43012

> <i_f3d_flags>
0

> <s_epik_input>
W0NIM11jMW5jKFtDSDNdKWMoYyg9TylbbkhdMSlbQ0gyXUMoPU8pW05IXVtDQEhdKFtDSDNdKVtDQEhdKFtDSDJdW0NASF0yMylbQ0BIXShbQ0gyXTMpW0NIMl1bQ0gyXTI=

> <s_epik_cmdline>
J2VwaWtfcHl0aG9uJywgJy1waCcsICc3LjAnLCAnLXRuJywgJzgnLCAnLW1hJywgJzIwMCcsICctbWV0YWxfYmluZGluZycsICctaW1hZScsICc8aW5maWxlLm1hZT4nLCAnLW9tYWUnLCAnPG91dGZpbGUubWFlPic=

> <r_lp_tautomer_probability>
0.839158

> <r_epik_Ionization_Penalty>
0.000383628

> <r_epik_Ionization_Penalty_Charging>
0.00035045

> <r_epik_Ionization_Penalty_Neutral>
3.31781e-05

> <r_epik_State_Penalty>
0.09125

> <r_epik_Charging_Adjusted_Penalty>
0.0916005

> <i_epik_Tot_Q>
0

> <i_epik_Tot_abs_Q>
0

> <r_epik_Metal_State_Penalty>
0.255229

> <b_epik_Metal_Only>
0

> <s_lp_Force_Field>
OPLS_2005

> <r_lp_Energy>
52.5198

> <b_lp_Chiralities_Consistent>
1

> <s_lp_Variant>
AV-unprocessed.smi:2124-6

> <Gold.Version>
5.8.1

> <Gold.Id.Protein>
6NUR|6NUR_protein|mol2

> <Gold.PLP.Fitness>
38.2736

> <Gold.PLP.PLP>
-31.4212

> <Gold.PLP.part.hbond>
-4.0000

> <Gold.PLP.part.metal>
0.0000

> <Gold.PLP.part.buried>
-3.6043

> <Gold.PLP.part.nonpolar>
-23.6248

> <Gold.PLP.part.repulsive>
0.3727

> <Gold.PLP.ligand.clash>
0.0000

> <Gold.PLP.ligand.torsion>
0.3508

> <Gold.PLP.Chemscore.Hbond>
2.4960

> <Gold.PLP.Chemscore.CHOScore>
0.0000

> <Gold.PLP.Chemscore.Metal>
0.0000

> <Gold.Chemscore.Hbonds>
donor molecule, donor type, donor heavy atom, donor atom, acceptor molecule, acceptor atom, score
      L1  H    10    32       P1  7948  1.00
      L1  H    22    23       P1  8028  0.80
      P1  H  8011  8017       L1    21  0.62

> <Gold.PLP.Chemscore.Internal.Correction>
0.0660

> <Gold.Rescore>
     Score         DG    S(hbond)    S(metal)    S(lipo)     H(rot)  DE(clash)    DE(int)     intcor
     17.19     -17.58       2.63        0.00      64.64       1.65       0.12       0.28       ----

> <Gold.Chemscore.Fitness>
17.1870

> <Gold.Chemscore.DG>
-17.5836

> <Gold.Chemscore.ZeroCoef>
-5.4800

> <Gold.Chemscore.Hbond>
2.6268

> <Gold.Chemscore.Metal>
0.0000

> <Gold.Chemscore.Lipo>
64.6384

> <Gold.Chemscore.Internal_Hbond>
0.0000

> <Gold.Chemscore.DEClash>
0.1209

> <Gold.Chemscore.DEInternal>
0.2757

> <Gold.Chemscore.Rot>
1.6534

> <Gold.Chemscore.Internal.Correction>
   9.000000E+99

> <Gold.Chemscore.Hbonds>
donor molecule, donor type, donor heavy atom, donor atom, acceptor molecule, acceptor atom, score
      L1  H    10    32       P1  7948  0.96
      L1  H    22    23       P1  8028  0.78
      P1  H  8011  8017       L1    21  0.60

> <Gold.Chemscore.Hbond.Weighted>
-8.7735

> <Gold.Chemscore.Metal.Weighted>
-0.0000

> <Gold.Chemscore.Lipo.Weighted>
-7.5627

> <Gold.Chemscore.Internal_Hbond.Weighted>
0.0000

> <Gold.Chemscore.DEClash.Weighted>
0.1209

> <Gold.Chemscore.DEInternal.Weighted>
0.2757

> <Gold.Chemscore.Rot.Weighted>
4.2326

> <Gold.Chemscore.Internal.Correction.Weighted>
   9.000000E+99

> <Gold.Protein.RotatedTorsions>
[ 6907 6896 6895 6894 ] final   53.77 input  -60.11 | X-H torsion
[ 7974 7965 7964 7962 ] final  -96.42 input  175.53 | X-H torsion
[ 8008 7997 7996 7995 ] final  122.59 input   59.86 | X-H torsion
[ 10167 10162 10161 10158 ] final   55.52 input  -65.29 | X-H torsion
[ 10718 10713 10712 10709 ] final  -72.29 input   66.30 | X-H torsion
[ 10763 10752 10751 10750 ] final  -42.51 input  -60.55 | X-H torsion
[ 11005 11000 10999 10996 ] final  175.28 input  -57.11 | X-H torsion

> <Gold.Protein.ActiveResidues>
 VAL166  LYS551  ARG553  GLY616  TRP617  ASP618  TYR619  PRO620  LYS621  CYS622 
 ASP623  PHE694  ASN695  SER759  ASP760  ASP761  ALA762  ILE779  LEU786  VAL792 
 PHE793  MET794  SER795  GLU796  ALA797  LYS798  CYS799  TRP800  GLU811  SER814 

> <Gold.Protein.RotatedAtoms>
  152.3371  134.7184  160.0273 H   0  0  0  0  0  0  0  0  0  0  0  0  # atno 6907 bound_to 6896
  151.7581  133.3326  159.3418 H   0  0  0  0  0  0  0  0  0  0  0  0  # atno 6908 bound_to 6896
  150.7457  134.6063  159.6107 H   0  0  0  0  0  0  0  0  0  0  0  0  # atno 6909 bound_to 6896
  145.3472  140.9470  143.2575 H   0  0  0  0  0  0  0  0  0  0  0  0  # atno 7974 bound_to 7965
  156.2733  140.2782  156.1492 H   0  0  0  0  0  0  0  0  0  0  0  0  # atno 8008 bound_to 7997
  155.0871  140.0388  157.2675 H   0  0  0  0  0  0  0  0  0  0  0  0  # atno 8009 bound_to 7997
  154.6918  140.2631  155.6811 H   0  0  0  0  0  0  0  0  0  0  0  0  # atno 8010 bound_to 7997
  140.2186  144.3813  150.6460 H   0  0  0  0  0  0  0  0  0  0  0  0  # atno 10167 bound_to 10162
  156.0326  130.4369  150.2571 H   0  0  0  0  0  0  0  0  0  0  0  0  # atno 10718 bound_to 10713
  153.9803  135.6718  153.4750 H   0  0  0  0  0  0  0  0  0  0  0  0  # atno 10763 bound_to 10752
  153.0751  135.4953  154.8385 H   0  0  0  0  0  0  0  0  0  0  0  0  # atno 10764 bound_to 10752
  154.7168  135.3109  154.9072 H   0  0  0  0  0  0  0  0  0  0  0  0  # atno 10765 bound_to 10752
  140.3604  134.7117  157.4327 H   0  0  0  0  0  0  0  0  0  0  0  0  # atno 11005 bound_to 11000
  144.8745  139.4990  143.6752 LP  0  0  0  0  0  0  0  0  0  0  0  0  # atno 17320 bound_to 7965
  146.2983  139.7347  142.9110 LP  0  0  0  0  0  0  0  0  0  0  0  0  # atno 17321 bound_to 7965
  140.6272  143.2183  151.6572 LP  0  0  0  0  0  0  0  0  0  0  0  0  # atno 17342 bound_to 10162
  139.5153  144.3384  152.0763 LP  0  0  0  0  0  0  0  0  0  0  0  0  # atno 17343 bound_to 10162
  157.0672  131.0106  151.3202 LP  0  0  0  0  0  0  0  0  0  0  0  0  # atno 17370 bound_to 10713
  157.5026  130.7889  149.7620 LP  0  0  0  0  0  0  0  0  0  0  0  0  # atno 17371 bound_to 10713
  140.0631  134.5968  155.8726 LP  0  0  0  0  0  0  0  0  0  0  0  0  # atno 17394 bound_to 11000
  141.1986  133.6602  156.5799 LP  0  0  0  0  0  0  0  0  0  0  0  0  # atno 17395 bound_to 11000

$$$$
