AV-unprocessed.smi:3132|AV-procd|sdf|11936|dock9
  -GOLD-   2272017323D 1   1.00000     0.00000
 Structure written by MMmdl.
 33 34  0  0  0  0  0  0  0  0  1 V2000
  148.9822  141.3777  154.5981 C   0  0  0  0  0  0  0  0  0  0  0  0
  149.8290  141.1739  155.8629 C   0  0  1  0  0  0  0  0  0  0  0  0
  151.2498  140.6857  155.5228 C   0  0  0  0  0  0  0  0  0  0  0  0
  151.2996  139.2508  155.3100 N   0  0  0  0  0  0  0  0  0  0  0  0
  150.6617  138.5279  154.3103 C   0  0  0  0  0  0  0  0  0  0  0  0
  151.0038  137.2082  154.5008 C   0  0  0  0  0  0  0  0  0  0  0  0
  151.8433  137.0963  155.6067 N   0  0  0  0  0  0  0  0  0  0  0  0
  151.9733  138.3459  156.0332 C   0  0  0  0  0  0  0  0  0  0  0  0
  149.8986  142.4237  156.6173 N   0  0  0  0  0  0  0  0  0  0  0  0
  150.5445  142.6018  157.7795 C   0  0  0  0  0  0  0  0  0  0  0  0
  151.1452  141.7007  158.3659 O   0  0  0  0  0  0  0  0  0  0  0  0
  150.5185  144.0236  158.3521 C   0  0  1  0  0  0  0  0  0  0  0  0
  150.0714  144.1086  159.8239 C   0  0  0  0  0  0  0  0  0  0  0  0
  151.3425  144.4771  160.5633 C   0  0  0  0  0  0  0  0  0  0  0  0
  152.0984  145.2697  159.5066 C   0  0  0  0  0  0  0  0  0  0  0  0
  151.8487  144.5377  158.3169 O   0  0  0  0  0  0  0  0  0  0  0  0
  148.9025  140.4524  154.0270 H   0  0  0  0  0  0  0  0  0  0  0  0
  149.4183  142.1346  153.9455 H   0  0  0  0  0  0  0  0  0  0  0  0
  147.9698  141.6956  154.8494 H   0  0  0  0  0  0  0  0  0  0  0  0
  149.3468  140.4050  156.4695 H   0  0  0  0  0  0  0  0  0  0  0  0
  151.6089  141.1730  154.6153 H   0  0  0  0  0  0  0  0  0  0  0  0
  151.9502  140.9489  156.3169 H   0  0  0  0  0  0  0  0  0  0  0  0
  150.0386  138.9988  153.5645 H   0  0  0  0  0  0  0  0  0  0  0  0
  150.7126  136.3379  153.9316 H   0  0  0  0  0  0  0  0  0  0  0  0
  152.5755  138.6101  156.8903 H   0  0  0  0  0  0  0  0  0  0  0  0
  149.4405  143.2253  156.2088 H   0  0  0  0  0  0  0  0  0  0  0  0
  149.8763  144.6591  157.7400 H   0  0  0  0  0  0  0  0  0  0  0  0
  149.3327  144.9031  159.9359 H   0  0  0  0  0  0  0  0  0  0  0  0
  149.6220  143.1934  160.2116 H   0  0  0  0  0  0  0  0  0  0  0  0
  151.1591  145.0461  161.4751 H   0  0  0  0  0  0  0  0  0  0  0  0
  151.8998  143.5767  160.8251 H   0  0  0  0  0  0  0  0  0  0  0  0
  151.6910  146.2772  159.4087 H   0  0  0  0  0  0  0  0  0  0  0  0
  153.1657  145.3453  159.7162 H   0  0  0  0  0  0  0  0  0  0  0  0
  1  2  1  0  0  0  0
  1 17  1  0  0  0  0
  1 18  1  0  0  0  0
  1 19  1  0  0  0  0
  2  3  1  0  0  0  0
  2  9  1  0  0  0  0
  2 20  1  0  0  0  0
  3  4  1  0  0  0  0
  3 21  1  0  0  0  0
  3 22  1  0  0  0  0
  4  8  1  0  0  0  0
  4  5  1  0  0  0  0
  5  6  2  0  0  0  0
  5 23  1  0  0  0  0
  6  7  1  0  0  0  0
  6 24  1  0  0  0  0
  7  8  2  0  0  0  0
  8 25  1  0  0  0  0
  9 10  1  0  0  0  0
  9 26  1  0  0  0  0
 10 11  2  0  0  0  0
 10 12  1  0  0  0  0
 12 16  1  0  0  0  0
 12 13  1  0  0  0  0
 12 27  1  0  0  0  0
 13 14  1  0  0  0  0
 13 28  1  0  0  0  0
 13 29  1  0  0  0  0
 14 15  1  0  0  0  0
 14 30  1  0  0  0  0
 14 31  1  0  0  0  0
 15 16  1  0  0  0  0
 15 32  1  0  0  0  0
 15 33  1  0  0  0  0
M  END
> <s_m_source_file>
AV-unprocessed.smi

> <i_m_source_file_index>
3132

> <i_lp_mmshare_version>
43012

> <i_f3d_flags>
0

> <s_epik_input>
W2NIXTFuW2NIXVtjSF1uMVtDSDJdW0NAQEhdKFtDSDNdKVtOSF1DKD1PKVtDQEBIXTJbQ0gyXVtDSDJdW0NIMl1PMg==

> <s_epik_cmdline>
J2VwaWtfcHl0aG9uJywgJy1waCcsICc3LjAnLCAnLXRuJywgJzgnLCAnLW1hJywgJzIwMCcsICctbWV0YWxfYmluZGluZycsICctaW1hZScsICc8aW5maWxlLm1hZT4nLCAnLW9tYWUnLCAnPG91dGZpbGUubWFlPic=

> <r_lp_tautomer_probability>
1

> <r_epik_Ionization_Penalty>
0.630322

> <r_epik_Ionization_Penalty_Charging>
0.630322

> <r_epik_Ionization_Penalty_Neutral>
3.82652e-08

> <r_epik_State_Penalty>
0.647117

> <r_epik_Charging_Adjusted_Penalty>
1.27744

> <i_epik_Tot_Q>
0

> <i_epik_Tot_abs_Q>
0

> <r_epik_Metal_State_Penalty>
0.309095

> <b_epik_Metal_Only>
0

> <s_lp_Force_Field>
OPLS_2005

> <r_lp_Energy>
20.0706

> <b_lp_Chiralities_Consistent>
1

> <s_lp_Variant>
AV-unprocessed.smi:3132-8

> <Gold.Version>
5.8.1

> <Gold.Id.Protein>
6NUR|6NUR_protein|mol2

> <Gold.PLP.Fitness>
42.7743

> <Gold.PLP.PLP>
-32.0331

> <Gold.PLP.part.hbond>
-2.0000

> <Gold.PLP.part.metal>
0.0000

> <Gold.PLP.part.buried>
-2.1452

> <Gold.PLP.part.nonpolar>
-28.5216

> <Gold.PLP.part.repulsive>
0.2170

> <Gold.PLP.ligand.clash>
0.0000

> <Gold.PLP.ligand.torsion>
0.3753

> <Gold.PLP.Chemscore.Hbond>
1.9760

> <Gold.PLP.Chemscore.CHOScore>
1.8493

> <Gold.PLP.Chemscore.Metal>
0.0000

> <Gold.Chemscore.Hbonds>
donor molecule, donor type, donor heavy atom, donor atom, acceptor molecule, acceptor atom, score
      L1  H     9    26       P1  8028  1.00
      P1  H 10752 10765       L1     7  0.65
      L1  C     5    23       P1  7957  0.71
      L1  C     6    24       P1  7948  0.20
      L1  C     6    24       P1  7949  0.62

> <Gold.PLP.Chemscore.Internal.Correction>
0.0160

> <Gold.Rescore>
     Score         DG    S(hbond)    S(metal)    S(lipo)     H(rot)  DE(clash)    DE(int)     intcor
     14.07     -15.83       1.83        0.00      76.85       1.86       0.26       1.50       ----

> <Gold.Chemscore.Fitness>
14.0680

> <Gold.Chemscore.DG>
-15.8278

> <Gold.Chemscore.ZeroCoef>
-5.4800

> <Gold.Chemscore.Hbond>
1.8343

> <Gold.Chemscore.Metal>
0.0000

> <Gold.Chemscore.Lipo>
76.8550

> <Gold.Chemscore.Internal_Hbond>
0.0000

> <Gold.Chemscore.DEClash>
0.2647

> <Gold.Chemscore.DEInternal>
1.4951

> <Gold.Chemscore.Rot>
1.8636

> <Gold.Chemscore.Internal.Correction>
   9.000000E+99

> <Gold.Chemscore.Hbonds>
donor molecule, donor type, donor heavy atom, donor atom, acceptor molecule, acceptor atom, score
      L1  H     9    26       P1  8028  1.00
      P1  H 10752 10765       L1     7  0.08

> <Gold.Chemscore.Hbond.Weighted>
-6.1266

> <Gold.Chemscore.Metal.Weighted>
-0.0000

> <Gold.Chemscore.Lipo.Weighted>
-8.9920

> <Gold.Chemscore.Internal_Hbond.Weighted>
0.0000

> <Gold.Chemscore.DEClash.Weighted>
0.2647

> <Gold.Chemscore.DEInternal.Weighted>
1.4951

> <Gold.Chemscore.Rot.Weighted>
4.7709

> <Gold.Chemscore.Internal.Correction.Weighted>
   9.000000E+99

> <Gold.Protein.RotatedTorsions>
[ 6907 6896 6895 6894 ] final -146.02 input  -60.11 | X-H torsion
[ 7974 7965 7964 7962 ] final  156.64 input  175.53 | X-H torsion
[ 8008 7997 7996 7995 ] final  -92.37 input   59.86 | X-H torsion
[ 10167 10162 10161 10158 ] final   54.01 input  -65.29 | X-H torsion
[ 10718 10713 10712 10709 ] final   55.61 input   66.30 | X-H torsion
[ 10763 10752 10751 10750 ] final -167.84 input  -60.55 | X-H torsion
[ 11005 11000 10999 10996 ] final -150.22 input  -57.11 | X-H torsion

> <Gold.Protein.ActiveResidues>
 VAL166  LYS551  ARG553  GLY616  TRP617  ASP618  TYR619  PRO620  LYS621  CYS622 
 ASP623  PHE694  ASN695  SER759  ASP760  ASP761  ALA762  ILE779  LEU786  VAL792 
 PHE793  MET794  SER795  GLU796  ALA797  LYS798  CYS799  TRP800  GLU811  SER814 

> <Gold.Protein.RotatedAtoms>
  151.1358  133.5005  159.2597 H   0  0  0  0  0  0  0  0  0  0  0  0  # atno 6907 bound_to 6896
  151.1708  135.0316  159.8761 H   0  0  0  0  0  0  0  0  0  0  0  0  # atno 6908 bound_to 6896
  152.5461  134.1222  159.8457 H   0  0  0  0  0  0  0  0  0  0  0  0  # atno 6909 bound_to 6896
  144.7951  139.7232  143.6205 H   0  0  0  0  0  0  0  0  0  0  0  0  # atno 7974 bound_to 7965
  154.7223  140.0509  157.0651 H   0  0  0  0  0  0  0  0  0  0  0  0  # atno 8008 bound_to 7997
  155.0411  140.3168  155.4705 H   0  0  0  0  0  0  0  0  0  0  0  0  # atno 8009 bound_to 7997
  156.2820  140.2132  156.5535 H   0  0  0  0  0  0  0  0  0  0  0  0  # atno 8010 bound_to 7997
  140.2346  144.3649  150.6402 H   0  0  0  0  0  0  0  0  0  0  0  0  # atno 10167 bound_to 10162
  157.5359  130.8663  149.8753 H   0  0  0  0  0  0  0  0  0  0  0  0  # atno 10718 bound_to 10713
  154.6690  135.2936  154.9766 H   0  0  0  0  0  0  0  0  0  0  0  0  # atno 10763 bound_to 10752
  154.0800  135.6606  153.4840 H   0  0  0  0  0  0  0  0  0  0  0  0  # atno 10764 bound_to 10752
  153.0475  135.5195  154.7677 H   0  0  0  0  0  0  0  0  0  0  0  0  # atno 10765 bound_to 10752
  140.7425  134.3498  157.5144 H   0  0  0  0  0  0  0  0  0  0  0  0  # atno 11005 bound_to 11000
  146.2216  139.5646  142.9615 LP  0  0  0  0  0  0  0  0  0  0  0  0  # atno 17320 bound_to 7965
  145.5695  141.0395  143.2182 LP  0  0  0  0  0  0  0  0  0  0  0  0  # atno 17321 bound_to 7965
  140.6159  143.2172  151.6792 LP  0  0  0  0  0  0  0  0  0  0  0  0  # atno 17342 bound_to 10162
  139.5098  144.3565  152.0603 LP  0  0  0  0  0  0  0  0  0  0  0  0  # atno 17343 bound_to 10162
  156.0458  130.3728  150.1320 LP  0  0  0  0  0  0  0  0  0  0  0  0  # atno 17370 bound_to 10713
  156.9503  130.9772  151.3499 LP  0  0  0  0  0  0  0  0  0  0  0  0  # atno 17371 bound_to 10713
  139.8803  134.9090  156.2980 LP  0  0  0  0  0  0  0  0  0  0  0  0  # atno 17394 bound_to 11000
  140.9824  133.7259  156.0691 LP  0  0  0  0  0  0  0  0  0  0  0  0  # atno 17395 bound_to 11000

$$$$
