AV-unprocessed.smi:1451|AV-procd|sdf|5902|dock5
  -GOLD-   22720 5583D 1   1.00000     0.00000
 Structure written by MMmdl.
 47 48  0  0  0  0  0  0  0  0  2 V2000
  145.5048  133.8943  150.1897 C   0  0  0  0  0  0  0  0  0  0  0  0
  144.9471  135.1818  150.8126 C   0  0  1  0  0  0  0  0  0  0  0  0
  144.1557  134.8867  152.0977 C   0  0  0  0  0  0  0  0  0  0  0  0
  143.6345  136.1917  152.7123 C   0  0  0  0  0  0  0  0  0  0  0  0
  144.7824  137.1861  152.9481 C   0  0  0  0  0  0  0  0  0  0  0  0
  145.5240  137.4562  151.6892 N   0  3  1  0  0  0  0  0  0  0  0  0
  146.5490  138.5172  151.8594 C   0  0  0  0  0  0  0  0  0  0  0  0
  147.5813  138.1682  152.9445 C   0  0  0  0  0  0  0  0  0  0  0  0
  148.4026  139.3299  153.2595 N   0  0  0  0  0  0  0  0  0  0  0  0
  148.4210  139.9499  154.4483 C   0  0  0  0  0  0  0  0  0  0  0  0
  147.7532  139.5755  155.4127 O   0  0  0  0  0  0  0  0  0  0  0  0
  149.3511  141.1657  154.5647 C   0  0  0  0  0  0  0  0  0  0  0  0
  150.3031  141.0537  155.6824 N   0  0  0  0  0  0  0  0  0  0  0  0
  150.3573  142.1272  156.5931 C   0  0  0  0  0  0  0  0  0  0  0  0
  151.1987  142.1543  157.6445 C   0  0  0  0  0  0  0  0  0  0  0  0
  151.1969  143.3036  158.6404 C   0  0  0  0  0  0  0  0  0  0  0  0
  152.0845  143.0975  159.6137 F   0  0  0  0  0  0  0  0  0  0  0  0
  151.5154  144.4398  158.0219 F   0  0  0  0  0  0  0  0  0  0  0  0
  149.9942  143.4568  159.1961 F   0  0  0  0  0  0  0  0  0  0  0  0
  152.0445  140.9906  157.8243 C   0  0  0  0  0  0  0  0  0  0  0  0
  152.0001  139.9525  156.9667 C   0  0  0  0  0  0  0  0  0  0  0  0
  151.0962  139.9482  155.8146 C   0  0  0  0  0  0  0  0  0  0  0  0
  151.0541  139.0104  155.0174 O   0  0  0  0  0  0  0  0  0  0  0  0
  146.0670  136.2029  151.0980 C   0  0  0  0  0  0  0  0  0  0  0  0
  146.1952  133.3916  150.8677 H   0  0  0  0  0  0  0  0  0  0  0  0
  146.0415  134.1054  149.2643 H   0  0  0  0  0  0  0  0  0  0  0  0
  144.7033  133.1942  149.9519 H   0  0  0  0  0  0  0  0  0  0  0  0
  144.2631  135.6263  150.0878 H   0  0  0  0  0  0  0  0  0  0  0  0
  143.3211  134.2181  151.8844 H   0  0  0  0  0  0  0  0  0  0  0  0
  144.7925  134.3711  152.8179 H   0  0  0  0  0  0  0  0  0  0  0  0
  142.8921  136.6390  152.0497 H   0  0  0  0  0  0  0  0  0  0  0  0
  143.1236  135.9821  153.6525 H   0  0  0  0  0  0  0  0  0  0  0  0
  144.3711  138.1158  153.3430 H   0  0  0  0  0  0  0  0  0  0  0  0
  145.4703  136.7977  153.7011 H   0  0  0  0  0  0  0  0  0  0  0  0
  147.0846  138.6542  150.9187 H   0  0  0  0  0  0  0  0  0  0  0  0
  146.0617  139.4690  152.0772 H   0  0  0  0  0  0  0  0  0  0  0  0
  147.0835  137.8211  153.8501 H   0  0  0  0  0  0  0  0  0  0  0  0
  148.2302  137.3601  152.6041 H   0  0  0  0  0  0  0  0  0  0  0  0
  148.9917  139.6933  152.5245 H   0  0  0  0  0  0  0  0  0  0  0  0
  149.8794  141.2796  153.6172 H   0  0  0  0  0  0  0  0  0  0  0  0
  148.7578  142.0762  154.6706 H   0  0  0  0  0  0  0  0  0  0  0  0
  149.6708  142.9337  156.3796 H   0  0  0  0  0  0  0  0  0  0  0  0
  152.7304  140.9523  158.6575 H   0  0  0  0  0  0  0  0  0  0  0  0
  152.6476  139.1034  157.1298 H   0  0  0  0  0  0  0  0  0  0  0  0
  146.8066  135.7727  151.7758 H   0  0  0  0  0  0  0  0  0  0  0  0
  146.5873  136.4217  150.1665 H   0  0  0  0  0  0  0  0  0  0  0  0
  144.8436  137.8195  151.0368 H   0  0  0  0  0  0  0  0  0  0  0  0
  1  2  1  0  0  0  0
  1 25  1  0  0  0  0
  1 26  1  0  0  0  0
  1 27  1  0  0  0  0
  2 24  1  0  0  0  0
  2  3  1  0  0  0  0
  2 28  1  0  0  0  0
  3  4  1  0  0  0  0
  3 29  1  0  0  0  0
  3 30  1  0  0  0  0
  4  5  1  0  0  0  0
  4 31  1  0  0  0  0
  4 32  1  0  0  0  0
  5  6  1  0  0  0  0
  5 33  1  0  0  0  0
  5 34  1  0  0  0  0
  6  7  1  0  0  0  0
  6 24  1  0  0  0  0
  6 47  1  0  0  0  0
  7  8  1  0  0  0  0
  7 35  1  0  0  0  0
  7 36  1  0  0  0  0
  8  9  1  0  0  0  0
  8 37  1  0  0  0  0
  8 38  1  0  0  0  0
  9 10  1  0  0  0  0
  9 39  1  0  0  0  0
 10 11  2  0  0  0  0
 10 12  1  0  0  0  0
 12 13  1  0  0  0  0
 12 40  1  0  0  0  0
 12 41  1  0  0  0  0
 13 22  1  0  0  0  0
 13 14  1  0  0  0  0
 14 15  2  0  0  0  0
 14 42  1  0  0  0  0
 15 16  1  0  0  0  0
 15 20  1  0  0  0  0
 16 17  1  0  0  0  0
 16 18  1  0  0  0  0
 16 19  1  0  0  0  0
 20 21  2  0  0  0  0
 20 43  1  0  0  0  0
 21 22  1  0  0  0  0
 21 44  1  0  0  0  0
 22 23  2  0  0  0  0
 24 45  1  0  0  0  0
 24 46  1  0  0  0  0
M  CHG  1   6   1
M  END
> <s_m_source_file>
AV-unprocessed.smi

> <i_m_source_file_index>
1451

> <i_lp_mmshare_version>
43012

> <i_f3d_flags>
0

> <s_epik_input>
W0NIM11bQ0BASF0xW0NIMl1bQ0gyXVtDSDJdTihbQ0gyXTEpW0NIMl1bQ0gyXVtOSF1DKD1PKVtDSDJdbjJbY0hdYyhDKEYpKEYpRilbY0hdW2NIXWMyPU8=

> <s_epik_cmdline>
J2VwaWtfcHl0aG9uJywgJy1waCcsICc3LjAnLCAnLXRuJywgJzgnLCAnLW1hJywgJzIwMCcsICctbWV0YWxfYmluZGluZycsICctaW1hZScsICc8aW5maWxlLm1hZT4nLCAnLW9tYWUnLCAnPG91dGZpbGUubWFlPic=

> <r_lp_tautomer_probability>
1

> <r_epik_Ionization_Penalty>
0.00192452

> <r_epik_Ionization_Penalty_Charging>
0.00192444

> <r_epik_Ionization_Penalty_Neutral>
8.16761e-08

> <r_epik_State_Penalty>
0.00131115

> <r_epik_Charging_Adjusted_Penalty>
0.00323559

> <i_epik_Tot_Q>
1

> <i_epik_Tot_abs_Q>
1

> <r_epik_Metal_State_Penalty>
-0

> <b_epik_Metal_Only>
0

> <s_lp_Force_Field>
OPLS_2005

> <r_lp_Energy>
29.222

> <b_lp_Chiralities_Consistent>
1

> <s_lp_Variant>
AV-unprocessed.smi:1451-4

> <Gold.Version>
5.8.1

> <Gold.Id.Protein>
6NUR|6NUR_protein|mol2

> <Gold.PLP.Fitness>
56.6156

> <Gold.PLP.PLP>
-47.8770

> <Gold.PLP.part.hbond>
-1.9882

> <Gold.PLP.part.metal>
0.0000

> <Gold.PLP.part.buried>
1.2962

> <Gold.PLP.part.nonpolar>
-47.0134

> <Gold.PLP.part.repulsive>
0.2259

> <Gold.PLP.ligand.clash>
0.0000

> <Gold.PLP.ligand.torsion>
0.1600

> <Gold.PLP.Chemscore.Hbond>
2.0000

> <Gold.PLP.Chemscore.CHOScore>
1.0000

> <Gold.PLP.Chemscore.Metal>
0.0000

> <Gold.Chemscore.Hbonds>
donor molecule, donor type, donor heavy atom, donor atom, acceptor molecule, acceptor atom, score
      L1  H     6    47       P1 10171  1.00
      L1  H     9    39       P1  7957  1.00
      L1  C    14    42       P1  8028  1.00

> <Gold.PLP.Chemscore.Internal.Correction>
0.0586

> <Gold.Rescore>
     Score         DG    S(hbond)    S(metal)    S(lipo)     H(rot)  DE(clash)    DE(int)     intcor
     15.70     -17.34       2.00        0.00      89.78       2.08       1.49       0.14       ----

> <Gold.Chemscore.Fitness>
15.7038

> <Gold.Chemscore.DG>
-17.3351

> <Gold.Chemscore.ZeroCoef>
-5.4800

> <Gold.Chemscore.Hbond>
1.9957

> <Gold.Chemscore.Metal>
0.0000

> <Gold.Chemscore.Lipo>
89.7808

> <Gold.Chemscore.Internal_Hbond>
0.0000

> <Gold.Chemscore.DEClash>
1.4894

> <Gold.Chemscore.DEInternal>
0.1419

> <Gold.Chemscore.Rot>
2.0762

> <Gold.Chemscore.Internal.Correction>
   9.000000E+99

> <Gold.Chemscore.Hbonds>
donor molecule, donor type, donor heavy atom, donor atom, acceptor molecule, acceptor atom, score
      L1  H     6    47       P1 10171  1.00
      L1  H     9    39       P1  7957  0.93

> <Gold.Chemscore.Hbond.Weighted>
-6.6658

> <Gold.Chemscore.Metal.Weighted>
-0.0000

> <Gold.Chemscore.Lipo.Weighted>
-10.5044

> <Gold.Chemscore.Internal_Hbond.Weighted>
0.0000

> <Gold.Chemscore.DEClash.Weighted>
1.4894

> <Gold.Chemscore.DEInternal.Weighted>
0.1419

> <Gold.Chemscore.Rot.Weighted>
5.3150

> <Gold.Chemscore.Internal.Correction.Weighted>
   9.000000E+99

> <Gold.Protein.RotatedTorsions>
[ 6907 6896 6895 6894 ] final   35.48 input  -60.11 | X-H torsion
[ 7974 7965 7964 7962 ] final -145.13 input  175.53 | X-H torsion
[ 8008 7997 7996 7995 ] final   32.32 input   59.86 | X-H torsion
[ 10167 10162 10161 10158 ] final  172.51 input  -65.29 | X-H torsion
[ 10718 10713 10712 10709 ] final  106.04 input   66.30 | X-H torsion
[ 10763 10752 10751 10750 ] final  122.41 input  -60.55 | X-H torsion
[ 11005 11000 10999 10996 ] final -132.68 input  -57.11 | X-H torsion

> <Gold.Protein.ActiveResidues>
 VAL166  LYS551  ARG553  GLY616  TRP617  ASP618  TYR619  PRO620  LYS621  CYS622 
 ASP623  PHE694  ASN695  SER759  ASP760  ASP761  ALA762  ILE779  LEU786  VAL792 
 PHE793  MET794  SER795  GLU796  ALA797  LYS798  CYS799  TRP800  GLU811  SER814 

> <Gold.Protein.RotatedAtoms>
  152.1168  134.9235  160.0564 H   0  0  0  0  0  0  0  0  0  0  0  0  # atno 6907 bound_to 6896
  152.0391  133.3965  159.4337 H   0  0  0  0  0  0  0  0  0  0  0  0  # atno 6908 bound_to 6896
  150.6846  134.3356  159.4889 H   0  0  0  0  0  0  0  0  0  0  0  0  # atno 6909 bound_to 6896
  144.8249  140.5622  143.5554 H   0  0  0  0  0  0  0  0  0  0  0  0  # atno 7974 bound_to 7965
  155.1207  140.3248  155.4498 H   0  0  0  0  0  0  0  0  0  0  0  0  # atno 8008 bound_to 7997
  156.2664  140.2028  156.6277 H   0  0  0  0  0  0  0  0  0  0  0  0  # atno 8009 bound_to 7997
  154.6686  140.0539  157.0128 H   0  0  0  0  0  0  0  0  0  0  0  0  # atno 8010 bound_to 7997
  139.5079  144.3365  152.0060 H   0  0  0  0  0  0  0  0  0  0  0  0  # atno 10167 bound_to 10162
  157.6683  131.0841  150.5947 H   0  0  0  0  0  0  0  0  0  0  0  0  # atno 10718 bound_to 10713
  153.6294  135.3399  155.3037 H   0  0  0  0  0  0  0  0  0  0  0  0  # atno 10763 bound_to 10752
  154.8583  135.4292  154.2122 H   0  0  0  0  0  0  0  0  0  0  0  0  # atno 10764 bound_to 10752
  153.3014  135.7025  153.7273 H   0  0  0  0  0  0  0  0  0  0  0  0  # atno 10765 bound_to 10752
  140.9149  134.1520  157.4360 H   0  0  0  0  0  0  0  0  0  0  0  0  # atno 11005 bound_to 11000
  145.5023  139.1483  143.3650 LP  0  0  0  0  0  0  0  0  0  0  0  0  # atno 17320 bound_to 7965
  146.2554  140.5163  142.8876 LP  0  0  0  0  0  0  0  0  0  0  0  0  # atno 17321 bound_to 7965
  140.2804  144.3866  150.6121 LP  0  0  0  0  0  0  0  0  0  0  0  0  # atno 17342 bound_to 10162
  140.6022  143.2167  151.7049 LP  0  0  0  0  0  0  0  0  0  0  0  0  # atno 17343 bound_to 10162
  156.6248  130.4415  149.5809 LP  0  0  0  0  0  0  0  0  0  0  0  0  # atno 17370 bound_to 10713
  156.2328  130.6804  151.1480 LP  0  0  0  0  0  0  0  0  0  0  0  0  # atno 17371 bound_to 10713
  139.8764  134.9949  156.5720 LP  0  0  0  0  0  0  0  0  0  0  0  0  # atno 17394 bound_to 11000
  140.8063  133.8465  155.8770 LP  0  0  0  0  0  0  0  0  0  0  0  0  # atno 17395 bound_to 11000

$$$$
