AV-unprocessed.smi:1870|AV-procd|sdf|7597|dock9
  -GOLD-   22720 9313D 1   1.00000     0.00000
 Structure written by MMmdl.
 47 49  0  0  0  0  0  0  0  0  1 V2000
  145.3322  144.8119  152.3987 C   0  0  0  0  0  0  0  0  0  0  0  0
  145.3070  143.7666  153.4810 C   0  0  0  0  0  0  0  0  0  0  0  0
  146.1646  142.8049  153.3800 N   0  0  0  0  0  0  0  0  0  0  0  0
  146.2241  141.7919  154.3178 N   0  0  0  0  0  0  0  0  0  0  0  0
  147.2504  140.7798  154.0385 C   0  0  0  0  0  0  0  0  0  0  0  0
  148.6259  141.1758  154.6170 C   0  0  2  0  0  0  0  0  0  0  0  0
  149.5849  141.1106  153.5806 O   0  0  0  0  0  0  0  0  0  0  0  0
  149.0791  140.1864  155.7110 C   0  0  0  0  0  0  0  0  0  0  0  0
  150.1569  140.6570  156.5841 N   0  0  0  0  0  0  0  0  0  0  0  0
  150.1374  139.9518  157.8620 C   0  0  0  0  0  0  0  0  0  0  0  0
  151.3985  140.2394  158.6910 C   0  0  0  0  0  0  0  0  0  0  0  0
  151.7224  141.7227  158.7457 C   0  0  0  0  0  0  0  0  0  0  0  0
  152.6508  142.2105  159.6880 C   0  0  0  0  0  0  0  0  0  0  0  0
  152.9696  143.5817  159.7200 C   0  0  0  0  0  0  0  0  0  0  0  0
  152.3620  144.4680  158.8098 C   0  0  0  0  0  0  0  0  0  0  0  0
  151.4352  143.9842  157.8661 C   0  0  0  0  0  0  0  0  0  0  0  0
  151.1155  142.6115  157.8263 C   0  0  0  0  0  0  0  0  0  0  0  0
  150.0844  142.1028  156.8264 C   0  0  0  0  0  0  0  0  0  0  0  0
  145.4114  141.6948  155.4084 C   0  0  0  0  0  0  0  0  0  0  0  0
  145.4916  140.7697  156.2177 O   0  0  0  0  0  0  0  0  0  0  0  0
  144.4452  142.7903  155.5190 C   0  0  0  0  0  0  0  0  0  0  0  0
  143.5770  142.7299  156.6501 C   0  0  0  0  0  0  0  0  0  0  0  0
  142.8897  142.6830  157.5804 N   0  0  0  0  0  0  0  0  0  0  0  0
  144.3804  143.7933  154.6079 C   0  0  0  0  0  0  0  0  0  0  0  0
  143.3951  144.9524  154.6770 C   0  0  0  0  0  0  0  0  0  0  0  0
  145.5731  145.7912  152.8124 H   0  0  0  0  0  0  0  0  0  0  0  0
  144.3627  144.8817  151.9053 H   0  0  0  0  0  0  0  0  0  0  0  0
  146.0756  144.5867  151.6323 H   0  0  0  0  0  0  0  0  0  0  0  0
  146.9227  139.8477  154.5025 H   0  0  0  0  0  0  0  0  0  0  0  0
  147.3238  140.5452  152.9746 H   0  0  0  0  0  0  0  0  0  0  0  0
  148.5786  142.1912  155.0087 H   0  0  0  0  0  0  0  0  0  0  0  0
  149.3566  140.3928  153.0093 H   0  0  0  0  0  0  0  0  0  0  0  0
  148.2214  139.9153  156.3286 H   0  0  0  0  0  0  0  0  0  0  0  0
  149.3886  139.2624  155.2196 H   0  0  0  0  0  0  0  0  0  0  0  0
  149.2493  140.2425  158.4257 H   0  0  0  0  0  0  0  0  0  0  0  0
  150.0636  138.8755  157.7024 H   0  0  0  0  0  0  0  0  0  0  0  0
  151.2792  139.8490  159.7021 H   0  0  0  0  0  0  0  0  0  0  0  0
  152.2527  139.7238  158.2507 H   0  0  0  0  0  0  0  0  0  0  0  0
  153.1231  141.5339  160.3851 H   0  0  0  0  0  0  0  0  0  0  0  0
  153.6813  143.9539  160.4418 H   0  0  0  0  0  0  0  0  0  0  0  0
  152.6055  145.5199  158.8368 H   0  0  0  0  0  0  0  0  0  0  0  0
  150.9674  144.6702  157.1752 H   0  0  0  0  0  0  0  0  0  0  0  0
  150.2301  142.6493  155.8956 H   0  0  0  0  0  0  0  0  0  0  0  0
  149.0952  142.3711  157.2004 H   0  0  0  0  0  0  0  0  0  0  0  0
  142.7831  144.9214  155.5780 H   0  0  0  0  0  0  0  0  0  0  0  0
  142.7206  144.9309  153.8206 H   0  0  0  0  0  0  0  0  0  0  0  0
  143.9226  145.9068  154.6758 H   0  0  0  0  0  0  0  0  0  0  0  0
  1  2  1  0  0  0  0
  1 26  1  0  0  0  0
  1 27  1  0  0  0  0
  1 28  1  0  0  0  0
  2 24  1  0  0  0  0
  2  3  2  0  0  0  0
  3  4  1  0  0  0  0
  4  5  1  0  0  0  0
  4 19  1  0  0  0  0
  5  6  1  0  0  0  0
  5 29  1  0  0  0  0
  5 30  1  0  0  0  0
  6  7  1  0  0  0  0
  6  8  1  0  0  0  0
  6 31  1  0  0  0  0
  7 32  1  0  0  0  0
  8  9  1  0  0  0  0
  8 33  1  0  0  0  0
  8 34  1  0  0  0  0
  9 18  1  0  0  0  0
  9 10  1  0  0  0  0
 10 11  1  0  0  0  0
 10 35  1  0  0  0  0
 10 36  1  0  0  0  0
 11 12  1  0  0  0  0
 11 37  1  0  0  0  0
 11 38  1  0  0  0  0
 12 17  2  0  0  0  0
 12 13  1  0  0  0  0
 13 14  2  0  0  0  0
 13 39  1  0  0  0  0
 14 15  1  0  0  0  0
 14 40  1  0  0  0  0
 15 16  2  0  0  0  0
 15 41  1  0  0  0  0
 16 17  1  0  0  0  0
 16 42  1  0  0  0  0
 17 18  1  0  0  0  0
 18 43  1  0  0  0  0
 18 44  1  0  0  0  0
 19 20  2  0  0  0  0
 19 21  1  0  0  0  0
 21 22  1  0  0  0  0
 21 24  2  0  0  0  0
 22 23  3  0  0  0  0
 24 25  1  0  0  0  0
 25 45  1  0  0  0  0
 25 46  1  0  0  0  0
 25 47  1  0  0  0  0
M  END
> <s_m_source_file>
AV-unprocessed.smi

> <i_m_source_file_index>
1870

> <i_lp_mmshare_version>
43012

> <i_f3d_flags>
0

> <s_epik_input>
TiNDYyhjMVtDSDNdKWMoPU8pbihuYzFbQ0gzXSlbQ0gyXVtDQEhdKFtPSF0pW0NIMl1OKFtDSDJdW0NIMl0yKVtDSDJdYyhjMjMpW2NIXVtjSF1bY0hdW2NIXTM=

> <s_epik_cmdline>
J2VwaWtfcHl0aG9uJywgJy1waCcsICc3LjAnLCAnLXRuJywgJzgnLCAnLW1hJywgJzIwMCcsICctbWV0YWxfYmluZGluZycsICctaW1hZScsICc8aW5maWxlLm1hZT4nLCAnLW9tYWUnLCAnPG91dGZpbGUubWFlPic=

> <r_epik_Ionization_Penalty>
2.30251

> <r_epik_Ionization_Penalty_Charging>
1.06171e-10

> <r_epik_Ionization_Penalty_Neutral>
2.30251

> <r_epik_State_Penalty>
2.45335

> <r_epik_Charging_Adjusted_Penalty>
2.45335

> <i_epik_Tot_Q>
0

> <i_epik_Tot_abs_Q>
0

> <r_epik_Metal_State_Penalty>
2.45335

> <b_epik_Metal_Only>
0

> <s_lp_Force_Field>
OPLS_2005

> <r_lp_Energy>
46.0919

> <b_lp_Chiralities_Consistent>
1

> <s_lp_Variant>
AV-unprocessed.smi:1870-5

> <Gold.Version>
5.8.1

> <Gold.Id.Protein>
6NUR|6NUR_protein|mol2

> <Gold.PLP.Fitness>
52.2257

> <Gold.PLP.PLP>
-49.5740

> <Gold.PLP.part.hbond>
-3.0000

> <Gold.PLP.part.metal>
0.0000

> <Gold.PLP.part.buried>
-4.4712

> <Gold.PLP.part.nonpolar>
-42.8069

> <Gold.PLP.part.repulsive>
0.2662

> <Gold.PLP.ligand.clash>
0.0000

> <Gold.PLP.ligand.torsion>
1.5183

> <Gold.PLP.Chemscore.Hbond>
1.8900

> <Gold.PLP.Chemscore.CHOScore>
0.0000

> <Gold.PLP.Chemscore.Metal>
0.0000

> <Gold.Chemscore.Hbonds>
donor molecule, donor type, donor heavy atom, donor atom, acceptor molecule, acceptor atom, score
      L1  H     7    32       P1  7957  0.67
      P1  H  7989  7998       L1     7  0.20
      P1  H  8011  8017       L1     7  0.94

> <Gold.PLP.Chemscore.Internal.Correction>
0.0182

> <Gold.Rescore>
     Score         DG    S(hbond)    S(metal)    S(lipo)     H(rot)  DE(clash)    DE(int)     intcor
     18.61     -20.13       1.39        0.00     131.53       2.10       0.03       1.49       ----

> <Gold.Chemscore.Fitness>
18.6125

> <Gold.Chemscore.DG>
-20.1294

> <Gold.Chemscore.ZeroCoef>
-5.4800

> <Gold.Chemscore.Hbond>
1.3857

> <Gold.Chemscore.Metal>
0.0000

> <Gold.Chemscore.Lipo>
131.5346

> <Gold.Chemscore.Internal_Hbond>
0.0000

> <Gold.Chemscore.DEClash>
0.0291

> <Gold.Chemscore.DEInternal>
1.4877

> <Gold.Chemscore.Rot>
2.0971

> <Gold.Chemscore.Internal.Correction>
   9.000000E+99

> <Gold.Chemscore.Hbonds>
donor molecule, donor type, donor heavy atom, donor atom, acceptor molecule, acceptor atom, score
      L1  H     7    32       P1  7957  0.68
      P1  H  7989  7998       L1     7  0.03
      P1  H  8011  8017       L1     7  0.20

> <Gold.Chemscore.Hbond.Weighted>
-4.6284

> <Gold.Chemscore.Metal.Weighted>
-0.0000

> <Gold.Chemscore.Lipo.Weighted>
-15.3895

> <Gold.Chemscore.Internal_Hbond.Weighted>
0.0000

> <Gold.Chemscore.DEClash.Weighted>
0.0291

> <Gold.Chemscore.DEInternal.Weighted>
1.4877

> <Gold.Chemscore.Rot.Weighted>
5.3685

> <Gold.Chemscore.Internal.Correction.Weighted>
   9.000000E+99

> <Gold.Protein.RotatedTorsions>
[ 6907 6896 6895 6894 ] final  107.94 input  -60.11 | X-H torsion
[ 7974 7965 7964 7962 ] final   49.53 input  175.53 | X-H torsion
[ 8008 7997 7996 7995 ] final   68.93 input   59.86 | X-H torsion
[ 10167 10162 10161 10158 ] final   16.61 input  -65.29 | X-H torsion
[ 10718 10713 10712 10709 ] final   76.39 input   66.30 | X-H torsion
[ 10763 10752 10751 10750 ] final   70.25 input  -60.55 | X-H torsion
[ 11005 11000 10999 10996 ] final    4.56 input  -57.11 | X-H torsion

> <Gold.Protein.ActiveResidues>
 VAL166  LYS551  ARG553  GLY616  TRP617  ASP618  TYR619  PRO620  LYS621  CYS622 
 ASP623  PHE694  ASN695  SER759  ASP760  ASP761  ALA762  ILE779  LEU786  VAL792 
 PHE793  MET794  SER795  GLU796  ALA797  LYS798  CYS799  TRP800  GLU811  SER814 

> <Gold.Protein.RotatedAtoms>
  152.5133  133.9161  159.7511 H   0  0  0  0  0  0  0  0  0  0  0  0  # atno 6907 bound_to 6896
  150.9543  133.6506  159.2773 H   0  0  0  0  0  0  0  0  0  0  0  0  # atno 6908 bound_to 6896
  151.3773  135.0939  159.9537 H   0  0  0  0  0  0  0  0  0  0  0  0  # atno 6909 bound_to 6896
  146.0100  139.4532  142.9962 H   0  0  0  0  0  0  0  0  0  0  0  0  # atno 7974 bound_to 7965
  155.7159  140.3494  155.4994 H   0  0  0  0  0  0  0  0  0  0  0  0  # atno 8008 bound_to 7997
  155.9314  140.1085  157.1151 H   0  0  0  0  0  0  0  0  0  0  0  0  # atno 8009 bound_to 7997
  154.4086  140.1230  156.4794 H   0  0  0  0  0  0  0  0  0  0  0  0  # atno 8010 bound_to 7997
  140.5785  143.9026  150.6770 H   0  0  0  0  0  0  0  0  0  0  0  0  # atno 10167 bound_to 10162
  157.6671  130.9772  150.1490 H   0  0  0  0  0  0  0  0  0  0  0  0  # atno 10718 bound_to 10713
  153.0331  135.5181  154.7412 H   0  0  0  0  0  0  0  0  0  0  0  0  # atno 10763 bound_to 10752
  154.6411  135.2912  155.0105 H   0  0  0  0  0  0  0  0  0  0  0  0  # atno 10764 bound_to 10752
  154.1022  135.6634  153.4923 H   0  0  0  0  0  0  0  0  0  0  0  0  # atno 10765 bound_to 10752
  140.5806  134.0017  155.8046 H   0  0  0  0  0  0  0  0  0  0  0  0  # atno 11005 bound_to 11000
  145.7357  141.0026  143.1328 LP  0  0  0  0  0  0  0  0  0  0  0  0  # atno 17320 bound_to 7965
  144.6949  139.9038  143.7460 LP  0  0  0  0  0  0  0  0  0  0  0  0  # atno 17321 bound_to 7965
  140.2519  143.3587  152.1398 LP  0  0  0  0  0  0  0  0  0  0  0  0  # atno 17342 bound_to 10162
  139.5156  144.6966  151.5614 LP  0  0  0  0  0  0  0  0  0  0  0  0  # atno 17343 bound_to 10162
  156.2294  130.3680  149.8463 LP  0  0  0  0  0  0  0  0  0  0  0  0  # atno 17370 bound_to 10713
  156.6294  130.8659  151.3492 LP  0  0  0  0  0  0  0  0  0  0  0  0  # atno 17371 bound_to 10713
  141.0999  133.9785  157.3097 LP  0  0  0  0  0  0  0  0  0  0  0  0  # atno 17394 bound_to 11000
  139.9319  135.0199  156.8429 LP  0  0  0  0  0  0  0  0  0  0  0  0  # atno 17395 bound_to 11000

$$$$
