AV-unprocessed.smi:1167|AV-procd|sdf|4938|dock3
  -GOLD-   22720 3523D 1   1.00000     0.00000
 Structure written by MMmdl.
 41 42  0  0  0  0  0  0  0  0  1 V2000
  153.3011  142.9916  163.1858 C   0  0  0  0  0  0  0  0  0  0  0  0
  152.7373  144.0998  162.4931 O   0  0  0  0  0  0  0  0  0  0  0  0
  152.2115  143.8878  161.2351 C   0  0  0  0  0  0  0  0  0  0  0  0
  151.7603  144.9993  160.4969 C   0  0  0  0  0  0  0  0  0  0  0  0
  151.2199  144.7928  159.2129 C   0  0  0  0  0  0  0  0  0  0  0  0
  151.1473  143.4729  158.7042 C   0  0  0  0  0  0  0  0  0  0  0  0
  150.6282  143.1141  157.4288 N   0  0  0  0  0  0  0  0  0  0  0  0
  150.4894  141.8994  156.8691 C   0  0  0  0  0  0  0  0  0  0  0  0
  150.8006  140.8285  157.3885 O   0  0  0  0  0  0  0  0  0  0  0  0
  149.9564  141.9946  155.6425 N   0  0  0  0  0  0  0  0  0  0  0  0
  149.6720  140.8691  154.7572 C   0  0  0  0  0  0  0  0  0  0  0  0
  148.3053  140.2529  155.1260 C   0  0  0  0  0  0  0  0  0  0  0  0
  148.0502  138.9494  154.3484 C   0  0  0  0  0  0  0  0  0  0  0  0
  149.1585  138.0217  154.6023 N   0  0  0  0  0  0  0  0  0  0  0  0
  149.0202  136.9031  155.3540 C   0  0  0  0  0  0  0  0  0  0  0  0
  150.2454  136.0270  155.6253 C   0  0  0  0  0  0  0  0  0  0  0  0
  147.9423  136.5545  155.8360 O   0  0  0  0  0  0  0  0  0  0  0  0
  150.4257  138.5352  154.0673 C   0  0  0  0  0  0  0  0  0  0  0  0
  150.8035  139.8173  154.8304 C   0  0  0  0  0  0  0  0  0  0  0  0
  151.6293  142.4309  159.5237 C   0  0  0  0  0  0  0  0  0  0  0  0
  152.1475  142.6215  160.7551 N   0  0  0  0  0  0  0  0  0  0  0  0
  153.6679  143.3228  164.1573 H   0  0  0  0  0  0  0  0  0  0  0  0
  154.1457  142.5676  162.6406 H   0  0  0  0  0  0  0  0  0  0  0  0
  152.5591  142.2110  163.3608 H   0  0  0  0  0  0  0  0  0  0  0  0
  151.8265  145.9957  160.9086 H   0  0  0  0  0  0  0  0  0  0  0  0
  150.8796  145.6519  158.6587 H   0  0  0  0  0  0  0  0  0  0  0  0
  150.3269  143.8918  156.8601 H   0  0  0  0  0  0  0  0  0  0  0  0
  149.7298  142.9143  155.2931 H   0  0  0  0  0  0  0  0  0  0  0  0
  149.6034  141.2309  153.7295 H   0  0  0  0  0  0  0  0  0  0  0  0
  148.2706  140.0407  156.1959 H   0  0  0  0  0  0  0  0  0  0  0  0
  147.5058  140.9671  154.9263 H   0  0  0  0  0  0  0  0  0  0  0  0
  147.0801  138.5353  154.6263 H   0  0  0  0  0  0  0  0  0  0  0  0
  147.9884  139.1560  153.2790 H   0  0  0  0  0  0  0  0  0  0  0  0
  151.0230  136.5957  156.1360 H   0  0  0  0  0  0  0  0  0  0  0  0
  150.6493  135.6287  154.6940 H   0  0  0  0  0  0  0  0  0  0  0  0
  149.9798  135.1814  156.2608 H   0  0  0  0  0  0  0  0  0  0  0  0
  151.2446  137.8192  154.1184 H   0  0  0  0  0  0  0  0  0  0  0  0
  150.3021  138.7579  153.0066 H   0  0  0  0  0  0  0  0  0  0  0  0
  151.7281  140.2291  154.4244 H   0  0  0  0  0  0  0  0  0  0  0  0
  151.0087  139.5657  155.8721 H   0  0  0  0  0  0  0  0  0  0  0  0
  151.5983  141.4065  159.1814 H   0  0  0  0  0  0  0  0  0  0  0  0
  1  2  1  0  0  0  0
  1 22  1  0  0  0  0
  1 23  1  0  0  0  0
  1 24  1  0  0  0  0
  2  3  1  0  0  0  0
  3 21  1  0  0  0  0
  3  4  2  0  0  0  0
  4  5  1  0  0  0  0
  4 25  1  0  0  0  0
  5  6  2  0  0  0  0
  5 26  1  0  0  0  0
  6  7  1  0  0  0  0
  6 20  1  0  0  0  0
  7  8  1  0  0  0  0
  7 27  1  0  0  0  0
  8  9  2  0  0  0  0
  8 10  1  0  0  0  0
 10 11  1  0  0  0  0
 10 28  1  0  0  0  0
 11 19  1  0  0  0  0
 11 12  1  0  0  0  0
 11 29  1  0  0  0  0
 12 13  1  0  0  0  0
 12 30  1  0  0  0  0
 12 31  1  0  0  0  0
 13 14  1  0  0  0  0
 13 32  1  0  0  0  0
 13 33  1  0  0  0  0
 14 15  1  0  0  0  0
 14 18  1  0  0  0  0
 15 16  1  0  0  0  0
 15 17  2  0  0  0  0
 16 34  1  0  0  0  0
 16 35  1  0  0  0  0
 16 36  1  0  0  0  0
 18 19  1  0  0  0  0
 18 37  1  0  0  0  0
 18 38  1  0  0  0  0
 19 39  1  0  0  0  0
 19 40  1  0  0  0  0
 20 21  2  0  0  0  0
 20 41  1  0  0  0  0
M  END
> <s_m_source_file>
AV-unprocessed.smi

> <i_m_source_file_index>
1167

> <i_lp_mmshare_version>
43012

> <i_f3d_flags>
0

> <s_epik_input>
W0NIM11PYzFbY0hdW2NIXWMoW2NIXW4xKVtOSF1DKD1PKVtOSF1bQ0hdMltDSDJdW0NIMl1OKEMoPU8pW0NIM10pW0NIMl1bQ0gyXTI=

> <s_epik_cmdline>
J2VwaWtfcHl0aG9uJywgJy1waCcsICc3LjAnLCAnLXRuJywgJzgnLCAnLW1hJywgJzIwMCcsICctbWV0YWxfYmluZGluZycsICctaW1hZScsICc8aW5maWxlLm1hZT4nLCAnLW9tYWUnLCAnPG91dGZpbGUubWFlPic=

> <r_lp_tautomer_probability>
1

> <r_epik_Ionization_Penalty>
9.6092e-05

> <r_epik_Ionization_Penalty_Charging>
0

> <r_epik_Ionization_Penalty_Neutral>
9.6092e-05

> <r_epik_State_Penalty>
-0

> <r_epik_Charging_Adjusted_Penalty>
0

> <i_epik_Tot_Q>
0

> <i_epik_Tot_abs_Q>
0

> <r_epik_Metal_State_Penalty>
-0

> <b_epik_Metal_Only>
0

> <s_lp_Force_Field>
OPLS_2005

> <r_lp_Energy>
24.5609

> <b_lp_Chiralities_Consistent>
1

> <s_lp_Variant>
AV-unprocessed.smi:1167-1

> <Gold.Version>
5.8.1

> <Gold.Id.Protein>
6NUR|6NUR_protein|mol2

> <Gold.PLP.Fitness>
42.4904

> <Gold.PLP.PLP>
-37.2576

> <Gold.PLP.part.hbond>
-2.0000

> <Gold.PLP.part.metal>
0.0000

> <Gold.PLP.part.buried>
-1.7679

> <Gold.PLP.part.nonpolar>
-33.1699

> <Gold.PLP.part.repulsive>
0.4335

> <Gold.PLP.ligand.clash>
0.0000

> <Gold.PLP.ligand.torsion>
0.3440

> <Gold.PLP.Chemscore.Hbond>
1.9680

> <Gold.PLP.Chemscore.CHOScore>
0.0000

> <Gold.PLP.Chemscore.Metal>
0.0000

> <Gold.Chemscore.Hbonds>
donor molecule, donor type, donor heavy atom, donor atom, acceptor molecule, acceptor atom, score
      L1  H     7    27       P1  8028  0.98
      L1  H    10    28       P1  8028  0.96

> <Gold.PLP.Chemscore.Internal.Correction>
0.0168

> <Gold.Rescore>
     Score         DG    S(hbond)    S(metal)    S(lipo)     H(rot)  DE(clash)    DE(int)     intcor
     14.54     -19.12       1.90        0.00      90.25       1.27       1.40       3.17       ----

> <Gold.Chemscore.Fitness>
14.5417

> <Gold.Chemscore.DG>
-19.1177

> <Gold.Chemscore.ZeroCoef>
-5.4800

> <Gold.Chemscore.Hbond>
1.8988

> <Gold.Chemscore.Metal>
0.0000

> <Gold.Chemscore.Lipo>
90.2453

> <Gold.Chemscore.Internal_Hbond>
0.0000

> <Gold.Chemscore.DEClash>
1.4044

> <Gold.Chemscore.DEInternal>
3.1716

> <Gold.Chemscore.Rot>
1.2746

> <Gold.Chemscore.Internal.Correction>
   9.000000E+99

> <Gold.Chemscore.Hbonds>
donor molecule, donor type, donor heavy atom, donor atom, acceptor molecule, acceptor atom, score
      L1  H     7    27       P1  8028  0.86
      L1  H    10    28       P1  8028  0.87

> <Gold.Chemscore.Hbond.Weighted>
-6.3420

> <Gold.Chemscore.Metal.Weighted>
-0.0000

> <Gold.Chemscore.Lipo.Weighted>
-10.5587

> <Gold.Chemscore.Internal_Hbond.Weighted>
0.0000

> <Gold.Chemscore.DEClash.Weighted>
1.4044

> <Gold.Chemscore.DEInternal.Weighted>
3.1716

> <Gold.Chemscore.Rot.Weighted>
3.2630

> <Gold.Chemscore.Internal.Correction.Weighted>
   9.000000E+99

> <Gold.Protein.RotatedTorsions>
[ 6907 6896 6895 6894 ] final    6.58 input  -60.11 | X-H torsion
[ 7974 7965 7964 7962 ] final -176.77 input  175.53 | X-H torsion
[ 8008 7997 7996 7995 ] final   98.12 input   59.86 | X-H torsion
[ 10167 10162 10161 10158 ] final  106.30 input  -65.29 | X-H torsion
[ 10718 10713 10712 10709 ] final   -6.62 input   66.30 | X-H torsion
[ 10763 10752 10751 10750 ] final  101.83 input  -60.55 | X-H torsion
[ 11005 11000 10999 10996 ] final  151.98 input  -57.11 | X-H torsion

> <Gold.Protein.ActiveResidues>
 VAL166  LYS551  ARG553  GLY616  TRP617  ASP618  TYR619  PRO620  LYS621  CYS622 
 ASP623  PHE694  ASN695  SER759  ASP760  ASP761  ALA762  ILE779  LEU786  VAL792 
 PHE793  MET794  SER795  GLU796  ALA797  LYS798  CYS799  TRP800  GLU811  SER814 

> <Gold.Protein.RotatedAtoms>
  151.6760  135.0969  160.0206 H   0  0  0  0  0  0  0  0  0  0  0  0  # atno 6907 bound_to 6896
  152.3863  133.6612  159.6210 H   0  0  0  0  0  0  0  0  0  0  0  0  # atno 6908 bound_to 6896
  150.7788  133.8946  159.3364 H   0  0  0  0  0  0  0  0  0  0  0  0  # atno 6909 bound_to 6896
  144.7127  140.1121  143.6410 H   0  0  0  0  0  0  0  0  0  0  0  0  # atno 7974 bound_to 7965
  156.0971  140.3248  155.7893 H   0  0  0  0  0  0  0  0  0  0  0  0  # atno 8008 bound_to 7997
  155.4899  140.0560  157.2972 H   0  0  0  0  0  0  0  0  0  0  0  0  # atno 8009 bound_to 7997
  154.4673  140.1995  156.0099 H   0  0  0  0  0  0  0  0  0  0  0  0  # atno 8010 bound_to 7997
  139.7020  144.7092  151.1169 H   0  0  0  0  0  0  0  0  0  0  0  0  # atno 10167 bound_to 10162
  156.7292  130.5175  149.5849 H   0  0  0  0  0  0  0  0  0  0  0  0  # atno 10718 bound_to 10713
  153.3318  135.4031  155.1501 H   0  0  0  0  0  0  0  0  0  0  0  0  # atno 10763 bound_to 10752
  154.8624  135.3612  154.5461 H   0  0  0  0  0  0  0  0  0  0  0  0  # atno 10764 bound_to 10752
  153.5900  135.7074  153.5486 H   0  0  0  0  0  0  0  0  0  0  0  0  # atno 10765 bound_to 10752
  140.1267  134.8829  157.2147 H   0  0  0  0  0  0  0  0  0  0  0  0  # atno 11005 bound_to 11000
  145.9446  139.2692  143.1248 LP  0  0  0  0  0  0  0  0  0  0  0  0  # atno 17320 bound_to 7965
  145.9388  140.8995  143.0318 LP  0  0  0  0  0  0  0  0  0  0  0  0  # atno 17321 bound_to 7965
  140.7712  143.5410  150.9313 LP  0  0  0  0  0  0  0  0  0  0  0  0  # atno 17342 bound_to 10162
  139.9092  143.6741  152.3118 LP  0  0  0  0  0  0  0  0  0  0  0  0  # atno 17343 bound_to 10162
  156.1540  130.6329  151.0633 LP  0  0  0  0  0  0  0  0  0  0  0  0  # atno 17370 bound_to 10713
  157.6866  131.0823  150.7226 LP  0  0  0  0  0  0  0  0  0  0  0  0  # atno 17371 bound_to 10713
  140.2895  134.3257  155.7319 LP  0  0  0  0  0  0  0  0  0  0  0  0  # atno 17394 bound_to 11000
  141.2162  133.7526  156.9482 LP  0  0  0  0  0  0  0  0  0  0  0  0  # atno 17395 bound_to 11000

$$$$
