AV-unprocessed.smi:3212|AV-procd|sdf|12281|dock9
  -GOLD-   2272018113D 1   1.00000     0.00000
 Structure written by MMmdl.
 39 39  0  0  0  0  0  0  0  0  1 V2000
  148.6690  140.6239  157.1868 C   0  0  0  0  0  0  0  0  0  0  0  0
  149.8809  141.2049  156.4420 C   0  0  1  0  0  0  0  0  0  0  0  0
  150.7440  141.9350  157.3925 N   0  0  0  0  0  0  0  0  0  0  0  0
  151.2098  141.1894  158.5631 C   0  0  0  0  0  0  0  0  0  0  0  0
  152.4410  141.8199  159.2462 C   0  0  0  0  0  0  0  0  0  0  0  0
  152.3658  143.2683  159.3072 N   0  0  0  0  0  0  0  0  0  0  0  0
  152.7119  144.1863  158.3382 C   0  0  0  0  0  0  0  0  0  0  0  0
  152.4691  145.4283  158.8505 C   0  0  0  0  0  0  0  0  0  0  0  0
  151.9700  145.1637  160.1564 C   0  0  0  0  0  0  0  0  0  0  0  0
  151.9128  143.8701  160.4283 N   0  0  0  0  0  0  0  0  0  0  0  0
  150.6172  140.1009  155.6656 C   0  0  0  0  0  0  0  0  0  0  0  0
  150.6863  140.1558  154.4379 O   0  0  0  0  0  0  0  0  0  0  0  0
  151.1265  139.0979  156.4028 N   0  0  0  0  0  0  0  0  0  0  0  0
  151.8267  137.8921  155.9468 C   0  0  0  0  0  0  0  0  0  0  0  0
  153.1412  138.3597  155.2980 C   0  0  0  0  0  0  0  0  0  0  0  0
  150.9899  137.1344  154.8944 C   0  0  0  0  0  0  0  0  0  0  0  0
  152.1555  136.9762  157.1443 C   0  0  0  0  0  0  0  0  0  0  0  0
  148.0027  140.0915  156.5069 H   0  0  0  0  0  0  0  0  0  0  0  0
  148.0860  141.4156  157.6588 H   0  0  0  0  0  0  0  0  0  0  0  0
  148.9725  139.9270  157.9692 H   0  0  0  0  0  0  0  0  0  0  0  0
  149.4905  141.9238  155.7207 H   0  0  0  0  0  0  0  0  0  0  0  0
  150.2928  142.7821  157.7072 H   0  0  0  0  0  0  0  0  0  0  0  0
  150.3853  141.1585  159.2760 H   0  0  0  0  0  0  0  0  0  0  0  0
  151.4096  140.1489  158.3065 H   0  0  0  0  0  0  0  0  0  0  0  0
  152.5250  141.4419  160.2659 H   0  0  0  0  0  0  0  0  0  0  0  0
  153.3656  141.5341  158.7448 H   0  0  0  0  0  0  0  0  0  0  0  0
  153.0947  143.8820  157.3752 H   0  0  0  0  0  0  0  0  0  0  0  0
  152.6232  146.3809  158.3660 H   0  0  0  0  0  0  0  0  0  0  0  0
  151.6512  145.8682  160.9103 H   0  0  0  0  0  0  0  0  0  0  0  0
  150.9978  139.1696  157.4016 H   0  0  0  0  0  0  0  0  0  0  0  0
  153.7272  137.5154  154.9329 H   0  0  0  0  0  0  0  0  0  0  0  0
  153.7632  138.9063  156.0082 H   0  0  0  0  0  0  0  0  0  0  0  0
  152.9538  139.0191  154.4496 H   0  0  0  0  0  0  0  0  0  0  0  0
  150.7136  137.7846  154.0637 H   0  0  0  0  0  0  0  0  0  0  0  0
  150.0702  136.7270  155.3143 H   0  0  0  0  0  0  0  0  0  0  0  0
  151.5489  136.2942  154.4809 H   0  0  0  0  0  0  0  0  0  0  0  0
  152.7539  136.1203  156.8308 H   0  0  0  0  0  0  0  0  0  0  0  0
  151.2564  136.5812  157.6169 H   0  0  0  0  0  0  0  0  0  0  0  0
  152.7218  137.5100  157.9084 H   0  0  0  0  0  0  0  0  0  0  0  0
  1  2  1  0  0  0  0
  1 18  1  0  0  0  0
  1 19  1  0  0  0  0
  1 20  1  0  0  0  0
  2  3  1  0  0  0  0
  2 11  1  0  0  0  0
  2 21  1  0  0  0  0
  3  4  1  0  0  0  0
  3 22  1  0  0  0  0
  4  5  1  0  0  0  0
  4 23  1  0  0  0  0
  4 24  1  0  0  0  0
  5  6  1  0  0  0  0
  5 25  1  0  0  0  0
  5 26  1  0  0  0  0
  6 10  1  0  0  0  0
  6  7  1  0  0  0  0
  7  8  2  0  0  0  0
  7 27  1  0  0  0  0
  8  9  1  0  0  0  0
  8 28  1  0  0  0  0
  9 10  2  0  0  0  0
  9 29  1  0  0  0  0
 11 12  2  0  0  0  0
 11 13  1  0  0  0  0
 13 14  1  0  0  0  0
 13 30  1  0  0  0  0
 14 15  1  0  0  0  0
 14 16  1  0  0  0  0
 14 17  1  0  0  0  0
 15 31  1  0  0  0  0
 15 32  1  0  0  0  0
 15 33  1  0  0  0  0
 16 34  1  0  0  0  0
 16 35  1  0  0  0  0
 16 36  1  0  0  0  0
 17 37  1  0  0  0  0
 17 38  1  0  0  0  0
 17 39  1  0  0  0  0
M  END
> <s_m_source_file>
AV-unprocessed.smi

> <i_m_source_file_index>
3212

> <i_lp_mmshare_version>
43012

> <i_f3d_flags>
0

> <s_epik_input>
W0NIM11DKFtDSDNdKShbQ0gzXSlbTkhdQyg9TylbQ0BIXShbQ0gzXSlbTkhdW0NIMl1bQ0gyXW4xW2NIXVtjSF1bY0hdbjE=

> <s_epik_cmdline>
J2VwaWtfcHl0aG9uJywgJy1waCcsICc3LjAnLCAnLXRuJywgJzgnLCAnLW1hJywgJzIwMCcsICctbWV0YWxfYmluZGluZycsICctaW1hZScsICc8aW5maWxlLm1hZT4nLCAnLW9tYWUnLCAnPG91dGZpbGUubWFlPic=

> <r_lp_tautomer_probability>
1

> <r_epik_Ionization_Penalty>
0.745735

> <r_epik_Ionization_Penalty_Charging>
0

> <r_epik_Ionization_Penalty_Neutral>
0.745735

> <r_epik_State_Penalty>
0.771152

> <r_epik_Charging_Adjusted_Penalty>
0.771152

> <i_epik_Tot_Q>
0

> <i_epik_Tot_abs_Q>
0

> <r_epik_Metal_State_Penalty>
0.770403

> <b_epik_Metal_Only>
0

> <s_lp_Force_Field>
OPLS_2005

> <r_lp_Energy>
7.05168

> <b_lp_Chiralities_Consistent>
1

> <s_lp_Variant>
AV-unprocessed.smi:3212-4

> <Gold.Version>
5.8.1

> <Gold.Id.Protein>
6NUR|6NUR_protein|mol2

> <Gold.PLP.Fitness>
39.6117

> <Gold.PLP.PLP>
-37.8428

> <Gold.PLP.part.hbond>
-0.8630

> <Gold.PLP.part.metal>
0.0000

> <Gold.PLP.part.buried>
-4.5013

> <Gold.PLP.part.nonpolar>
-32.2474

> <Gold.PLP.part.repulsive>
0.2835

> <Gold.PLP.ligand.clash>
0.0000

> <Gold.PLP.ligand.torsion>
0.5902

> <Gold.PLP.Chemscore.Hbond>
0.9600

> <Gold.PLP.Chemscore.CHOScore>
0.0000

> <Gold.PLP.Chemscore.Metal>
0.0000

> <Gold.Chemscore.Hbonds>
donor molecule, donor type, donor heavy atom, donor atom, acceptor molecule, acceptor atom, score
      P1  H  7989  7998       L1    12  0.96

> <Gold.PLP.Chemscore.Internal.Correction>
0.0693

> <Gold.Rescore>
     Score         DG    S(hbond)    S(metal)    S(lipo)     H(rot)  DE(clash)    DE(int)     intcor
     13.40     -14.09       0.93        0.00      90.48       1.99       0.01       0.68       ----

> <Gold.Chemscore.Fitness>
13.3990

> <Gold.Chemscore.DG>
-14.0912

> <Gold.Chemscore.ZeroCoef>
-5.4800

> <Gold.Chemscore.Hbond>
0.9324

> <Gold.Chemscore.Metal>
0.0000

> <Gold.Chemscore.Lipo>
90.4798

> <Gold.Chemscore.Internal_Hbond>
0.0000

> <Gold.Chemscore.DEClash>
0.0082

> <Gold.Chemscore.DEInternal>
0.6840

> <Gold.Chemscore.Rot>
1.9880

> <Gold.Chemscore.Internal.Correction>
   9.000000E+99

> <Gold.Chemscore.Hbonds>
donor molecule, donor type, donor heavy atom, donor atom, acceptor molecule, acceptor atom, score
      P1  H  7989  7998       L1    12  0.90

> <Gold.Chemscore.Hbond.Weighted>
-3.1144

> <Gold.Chemscore.Metal.Weighted>
-0.0000

> <Gold.Chemscore.Lipo.Weighted>
-10.5861

> <Gold.Chemscore.Internal_Hbond.Weighted>
0.0000

> <Gold.Chemscore.DEClash.Weighted>
0.0082

> <Gold.Chemscore.DEInternal.Weighted>
0.6840

> <Gold.Chemscore.Rot.Weighted>
5.0893

> <Gold.Chemscore.Internal.Correction.Weighted>
   9.000000E+99

> <Gold.Protein.RotatedTorsions>
[ 6907 6896 6895 6894 ] final  -36.42 input  -60.11 | X-H torsion
[ 7974 7965 7964 7962 ] final   45.71 input  175.53 | X-H torsion
[ 8008 7997 7996 7995 ] final -109.40 input   59.86 | X-H torsion
[ 10167 10162 10161 10158 ] final  149.51 input  -65.29 | X-H torsion
[ 10718 10713 10712 10709 ] final -122.80 input   66.30 | X-H torsion
[ 10763 10752 10751 10750 ] final   62.17 input  -60.55 | X-H torsion
[ 11005 11000 10999 10996 ] final   51.64 input  -57.11 | X-H torsion

> <Gold.Protein.ActiveResidues>
 VAL166  LYS551  ARG553  GLY616  TRP617  ASP618  TYR619  PRO620  LYS621  CYS622 
 ASP623  PHE694  ASN695  SER759  ASP760  ASP761  ALA762  ILE779  LEU786  VAL792 
 PHE793  MET794  SER795  GLU796  ALA797  LYS798  CYS799  TRP800  GLU811  SER814 

> <Gold.Protein.RotatedAtoms>
  151.0274  134.9514  159.8092 H   0  0  0  0  0  0  0  0  0  0  0  0  # atno 6907 bound_to 6896
  152.5338  134.2824  159.9022 H   0  0  0  0  0  0  0  0  0  0  0  0  # atno 6908 bound_to 6896
  151.2833  133.4157  159.2662 H   0  0  0  0  0  0  0  0  0  0  0  0  # atno 6909 bound_to 6896
  146.0455  139.4934  142.9751 H   0  0  0  0  0  0  0  0  0  0  0  0  # atno 7974 bound_to 7965
  154.9588  140.0399  157.2180 H   0  0  0  0  0  0  0  0  0  0  0  0  # atno 8008 bound_to 7997
  154.7909  140.2835  155.5970 H   0  0  0  0  0  0  0  0  0  0  0  0  # atno 8009 bound_to 7997
  156.2949  140.2573  156.2756 H   0  0  0  0  0  0  0  0  0  0  0  0  # atno 8010 bound_to 7997
  139.4861  144.5596  151.7255 H   0  0  0  0  0  0  0  0  0  0  0  0  # atno 10167 bound_to 10162
  156.1448  130.6492  150.9826 H   0  0  0  0  0  0  0  0  0  0  0  0  # atno 10718 bound_to 10713
  152.9974  135.5474  154.6150 H   0  0  0  0  0  0  0  0  0  0  0  0  # atno 10763 bound_to 10752
  154.5463  135.2823  155.1052 H   0  0  0  0  0  0  0  0  0  0  0  0  # atno 10764 bound_to 10752
  154.2310  135.6433  153.5228 H   0  0  0  0  0  0  0  0  0  0  0  0  # atno 10765 bound_to 10752
  140.0916  134.5202  155.8847 H   0  0  0  0  0  0  0  0  0  0  0  0  # atno 11005 bound_to 11000
  145.6813  141.0190  143.1605 LP  0  0  0  0  0  0  0  0  0  0  0  0  # atno 17320 bound_to 7965
  144.7096  139.8424  143.7419 LP  0  0  0  0  0  0  0  0  0  0  0  0  # atno 17321 bound_to 7965
  140.5164  144.0947  150.6009 LP  0  0  0  0  0  0  0  0  0  0  0  0  # atno 17342 bound_to 10162
  140.3890  143.2762  152.0082 LP  0  0  0  0  0  0  0  0  0  0  0  0  # atno 17343 bound_to 10162
  157.6607  131.0881  150.7844 LP  0  0  0  0  0  0  0  0  0  0  0  0  # atno 17370 bound_to 10713
  156.7916  130.4892  149.5384 LP  0  0  0  0  0  0  0  0  0  0  0  0  # atno 17371 bound_to 10713
  141.2079  133.6669  156.6339 LP  0  0  0  0  0  0  0  0  0  0  0  0  # atno 17394 bound_to 11000
  140.3344  134.7901  157.4351 LP  0  0  0  0  0  0  0  0  0  0  0  0  # atno 17395 bound_to 11000

$$$$
