AV-unprocessed.smi:1498|AV-procd|sdf|6060|dock4
  -GOLD-   22720 6173D 1   1.00000     0.00000
 Structure written by MMmdl.
 37 38  0  0  0  0  0  0  0  0  1 V2000
  153.0849  142.7108  162.7733 C   0  0  0  0  0  0  0  0  0  0  0  0
  153.0836  143.2164  161.4083 N   0  0  0  0  0  0  0  0  0  0  0  0
  151.8716  144.0053  161.1753 C   0  0  0  0  0  0  0  0  0  0  0  0
  151.8552  144.5315  159.7262 C   0  0  0  0  0  0  0  0  0  0  0  0
  151.9060  143.3836  158.8069 N   0  0  0  0  0  0  0  0  0  0  0  0
  150.8821  142.9079  158.0549 C   0  0  0  0  0  0  0  0  0  0  0  0
  149.7040  143.1861  158.2834 O   0  0  0  0  0  0  0  0  0  0  0  0
  151.2615  142.0502  157.0886 N   0  0  0  0  0  0  0  0  0  0  0  0
  150.4439  141.4186  156.1174 C   0  0  0  0  0  0  0  0  0  0  0  0
  150.7847  140.2280  155.4247 C   0  0  0  0  0  0  0  0  0  0  0  0
  149.8310  139.8779  154.5753 N   0  0  0  0  0  0  0  0  0  0  0  0
  148.8762  140.8332  154.7032 N   0  0  0  0  0  0  0  0  0  0  0  0
  147.6678  140.7563  153.9001 C   0  0  0  0  0  0  0  0  0  0  0  0
  147.3587  139.3139  153.4894 C   0  0  0  0  0  0  0  0  0  0  0  0
  148.2054  138.7284  152.6386 N   0  0  0  0  0  0  0  0  0  0  0  0
  146.3703  138.7332  153.9338 O   0  0  0  0  0  0  0  0  0  0  0  0
  149.2177  141.7880  155.6418 C   0  0  0  0  0  0  0  0  0  0  0  0
  153.1434  142.6256  159.0206 C   0  0  0  0  0  0  0  0  0  0  0  0
  153.1607  142.0959  160.4679 C   0  0  0  0  0  0  0  0  0  0  0  0
  153.0520  143.5355  163.4862 H   0  0  0  0  0  0  0  0  0  0  0  0
  153.9930  142.1392  162.9682 H   0  0  0  0  0  0  0  0  0  0  0  0
  152.2266  142.0632  162.9587 H   0  0  0  0  0  0  0  0  0  0  0  0
  150.9846  143.3984  161.3646 H   0  0  0  0  0  0  0  0  0  0  0  0
  151.8439  144.8433  161.8726 H   0  0  0  0  0  0  0  0  0  0  0  0
  150.9845  145.1714  159.5866 H   0  0  0  0  0  0  0  0  0  0  0  0
  152.7200  145.1728  159.5488 H   0  0  0  0  0  0  0  0  0  0  0  0
  152.2494  141.8514  157.0273 H   0  0  0  0  0  0  0  0  0  0  0  0
  151.6723  139.6183  155.5078 H   0  0  0  0  0  0  0  0  0  0  0  0
  146.8254  141.1583  154.4652 H   0  0  0  0  0  0  0  0  0  0  0  0
  147.7967  141.3903  153.0216 H   0  0  0  0  0  0  0  0  0  0  0  0
  148.0448  137.7780  152.3381 H   0  0  0  0  0  0  0  0  0  0  0  0
  149.0062  139.2411  152.2984 H   0  0  0  0  0  0  0  0  0  0  0  0
  148.5706  142.6216  155.8711 H   0  0  0  0  0  0  0  0  0  0  0  0
  153.2533  141.7961  158.3209 H   0  0  0  0  0  0  0  0  0  0  0  0
  154.0023  143.2752  158.8447 H   0  0  0  0  0  0  0  0  0  0  0  0
  154.0792  141.5351  160.6446 H   0  0  0  0  0  0  0  0  0  0  0  0
  152.3273  141.4093  160.6273 H   0  0  0  0  0  0  0  0  0  0  0  0
  1  2  1  0  0  0  0
  1 20  1  0  0  0  0
  1 21  1  0  0  0  0
  1 22  1  0  0  0  0
  2 19  1  0  0  0  0
  2  3  1  0  0  0  0
  3  4  1  0  0  0  0
  3 23  1  0  0  0  0
  3 24  1  0  0  0  0
  4  5  1  0  0  0  0
  4 25  1  0  0  0  0
  4 26  1  0  0  0  0
  5  6  1  0  0  0  0
  5 18  1  0  0  0  0
  6  7  2  0  0  0  0
  6  8  1  0  0  0  0
  8  9  1  0  0  0  0
  8 27  1  0  0  0  0
  9 17  2  0  0  0  0
  9 10  1  0  0  0  0
 10 11  2  0  0  0  0
 10 28  1  0  0  0  0
 11 12  1  0  0  0  0
 12 13  1  0  0  0  0
 12 17  1  0  0  0  0
 13 14  1  0  0  0  0
 13 29  1  0  0  0  0
 13 30  1  0  0  0  0
 14 15  1  0  0  0  0
 14 16  2  0  0  0  0
 15 31  1  0  0  0  0
 15 32  1  0  0  0  0
 17 33  1  0  0  0  0
 18 19  1  0  0  0  0
 18 34  1  0  0  0  0
 18 35  1  0  0  0  0
 19 36  1  0  0  0  0
 19 37  1  0  0  0  0
M  END
> <s_m_source_file>
AV-unprocessed.smi

> <i_m_source_file_index>
1498

> <i_lp_mmshare_version>
43012

> <i_f3d_flags>
0

> <s_epik_input>
W0NIM11OMVtDSDJdW0NIMl1OKFtDSDJdW0NIMl0xKUMoPU8pW05IXWMyW2NIXW5uKFtjSF0yKVtDSDJdQyg9TylbTkgyXQ==

> <s_epik_cmdline>
J2VwaWtfcHl0aG9uJywgJy1waCcsICc3LjAnLCAnLXRuJywgJzgnLCAnLW1hJywgJzIwMCcsICctbWV0YWxfYmluZGluZycsICctaW1hZScsICc8aW5maWxlLm1hZT4nLCAnLW9tYWUnLCAnPG91dGZpbGUubWFlPic=

> <r_lp_tautomer_probability>
1

> <r_epik_Ionization_Penalty>
0.623411

> <r_epik_Ionization_Penalty_Charging>
0

> <r_epik_Ionization_Penalty_Neutral>
0.623411

> <r_epik_State_Penalty>
0.639577

> <r_epik_Charging_Adjusted_Penalty>
0.639577

> <i_epik_Tot_Q>
0

> <i_epik_Tot_abs_Q>
0

> <r_epik_Metal_State_Penalty>
0.639574

> <b_epik_Metal_Only>
0

> <s_lp_Force_Field>
OPLS_2005

> <r_lp_Energy>
44.4241

> <b_lp_Chiralities_Consistent>
1

> <s_lp_Variant>
AV-unprocessed.smi:1498-2

> <Gold.Version>
5.8.1

> <Gold.Id.Protein>
6NUR|6NUR_protein|mol2

> <Gold.PLP.Fitness>
46.9727

> <Gold.PLP.PLP>
-40.2973

> <Gold.PLP.part.hbond>
-1.8677

> <Gold.PLP.part.metal>
0.0000

> <Gold.PLP.part.buried>
-1.6955

> <Gold.PLP.part.nonpolar>
-36.5936

> <Gold.PLP.part.repulsive>
0.6486

> <Gold.PLP.ligand.clash>
0.0000

> <Gold.PLP.ligand.torsion>
0.7544

> <Gold.PLP.Chemscore.Hbond>
1.7120

> <Gold.PLP.Chemscore.CHOScore>
1.0000

> <Gold.PLP.Chemscore.Metal>
0.0000

> <Gold.Chemscore.Hbonds>
donor molecule, donor type, donor heavy atom, donor atom, acceptor molecule, acceptor atom, score
      L1  H    15    31       P1  7948  0.82
      L1  H    15    32       P1  7957  0.84
      L1  C    17    33       P1  8028  1.00

> <Gold.PLP.Chemscore.Internal.Correction>
0.0482

> <Gold.Rescore>
     Score         DG    S(hbond)    S(metal)    S(lipo)     H(rot)  DE(clash)    DE(int)     intcor
     14.89     -17.37       1.75        0.00      85.29       1.54       0.72       1.75       ----

> <Gold.Chemscore.Fitness>
14.8933

> <Gold.Chemscore.DG>
-17.3714

> <Gold.Chemscore.ZeroCoef>
-5.4800

> <Gold.Chemscore.Hbond>
1.7512

> <Gold.Chemscore.Metal>
0.0000

> <Gold.Chemscore.Lipo>
85.2910

> <Gold.Chemscore.Internal_Hbond>
0.0000

> <Gold.Chemscore.DEClash>
0.7238

> <Gold.Chemscore.DEInternal>
1.7543

> <Gold.Chemscore.Rot>
1.5377

> <Gold.Chemscore.Internal.Correction>
   9.000000E+99

> <Gold.Chemscore.Hbonds>
donor molecule, donor type, donor heavy atom, donor atom, acceptor molecule, acceptor atom, score
      L1  H    15    31       P1  7948  0.81
      L1  H    15    32       P1  7957  0.79

> <Gold.Chemscore.Hbond.Weighted>
-5.8489

> <Gold.Chemscore.Metal.Weighted>
-0.0000

> <Gold.Chemscore.Lipo.Weighted>
-9.9790

> <Gold.Chemscore.Internal_Hbond.Weighted>
0.0000

> <Gold.Chemscore.DEClash.Weighted>
0.7238

> <Gold.Chemscore.DEInternal.Weighted>
1.7543

> <Gold.Chemscore.Rot.Weighted>
3.9366

> <Gold.Chemscore.Internal.Correction.Weighted>
   9.000000E+99

> <Gold.Protein.RotatedTorsions>
[ 6907 6896 6895 6894 ] final -168.94 input  -60.11 | X-H torsion
[ 7974 7965 7964 7962 ] final  165.51 input  175.53 | X-H torsion
[ 8008 7997 7996 7995 ] final  169.83 input   59.86 | X-H torsion
[ 10167 10162 10161 10158 ] final -141.58 input  -65.29 | X-H torsion
[ 10718 10713 10712 10709 ] final   55.13 input   66.30 | X-H torsion
[ 10763 10752 10751 10750 ] final -129.06 input  -60.55 | X-H torsion
[ 11005 11000 10999 10996 ] final   85.91 input  -57.11 | X-H torsion

> <Gold.Protein.ActiveResidues>
 VAL166  LYS551  ARG553  GLY616  TRP617  ASP618  TYR619  PRO620  LYS621  CYS622 
 ASP623  PHE694  ASN695  SER759  ASP760  ASP761  ALA762  ILE779  LEU786  VAL792 
 PHE793  MET794  SER795  GLU796  ALA797  LYS798  CYS799  TRP800  GLU811  SER814 

> <Gold.Protein.RotatedAtoms>
  151.4836  133.3541  159.2841 H   0  0  0  0  0  0  0  0  0  0  0  0  # atno 6907 bound_to 6896
  150.8881  134.8283  159.7284 H   0  0  0  0  0  0  0  0  0  0  0  0  # atno 6908 bound_to 6896
  152.4806  134.4742  159.9697 H   0  0  0  0  0  0  0  0  0  0  0  0  # atno 6909 bound_to 6896
  144.7500  139.8481  143.6369 H   0  0  0  0  0  0  0  0  0  0  0  0  # atno 7974 bound_to 7965
  156.1422  140.1554  156.8903 H   0  0  0  0  0  0  0  0  0  0  0  0  # atno 8008 bound_to 7997
  154.4997  140.0828  156.7810 H   0  0  0  0  0  0  0  0  0  0  0  0  # atno 8009 bound_to 7997
  155.4058  140.3416  155.4262 H   0  0  0  0  0  0  0  0  0  0  0  0  # atno 8010 bound_to 7997
  139.8171  143.7624  152.2665 H   0  0  0  0  0  0  0  0  0  0  0  0  # atno 10167 bound_to 10162
  157.5318  130.8635  149.8697 H   0  0  0  0  0  0  0  0  0  0  0  0  # atno 10718 bound_to 10713
  154.8757  135.3908  154.3858 H   0  0  0  0  0  0  0  0  0  0  0  0  # atno 10763 bound_to 10752
  153.4600  135.7029  153.6061 H   0  0  0  0  0  0  0  0  0  0  0  0  # atno 10764 bound_to 10752
  153.4564  135.3822  155.2282 H   0  0  0  0  0  0  0  0  0  0  0  0  # atno 10765 bound_to 10752
  139.8958  134.8319  156.2648 H   0  0  0  0  0  0  0  0  0  0  0  0  # atno 11005 bound_to 11000
  146.1435  139.4498  143.0093 LP  0  0  0  0  0  0  0  0  0  0  0  0  # atno 17320 bound_to 7965
  145.6981  141.0144  143.1519 LP  0  0  0  0  0  0  0  0  0  0  0  0  # atno 17321 bound_to 7965
  139.7791  144.7450  151.0114 LP  0  0  0  0  0  0  0  0  0  0  0  0  # atno 17342 bound_to 10162
  140.7815  143.4561  151.0343 LP  0  0  0  0  0  0  0  0  0  0  0  0  # atno 17343 bound_to 10162
  156.0428  130.3735  150.1392 LP  0  0  0  0  0  0  0  0  0  0  0  0  # atno 17370 bound_to 10713
  156.9577  130.9795  151.3485 LP  0  0  0  0  0  0  0  0  0  0  0  0  # atno 17371 bound_to 10713
  141.0139  133.7080  156.1157 LP  0  0  0  0  0  0  0  0  0  0  0  0  # atno 17394 bound_to 11000
  140.7329  134.4235  157.5564 LP  0  0  0  0  0  0  0  0  0  0  0  0  # atno 17395 bound_to 11000

$$$$
