AV-unprocessed.smi:158|AV-procd|sdf|1323|dock3
  -GOLD-   2262019 13D 1   1.00000     0.00000
 Structure written by MMmdl.
 31 33  0  0  0  0  0  0  0  0  1 V2000
  149.7623  138.2245  153.3933 N   0  0  0  0  0  0  0  0  0  0  0  0
  149.8766  138.3133  154.7260 C   0  0  0  0  0  0  0  0  0  0  0  0
  149.6352  137.2081  155.4690 N   0  0  0  0  0  0  0  0  0  0  0  0
  149.7392  137.2552  156.8027 C   0  0  0  0  0  0  0  0  0  0  0  0
  149.4106  135.7917  157.6529 Cl  0  0  0  0  0  0  0  0  0  0  0  0
  150.0696  138.3111  157.5529 N   0  0  0  0  0  0  0  0  0  0  0  0
  150.3137  139.4282  156.8088 C   0  0  0  0  0  0  0  0  0  0  0  0
  150.2388  139.5094  155.3925 C   0  0  0  0  0  0  0  0  0  0  0  0
  150.5517  140.7954  154.9742 N   0  0  0  0  0  0  0  0  0  0  0  0
  150.7979  141.4351  156.0861 C   0  0  0  0  0  0  0  0  0  0  0  0
  150.6757  140.6895  157.2386 N   0  0  0  0  0  0  0  0  0  0  0  0
  150.8908  141.1500  158.6478 C   0  0  2  0  0  0  0  0  0  0  0  0
  150.8763  142.5456  158.6493 O   0  0  0  0  0  0  0  0  0  0  0  0
  151.9942  143.0468  159.3744 C   0  0  2  0  0  0  0  0  0  0  0  0
  152.3740  144.4357  158.8358 C   0  0  0  0  0  0  0  0  0  0  0  0
  151.3714  145.3800  159.1481 O   0  0  0  0  0  0  0  0  0  0  0  0
  153.0712  141.9721  159.1966 C   0  0  1  0  0  0  0  0  0  0  0  0
  153.9945  141.9778  160.2667 O   0  0  0  0  0  0  0  0  0  0  0  0
  152.2514  140.6943  159.2039 C   0  0  2  0  0  0  0  0  0  0  0  0
  152.8013  139.7313  158.4599 F   0  0  0  0  0  0  0  0  0  0  0  0
  150.0431  140.7471  159.2032 H   0  0  0  0  0  0  0  0  0  0  0  0
  151.6924  143.1114  160.4218 H   0  0  0  0  0  0  0  0  0  0  0  0
  153.5917  142.0919  158.2462 H   0  0  0  0  0  0  0  0  0  0  0  0
  152.1021  140.3112  160.2145 H   0  0  0  0  0  0  0  0  0  0  0  0
  149.9383  139.0369  152.8198 H   0  0  0  0  0  0  0  0  0  0  0  0
  149.5004  137.3481  152.9655 H   0  0  0  0  0  0  0  0  0  0  0  0
  151.0746  142.4795  156.0965 H   0  0  0  0  0  0  0  0  0  0  0  0
  153.3301  144.7679  159.2409 H   0  0  0  0  0  0  0  0  0  0  0  0
  152.4797  144.3985  157.7515 H   0  0  0  0  0  0  0  0  0  0  0  0
  150.6185  144.9178  159.4840 H   0  0  0  0  0  0  0  0  0  0  0  0
  154.6619  142.6208  160.0794 H   0  0  0  0  0  0  0  0  0  0  0  0
  1  2  1  0  0  0  0
  1 25  1  0  0  0  0
  1 26  1  0  0  0  0
  2  8  1  0  0  0  0
  2  3  2  0  0  0  0
  3  4  1  0  0  0  0
  4  5  1  0  0  0  0
  4  6  2  0  0  0  0
  6  7  1  0  0  0  0
  7 11  1  0  0  0  0
  7  8  2  0  0  0  0
  8  9  1  0  0  0  0
  9 10  2  0  0  0  0
 10 11  1  0  0  0  0
 10 27  1  0  0  0  0
 11 12  1  0  0  0  0
 12 21  1  0  0  0  0
 12 19  1  0  0  0  0
 12 13  1  0  0  0  0
 13 14  1  0  0  0  0
 14 22  1  0  0  0  0
 14 15  1  0  0  0  0
 14 17  1  0  0  0  0
 15 16  1  0  0  0  0
 15 28  1  0  0  0  0
 15 29  1  0  0  0  0
 16 30  1  0  0  0  0
 17 23  1  0  0  0  0
 17 18  1  0  0  0  0
 17 19  1  0  0  0  0
 18 31  1  0  0  0  0
 19 24  1  0  0  0  0
 19 20  1  0  0  0  0
M  END
> <s_m_source_file>
AV-unprocessed.smi

> <i_m_source_file_index>
158

> <i_lp_mmshare_version>
43012

> <i_f3d_flags>
0

> <s_epik_input>
Q2xjKG4xKW5jKFtOSDJdKWMoYzEyKW5bY0hdbjJbQ0BASF0zT1tDQEhdKFtDSDJdW09IXSlbQ0BASF0oW09IXSlbQ0BASF0zRg==

> <s_epik_cmdline>
J2VwaWtfcHl0aG9uJywgJy1waCcsICc3LjAnLCAnLXRuJywgJzgnLCAnLW1hJywgJzIwMCcsICctbWV0YWxfYmluZGluZycsICctaW1hZScsICc8aW5maWxlLm1hZT4nLCAnLW9tYWUnLCAnPG91dGZpbGUubWFlPic=

> <r_lp_tautomer_probability>
1

> <r_epik_Ionization_Penalty>
6.51543e-05

> <r_epik_Ionization_Penalty_Charging>
0

> <r_epik_Ionization_Penalty_Neutral>
6.51543e-05

> <r_epik_State_Penalty>
-0

> <r_epik_Charging_Adjusted_Penalty>
0

> <i_epik_Tot_Q>
0

> <i_epik_Tot_abs_Q>
0

> <r_epik_Metal_State_Penalty>
-0

> <b_epik_Metal_Only>
0

> <s_epik_Chemistry_Notes>
This compound contains an acetal/aminal-like group ( X-CH(R)-Y where X, Y are N, S, or O) that may be acid/base labile, releasing an aldehyde.

> <s_lp_Force_Field>
OPLS_2005

> <r_lp_Energy>
34.2201

> <b_lp_Chiralities_Consistent>
1

> <s_lp_Variant>
AV-unprocessed.smi:158-1

> <Gold.Version>
5.8.1

> <Gold.Id.Protein>
6NUR|6NUR_protein|mol2

> <Gold.PLP.Fitness>
38.2437

> <Gold.PLP.PLP>
-30.6457

> <Gold.PLP.part.hbond>
-3.6851

> <Gold.PLP.part.metal>
0.0000

> <Gold.PLP.part.buried>
-4.7419

> <Gold.PLP.part.nonpolar>
-22.9722

> <Gold.PLP.part.repulsive>
0.3120

> <Gold.PLP.ligand.clash>
0.0000

> <Gold.PLP.ligand.torsion>
0.4763

> <Gold.PLP.Chemscore.Hbond>
2.8400

> <Gold.PLP.Chemscore.CHOScore>
0.0000

> <Gold.PLP.Chemscore.Metal>
0.0000

> <Gold.Chemscore.Hbonds>
donor molecule, donor type, donor heavy atom, donor atom, acceptor molecule, acceptor atom, score
      L1  H     1    25       P1  7957  0.98
      L1  H     1    26       P1  7948  1.00
      P1  H  7989  7998       L1     9  0.85

> <Gold.PLP.Chemscore.Internal.Correction>
0.0306

> <Gold.Rescore>
     Score         DG    S(hbond)    S(metal)    S(lipo)     H(rot)  DE(clash)    DE(int)     intcor
     11.53     -12.39       2.70        0.00      50.19       3.12       0.18       0.69       ----

> <Gold.Chemscore.Fitness>
11.5284

> <Gold.Chemscore.DG>
-12.3895

> <Gold.Chemscore.ZeroCoef>
-5.4800

> <Gold.Chemscore.Hbond>
2.7043

> <Gold.Chemscore.Metal>
0.0000

> <Gold.Chemscore.Lipo>
50.1892

> <Gold.Chemscore.Internal_Hbond>
0.0000

> <Gold.Chemscore.DEClash>
0.1760

> <Gold.Chemscore.DEInternal>
0.6851

> <Gold.Chemscore.Rot>
3.1230

> <Gold.Chemscore.Internal.Correction>
   9.000000E+99

> <Gold.Chemscore.Hbonds>
donor molecule, donor type, donor heavy atom, donor atom, acceptor molecule, acceptor atom, score
      L1  H     1    25       P1  7957  0.79
      L1  H     1    26       P1  7948  0.81
      P1  H  7989  7998       L1     9  0.75

> <Gold.Chemscore.Hbond.Weighted>
-9.0324

> <Gold.Chemscore.Metal.Weighted>
-0.0000

> <Gold.Chemscore.Lipo.Weighted>
-5.8721

> <Gold.Chemscore.Internal_Hbond.Weighted>
0.0000

> <Gold.Chemscore.DEClash.Weighted>
0.1760

> <Gold.Chemscore.DEInternal.Weighted>
0.6851

> <Gold.Chemscore.Rot.Weighted>
7.9950

> <Gold.Chemscore.Internal.Correction.Weighted>
   9.000000E+99

> <Gold.Protein.RotatedTorsions>
[ 6907 6896 6895 6894 ] final -142.08 input  -60.11 | X-H torsion
[ 7974 7965 7964 7962 ] final  169.72 input  175.53 | X-H torsion
[ 8008 7997 7996 7995 ] final  146.07 input   59.86 | X-H torsion
[ 10167 10162 10161 10158 ] final   -0.84 input  -65.29 | X-H torsion
[ 10718 10713 10712 10709 ] final -122.15 input   66.30 | X-H torsion
[ 10763 10752 10751 10750 ] final  -69.36 input  -60.55 | X-H torsion
[ 11005 11000 10999 10996 ] final -161.86 input  -57.11 | X-H torsion

> <Gold.Protein.ActiveResidues>
 VAL166  LYS551  ARG553  GLY616  TRP617  ASP618  TYR619  PRO620  LYS621  CYS622 
 ASP623  PHE694  ASN695  SER759  ASP760  ASP761  ALA762  ILE779  LEU786  VAL792 
 PHE793  MET794  SER795  GLU796  ALA797  LYS798  CYS799  TRP800  GLU811  SER814 

> <Gold.Protein.RotatedAtoms>
  151.0823  133.5380  159.2619 H   0  0  0  0  0  0  0  0  0  0  0  0  # atno 6907 bound_to 6896
  151.2279  135.0542  159.8986 H   0  0  0  0  0  0  0  0  0  0  0  0  # atno 6908 bound_to 6896
  152.5425  134.0616  159.8208 H   0  0  0  0  0  0  0  0  0  0  0  0  # atno 6909 bound_to 6896
  144.7346  139.9096  143.6414 H   0  0  0  0  0  0  0  0  0  0  0  0  # atno 7974 bound_to 7965
  156.2866  140.2192  156.5317 H   0  0  0  0  0  0  0  0  0  0  0  0  # atno 8008 bound_to 7997
  154.7444  140.0485  157.0861 H   0  0  0  0  0  0  0  0  0  0  0  0  # atno 8009 bound_to 7997
  155.0190  140.3122  155.4804 H   0  0  0  0  0  0  0  0  0  0  0  0  # atno 8010 bound_to 7997
  140.6785  143.6846  150.8077 H   0  0  0  0  0  0  0  0  0  0  0  0  # atno 10167 bound_to 10162
  156.1395  130.6455  150.9749 H   0  0  0  0  0  0  0  0  0  0  0  0  # atno 10718 bound_to 10713
  154.4023  135.6028  153.5904 H   0  0  0  0  0  0  0  0  0  0  0  0  # atno 10763 bound_to 10752
  152.9788  135.5909  154.4169 H   0  0  0  0  0  0  0  0  0  0  0  0  # atno 10764 bound_to 10752
  154.3970  135.2842  155.2098 H   0  0  0  0  0  0  0  0  0  0  0  0  # atno 10765 bound_to 10752
  140.6157  134.4803  157.5219 H   0  0  0  0  0  0  0  0  0  0  0  0  # atno 11005 bound_to 11000
  146.1011  139.4006  143.0346 LP  0  0  0  0  0  0  0  0  0  0  0  0  # atno 17320 bound_to 7965
  145.7578  140.9947  143.1216 LP  0  0  0  0  0  0  0  0  0  0  0  0  # atno 17321 bound_to 7965
  140.0543  143.5218  152.2658 LP  0  0  0  0  0  0  0  0  0  0  0  0  # atno 17342 bound_to 10162
  139.6091  144.7604  151.2992 LP  0  0  0  0  0  0  0  0  0  0  0  0  # atno 17343 bound_to 10162
  157.6563  131.0889  150.7940 LP  0  0  0  0  0  0  0  0  0  0  0  0  # atno 17370 bound_to 10713
  156.8017  130.4923  149.5369 LP  0  0  0  0  0  0  0  0  0  0  0  0  # atno 17371 bound_to 10713
  139.9174  134.8219  156.1322 LP  0  0  0  0  0  0  0  0  0  0  0  0  # atno 17394 bound_to 11000
  141.0777  133.6768  156.2271 LP  0  0  0  0  0  0  0  0  0  0  0  0  # atno 17395 bound_to 11000

$$$$
