AV-unprocessed.smi:1498|AV-procd|sdf|6060|dock3
  -GOLD-   22720 6173D 1   1.00000     0.00000
 Structure written by MMmdl.
 37 38  0  0  0  0  0  0  0  0  1 V2000
  150.4561  141.6007  155.8529 C   0  0  0  0  0  0  0  0  0  0  0  0
  150.9540  140.5031  155.0367 N   0  0  0  0  0  0  0  0  0  0  0  0
  149.8353  139.6612  154.6063 C   0  0  0  0  0  0  0  0  0  0  0  0
  150.3565  138.4870  153.7538 C   0  0  0  0  0  0  0  0  0  0  0  0
  151.3080  137.7052  154.5593 N   0  0  0  0  0  0  0  0  0  0  0  0
  151.0877  136.4826  155.1044 C   0  0  0  0  0  0  0  0  0  0  0  0
  151.7988  136.0133  155.9940 O   0  0  0  0  0  0  0  0  0  0  0  0
  150.0737  135.8020  154.5369 N   0  0  0  0  0  0  0  0  0  0  0  0
  149.5703  134.5279  154.9029 C   0  0  0  0  0  0  0  0  0  0  0  0
  149.8621  133.8634  156.1223 C   0  0  0  0  0  0  0  0  0  0  0  0
  149.2564  132.6875  156.1842 N   0  0  0  0  0  0  0  0  0  0  0  0
  148.5792  132.5771  155.0138 N   0  0  0  0  0  0  0  0  0  0  0  0
  147.7924  131.3853  154.7462 C   0  0  0  0  0  0  0  0  0  0  0  0
  148.2420  130.6952  153.4553 C   0  0  0  0  0  0  0  0  0  0  0  0
  148.1224  131.3891  152.3206 N   0  0  0  0  0  0  0  0  0  0  0  0
  148.6928  129.5516  153.4796 O   0  0  0  0  0  0  0  0  0  0  0  0
  148.7461  133.6879  154.2092 C   0  0  0  0  0  0  0  0  0  0  0  0
  152.4440  138.5472  154.9489 C   0  0  0  0  0  0  0  0  0  0  0  0
  151.9258  139.7202  155.8039 C   0  0  0  0  0  0  0  0  0  0  0  0
  149.7485  142.2075  155.2867 H   0  0  0  0  0  0  0  0  0  0  0  0
  151.2763  142.2492  156.1628 H   0  0  0  0  0  0  0  0  0  0  0  0
  149.9527  141.2340  156.7489 H   0  0  0  0  0  0  0  0  0  0  0  0
  149.2921  139.2833  155.4740 H   0  0  0  0  0  0  0  0  0  0  0  0
  149.1345  140.2588  154.0222 H   0  0  0  0  0  0  0  0  0  0  0  0
  149.5103  137.9085  153.3843 H   0  0  0  0  0  0  0  0  0  0  0  0
  150.8631  138.8636  152.8638 H   0  0  0  0  0  0  0  0  0  0  0  0
  149.5939  136.2620  153.7770 H   0  0  0  0  0  0  0  0  0  0  0  0
  150.4790  134.1875  156.9474 H   0  0  0  0  0  0  0  0  0  0  0  0
  147.8878  130.6876  155.5797 H   0  0  0  0  0  0  0  0  0  0  0  0
  146.7414  131.6722  154.6866 H   0  0  0  0  0  0  0  0  0  0  0  0
  148.4056  130.9775  151.4432 H   0  0  0  0  0  0  0  0  0  0  0  0
  147.7479  132.3266  152.3452 H   0  0  0  0  0  0  0  0  0  0  0  0
  148.2758  133.7681  153.2404 H   0  0  0  0  0  0  0  0  0  0  0  0
  153.2059  137.9947  155.5004 H   0  0  0  0  0  0  0  0  0  0  0  0
  152.9422  138.9221  154.0535 H   0  0  0  0  0  0  0  0  0  0  0  0
  152.7592  140.3602  156.0960 H   0  0  0  0  0  0  0  0  0  0  0  0
  151.4699  139.3444  156.7216 H   0  0  0  0  0  0  0  0  0  0  0  0
  1  2  1  0  0  0  0
  1 20  1  0  0  0  0
  1 21  1  0  0  0  0
  1 22  1  0  0  0  0
  2 19  1  0  0  0  0
  2  3  1  0  0  0  0
  3  4  1  0  0  0  0
  3 23  1  0  0  0  0
  3 24  1  0  0  0  0
  4  5  1  0  0  0  0
  4 25  1  0  0  0  0
  4 26  1  0  0  0  0
  5  6  1  0  0  0  0
  5 18  1  0  0  0  0
  6  7  2  0  0  0  0
  6  8  1  0  0  0  0
  8  9  1  0  0  0  0
  8 27  1  0  0  0  0
  9 17  2  0  0  0  0
  9 10  1  0  0  0  0
 10 11  2  0  0  0  0
 10 28  1  0  0  0  0
 11 12  1  0  0  0  0
 12 13  1  0  0  0  0
 12 17  1  0  0  0  0
 13 14  1  0  0  0  0
 13 29  1  0  0  0  0
 13 30  1  0  0  0  0
 14 15  1  0  0  0  0
 14 16  2  0  0  0  0
 15 31  1  0  0  0  0
 15 32  1  0  0  0  0
 17 33  1  0  0  0  0
 18 19  1  0  0  0  0
 18 34  1  0  0  0  0
 18 35  1  0  0  0  0
 19 36  1  0  0  0  0
 19 37  1  0  0  0  0
M  END
> <s_m_source_file>
AV-unprocessed.smi

> <i_m_source_file_index>
1498

> <i_lp_mmshare_version>
43012

> <i_f3d_flags>
0

> <s_epik_input>
W0NIM11OMVtDSDJdW0NIMl1OKFtDSDJdW0NIMl0xKUMoPU8pW05IXWMyW2NIXW5uKFtjSF0yKVtDSDJdQyg9TylbTkgyXQ==

> <s_epik_cmdline>
J2VwaWtfcHl0aG9uJywgJy1waCcsICc3LjAnLCAnLXRuJywgJzgnLCAnLW1hJywgJzIwMCcsICctbWV0YWxfYmluZGluZycsICctaW1hZScsICc8aW5maWxlLm1hZT4nLCAnLW9tYWUnLCAnPG91dGZpbGUubWFlPic=

> <r_lp_tautomer_probability>
1

> <r_epik_Ionization_Penalty>
0.623411

> <r_epik_Ionization_Penalty_Charging>
0

> <r_epik_Ionization_Penalty_Neutral>
0.623411

> <r_epik_State_Penalty>
0.639577

> <r_epik_Charging_Adjusted_Penalty>
0.639577

> <i_epik_Tot_Q>
0

> <i_epik_Tot_abs_Q>
0

> <r_epik_Metal_State_Penalty>
0.639574

> <b_epik_Metal_Only>
0

> <s_lp_Force_Field>
OPLS_2005

> <r_lp_Energy>
44.4241

> <b_lp_Chiralities_Consistent>
1

> <s_lp_Variant>
AV-unprocessed.smi:1498-2

> <Gold.Version>
5.8.1

> <Gold.Id.Protein>
6NUR|6NUR_protein|mol2

> <Gold.PLP.Fitness>
42.9446

> <Gold.PLP.PLP>
-31.2436

> <Gold.PLP.part.hbond>
-4.0212

> <Gold.PLP.part.metal>
0.0000

> <Gold.PLP.part.buried>
-2.0391

> <Gold.PLP.part.nonpolar>
-25.5985

> <Gold.PLP.part.repulsive>
0.2668

> <Gold.PLP.ligand.clash>
0.0000

> <Gold.PLP.ligand.torsion>
0.1353

> <Gold.PLP.Chemscore.Hbond>
3.8080

> <Gold.PLP.Chemscore.CHOScore>
0.1665

> <Gold.PLP.Chemscore.Metal>
0.0000

> <Gold.Chemscore.Hbonds>
donor molecule, donor type, donor heavy atom, donor atom, acceptor molecule, acceptor atom, score
      L1  H     8    27       P1  7948  0.96
      L1  H    15    31       P1 10747  0.41
      P1  H  7989  7998       L1     2  1.00
      P1  H 10752 10764       L1     7  0.90
      L1  C    17    33       P1  7948  0.11

> <Gold.PLP.Chemscore.Internal.Correction>
0.0482

> <Gold.Rescore>
     Score         DG    S(hbond)    S(metal)    S(lipo)     H(rot)  DE(clash)    DE(int)     intcor
     15.33     -16.96       2.64        0.00      56.45       1.54       0.19       1.43       ----

> <Gold.Chemscore.Fitness>
15.3348

> <Gold.Chemscore.DG>
-16.9582

> <Gold.Chemscore.ZeroCoef>
-5.4800

> <Gold.Chemscore.Hbond>
2.6376

> <Gold.Chemscore.Metal>
0.0000

> <Gold.Chemscore.Lipo>
56.4547

> <Gold.Chemscore.Internal_Hbond>
0.0000

> <Gold.Chemscore.DEClash>
0.1939

> <Gold.Chemscore.DEInternal>
1.4294

> <Gold.Chemscore.Rot>
1.5377

> <Gold.Chemscore.Internal.Correction>
   9.000000E+99

> <Gold.Chemscore.Hbonds>
donor molecule, donor type, donor heavy atom, donor atom, acceptor molecule, acceptor atom, score
      L1  H     8    27       P1  7948  0.50
      L1  H    15    31       P1 10747  0.41
      P1  H  7989  7998       L1     2  0.16
      P1  H 10752 10764       L1     7  0.18

> <Gold.Chemscore.Hbond.Weighted>
-8.8095

> <Gold.Chemscore.Metal.Weighted>
-0.0000

> <Gold.Chemscore.Lipo.Weighted>
-6.6052

> <Gold.Chemscore.Internal_Hbond.Weighted>
0.0000

> <Gold.Chemscore.DEClash.Weighted>
0.1939

> <Gold.Chemscore.DEInternal.Weighted>
1.4294

> <Gold.Chemscore.Rot.Weighted>
3.9366

> <Gold.Chemscore.Internal.Correction.Weighted>
   9.000000E+99

> <Gold.Protein.RotatedTorsions>
[ 6907 6896 6895 6894 ] final  -19.39 input  -60.11 | X-H torsion
[ 7974 7965 7964 7962 ] final  -30.44 input  175.53 | X-H torsion
[ 8008 7997 7996 7995 ] final    7.00 input   59.86 | X-H torsion
[ 10167 10162 10161 10158 ] final  155.05 input  -65.29 | X-H torsion
[ 10718 10713 10712 10709 ] final -143.31 input   66.30 | X-H torsion
[ 10763 10752 10751 10750 ] final  -33.06 input  -60.55 | X-H torsion
[ 11005 11000 10999 10996 ] final  -22.95 input  -57.11 | X-H torsion

> <Gold.Protein.ActiveResidues>
 VAL166  LYS551  ARG553  GLY616  TRP617  ASP618  TYR619  PRO620  LYS621  CYS622 
 ASP623  PHE694  ASN695  SER759  ASP760  ASP761  ALA762  ILE779  LEU786  VAL792 
 PHE793  MET794  SER795  GLU796  ALA797  LYS798  CYS799  TRP800  GLU811  SER814 

> <Gold.Protein.RotatedAtoms>
  151.2639  135.0663  159.9108 H   0  0  0  0  0  0  0  0  0  0  0  0  # atno 6907 bound_to 6896
  152.5361  134.0202  159.7988 H   0  0  0  0  0  0  0  0  0  0  0  0  # atno 6908 bound_to 6896
  151.0429  133.5640  159.2680 H   0  0  0  0  0  0  0  0  0  0  0  0  # atno 6909 bound_to 6896
  146.1143  140.5540  142.8764 H   0  0  0  0  0  0  0  0  0  0  0  0  # atno 7974 bound_to 7965
  154.7482  140.2762  155.6315 H   0  0  0  0  0  0  0  0  0  0  0  0  # atno 8008 bound_to 7997
  156.2889  140.2684  156.2154 H   0  0  0  0  0  0  0  0  0  0  0  0  # atno 8009 bound_to 7997
  155.0171  140.0372  157.2412 H   0  0  0  0  0  0  0  0  0  0  0  0  # atno 8010 bound_to 7997
  139.4822  144.5133  151.7991 H   0  0  0  0  0  0  0  0  0  0  0  0  # atno 10167 bound_to 10162
  156.3564  130.7715  151.1876 H   0  0  0  0  0  0  0  0  0  0  0  0  # atno 10718 bound_to 10713
  153.8240  135.6872  153.4823 H   0  0  0  0  0  0  0  0  0  0  0  0  # atno 10763 bound_to 10752
  153.1551  135.4602  154.9691 H   0  0  0  0  0  0  0  0  0  0  0  0  # atno 10764 bound_to 10752
  154.7915  135.3303  154.7710 H   0  0  0  0  0  0  0  0  0  0  0  0  # atno 10765 bound_to 10752
  140.8705  133.7724  156.0181 H   0  0  0  0  0  0  0  0  0  0  0  0  # atno 11005 bound_to 11000
  144.7539  140.5258  143.6783 LP  0  0  0  0  0  0  0  0  0  0  0  0  # atno 17320 bound_to 7965
  145.5600  139.1479  143.3347 LP  0  0  0  0  0  0  0  0  0  0  0  0  # atno 17321 bound_to 7965
  140.4639  144.1683  150.5909 LP  0  0  0  0  0  0  0  0  0  0  0  0  # atno 17342 bound_to 10162
  140.4455  143.2508  151.9416 LP  0  0  0  0  0  0  0  0  0  0  0  0  # atno 17343 bound_to 10162
  157.7468  131.0412  150.4637 LP  0  0  0  0  0  0  0  0  0  0  0  0  # atno 17370 bound_to 10713
  156.4841  130.4080  149.6444 LP  0  0  0  0  0  0  0  0  0  0  0  0  # atno 17371 bound_to 10713
  140.8578  134.2876  157.5247 LP  0  0  0  0  0  0  0  0  0  0  0  0  # atno 17394 bound_to 11000
  139.8712  134.9502  156.4049 LP  0  0  0  0  0  0  0  0  0  0  0  0  # atno 17395 bound_to 11000

$$$$
