AV-unprocessed.smi:107|AV-procd|sdf|1020|dock10
  -GOLD-   2262018 23D 1   1.00000     0.00000
 Structure written by MMmdl.
 31 32  0  0  0  0  0  0  0  0  1 V2000
  149.1781  141.6621  154.7731 C   0  0  0  0  0  0  0  0  0  0  0  0
  150.2482  141.3750  155.8137 C   0  0  0  0  0  0  0  0  0  0  0  0
  150.4685  142.1918  156.8760 C   0  0  0  0  0  0  0  0  0  0  0  0
  151.4425  141.9573  157.8406 N   0  0  0  0  0  0  0  0  0  0  0  0
  151.6658  142.8774  159.0269 C   0  0  1  0  0  0  0  0  0  0  0  0
  152.1134  144.2769  158.5613 C   0  0  0  0  0  0  0  0  0  0  0  0
  151.0929  145.2036  159.2003 C   0  0  2  0  0  0  0  0  0  0  0  0
  151.5722  145.6975  160.4376 O   0  0  0  0  0  0  0  0  0  0  0  0
  149.8747  144.2916  159.3789 C   0  0  2  0  0  0  0  0  0  0  0  0
  148.8541  144.7420  160.4378 C   0  0  0  0  0  0  0  0  0  0  0  0
  148.2090  145.9236  160.0129 O   0  0  0  0  0  0  0  0  0  0  0  0
  150.4725  143.0493  159.7334 O   0  0  0  0  0  0  0  0  0  0  0  0
  152.2389  140.7972  157.7434 C   0  0  0  0  0  0  0  0  0  0  0  0
  153.1029  140.5124  158.5720 O   0  0  0  0  0  0  0  0  0  0  0  0
  152.0154  139.9609  156.6519 N   0  0  0  0  0  0  0  0  0  0  0  0
  151.0623  140.1674  155.6523 C   0  0  0  0  0  0  0  0  0  0  0  0
  150.9609  139.3567  154.7330 O   0  0  0  0  0  0  0  0  0  0  0  0
  152.5893  139.1336  156.5783 H   0  0  0  0  0  0  0  0  0  0  0  0
  148.6104  142.5616  155.0132 H   0  0  0  0  0  0  0  0  0  0  0  0
  148.4746  140.8314  154.7090 H   0  0  0  0  0  0  0  0  0  0  0  0
  149.6314  141.8042  153.7917 H   0  0  0  0  0  0  0  0  0  0  0  0
  149.8402  143.0652  156.9591 H   0  0  0  0  0  0  0  0  0  0  0  0
  152.3911  142.3651  159.6618 H   0  0  0  0  0  0  0  0  0  0  0  0
  153.1418  144.4806  158.8624 H   0  0  0  0  0  0  0  0  0  0  0  0
  152.0513  144.3469  157.4742 H   0  0  0  0  0  0  0  0  0  0  0  0
  150.8655  146.0552  158.5582 H   0  0  0  0  0  0  0  0  0  0  0  0
  152.4622  145.9927  160.3208 H   0  0  0  0  0  0  0  0  0  0  0  0
  149.3858  144.1905  158.4081 H   0  0  0  0  0  0  0  0  0  0  0  0
  148.1197  143.9622  160.6414 H   0  0  0  0  0  0  0  0  0  0  0  0
  149.3614  144.9672  161.3764 H   0  0  0  0  0  0  0  0  0  0  0  0
  148.0798  145.8763  159.0779 H   0  0  0  0  0  0  0  0  0  0  0  0
  1  2  1  0  0  0  0
  1 19  1  0  0  0  0
  1 20  1  0  0  0  0
  1 21  1  0  0  0  0
  2 16  1  0  0  0  0
  2  3  2  0  0  0  0
  3  4  1  0  0  0  0
  3 22  1  0  0  0  0
  4  5  1  0  0  0  0
  4 13  1  0  0  0  0
  5 12  1  0  0  0  0
  5  6  1  0  0  0  0
  5 23  1  0  0  0  0
  6  7  1  0  0  0  0
  6 24  1  0  0  0  0
  6 25  1  0  0  0  0
  7  8  1  0  0  0  0
  7  9  1  0  0  0  0
  7 26  1  0  0  0  0
  8 27  1  0  0  0  0
  9 10  1  0  0  0  0
  9 12  1  0  0  0  0
  9 28  1  0  0  0  0
 10 11  1  0  0  0  0
 10 29  1  0  0  0  0
 10 30  1  0  0  0  0
 11 31  1  0  0  0  0
 13 14  2  0  0  0  0
 13 15  1  0  0  0  0
 15 18  1  0  0  0  0
 15 16  1  0  0  0  0
 16 17  2  0  0  0  0
M  END
> <s_m_source_file>
AV-unprocessed.smi

> <i_m_source_file_index>
107

> <i_lp_mmshare_version>
43012

> <i_f3d_flags>
0

> <s_epik_input>
Tz1jMVtuSF1jKD1PKW4oW2NIXWMxW0NIM10pW0NAQEhdMltDSDJdW0NAQEhdKFtPSF0pW0NASF0oTzIpW0NIMl1bT0hd

> <s_epik_cmdline>
J2VwaWtfcHl0aG9uJywgJy1waCcsICc3LjAnLCAnLXRuJywgJzgnLCAnLW1hJywgJzIwMCcsICctbWV0YWxfYmluZGluZycsICctaW1hZScsICc8aW5maWxlLm1hZT4nLCAnLW9tYWUnLCAnPG91dGZpbGUubWFlPic=

> <r_lp_tautomer_probability>
0.999537

> <r_epik_Ionization_Penalty>
0.00121888

> <r_epik_Ionization_Penalty_Charging>
0.00121876

> <r_epik_Ionization_Penalty_Neutral>
1.19946e-07

> <r_epik_State_Penalty>
0.000805124

> <r_epik_Charging_Adjusted_Penalty>
0.00202389

> <i_epik_Tot_Q>
0

> <i_epik_Tot_abs_Q>
0

> <r_epik_Metal_State_Penalty>
0.662472

> <b_epik_Metal_Only>
0

> <s_epik_Chemistry_Notes>
This compound contains an acetal/aminal-like group ( X-CH(R)-Y where X, Y are N, S, or O) that may be acid/base labile, releasing an aldehyde.

> <s_lp_Force_Field>
OPLS_2005

> <r_lp_Energy>
28.0991

> <b_lp_Chiralities_Consistent>
1

> <s_lp_Variant>
AV-unprocessed.smi:107-8

> <Gold.Version>
5.8.1

> <Gold.Id.Protein>
6NUR|6NUR_protein|mol2

> <Gold.PLP.Fitness>
44.4645

> <Gold.PLP.PLP>
-36.1650

> <Gold.PLP.part.hbond>
-5.7578

> <Gold.PLP.part.metal>
0.0000

> <Gold.PLP.part.buried>
-3.2806

> <Gold.PLP.part.nonpolar>
-26.5170

> <Gold.PLP.part.repulsive>
0.2788

> <Gold.PLP.ligand.clash>
0.0000

> <Gold.PLP.ligand.torsion>
0.0455

> <Gold.PLP.Chemscore.Hbond>
1.7931

> <Gold.PLP.Chemscore.CHOScore>
1.0000

> <Gold.PLP.Chemscore.Metal>
0.0000

> <Gold.Chemscore.Hbonds>
donor molecule, donor type, donor heavy atom, donor atom, acceptor molecule, acceptor atom, score
      L1  H    11    31       P1  8029  1.00
      P1  H  7989  7998       L1    17  0.32
      P1  H  7997  8008       L1    14  0.38
      L1  C     3    22       P1  8028  1.00

> <Gold.PLP.Chemscore.Internal.Correction>
0.0111

> <Gold.Rescore>
     Score         DG    S(hbond)    S(metal)    S(lipo)     H(rot)  DE(clash)    DE(int)     intcor
     10.20     -10.66       1.63        0.00      57.40       2.73       0.36       0.10       ----

> <Gold.Chemscore.Fitness>
10.2006

> <Gold.Chemscore.DG>
-10.6580

> <Gold.Chemscore.ZeroCoef>
-5.4800

> <Gold.Chemscore.Hbond>
1.6286

> <Gold.Chemscore.Metal>
0.0000

> <Gold.Chemscore.Lipo>
57.3973

> <Gold.Chemscore.Internal_Hbond>
0.0000

> <Gold.Chemscore.DEClash>
0.3619

> <Gold.Chemscore.DEInternal>
0.0956

> <Gold.Chemscore.Rot>
2.7253

> <Gold.Chemscore.Internal.Correction>
   9.000000E+99

> <Gold.Chemscore.Hbonds>
donor molecule, donor type, donor heavy atom, donor atom, acceptor molecule, acceptor atom, score
      L1  H    11    31       P1  8029  1.00
      P1  H  7989  7998       L1    17  0.01
      P1  H  7997  8008       L1    14  0.08

> <Gold.Chemscore.Hbond.Weighted>
-5.4394

> <Gold.Chemscore.Metal.Weighted>
-0.0000

> <Gold.Chemscore.Lipo.Weighted>
-6.7155

> <Gold.Chemscore.Internal_Hbond.Weighted>
0.0000

> <Gold.Chemscore.DEClash.Weighted>
0.3619

> <Gold.Chemscore.DEInternal.Weighted>
0.0956

> <Gold.Chemscore.Rot.Weighted>
6.9769

> <Gold.Chemscore.Internal.Correction.Weighted>
   9.000000E+99

> <Gold.Protein.RotatedTorsions>
[ 6907 6896 6895 6894 ] final  121.62 input  -60.11 | X-H torsion
[ 7974 7965 7964 7962 ] final   84.50 input  175.53 | X-H torsion
[ 8008 7997 7996 7995 ] final  -97.92 input   59.86 | X-H torsion
[ 10167 10162 10161 10158 ] final -134.54 input  -65.29 | X-H torsion
[ 10718 10713 10712 10709 ] final  170.48 input   66.30 | X-H torsion
[ 10763 10752 10751 10750 ] final   59.12 input  -60.55 | X-H torsion
[ 11005 11000 10999 10996 ] final  -72.90 input  -57.11 | X-H torsion

> <Gold.Protein.ActiveResidues>
 VAL166  LYS551  ARG553  GLY616  TRP617  ASP618  TYR619  PRO620  LYS621  CYS622 
 ASP623  PHE694  ASN695  SER759  ASP760  ASP761  ALA762  ILE779  LEU786  VAL792 
 PHE793  MET794  SER795  GLU796  ALA797  LYS798  CYS799  TRP800  GLU811  SER814 

> <Gold.Protein.RotatedAtoms>
  152.4307  133.7273  159.6567 H   0  0  0  0  0  0  0  0  0  0  0  0  # atno 6907 bound_to 6896
  150.8186  133.8281  159.3155 H   0  0  0  0  0  0  0  0  0  0  0  0  # atno 6908 bound_to 6896
  151.5970  135.1052  160.0103 H   0  0  0  0  0  0  0  0  0  0  0  0  # atno 6909 bound_to 6896
  145.5980  139.2348  143.2262 H   0  0  0  0  0  0  0  0  0  0  0  0  # atno 7974 bound_to 7965
  154.7942  140.0459  157.1224 H   0  0  0  0  0  0  0  0  0  0  0  0  # atno 8008 bound_to 7997
  154.9555  140.3070  155.5035 H   0  0  0  0  0  0  0  0  0  0  0  0  # atno 8009 bound_to 7997
  156.2954  140.2280  156.4636 H   0  0  0  0  0  0  0  0  0  0  0  0  # atno 8010 bound_to 7997
  139.8870  143.6769  152.2618 H   0  0  0  0  0  0  0  0  0  0  0  0  # atno 10167 bound_to 10162
  157.0075  131.0194  151.2813 H   0  0  0  0  0  0  0  0  0  0  0  0  # atno 10718 bound_to 10713
  152.9887  135.5582  154.5663 H   0  0  0  0  0  0  0  0  0  0  0  0  # atno 10763 bound_to 10752
  154.5072  135.2800  155.1374 H   0  0  0  0  0  0  0  0  0  0  0  0  # atno 10764 bound_to 10752
  154.2781  135.6350  153.5389 H   0  0  0  0  0  0  0  0  0  0  0  0  # atno 10765 bound_to 10752
  141.1615  133.6861  156.7129 H   0  0  0  0  0  0  0  0  0  0  0  0  # atno 11005 bound_to 11000
  146.1598  140.6805  142.9283 LP  0  0  0  0  0  0  0  0  0  0  0  0  # atno 17320 bound_to 7965
  144.7322  140.4706  143.6929 LP  0  0  0  0  0  0  0  0  0  0  0  0  # atno 17321 bound_to 7965
  139.7144  144.7614  151.1058 LP  0  0  0  0  0  0  0  0  0  0  0  0  # atno 17342 bound_to 10162
  140.7734  143.5288  150.9448 LP  0  0  0  0  0  0  0  0  0  0  0  0  # atno 17343 bound_to 10162
  157.5345  130.8080  149.7955 LP  0  0  0  0  0  0  0  0  0  0  0  0  # atno 17370 bound_to 10713
  156.0148  130.3818  150.2146 LP  0  0  0  0  0  0  0  0  0  0  0  0  # atno 17371 bound_to 10713
  140.2873  134.8268  157.3986 LP  0  0  0  0  0  0  0  0  0  0  0  0  # atno 17394 bound_to 11000
  140.1378  134.5011  155.8055 LP  0  0  0  0  0  0  0  0  0  0  0  0  # atno 17395 bound_to 11000

$$$$
