AV-unprocessed.smi:69|AV-procd|sdf|650|dock10
  -GOLD-   2262016543D 1   1.00000     0.00000
 Structure written by MMmdl.
 32 34  0  0  0  0  0  0  0  0  1 V2000
  153.6014  142.2850  161.6296 N   0  0  0  0  0  0  0  0  0  0  0  0
  152.9237  142.6916  160.5475 C   0  0  0  0  0  0  0  0  0  0  0  0
  152.5198  143.9827  160.4879 N   0  0  0  0  0  0  0  0  0  0  0  0
  151.8389  144.4120  159.4195 C   0  0  0  0  0  0  0  0  0  0  0  0
  151.4697  143.7282  158.3324 N   0  0  0  0  0  0  0  0  0  0  0  0
  151.8817  142.4284  158.3967 C   0  0  0  0  0  0  0  0  0  0  0  0
  152.6081  141.8333  159.4640 C   0  0  0  0  0  0  0  0  0  0  0  0
  152.8459  140.4935  159.1843 N   0  0  0  0  0  0  0  0  0  0  0  0
  152.2884  140.3120  158.0163 C   0  0  0  0  0  0  0  0  0  0  0  0
  151.6881  141.4275  157.4716 N   0  0  0  0  0  0  0  0  0  0  0  0
  150.9628  141.5636  156.1729 C   0  0  1  0  0  0  0  0  0  0  0  0
  151.1603  140.4081  155.4277 O   0  0  0  0  0  0  0  0  0  0  0  0
  150.0825  140.2718  154.5092 C   0  0  1  0  0  0  0  0  0  0  0  0
  149.7804  138.7786  154.2900 C   0  0  0  0  0  0  0  0  0  0  0  0
  148.8502  138.5781  153.2456 O   0  0  0  0  0  0  0  0  0  0  0  0
  148.9156  141.1304  155.0458 C   0  0  2  0  0  0  0  0  0  0  0  0
  148.6493  142.1826  154.1378 O   0  0  0  0  0  0  0  0  0  0  0  0
  149.4461  141.7036  156.3559 C   0  0  1  0  0  0  0  0  0  0  0  0
  148.9513  140.9756  157.4657 O   0  0  0  0  0  0  0  0  0  0  0  0
  151.4169  142.4156  155.6634 H   0  0  0  0  0  0  0  0  0  0  0  0
  150.4414  140.6834  153.5639 H   0  0  0  0  0  0  0  0  0  0  0  0
  147.9934  140.5652  155.1875 H   0  0  0  0  0  0  0  0  0  0  0  0
  149.1893  142.7542  156.4999 H   0  0  0  0  0  0  0  0  0  0  0  0
  153.9114  141.3261  161.6969 H   0  0  0  0  0  0  0  0  0  0  0  0
  153.7990  142.9363  162.3754 H   0  0  0  0  0  0  0  0  0  0  0  0
  151.5471  145.4516  159.4386 H   0  0  0  0  0  0  0  0  0  0  0  0
  152.2944  139.3524  157.5195 H   0  0  0  0  0  0  0  0  0  0  0  0
  150.6982  138.2533  154.0252 H   0  0  0  0  0  0  0  0  0  0  0  0
  149.4047  138.3235  155.2068 H   0  0  0  0  0  0  0  0  0  0  0  0
  149.1605  139.0285  152.4749 H   0  0  0  0  0  0  0  0  0  0  0  0
  148.7474  143.0044  154.5941 H   0  0  0  0  0  0  0  0  0  0  0  0
  148.2050  140.4709  157.1801 H   0  0  0  0  0  0  0  0  0  0  0  0
  1  2  1  0  0  0  0
  1 24  1  0  0  0  0
  1 25  1  0  0  0  0
  2  7  1  0  0  0  0
  2  3  2  0  0  0  0
  3  4  1  0  0  0  0
  4  5  2  0  0  0  0
  4 26  1  0  0  0  0
  5  6  1  0  0  0  0
  6 10  1  0  0  0  0
  6  7  2  0  0  0  0
  7  8  1  0  0  0  0
  8  9  2  0  0  0  0
  9 10  1  0  0  0  0
  9 27  1  0  0  0  0
 10 11  1  0  0  0  0
 11 20  1  0  0  0  0
 11 18  1  0  0  0  0
 11 12  1  0  0  0  0
 12 13  1  0  0  0  0
 13 21  1  0  0  0  0
 13 14  1  0  0  0  0
 13 16  1  0  0  0  0
 14 15  1  0  0  0  0
 14 28  1  0  0  0  0
 14 29  1  0  0  0  0
 15 30  1  0  0  0  0
 16 22  1  0  0  0  0
 16 17  1  0  0  0  0
 16 18  1  0  0  0  0
 17 31  1  0  0  0  0
 18 23  1  0  0  0  0
 18 19  1  0  0  0  0
 19 32  1  0  0  0  0
M  END
> <s_m_source_file>
AV-unprocessed.smi

> <i_m_source_file_index>
69

> <i_lp_mmshare_version>
43012

> <i_f3d_flags>
0

> <s_epik_input>
bjFbY0hdbmMoW05IMl0pYyhjMTIpbltjSF1uMltDQEBIXTNPW0NASF0oW0NIMl1bT0hdKVtDQEBIXShbT0hdKVtDQEhdM1tPSF0=

> <s_epik_cmdline>
J2VwaWtfcHl0aG9uJywgJy1waCcsICc3LjAnLCAnLXRuJywgJzgnLCAnLW1hJywgJzIwMCcsICctbWV0YWxfYmluZGluZycsICctaW1hZScsICc8aW5maWxlLm1hZT4nLCAnLW9tYWUnLCAnPG91dGZpbGUubWFlPic=

> <r_lp_tautomer_probability>
1

> <r_epik_Ionization_Penalty>
0.000428445

> <r_epik_Ionization_Penalty_Charging>
0

> <r_epik_Ionization_Penalty_Neutral>
0.000428445

> <r_epik_State_Penalty>
-0

> <r_epik_Charging_Adjusted_Penalty>
0

> <i_epik_Tot_Q>
0

> <i_epik_Tot_abs_Q>
0

> <r_epik_Metal_State_Penalty>
-0

> <b_epik_Metal_Only>
0

> <s_epik_Chemistry_Notes>
This compound contains an acetal/aminal-like group ( X-CH(R)-Y where X, Y are N, S, or O) that may be acid/base labile, releasing an aldehyde.

> <s_lp_Force_Field>
OPLS_2005

> <r_lp_Energy>
41.0304

> <b_lp_Chiralities_Consistent>
1

> <s_lp_Variant>
AV-unprocessed.smi:69-8

> <Gold.Version>
5.8.1

> <Gold.Id.Protein>
6NUR|6NUR_protein|mol2

> <Gold.PLP.Fitness>
42.6597

> <Gold.PLP.PLP>
-36.2404

> <Gold.PLP.part.hbond>
-5.0000

> <Gold.PLP.part.metal>
0.0000

> <Gold.PLP.part.buried>
-5.0269

> <Gold.PLP.part.nonpolar>
-26.4086

> <Gold.PLP.part.repulsive>
0.2009

> <Gold.PLP.ligand.clash>
0.0000

> <Gold.PLP.ligand.torsion>
0.2505

> <Gold.PLP.Chemscore.Hbond>
2.3040

> <Gold.PLP.Chemscore.CHOScore>
0.0000

> <Gold.PLP.Chemscore.Metal>
0.0000

> <Gold.Chemscore.Hbonds>
donor molecule, donor type, donor heavy atom, donor atom, acceptor molecule, acceptor atom, score
      L1  H    15    30       P1  7957  1.00
      L1  H    17    31       P1  8028  1.00
      P1  H  8011  8017       L1    17  0.22

> <Gold.PLP.Chemscore.Internal.Correction>
0.0082

> <Gold.Rescore>
     Score         DG    S(hbond)    S(metal)    S(lipo)     H(rot)  DE(clash)    DE(int)     intcor
      6.29      -6.36       2.15        0.00      34.25       4.03       0.07       0.01       ----

> <Gold.Chemscore.Fitness>
6.2850

> <Gold.Chemscore.DG>
-6.3607

> <Gold.Chemscore.ZeroCoef>
-5.4800

> <Gold.Chemscore.Hbond>
2.1509

> <Gold.Chemscore.Metal>
0.0000

> <Gold.Chemscore.Lipo>
34.2545

> <Gold.Chemscore.Internal_Hbond>
0.0000

> <Gold.Chemscore.DEClash>
0.0650

> <Gold.Chemscore.DEInternal>
0.0106

> <Gold.Chemscore.Rot>
4.0277

> <Gold.Chemscore.Internal.Correction>
   9.000000E+99

> <Gold.Chemscore.Hbonds>
donor molecule, donor type, donor heavy atom, donor atom, acceptor molecule, acceptor atom, score
      L1  H    15    30       P1  7957  0.98
      L1  H    17    31       P1  8028  0.96
      P1  H  8011  8017       L1    17  0.10

> <Gold.Chemscore.Hbond.Weighted>
-7.1839

> <Gold.Chemscore.Metal.Weighted>
-0.0000

> <Gold.Chemscore.Lipo.Weighted>
-4.0078

> <Gold.Chemscore.Internal_Hbond.Weighted>
0.0000

> <Gold.Chemscore.DEClash.Weighted>
0.0650

> <Gold.Chemscore.DEInternal.Weighted>
0.0106

> <Gold.Chemscore.Rot.Weighted>
10.3110

> <Gold.Chemscore.Internal.Correction.Weighted>
   9.000000E+99

> <Gold.Protein.RotatedTorsions>
[ 6907 6896 6895 6894 ] final  -55.23 input  -60.11 | X-H torsion
[ 7974 7965 7964 7962 ] final  157.52 input  175.53 | X-H torsion
[ 8008 7997 7996 7995 ] final -130.33 input   59.86 | X-H torsion
[ 10167 10162 10161 10158 ] final  157.88 input  -65.29 | X-H torsion
[ 10718 10713 10712 10709 ] final  -31.23 input   66.30 | X-H torsion
[ 10763 10752 10751 10750 ] final   73.52 input  -60.55 | X-H torsion
[ 11005 11000 10999 10996 ] final   43.02 input  -57.11 | X-H torsion

> <Gold.Protein.ActiveResidues>
 VAL166  LYS551  ARG553  GLY616  TRP617  ASP618  TYR619  PRO620  LYS621  CYS622 
 ASP623  PHE694  ASN695  SER759  ASP760  ASP761  ALA762  ILE779  LEU786  VAL792 
 PHE793  MET794  SER795  GLU796  ALA797  LYS798  CYS799  TRP800  GLU811  SER814 

> <Gold.Protein.RotatedAtoms>
  150.8269  134.7505  159.6820 H   0  0  0  0  0  0  0  0  0  0  0  0  # atno 6907 bound_to 6896
  152.4379  134.5647  159.9914 H   0  0  0  0  0  0  0  0  0  0  0  0  # atno 6908 bound_to 6896
  151.5817  133.3339  159.3045 H   0  0  0  0  0  0  0  0  0  0  0  0  # atno 6909 bound_to 6896
  144.7899  139.7351  143.6225 H   0  0  0  0  0  0  0  0  0  0  0  0  # atno 7974 bound_to 7965
  155.2939  140.0449  157.3025 H   0  0  0  0  0  0  0  0  0  0  0  0  # atno 8008 bound_to 7997
  154.5525  140.2322  155.8430 H   0  0  0  0  0  0  0  0  0  0  0  0  # atno 8009 bound_to 7997
  156.1979  140.3033  155.9472 H   0  0  0  0  0  0  0  0  0  0  0  0  # atno 8010 bound_to 7997
  139.4824  144.4877  151.8354 H   0  0  0  0  0  0  0  0  0  0  0  0  # atno 10167 bound_to 10162
  156.3898  130.4371  149.7403 H   0  0  0  0  0  0  0  0  0  0  0  0  # atno 10718 bound_to 10713
  153.0527  135.5060  154.7906 H   0  0  0  0  0  0  0  0  0  0  0  0  # atno 10763 bound_to 10752
  154.6756  135.2960  154.9685 H   0  0  0  0  0  0  0  0  0  0  0  0  # atno 10764 bound_to 10752
  154.0489  135.6706  153.4851 H   0  0  0  0  0  0  0  0  0  0  0  0  # atno 10765 bound_to 10752
  140.1684  134.4253  155.8273 H   0  0  0  0  0  0  0  0  0  0  0  0  # atno 11005 bound_to 11000
  146.2146  139.5527  142.9658 LP  0  0  0  0  0  0  0  0  0  0  0  0  # atno 17320 bound_to 7965
  145.5823  141.0381  143.2115 LP  0  0  0  0  0  0  0  0  0  0  0  0  # atno 17321 bound_to 7965
  140.4358  144.2054  150.5889 LP  0  0  0  0  0  0  0  0  0  0  0  0  # atno 17342 bound_to 10162
  140.4733  143.2405  151.9058 LP  0  0  0  0  0  0  0  0  0  0  0  0  # atno 17343 bound_to 10162
  156.4461  130.7884  151.2906 LP  0  0  0  0  0  0  0  0  0  0  0  0  # atno 17370 bound_to 10713
  157.7498  131.0110  150.3327 LP  0  0  0  0  0  0  0  0  0  0  0  0  # atno 17371 bound_to 10713
  141.2215  133.6945  156.7719 LP  0  0  0  0  0  0  0  0  0  0  0  0  # atno 17394 bound_to 11000
  140.2407  134.8616  157.3570 LP  0  0  0  0  0  0  0  0  0  0  0  0  # atno 17395 bound_to 11000

$$$$
