AV-unprocessed.smi:2769|AV-procd|sdf|10656|dock4
  -GOLD-   2272015103D 1   1.00000     0.00000
 Structure written by MMmdl.
 20 21  0  0  0  0  0  0  0  0  2 V2000
  152.5928  140.6609  159.5325 C   0  0  0  0  0  0  0  0  0  0  0  0
  152.5168  139.9922  158.2025 C   0  0  0  0  0  0  0  0  0  0  0  0
  153.4511  139.1368  157.8065 N   0  0  0  0  0  0  0  0  0  0  0  0
  153.0194  138.7558  156.5280 O   0  0  0  0  0  0  0  0  0  0  0  0
  151.8441  139.3988  156.3275 C   0  0  0  0  0  0  0  0  0  0  0  0
  151.1736  139.2747  155.0004 C   0  0  0  0  0  0  0  0  0  0  0  0
  149.7502  138.7547  154.8443 C   0  0  0  0  0  0  0  0  0  0  0  0
  150.1534  138.3256  153.5055 N   0  3  0  0  0  0  0  0  0  0  0  0
  151.5300  138.1976  153.9819 C   0  0  0  0  0  0  0  0  0  0  0  0
  151.5031  140.2152  157.3213 N   0  0  0  0  0  0  0  0  0  0  0  0
  153.6282  140.7445  159.8649 H   0  0  0  0  0  0  0  0  0  0  0  0
  152.0360  140.0867  160.2731 H   0  0  0  0  0  0  0  0  0  0  0  0
  152.1682  141.6638  159.4804 H   0  0  0  0  0  0  0  0  0  0  0  0
  151.2513  140.2535  154.5185 H   0  0  0  0  0  0  0  0  0  0  0  0
  149.5119  137.9164  155.5027 H   0  0  0  0  0  0  0  0  0  0  0  0
  148.9751  139.5215  154.8540 H   0  0  0  0  0  0  0  0  0  0  0  0
  149.7364  137.4550  153.2074 H   0  0  0  0  0  0  0  0  0  0  0  0
  152.2848  138.4858  153.2497 H   0  0  0  0  0  0  0  0  0  0  0  0
  151.7323  137.2186  154.4217 H   0  0  0  0  0  0  0  0  0  0  0  0
  150.0608  139.0722  152.8315 H   0  0  0  0  0  0  0  0  0  0  0  0
  1  2  1  0  0  0  0
  1 11  1  0  0  0  0
  1 12  1  0  0  0  0
  1 13  1  0  0  0  0
  2 10  1  0  0  0  0
  2  3  2  0  0  0  0
  3  4  1  0  0  0  0
  4  5  1  0  0  0  0
  5  6  1  0  0  0  0
  5 10  2  0  0  0  0
  6  9  1  0  0  0  0
  6  7  1  0  0  0  0
  6 14  1  0  0  0  0
  7  8  1  0  0  0  0
  7 15  1  0  0  0  0
  7 16  1  0  0  0  0
  8  9  1  0  0  0  0
  8 17  1  0  0  0  0
  8 20  1  0  0  0  0
  9 18  1  0  0  0  0
  9 19  1  0  0  0  0
M  CHG  1   8   1
M  END
> <s_m_source_file>
AV-unprocessed.smi

> <i_m_source_file_index>
2769

> <i_lp_mmshare_version>
43012

> <i_f3d_flags>
0

> <s_epik_input>
W0NIM11jMW5vYyhuMSlbQ0hdMltDSDJdW05IXVtDSDJdMg==

> <s_epik_cmdline>
J2VwaWtfcHl0aG9uJywgJy1waCcsICc3LjAnLCAnLXRuJywgJzgnLCAnLW1hJywgJzIwMCcsICctbWV0YWxfYmluZGluZycsICctaW1hZScsICc8aW5maWxlLm1hZT4nLCAnLW9tYWUnLCAnPG91dGZpbGUubWFlPic=

> <r_lp_tautomer_probability>
1

> <r_epik_Ionization_Penalty>
0.0104968

> <r_epik_Ionization_Penalty_Charging>
0.0104968

> <r_epik_Ionization_Penalty_Neutral>
4.87029e-13

> <r_epik_State_Penalty>
0.00803009

> <r_epik_Charging_Adjusted_Penalty>
0.0185269

> <i_epik_Tot_Q>
1

> <i_epik_Tot_abs_Q>
1

> <r_epik_Metal_State_Penalty>
0.00803009

> <b_epik_Metal_Only>
0

> <s_lp_Force_Field>
OPLS_2005

> <r_lp_Energy>
11.9904

> <b_lp_Chiralities_Consistent>
1

> <s_lp_Variant>
AV-unprocessed.smi:2769-1

> <Gold.Version>
5.8.1

> <Gold.Id.Protein>
6NUR|6NUR_protein|mol2

> <Gold.PLP.Fitness>
29.1156

> <Gold.PLP.PLP>
-17.9263

> <Gold.PLP.part.hbond>
-4.1305

> <Gold.PLP.part.metal>
0.0000

> <Gold.PLP.part.buried>
-1.8809

> <Gold.PLP.part.nonpolar>
-11.4067

> <Gold.PLP.part.repulsive>
0.0820

> <Gold.PLP.ligand.clash>
0.0000

> <Gold.PLP.ligand.torsion>
0.1542

> <Gold.PLP.Chemscore.Hbond>
3.7552

> <Gold.PLP.Chemscore.CHOScore>
0.0000

> <Gold.PLP.Chemscore.Metal>
0.0000

> <Gold.Chemscore.Hbonds>
donor molecule, donor type, donor heavy atom, donor atom, acceptor molecule, acceptor atom, score
      L1  H     8    17       P1  7948  2.00
      L1  H     8    20       P1  7957  1.00
      P1  H  7997  8008       L1     3  0.66

> <Gold.PLP.Chemscore.Internal.Correction>
0.2321

> <Gold.Rescore>
     Score         DG    S(hbond)    S(metal)    S(lipo)     H(rot)  DE(clash)    DE(int)     intcor
     13.60     -13.85       2.22        0.00      30.18       1.00       0.09       0.16       ----

> <Gold.Chemscore.Fitness>
13.6018

> <Gold.Chemscore.DG>
-13.8542

> <Gold.Chemscore.ZeroCoef>
-5.4800

> <Gold.Chemscore.Hbond>
2.2164

> <Gold.Chemscore.Metal>
0.0000

> <Gold.Chemscore.Lipo>
30.1821

> <Gold.Chemscore.Internal_Hbond>
0.0000

> <Gold.Chemscore.DEClash>
0.0923

> <Gold.Chemscore.DEInternal>
0.1600

> <Gold.Chemscore.Rot>
1.0000

> <Gold.Chemscore.Internal.Correction>
   9.000000E+99

> <Gold.Chemscore.Hbonds>
donor molecule, donor type, donor heavy atom, donor atom, acceptor molecule, acceptor atom, score
      L1  H     8    17       P1  7948  0.58
      L1  H     8    20       P1  7957  0.80
      P1  H  7997  8008       L1     3  0.05

> <Gold.Chemscore.Hbond.Weighted>
-7.4029

> <Gold.Chemscore.Metal.Weighted>
-0.0000

> <Gold.Chemscore.Lipo.Weighted>
-3.5313

> <Gold.Chemscore.Internal_Hbond.Weighted>
0.0000

> <Gold.Chemscore.DEClash.Weighted>
0.0923

> <Gold.Chemscore.DEInternal.Weighted>
0.1600

> <Gold.Chemscore.Rot.Weighted>
2.5600

> <Gold.Chemscore.Internal.Correction.Weighted>
   9.000000E+99

> <Gold.Protein.RotatedTorsions>
[ 6907 6896 6895 6894 ] final   37.35 input  -60.11 | X-H torsion
[ 7974 7965 7964 7962 ] final  -55.46 input  175.53 | X-H torsion
[ 8008 7997 7996 7995 ] final -105.40 input   59.86 | X-H torsion
[ 10167 10162 10161 10158 ] final -127.57 input  -65.29 | X-H torsion
[ 10718 10713 10712 10709 ] final  -12.35 input   66.30 | X-H torsion
[ 10763 10752 10751 10750 ] final -148.56 input  -60.55 | X-H torsion
[ 11005 11000 10999 10996 ] final  -19.09 input  -57.11 | X-H torsion

> <Gold.Protein.ActiveResidues>
 VAL166  LYS551  ARG553  GLY616  TRP617  ASP618  TYR619  PRO620  LYS621  CYS622 
 ASP623  PHE694  ASN695  SER759  ASP760  ASP761  ALA762  ILE779  LEU786  VAL792 
 PHE793  MET794  SER795  GLU796  ALA797  LYS798  CYS799  TRP800  GLU811  SER814 

> <Gold.Protein.RotatedAtoms>
  152.1419  134.9055  160.0553 H   0  0  0  0  0  0  0  0  0  0  0  0  # atno 6907 bound_to 6896
  152.0120  133.3860  159.4232 H   0  0  0  0  0  0  0  0  0  0  0  0  # atno 6908 bound_to 6896
  150.6866  134.3642  159.5007 H   0  0  0  0  0  0  0  0  0  0  0  0  # atno 6909 bound_to 6896
  145.8739  140.8195  142.9874 H   0  0  0  0  0  0  0  0  0  0  0  0  # atno 7974 bound_to 7965
  154.8993  140.0413  157.1884 H   0  0  0  0  0  0  0  0  0  0  0  0  # atno 8008 bound_to 7997
  154.8460  140.2922  155.5608 H   0  0  0  0  0  0  0  0  0  0  0  0  # atno 8009 bound_to 7997
  156.2994  140.2474  156.3410 H   0  0  0  0  0  0  0  0  0  0  0  0  # atno 8010 bound_to 7997
  139.9595  143.5966  152.2450 H   0  0  0  0  0  0  0  0  0  0  0  0  # atno 10167 bound_to 10162
  156.6459  130.4941  149.6079 H   0  0  0  0  0  0  0  0  0  0  0  0  # atno 10718 bound_to 10713
  154.8226  135.3331  154.6992 H   0  0  0  0  0  0  0  0  0  0  0  0  # atno 10763 bound_to 10752
  153.7623  135.6931  153.4927 H   0  0  0  0  0  0  0  0  0  0  0  0  # atno 10764 bound_to 10752
  153.2102  135.4485  155.0319 H   0  0  0  0  0  0  0  0  0  0  0  0  # atno 10765 bound_to 10752
  140.8332  133.7981  155.9781 H   0  0  0  0  0  0  0  0  0  0  0  0  # atno 11005 bound_to 11000
  144.6726  140.1281  143.7445 LP  0  0  0  0  0  0  0  0  0  0  0  0  # atno 17320 bound_to 7965
  145.9104  139.2484  143.1441 LP  0  0  0  0  0  0  0  0  0  0  0  0  # atno 17321 bound_to 7965
  139.6565  144.7662  151.2045 LP  0  0  0  0  0  0  0  0  0  0  0  0  # atno 17342 bound_to 10162
  140.7558  143.6077  150.8636 LP  0  0  0  0  0  0  0  0  0  0  0  0  # atno 17343 bound_to 10162
  156.2122  130.6686  151.1282 LP  0  0  0  0  0  0  0  0  0  0  0  0  # atno 17370 bound_to 10713
  157.7156  131.0711  150.6338 LP  0  0  0  0  0  0  0  0  0  0  0  0  # atno 17371 bound_to 10713
  140.8975  134.2419  157.5060 LP  0  0  0  0  0  0  0  0  0  0  0  0  # atno 17394 bound_to 11000
  139.8704  134.9691  156.4654 LP  0  0  0  0  0  0  0  0  0  0  0  0  # atno 17395 bound_to 11000

$$$$
