AV-unprocessed.smi:466|AV-procd|sdf|2641|dock9
  -GOLD-   2262023 53D 1   1.00000     0.00000
 Structure written by MMmdl.
 43 45  0  0  0  0  0  0  0  0  1 V2000
  155.2836  133.4783  160.3080 C   0  0  0  0  0  0  0  0  0  0  0  0
  154.5813  134.7007  160.1376 O   0  0  0  0  0  0  0  0  0  0  0  0
  154.4288  135.5267  161.2326 C   0  0  0  0  0  0  0  0  0  0  0  0
  154.9655  135.2387  162.5133 C   0  0  0  0  0  0  0  0  0  0  0  0
  154.7682  136.1258  163.5867 C   0  0  0  0  0  0  0  0  0  0  0  0
  154.0350  137.3086  163.3943 C   0  0  0  0  0  0  0  0  0  0  0  0
  153.4988  137.6053  162.1283 C   0  0  0  0  0  0  0  0  0  0  0  0
  153.6905  136.7176  161.0388 C   0  0  0  0  0  0  0  0  0  0  0  0
  153.1926  136.9433  159.7719 O   0  0  0  0  0  0  0  0  0  0  0  0
  152.3811  138.0890  159.5574 C   0  0  0  0  0  0  0  0  0  0  0  0
  152.6406  138.6126  158.1402 C   0  0  0  0  0  0  0  0  0  0  0  0
  152.0777  139.9403  157.9511 N   0  0  0  0  0  0  0  0  0  0  0  0
  151.2583  140.3806  156.9618 C   0  0  0  0  0  0  0  0  0  0  0  0
  150.7751  139.4935  155.8511 C   0  0  0  0  0  0  0  0  0  0  0  0
  149.7328  140.1674  154.9448 C   0  0  0  0  0  0  0  0  0  0  0  0
  150.3397  140.7096  153.7909 O   0  0  0  0  0  0  0  0  0  0  0  0
  150.8972  141.6626  157.0380 N   0  0  0  0  0  0  0  0  0  0  0  0
  151.5450  142.0952  158.1784 C   0  0  0  0  0  0  0  0  0  0  0  0
  151.5647  143.3655  158.7977 C   0  0  0  0  0  0  0  0  0  0  0  0
  152.3151  143.5748  159.9735 C   0  0  0  0  0  0  0  0  0  0  0  0
  153.0552  142.5196  160.5451 C   0  0  0  0  0  0  0  0  0  0  0  0
  153.0479  141.2459  159.9447 C   0  0  0  0  0  0  0  0  0  0  0  0
  152.2956  141.0418  158.7725 C   0  0  0  0  0  0  0  0  0  0  0  0
  155.3061  132.9421  159.3595 H   0  0  0  0  0  0  0  0  0  0  0  0
  154.7922  132.8341  161.0384 H   0  0  0  0  0  0  0  0  0  0  0  0
  156.3164  133.6509  160.6134 H   0  0  0  0  0  0  0  0  0  0  0  0
  155.5338  134.3402  162.6993 H   0  0  0  0  0  0  0  0  0  0  0  0
  155.1801  135.8976  164.5588 H   0  0  0  0  0  0  0  0  0  0  0  0
  153.8829  137.9901  164.2184 H   0  0  0  0  0  0  0  0  0  0  0  0
  152.9430  138.5239  162.0191 H   0  0  0  0  0  0  0  0  0  0  0  0
  151.3268  137.8277  159.6642 H   0  0  0  0  0  0  0  0  0  0  0  0
  152.6180  138.8632  160.2887 H   0  0  0  0  0  0  0  0  0  0  0  0
  153.7082  138.6312  157.9238 H   0  0  0  0  0  0  0  0  0  0  0  0
  152.1950  137.9395  157.4070 H   0  0  0  0  0  0  0  0  0  0  0  0
  151.6418  139.2268  155.2453 H   0  0  0  0  0  0  0  0  0  0  0  0
  150.3962  138.5504  156.2433 H   0  0  0  0  0  0  0  0  0  0  0  0
  148.9483  139.4658  154.6593 H   0  0  0  0  0  0  0  0  0  0  0  0
  149.2522  140.9848  155.4826 H   0  0  0  0  0  0  0  0  0  0  0  0
  150.0643  140.2057  153.0403 H   0  0  0  0  0  0  0  0  0  0  0  0
  151.0022  144.1803  158.3664 H   0  0  0  0  0  0  0  0  0  0  0  0
  152.3235  144.5495  160.4387 H   0  0  0  0  0  0  0  0  0  0  0  0
  153.6287  142.6879  161.4450 H   0  0  0  0  0  0  0  0  0  0  0  0
  153.6141  140.4358  160.3799 H   0  0  0  0  0  0  0  0  0  0  0  0
  1  2  1  0  0  0  0
  1 24  1  0  0  0  0
  1 25  1  0  0  0  0
  1 26  1  0  0  0  0
  2  3  1  0  0  0  0
  3  8  1  0  0  0  0
  3  4  2  0  0  0  0
  4  5  1  0  0  0  0
  4 27  1  0  0  0  0
  5  6  2  0  0  0  0
  5 28  1  0  0  0  0
  6  7  1  0  0  0  0
  6 29  1  0  0  0  0
  7  8  2  0  0  0  0
  7 30  1  0  0  0  0
  8  9  1  0  0  0  0
  9 10  1  0  0  0  0
 10 11  1  0  0  0  0
 10 31  1  0  0  0  0
 10 32  1  0  0  0  0
 11 12  1  0  0  0  0
 11 33  1  0  0  0  0
 11 34  1  0  0  0  0
 12 23  1  0  0  0  0
 12 13  1  0  0  0  0
 13 14  1  0  0  0  0
 13 17  2  0  0  0  0
 14 15  1  0  0  0  0
 14 35  1  0  0  0  0
 14 36  1  0  0  0  0
 15 16  1  0  0  0  0
 15 37  1  0  0  0  0
 15 38  1  0  0  0  0
 16 39  1  0  0  0  0
 17 18  1  0  0  0  0
 18 23  2  0  0  0  0
 18 19  1  0  0  0  0
 19 20  2  0  0  0  0
 19 40  1  0  0  0  0
 20 21  1  0  0  0  0
 20 41  1  0  0  0  0
 21 22  2  0  0  0  0
 21 42  1  0  0  0  0
 22 23  1  0  0  0  0
 22 43  1  0  0  0  0
M  END
> <s_m_source_file>
AV-unprocessed.smi

> <i_m_source_file_index>
466

> <i_lp_mmshare_version>
43012

> <i_f3d_flags>
0

> <s_epik_input>
W0NIM11PYzFbY0hdW2NIXVtjSF1bY0hdYzFPW0NIMl1bQ0gyXW4oYyhuMilbQ0gyXVtDSDJdW09IXSljKGMyMylbY0hdW2NIXVtjSF1bY0hdMw==

> <s_epik_cmdline>
J2VwaWtfcHl0aG9uJywgJy1waCcsICc3LjAnLCAnLXRuJywgJzgnLCAnLW1hJywgJzIwMCcsICctbWV0YWxfYmluZGluZycsICctaW1hZScsICc8aW5maWxlLm1hZT4nLCAnLW9tYWUnLCAnPG91dGZpbGUubWFlPic=

> <r_lp_tautomer_probability>
1

> <r_epik_Ionization_Penalty>
0.20808

> <r_epik_Ionization_Penalty_Charging>
0

> <r_epik_Ionization_Penalty_Neutral>
0.20808

> <r_epik_State_Penalty>
0.198097

> <r_epik_Charging_Adjusted_Penalty>
0.198097

> <i_epik_Tot_Q>
0

> <i_epik_Tot_abs_Q>
0

> <r_epik_Metal_State_Penalty>
0.000235189

> <b_epik_Metal_Only>
0

> <s_lp_Force_Field>
OPLS_2005

> <r_lp_Energy>
20.5556

> <b_lp_Chiralities_Consistent>
1

> <s_lp_Variant>
AV-unprocessed.smi:466-1

> <Gold.Version>
5.8.1

> <Gold.Id.Protein>
6NUR|6NUR_protein|mol2

> <Gold.PLP.Fitness>
49.9003

> <Gold.PLP.PLP>
-43.5153

> <Gold.PLP.part.hbond>
-3.1827

> <Gold.PLP.part.metal>
0.0000

> <Gold.PLP.part.buried>
-4.5215

> <Gold.PLP.part.nonpolar>
-35.4057

> <Gold.PLP.part.repulsive>
0.0556

> <Gold.PLP.ligand.clash>
0.0000

> <Gold.PLP.ligand.torsion>
0.6403

> <Gold.PLP.Chemscore.Hbond>
2.5209

> <Gold.PLP.Chemscore.CHOScore>
0.0000

> <Gold.PLP.Chemscore.Metal>
0.0000

> <Gold.Chemscore.Hbonds>
donor molecule, donor type, donor heavy atom, donor atom, acceptor molecule, acceptor atom, score
      L1  H    16    39       P1  7957  1.00
      P1  H  6896  6909       L1     2  0.86
      P1  H  7989  7998       L1    16  0.26

> <Gold.PLP.Chemscore.Internal.Correction>
0.1030

> <Gold.Rescore>
     Score         DG    S(hbond)    S(metal)    S(lipo)     H(rot)  DE(clash)    DE(int)     intcor
     19.59     -20.53       2.18        0.00     122.97       2.59       0.12       0.82       ----

> <Gold.Chemscore.Fitness>
19.5876

> <Gold.Chemscore.DG>
-20.5307

> <Gold.Chemscore.ZeroCoef>
-5.4800

> <Gold.Chemscore.Hbond>
2.1848

> <Gold.Chemscore.Metal>
0.0000

> <Gold.Chemscore.Lipo>
122.9738

> <Gold.Chemscore.Internal_Hbond>
0.0000

> <Gold.Chemscore.DEClash>
0.1187

> <Gold.Chemscore.DEInternal>
0.8244

> <Gold.Chemscore.Rot>
2.5916

> <Gold.Chemscore.Internal.Correction>
   9.000000E+99

> <Gold.Chemscore.Hbonds>
donor molecule, donor type, donor heavy atom, donor atom, acceptor molecule, acceptor atom, score
      L1  H    16    39       P1  7957  0.96
      P1  H  6896  6909       L1     2  0.10
      P1  H  7989  7998       L1    16  0.06

> <Gold.Chemscore.Hbond.Weighted>
-7.2974

> <Gold.Chemscore.Metal.Weighted>
-0.0000

> <Gold.Chemscore.Lipo.Weighted>
-14.3879

> <Gold.Chemscore.Internal_Hbond.Weighted>
0.0000

> <Gold.Chemscore.DEClash.Weighted>
0.1187

> <Gold.Chemscore.DEInternal.Weighted>
0.8244

> <Gold.Chemscore.Rot.Weighted>
6.6346

> <Gold.Chemscore.Internal.Correction.Weighted>
   9.000000E+99

> <Gold.Protein.RotatedTorsions>
[ 6907 6896 6895 6894 ] final -146.59 input  -60.11 | X-H torsion
[ 7974 7965 7964 7962 ] final  -14.25 input  175.53 | X-H torsion
[ 8008 7997 7996 7995 ] final  127.98 input   59.86 | X-H torsion
[ 10167 10162 10161 10158 ] final   30.59 input  -65.29 | X-H torsion
[ 10718 10713 10712 10709 ] final  166.73 input   66.30 | X-H torsion
[ 10763 10752 10751 10750 ] final  -55.79 input  -60.55 | X-H torsion
[ 11005 11000 10999 10996 ] final    6.70 input  -57.11 | X-H torsion

> <Gold.Protein.ActiveResidues>
 VAL166  LYS551  ARG553  GLY616  TRP617  ASP618  TYR619  PRO620  LYS621  CYS622 
 ASP623  PHE694  ASN695  SER759  ASP760  ASP761  ALA762  ILE779  LEU786  VAL792 
 PHE793  MET794  SER795  GLU796  ALA797  LYS798  CYS799  TRP800  GLU811  SER814 

> <Gold.Protein.RotatedAtoms>
  151.1438  133.4953  159.2596 H   0  0  0  0  0  0  0  0  0  0  0  0  # atno 6907 bound_to 6896
  151.1627  135.0280  159.8727 H   0  0  0  0  0  0  0  0  0  0  0  0  # atno 6908 bound_to 6896
  152.5463  134.1310  159.8492 H   0  0  0  0  0  0  0  0  0  0  0  0  # atno 6909 bound_to 6896
  146.2082  140.3321  142.8400 H   0  0  0  0  0  0  0  0  0  0  0  0  # atno 7974 bound_to 7965
  156.2904  140.2656  156.2361 H   0  0  0  0  0  0  0  0  0  0  0  0  # atno 8008 bound_to 7997
  155.0024  140.0387  157.2384 H   0  0  0  0  0  0  0  0  0  0  0  0  # atno 8009 bound_to 7997
  154.7590  140.2757  155.6235 H   0  0  0  0  0  0  0  0  0  0  0  0  # atno 8010 bound_to 7997
  140.4664  144.0829  150.6225 H   0  0  0  0  0  0  0  0  0  0  0  0  # atno 10167 bound_to 10162
  157.0617  131.0342  151.2644 H   0  0  0  0  0  0  0  0  0  0  0  0  # atno 10718 bound_to 10713
  154.1964  135.6418  153.5074 H   0  0  0  0  0  0  0  0  0  0  0  0  # atno 10763 bound_to 10752
  153.0022  135.5441  154.6361 H   0  0  0  0  0  0  0  0  0  0  0  0  # atno 10764 bound_to 10752
  154.5763  135.2921  155.0750 H   0  0  0  0  0  0  0  0  0  0  0  0  # atno 10765 bound_to 10752
  140.5566  134.0232  155.7956 H   0  0  0  0  0  0  0  0  0  0  0  0  # atno 11005 bound_to 11000
  144.8845  140.7443  143.5966 LP  0  0  0  0  0  0  0  0  0  0  0  0  # atno 17320 bound_to 7965
  145.3242  139.1779  143.4571 LP  0  0  0  0  0  0  0  0  0  0  0  0  # atno 17321 bound_to 7965
  140.4031  143.2694  151.9924 LP  0  0  0  0  0  0  0  0  0  0  0  0  # atno 17342 bound_to 10162
  139.4812  144.5980  151.7655 LP  0  0  0  0  0  0  0  0  0  0  0  0  # atno 17343 bound_to 10162
  157.4949  130.7844  149.7545 LP  0  0  0  0  0  0  0  0  0  0  0  0  # atno 17370 bound_to 10713
  155.9976  130.3899  150.2732 LP  0  0  0  0  0  0  0  0  0  0  0  0  # atno 17371 bound_to 10713
  141.1140  133.9571  157.2857 LP  0  0  0  0  0  0  0  0  0  0  0  0  # atno 17394 bound_to 11000
  139.9428  135.0188  156.8762 LP  0  0  0  0  0  0  0  0  0  0  0  0  # atno 17395 bound_to 11000

$$$$
