AV-unprocessed.smi:403|AV-procd|sdf|2496|dock7
  -GOLD-   2262022443D 1   1.00000     0.00000
 Structure written by MMmdl.
 46 47  0  0  0  0  0  0  0  0  1 V2000
  147.1374  135.7818  163.0475 C   0  0  0  0  0  0  0  0  0  0  0  0
  146.5980  134.8691  161.9330 C   0  0  0  0  0  0  0  0  0  0  0  0
  145.6809  133.7884  162.5259 C   0  0  0  0  0  0  0  0  0  0  0  0
  147.7245  134.2290  161.0957 C   0  0  0  0  0  0  0  0  0  0  0  0
  147.9033  134.8589  159.6986 C   0  0  0  0  0  0  0  0  0  0  0  0
  148.2577  136.3498  159.7332 C   0  0  0  0  0  0  0  0  0  0  0  0
  147.7662  137.1018  160.5758 O   0  0  0  0  0  0  0  0  0  0  0  0
  149.1266  136.7647  158.7985 N   0  0  0  0  0  0  0  0  0  0  0  0
  149.6079  138.1357  158.6535 C   0  0  0  0  0  0  0  0  0  0  0  0
  149.9101  138.5694  157.2165 C   0  0  0  0  0  0  0  0  0  0  0  0
  149.6035  137.7276  156.1212 C   0  0  0  0  0  0  0  0  0  0  0  0
  149.8688  138.1696  154.8127 C   0  0  0  0  0  0  0  0  0  0  0  0
  150.4281  139.4477  154.6416 C   0  0  0  0  0  0  0  0  0  0  0  0
  150.7193  140.2679  155.6711 N   0  0  0  0  0  0  0  0  0  0  0  0
  150.4665  139.8462  156.9345 C   0  0  0  0  0  0  0  0  0  0  0  0
  150.8017  140.7216  157.9823 N   0  0  0  0  0  0  0  0  0  0  0  0
  151.9094  140.2314  158.7928 C   0  0  0  0  0  0  0  0  0  0  0  0
  152.0849  141.1233  160.0339 C   0  0  0  0  0  0  0  0  0  0  0  0
  152.2640  142.4781  159.6290 O   0  0  0  0  0  0  0  0  0  0  0  0
  151.1463  142.9721  158.8954 C   0  0  0  0  0  0  0  0  0  0  0  0
  150.9500  142.1281  157.6244 C   0  0  0  0  0  0  0  0  0  0  0  0
  147.7938  135.2346  163.7249 H   0  0  0  0  0  0  0  0  0  0  0  0
  146.3225  136.1977  163.6405 H   0  0  0  0  0  0  0  0  0  0  0  0
  147.7001  136.6230  162.6441 H   0  0  0  0  0  0  0  0  0  0  0  0
  145.9868  135.4795  161.2668 H   0  0  0  0  0  0  0  0  0  0  0  0
  146.2265  133.1399  163.2123 H   0  0  0  0  0  0  0  0  0  0  0  0
  145.2529  133.1605  161.7438 H   0  0  0  0  0  0  0  0  0  0  0  0
  144.8520  134.2335  163.0768 H   0  0  0  0  0  0  0  0  0  0  0  0
  148.6634  134.2797  161.6494 H   0  0  0  0  0  0  0  0  0  0  0  0
  147.5029  133.1676  160.9726 H   0  0  0  0  0  0  0  0  0  0  0  0
  148.6919  134.3333  159.1585 H   0  0  0  0  0  0  0  0  0  0  0  0
  146.9906  134.7448  159.1138 H   0  0  0  0  0  0  0  0  0  0  0  0
  149.4822  136.0840  158.1431 H   0  0  0  0  0  0  0  0  0  0  0  0
  148.8436  138.8029  159.0516 H   0  0  0  0  0  0  0  0  0  0  0  0
  150.4841  138.2676  159.2892 H   0  0  0  0  0  0  0  0  0  0  0  0
  149.1642  136.7523  156.2672 H   0  0  0  0  0  0  0  0  0  0  0  0
  149.6460  137.5447  153.9607 H   0  0  0  0  0  0  0  0  0  0  0  0
  150.6457  139.8227  153.6523 H   0  0  0  0  0  0  0  0  0  0  0  0
  151.7327  139.1985  159.0952 H   0  0  0  0  0  0  0  0  0  0  0  0
  152.8230  140.2379  158.1966 H   0  0  0  0  0  0  0  0  0  0  0  0
  151.2209  141.0415  160.6956 H   0  0  0  0  0  0  0  0  0  0  0  0
  152.9564  140.8048  160.6059 H   0  0  0  0  0  0  0  0  0  0  0  0
  150.2511  142.9515  159.5191 H   0  0  0  0  0  0  0  0  0  0  0  0
  151.3271  144.0140  158.6308 H   0  0  0  0  0  0  0  0  0  0  0  0
  151.8087  142.2570  156.9640 H   0  0  0  0  0  0  0  0  0  0  0  0
  150.0673  142.4658  157.0804 H   0  0  0  0  0  0  0  0  0  0  0  0
  1  2  1  0  0  0  0
  1 22  1  0  0  0  0
  1 23  1  0  0  0  0
  1 24  1  0  0  0  0
  2  3  1  0  0  0  0
  2  4  1  0  0  0  0
  2 25  1  0  0  0  0
  3 26  1  0  0  0  0
  3 27  1  0  0  0  0
  3 28  1  0  0  0  0
  4  5  1  0  0  0  0
  4 29  1  0  0  0  0
  4 30  1  0  0  0  0
  5  6  1  0  0  0  0
  5 31  1  0  0  0  0
  5 32  1  0  0  0  0
  6  7  2  0  0  0  0
  6  8  1  0  0  0  0
  8  9  1  0  0  0  0
  8 33  1  0  0  0  0
  9 10  1  0  0  0  0
  9 34  1  0  0  0  0
  9 35  1  0  0  0  0
 10 15  1  0  0  0  0
 10 11  2  0  0  0  0
 11 12  1  0  0  0  0
 11 36  1  0  0  0  0
 12 13  2  0  0  0  0
 12 37  1  0  0  0  0
 13 14  1  0  0  0  0
 13 38  1  0  0  0  0
 14 15  2  0  0  0  0
 15 16  1  0  0  0  0
 16 21  1  0  0  0  0
 16 17  1  0  0  0  0
 17 18  1  0  0  0  0
 17 39  1  0  0  0  0
 17 40  1  0  0  0  0
 18 19  1  0  0  0  0
 18 41  1  0  0  0  0
 18 42  1  0  0  0  0
 19 20  1  0  0  0  0
 20 21  1  0  0  0  0
 20 43  1  0  0  0  0
 20 44  1  0  0  0  0
 21 45  1  0  0  0  0
 21 46  1  0  0  0  0
M  END
> <s_m_source_file>
AV-unprocessed.smi

> <i_m_source_file_index>
403

> <i_lp_mmshare_version>
43012

> <i_f3d_flags>
0

> <s_epik_input>
W0NIM11bQ0hdKFtDSDNdKVtDSDJdW0NIMl1DKD1PKVtOSF1bQ0gyXWMxW2NIXVtjSF1bY0hdbmMxTjJbQ0gyXVtDSDJdT1tDSDJdW0NIMl0y

> <s_epik_cmdline>
J2VwaWtfcHl0aG9uJywgJy1waCcsICc3LjAnLCAnLXRuJywgJzgnLCAnLW1hJywgJzIwMCcsICctbWV0YWxfYmluZGluZycsICctaW1hZScsICc8aW5maWxlLm1hZT4nLCAnLW9tYWUnLCAnPG91dGZpbGUubWFlPic=

> <r_lp_tautomer_probability>
1

> <r_epik_Ionization_Penalty>
0.00581842

> <r_epik_Ionization_Penalty_Charging>
0

> <r_epik_Ionization_Penalty_Neutral>
0.00581842

> <r_epik_State_Penalty>
0.00427389

> <r_epik_Charging_Adjusted_Penalty>
0.00427389

> <i_epik_Tot_Q>
0

> <i_epik_Tot_abs_Q>
0

> <r_epik_Metal_State_Penalty>
-0

> <b_epik_Metal_Only>
0

> <s_lp_Force_Field>
OPLS_2005

> <r_lp_Energy>
20.7725

> <b_lp_Chiralities_Consistent>
1

> <s_lp_Variant>
AV-unprocessed.smi:403-1

> <Gold.Version>
5.8.1

> <Gold.Id.Protein>
6NUR|6NUR_protein|mol2

> <Gold.PLP.Fitness>
39.7488

> <Gold.PLP.PLP>
-34.9046

> <Gold.PLP.part.hbond>
-2.4547

> <Gold.PLP.part.metal>
0.0000

> <Gold.PLP.part.buried>
-5.6302

> <Gold.PLP.part.nonpolar>
-28.0203

> <Gold.PLP.part.repulsive>
0.1749

> <Gold.PLP.ligand.clash>
0.0000

> <Gold.PLP.ligand.torsion>
1.5311

> <Gold.PLP.Chemscore.Hbond>
1.5680

> <Gold.PLP.Chemscore.CHOScore>
1.0000

> <Gold.PLP.Chemscore.Metal>
0.0000

> <Gold.Chemscore.Hbonds>
donor molecule, donor type, donor heavy atom, donor atom, acceptor molecule, acceptor atom, score
      P1  H  6931  6943       L1     7  0.54
      P1  H  6934  6947       L1     7  0.89
      L1  C    13    38       P1  7957  0.59

> <Gold.PLP.Chemscore.Internal.Correction>
0.2024

> <Gold.Rescore>
     Score         DG    S(hbond)    S(metal)    S(lipo)     H(rot)  DE(clash)    DE(int)     intcor
     15.11     -16.47       1.58        0.00      86.73       1.73       0.01       1.34       ----

> <Gold.Chemscore.Fitness>
15.1148

> <Gold.Chemscore.DG>
-16.4675

> <Gold.Chemscore.ZeroCoef>
-5.4800

> <Gold.Chemscore.Hbond>
1.5813

> <Gold.Chemscore.Metal>
0.0000

> <Gold.Chemscore.Lipo>
86.7255

> <Gold.Chemscore.Internal_Hbond>
0.0000

> <Gold.Chemscore.DEClash>
0.0103

> <Gold.Chemscore.DEInternal>
1.3423

> <Gold.Chemscore.Rot>
1.7347

> <Gold.Chemscore.Internal.Correction>
   9.000000E+99

> <Gold.Chemscore.Hbonds>
donor molecule, donor type, donor heavy atom, donor atom, acceptor molecule, acceptor atom, score
      P1  H  6931  6943       L1     7  0.53
      P1  H  6934  6947       L1     7  0.81

> <Gold.Chemscore.Hbond.Weighted>
-5.2815

> <Gold.Chemscore.Metal.Weighted>
-0.0000

> <Gold.Chemscore.Lipo.Weighted>
-10.1469

> <Gold.Chemscore.Internal_Hbond.Weighted>
0.0000

> <Gold.Chemscore.DEClash.Weighted>
0.0103

> <Gold.Chemscore.DEInternal.Weighted>
1.3423

> <Gold.Chemscore.Rot.Weighted>
4.4409

> <Gold.Chemscore.Internal.Correction.Weighted>
   9.000000E+99

> <Gold.Protein.RotatedTorsions>
[ 6907 6896 6895 6894 ] final   18.01 input  -60.11 | X-H torsion
[ 7974 7965 7964 7962 ] final   38.48 input  175.53 | X-H torsion
[ 8008 7997 7996 7995 ] final -169.50 input   59.86 | X-H torsion
[ 10167 10162 10161 10158 ] final   12.11 input  -65.29 | X-H torsion
[ 10718 10713 10712 10709 ] final -153.58 input   66.30 | X-H torsion
[ 10763 10752 10751 10750 ] final -132.94 input  -60.55 | X-H torsion
[ 11005 11000 10999 10996 ] final  -46.91 input  -57.11 | X-H torsion

> <Gold.Protein.ActiveResidues>
 VAL166  LYS551  ARG553  GLY616  TRP617  ASP618  TYR619  PRO620  LYS621  CYS622 
 ASP623  PHE694  ASN695  SER759  ASP760  ASP761  ALA762  ILE779  LEU786  VAL792 
 PHE793  MET794  SER795  GLU796  ALA797  LYS798  CYS799  TRP800  GLU811  SER814 

> <Gold.Protein.RotatedAtoms>
  151.8585  135.0532  160.0466 H   0  0  0  0  0  0  0  0  0  0  0  0  # atno 6907 bound_to 6896
  152.2681  133.5353  159.5431 H   0  0  0  0  0  0  0  0  0  0  0  0  # atno 6908 bound_to 6896
  150.7141  134.0652  159.3887 H   0  0  0  0  0  0  0  0  0  0  0  0  # atno 6909 bound_to 6896
  146.1058  139.5767  142.9384 H   0  0  0  0  0  0  0  0  0  0  0  0  # atno 7974 bound_to 7965
  155.9059  140.1049  157.1316 H   0  0  0  0  0  0  0  0  0  0  0  0  # atno 8008 bound_to 7997
  154.4032  140.1283  156.4559 H   0  0  0  0  0  0  0  0  0  0  0  0  # atno 8009 bound_to 7997
  155.7368  140.3467  155.5087 H   0  0  0  0  0  0  0  0  0  0  0  0  # atno 8010 bound_to 7997
  140.6089  143.8449  150.7044 H   0  0  0  0  0  0  0  0  0  0  0  0  # atno 10167 bound_to 10162
  156.4878  130.8333  151.2557 H   0  0  0  0  0  0  0  0  0  0  0  0  # atno 10718 bound_to 10713
  154.8738  135.3782  154.4492 H   0  0  0  0  0  0  0  0  0  0  0  0  # atno 10763 bound_to 10752
  153.5170  135.7029  153.5756 H   0  0  0  0  0  0  0  0  0  0  0  0  # atno 10764 bound_to 10752
  153.4020  135.3946  155.1960 H   0  0  0  0  0  0  0  0  0  0  0  0  # atno 10765 bound_to 10752
  141.0608  133.6710  156.3222 H   0  0  0  0  0  0  0  0  0  0  0  0  # atno 11005 bound_to 11000
  145.5763  141.0388  143.2146 LP  0  0  0  0  0  0  0  0  0  0  0  0  # atno 17320 bound_to 7965
  144.7470  139.7294  143.7288 LP  0  0  0  0  0  0  0  0  0  0  0  0  # atno 17321 bound_to 7965
  140.2013  143.3957  152.1789 LP  0  0  0  0  0  0  0  0  0  0  0  0  # atno 17342 bound_to 10162
  139.5346  144.7196  151.4938 LP  0  0  0  0  0  0  0  0  0  0  0  0  # atno 17343 bound_to 10162
  157.7477  131.0023  150.2997 LP  0  0  0  0  0  0  0  0  0  0  0  0  # atno 17370 bound_to 10713
  156.3457  130.3822  149.7371 LP  0  0  0  0  0  0  0  0  0  0  0  0  # atno 17371 bound_to 10713
  140.5872  134.5687  157.5492 LP  0  0  0  0  0  0  0  0  0  0  0  0  # atno 17394 bound_to 11000
  139.9431  134.7751  156.0628 LP  0  0  0  0  0  0  0  0  0  0  0  0  # atno 17395 bound_to 11000

$$$$
