AV-unprocessed.smi:792|AV-procd|sdf|3750|dock3
  -GOLD-   22720 1183D 1   1.00000     0.00000
 Structure written by MMmdl.
 46 47  0  0  0  0  0  0  0  0  1 V2000
  143.9645  144.3303  156.7031 C   0  0  0  0  0  0  0  0  0  0  0  0
  145.0136  143.5871  155.9028 C   0  0  0  0  0  0  0  0  0  0  0  0
  145.0855  143.7232  154.5003 C   0  0  0  0  0  0  0  0  0  0  0  0
  146.0814  143.0082  153.8075 C   0  0  0  0  0  0  0  0  0  0  0  0
  146.9642  142.1887  154.5401 C   0  0  0  0  0  0  0  0  0  0  0  0
  148.0525  141.3971  153.8427 C   0  0  0  0  0  0  0  0  0  0  0  0
  148.0648  139.9253  154.2749 C   0  0  0  0  0  0  0  0  0  0  0  0
  148.6983  139.7814  155.5777 N   0  0  0  0  0  0  0  0  0  0  0  0
  149.8429  140.3803  155.9296 C   0  0  0  0  0  0  0  0  0  0  0  0
  150.4789  141.1366  155.1951 O   0  0  0  0  0  0  0  0  0  0  0  0
  150.2130  140.0545  157.1766 N   0  0  0  0  0  0  0  0  0  0  0  0
  151.4058  140.5565  157.8571 C   0  0  0  0  0  0  0  0  0  0  0  0
  151.4995  142.0944  157.8776 C   0  0  0  0  0  0  0  0  0  0  0  0
  150.8016  142.7462  157.0979 O   0  0  0  0  0  0  0  0  0  0  0  0
  152.3429  142.6875  158.7579 N   0  0  0  0  0  0  0  0  0  0  0  0
  153.1246  141.9279  159.7433 C   0  0  0  0  0  0  0  0  0  0  0  0
  152.5825  142.2328  161.1520 C   0  0  0  0  0  0  0  0  0  0  0  0
  152.6014  143.7467  161.4353 C   0  0  0  0  0  0  0  0  0  0  0  0
  151.9369  144.5456  160.2982 C   0  0  0  0  0  0  0  0  0  0  0  0
  152.5162  144.1368  158.9317 C   0  0  0  0  0  0  0  0  0  0  0  0
  146.8057  142.1207  155.9404 C   0  0  0  0  0  0  0  0  0  0  0  0
  145.8539  142.8027  156.6132 N   0  0  0  0  0  0  0  0  0  0  0  0
  143.3309  144.9382  156.0566 H   0  0  0  0  0  0  0  0  0  0  0  0
  144.4385  144.9893  157.4311 H   0  0  0  0  0  0  0  0  0  0  0  0
  143.3272  143.6264  157.2390 H   0  0  0  0  0  0  0  0  0  0  0  0
  144.3955  144.3590  153.9655 H   0  0  0  0  0  0  0  0  0  0  0  0
  146.1635  143.0878  152.7335 H   0  0  0  0  0  0  0  0  0  0  0  0
  147.9092  141.4703  152.7637 H   0  0  0  0  0  0  0  0  0  0  0  0
  149.0176  141.8586  154.0576 H   0  0  0  0  0  0  0  0  0  0  0  0
  147.0445  139.5411  154.3256 H   0  0  0  0  0  0  0  0  0  0  0  0
  148.6018  139.3214  153.5418 H   0  0  0  0  0  0  0  0  0  0  0  0
  148.2404  139.1831  156.2497 H   0  0  0  0  0  0  0  0  0  0  0  0
  149.6201  139.4284  157.7015 H   0  0  0  0  0  0  0  0  0  0  0  0
  151.3801  140.1910  158.8838 H   0  0  0  0  0  0  0  0  0  0  0  0
  152.2964  140.1354  157.3873 H   0  0  0  0  0  0  0  0  0  0  0  0
  153.1030  140.8520  159.5660 H   0  0  0  0  0  0  0  0  0  0  0  0
  154.1739  142.2182  159.6740 H   0  0  0  0  0  0  0  0  0  0  0  0
  151.5618  141.8574  161.2371 H   0  0  0  0  0  0  0  0  0  0  0  0
  153.1712  141.7055  161.9033 H   0  0  0  0  0  0  0  0  0  0  0  0
  152.1102  143.9600  162.3850 H   0  0  0  0  0  0  0  0  0  0  0  0
  153.6360  144.0752  161.5426 H   0  0  0  0  0  0  0  0  0  0  0  0
  150.8603  144.3699  160.3056 H   0  0  0  0  0  0  0  0  0  0  0  0
  152.0779  145.6141  160.4625 H   0  0  0  0  0  0  0  0  0  0  0  0
  153.5800  144.3755  158.8944 H   0  0  0  0  0  0  0  0  0  0  0  0
  152.0623  144.7335  158.1424 H   0  0  0  0  0  0  0  0  0  0  0  0
  147.4588  141.5019  156.5379 H   0  0  0  0  0  0  0  0  0  0  0  0
  1  2  1  0  0  0  0
  1 23  1  0  0  0  0
  1 24  1  0  0  0  0
  1 25  1  0  0  0  0
  2 22  1  0  0  0  0
  2  3  2  0  0  0  0
  3  4  1  0  0  0  0
  3 26  1  0  0  0  0
  4  5  2  0  0  0  0
  4 27  1  0  0  0  0
  5  6  1  0  0  0  0
  5 21  1  0  0  0  0
  6  7  1  0  0  0  0
  6 28  1  0  0  0  0
  6 29  1  0  0  0  0
  7  8  1  0  0  0  0
  7 30  1  0  0  0  0
  7 31  1  0  0  0  0
  8  9  1  0  0  0  0
  8 32  1  0  0  0  0
  9 10  2  0  0  0  0
  9 11  1  0  0  0  0
 11 12  1  0  0  0  0
 11 33  1  0  0  0  0
 12 13  1  0  0  0  0
 12 34  1  0  0  0  0
 12 35  1  0  0  0  0
 13 14  2  0  0  0  0
 13 15  1  0  0  0  0
 15 20  1  0  0  0  0
 15 16  1  0  0  0  0
 16 17  1  0  0  0  0
 16 36  1  0  0  0  0
 16 37  1  0  0  0  0
 17 18  1  0  0  0  0
 17 38  1  0  0  0  0
 17 39  1  0  0  0  0
 18 19  1  0  0  0  0
 18 40  1  0  0  0  0
 18 41  1  0  0  0  0
 19 20  1  0  0  0  0
 19 42  1  0  0  0  0
 19 43  1  0  0  0  0
 20 44  1  0  0  0  0
 20 45  1  0  0  0  0
 21 22  2  0  0  0  0
 21 46  1  0  0  0  0
M  END
> <s_m_source_file>
AV-unprocessed.smi

> <i_m_source_file_index>
792

> <i_lp_mmshare_version>
43012

> <i_f3d_flags>
0

> <s_epik_input>
W0NIM11jMVtjSF1bY0hdYyhbY0hdbjEpW0NIMl1bQ0gyXVtOSF1DKD1PKVtOSF1bQ0gyXUMoPU8pTjJbQ0gyXVtDSDJdW0NIMl1bQ0gyXVtDSDJdMg==

> <s_epik_cmdline>
J2VwaWtfcHl0aG9uJywgJy1waCcsICc3LjAnLCAnLXRuJywgJzgnLCAnLW1hJywgJzIwMCcsICctbWV0YWxfYmluZGluZycsICctaW1hZScsICc8aW5maWxlLm1hZT4nLCAnLW9tYWUnLCAnPG91dGZpbGUubWFlPic=

> <r_epik_Ionization_Penalty>
0.0629971

> <r_epik_Ionization_Penalty_Charging>
0

> <r_epik_Ionization_Penalty_Neutral>
0.0629971

> <r_epik_State_Penalty>
0.0547377

> <r_epik_Charging_Adjusted_Penalty>
0.0547377

> <i_epik_Tot_Q>
0

> <i_epik_Tot_abs_Q>
0

> <r_epik_Metal_State_Penalty>
0.0494478

> <b_epik_Metal_Only>
0

> <s_lp_Force_Field>
OPLS_2005

> <r_lp_Energy>
16.0081

> <b_lp_Chiralities_Consistent>
1

> <s_lp_Variant>
AV-unprocessed.smi:792-1

> <Gold.Version>
5.8.1

> <Gold.Id.Protein>
6NUR|6NUR_protein|mol2

> <Gold.PLP.Fitness>
47.2279

> <Gold.PLP.PLP>
-46.3463

> <Gold.PLP.part.hbond>
-1.0000

> <Gold.PLP.part.metal>
0.0000

> <Gold.PLP.part.buried>
-6.2927

> <Gold.PLP.part.nonpolar>
-39.4548

> <Gold.PLP.part.repulsive>
0.7090

> <Gold.PLP.ligand.clash>
0.0000

> <Gold.PLP.ligand.torsion>
0.5197

> <Gold.PLP.Chemscore.Hbond>
0.6334

> <Gold.PLP.Chemscore.CHOScore>
0.0000

> <Gold.PLP.Chemscore.Metal>
0.0000

> <Gold.Chemscore.Hbonds>
donor molecule, donor type, donor heavy atom, donor atom, acceptor molecule, acceptor atom, score
      P1  H  7989  7998       L1    10  0.62

> <Gold.PLP.Chemscore.Internal.Correction>
0.0210

> <Gold.Rescore>
     Score         DG    S(hbond)    S(metal)    S(lipo)     H(rot)  DE(clash)    DE(int)     intcor
     11.77     -16.00       0.77        0.00     106.74       1.78       0.19       4.05       ----

> <Gold.Chemscore.Fitness>
11.7659

> <Gold.Chemscore.DG>
-16.0022

> <Gold.Chemscore.ZeroCoef>
-5.4800

> <Gold.Chemscore.Hbond>
0.7720

> <Gold.Chemscore.Metal>
0.0000

> <Gold.Chemscore.Lipo>
106.7351

> <Gold.Chemscore.Internal_Hbond>
0.0000

> <Gold.Chemscore.DEClash>
0.1909

> <Gold.Chemscore.DEInternal>
4.0454

> <Gold.Chemscore.Rot>
1.7751

> <Gold.Chemscore.Internal.Correction>
   9.000000E+99

> <Gold.Chemscore.Hbonds>
donor molecule, donor type, donor heavy atom, donor atom, acceptor molecule, acceptor atom, score
      P1  H  7989  7998       L1    10  0.59

> <Gold.Chemscore.Hbond.Weighted>
-2.5784

> <Gold.Chemscore.Metal.Weighted>
-0.0000

> <Gold.Chemscore.Lipo.Weighted>
-12.4880

> <Gold.Chemscore.Internal_Hbond.Weighted>
0.0000

> <Gold.Chemscore.DEClash.Weighted>
0.1909

> <Gold.Chemscore.DEInternal.Weighted>
4.0454

> <Gold.Chemscore.Rot.Weighted>
4.5441

> <Gold.Chemscore.Internal.Correction.Weighted>
   9.000000E+99

> <Gold.Protein.RotatedTorsions>
[ 6907 6896 6895 6894 ] final   60.46 input  -60.11 | X-H torsion
[ 7974 7965 7964 7962 ] final  -85.46 input  175.53 | X-H torsion
[ 8008 7997 7996 7995 ] final  -50.85 input   59.86 | X-H torsion
[ 10167 10162 10161 10158 ] final   93.69 input  -65.29 | X-H torsion
[ 10718 10713 10712 10709 ] final  -19.40 input   66.30 | X-H torsion
[ 10763 10752 10751 10750 ] final -116.90 input  -60.55 | X-H torsion
[ 11005 11000 10999 10996 ] final  116.59 input  -57.11 | X-H torsion

> <Gold.Protein.ActiveResidues>
 VAL166  LYS551  ARG553  GLY616  TRP617  ASP618  TYR619  PRO620  LYS621  CYS622 
 ASP623  PHE694  ASN695  SER759  ASP760  ASP761  ALA762  ILE779  LEU786  VAL792 
 PHE793  MET794  SER795  GLU796  ALA797  LYS798  CYS799  TRP800  GLU811  SER814 

> <Gold.Protein.RotatedAtoms>
  152.4005  134.6294  160.0071 H   0  0  0  0  0  0  0  0  0  0  0  0  # atno 6907 bound_to 6896
  151.6501  133.3316  159.3158 H   0  0  0  0  0  0  0  0  0  0  0  0  # atno 6908 bound_to 6896
  150.7906  134.6969  159.6573 H   0  0  0  0  0  0  0  0  0  0  0  0  # atno 6909 bound_to 6896
  145.4929  140.9552  143.1802 H   0  0  0  0  0  0  0  0  0  0  0  0  # atno 7974 bound_to 7965
  154.4070  140.1262  156.4733 H   0  0  0  0  0  0  0  0  0  0  0  0  # atno 8008 bound_to 7997
  155.7158  140.3493  155.4974 H   0  0  0  0  0  0  0  0  0  0  0  0  # atno 8009 bound_to 7997
  155.9259  140.1061  157.1160 H   0  0  0  0  0  0  0  0  0  0  0  0  # atno 8010 bound_to 7997
  139.8155  144.6754  150.9585 H   0  0  0  0  0  0  0  0  0  0  0  0  # atno 10167 bound_to 10162
  156.5461  130.4690  149.6475 H   0  0  0  0  0  0  0  0  0  0  0  0  # atno 10718 bound_to 10713
  154.8536  135.4329  154.1894 H   0  0  0  0  0  0  0  0  0  0  0  0  # atno 10763 bound_to 10752
  153.2966  135.6965  153.7248 H   0  0  0  0  0  0  0  0  0  0  0  0  # atno 10764 bound_to 10752
  153.6394  135.3470  155.3041 H   0  0  0  0  0  0  0  0  0  0  0  0  # atno 10765 bound_to 10752
  139.9046  134.9600  156.7221 H   0  0  0  0  0  0  0  0  0  0  0  0  # atno 11005 bound_to 11000
  144.7823  139.6499  143.7149 LP  0  0  0  0  0  0  0  0  0  0  0  0  # atno 17320 bound_to 7965
  146.2273  139.5747  142.9579 LP  0  0  0  0  0  0  0  0  0  0  0  0  # atno 17321 bound_to 7965
  140.7816  143.4142  151.0943 LP  0  0  0  0  0  0  0  0  0  0  0  0  # atno 17342 bound_to 10162
  139.7806  143.8361  152.3137 LP  0  0  0  0  0  0  0  0  0  0  0  0  # atno 17343 bound_to 10162
  156.2927  130.7133  151.1986 LP  0  0  0  0  0  0  0  0  0  0  0  0  # atno 17370 bound_to 10713
  157.7396  131.0527  150.5219 LP  0  0  0  0  0  0  0  0  0  0  0  0  # atno 17371 bound_to 10713
  140.6992  133.9321  155.8014 LP  0  0  0  0  0  0  0  0  0  0  0  0  # atno 17394 bound_to 11000
  141.0384  134.0657  157.3932 LP  0  0  0  0  0  0  0  0  0  0  0  0  # atno 17395 bound_to 11000

$$$$
