AV-unprocessed.smi:1302|AV-procd|sdf|5427|dock4
  -GOLD-   22720 4583D 1   1.00000     0.00000
 Structure written by MMmdl.
 43 44  0  0  0  0  0  0  0  0  1 V2000
  146.8061  139.3357  151.5337 C   0  0  0  0  0  0  0  0  0  0  0  0
  147.0457  138.4475  152.7619 C   0  0  0  0  0  0  0  0  0  0  0  0
  145.7245  137.9476  153.3672 C   0  0  0  0  0  0  0  0  0  0  0  0
  147.8134  139.1919  153.7561 N   0  0  0  0  0  0  0  0  0  0  0  0
  147.3454  140.2058  154.5029 C   0  0  0  0  0  0  0  0  0  0  0  0
  146.2000  140.6478  154.4100 O   0  0  0  0  0  0  0  0  0  0  0  0
  148.3388  140.8364  155.4357 C   0  0  0  0  0  0  0  0  0  0  0  0
  149.7116  140.8652  155.1124 C   0  0  0  0  0  0  0  0  0  0  0  0
  150.6133  141.4835  155.9997 C   0  0  0  0  0  0  0  0  0  0  0  0
  150.1203  142.0671  157.1903 C   0  0  0  0  0  0  0  0  0  0  0  0
  151.0080  142.6878  158.0950 N   0  0  0  0  0  0  0  0  0  0  0  0
  151.7219  143.8516  157.5772 C   0  0  0  0  0  0  0  0  0  0  0  0
  152.3989  144.6384  158.7168 C   0  0  1  0  0  0  0  0  0  0  0  0
  151.4133  145.4746  159.5526 C   0  0  0  0  0  0  0  0  0  0  0  0
  153.1849  143.7607  159.5261 O   0  0  0  0  0  0  0  0  0  0  0  0
  152.4706  142.6545  160.0762 C   0  0  2  0  0  0  0  0  0  0  0  0
  153.4527  141.8203  160.9051 C   0  0  0  0  0  0  0  0  0  0  0  0
  151.8381  141.8332  158.9391 C   0  0  0  0  0  0  0  0  0  0  0  0
  148.7982  142.0551  157.4909 N   0  0  0  0  0  0  0  0  0  0  0  0
  147.9377  141.4611  156.6375 C   0  0  0  0  0  0  0  0  0  0  0  0
  146.2579  138.7956  150.7612 H   0  0  0  0  0  0  0  0  0  0  0  0
  147.7495  139.6656  151.0971 H   0  0  0  0  0  0  0  0  0  0  0  0
  146.2283  140.2241  151.7915 H   0  0  0  0  0  0  0  0  0  0  0  0
  147.6286  137.5834  152.4372 H   0  0  0  0  0  0  0  0  0  0  0  0
  145.1449  137.3879  152.6326 H   0  0  0  0  0  0  0  0  0  0  0  0
  145.1079  138.7769  153.7154 H   0  0  0  0  0  0  0  0  0  0  0  0
  145.9024  137.2858  154.2155 H   0  0  0  0  0  0  0  0  0  0  0  0
  148.7762  138.9159  153.8844 H   0  0  0  0  0  0  0  0  0  0  0  0
  150.0776  140.4200  154.1984 H   0  0  0  0  0  0  0  0  0  0  0  0
  151.6636  141.5157  155.7514 H   0  0  0  0  0  0  0  0  0  0  0  0
  152.4801  143.4995  156.8765 H   0  0  0  0  0  0  0  0  0  0  0  0
  151.0673  144.5181  157.0171 H   0  0  0  0  0  0  0  0  0  0  0  0
  153.0996  145.3400  158.2632 H   0  0  0  0  0  0  0  0  0  0  0  0
  150.9254  146.2279  158.9337 H   0  0  0  0  0  0  0  0  0  0  0  0
  151.9309  145.9956  160.3582 H   0  0  0  0  0  0  0  0  0  0  0  0
  150.6269  144.8655  159.9974 H   0  0  0  0  0  0  0  0  0  0  0  0
  151.6889  143.0166  160.7444 H   0  0  0  0  0  0  0  0  0  0  0  0
  152.9542  140.9635  161.3591 H   0  0  0  0  0  0  0  0  0  0  0  0
  153.8877  142.4152  161.7084 H   0  0  0  0  0  0  0  0  0  0  0  0
  154.2700  141.4445  160.2886 H   0  0  0  0  0  0  0  0  0  0  0  0
  151.2388  141.0279  159.3663 H   0  0  0  0  0  0  0  0  0  0  0  0
  152.6159  141.3729  158.3279 H   0  0  0  0  0  0  0  0  0  0  0  0
  146.8987  141.4930  156.9315 H   0  0  0  0  0  0  0  0  0  0  0  0
  1  2  1  0  0  0  0
  1 21  1  0  0  0  0
  1 22  1  0  0  0  0
  1 23  1  0  0  0  0
  2  3  1  0  0  0  0
  2  4  1  0  0  0  0
  2 24  1  0  0  0  0
  3 25  1  0  0  0  0
  3 26  1  0  0  0  0
  3 27  1  0  0  0  0
  4  5  1  0  0  0  0
  4 28  1  0  0  0  0
  5  6  2  0  0  0  0
  5  7  1  0  0  0  0
  7 20  1  0  0  0  0
  7  8  2  0  0  0  0
  8  9  1  0  0  0  0
  8 29  1  0  0  0  0
  9 10  2  0  0  0  0
  9 30  1  0  0  0  0
 10 11  1  0  0  0  0
 10 19  1  0  0  0  0
 11 18  1  0  0  0  0
 11 12  1  0  0  0  0
 12 13  1  0  0  0  0
 12 31  1  0  0  0  0
 12 32  1  0  0  0  0
 13 14  1  0  0  0  0
 13 15  1  0  0  0  0
 13 33  1  0  0  0  0
 14 34  1  0  0  0  0
 14 35  1  0  0  0  0
 14 36  1  0  0  0  0
 15 16  1  0  0  0  0
 16 17  1  0  0  0  0
 16 18  1  0  0  0  0
 16 37  1  0  0  0  0
 17 38  1  0  0  0  0
 17 39  1  0  0  0  0
 17 40  1  0  0  0  0
 18 41  1  0  0  0  0
 18 42  1  0  0  0  0
 19 20  2  0  0  0  0
 20 43  1  0  0  0  0
M  END
> <s_m_source_file>
AV-unprocessed.smi

> <i_m_source_file_index>
1302

> <i_lp_mmshare_version>
43012

> <i_f3d_flags>
0

> <s_epik_input>
W0NIM11bQ0hdKFtDSDNdKVtOSF1DKD1PKWMxW2NIXVtjSF1jKG5bY0hdMSlOMltDSDJdW0NAQEhdKFtDSDNdKU9bQ0BASF0oW0NIM10pW0NIMl0y

> <s_epik_cmdline>
J2VwaWtfcHl0aG9uJywgJy1waCcsICc3LjAnLCAnLXRuJywgJzgnLCAnLW1hJywgJzIwMCcsICctbWV0YWxfYmluZGluZycsICctaW1hZScsICc8aW5maWxlLm1hZT4nLCAnLW9tYWUnLCAnPG91dGZpbGUubWFlPic=

> <r_lp_tautomer_probability>
1

> <r_epik_Ionization_Penalty>
2.23089e-05

> <r_epik_Ionization_Penalty_Charging>
0

> <r_epik_Ionization_Penalty_Neutral>
2.23089e-05

> <r_epik_State_Penalty>
-0

> <r_epik_Charging_Adjusted_Penalty>
0

> <i_epik_Tot_Q>
0

> <i_epik_Tot_abs_Q>
0

> <r_epik_Metal_State_Penalty>
-0

> <b_epik_Metal_Only>
0

> <s_lp_Force_Field>
OPLS_2005

> <r_lp_Energy>
20.4022

> <b_lp_Chiralities_Consistent>
1

> <s_lp_Variant>
AV-unprocessed.smi:1302-3

> <Gold.Version>
5.8.1

> <Gold.Id.Protein>
6NUR|6NUR_protein|mol2

> <Gold.PLP.Fitness>
39.6985

> <Gold.PLP.PLP>
-40.7457

> <Gold.PLP.part.hbond>
-1.0000

> <Gold.PLP.part.metal>
0.0000

> <Gold.PLP.part.buried>
0.4194

> <Gold.PLP.part.nonpolar>
-39.4918

> <Gold.PLP.part.repulsive>
0.3838

> <Gold.PLP.ligand.clash>
0.0000

> <Gold.PLP.ligand.torsion>
0.6917

> <Gold.PLP.Chemscore.Hbond>
0.0000

> <Gold.PLP.Chemscore.CHOScore>
0.0000

> <Gold.PLP.Chemscore.Metal>
0.0000

> <Gold.PLP.Chemscore.Internal.Correction>
0.3362

> <Gold.Rescore>
     Score         DG    S(hbond)    S(metal)    S(lipo)     H(rot)  DE(clash)    DE(int)     intcor
     13.57     -15.97       0.00        0.00     114.88       1.15       0.57       1.83       ----

> <Gold.Chemscore.Fitness>
13.5664

> <Gold.Chemscore.DG>
-15.9749

> <Gold.Chemscore.ZeroCoef>
-5.4800

> <Gold.Chemscore.Hbond>
0.0000

> <Gold.Chemscore.Metal>
0.0000

> <Gold.Chemscore.Lipo>
114.8807

> <Gold.Chemscore.Internal_Hbond>
0.0000

> <Gold.Chemscore.DEClash>
0.5750

> <Gold.Chemscore.DEInternal>
1.8335

> <Gold.Chemscore.Rot>
1.1508

> <Gold.Chemscore.Internal.Correction>
   9.000000E+99

> <Gold.Chemscore.Hbond.Weighted>
-0.0000

> <Gold.Chemscore.Metal.Weighted>
-0.0000

> <Gold.Chemscore.Lipo.Weighted>
-13.4410

> <Gold.Chemscore.Internal_Hbond.Weighted>
0.0000

> <Gold.Chemscore.DEClash.Weighted>
0.5750

> <Gold.Chemscore.DEInternal.Weighted>
1.8335

> <Gold.Chemscore.Rot.Weighted>
2.9461

> <Gold.Chemscore.Internal.Correction.Weighted>
   9.000000E+99

> <Gold.Protein.RotatedTorsions>
[ 6907 6896 6895 6894 ] final  154.64 input  -60.11 | X-H torsion
[ 7974 7965 7964 7962 ] final   95.13 input  175.53 | X-H torsion
[ 8008 7997 7996 7995 ] final  -18.35 input   59.86 | X-H torsion
[ 10167 10162 10161 10158 ] final   55.77 input  -65.29 | X-H torsion
[ 10718 10713 10712 10709 ] final  -31.95 input   66.30 | X-H torsion
[ 10763 10752 10751 10750 ] final   -7.37 input  -60.55 | X-H torsion
[ 11005 11000 10999 10996 ] final  169.37 input  -57.11 | X-H torsion

> <Gold.Protein.ActiveResidues>
 VAL166  LYS551  ARG553  GLY616  TRP617  ASP618  TYR619  PRO620  LYS621  CYS622 
 ASP623  PHE694  ASN695  SER759  ASP760  ASP761  ALA762  ILE779  LEU786  VAL792 
 PHE793  MET794  SER795  GLU796  ALA797  LYS798  CYS799  TRP800  GLU811  SER814 

> <Gold.Protein.RotatedAtoms>
  152.0556  133.4038  159.4395 H   0  0  0  0  0  0  0  0  0  0  0  0  # atno 6907 bound_to 6896
  150.6868  134.3259  159.4815 H   0  0  0  0  0  0  0  0  0  0  0  0  # atno 6908 bound_to 6896
  152.1074  134.9298  160.0618 H   0  0  0  0  0  0  0  0  0  0  0  0  # atno 6909 bound_to 6896
  145.4563  139.2290  143.3012 H   0  0  0  0  0  0  0  0  0  0  0  0  # atno 7974 bound_to 7965
  154.4912  140.2118  155.9544 H   0  0  0  0  0  0  0  0  0  0  0  0  # atno 8008 bound_to 7997
  156.1308  140.3197  155.8315 H   0  0  0  0  0  0  0  0  0  0  0  0  # atno 8009 bound_to 7997
  155.4300  140.0503  157.3010 H   0  0  0  0  0  0  0  0  0  0  0  0  # atno 8010 bound_to 7997
  140.2159  144.3840  150.6470 H   0  0  0  0  0  0  0  0  0  0  0  0  # atno 10167 bound_to 10162
  156.3809  130.4356  149.7469 H   0  0  0  0  0  0  0  0  0  0  0  0  # atno 10718 bound_to 10713
  153.4253  135.7011  153.6266 H   0  0  0  0  0  0  0  0  0  0  0  0  # atno 10763 bound_to 10752
  153.4704  135.3716  155.2388 H   0  0  0  0  0  0  0  0  0  0  0  0  # atno 10764 bound_to 10752
  154.8723  135.4041  154.3628 H   0  0  0  0  0  0  0  0  0  0  0  0  # atno 10765 bound_to 10752
  140.2970  134.7626  157.3885 H   0  0  0  0  0  0  0  0  0  0  0  0  # atno 11005 bound_to 11000
  146.2476  140.5328  142.8907 LP  0  0  0  0  0  0  0  0  0  0  0  0  # atno 17320 bound_to 7965
  144.8030  140.6248  143.6465 LP  0  0  0  0  0  0  0  0  0  0  0  0  # atno 17321 bound_to 7965
  140.6290  143.2185  151.6535 LP  0  0  0  0  0  0  0  0  0  0  0  0  # atno 17342 bound_to 10162
  139.5162  144.3353  152.0789 LP  0  0  0  0  0  0  0  0  0  0  0  0  # atno 17343 bound_to 10162
  156.4560  130.7929  151.2950 LP  0  0  0  0  0  0  0  0  0  0  0  0  # atno 17370 bound_to 10713
  157.7492  131.0080  150.3213 LP  0  0  0  0  0  0  0  0  0  0  0  0  # atno 17371 bound_to 10713
  140.1143  134.5304  155.8238 LP  0  0  0  0  0  0  0  0  0  0  0  0  # atno 17394 bound_to 11000
  141.2135  133.6735  156.6748 LP  0  0  0  0  0  0  0  0  0  0  0  0  # atno 17395 bound_to 11000

$$$$
