AV-unprocessed.smi:1372|AV-procd|sdf|5582|dock7
  -GOLD-   22720 5183D 1   1.00000     0.00000
 Structure written by MMmdl.
 41 43  0  0  0  0  0  0  0  0  1 V2000
  153.7046  138.9450  161.0606 C   0  0  0  0  0  0  0  0  0  0  0  0
  153.0907  138.1882  159.5009 S   0  0  0  0  0  0  0  0  0  0  0  0
  153.9705  138.6190  158.4036 O   0  0  0  0  0  0  0  0  0  0  0  0
  152.8726  136.7533  159.7385 O   0  0  0  0  0  0  0  0  0  0  0  0
  151.4497  139.0168  159.3047 C   0  0  0  0  0  0  0  0  0  0  0  0
  151.5815  140.5086  159.1647 C   0  0  0  0  0  0  0  0  0  0  0  0
  152.1915  141.2661  160.0789 N   0  0  0  0  0  0  0  0  0  0  0  0
  152.0837  142.5371  159.5523 C   0  0  0  0  0  0  0  0  0  0  0  0
  152.5445  143.7787  160.0454 C   0  0  0  0  0  0  0  0  0  0  0  0
  152.3103  144.9657  159.3203 C   0  0  0  0  0  0  0  0  0  0  0  0
  151.6127  144.9278  158.0956 C   0  0  0  0  0  0  0  0  0  0  0  0
  151.1448  143.7006  157.5877 C   0  0  0  0  0  0  0  0  0  0  0  0
  151.3831  142.5189  158.3147 C   0  0  0  0  0  0  0  0  0  0  0  0
  151.0671  141.1808  158.1011 N   0  0  0  0  0  0  0  0  0  0  0  0
  150.3301  140.6597  156.9563 C   0  0  0  0  0  0  0  0  0  0  0  0
  149.2783  141.6569  156.4280 C   0  0  2  0  0  0  0  0  0  0  0  0
  148.3923  141.9649  157.4849 O   0  0  0  0  0  0  0  0  0  0  0  0
  148.5500  141.1430  155.1935 C   0  0  0  0  0  0  0  0  0  0  0  0
  148.7631  139.8190  154.7534 C   0  0  0  0  0  0  0  0  0  0  0  0
  148.0822  139.3273  153.6232 C   0  0  0  0  0  0  0  0  0  0  0  0
  147.1787  140.1546  152.9293 C   0  0  0  0  0  0  0  0  0  0  0  0
  146.9598  141.4757  153.3637 C   0  0  0  0  0  0  0  0  0  0  0  0
  147.6448  141.9698  154.4908 C   0  0  0  0  0  0  0  0  0  0  0  0
  154.6902  138.5424  161.2935 H   0  0  0  0  0  0  0  0  0  0  0  0
  153.0179  138.7110  161.8739 H   0  0  0  0  0  0  0  0  0  0  0  0
  153.7743  140.0258  160.9405 H   0  0  0  0  0  0  0  0  0  0  0  0
  150.9814  138.5874  158.4228 H   0  0  0  0  0  0  0  0  0  0  0  0
  150.8303  138.7800  160.1693 H   0  0  0  0  0  0  0  0  0  0  0  0
  153.0795  143.8171  160.9826 H   0  0  0  0  0  0  0  0  0  0  0  0
  152.6671  145.9094  159.7061 H   0  0  0  0  0  0  0  0  0  0  0  0
  151.4369  145.8413  157.5463 H   0  0  0  0  0  0  0  0  0  0  0  0
  150.6105  143.6679  156.6500 H   0  0  0  0  0  0  0  0  0  0  0  0
  151.0192  140.3539  156.1694 H   0  0  0  0  0  0  0  0  0  0  0  0
  149.8330  139.7450  157.2824 H   0  0  0  0  0  0  0  0  0  0  0  0
  149.7751  142.5926  156.1684 H   0  0  0  0  0  0  0  0  0  0  0  0
  148.0006  141.1607  157.7899 H   0  0  0  0  0  0  0  0  0  0  0  0
  149.4444  139.1723  155.2873 H   0  0  0  0  0  0  0  0  0  0  0  0
  148.2465  138.3118  153.2942 H   0  0  0  0  0  0  0  0  0  0  0  0
  146.6521  139.7745  152.0663 H   0  0  0  0  0  0  0  0  0  0  0  0
  146.2645  142.1097  152.8336 H   0  0  0  0  0  0  0  0  0  0  0  0
  147.4640  142.9827  154.8198 H   0  0  0  0  0  0  0  0  0  0  0  0
  1  2  1  0  0  0  0
  1 24  1  0  0  0  0
  1 25  1  0  0  0  0
  1 26  1  0  0  0  0
  2  3  2  0  0  0  0
  2  4  2  0  0  0  0
  2  5  1  0  0  0  0
  5  6  1  0  0  0  0
  5 27  1  0  0  0  0
  5 28  1  0  0  0  0
  6 14  1  0  0  0  0
  6  7  2  0  0  0  0
  7  8  1  0  0  0  0
  8 13  2  0  0  0  0
  8  9  1  0  0  0  0
  9 10  2  0  0  0  0
  9 29  1  0  0  0  0
 10 11  1  0  0  0  0
 10 30  1  0  0  0  0
 11 12  2  0  0  0  0
 11 31  1  0  0  0  0
 12 13  1  0  0  0  0
 12 32  1  0  0  0  0
 13 14  1  0  0  0  0
 14 15  1  0  0  0  0
 15 16  1  0  0  0  0
 15 33  1  0  0  0  0
 15 34  1  0  0  0  0
 16 17  1  0  0  0  0
 16 18  1  0  0  0  0
 16 35  1  0  0  0  0
 17 36  1  0  0  0  0
 18 23  1  0  0  0  0
 18 19  2  0  0  0  0
 19 20  1  0  0  0  0
 19 37  1  0  0  0  0
 20 21  2  0  0  0  0
 20 38  1  0  0  0  0
 21 22  1  0  0  0  0
 21 39  1  0  0  0  0
 22 23  2  0  0  0  0
 22 40  1  0  0  0  0
 23 41  1  0  0  0  0
M  END
> <s_m_source_file>
AV-unprocessed.smi

> <i_m_source_file_index>
1372

> <i_lp_mmshare_version>
43012

> <i_f3d_flags>
0

> <s_epik_input>
W2NIXTFbY0hdW2NIXVtjSF1jKGMxMiluKGMobjIpW0NIMl1TKD1PKSg9TylbQ0gzXSlbQ0gyXVtDQEhdKFtPSF0pYzNbY0hdW2NIXVtjSF1bY0hdW2NIXTM=

> <s_epik_cmdline>
J2VwaWtfcHl0aG9uJywgJy1waCcsICc3LjAnLCAnLXRuJywgJzgnLCAnLW1hJywgJzIwMCcsICctbWV0YWxfYmluZGluZycsICctaW1hZScsICc8aW5maWxlLm1hZT4nLCAnLW9tYWUnLCAnPG91dGZpbGUubWFlPic=

> <r_epik_Ionization_Penalty>
0.0151431

> <r_epik_Ionization_Penalty_Charging>
0

> <r_epik_Ionization_Penalty_Neutral>
0.0151431

> <r_epik_State_Penalty>
0.0118835

> <r_epik_Charging_Adjusted_Penalty>
0.0118835

> <i_epik_Tot_Q>
0

> <i_epik_Tot_abs_Q>
0

> <r_epik_Metal_State_Penalty>
1.20034e-05

> <b_epik_Metal_Only>
0

> <s_lp_Force_Field>
OPLS_2005

> <r_lp_Energy>
10.1971

> <b_lp_Chiralities_Consistent>
1

> <s_lp_Variant>
AV-unprocessed.smi:1372-1

> <Gold.Version>
5.8.1

> <Gold.Id.Protein>
6NUR|6NUR_protein|mol2

> <Gold.PLP.Fitness>
49.6629

> <Gold.PLP.PLP>
-44.5175

> <Gold.PLP.part.hbond>
-2.0000

> <Gold.PLP.part.metal>
0.0000

> <Gold.PLP.part.buried>
-4.7913

> <Gold.PLP.part.nonpolar>
-38.4903

> <Gold.PLP.part.repulsive>
0.0000

> <Gold.PLP.ligand.clash>
0.0000

> <Gold.PLP.ligand.torsion>
0.4835

> <Gold.PLP.Chemscore.Hbond>
2.0000

> <Gold.PLP.Chemscore.CHOScore>
0.0000

> <Gold.PLP.Chemscore.Metal>
0.0000

> <Gold.Chemscore.Hbonds>
donor molecule, donor type, donor heavy atom, donor atom, acceptor molecule, acceptor atom, score
      P1  H  6896  6907       L1     4  1.00
      P1  H  7997  8010       L1     3  1.00

> <Gold.PLP.Chemscore.Internal.Correction>
0.1123

> <Gold.Rescore>
     Score         DG    S(hbond)    S(metal)    S(lipo)     H(rot)  DE(clash)    DE(int)     intcor
     19.01     -20.78       1.95        0.00     126.00       2.33       0.11       1.67       ----

> <Gold.Chemscore.Fitness>
19.0077

> <Gold.Chemscore.DG>
-20.7838

> <Gold.Chemscore.ZeroCoef>
-5.4800

> <Gold.Chemscore.Hbond>
1.9546

> <Gold.Chemscore.Metal>
0.0000

> <Gold.Chemscore.Lipo>
125.9970

> <Gold.Chemscore.Internal_Hbond>
0.0000

> <Gold.Chemscore.DEClash>
0.1106

> <Gold.Chemscore.DEInternal>
1.6655

> <Gold.Chemscore.Rot>
2.3306

> <Gold.Chemscore.Internal.Correction>
   9.000000E+99

> <Gold.Chemscore.Hbonds>
donor molecule, donor type, donor heavy atom, donor atom, acceptor molecule, acceptor atom, score
      P1  H  6896  6907       L1     4  0.99
      P1  H  7997  8010       L1     3  0.94

> <Gold.Chemscore.Hbond.Weighted>
-6.5285

> <Gold.Chemscore.Metal.Weighted>
-0.0000

> <Gold.Chemscore.Lipo.Weighted>
-14.7417

> <Gold.Chemscore.Internal_Hbond.Weighted>
0.0000

> <Gold.Chemscore.DEClash.Weighted>
0.1106

> <Gold.Chemscore.DEInternal.Weighted>
1.6655

> <Gold.Chemscore.Rot.Weighted>
5.9664

> <Gold.Chemscore.Internal.Correction.Weighted>
   9.000000E+99

> <Gold.Protein.RotatedTorsions>
[ 6907 6896 6895 6894 ] final   37.91 input  -60.11 | X-H torsion
[ 7974 7965 7964 7962 ] final  -94.83 input  175.53 | X-H torsion
[ 8008 7997 7996 7995 ] final   21.05 input   59.86 | X-H torsion
[ 10167 10162 10161 10158 ] final  -61.39 input  -65.29 | X-H torsion
[ 10718 10713 10712 10709 ] final   64.65 input   66.30 | X-H torsion
[ 10763 10752 10751 10750 ] final   20.40 input  -60.55 | X-H torsion
[ 11005 11000 10999 10996 ] final   95.83 input  -57.11 | X-H torsion

> <Gold.Protein.ActiveResidues>
 VAL166  LYS551  ARG553  GLY616  TRP617  ASP618  TYR619  PRO620  LYS621  CYS622 
 ASP623  PHE694  ASN695  SER759  ASP760  ASP761  ALA762  ILE779  LEU786  VAL792 
 PHE793  MET794  SER795  GLU796  ALA797  LYS798  CYS799  TRP800  GLU811  SER814 

> <Gold.Protein.RotatedAtoms>
  152.1495  134.8999  160.0548 H   0  0  0  0  0  0  0  0  0  0  0  0  # atno 6907 bound_to 6896
  152.0037  133.3830  159.4200 H   0  0  0  0  0  0  0  0  0  0  0  0  # atno 6908 bound_to 6896
  150.6874  134.3728  159.5043 H   0  0  0  0  0  0  0  0  0  0  0  0  # atno 6909 bound_to 6896
  145.3681  140.9501  143.2463 H   0  0  0  0  0  0  0  0  0  0  0  0  # atno 7974 bound_to 7965
  154.9448  140.3058  155.5103 H   0  0  0  0  0  0  0  0  0  0  0  0  # atno 8008 bound_to 7997
  156.2992  140.2329  156.4458 H   0  0  0  0  0  0  0  0  0  0  0  0  # atno 8009 bound_to 7997
  154.8111  140.0428  157.1332 H   0  0  0  0  0  0  0  0  0  0  0  0  # atno 8010 bound_to 7997
  140.6009  143.2361  151.5930 H   0  0  0  0  0  0  0  0  0  0  0  0  # atno 10167 bound_to 10162
  157.6053  130.9171  149.9873 H   0  0  0  0  0  0  0  0  0  0  0  0  # atno 10718 bound_to 10713
  153.1081  135.6690  153.9550 H   0  0  0  0  0  0  0  0  0  0  0  0  # atno 10763 bound_to 10752
  153.9101  135.3026  155.3450 H   0  0  0  0  0  0  0  0  0  0  0  0  # atno 10764 bound_to 10752
  154.7501  135.5038  153.9351 H   0  0  0  0  0  0  0  0  0  0  0  0  # atno 10765 bound_to 10752
  139.8786  134.8919  156.4069 H   0  0  0  0  0  0  0  0  0  0  0  0  # atno 11005 bound_to 11000
  144.8597  139.5196  143.6818 LP  0  0  0  0  0  0  0  0  0  0  0  0  # atno 17320 bound_to 7965
  146.2898  139.7106  142.9169 LP  0  0  0  0  0  0  0  0  0  0  0  0  # atno 17321 bound_to 7965
  139.5290  144.2971  152.1104 LP  0  0  0  0  0  0  0  0  0  0  0  0  # atno 17342 bound_to 10162
  140.2152  144.4523  150.6367 LP  0  0  0  0  0  0  0  0  0  0  0  0  # atno 17343 bound_to 10162
  156.1138  130.3649  150.0003 LP  0  0  0  0  0  0  0  0  0  0  0  0  # atno 17370 bound_to 10713
  156.8097  130.9320  151.3644 LP  0  0  0  0  0  0  0  0  0  0  0  0  # atno 17371 bound_to 10713
  140.9228  133.7633  155.9927 LP  0  0  0  0  0  0  0  0  0  0  0  0  # atno 17394 bound_to 11000
  140.8420  134.3055  157.5309 LP  0  0  0  0  0  0  0  0  0  0  0  0  # atno 17395 bound_to 11000

$$$$
