AV-unprocessed.smi:1433|AV-procd|sdf|5842|dock3
  -GOLD-   22720 5503D 1   1.00000     0.00000
 Structure written by MMmdl.
 45 46  0  0  0  0  0  0  0  0  2 V2000
  146.6365  130.3928  152.5394 C   0  0  0  0  0  0  0  0  0  0  0  0
  146.1578  131.8347  152.3402 C   0  0  1  0  0  0  0  0  0  0  0  0
  147.3351  132.8315  152.2860 C   0  0  0  0  0  0  0  0  0  0  0  0
  146.8591  134.2176  152.0229 N   0  3  2  0  0  0  0  0  0  0  0  0
  146.1835  134.9063  153.1770 C   0  0  2  0  0  0  0  0  0  0  0  0
  145.9389  136.4065  152.8832 C   0  0  0  0  0  0  0  0  0  0  0  0
  146.9830  134.7466  154.5019 C   0  0  0  0  0  0  0  0  0  0  0  0
  148.3778  135.1637  154.3885 N   0  0  0  0  0  0  0  0  0  0  0  0
  149.3211  134.9533  155.3205 C   0  0  0  0  0  0  0  0  0  0  0  0
  149.1004  134.3782  156.3863 O   0  0  0  0  0  0  0  0  0  0  0  0
  150.7220  135.4843  155.0113 C   0  0  0  0  0  0  0  0  0  0  0  0
  150.7835  136.9292  155.1409 N   0  0  0  0  0  0  0  0  0  0  0  0
  150.9639  137.8729  154.1507 C   0  0  0  0  0  0  0  0  0  0  0  0
  150.9530  139.0994  154.7506 C   0  0  0  0  0  0  0  0  0  0  0  0
  150.7572  138.8002  156.1280 C   0  0  0  0  0  0  0  0  0  0  0  0
  150.6573  137.5011  156.3585 N   0  0  0  0  0  0  0  0  0  0  0  0
  146.0883  134.1964  150.7491 C   0  0  0  0  0  0  0  0  0  0  0  0
  144.9217  133.1874  150.8189 C   0  0  1  0  0  0  0  0  0  0  0  0
  144.1556  133.1025  149.4945 C   0  0  0  0  0  0  0  0  0  0  0  0
  145.4462  131.8945  151.1073 O   0  0  0  0  0  0  0  0  0  0  0  0
  147.1803  130.2866  153.4784 H   0  0  0  0  0  0  0  0  0  0  0  0
  147.2987  130.0806  151.7313 H   0  0  0  0  0  0  0  0  0  0  0  0
  145.7934  129.7019  152.5645 H   0  0  0  0  0  0  0  0  0  0  0  0
  145.4829  132.0851  153.1596 H   0  0  0  0  0  0  0  0  0  0  0  0
  147.9562  132.7601  153.1752 H   0  0  0  0  0  0  0  0  0  0  0  0
  147.9983  132.5466  151.4677 H   0  0  0  0  0  0  0  0  0  0  0  0
  145.2066  134.4472  153.3237 H   0  0  0  0  0  0  0  0  0  0  0  0
  145.5346  136.9349  153.7460 H   0  0  0  0  0  0  0  0  0  0  0  0
  145.2062  136.5577  152.0918 H   0  0  0  0  0  0  0  0  0  0  0  0
  146.8621  136.9101  152.5951 H   0  0  0  0  0  0  0  0  0  0  0  0
  146.5537  135.3319  155.3132 H   0  0  0  0  0  0  0  0  0  0  0  0
  146.9654  133.7054  154.8254 H   0  0  0  0  0  0  0  0  0  0  0  0
  148.6470  135.6407  153.5401 H   0  0  0  0  0  0  0  0  0  0  0  0
  151.4462  135.0362  155.6929 H   0  0  0  0  0  0  0  0  0  0  0  0
  151.0177  135.2011  153.9999 H   0  0  0  0  0  0  0  0  0  0  0  0
  151.0830  137.5967  153.1132 H   0  0  0  0  0  0  0  0  0  0  0  0
  151.0666  140.0638  154.2783 H   0  0  0  0  0  0  0  0  0  0  0  0
  150.6851  139.4837  156.9613 H   0  0  0  0  0  0  0  0  0  0  0  0
  145.7425  135.1845  150.4530 H   0  0  0  0  0  0  0  0  0  0  0  0
  146.7684  133.8940  149.9512 H   0  0  0  0  0  0  0  0  0  0  0  0
  144.2174  133.4731  151.6010 H   0  0  0  0  0  0  0  0  0  0  0  0
  143.7169  134.0656  149.2326 H   0  0  0  0  0  0  0  0  0  0  0  0
  143.3453  132.3759  149.5589 H   0  0  0  0  0  0  0  0  0  0  0  0
  144.8106  132.7988  148.6772 H   0  0  0  0  0  0  0  0  0  0  0  0
  147.6864  134.7669  151.8380 H   0  0  0  0  0  0  0  0  0  0  0  0
  1  2  1  0  0  0  0
  1 21  1  0  0  0  0
  1 22  1  0  0  0  0
  1 23  1  0  0  0  0
  2 20  1  0  0  0  0
  2  3  1  0  0  0  0
  2 24  1  0  0  0  0
  3  4  1  0  0  0  0
  3 25  1  0  0  0  0
  3 26  1  0  0  0  0
  4  5  1  0  0  0  0
  4 17  1  0  0  0  0
  4 45  1  0  0  0  0
  5  6  1  0  0  0  0
  5  7  1  0  0  0  0
  5 27  1  0  0  0  0
  6 28  1  0  0  0  0
  6 29  1  0  0  0  0
  6 30  1  0  0  0  0
  7  8  1  0  0  0  0
  7 31  1  0  0  0  0
  7 32  1  0  0  0  0
  8  9  1  0  0  0  0
  8 33  1  0  0  0  0
  9 10  2  0  0  0  0
  9 11  1  0  0  0  0
 11 12  1  0  0  0  0
 11 34  1  0  0  0  0
 11 35  1  0  0  0  0
 12 16  1  0  0  0  0
 12 13  1  0  0  0  0
 13 14  2  0  0  0  0
 13 36  1  0  0  0  0
 14 15  1  0  0  0  0
 14 37  1  0  0  0  0
 15 16  2  0  0  0  0
 15 38  1  0  0  0  0
 17 18  1  0  0  0  0
 17 39  1  0  0  0  0
 17 40  1  0  0  0  0
 18 19  1  0  0  0  0
 18 20  1  0  0  0  0
 18 41  1  0  0  0  0
 19 42  1  0  0  0  0
 19 43  1  0  0  0  0
 19 44  1  0  0  0  0
M  CHG  1   4   1
M  END
> <s_m_source_file>
AV-unprocessed.smi

> <i_m_source_file_index>
1433

> <i_lp_mmshare_version>
43012

> <i_f3d_flags>
0

> <s_epik_input>
W0NIM11bQ0BASF0xW0NIMl1OKFtDSDJdW0NASF0oTzEpW0NIM10pW0NASF0oW0NIM10pW0NIMl1bTkhdQyg9TylbQ0gyXW4yW2NIXVtjSF1bY0hdbjI=

> <s_epik_cmdline>
J2VwaWtfcHl0aG9uJywgJy1waCcsICc3LjAnLCAnLXRuJywgJzgnLCAnLW1hJywgJzIwMCcsICctbWV0YWxfYmluZGluZycsICctaW1hZScsICc8aW5maWxlLm1hZT4nLCAnLW9tYWUnLCAnPG91dGZpbGUubWFlPic=

> <r_lp_tautomer_probability>
1

> <r_epik_Ionization_Penalty>
0.748405

> <r_epik_Ionization_Penalty_Charging>
0.748396

> <r_epik_Ionization_Penalty_Neutral>
8.54426e-06

> <r_epik_State_Penalty>
0.775162

> <r_epik_Charging_Adjusted_Penalty>
1.52356

> <i_epik_Tot_Q>
1

> <i_epik_Tot_abs_Q>
1

> <r_epik_Metal_State_Penalty>
0.775167

> <b_epik_Metal_Only>
0

> <s_lp_Force_Field>
OPLS_2005

> <r_lp_Energy>
22.2422

> <b_lp_Chiralities_Consistent>
1

> <s_lp_Variant>
AV-unprocessed.smi:1433-8

> <Gold.Version>
5.8.1

> <Gold.Id.Protein>
6NUR|6NUR_protein|mol2

> <Gold.PLP.Fitness>
42.2083

> <Gold.PLP.PLP>
-30.7051

> <Gold.PLP.part.hbond>
-2.0000

> <Gold.PLP.part.metal>
0.0000

> <Gold.PLP.part.buried>
-2.1517

> <Gold.PLP.part.nonpolar>
-24.9909

> <Gold.PLP.part.repulsive>
0.1477

> <Gold.PLP.ligand.clash>
0.0000

> <Gold.PLP.ligand.torsion>
0.3992

> <Gold.PLP.Chemscore.Hbond>
3.0000

> <Gold.PLP.Chemscore.CHOScore>
1.0768

> <Gold.PLP.Chemscore.Metal>
0.0000

> <Gold.Chemscore.Hbonds>
donor molecule, donor type, donor heavy atom, donor atom, acceptor molecule, acceptor atom, score
      L1  H     4    45       P1  7948  2.00
      L1  H     8    33       P1  7948  1.00
      L1  C    13    36       P1  7948  0.02
      L1  C    13    36       P1  7949  1.00

> <Gold.PLP.Chemscore.Internal.Correction>
0.0711

> <Gold.Rescore>
     Score         DG    S(hbond)    S(metal)    S(lipo)     H(rot)  DE(clash)    DE(int)     intcor
     15.03     -15.51       1.77        0.00      75.93       1.87       0.12       0.35       ----

> <Gold.Chemscore.Fitness>
15.0340

> <Gold.Chemscore.DG>
-15.5080

> <Gold.Chemscore.ZeroCoef>
-5.4800

> <Gold.Chemscore.Hbond>
1.7725

> <Gold.Chemscore.Metal>
0.0000

> <Gold.Chemscore.Lipo>
75.9319

> <Gold.Chemscore.Internal_Hbond>
0.0000

> <Gold.Chemscore.DEClash>
0.1200

> <Gold.Chemscore.DEInternal>
0.3540

> <Gold.Chemscore.Rot>
1.8657

> <Gold.Chemscore.Internal.Correction>
   9.000000E+99

> <Gold.Chemscore.Hbonds>
donor molecule, donor type, donor heavy atom, donor atom, acceptor molecule, acceptor atom, score
      L1  H     4    45       P1  7948  0.50
      L1  H     8    33       P1  7948  0.98

> <Gold.Chemscore.Hbond.Weighted>
-5.9201

> <Gold.Chemscore.Metal.Weighted>
-0.0000

> <Gold.Chemscore.Lipo.Weighted>
-8.8840

> <Gold.Chemscore.Internal_Hbond.Weighted>
0.0000

> <Gold.Chemscore.DEClash.Weighted>
0.1200

> <Gold.Chemscore.DEInternal.Weighted>
0.3540

> <Gold.Chemscore.Rot.Weighted>
4.7761

> <Gold.Chemscore.Internal.Correction.Weighted>
   9.000000E+99

> <Gold.Protein.RotatedTorsions>
[ 6907 6896 6895 6894 ] final  152.91 input  -60.11 | X-H torsion
[ 7974 7965 7964 7962 ] final   20.24 input  175.53 | X-H torsion
[ 8008 7997 7996 7995 ] final  119.44 input   59.86 | X-H torsion
[ 10167 10162 10161 10158 ] final   -3.78 input  -65.29 | X-H torsion
[ 10718 10713 10712 10709 ] final  -29.59 input   66.30 | X-H torsion
[ 10763 10752 10751 10750 ] final  -68.79 input  -60.55 | X-H torsion
[ 11005 11000 10999 10996 ] final    7.64 input  -57.11 | X-H torsion

> <Gold.Protein.ActiveResidues>
 VAL166  LYS551  ARG553  GLY616  TRP617  ASP618  TYR619  PRO620  LYS621  CYS622 
 ASP623  PHE694  ASN695  SER759  ASP760  ASP761  ALA762  ILE779  LEU786  VAL792 
 PHE793  MET794  SER795  GLU796  ALA797  LYS798  CYS799  TRP800  GLU811  SER814 

> <Gold.Protein.RotatedAtoms>
  152.0801  133.4148  159.4497 H   0  0  0  0  0  0  0  0  0  0  0  0  # atno 6907 bound_to 6896
  150.6862  134.2992  159.4708 H   0  0  0  0  0  0  0  0  0  0  0  0  # atno 6908 bound_to 6896
  152.0833  134.9456  160.0624 H   0  0  0  0  0  0  0  0  0  0  0  0  # atno 6909 bound_to 6896
  146.2119  139.8198  142.8682 H   0  0  0  0  0  0  0  0  0  0  0  0  # atno 7974 bound_to 7965
  156.2596  140.2853  156.0992 H   0  0  0  0  0  0  0  0  0  0  0  0  # atno 8008 bound_to 7997
  155.1379  140.0395  157.2808 H   0  0  0  0  0  0  0  0  0  0  0  0  # atno 8009 bound_to 7997
  154.6552  140.2554  155.7176 H   0  0  0  0  0  0  0  0  0  0  0  0  # atno 8010 bound_to 7997
  140.6903  143.6500  150.8359 H   0  0  0  0  0  0  0  0  0  0  0  0  # atno 10167 bound_to 10162
  156.4106  130.4407  149.7255 H   0  0  0  0  0  0  0  0  0  0  0  0  # atno 10718 bound_to 10713
  154.3941  135.6046  153.5859 H   0  0  0  0  0  0  0  0  0  0  0  0  # atno 10763 bound_to 10752
  152.9787  135.5890  154.4263 H   0  0  0  0  0  0  0  0  0  0  0  0  # atno 10764 bound_to 10752
  154.4051  135.2843  155.2050 H   0  0  0  0  0  0  0  0  0  0  0  0  # atno 10765 bound_to 10752
  140.5460  134.0329  155.7920 H   0  0  0  0  0  0  0  0  0  0  0  0  # atno 11005 bound_to 11000
  145.3108  141.0219  143.3555 LP  0  0  0  0  0  0  0  0  0  0  0  0  # atno 17320 bound_to 7965
  144.8937  139.4740  143.6665 LP  0  0  0  0  0  0  0  0  0  0  0  0  # atno 17321 bound_to 7965
  140.0212  143.5541  152.2800 LP  0  0  0  0  0  0  0  0  0  0  0  0  # atno 17342 bound_to 10162
  139.6299  144.7643  151.2558 LP  0  0  0  0  0  0  0  0  0  0  0  0  # atno 17343 bound_to 10162
  156.4235  130.7780  151.2798 LP  0  0  0  0  0  0  0  0  0  0  0  0  # atno 17370 bound_to 10713
  157.7507  131.0175  150.3589 LP  0  0  0  0  0  0  0  0  0  0  0  0  # atno 17371 bound_to 10713
  141.1200  133.9478  157.2749 LP  0  0  0  0  0  0  0  0  0  0  0  0  # atno 17394 bound_to 11000
  139.9479  135.0181  156.8908 LP  0  0  0  0  0  0  0  0  0  0  0  0  # atno 17395 bound_to 11000

$$$$
