AV-unprocessed.smi:183|AV-procd|sdf|1459|dock7
  -GOLD-   2262019263D 1   1.00000     0.00000
 Structure written by MMmdl.
 55 57  0  0  0  0  0  0  0  0  1 V2000
  151.8597  143.8742  161.7104 C   0  0  0  0  0  0  0  0  0  0  0  0
  152.3740  143.0623  160.5268 C   0  0  0  0  0  0  0  0  0  0  0  0
  152.0572  143.3739  159.3791 O   0  0  0  0  0  0  0  0  0  0  0  0
  153.1690  142.0229  160.8212 N   0  0  0  0  0  0  0  0  0  0  0  0
  153.7588  141.1207  159.8415 C   0  0  0  0  0  0  0  0  0  0  0  0
  153.4489  139.6487  160.1789 C   0  0  0  0  0  0  0  0  0  0  0  0
  153.5666  138.7470  159.0292 N   0  0  0  0  0  0  0  0  0  0  0  0
  152.3662  138.5491  158.4309 C   0  0  0  0  0  0  0  0  0  0  0  0
  151.3759  138.0203  159.1928 N   0  0  0  0  0  0  0  0  0  0  0  0
  150.1719  137.7892  158.6610 C   0  0  0  0  0  0  0  0  0  0  0  0
  149.7560  138.0028  157.4113 N   0  0  0  0  0  0  0  0  0  0  0  0
  150.7519  138.5251  156.6395 C   0  0  0  0  0  0  0  0  0  0  0  0
  152.0769  138.8257  157.0634 C   0  0  0  0  0  0  0  0  0  0  0  0
  152.8110  139.3294  155.9955 N   0  0  0  0  0  0  0  0  0  0  0  0
  151.9679  139.3295  155.0000 C   0  0  0  0  0  0  0  0  0  0  0  0
  150.7055  138.8707  155.3004 N   0  0  0  0  0  0  0  0  0  0  0  0
  149.5765  138.7665  154.3895 C   0  0  0  0  0  0  0  0  0  0  0  0
  148.8609  140.1154  154.1409 C   0  0  1  0  0  0  0  0  0  0  0  0
  149.6442  140.8850  153.2426 O   0  0  0  0  0  0  0  0  0  0  0  0
  147.4618  139.9766  153.5579 C   0  0  0  0  0  0  0  0  0  0  0  0
  146.7949  141.2770  153.9868 C   0  0  0  0  0  0  0  0  0  0  0  0
  147.3136  141.5327  155.2847 O   0  0  0  0  0  0  0  0  0  0  0  0
  148.5837  140.9010  155.4430 C   0  0  2  0  0  0  0  0  0  0  0  0
  149.6503  141.9216  155.8715 C   0  0  0  0  0  0  0  0  0  0  0  0
  154.5075  137.6140  159.0715 C   0  0  0  0  0  0  0  0  0  0  0  0
  153.9809  136.4651  159.9524 C   0  0  0  0  0  0  0  0  0  0  0  0
  155.9063  138.0269  159.5796 C   0  0  0  0  0  0  0  0  0  0  0  0
  152.6761  144.4324  162.1694 H   0  0  0  0  0  0  0  0  0  0  0  0
  151.4209  143.2190  162.4636 H   0  0  0  0  0  0  0  0  0  0  0  0
  151.0962  144.5843  161.3912 H   0  0  0  0  0  0  0  0  0  0  0  0
  153.3763  141.8418  161.7927 H   0  0  0  0  0  0  0  0  0  0  0  0
  153.3538  141.3815  158.8641 H   0  0  0  0  0  0  0  0  0  0  0  0
  154.8345  141.2923  159.7878 H   0  0  0  0  0  0  0  0  0  0  0  0
  154.1154  139.3108  160.9743 H   0  0  0  0  0  0  0  0  0  0  0  0
  152.4459  139.5652  160.5964 H   0  0  0  0  0  0  0  0  0  0  0  0
  149.4372  137.3713  159.3330 H   0  0  0  0  0  0  0  0  0  0  0  0
  152.2448  139.6703  154.0132 H   0  0  0  0  0  0  0  0  0  0  0  0
  149.9431  138.3537  153.4487 H   0  0  0  0  0  0  0  0  0  0  0  0
  148.8736  138.0342  154.7892 H   0  0  0  0  0  0  0  0  0  0  0  0
  149.9871  140.3099  152.5761 H   0  0  0  0  0  0  0  0  0  0  0  0
  147.4474  139.8234  152.4779 H   0  0  0  0  0  0  0  0  0  0  0  0
  146.9418  139.1378  154.0225 H   0  0  0  0  0  0  0  0  0  0  0  0
  147.0807  142.0935  153.3223 H   0  0  0  0  0  0  0  0  0  0  0  0
  145.7069  141.2102  153.9955 H   0  0  0  0  0  0  0  0  0  0  0  0
  148.4515  140.1888  156.2586 H   0  0  0  0  0  0  0  0  0  0  0  0
  150.6260  141.4473  155.9780 H   0  0  0  0  0  0  0  0  0  0  0  0
  149.3920  142.3681  156.8319 H   0  0  0  0  0  0  0  0  0  0  0  0
  149.7449  142.7330  155.1496 H   0  0  0  0  0  0  0  0  0  0  0  0
  154.6187  137.2234  158.0601 H   0  0  0  0  0  0  0  0  0  0  0  0
  154.7091  135.6563  160.0175 H   0  0  0  0  0  0  0  0  0  0  0  0
  153.0668  136.0294  159.5493 H   0  0  0  0  0  0  0  0  0  0  0  0
  153.7736  136.8057  160.9674 H   0  0  0  0  0  0  0  0  0  0  0  0
  156.5698  137.1638  159.6397 H   0  0  0  0  0  0  0  0  0  0  0  0
  155.8493  138.4681  160.5752 H   0  0  0  0  0  0  0  0  0  0  0  0
  156.3935  138.7479  158.9240 H   0  0  0  0  0  0  0  0  0  0  0  0
  1  2  1  0  0  0  0
  1 28  1  0  0  0  0
  1 29  1  0  0  0  0
  1 30  1  0  0  0  0
  2  3  2  0  0  0  0
  2  4  1  0  0  0  0
  4  5  1  0  0  0  0
  4 31  1  0  0  0  0
  5  6  1  0  0  0  0
  5 32  1  0  0  0  0
  5 33  1  0  0  0  0
  6  7  1  0  0  0  0
  6 34  1  0  0  0  0
  6 35  1  0  0  0  0
  7  8  1  0  0  0  0
  7 25  1  0  0  0  0
  8 13  1  0  0  0  0
  8  9  2  0  0  0  0
  9 10  1  0  0  0  0
 10 11  2  0  0  0  0
 10 36  1  0  0  0  0
 11 12  1  0  0  0  0
 12 16  1  0  0  0  0
 12 13  2  0  0  0  0
 13 14  1  0  0  0  0
 14 15  2  0  0  0  0
 15 16  1  0  0  0  0
 15 37  1  0  0  0  0
 16 17  1  0  0  0  0
 17 18  1  0  0  0  0
 17 38  1  0  0  0  0
 17 39  1  0  0  0  0
 18 23  1  0  0  0  0
 18 19  1  0  0  0  0
 18 20  1  0  0  0  0
 19 40  1  0  0  0  0
 20 21  1  0  0  0  0
 20 41  1  0  0  0  0
 20 42  1  0  0  0  0
 21 22  1  0  0  0  0
 21 43  1  0  0  0  0
 21 44  1  0  0  0  0
 22 23  1  0  0  0  0
 23 24  1  0  0  0  0
 23 45  1  0  0  0  0
 24 46  1  0  0  0  0
 24 47  1  0  0  0  0
 24 48  1  0  0  0  0
 25 26  1  0  0  0  0
 25 27  1  0  0  0  0
 25 49  1  0  0  0  0
 26 50  1  0  0  0  0
 26 51  1  0  0  0  0
 26 52  1  0  0  0  0
 27 53  1  0  0  0  0
 27 54  1  0  0  0  0
 27 55  1  0  0  0  0
M  END
> <s_m_source_file>
AV-unprocessed.smi

> <i_m_source_file_index>
183

> <i_lp_mmshare_version>
43012

> <i_f3d_flags>
0

> <s_epik_input>
W0NIM11DKD1PKVtOSF1bQ0gyXVtDSDJdTihbQ0hdKFtDSDNdKVtDSDNdKWMobltjSF1uMSljKGMxMiluW2NIXW4yW0NIMl1bQ0BAXTMoW09IXSlbQ0gyXVtDSDJdT1tDQEhdM1tDSDNd

> <s_epik_cmdline>
J2VwaWtfcHl0aG9uJywgJy1waCcsICc3LjAnLCAnLXRuJywgJzgnLCAnLW1hJywgJzIwMCcsICctbWV0YWxfYmluZGluZycsICctaW1hZScsICc8aW5maWxlLm1hZT4nLCAnLW9tYWUnLCAnPG91dGZpbGUubWFlPic=

> <r_lp_tautomer_probability>
1

> <r_epik_Ionization_Penalty>
0.00156158

> <r_epik_Ionization_Penalty_Charging>
0

> <r_epik_Ionization_Penalty_Neutral>
0.00156158

> <r_epik_State_Penalty>
0.000865808

> <r_epik_Charging_Adjusted_Penalty>
0.000865808

> <i_epik_Tot_Q>
0

> <i_epik_Tot_abs_Q>
0

> <r_epik_Metal_State_Penalty>
-0

> <b_epik_Metal_Only>
0

> <s_lp_Force_Field>
OPLS_2005

> <r_lp_Energy>
29.9876

> <b_lp_Chiralities_Consistent>
1

> <s_lp_Variant>
AV-unprocessed.smi:183-3

> <Gold.Version>
5.8.1

> <Gold.Id.Protein>
6NUR|6NUR_protein|mol2

> <Gold.PLP.Fitness>
45.7828

> <Gold.PLP.PLP>
-40.3555

> <Gold.PLP.part.hbond>
-2.6244

> <Gold.PLP.part.metal>
0.0000

> <Gold.PLP.part.buried>
-2.3838

> <Gold.PLP.part.nonpolar>
-33.6348

> <Gold.PLP.part.repulsive>
0.1148

> <Gold.PLP.ligand.clash>
0.0000

> <Gold.PLP.ligand.torsion>
1.6734

> <Gold.PLP.Chemscore.Hbond>
2.5760

> <Gold.PLP.Chemscore.CHOScore>
0.0000

> <Gold.PLP.Chemscore.Metal>
0.0000

> <Gold.Chemscore.Hbonds>
donor molecule, donor type, donor heavy atom, donor atom, acceptor molecule, acceptor atom, score
      L1  H    19    40       P1  7957  0.60
      P1  H  7997  8008       L1    14  1.00
      P1  H  8011  8017       L1    19  0.85

> <Gold.PLP.Chemscore.Internal.Correction>
1.0461

> <Gold.Rescore>
     Score         DG    S(hbond)    S(metal)    S(lipo)     H(rot)  DE(clash)    DE(int)     intcor
     11.17     -13.35       2.02        0.00      84.93       3.45       0.46       1.73       ----

> <Gold.Chemscore.Fitness>
11.1652

> <Gold.Chemscore.DG>
-13.3550

> <Gold.Chemscore.ZeroCoef>
-5.4800

> <Gold.Chemscore.Hbond>
2.0233

> <Gold.Chemscore.Metal>
0.0000

> <Gold.Chemscore.Lipo>
84.9277

> <Gold.Chemscore.Internal_Hbond>
0.0000

> <Gold.Chemscore.DEClash>
0.4605

> <Gold.Chemscore.DEInternal>
1.7294

> <Gold.Chemscore.Rot>
3.4451

> <Gold.Chemscore.Internal.Correction>
   9.000000E+99

> <Gold.Chemscore.Hbonds>
donor molecule, donor type, donor heavy atom, donor atom, acceptor molecule, acceptor atom, score
      L1  H    19    40       P1  7957  0.58
      P1  H  7997  8008       L1    14  0.95
      P1  H  8011  8017       L1    19  0.15

> <Gold.Chemscore.Hbond.Weighted>
-6.7579

> <Gold.Chemscore.Metal.Weighted>
-0.0000

> <Gold.Chemscore.Lipo.Weighted>
-9.9365

> <Gold.Chemscore.Internal_Hbond.Weighted>
0.0000

> <Gold.Chemscore.DEClash.Weighted>
0.4605

> <Gold.Chemscore.DEInternal.Weighted>
1.7294

> <Gold.Chemscore.Rot.Weighted>
8.8194

> <Gold.Chemscore.Internal.Correction.Weighted>
   9.000000E+99

> <Gold.Protein.RotatedTorsions>
[ 6907 6896 6895 6894 ] final  -16.24 input  -60.11 | X-H torsion
[ 7974 7965 7964 7962 ] final -169.17 input  175.53 | X-H torsion
[ 8008 7997 7996 7995 ] final  -18.76 input   59.86 | X-H torsion
[ 10167 10162 10161 10158 ] final  -88.60 input  -65.29 | X-H torsion
[ 10718 10713 10712 10709 ] final   97.89 input   66.30 | X-H torsion
[ 10763 10752 10751 10750 ] final -126.71 input  -60.55 | X-H torsion
[ 11005 11000 10999 10996 ] final  -25.91 input  -57.11 | X-H torsion

> <Gold.Protein.ActiveResidues>
 VAL166  LYS551  ARG553  GLY616  TRP617  ASP618  TYR619  PRO620  LYS621  CYS622 
 ASP623  PHE694  ASN695  SER759  ASP760  ASP761  ALA762  ILE779  LEU786  VAL792 
 PHE793  MET794  SER795  GLU796  ALA797  LYS798  CYS799  TRP800  GLU811  SER814 

> <Gold.Protein.RotatedAtoms>
  151.3117  135.0796  159.9274 H   0  0  0  0  0  0  0  0  0  0  0  0  # atno 6907 bound_to 6896
  152.5276  133.9729  159.7781 H   0  0  0  0  0  0  0  0  0  0  0  0  # atno 6908 bound_to 6896
  151.0034  133.5982  159.2722 H   0  0  0  0  0  0  0  0  0  0  0  0  # atno 6909 bound_to 6896
  144.7190  140.2261  143.6310 H   0  0  0  0  0  0  0  0  0  0  0  0  # atno 7974 bound_to 7965
  154.4883  140.2107  155.9605 H   0  0  0  0  0  0  0  0  0  0  0  0  # atno 8008 bound_to 7997
  156.1268  140.3204  155.8259 H   0  0  0  0  0  0  0  0  0  0  0  0  # atno 8009 bound_to 7997
  155.4368  140.0507  157.3004 H   0  0  0  0  0  0  0  0  0  0  0  0  # atno 8010 bound_to 7997
  140.3731  143.2785  151.9476 H   0  0  0  0  0  0  0  0  0  0  0  0  # atno 10167 bound_to 10162
  157.6905  131.0623  150.4712 H   0  0  0  0  0  0  0  0  0  0  0  0  # atno 10718 bound_to 10713
  154.8747  135.3986  154.3474 H   0  0  0  0  0  0  0  0  0  0  0  0  # atno 10763 bound_to 10752
  153.4265  135.7024  153.6264 H   0  0  0  0  0  0  0  0  0  0  0  0  # atno 10764 bound_to 10752
  153.4904  135.3749  155.2459 H   0  0  0  0  0  0  0  0  0  0  0  0  # atno 10765 bound_to 10752
  140.8981  133.7543  156.0508 H   0  0  0  0  0  0  0  0  0  0  0  0  # atno 11005 bound_to 11000
  145.8455  139.2150  143.1802 LP  0  0  0  0  0  0  0  0  0  0  0  0  # atno 17320 bound_to 7965
  146.0308  140.8260  142.9877 LP  0  0  0  0  0  0  0  0  0  0  0  0  # atno 17321 bound_to 7965
  139.4802  144.5888  151.7807 LP  0  0  0  0  0  0  0  0  0  0  0  0  # atno 17342 bound_to 10162
  140.5013  144.1164  150.5972 LP  0  0  0  0  0  0  0  0  0  0  0  0  # atno 17343 bound_to 10162
  156.5050  130.4126  149.6332 LP  0  0  0  0  0  0  0  0  0  0  0  0  # atno 17370 bound_to 10713
  156.3293  130.7323  151.2249 LP  0  0  0  0  0  0  0  0  0  0  0  0  # atno 17371 bound_to 10713
  140.8264  134.3229  157.5364 LP  0  0  0  0  0  0  0  0  0  0  0  0  # atno 17394 bound_to 11000
  139.8738  134.9338  156.3591 LP  0  0  0  0  0  0  0  0  0  0  0  0  # atno 17395 bound_to 11000

$$$$
