AV-unprocessed.smi:942|AV-procd|sdf|4222|dock3
  -GOLD-   22720 2133D 1   1.00000     0.00000
 Structure written by MMmdl.
 43 45  0  0  0  0  0  0  0  0  2 V2000
  152.5371  140.1349  156.8636 O   0  0  0  0  0  0  0  0  0  0  0  0
  151.5684  140.8905  156.9464 C   0  0  0  0  0  0  0  0  0  0  0  0
  150.5440  140.8702  156.0785 N   0  0  0  0  0  0  0  0  0  0  0  0
  150.4150  139.9663  154.9334 C   0  0  1  0  0  0  0  0  0  0  0  0
  150.8955  138.5526  155.3264 C   0  0  0  0  0  0  0  0  0  0  0  0
  149.6921  137.6100  155.1774 C   0  0  0  0  0  0  0  0  0  0  0  0
  148.4629  138.5163  155.1914 C   0  0  0  0  0  0  0  0  0  0  0  0
  148.9537  139.7717  154.4626 C   0  0  1  0  0  0  0  0  0  0  0  0
  148.0776  140.9559  154.5552 N   0  0  0  0  0  0  0  0  0  0  0  0
  147.6475  141.7236  153.5024 C   0  0  0  0  0  0  0  0  0  0  0  0
  146.8995  142.7419  154.0337 C   0  0  0  0  0  0  0  0  0  0  0  0
  146.9100  142.5620  155.3897 N   0  3  0  0  0  0  0  0  0  0  0  0
  147.6305  141.4816  155.7066 C   0  0  0  0  0  0  0  0  0  0  0  0
  151.4987  141.9415  158.0614 C   0  0  0  0  0  0  0  0  0  0  0  0
  151.3120  143.3554  157.4697 C   0  0  0  0  0  0  0  0  0  0  0  0
  151.2572  144.4224  158.5750 C   0  0  0  0  0  0  0  0  0  0  0  0
  152.5078  144.3652  159.4665 C   0  0  0  0  0  0  0  0  0  0  0  0
  152.7057  142.9599  160.0565 C   0  0  0  0  0  0  0  0  0  0  0  0
  152.7603  141.8938  158.9499 C   0  0  0  0  0  0  0  0  0  0  0  0
  149.7890  141.5245  156.2268 H   0  0  0  0  0  0  0  0  0  0  0  0
  151.0210  140.3395  154.1058 H   0  0  0  0  0  0  0  0  0  0  0  0
  151.7220  138.2242  154.6950 H   0  0  0  0  0  0  0  0  0  0  0  0
  151.2592  138.5295  156.3550 H   0  0  0  0  0  0  0  0  0  0  0  0
  149.7509  137.0939  154.2182 H   0  0  0  0  0  0  0  0  0  0  0  0
  149.6581  136.8490  155.9576 H   0  0  0  0  0  0  0  0  0  0  0  0
  147.5997  138.0579  154.7078 H   0  0  0  0  0  0  0  0  0  0  0  0
  148.1966  138.7326  156.2259 H   0  0  0  0  0  0  0  0  0  0  0  0
  148.9916  139.5175  153.4015 H   0  0  0  0  0  0  0  0  0  0  0  0
  147.9042  141.4968  152.4776 H   0  0  0  0  0  0  0  0  0  0  0  0
  146.3800  143.5628  153.5612 H   0  0  0  0  0  0  0  0  0  0  0  0
  147.8196  141.1215  156.7016 H   0  0  0  0  0  0  0  0  0  0  0  0
  150.6338  141.7195  158.6894 H   0  0  0  0  0  0  0  0  0  0  0  0
  152.1296  143.5895  156.7857 H   0  0  0  0  0  0  0  0  0  0  0  0
  150.3955  143.3980  156.8801 H   0  0  0  0  0  0  0  0  0  0  0  0
  151.1640  145.4137  158.1304 H   0  0  0  0  0  0  0  0  0  0  0  0
  150.3657  144.2719  159.1852 H   0  0  0  0  0  0  0  0  0  0  0  0
  153.3864  144.6425  158.8823 H   0  0  0  0  0  0  0  0  0  0  0  0
  152.4263  145.0982  160.2696 H   0  0  0  0  0  0  0  0  0  0  0  0
  153.6221  142.9306  160.6466 H   0  0  0  0  0  0  0  0  0  0  0  0
  151.8887  142.7327  160.7428 H   0  0  0  0  0  0  0  0  0  0  0  0
  152.8650  140.9063  159.4013 H   0  0  0  0  0  0  0  0  0  0  0  0
  153.6548  142.0523  158.3452 H   0  0  0  0  0  0  0  0  0  0  0  0
  146.4476  143.1640  156.0595 H   0  0  0  0  0  0  0  0  0  0  0  0
  1  2  2  0  0  0  0
  2  3  1  0  0  0  0
  2 14  1  0  0  0  0
  3  4  1  0  0  0  0
  3 20  1  0  0  0  0
  4  8  1  0  0  0  0
  4  5  1  0  0  0  0
  4 21  1  0  0  0  0
  5  6  1  0  0  0  0
  5 22  1  0  0  0  0
  5 23  1  0  0  0  0
  6  7  1  0  0  0  0
  6 24  1  0  0  0  0
  6 25  1  0  0  0  0
  7  8  1  0  0  0  0
  7 26  1  0  0  0  0
  7 27  1  0  0  0  0
  8  9  1  0  0  0  0
  8 28  1  0  0  0  0
  9 13  1  0  0  0  0
  9 10  1  0  0  0  0
 10 11  2  0  0  0  0
 10 29  1  0  0  0  0
 11 12  1  0  0  0  0
 11 30  1  0  0  0  0
 12 13  2  0  0  0  0
 12 43  1  0  0  0  0
 13 31  1  0  0  0  0
 14 19  1  0  0  0  0
 14 15  1  0  0  0  0
 14 32  1  0  0  0  0
 15 16  1  0  0  0  0
 15 33  1  0  0  0  0
 15 34  1  0  0  0  0
 16 17  1  0  0  0  0
 16 35  1  0  0  0  0
 16 36  1  0  0  0  0
 17 18  1  0  0  0  0
 17 37  1  0  0  0  0
 17 38  1  0  0  0  0
 18 19  1  0  0  0  0
 18 39  1  0  0  0  0
 18 40  1  0  0  0  0
 19 41  1  0  0  0  0
 19 42  1  0  0  0  0
M  CHG  1  12   1
M  END
> <s_m_source_file>
AV-unprocessed.smi

> <i_m_source_file_index>
942

> <i_lp_mmshare_version>
43012

> <i_f3d_flags>
0

> <s_epik_input>
W0NIMl0xW0NIMl1bQ0gyXVtDSDJdW0NIMl1bQ0hdMUMoPU8pW05IXVtDQEBIXTJbQ0gyXVtDSDJdW0NIMl1bQ0BIXTJuM1tjSF1bY0hdbltjSF0z

> <s_epik_cmdline>
J2VwaWtfcHl0aG9uJywgJy1waCcsICc3LjAnLCAnLXRuJywgJzgnLCAnLW1hJywgJzIwMCcsICctbWV0YWxfYmluZGluZycsICctaW1hZScsICc8aW5maWxlLm1hZT4nLCAnLW9tYWUnLCAnPG91dGZpbGUubWFlPic=

> <r_lp_tautomer_probability>
1

> <r_epik_Ionization_Penalty>
0.185467

> <r_epik_Ionization_Penalty_Charging>
0

> <r_epik_Ionization_Penalty_Neutral>
0.185467

> <r_epik_State_Penalty>
0.175036

> <r_epik_Charging_Adjusted_Penalty>
0.175036

> <i_epik_Tot_Q>
1

> <i_epik_Tot_abs_Q>
1

> <r_epik_Metal_State_Penalty>
0.487091

> <b_epik_Metal_Only>
0

> <s_lp_Force_Field>
OPLS_2005

> <r_lp_Energy>
34.4876

> <b_lp_Chiralities_Consistent>
1

> <s_lp_Variant>
AV-unprocessed.smi:942-2

> <Gold.Version>
5.8.1

> <Gold.Id.Protein>
6NUR|6NUR_protein|mol2

> <Gold.PLP.Fitness>
43.9542

> <Gold.PLP.PLP>
-38.9733

> <Gold.PLP.part.hbond>
-2.0000

> <Gold.PLP.part.metal>
0.0000

> <Gold.PLP.part.buried>
-3.8737

> <Gold.PLP.part.nonpolar>
-32.5180

> <Gold.PLP.part.repulsive>
0.1438

> <Gold.PLP.ligand.clash>
0.0053

> <Gold.PLP.ligand.torsion>
0.5342

> <Gold.PLP.Chemscore.Hbond>
1.0000

> <Gold.PLP.Chemscore.CHOScore>
1.0000

> <Gold.PLP.Chemscore.Metal>
0.0000

> <Gold.Chemscore.Hbonds>
donor molecule, donor type, donor heavy atom, donor atom, acceptor molecule, acceptor atom, score
      P1  H  7997  8008       L1     1  1.00
      L1  C    10    29       P1  7957  0.89

> <Gold.PLP.Chemscore.Internal.Correction>
0.0546

> <Gold.Rescore>
     Score         DG    S(hbond)    S(metal)    S(lipo)     H(rot)  DE(clash)    DE(int)     intcor
     14.07     -17.25       0.98        0.00     104.96       1.48       0.07       3.11       ----

> <Gold.Chemscore.Fitness>
14.0659

> <Gold.Chemscore.DG>
-17.2497

> <Gold.Chemscore.ZeroCoef>
-5.4800

> <Gold.Chemscore.Hbond>
0.9806

> <Gold.Chemscore.Metal>
0.0000

> <Gold.Chemscore.Lipo>
104.9640

> <Gold.Chemscore.Internal_Hbond>
0.0000

> <Gold.Chemscore.DEClash>
0.0748

> <Gold.Chemscore.DEInternal>
3.1091

> <Gold.Chemscore.Rot>
1.4790

> <Gold.Chemscore.Internal.Correction>
   9.000000E+99

> <Gold.Chemscore.Hbonds>
donor molecule, donor type, donor heavy atom, donor atom, acceptor molecule, acceptor atom, score
      P1  H  7997  8008       L1     1  0.98

> <Gold.Chemscore.Hbond.Weighted>
-3.2753

> <Gold.Chemscore.Metal.Weighted>
-0.0000

> <Gold.Chemscore.Lipo.Weighted>
-12.2808

> <Gold.Chemscore.Internal_Hbond.Weighted>
0.0000

> <Gold.Chemscore.DEClash.Weighted>
0.0748

> <Gold.Chemscore.DEInternal.Weighted>
3.1091

> <Gold.Chemscore.Rot.Weighted>
3.7863

> <Gold.Chemscore.Internal.Correction.Weighted>
   9.000000E+99

> <Gold.Protein.RotatedTorsions>
[ 6907 6896 6895 6894 ] final   -1.42 input  -60.11 | X-H torsion
[ 7974 7965 7964 7962 ] final   62.61 input  175.53 | X-H torsion
[ 8008 7997 7996 7995 ] final  -55.99 input   59.86 | X-H torsion
[ 10167 10162 10161 10158 ] final  115.30 input  -65.29 | X-H torsion
[ 10718 10713 10712 10709 ] final -152.65 input   66.30 | X-H torsion
[ 10763 10752 10751 10750 ] final -152.22 input  -60.55 | X-H torsion
[ 11005 11000 10999 10996 ] final   53.60 input  -57.11 | X-H torsion

> <Gold.Protein.ActiveResidues>
 VAL166  LYS551  ARG553  GLY616  TRP617  ASP618  TYR619  PRO620  LYS621  CYS622 
 ASP623  PHE694  ASN695  SER759  ASP760  ASP761  ALA762  ILE779  LEU786  VAL792 
 PHE793  MET794  SER795  GLU796  ALA797  LYS798  CYS799  TRP800  GLU811  SER814 

> <Gold.Protein.RotatedAtoms>
  151.5463  135.1068  159.9938 H   0  0  0  0  0  0  0  0  0  0  0  0  # atno 6907 bound_to 6896
  152.4512  133.7629  159.6767 H   0  0  0  0  0  0  0  0  0  0  0  0  # atno 6908 bound_to 6896
  150.8441  133.7823  159.3074 H   0  0  0  0  0  0  0  0  0  0  0  0  # atno 6909 bound_to 6896
  145.8714  139.3380  143.0760 H   0  0  0  0  0  0  0  0  0  0  0  0  # atno 7974 bound_to 7965
  154.4214  140.1140  156.5565 H   0  0  0  0  0  0  0  0  0  0  0  0  # atno 8008 bound_to 7997
  155.6356  140.3496  155.4678 H   0  0  0  0  0  0  0  0  0  0  0  0  # atno 8009 bound_to 7997
  155.9913  140.1180  157.0625 H   0  0  0  0  0  0  0  0  0  0  0  0  # atno 8010 bound_to 7997
  139.6327  144.7116  151.2399 H   0  0  0  0  0  0  0  0  0  0  0  0  # atno 10167 bound_to 10162
  156.4753  130.8278  151.2506 H   0  0  0  0  0  0  0  0  0  0  0  0  # atno 10718 bound_to 10713
  154.8008  135.3241  154.7554 H   0  0  0  0  0  0  0  0  0  0  0  0  # atno 10763 bound_to 10752
  153.8223  135.6886  153.4830 H   0  0  0  0  0  0  0  0  0  0  0  0  # atno 10764 bound_to 10752
  153.1724  135.4618  154.9863 H   0  0  0  0  0  0  0  0  0  0  0  0  # atno 10765 bound_to 10752
  140.0754  134.5412  155.9002 H   0  0  0  0  0  0  0  0  0  0  0  0  # atno 11005 bound_to 11000
  145.9133  140.9165  143.0443 LP  0  0  0  0  0  0  0  0  0  0  0  0  # atno 17320 bound_to 7965
  144.6726  140.1189  143.7451 LP  0  0  0  0  0  0  0  0  0  0  0  0  # atno 17321 bound_to 7965
  140.7448  143.6452  150.8299 LP  0  0  0  0  0  0  0  0  0  0  0  0  # atno 17342 bound_to 10162
  140.0079  143.5674  152.2850 LP  0  0  0  0  0  0  0  0  0  0  0  0  # atno 17343 bound_to 10162
  157.7488  131.0063  150.3145 LP  0  0  0  0  0  0  0  0  0  0  0  0  # atno 17370 bound_to 10713
  156.3576  130.3841  149.7277 LP  0  0  0  0  0  0  0  0  0  0  0  0  # atno 17371 bound_to 10713
  141.2027  133.6627  156.6023 LP  0  0  0  0  0  0  0  0  0  0  0  0  # atno 17394 bound_to 11000
  140.3565  134.7724  157.4504 LP  0  0  0  0  0  0  0  0  0  0  0  0  # atno 17395 bound_to 11000

$$$$
