AV-unprocessed.smi:968|AV-procd|sdf|4289|dock3
  -GOLD-   22720 2193D 1   1.00000     0.00000
 Structure written by MMmdl.
 20 20  0  0  0  0  0  0  0  0  1 V2000
  151.7225  144.4692  157.7631 C   0  0  0  0  0  0  0  0  0  0  0  0
  150.7629  143.4069  157.5034 N   0  0  0  0  0  0  0  0  0  0  0  0
  150.8642  142.1621  157.9906 C   0  0  0  0  0  0  0  0  0  0  0  0
  151.7954  141.7974  158.7105 O   0  0  0  0  0  0  0  0  0  0  0  0
  149.7393  141.1980  157.5921 C   0  0  0  0  0  0  0  0  0  0  0  0
  149.6861  140.9462  156.1613 N   0  0  0  0  0  0  0  0  0  0  0  0
  149.6602  141.7941  155.1301 C   0  0  0  0  0  0  0  0  0  0  0  0
  149.6108  141.1975  153.9466 N   0  0  0  0  0  0  0  0  0  0  0  0
  149.6093  139.8936  154.3523 C   0  0  0  0  0  0  0  0  0  0  0  0
  149.5623  138.8437  153.4203 N   0  0  0  0  0  0  0  0  0  0  0  0
  149.6517  139.6853  155.6676 N   0  0  0  0  0  0  0  0  0  0  0  0
  151.4393  145.3675  157.2148 H   0  0  0  0  0  0  0  0  0  0  0  0
  152.7242  144.1777  157.4447 H   0  0  0  0  0  0  0  0  0  0  0  0
  151.7519  144.7133  158.8257 H   0  0  0  0  0  0  0  0  0  0  0  0
  149.9704  143.6324  156.9196 H   0  0  0  0  0  0  0  0  0  0  0  0
  149.8675  140.2501  158.1174 H   0  0  0  0  0  0  0  0  0  0  0  0
  148.7804  141.6130  157.9048 H   0  0  0  0  0  0  0  0  0  0  0  0
  149.6801  142.8675  155.2480 H   0  0  0  0  0  0  0  0  0  0  0  0
  149.5288  139.0414  152.4307 H   0  0  0  0  0  0  0  0  0  0  0  0
  149.5299  137.8846  153.7340 H   0  0  0  0  0  0  0  0  0  0  0  0
  1  2  1  0  0  0  0
  1 12  1  0  0  0  0
  1 13  1  0  0  0  0
  1 14  1  0  0  0  0
  2  3  1  0  0  0  0
  2 15  1  0  0  0  0
  3  4  2  0  0  0  0
  3  5  1  0  0  0  0
  5  6  1  0  0  0  0
  5 16  1  0  0  0  0
  5 17  1  0  0  0  0
  6 11  1  0  0  0  0
  6  7  1  0  0  0  0
  7  8  2  0  0  0  0
  7 18  1  0  0  0  0
  8  9  1  0  0  0  0
  9 10  1  0  0  0  0
  9 11  2  0  0  0  0
 10 19  1  0  0  0  0
 10 20  1  0  0  0  0
M  END
> <s_m_source_file>
AV-unprocessed.smi

> <i_m_source_file_index>
968

> <i_lp_mmshare_version>
43012

> <i_f3d_flags>
0

> <s_epik_input>
W0NIM11bTkhdQyg9TylbQ0gyXW4xW2NIXW5jKG4xKVtOSDJd

> <s_epik_cmdline>
J2VwaWtfcHl0aG9uJywgJy1waCcsICc3LjAnLCAnLXRuJywgJzgnLCAnLW1hJywgJzIwMCcsICctbWV0YWxfYmluZGluZycsICctaW1hZScsICc8aW5maWxlLm1hZT4nLCAnLW9tYWUnLCAnPG91dGZpbGUubWFlPic=

> <r_lp_tautomer_probability>
1

> <r_epik_Ionization_Penalty>
0.000377128

> <r_epik_Ionization_Penalty_Charging>
0

> <r_epik_Ionization_Penalty_Neutral>
0.000377128

> <r_epik_State_Penalty>
-0

> <r_epik_Charging_Adjusted_Penalty>
0

> <i_epik_Tot_Q>
0

> <i_epik_Tot_abs_Q>
0

> <r_epik_Metal_State_Penalty>
-0

> <b_epik_Metal_Only>
0

> <s_lp_Force_Field>
OPLS_2005

> <r_lp_Energy>
2.7463

> <b_lp_Chiralities_Consistent>
1

> <s_lp_Variant>
AV-unprocessed.smi:968-1

> <Gold.Version>
5.8.1

> <Gold.Id.Protein>
6NUR|6NUR_protein|mol2

> <Gold.PLP.Fitness>
31.5582

> <Gold.PLP.PLP>
-19.6754

> <Gold.PLP.part.hbond>
-5.0000

> <Gold.PLP.part.metal>
0.0000

> <Gold.PLP.part.buried>
-1.6551

> <Gold.PLP.part.nonpolar>
-12.8761

> <Gold.PLP.part.repulsive>
1.5216

> <Gold.PLP.ligand.clash>
0.0000

> <Gold.PLP.ligand.torsion>
0.0889

> <Gold.PLP.Chemscore.Hbond>
3.0202

> <Gold.PLP.Chemscore.CHOScore>
1.0000

> <Gold.PLP.Chemscore.Metal>
0.0000

> <Gold.Chemscore.Hbonds>
donor molecule, donor type, donor heavy atom, donor atom, acceptor molecule, acceptor atom, score
      L1  H     2    15       P1  8028  1.00
      L1  H    10    19       P1  7957  1.00
      P1  H  7989  7998       L1     8  0.11
      P1  H  8011  8017       L1     8  0.82
      L1  C     7    18       P1  8028  1.00

> <Gold.PLP.Chemscore.Internal.Correction>
0.0000

> <Gold.Rescore>
     Score         DG    S(hbond)    S(metal)    S(lipo)     H(rot)  DE(clash)    DE(int)     intcor
     10.79     -12.17       2.63        0.00      18.25       1.65       0.68       0.70       ----

> <Gold.Chemscore.Fitness>
10.7898

> <Gold.Chemscore.DG>
-12.1682

> <Gold.Chemscore.ZeroCoef>
-5.4800

> <Gold.Chemscore.Hbond>
2.6304

> <Gold.Chemscore.Metal>
0.0000

> <Gold.Chemscore.Lipo>
18.2525

> <Gold.Chemscore.Internal_Hbond>
0.0000

> <Gold.Chemscore.DEClash>
0.6787

> <Gold.Chemscore.DEInternal>
0.6997

> <Gold.Chemscore.Rot>
1.6534

> <Gold.Chemscore.Internal.Correction>
   9.000000E+99

> <Gold.Chemscore.Hbonds>
donor molecule, donor type, donor heavy atom, donor atom, acceptor molecule, acceptor atom, score
      L1  H     2    15       P1  8028  0.96
      L1  H    10    19       P1  7957  0.85
      P1  H  8011  8017       L1     8  0.70

> <Gold.Chemscore.Hbond.Weighted>
-8.7854

> <Gold.Chemscore.Metal.Weighted>
-0.0000

> <Gold.Chemscore.Lipo.Weighted>
-2.1355

> <Gold.Chemscore.Internal_Hbond.Weighted>
0.0000

> <Gold.Chemscore.DEClash.Weighted>
0.6787

> <Gold.Chemscore.DEInternal.Weighted>
0.6997

> <Gold.Chemscore.Rot.Weighted>
4.2327

> <Gold.Chemscore.Internal.Correction.Weighted>
   9.000000E+99

> <Gold.Protein.RotatedTorsions>
[ 6907 6896 6895 6894 ] final   53.29 input  -60.11 | X-H torsion
[ 7974 7965 7964 7962 ] final -174.00 input  175.53 | X-H torsion
[ 8008 7997 7996 7995 ] final   -8.31 input   59.86 | X-H torsion
[ 10167 10162 10161 10158 ] final   18.57 input  -65.29 | X-H torsion
[ 10718 10713 10712 10709 ] final   -2.93 input   66.30 | X-H torsion
[ 10763 10752 10751 10750 ] final   38.77 input  -60.55 | X-H torsion
[ 11005 11000 10999 10996 ] final  139.53 input  -57.11 | X-H torsion

> <Gold.Protein.ActiveResidues>
 VAL166  LYS551  ARG553  GLY616  TRP617  ASP618  TYR619  PRO620  LYS621  CYS622 
 ASP623  PHE694  ASN695  SER759  ASP760  ASP761  ALA762  ILE779  LEU786  VAL792 
 PHE793  MET794  SER795  GLU796  ALA797  LYS798  CYS799  TRP800  GLU811  SER814 

> <Gold.Protein.RotatedAtoms>
  152.3322  134.7245  160.0286 H   0  0  0  0  0  0  0  0  0  0  0  0  # atno 6907 bound_to 6896
  151.7657  133.3332  159.3438 H   0  0  0  0  0  0  0  0  0  0  0  0  # atno 6908 bound_to 6896
  150.7429  134.5996  159.6074 H   0  0  0  0  0  0  0  0  0  0  0  0  # atno 6909 bound_to 6896
  144.7134  140.1537  143.6382 H   0  0  0  0  0  0  0  0  0  0  0  0  # atno 7974 bound_to 7965
  154.5753  140.2384  155.8131 H   0  0  0  0  0  0  0  0  0  0  0  0  # atno 8008 bound_to 7997
  156.2138  140.3018  155.9751 H   0  0  0  0  0  0  0  0  0  0  0  0  # atno 8009 bound_to 7997
  155.2638  140.0415  157.2990 H   0  0  0  0  0  0  0  0  0  0  0  0  # atno 8010 bound_to 7997
  140.5643  143.9279  150.6665 H   0  0  0  0  0  0  0  0  0  0  0  0  # atno 10167 bound_to 10162
  156.7835  130.5338  149.5747 H   0  0  0  0  0  0  0  0  0  0  0  0  # atno 10718 bound_to 10713
  152.9989  135.6240  154.2359 H   0  0  0  0  0  0  0  0  0  0  0  0  # atno 10763 bound_to 10752
  154.2100  135.2800  155.2963 H   0  0  0  0  0  0  0  0  0  0  0  0  # atno 10764 bound_to 10752
  154.5614  135.5704  153.7070 H   0  0  0  0  0  0  0  0  0  0  0  0  # atno 10765 bound_to 10752
  140.0262  134.9374  157.0572 H   0  0  0  0  0  0  0  0  0  0  0  0  # atno 11005 bound_to 11000
  145.9093  139.2477  143.1447 LP  0  0  0  0  0  0  0  0  0  0  0  0  # atno 17320 bound_to 7965
  145.9732  140.8743  143.0152 LP  0  0  0  0  0  0  0  0  0  0  0  0  # atno 17321 bound_to 7965
  140.2738  143.3437  152.1213 LP  0  0  0  0  0  0  0  0  0  0  0  0  # atno 17342 bound_to 10162
  139.5085  144.6851  151.5908 LP  0  0  0  0  0  0  0  0  0  0  0  0  # atno 17343 bound_to 10162
  156.1203  130.6105  151.0183 LP  0  0  0  0  0  0  0  0  0  0  0  0  # atno 17370 bound_to 10713
  157.6635  131.0876  150.7783 LP  0  0  0  0  0  0  0  0  0  0  0  0  # atno 17371 bound_to 10713
  140.4303  134.1787  155.7168 LP  0  0  0  0  0  0  0  0  0  0  0  0  # atno 17394 bound_to 11000
  141.1804  133.8426  157.1278 LP  0  0  0  0  0  0  0  0  0  0  0  0  # atno 17395 bound_to 11000

$$$$
