AV-unprocessed.smi:3127|AV-procd|sdf|11917|dock1
  -GOLD-   2272017293D 1   1.00000     0.00000
 Structure written by MMmdl.
 33 34  0  0  0  0  0  0  0  0  1 V2000
  150.2245  144.3657  159.4125 C   0  0  0  0  0  0  0  0  0  0  0  0
  151.7596  144.2472  159.4890 C   0  0  0  0  0  0  0  0  0  0  0  0
  152.4025  144.9930  158.3033 C   0  0  0  0  0  0  0  0  0  0  0  0
  152.2257  144.9322  160.7915 C   0  0  0  0  0  0  0  0  0  0  0  0
  152.1674  142.7874  159.4624 C   0  0  0  0  0  0  0  0  0  0  0  0
  152.8692  142.0838  160.4144 C   0  0  0  0  0  0  0  0  0  0  0  0
  153.1070  140.4177  159.9650 S   0  0  0  0  0  0  0  0  0  0  0  0
  152.2499  140.7313  158.4636 C   0  0  0  0  0  0  0  0  0  0  0  0
  151.9813  139.6703  157.4448 C   0  0  1  0  0  0  0  0  0  0  0  0
  151.3620  140.2423  156.1548 C   0  0  0  0  0  0  0  0  0  0  0  0
  151.1931  139.1829  155.1614 N   0  0  0  0  0  0  0  0  0  0  0  0
  152.4557  138.4905  154.9076 C   0  0  0  0  0  0  0  0  0  0  0  0
  153.0532  137.9652  156.2257 C   0  0  0  0  0  0  0  0  0  0  0  0
  153.2252  139.0456  157.1364 O   0  0  0  0  0  0  0  0  0  0  0  0
  151.8178  141.9917  158.3635 N   0  0  0  0  0  0  0  0  0  0  0  0
  149.9036  145.4074  159.4484 H   0  0  0  0  0  0  0  0  0  0  0  0
  149.7451  143.8452  160.2423 H   0  0  0  0  0  0  0  0  0  0  0  0
  149.8336  143.9393  158.4880 H   0  0  0  0  0  0  0  0  0  0  0  0
  152.0788  144.5818  157.3463 H   0  0  0  0  0  0  0  0  0  0  0  0
  153.4908  144.9276  158.3374 H   0  0  0  0  0  0  0  0  0  0  0  0
  152.1361  146.0505  158.3072 H   0  0  0  0  0  0  0  0  0  0  0  0
  151.9378  145.9840  160.8117 H   0  0  0  0  0  0  0  0  0  0  0  0
  153.3103  144.8921  160.8995 H   0  0  0  0  0  0  0  0  0  0  0  0
  151.7867  144.4602  161.6713 H   0  0  0  0  0  0  0  0  0  0  0  0
  153.2602  142.4382  161.3563 H   0  0  0  0  0  0  0  0  0  0  0  0
  151.3083  138.9363  157.8918 H   0  0  0  0  0  0  0  0  0  0  0  0
  150.4004  140.7071  156.3734 H   0  0  0  0  0  0  0  0  0  0  0  0
  152.0057  141.0255  155.7524 H   0  0  0  0  0  0  0  0  0  0  0  0
  150.8438  139.5817  154.2957 H   0  0  0  0  0  0  0  0  0  0  0  0
  152.2975  137.6655  154.2128 H   0  0  0  0  0  0  0  0  0  0  0  0
  153.1630  139.1704  154.4312 H   0  0  0  0  0  0  0  0  0  0  0  0
  152.4144  137.1979  156.6661 H   0  0  0  0  0  0  0  0  0  0  0  0
  154.0229  137.5033  156.0397 H   0  0  0  0  0  0  0  0  0  0  0  0
  1  2  1  0  0  0  0
  1 16  1  0  0  0  0
  1 17  1  0  0  0  0
  1 18  1  0  0  0  0
  2  3  1  0  0  0  0
  2  4  1  0  0  0  0
  2  5  1  0  0  0  0
  3 19  1  0  0  0  0
  3 20  1  0  0  0  0
  3 21  1  0  0  0  0
  4 22  1  0  0  0  0
  4 23  1  0  0  0  0
  4 24  1  0  0  0  0
  5 15  1  0  0  0  0
  5  6  2  0  0  0  0
  6  7  1  0  0  0  0
  6 25  1  0  0  0  0
  7  8  1  0  0  0  0
  8  9  1  0  0  0  0
  8 15  2  0  0  0  0
  9 14  1  0  0  0  0
  9 10  1  0  0  0  0
  9 26  1  0  0  0  0
 10 11  1  0  0  0  0
 10 27  1  0  0  0  0
 10 28  1  0  0  0  0
 11 12  1  0  0  0  0
 11 29  1  0  0  0  0
 12 13  1  0  0  0  0
 12 30  1  0  0  0  0
 12 31  1  0  0  0  0
 13 14  1  0  0  0  0
 13 32  1  0  0  0  0
 13 33  1  0  0  0  0
M  END
> <s_m_source_file>
AV-unprocessed.smi

> <i_m_source_file_index>
3127

> <i_lp_mmshare_version>
43012

> <i_f3d_flags>
0

> <s_epik_input>
W0NIM11DKFtDSDNdKShbQ0gzXSljMVtjSF1zYyhuMSlbQ0BASF0yW0NIMl1bTkhdW0NIMl1bQ0gyXU8y

> <s_epik_cmdline>
J2VwaWtfcHl0aG9uJywgJy1waCcsICc3LjAnLCAnLXRuJywgJzgnLCAnLW1hJywgJzIwMCcsICctbWV0YWxfYmluZGluZycsICctaW1hZScsICc8aW5maWxlLm1hZT4nLCAnLW9tYWUnLCAnPG91dGZpbGUubWFlPic=

> <r_epik_Ionization_Penalty>
0.982256

> <r_epik_Ionization_Penalty_Charging>
0

> <r_epik_Ionization_Penalty_Neutral>
0.982256

> <r_epik_State_Penalty>
2.16535

> <r_epik_Charging_Adjusted_Penalty>
2.16535

> <i_epik_Tot_Q>
0

> <i_epik_Tot_abs_Q>
0

> <r_epik_Metal_State_Penalty>
2.16345

> <b_epik_Metal_Only>
0

> <s_lp_Force_Field>
OPLS_2005

> <r_lp_Energy>
6.45536

> <b_lp_Chiralities_Consistent>
1

> <s_lp_Variant>
AV-unprocessed.smi:3127-4

> <Gold.Version>
5.8.1

> <Gold.Id.Protein>
6NUR|6NUR_protein|mol2

> <Gold.PLP.Fitness>
40.0263

> <Gold.PLP.PLP>
-37.2987

> <Gold.PLP.part.hbond>
-1.9768

> <Gold.PLP.part.metal>
0.0000

> <Gold.PLP.part.buried>
-5.4206

> <Gold.PLP.part.nonpolar>
-30.2171

> <Gold.PLP.part.repulsive>
0.0118

> <Gold.PLP.ligand.clash>
0.0000

> <Gold.PLP.ligand.torsion>
0.1423

> <Gold.PLP.Chemscore.Hbond>
1.0000

> <Gold.PLP.Chemscore.CHOScore>
0.0000

> <Gold.PLP.Chemscore.Metal>
0.0000

> <Gold.Chemscore.Hbonds>
donor molecule, donor type, donor heavy atom, donor atom, acceptor molecule, acceptor atom, score
      P1  H  7997  8010       L1    14  1.00

> <Gold.PLP.Chemscore.Internal.Correction>
0.0122

> <Gold.Rescore>
     Score         DG    S(hbond)    S(metal)    S(lipo)     H(rot)  DE(clash)    DE(int)     intcor
     17.87     -18.43       0.92        0.00     108.81       1.12       0.39       0.16       ----

> <Gold.Chemscore.Fitness>
17.8743

> <Gold.Chemscore.DG>
-18.4264

> <Gold.Chemscore.ZeroCoef>
-5.4800

> <Gold.Chemscore.Hbond>
0.9204

> <Gold.Chemscore.Metal>
0.0000

> <Gold.Chemscore.Lipo>
108.8119

> <Gold.Chemscore.Internal_Hbond>
0.0000

> <Gold.Chemscore.DEClash>
0.3889

> <Gold.Chemscore.DEInternal>
0.1632

> <Gold.Chemscore.Rot>
1.1167

> <Gold.Chemscore.Internal.Correction>
   9.000000E+99

> <Gold.Chemscore.Hbonds>
donor molecule, donor type, donor heavy atom, donor atom, acceptor molecule, acceptor atom, score
      P1  H  7997  8010       L1    14  0.76

> <Gold.Chemscore.Hbond.Weighted>
-3.0742

> <Gold.Chemscore.Metal.Weighted>
-0.0000

> <Gold.Chemscore.Lipo.Weighted>
-12.7310

> <Gold.Chemscore.Internal_Hbond.Weighted>
0.0000

> <Gold.Chemscore.DEClash.Weighted>
0.3889

> <Gold.Chemscore.DEInternal.Weighted>
0.1632

> <Gold.Chemscore.Rot.Weighted>
2.8588

> <Gold.Chemscore.Internal.Correction.Weighted>
   9.000000E+99

> <Gold.Protein.RotatedTorsions>
[ 6907 6896 6895 6894 ] final -153.56 input  -60.11 | X-H torsion
[ 7974 7965 7964 7962 ] final   21.67 input  175.53 | X-H torsion
[ 8008 7997 7996 7995 ] final   56.30 input   59.86 | X-H torsion
[ 10167 10162 10161 10158 ] final  133.51 input  -65.29 | X-H torsion
[ 10718 10713 10712 10709 ] final  162.56 input   66.30 | X-H torsion
[ 10763 10752 10751 10750 ] final  120.55 input  -60.55 | X-H torsion
[ 11005 11000 10999 10996 ] final  125.51 input  -57.11 | X-H torsion

> <Gold.Protein.ActiveResidues>
 VAL166  LYS551  ARG553  GLY616  TRP617  ASP618  TYR619  PRO620  LYS621  CYS622 
 ASP623  PHE694  ASN695  SER759  ASP760  ASP761  ALA762  ILE779  LEU786  VAL792 
 PHE793  MET794  SER795  GLU796  ALA797  LYS798  CYS799  TRP800  GLU811  SER814 

> <Gold.Protein.RotatedAtoms>
  151.2444  133.4382  159.2608 H   0  0  0  0  0  0  0  0  0  0  0  0  # atno 6907 bound_to 6896
  151.0675  134.9777  159.8302 H   0  0  0  0  0  0  0  0  0  0  0  0  # atno 6908 bound_to 6896
  152.5407  134.2391  159.8908 H   0  0  0  0  0  0  0  0  0  0  0  0  # atno 6909 bound_to 6896
  146.2061  139.7994  142.8724 H   0  0  0  0  0  0  0  0  0  0  0  0  # atno 7974 bound_to 7965
  155.5152  140.3478  155.4396 H   0  0  0  0  0  0  0  0  0  0  0  0  # atno 8008 bound_to 7997
  156.0822  140.1389  156.9725 H   0  0  0  0  0  0  0  0  0  0  0  0  # atno 8009 bound_to 7997
  154.4586  140.0943  156.6805 H   0  0  0  0  0  0  0  0  0  0  0  0  # atno 8010 bound_to 7997
  139.5294  144.6612  151.5005 H   0  0  0  0  0  0  0  0  0  0  0  0  # atno 10167 bound_to 10162
  157.1208  131.0492  151.2416 H   0  0  0  0  0  0  0  0  0  0  0  0  # atno 10718 bound_to 10713
  153.6003  135.3449  155.2943 H   0  0  0  0  0  0  0  0  0  0  0  0  # atno 10763 bound_to 10752
  154.8637  135.4226  154.2419 H   0  0  0  0  0  0  0  0  0  0  0  0  # atno 10764 bound_to 10752
  153.3247  135.7040  153.7071 H   0  0  0  0  0  0  0  0  0  0  0  0  # atno 10765 bound_to 10752
  139.9410  134.9635  156.8570 H   0  0  0  0  0  0  0  0  0  0  0  0  # atno 11005 bound_to 11000
  145.3312  141.0267  143.3445 LP  0  0  0  0  0  0  0  0  0  0  0  0  # atno 17320 bound_to 7965
  144.8797  139.4921  143.6728 LP  0  0  0  0  0  0  0  0  0  0  0  0  # atno 17321 bound_to 7965
  140.6462  143.8790  150.6739 LP  0  0  0  0  0  0  0  0  0  0  0  0  # atno 17342 bound_to 10162
  140.2140  143.3861  152.1695 LP  0  0  0  0  0  0  0  0  0  0  0  0  # atno 17343 bound_to 10162
  157.4478  130.7581  149.7125 LP  0  0  0  0  0  0  0  0  0  0  0  0  # atno 17370 bound_to 10713
  155.9829  130.4005  150.3392 LP  0  0  0  0  0  0  0  0  0  0  0  0  # atno 17371 bound_to 10713
  140.5952  134.0224  155.7515 LP  0  0  0  0  0  0  0  0  0  0  0  0  # atno 17394 bound_to 11000
  141.1044  133.9716  157.3022 LP  0  0  0  0  0  0  0  0  0  0  0  0  # atno 17395 bound_to 11000

$$$$
