AV-unprocessed.smi:937|AV-procd|sdf|4212|dock8
  -GOLD-   22720 2123D 1   1.00000     0.00000
 Structure written by MMmdl.
 45 46  0  0  0  0  0  0  0  0  1 V2000
  153.9748  141.5952  159.8707 C   0  0  0  0  0  0  0  0  0  0  0  0
  153.0761  141.0038  158.8048 C   0  0  0  0  0  0  0  0  0  0  0  0
  151.8564  141.6233  158.4595 C   0  0  0  0  0  0  0  0  0  0  0  0
  151.0583  141.0248  157.4655 C   0  0  0  0  0  0  0  0  0  0  0  0
  151.5088  139.8356  156.8563 C   0  0  0  0  0  0  0  0  0  0  0  0
  150.6849  139.1430  155.7888 C   0  0  0  0  0  0  0  0  0  0  0  0
  151.5653  138.5059  154.7056 C   0  0  0  0  0  0  0  0  0  0  0  0
  150.9335  137.3088  154.1690 N   0  0  0  0  0  0  0  0  0  0  0  0
  151.1951  136.0586  154.5829 C   0  0  0  0  0  0  0  0  0  0  0  0
  151.9985  135.7956  155.4755 O   0  0  0  0  0  0  0  0  0  0  0  0
  150.5158  135.0951  153.9350 N   0  0  0  0  0  0  0  0  0  0  0  0
  150.5668  133.6435  154.1383 C   0  0  1  0  0  0  0  0  0  0  0  0
  150.2255  133.2541  155.5932 C   0  0  0  0  0  0  0  0  0  0  0  0
  148.7439  133.4947  155.9240 C   0  0  0  0  0  0  0  0  0  0  0  0
  147.8257  132.7661  154.9307 C   0  0  0  0  0  0  0  0  0  0  0  0
  148.1240  133.1745  153.4728 C   0  0  2  0  0  0  0  0  0  0  0  0
  147.1967  132.4571  152.4701 C   0  0  0  0  0  0  0  0  0  0  0  0
  145.9191  132.5826  152.8309 F   0  0  0  0  0  0  0  0  0  0  0  0
  147.3532  132.9744  151.2516 F   0  0  0  0  0  0  0  0  0  0  0  0
  147.5031  131.1610  152.4135 F   0  0  0  0  0  0  0  0  0  0  0  0
  149.6176  132.9394  153.1473 C   0  0  0  0  0  0  0  0  0  0  0  0
  152.7457  139.2993  157.2726 C   0  0  0  0  0  0  0  0  0  0  0  0
  153.5170  139.8653  158.2255 N   0  0  0  0  0  0  0  0  0  0  0  0
  153.5573  142.5184  160.2735 H   0  0  0  0  0  0  0  0  0  0  0  0
  154.9585  141.8194  159.4571 H   0  0  0  0  0  0  0  0  0  0  0  0
  154.0991  140.8911  160.6939 H   0  0  0  0  0  0  0  0  0  0  0  0
  151.5364  142.5339  158.9446 H   0  0  0  0  0  0  0  0  0  0  0  0
  150.1171  141.4713  157.1800 H   0  0  0  0  0  0  0  0  0  0  0  0
  150.0552  138.3846  156.2562 H   0  0  0  0  0  0  0  0  0  0  0  0
  150.0086  139.8722  155.3408 H   0  0  0  0  0  0  0  0  0  0  0  0
  151.7393  139.2233  153.9019 H   0  0  0  0  0  0  0  0  0  0  0  0
  152.5397  138.2397  155.1173 H   0  0  0  0  0  0  0  0  0  0  0  0
  150.2602  137.4360  153.4277 H   0  0  0  0  0  0  0  0  0  0  0  0
  149.9089  135.4061  153.1904 H   0  0  0  0  0  0  0  0  0  0  0  0
  151.5790  133.3025  153.9135 H   0  0  0  0  0  0  0  0  0  0  0  0
  150.4527  132.1975  155.7397 H   0  0  0  0  0  0  0  0  0  0  0  0
  150.8562  133.7949  156.2994 H   0  0  0  0  0  0  0  0  0  0  0  0
  148.5324  133.1560  156.9385 H   0  0  0  0  0  0  0  0  0  0  0  0
  148.5295  134.5641  155.9076 H   0  0  0  0  0  0  0  0  0  0  0  0
  147.9498  131.6887  155.0459 H   0  0  0  0  0  0  0  0  0  0  0  0
  146.7858  132.9834  155.1762 H   0  0  0  0  0  0  0  0  0  0  0  0
  147.9254  134.2438  153.3839 H   0  0  0  0  0  0  0  0  0  0  0  0
  149.8379  133.2701  152.1315 H   0  0  0  0  0  0  0  0  0  0  0  0
  149.8230  131.8683  153.1643 H   0  0  0  0  0  0  0  0  0  0  0  0
  153.1250  138.3887  156.8328 H   0  0  0  0  0  0  0  0  0  0  0  0
  1  2  1  0  0  0  0
  1 24  1  0  0  0  0
  1 25  1  0  0  0  0
  1 26  1  0  0  0  0
  2 23  1  0  0  0  0
  2  3  2  0  0  0  0
  3  4  1  0  0  0  0
  3 27  1  0  0  0  0
  4  5  2  0  0  0  0
  4 28  1  0  0  0  0
  5  6  1  0  0  0  0
  5 22  1  0  0  0  0
  6  7  1  0  0  0  0
  6 29  1  0  0  0  0
  6 30  1  0  0  0  0
  7  8  1  0  0  0  0
  7 31  1  0  0  0  0
  7 32  1  0  0  0  0
  8  9  1  0  0  0  0
  8 33  1  0  0  0  0
  9 10  2  0  0  0  0
  9 11  1  0  0  0  0
 11 12  1  0  0  0  0
 11 34  1  0  0  0  0
 12 21  1  0  0  0  0
 12 13  1  0  0  0  0
 12 35  1  0  0  0  0
 13 14  1  0  0  0  0
 13 36  1  0  0  0  0
 13 37  1  0  0  0  0
 14 15  1  0  0  0  0
 14 38  1  0  0  0  0
 14 39  1  0  0  0  0
 15 16  1  0  0  0  0
 15 40  1  0  0  0  0
 15 41  1  0  0  0  0
 16 17  1  0  0  0  0
 16 21  1  0  0  0  0
 16 42  1  0  0  0  0
 17 18  1  0  0  0  0
 17 19  1  0  0  0  0
 17 20  1  0  0  0  0
 21 43  1  0  0  0  0
 21 44  1  0  0  0  0
 22 23  2  0  0  0  0
 22 45  1  0  0  0  0
M  END
> <s_m_source_file>
AV-unprocessed.smi

> <i_m_source_file_index>
937

> <i_lp_mmshare_version>
43012

> <i_f3d_flags>
0

> <s_epik_input>
W0NIM11jMVtjSF1bY0hdYyhbY0hdbjEpW0NIMl1bQ0gyXVtOSF1DKD1PKVtOSF1bQ0BASF0yW0NIMl1bQ0gyXVtDSDJdW0NAQEhdKEMoRikoRilGKVtDSDJdMg==

> <s_epik_cmdline>
J2VwaWtfcHl0aG9uJywgJy1waCcsICc3LjAnLCAnLXRuJywgJzgnLCAnLW1hJywgJzIwMCcsICctbWV0YWxfYmluZGluZycsICctaW1hZScsICc8aW5maWxlLm1hZT4nLCAnLW9tYWUnLCAnPG91dGZpbGUubWFlPic=

> <r_epik_Ionization_Penalty>
0.0563445

> <r_epik_Ionization_Penalty_Charging>
0

> <r_epik_Ionization_Penalty_Neutral>
0.0563445

> <r_epik_State_Penalty>
0.0485409

> <r_epik_Charging_Adjusted_Penalty>
0.0485409

> <i_epik_Tot_Q>
0

> <i_epik_Tot_abs_Q>
0

> <r_epik_Metal_State_Penalty>
0.0443056

> <b_epik_Metal_Only>
0

> <s_lp_Force_Field>
OPLS_2005

> <r_lp_Energy>
18.524

> <b_lp_Chiralities_Consistent>
1

> <s_lp_Variant>
AV-unprocessed.smi:937-4

> <Gold.Version>
5.8.1

> <Gold.Id.Protein>
6NUR|6NUR_protein|mol2

> <Gold.PLP.Fitness>
45.0689

> <Gold.PLP.PLP>
-37.1062

> <Gold.PLP.part.hbond>
-6.0000

> <Gold.PLP.part.metal>
0.0000

> <Gold.PLP.part.buried>
-2.0131

> <Gold.PLP.part.nonpolar>
-30.4190

> <Gold.PLP.part.repulsive>
0.1923

> <Gold.PLP.ligand.clash>
0.0000

> <Gold.PLP.ligand.torsion>
0.8045

> <Gold.PLP.Chemscore.Hbond>
3.1747

> <Gold.PLP.Chemscore.CHOScore>
0.0000

> <Gold.PLP.Chemscore.Metal>
0.0000

> <Gold.Chemscore.Hbonds>
donor molecule, donor type, donor heavy atom, donor atom, acceptor molecule, acceptor atom, score
      L1  H     8    33       P1  7948  0.20
      L1  H    11    34       P1  7948  0.05
      P1  H  7997  8010       L1    23  0.40
      P1  H 10752 10763       L1    10  0.24

> <Gold.PLP.Chemscore.Internal.Correction>
0.0476

> <Gold.Rescore>
     Score         DG    S(hbond)    S(metal)    S(lipo)     H(rot)  DE(clash)    DE(int)     intcor
     14.10     -16.18       1.46        0.00      84.45       1.58       1.34       0.74       ----

> <Gold.Chemscore.Fitness>
14.0992

> <Gold.Chemscore.DG>
-16.1818

> <Gold.Chemscore.ZeroCoef>
-5.4800

> <Gold.Chemscore.Hbond>
1.4605

> <Gold.Chemscore.Metal>
0.0000

> <Gold.Chemscore.Lipo>
84.4550

> <Gold.Chemscore.Internal_Hbond>
0.0000

> <Gold.Chemscore.DEClash>
1.3390

> <Gold.Chemscore.DEInternal>
0.7436

> <Gold.Chemscore.Rot>
1.5849

> <Gold.Chemscore.Internal.Correction>
   9.000000E+99

> <Gold.Chemscore.Hbonds>
donor molecule, donor type, donor heavy atom, donor atom, acceptor molecule, acceptor atom, score
      L1  H     8    33       P1  7948  0.04
      P1  H  7997  8010       L1    23  0.01
      P1  H 10752 10763       L1    10  0.16

> <Gold.Chemscore.Hbond.Weighted>
-4.8780

> <Gold.Chemscore.Metal.Weighted>
-0.0000

> <Gold.Chemscore.Lipo.Weighted>
-9.8812

> <Gold.Chemscore.Internal_Hbond.Weighted>
0.0000

> <Gold.Chemscore.DEClash.Weighted>
1.3390

> <Gold.Chemscore.DEInternal.Weighted>
0.7436

> <Gold.Chemscore.Rot.Weighted>
4.0574

> <Gold.Chemscore.Internal.Correction.Weighted>
   9.000000E+99

> <Gold.Protein.RotatedTorsions>
[ 6907 6896 6895 6894 ] final  133.17 input  -60.11 | X-H torsion
[ 7974 7965 7964 7962 ] final -135.02 input  175.53 | X-H torsion
[ 8008 7997 7996 7995 ] final   29.08 input   59.86 | X-H torsion
[ 10167 10162 10161 10158 ] final  -51.94 input  -65.29 | X-H torsion
[ 10718 10713 10712 10709 ] final  -90.74 input   66.30 | X-H torsion
[ 10763 10752 10751 10750 ] final   83.01 input  -60.55 | X-H torsion
[ 11005 11000 10999 10996 ] final  144.22 input  -57.11 | X-H torsion

> <Gold.Protein.ActiveResidues>
 VAL166  LYS551  ARG553  GLY616  TRP617  ASP618  TYR619  PRO620  LYS621  CYS622 
 ASP623  PHE694  ASN695  SER759  ASP760  ASP761  ALA762  ILE779  LEU786  VAL792 
 PHE793  MET794  SER795  GLU796  ALA797  LYS798  CYS799  TRP800  GLU811  SER814 

> <Gold.Protein.RotatedAtoms>
  152.3248  133.5892  159.5768 H   0  0  0  0  0  0  0  0  0  0  0  0  # atno 6907 bound_to 6896
  150.7390  133.9957  159.3630 H   0  0  0  0  0  0  0  0  0  0  0  0  # atno 6908 bound_to 6896
  151.7838  135.0755  160.0428 H   0  0  0  0  0  0  0  0  0  0  0  0  # atno 6909 bound_to 6896
  144.9051  140.6822  143.5060 H   0  0  0  0  0  0  0  0  0  0  0  0  # atno 7974 bound_to 7965
  155.0688  140.3198  155.4637 H   0  0  0  0  0  0  0  0  0  0  0  0  # atno 8008 bound_to 7997
  156.2795  140.2115  156.5761 H   0  0  0  0  0  0  0  0  0  0  0  0  # atno 8009 bound_to 7997
  154.7071  140.0501  157.0502 H   0  0  0  0  0  0  0  0  0  0  0  0  # atno 8010 bound_to 7997
  140.6563  143.2601  151.4576 H   0  0  0  0  0  0  0  0  0  0  0  0  # atno 10167 bound_to 10162
  155.9989  130.4921  150.5369 H   0  0  0  0  0  0  0  0  0  0  0  0  # atno 10718 bound_to 10713
  153.1253  135.4707  154.9262 H   0  0  0  0  0  0  0  0  0  0  0  0  # atno 10763 bound_to 10752
  154.7614  135.3132  154.8373 H   0  0  0  0  0  0  0  0  0  0  0  0  # atno 10764 bound_to 10752
  153.8928  135.6883  153.4813 H   0  0  0  0  0  0  0  0  0  0  0  0  # atno 10765 bound_to 10752
  140.0615  134.9202  157.1192 H   0  0  0  0  0  0  0  0  0  0  0  0  # atno 11005 bound_to 11000
  145.3549  139.1696  143.4414 LP  0  0  0  0  0  0  0  0  0  0  0  0  # atno 17320 bound_to 7965
  146.3129  140.3605  142.8664 LP  0  0  0  0  0  0  0  0  0  0  0  0  # atno 17321 bound_to 7965
  139.5786  144.1761  152.1937 LP  0  0  0  0  0  0  0  0  0  0  0  0  # atno 17342 bound_to 10162
  140.1079  144.5482  150.6944 LP  0  0  0  0  0  0  0  0  0  0  0  0  # atno 17343 bound_to 10162
  157.3311  131.0699  151.1860 LP  0  0  0  0  0  0  0  0  0  0  0  0  # atno 17370 bound_to 10713
  157.2741  130.6718  149.6033 LP  0  0  0  0  0  0  0  0  0  0  0  0  # atno 17371 bound_to 10713
  140.3763  134.2336  155.7174 LP  0  0  0  0  0  0  0  0  0  0  0  0  # atno 17394 bound_to 11000
  141.1975  133.8057  157.0625 LP  0  0  0  0  0  0  0  0  0  0  0  0  # atno 17395 bound_to 11000

$$$$
