AV-unprocessed.smi:1622|AV-procd|sdf|6499|dock10
  -GOLD-   22720 7163D 1   1.00000     0.00000
 Structure written by MMmdl.
 40 41  0  0  0  0  0  0  0  0  3 V2000
  149.3021  130.6979  153.9489 C   0  0  0  0  0  0  0  0  0  0  0  0
  148.2463  131.6095  153.3042 C   0  0  0  0  0  0  0  0  0  0  0  0
  148.6655  133.1002  153.1807 C   0  0  2  0  0  0  0  0  0  0  0  0
  149.0804  133.7114  154.5423 C   0  0  0  0  0  0  0  0  0  0  0  0
  149.9851  134.8423  154.3758 N   0  0  0  0  0  0  0  0  0  0  0  0
  150.6795  135.4308  155.3578 C   0  0  0  0  0  0  0  0  0  0  0  0
  150.5661  135.0278  156.5176 O   0  0  0  0  0  0  0  0  0  0  0  0
  151.4636  136.4463  154.9324 N   0  5  0  0  0  0  0  0  0  0  0  0
  150.9501  137.6805  154.7988 C   0  0  0  0  0  0  0  0  0  0  0  0
  151.7175  138.7792  154.7701 N   0  0  0  0  0  0  0  0  0  0  0  0
  150.9864  139.9501  154.6298 N   0  0  0  0  0  0  0  0  0  0  0  0
  149.6732  139.7182  154.5640 C   0  0  0  0  0  0  0  0  0  0  0  0
  148.6698  140.8099  154.4144 C   0  0  0  0  0  0  0  0  0  0  0  0
  149.2253  138.0243  154.6720 S   0  0  0  0  0  0  0  0  0  0  0  0
  147.6021  133.9085  152.5146 N   0  3  0  0  0  0  0  0  0  0  0  0
  147.0822  133.3682  151.2396 C   0  0  0  0  0  0  0  0  0  0  0  0
  145.7454  134.0699  151.0302 C   0  0  0  0  0  0  0  0  0  0  0  0
  145.1843  134.1684  152.4438 C   0  0  0  0  0  0  0  0  0  0  0  0
  146.4183  134.2207  153.3554 C   0  0  0  0  0  0  0  0  0  0  0  0
  148.9266  129.6778  154.0322 H   0  0  0  0  0  0  0  0  0  0  0  0
  149.5640  131.0348  154.9517 H   0  0  0  0  0  0  0  0  0  0  0  0
  150.2158  130.6589  153.3557 H   0  0  0  0  0  0  0  0  0  0  0  0
  148.0024  131.2139  152.3179 H   0  0  0  0  0  0  0  0  0  0  0  0
  147.3183  131.5228  153.8683 H   0  0  0  0  0  0  0  0  0  0  0  0
  149.5430  133.1370  152.5328 H   0  0  0  0  0  0  0  0  0  0  0  0
  148.2103  134.0793  155.0865 H   0  0  0  0  0  0  0  0  0  0  0  0
  149.5439  132.9487  155.1702 H   0  0  0  0  0  0  0  0  0  0  0  0
  150.1034  135.2060  153.4415 H   0  0  0  0  0  0  0  0  0  0  0  0
  148.6952  141.4629  155.2870 H   0  0  0  0  0  0  0  0  0  0  0  0
  147.6668  140.3938  154.3182 H   0  0  0  0  0  0  0  0  0  0  0  0
  148.8892  141.4014  153.5253 H   0  0  0  0  0  0  0  0  0  0  0  0
  147.7676  133.5444  150.4100 H   0  0  0  0  0  0  0  0  0  0  0  0
  146.9235  132.2923  151.3319 H   0  0  0  0  0  0  0  0  0  0  0  0
  145.9109  135.0694  150.6258 H   0  0  0  0  0  0  0  0  0  0  0  0
  145.0860  133.5336  150.3470 H   0  0  0  0  0  0  0  0  0  0  0  0
  144.5303  135.0312  152.5721 H   0  0  0  0  0  0  0  0  0  0  0  0
  144.6003  133.2750  152.6687 H   0  0  0  0  0  0  0  0  0  0  0  0
  146.3003  133.5031  154.1685 H   0  0  0  0  0  0  0  0  0  0  0  0
  146.5437  135.2088  153.7994 H   0  0  0  0  0  0  0  0  0  0  0  0
  148.0187  134.7984  152.2806 H   0  0  0  0  0  0  0  0  0  0  0  0
  1  2  1  0  0  0  0
  1 20  1  0  0  0  0
  1 21  1  0  0  0  0
  1 22  1  0  0  0  0
  2  3  1  0  0  0  0
  2 23  1  0  0  0  0
  2 24  1  0  0  0  0
  3  4  1  0  0  0  0
  3 15  1  0  0  0  0
  3 25  1  0  0  0  0
  4  5  1  0  0  0  0
  4 26  1  0  0  0  0
  4 27  1  0  0  0  0
  5  6  1  0  0  0  0
  5 28  1  0  0  0  0
  6  7  2  0  0  0  0
  6  8  1  0  0  0  0
  8  9  1  0  0  0  0
  9 14  1  0  0  0  0
  9 10  2  0  0  0  0
 10 11  1  0  0  0  0
 11 12  2  0  0  0  0
 12 13  1  0  0  0  0
 12 14  1  0  0  0  0
 13 29  1  0  0  0  0
 13 30  1  0  0  0  0
 13 31  1  0  0  0  0
 15 19  1  0  0  0  0
 15 16  1  0  0  0  0
 15 40  1  0  0  0  0
 16 17  1  0  0  0  0
 16 32  1  0  0  0  0
 16 33  1  0  0  0  0
 17 18  1  0  0  0  0
 17 34  1  0  0  0  0
 17 35  1  0  0  0  0
 18 19  1  0  0  0  0
 18 36  1  0  0  0  0
 18 37  1  0  0  0  0
 19 38  1  0  0  0  0
 19 39  1  0  0  0  0
M  CHG  1   8  -1
M  CHG  1  15   1
M  END
> <s_m_source_file>
AV-unprocessed.smi

> <i_m_source_file_index>
1622

> <i_lp_mmshare_version>
43012

> <i_f3d_flags>
0

> <s_epik_input>
W0NIMl0xW0NIMl1bQ0gyXVtDSDJdTjFbQ0BIXShbQ0gyXVtDSDNdKVtDSDJdW05IXUMoPU8pW05IXWMybm5jKHMyKVtDSDNd

> <s_epik_cmdline>
J2VwaWtfcHl0aG9uJywgJy1waCcsICc3LjAnLCAnLXRuJywgJzgnLCAnLW1hJywgJzIwMCcsICctbWV0YWxfYmluZGluZycsICctaW1hZScsICc8aW5maWxlLm1hZT4nLCAnLW9tYWUnLCAnPG91dGZpbGUubWFlPic=

> <r_lp_tautomer_probability>
1

> <r_epik_Ionization_Penalty>
4.34497

> <r_epik_Ionization_Penalty_Charging>
4.23453

> <r_epik_Ionization_Penalty_Neutral>
0.110433

> <r_epik_State_Penalty>
4.23293

> <r_epik_Charging_Adjusted_Penalty>
8.46746

> <i_epik_Tot_Q>
0

> <i_epik_Tot_abs_Q>
2

> <r_epik_Metal_State_Penalty>
0.701092

> <b_epik_Metal_Only>
1

> <s_lp_Force_Field>
OPLS_2005

> <r_lp_Energy>
26.4527

> <b_lp_Chiralities_Consistent>
1

> <s_lp_Variant>
AV-unprocessed.smi:1622-3

> <Gold.Version>
5.8.1

> <Gold.Id.Protein>
6NUR|6NUR_protein|mol2

> <Gold.PLP.Fitness>
46.1493

> <Gold.PLP.PLP>
-33.1326

> <Gold.PLP.part.hbond>
-4.1219

> <Gold.PLP.part.metal>
0.0000

> <Gold.PLP.part.buried>
-6.5045

> <Gold.PLP.part.nonpolar>
-24.6405

> <Gold.PLP.part.repulsive>
0.3664

> <Gold.PLP.ligand.clash>
0.0000

> <Gold.PLP.ligand.torsion>
1.2187

> <Gold.PLP.Chemscore.Hbond>
5.0572

> <Gold.PLP.Chemscore.CHOScore>
0.0000

> <Gold.PLP.Chemscore.Metal>
0.0000

> <Gold.Chemscore.Hbonds>
donor molecule, donor type, donor heavy atom, donor atom, acceptor molecule, acceptor atom, score
      L1  H    15    40       P1  7948  2.00
      P1  H  7989  7998       L1    11  1.00
      P1  H 10752 10764       L1     8  2.00

> <Gold.PLP.Chemscore.Internal.Correction>
0.2826

> <Gold.Rescore>
     Score         DG    S(hbond)    S(metal)    S(lipo)     H(rot)  DE(clash)    DE(int)     intcor
     15.79     -16.94       2.68        0.00      59.28       1.73       0.08       1.07       ----

> <Gold.Chemscore.Fitness>
15.7907

> <Gold.Chemscore.DG>
-16.9378

> <Gold.Chemscore.ZeroCoef>
-5.4800

> <Gold.Chemscore.Hbond>
2.6836

> <Gold.Chemscore.Metal>
0.0000

> <Gold.Chemscore.Lipo>
59.2795

> <Gold.Chemscore.Internal_Hbond>
0.0000

> <Gold.Chemscore.DEClash>
0.0775

> <Gold.Chemscore.DEInternal>
1.0696

> <Gold.Chemscore.Rot>
1.7348

> <Gold.Chemscore.Internal.Correction>
   9.000000E+99

> <Gold.Chemscore.Hbonds>
donor molecule, donor type, donor heavy atom, donor atom, acceptor molecule, acceptor atom, score
      L1  H    15    40       P1  7948  0.55
      P1  H  7989  7998       L1    11  0.70
      P1  H 10752 10764       L1     8  0.49

> <Gold.Chemscore.Hbond.Weighted>
-8.9632

> <Gold.Chemscore.Metal.Weighted>
-0.0000

> <Gold.Chemscore.Lipo.Weighted>
-6.9357

> <Gold.Chemscore.Internal_Hbond.Weighted>
0.0000

> <Gold.Chemscore.DEClash.Weighted>
0.0775

> <Gold.Chemscore.DEInternal.Weighted>
1.0696

> <Gold.Chemscore.Rot.Weighted>
4.4411

> <Gold.Chemscore.Internal.Correction.Weighted>
   9.000000E+99

> <Gold.Protein.RotatedTorsions>
[ 6907 6896 6895 6894 ] final   88.18 input  -60.11 | X-H torsion
[ 7974 7965 7964 7962 ] final  -30.33 input  175.53 | X-H torsion
[ 8008 7997 7996 7995 ] final -141.68 input   59.86 | X-H torsion
[ 10167 10162 10161 10158 ] final  129.84 input  -65.29 | X-H torsion
[ 10718 10713 10712 10709 ] final   38.76 input   66.30 | X-H torsion
[ 10763 10752 10751 10750 ] final  -78.18 input  -60.55 | X-H torsion
[ 11005 11000 10999 10996 ] final  -93.59 input  -57.11 | X-H torsion

> <Gold.Protein.ActiveResidues>
 VAL166  LYS551  ARG553  GLY616  TRP617  ASP618  TYR619  PRO620  LYS621  CYS622 
 ASP623  PHE694  ASN695  SER759  ASP760  ASP761  ALA762  ILE779  LEU786  VAL792 
 PHE793  MET794  SER795  GLU796  ALA797  LYS798  CYS799  TRP800  GLU811  SER814 

> <Gold.Protein.RotatedAtoms>
  152.5421  134.2161  159.8768 H   0  0  0  0  0  0  0  0  0  0  0  0  # atno 6907 bound_to 6896
  151.2141  133.4532  159.2606 H   0  0  0  0  0  0  0  0  0  0  0  0  # atno 6908 bound_to 6896
  151.0868  134.9905  159.8439 H   0  0  0  0  0  0  0  0  0  0  0  0  # atno 6909 bound_to 6896
  146.1150  140.5527  142.8761 H   0  0  0  0  0  0  0  0  0  0  0  0  # atno 7974 bound_to 7965
  155.4818  140.0561  157.2966 H   0  0  0  0  0  0  0  0  0  0  0  0  # atno 8008 bound_to 7997
  154.4657  140.2017  156.0077 H   0  0  0  0  0  0  0  0  0  0  0  0  # atno 8009 bound_to 7997
  156.0970  140.3225  155.7895 H   0  0  0  0  0  0  0  0  0  0  0  0  # atno 8010 bound_to 7997
  139.5458  144.6772  151.4476 H   0  0  0  0  0  0  0  0  0  0  0  0  # atno 10167 bound_to 10162
  157.3626  130.7658  149.7059 H   0  0  0  0  0  0  0  0  0  0  0  0  # atno 10718 bound_to 10713
  154.5226  135.5738  153.6693 H   0  0  0  0  0  0  0  0  0  0  0  0  # atno 10763 bound_to 10752
  152.9920  135.6185  154.2735 H   0  0  0  0  0  0  0  0  0  0  0  0  # atno 10764 bound_to 10752
  154.2656  135.2855  155.2739 H   0  0  0  0  0  0  0  0  0  0  0  0  # atno 10765 bound_to 10752
  141.1493  133.7898  157.0181 H   0  0  0  0  0  0  0  0  0  0  0  0  # atno 11005 bound_to 11000
  144.7545  140.5274  143.6778 LP  0  0  0  0  0  0  0  0  0  0  0  0  # atno 17320 bound_to 7965
  145.5584  139.1478  143.3355 LP  0  0  0  0  0  0  0  0  0  0  0  0  # atno 17321 bound_to 7965
  140.6706  143.8302  150.6995 LP  0  0  0  0  0  0  0  0  0  0  0  0  # atno 17342 bound_to 10162
  140.1725  143.4183  152.1991 LP  0  0  0  0  0  0  0  0  0  0  0  0  # atno 17343 bound_to 10162
  155.9740  130.4109  150.3956 LP  0  0  0  0  0  0  0  0  0  0  0  0  # atno 17370 bound_to 10713
  157.2036  131.0444  151.2637 LP  0  0  0  0  0  0  0  0  0  0  0  0  # atno 17371 bound_to 10713
  140.0834  134.9635  157.1661 LP  0  0  0  0  0  0  0  0  0  0  0  0  # atno 17394 bound_to 11000
  140.3545  134.2562  155.7194 LP  0  0  0  0  0  0  0  0  0  0  0  0  # atno 17395 bound_to 11000

$$$$
