AV-unprocessed.smi:2538|AV-procd|sdf|9981|dock4
  -GOLD-   2272014 23D 1   1.00000     0.00000
 Structure written by MMmdl.
 48 49  0  0  0  0  0  0  0  0  1 V2000
  153.5321  143.0908  163.4798 C   0  0  0  0  0  0  0  0  0  0  0  0
  153.0286  142.8990  162.0600 C   0  0  0  0  0  0  0  0  0  0  0  0
  152.1779  143.8760  161.4953 C   0  0  0  0  0  0  0  0  0  0  0  0
  151.6871  143.7355  160.1788 C   0  0  0  0  0  0  0  0  0  0  0  0
  150.8548  144.5562  159.4367 N   0  0  0  0  0  0  0  0  0  0  0  0
  150.7680  143.8850  158.2919 C   0  0  0  0  0  0  0  0  0  0  0  0
  151.4478  142.7256  158.2045 N   0  0  0  0  0  0  0  0  0  0  0  0
  151.5099  141.8258  157.0669 C   0  0  0  0  0  0  0  0  0  0  0  0
  150.1199  141.5543  156.4600 C   0  0  2  0  0  0  0  0  0  0  0  0
  149.8178  142.6042  155.5617 O   0  0  0  0  0  0  0  0  0  0  0  0
  149.0202  141.4941  157.5420 C   0  0  0  0  0  0  0  0  0  0  0  0
  147.7850  140.8313  157.0810 N   0  0  0  0  0  0  0  0  0  0  0  0
  147.9346  139.4495  156.6055 C   0  0  0  0  0  0  0  0  0  0  0  0
  146.4497  141.7738  156.4913 S   0  0  0  0  0  0  0  0  0  0  0  0
  145.2887  140.8724  156.4255 O   0  0  0  0  0  0  0  0  0  0  0  0
  146.3765  142.9968  157.3062 O   0  0  0  0  0  0  0  0  0  0  0  0
  146.9529  142.2190  154.7572 C   0  0  0  0  0  0  0  0  0  0  0  0
  145.8987  143.1241  154.1039 C   0  0  0  0  0  0  0  0  0  0  0  0
  147.2041  140.9553  153.9221 C   0  0  0  0  0  0  0  0  0  0  0  0
  152.0736  142.5812  159.4373 C   0  0  0  0  0  0  0  0  0  0  0  0
  152.9191  141.6019  159.9878 C   0  0  0  0  0  0  0  0  0  0  0  0
  153.4019  141.7588  161.3039 C   0  0  0  0  0  0  0  0  0  0  0  0
  154.3166  140.6974  161.8887 C   0  0  0  0  0  0  0  0  0  0  0  0
  153.1011  143.9813  163.9382 H   0  0  0  0  0  0  0  0  0  0  0  0
  154.6169  143.2005  163.4879 H   0  0  0  0  0  0  0  0  0  0  0  0
  153.2655  142.2351  164.1005 H   0  0  0  0  0  0  0  0  0  0  0  0
  151.8944  144.7452  162.0702 H   0  0  0  0  0  0  0  0  0  0  0  0
  150.1788  144.2591  157.4675 H   0  0  0  0  0  0  0  0  0  0  0  0
  152.1655  142.2761  156.3205 H   0  0  0  0  0  0  0  0  0  0  0  0
  151.9837  140.8936  157.3784 H   0  0  0  0  0  0  0  0  0  0  0  0
  150.1699  140.6197  155.9029 H   0  0  0  0  0  0  0  0  0  0  0  0
  149.8927  143.4256  156.0226 H   0  0  0  0  0  0  0  0  0  0  0  0
  149.3878  140.9295  158.3996 H   0  0  0  0  0  0  0  0  0  0  0  0
  148.7934  142.4849  157.9372 H   0  0  0  0  0  0  0  0  0  0  0  0
  148.2571  139.4348  155.5646 H   0  0  0  0  0  0  0  0  0  0  0  0
  146.9842  138.9209  156.6762 H   0  0  0  0  0  0  0  0  0  0  0  0
  148.6658  138.9077  157.2058 H   0  0  0  0  0  0  0  0  0  0  0  0
  147.8842  142.7777  154.8158 H   0  0  0  0  0  0  0  0  0  0  0  0
  146.1935  143.3996  153.0912 H   0  0  0  0  0  0  0  0  0  0  0  0
  145.7645  144.0479  154.6665 H   0  0  0  0  0  0  0  0  0  0  0  0
  144.9314  142.6246  154.0457 H   0  0  0  0  0  0  0  0  0  0  0  0
  147.5479  141.2103  152.9195 H   0  0  0  0  0  0  0  0  0  0  0  0
  146.2968  140.3587  153.8207 H   0  0  0  0  0  0  0  0  0  0  0  0
  147.9688  140.3279  154.3811 H   0  0  0  0  0  0  0  0  0  0  0  0
  153.1945  140.7381  159.4006 H   0  0  0  0  0  0  0  0  0  0  0  0
  154.5483  139.9240  161.1558 H   0  0  0  0  0  0  0  0  0  0  0  0
  153.8434  140.2171  162.7454 H   0  0  0  0  0  0  0  0  0  0  0  0
  155.2578  141.1399  162.2153 H   0  0  0  0  0  0  0  0  0  0  0  0
  1  2  1  0  0  0  0
  1 24  1  0  0  0  0
  1 25  1  0  0  0  0
  1 26  1  0  0  0  0
  2 22  1  0  0  0  0
  2  3  2  0  0  0  0
  3  4  1  0  0  0  0
  3 27  1  0  0  0  0
  4 20  2  0  0  0  0
  4  5  1  0  0  0  0
  5  6  2  0  0  0  0
  6  7  1  0  0  0  0
  6 28  1  0  0  0  0
  7  8  1  0  0  0  0
  7 20  1  0  0  0  0
  8  9  1  0  0  0  0
  8 29  1  0  0  0  0
  8 30  1  0  0  0  0
  9 10  1  0  0  0  0
  9 11  1  0  0  0  0
  9 31  1  0  0  0  0
 10 32  1  0  0  0  0
 11 12  1  0  0  0  0
 11 33  1  0  0  0  0
 11 34  1  0  0  0  0
 12 13  1  0  0  0  0
 12 14  1  0  0  0  0
 13 35  1  0  0  0  0
 13 36  1  0  0  0  0
 13 37  1  0  0  0  0
 14 15  2  0  0  0  0
 14 16  2  0  0  0  0
 14 17  1  0  0  0  0
 17 18  1  0  0  0  0
 17 19  1  0  0  0  0
 17 38  1  0  0  0  0
 18 39  1  0  0  0  0
 18 40  1  0  0  0  0
 18 41  1  0  0  0  0
 19 42  1  0  0  0  0
 19 43  1  0  0  0  0
 19 44  1  0  0  0  0
 20 21  1  0  0  0  0
 21 22  2  0  0  0  0
 21 45  1  0  0  0  0
 22 23  1  0  0  0  0
 23 46  1  0  0  0  0
 23 47  1  0  0  0  0
 23 48  1  0  0  0  0
M  END
> <s_m_source_file>
AV-unprocessed.smi

> <i_m_source_file_index>
2538

> <i_lp_mmshare_version>
43012

> <i_f3d_flags>
0

> <s_epik_input>
W0NIM11jKFtjSF0xKWMoW0NIM10pW2NIXWMoYzEyKW4oW2NIXW4yKVtDSDJdW0NASF0oW09IXSlbQ0gyXU4oW0NIM10pUyg9TykoPU8pW0NIXShbQ0gzXSlbQ0gzXQ==

> <s_epik_cmdline>
J2VwaWtfcHl0aG9uJywgJy1waCcsICc3LjAnLCAnLXRuJywgJzgnLCAnLW1hJywgJzIwMCcsICctbWV0YWxfYmluZGluZycsICctaW1hZScsICc8aW5maWxlLm1hZT4nLCAnLW9tYWUnLCAnPG91dGZpbGUubWFlPic=

> <r_epik_Ionization_Penalty>
0.105018

> <r_epik_Ionization_Penalty_Charging>
0

> <r_epik_Ionization_Penalty_Neutral>
0.105018

> <r_epik_State_Penalty>
0.094904

> <r_epik_Charging_Adjusted_Penalty>
0.094904

> <i_epik_Tot_Q>
0

> <i_epik_Tot_abs_Q>
0

> <r_epik_Metal_State_Penalty>
0.000102919

> <b_epik_Metal_Only>
0

> <s_lp_Force_Field>
OPLS_2005

> <r_lp_Energy>
2.81525

> <b_lp_Chiralities_Consistent>
1

> <s_lp_Variant>
AV-unprocessed.smi:2538-1

> <Gold.Version>
5.8.1

> <Gold.Id.Protein>
6NUR|6NUR_protein|mol2

> <Gold.PLP.Fitness>
52.1803

> <Gold.PLP.PLP>
-49.0084

> <Gold.PLP.part.hbond>
-0.2943

> <Gold.PLP.part.metal>
0.0000

> <Gold.PLP.part.buried>
-7.0720

> <Gold.PLP.part.nonpolar>
-41.3340

> <Gold.PLP.part.repulsive>
0.3450

> <Gold.PLP.ligand.clash>
0.0000

> <Gold.PLP.ligand.torsion>
1.8737

> <Gold.PLP.Chemscore.Hbond>
0.4480

> <Gold.PLP.Chemscore.CHOScore>
1.0000

> <Gold.PLP.Chemscore.Metal>
0.0000

> <Gold.Chemscore.Hbonds>
donor molecule, donor type, donor heavy atom, donor atom, acceptor molecule, acceptor atom, score
      L1  H    10    32       P1  8028  0.43
      L1  C     6    28       P1  8028  1.00

> <Gold.PLP.Chemscore.Internal.Correction>
2.5752

> <Gold.Rescore>
     Score         DG    S(hbond)    S(metal)    S(lipo)     H(rot)  DE(clash)    DE(int)     intcor
     14.18     -16.03       0.64        0.00     122.07       2.29       0.04       1.80       ----

> <Gold.Chemscore.Fitness>
14.1835

> <Gold.Chemscore.DG>
-16.0322

> <Gold.Chemscore.ZeroCoef>
-5.4800

> <Gold.Chemscore.Hbond>
0.6399

> <Gold.Chemscore.Metal>
0.0000

> <Gold.Chemscore.Lipo>
122.0660

> <Gold.Chemscore.Internal_Hbond>
0.0000

> <Gold.Chemscore.DEClash>
0.0448

> <Gold.Chemscore.DEInternal>
1.8039

> <Gold.Chemscore.Rot>
2.2917

> <Gold.Chemscore.Internal.Correction>
   9.000000E+99

> <Gold.Chemscore.Hbonds>
donor molecule, donor type, donor heavy atom, donor atom, acceptor molecule, acceptor atom, score
      L1  H    10    32       P1  8028  0.44

> <Gold.Chemscore.Hbond.Weighted>
-2.1374

> <Gold.Chemscore.Metal.Weighted>
-0.0000

> <Gold.Chemscore.Lipo.Weighted>
-14.2817

> <Gold.Chemscore.Internal_Hbond.Weighted>
0.0000

> <Gold.Chemscore.DEClash.Weighted>
0.0448

> <Gold.Chemscore.DEInternal.Weighted>
1.8039

> <Gold.Chemscore.Rot.Weighted>
5.8669

> <Gold.Chemscore.Internal.Correction.Weighted>
   9.000000E+99

> <Gold.Protein.RotatedTorsions>
[ 6907 6896 6895 6894 ] final   87.33 input  -60.11 | X-H torsion
[ 7974 7965 7964 7962 ] final   92.54 input  175.53 | X-H torsion
[ 8008 7997 7996 7995 ] final  -26.47 input   59.86 | X-H torsion
[ 10167 10162 10161 10158 ] final   39.19 input  -65.29 | X-H torsion
[ 10718 10713 10712 10709 ] final   10.12 input   66.30 | X-H torsion
[ 10763 10752 10751 10750 ] final  177.42 input  -60.55 | X-H torsion
[ 11005 11000 10999 10996 ] final   80.75 input  -57.11 | X-H torsion

> <Gold.Protein.ActiveResidues>
 VAL166  LYS551  ARG553  GLY616  TRP617  ASP618  TYR619  PRO620  LYS621  CYS622 
 ASP623  PHE694  ASN695  SER759  ASP760  ASP761  ALA762  ILE779  LEU786  VAL792 
 PHE793  MET794  SER795  GLU796  ALA797  LYS798  CYS799  TRP800  GLU811  SER814 

> <Gold.Protein.RotatedAtoms>
  152.5409  134.2293  159.8818 H   0  0  0  0  0  0  0  0  0  0  0  0  # atno 6907 bound_to 6896
  151.2265  133.4466  159.2610 H   0  0  0  0  0  0  0  0  0  0  0  0  # atno 6908 bound_to 6896
  151.0755  134.9839  159.8386 H   0  0  0  0  0  0  0  0  0  0  0  0  # atno 6909 bound_to 6896
  145.4909  139.2276  143.2831 H   0  0  0  0  0  0  0  0  0  0  0  0  # atno 7974 bound_to 7965
  154.4424  140.1898  156.0780 H   0  0  0  0  0  0  0  0  0  0  0  0  # atno 8008 bound_to 7997
  156.0461  140.3314  155.7271 H   0  0  0  0  0  0  0  0  0  0  0  0  # atno 8009 bound_to 7997
  155.5628  140.0605  157.2816 H   0  0  0  0  0  0  0  0  0  0  0  0  # atno 8010 bound_to 7997
  140.3863  144.1912  150.6130 H   0  0  0  0  0  0  0  0  0  0  0  0  # atno 10167 bound_to 10162
  156.9763  130.5988  149.5673 H   0  0  0  0  0  0  0  0  0  0  0  0  # atno 10718 bound_to 10713
  154.4943  135.2780  155.1472 H   0  0  0  0  0  0  0  0  0  0  0  0  # atno 10763 bound_to 10752
  154.3131  135.6225  153.5478 H   0  0  0  0  0  0  0  0  0  0  0  0  # atno 10764 bound_to 10752
  152.9892  135.5724  154.5371 H   0  0  0  0  0  0  0  0  0  0  0  0  # atno 10765 bound_to 10752
  139.9123  134.7944  156.1950 H   0  0  0  0  0  0  0  0  0  0  0  0  # atno 11005 bound_to 11000
  146.2285  140.5702  142.8986 LP  0  0  0  0  0  0  0  0  0  0  0  0  # atno 17320 bound_to 7965
  144.7835  140.5888  143.6590 LP  0  0  0  0  0  0  0  0  0  0  0  0  # atno 17321 bound_to 7965
  140.4885  143.2355  151.8852 LP  0  0  0  0  0  0  0  0  0  0  0  0  # atno 17342 bound_to 10162
  139.4792  144.5191  151.8826 LP  0  0  0  0  0  0  0  0  0  0  0  0  # atno 17343 bound_to 10162
  156.0262  130.5356  150.8413 LP  0  0  0  0  0  0  0  0  0  0  0  0  # atno 17370 bound_to 10713
  157.5557  131.0945  150.9632 LP  0  0  0  0  0  0  0  0  0  0  0  0  # atno 17371 bound_to 10713
  141.0560  133.6865  156.1861 LP  0  0  0  0  0  0  0  0  0  0  0  0  # atno 17394 bound_to 11000
  140.6736  134.4841  157.5588 LP  0  0  0  0  0  0  0  0  0  0  0  0  # atno 17395 bound_to 11000

$$$$
