AV-unprocessed.smi:1440|AV-procd|sdf|5874|dock4
  -GOLD-   22720 5553D 1   1.00000     0.00000
 Structure written by MMmdl.
 41 42  0  0  0  0  0  0  0  0  1 V2000
  152.5858  143.1396  162.4278 C   0  0  0  0  0  0  0  0  0  0  0  0
  152.7379  143.6536  160.9892 C   0  0  2  0  0  0  0  0  0  0  0  0
  151.6815  144.7256  160.6592 C   0  0  0  0  0  0  0  0  0  0  0  0
  151.8241  145.2406  159.2152 C   0  0  0  0  0  0  0  0  0  0  0  0
  151.7836  144.0997  158.1802 C   0  0  2  0  0  0  0  0  0  0  0  0
  150.4335  143.5450  158.0928 N   0  0  0  0  0  0  0  0  0  0  0  0
  150.1031  142.3849  157.5058 C   0  0  0  0  0  0  0  0  0  0  0  0
  150.9263  141.6429  156.9673 O   0  0  0  0  0  0  0  0  0  0  0  0
  148.6155  142.0146  157.5572 C   0  0  0  0  0  0  0  0  0  0  0  0
  147.7715  143.0734  158.1056 N   0  0  0  0  0  0  0  0  0  0  0  0
  146.6255  142.8833  158.7790 C   0  0  0  0  0  0  0  0  0  0  0  0
  146.1488  141.7721  159.0081 O   0  0  0  0  0  0  0  0  0  0  0  0
  145.9071  144.1404  159.2707 C   0  0  0  0  0  0  0  0  0  0  0  0
  146.7806  144.9500  160.1006 N   0  0  0  0  0  0  0  0  0  0  0  0
  146.8812  146.2754  160.2192 C   0  0  0  0  0  0  0  0  0  0  0  0
  147.8107  146.6667  161.0798 N   0  0  0  0  0  0  0  0  0  0  0  0
  148.2756  145.4471  161.4841 C   0  0  0  0  0  0  0  0  0  0  0  0
  147.6922  144.3853  160.9278 N   0  0  0  0  0  0  0  0  0  0  0  0
  152.8232  143.0122  158.5261 C   0  0  0  0  0  0  0  0  0  0  0  0
  152.6721  142.5007  159.9695 C   0  0  0  0  0  0  0  0  0  0  0  0
  151.6151  142.6665  162.5799 H   0  0  0  0  0  0  0  0  0  0  0  0
  152.6758  143.9542  163.1469 H   0  0  0  0  0  0  0  0  0  0  0  0
  153.3555  142.4046  162.6654 H   0  0  0  0  0  0  0  0  0  0  0  0
  153.7226  144.1164  160.9086 H   0  0  0  0  0  0  0  0  0  0  0  0
  150.6814  144.3158  160.8057 H   0  0  0  0  0  0  0  0  0  0  0  0
  151.7727  145.5623  161.3526 H   0  0  0  0  0  0  0  0  0  0  0  0
  151.0450  145.9731  159.0009 H   0  0  0  0  0  0  0  0  0  0  0  0
  152.7717  145.7727  159.1218 H   0  0  0  0  0  0  0  0  0  0  0  0
  152.0346  144.5237  157.2062 H   0  0  0  0  0  0  0  0  0  0  0  0
  149.6937  144.0879  158.5141 H   0  0  0  0  0  0  0  0  0  0  0  0
  148.2760  141.8010  156.5433 H   0  0  0  0  0  0  0  0  0  0  0  0
  148.4867  141.0947  158.1303 H   0  0  0  0  0  0  0  0  0  0  0  0
  148.0871  144.0231  157.9693 H   0  0  0  0  0  0  0  0  0  0  0  0
  145.5776  144.7400  158.4211 H   0  0  0  0  0  0  0  0  0  0  0  0
  145.0153  143.8652  159.8360 H   0  0  0  0  0  0  0  0  0  0  0  0
  146.2655  146.9662  159.6619 H   0  0  0  0  0  0  0  0  0  0  0  0
  149.0682  145.3385  162.2098 H   0  0  0  0  0  0  0  0  0  0  0  0
  152.7552  142.1788  157.8260 H   0  0  0  0  0  0  0  0  0  0  0  0
  153.8242  143.4261  158.4005 H   0  0  0  0  0  0  0  0  0  0  0  0
  153.4566  141.7732  160.1797 H   0  0  0  0  0  0  0  0  0  0  0  0
  151.7257  141.9683  160.0728 H   0  0  0  0  0  0  0  0  0  0  0  0
  1  2  1  0  0  0  0
  1 21  1  0  0  0  0
  1 22  1  0  0  0  0
  1 23  1  0  0  0  0
  2 20  1  0  0  0  0
  2  3  1  0  0  0  0
  2 24  1  0  0  0  0
  3  4  1  0  0  0  0
  3 25  1  0  0  0  0
  3 26  1  0  0  0  0
  4  5  1  0  0  0  0
  4 27  1  0  0  0  0
  4 28  1  0  0  0  0
  5  6  1  0  0  0  0
  5 19  1  0  0  0  0
  5 29  1  0  0  0  0
  6  7  1  0  0  0  0
  6 30  1  0  0  0  0
  7  8  2  0  0  0  0
  7  9  1  0  0  0  0
  9 10  1  0  0  0  0
  9 31  1  0  0  0  0
  9 32  1  0  0  0  0
 10 11  1  0  0  0  0
 10 33  1  0  0  0  0
 11 12  2  0  0  0  0
 11 13  1  0  0  0  0
 13 14  1  0  0  0  0
 13 34  1  0  0  0  0
 13 35  1  0  0  0  0
 14 18  1  0  0  0  0
 14 15  1  0  0  0  0
 15 16  2  0  0  0  0
 15 36  1  0  0  0  0
 16 17  1  0  0  0  0
 17 18  2  0  0  0  0
 17 37  1  0  0  0  0
 19 20  1  0  0  0  0
 19 38  1  0  0  0  0
 19 39  1  0  0  0  0
 20 40  1  0  0  0  0
 20 41  1  0  0  0  0
M  END
> <s_m_source_file>
AV-unprocessed.smi

> <i_m_source_file_index>
1440

> <i_lp_mmshare_version>
43012

> <i_f3d_flags>
0

> <s_epik_input>
W0NIM11bQ0BASF0xW0NIMl1bQ0gyXVtDQEhdKFtDSDJdW0NIMl0xKVtOSF1DKD1PKVtDSDJdW05IXUMoPU8pW0NIMl1uMltjSF1uW2NIXW4y

> <s_epik_cmdline>
J2VwaWtfcHl0aG9uJywgJy1waCcsICc3LjAnLCAnLXRuJywgJzgnLCAnLW1hJywgJzIwMCcsICctbWV0YWxfYmluZGluZycsICctaW1hZScsICc8aW5maWxlLm1hZT4nLCAnLW9tYWUnLCAnPG91dGZpbGUubWFlPic=

> <r_lp_tautomer_probability>
1

> <r_epik_Ionization_Penalty>
7.34071e-06

> <r_epik_Ionization_Penalty_Charging>
0

> <r_epik_Ionization_Penalty_Neutral>
7.34071e-06

> <r_epik_State_Penalty>
-0

> <r_epik_Charging_Adjusted_Penalty>
0

> <i_epik_Tot_Q>
0

> <i_epik_Tot_abs_Q>
0

> <r_epik_Metal_State_Penalty>
-0

> <b_epik_Metal_Only>
0

> <s_lp_Force_Field>
OPLS_2005

> <r_lp_Energy>
6.43363

> <b_lp_Chiralities_Consistent>
1

> <s_lp_Variant>
AV-unprocessed.smi:1440-2

> <Gold.Version>
5.8.1

> <Gold.Id.Protein>
6NUR|6NUR_protein|mol2

> <Gold.PLP.Fitness>
51.4348

> <Gold.PLP.PLP>
-45.1593

> <Gold.PLP.part.hbond>
-6.3663

> <Gold.PLP.part.metal>
0.0000

> <Gold.PLP.part.buried>
-5.6756

> <Gold.PLP.part.nonpolar>
-33.4026

> <Gold.PLP.part.repulsive>
0.5917

> <Gold.PLP.ligand.clash>
0.0000

> <Gold.PLP.ligand.torsion>
0.7951

> <Gold.PLP.Chemscore.Hbond>
2.6149

> <Gold.PLP.Chemscore.CHOScore>
0.0000

> <Gold.PLP.Chemscore.Metal>
0.0000

> <Gold.Chemscore.Hbonds>
donor molecule, donor type, donor heavy atom, donor atom, acceptor molecule, acceptor atom, score
      L1  H    10    33       P1  8029  0.73
      P1  H  6933  6944       L1    18  0.49
      P1  H  6934  6946       L1    12  0.82

> <Gold.PLP.Chemscore.Internal.Correction>
0.0210

> <Gold.Rescore>
     Score         DG    S(hbond)    S(metal)    S(lipo)     H(rot)  DE(clash)    DE(int)     intcor
      7.77     -13.32       1.30        0.00      92.47       2.86       2.31       3.24       ----

> <Gold.Chemscore.Fitness>
7.7701

> <Gold.Chemscore.DG>
-13.3208

> <Gold.Chemscore.ZeroCoef>
-5.4800

> <Gold.Chemscore.Hbond>
1.3020

> <Gold.Chemscore.Metal>
0.0000

> <Gold.Chemscore.Lipo>
92.4698

> <Gold.Chemscore.Internal_Hbond>
0.0000

> <Gold.Chemscore.DEClash>
2.3149

> <Gold.Chemscore.DEInternal>
3.2358

> <Gold.Chemscore.Rot>
2.8621

> <Gold.Chemscore.Internal.Correction>
   9.000000E+99

> <Gold.Chemscore.Hbonds>
donor molecule, donor type, donor heavy atom, donor atom, acceptor molecule, acceptor atom, score
      L1  H    10    33       P1  8029  0.08
      P1  H  6933  6944       L1    18  0.47
      P1  H  6934  6946       L1    12  0.70

> <Gold.Chemscore.Hbond.Weighted>
-4.3488

> <Gold.Chemscore.Metal.Weighted>
-0.0000

> <Gold.Chemscore.Lipo.Weighted>
-10.8190

> <Gold.Chemscore.Internal_Hbond.Weighted>
0.0000

> <Gold.Chemscore.DEClash.Weighted>
2.3149

> <Gold.Chemscore.DEInternal.Weighted>
3.2358

> <Gold.Chemscore.Rot.Weighted>
7.3270

> <Gold.Chemscore.Internal.Correction.Weighted>
   9.000000E+99

> <Gold.Protein.RotatedTorsions>
[ 6907 6896 6895 6894 ] final -134.42 input  -60.11 | X-H torsion
[ 7974 7965 7964 7962 ] final  -23.98 input  175.53 | X-H torsion
[ 8008 7997 7996 7995 ] final  -26.62 input   59.86 | X-H torsion
[ 10167 10162 10161 10158 ] final  -59.68 input  -65.29 | X-H torsion
[ 10718 10713 10712 10709 ] final   18.79 input   66.30 | X-H torsion
[ 10763 10752 10751 10750 ] final  -44.52 input  -60.55 | X-H torsion
[ 11005 11000 10999 10996 ] final -135.57 input  -57.11 | X-H torsion

> <Gold.Protein.ActiveResidues>
 VAL166  LYS551  ARG553  GLY616  TRP617  ASP618  TYR619  PRO620  LYS621  CYS622 
 ASP623  PHE694  ASN695  SER759  ASP760  ASP761  ALA762  ILE779  LEU786  VAL792 
 PHE793  MET794  SER795  GLU796  ALA797  LYS798  CYS799  TRP800  GLU811  SER814 

> <Gold.Protein.RotatedAtoms>
  150.9857  133.6200  159.2715 H   0  0  0  0  0  0  0  0  0  0  0  0  # atno 6907 bound_to 6896
  151.3439  135.0869  159.9390 H   0  0  0  0  0  0  0  0  0  0  0  0  # atno 6908 bound_to 6896
  152.5230  133.9463  159.7705 H   0  0  0  0  0  0  0  0  0  0  0  0  # atno 6909 bound_to 6896
  146.1583  140.4690  142.8582 H   0  0  0  0  0  0  0  0  0  0  0  0  # atno 7974 bound_to 7965
  154.4416  140.1894  156.0803 H   0  0  0  0  0  0  0  0  0  0  0  0  # atno 8008 bound_to 7997
  156.0444  140.3316  155.7253 H   0  0  0  0  0  0  0  0  0  0  0  0  # atno 8009 bound_to 7997
  155.5652  140.0607  157.2810 H   0  0  0  0  0  0  0  0  0  0  0  0  # atno 8010 bound_to 7997
  140.6120  143.2390  151.5687 H   0  0  0  0  0  0  0  0  0  0  0  0  # atno 10167 bound_to 10162
  157.1013  130.6469  149.5873 H   0  0  0  0  0  0  0  0  0  0  0  0  # atno 10718 bound_to 10713
  154.0135  135.6678  153.4767 H   0  0  0  0  0  0  0  0  0  0  0  0  # atno 10763 bound_to 10752
  153.0610  135.5027  154.8090 H   0  0  0  0  0  0  0  0  0  0  0  0  # atno 10764 bound_to 10752
  154.6981  135.3073  154.9346 H   0  0  0  0  0  0  0  0  0  0  0  0  # atno 10765 bound_to 10752
  140.8886  134.1840  157.4543 H   0  0  0  0  0  0  0  0  0  0  0  0  # atno 11005 bound_to 11000
  144.7992  140.6181  143.6489 LP  0  0  0  0  0  0  0  0  0  0  0  0  # atno 17320 bound_to 7965
  145.4654  139.1508  143.3843 LP  0  0  0  0  0  0  0  0  0  0  0  0  # atno 17321 bound_to 7965
  139.5368  144.2757  152.1269 LP  0  0  0  0  0  0  0  0  0  0  0  0  # atno 17342 bound_to 10162
  140.1958  144.4706  150.6456 LP  0  0  0  0  0  0  0  0  0  0  0  0  # atno 17343 bound_to 10162
  155.9873  130.4911  150.7118 LP  0  0  0  0  0  0  0  0  0  0  0  0  # atno 17370 bound_to 10713
  157.4638  131.0886  151.0716 LP  0  0  0  0  0  0  0  0  0  0  0  0  # atno 17371 bound_to 10713
  139.8727  134.9849  156.5257 LP  0  0  0  0  0  0  0  0  0  0  0  0  # atno 17394 bound_to 11000
  140.8374  133.8231  155.9042 LP  0  0  0  0  0  0  0  0  0  0  0  0  # atno 17395 bound_to 11000

$$$$
