AV-unprocessed.smi:1291|AV-procd|sdf|5391|dock3
  -GOLD-   22720 4543D 1   1.00000     0.00000
 Structure written by MMmdl.
 43 45  0  0  0  0  0  0  0  0  1 V2000
  149.8708  137.2173  154.5532 O   0  0  0  0  0  0  0  0  0  0  0  0
  151.0163  138.0186  154.3627 C   0  0  0  0  0  0  0  0  0  0  0  0
  151.0837  139.1628  155.3269 C   0  0  0  0  0  0  0  0  0  0  0  0
  150.8942  140.4226  154.9326 N   0  0  0  0  0  0  0  0  0  0  0  0
  151.0688  141.1374  156.1013 C   0  0  0  0  0  0  0  0  0  0  0  0
  151.0023  142.5278  156.3460 C   0  0  0  0  0  0  0  0  0  0  0  0
  151.2253  143.0358  157.6425 C   0  0  0  0  0  0  0  0  0  0  0  0
  151.5181  142.1632  158.7106 C   0  0  0  0  0  0  0  0  0  0  0  0
  151.5880  140.7744  158.4886 C   0  0  0  0  0  0  0  0  0  0  0  0
  151.3624  140.2719  157.1928 C   0  0  0  0  0  0  0  0  0  0  0  0
  151.3547  138.9923  156.6462 N   0  0  0  0  0  0  0  0  0  0  0  0
  151.6032  137.7545  157.3713 C   0  0  0  0  0  0  0  0  0  0  0  0
  150.9615  137.7616  158.7781 C   0  0  2  0  0  0  0  0  0  0  0  0
  151.6549  136.8316  159.5867 O   0  0  0  0  0  0  0  0  0  0  0  0
  149.4758  137.3680  158.7474 C   0  0  0  0  0  0  0  0  0  0  0  0
  148.9380  137.4694  160.0584 O   0  0  0  0  0  0  0  0  0  0  0  0
  147.5633  137.1190  160.1428 C   0  0  0  0  0  0  0  0  0  0  0  0
  147.3202  135.8317  160.9151 C   0  0  0  0  0  0  0  0  0  0  0  0
  147.0887  134.6315  160.2106 C   0  0  0  0  0  0  0  0  0  0  0  0
  146.8657  133.4292  160.9094 C   0  0  0  0  0  0  0  0  0  0  0  0
  146.8767  133.4212  162.3174 C   0  0  0  0  0  0  0  0  0  0  0  0
  147.1136  134.6151  163.0251 C   0  0  0  0  0  0  0  0  0  0  0  0
  147.3368  135.8189  162.3279 C   0  0  0  0  0  0  0  0  0  0  0  0
  147.5607  136.9590  163.0246 F   0  0  0  0  0  0  0  0  0  0  0  0
  149.5103  137.0018  153.7070 H   0  0  0  0  0  0  0  0  0  0  0  0
  151.9003  137.3924  154.4892 H   0  0  0  0  0  0  0  0  0  0  0  0
  151.0415  138.3835  153.3366 H   0  0  0  0  0  0  0  0  0  0  0  0
  150.7808  143.2047  155.5340 H   0  0  0  0  0  0  0  0  0  0  0  0
  151.1728  144.1002  157.8182 H   0  0  0  0  0  0  0  0  0  0  0  0
  151.6890  142.5606  159.7004 H   0  0  0  0  0  0  0  0  0  0  0  0
  151.8138  140.1052  159.3053 H   0  0  0  0  0  0  0  0  0  0  0  0
  151.2124  136.9307  156.7734 H   0  0  0  0  0  0  0  0  0  0  0  0
  152.6779  137.5761  157.4144 H   0  0  0  0  0  0  0  0  0  0  0  0
  151.0614  138.7504  159.2290 H   0  0  0  0  0  0  0  0  0  0  0  0
  152.5301  137.1556  159.7336 H   0  0  0  0  0  0  0  0  0  0  0  0
  148.9298  138.0616  158.1059 H   0  0  0  0  0  0  0  0  0  0  0  0
  149.3447  136.3689  158.3289 H   0  0  0  0  0  0  0  0  0  0  0  0
  147.0449  137.9235  160.6646 H   0  0  0  0  0  0  0  0  0  0  0  0
  147.1279  137.0746  159.1437 H   0  0  0  0  0  0  0  0  0  0  0  0
  147.0787  134.6326  159.1303 H   0  0  0  0  0  0  0  0  0  0  0  0
  146.6861  132.5137  160.3654 H   0  0  0  0  0  0  0  0  0  0  0  0
  146.7045  132.4999  162.8543 H   0  0  0  0  0  0  0  0  0  0  0  0
  147.1238  134.6085  164.1050 H   0  0  0  0  0  0  0  0  0  0  0  0
  1  2  1  0  0  0  0
  1 25  1  0  0  0  0
  2  3  1  0  0  0  0
  2 26  1  0  0  0  0
  2 27  1  0  0  0  0
  3 11  1  0  0  0  0
  3  4  2  0  0  0  0
  4  5  1  0  0  0  0
  5 10  2  0  0  0  0
  5  6  1  0  0  0  0
  6  7  2  0  0  0  0
  6 28  1  0  0  0  0
  7  8  1  0  0  0  0
  7 29  1  0  0  0  0
  8  9  2  0  0  0  0
  8 30  1  0  0  0  0
  9 10  1  0  0  0  0
  9 31  1  0  0  0  0
 10 11  1  0  0  0  0
 11 12  1  0  0  0  0
 12 13  1  0  0  0  0
 12 32  1  0  0  0  0
 12 33  1  0  0  0  0
 13 14  1  0  0  0  0
 13 15  1  0  0  0  0
 13 34  1  0  0  0  0
 14 35  1  0  0  0  0
 15 16  1  0  0  0  0
 15 36  1  0  0  0  0
 15 37  1  0  0  0  0
 16 17  1  0  0  0  0
 17 18  1  0  0  0  0
 17 38  1  0  0  0  0
 17 39  1  0  0  0  0
 18 23  1  0  0  0  0
 18 19  2  0  0  0  0
 19 20  1  0  0  0  0
 19 40  1  0  0  0  0
 20 21  2  0  0  0  0
 20 41  1  0  0  0  0
 21 22  1  0  0  0  0
 21 42  1  0  0  0  0
 22 23  2  0  0  0  0
 22 43  1  0  0  0  0
 23 24  1  0  0  0  0
M  END
> <s_m_source_file>
AV-unprocessed.smi

> <i_m_source_file_index>
1291

> <i_lp_mmshare_version>
43012

> <i_f3d_flags>
0

> <s_epik_input>
W2NIXTFbY0hdW2NIXVtjSF1jKGMxMiluKGMobjIpW0NIMl1bT0hdKVtDSDJdW0NASF0oW09IXSlbQ0gyXU9bQ0gyXWMzW2NIXVtjSF1bY0hdW2NIXWMzRg==

> <s_epik_cmdline>
J2VwaWtfcHl0aG9uJywgJy1waCcsICc3LjAnLCAnLXRuJywgJzgnLCAnLW1hJywgJzIwMCcsICctbWV0YWxfYmluZGluZycsICctaW1hZScsICc8aW5maWxlLm1hZT4nLCAnLW9tYWUnLCAnPG91dGZpbGUubWFlPic=

> <r_epik_Ionization_Penalty>
0.0649918

> <r_epik_Ionization_Penalty_Charging>
0

> <r_epik_Ionization_Penalty_Neutral>
0.0649918

> <r_epik_State_Penalty>
0.0565791

> <r_epik_Charging_Adjusted_Penalty>
0.0565791

> <i_epik_Tot_Q>
0

> <i_epik_Tot_abs_Q>
0

> <r_epik_Metal_State_Penalty>
5.93658e-05

> <b_epik_Metal_Only>
0

> <s_lp_Force_Field>
OPLS_2005

> <r_lp_Energy>
20.1032

> <b_lp_Chiralities_Consistent>
1

> <s_lp_Variant>
AV-unprocessed.smi:1291-1

> <Gold.Version>
5.8.1

> <Gold.Id.Protein>
6NUR|6NUR_protein|mol2

> <Gold.PLP.Fitness>
56.3032

> <Gold.PLP.PLP>
-49.1356

> <Gold.PLP.part.hbond>
-4.0000

> <Gold.PLP.part.metal>
0.0000

> <Gold.PLP.part.buried>
-5.5628

> <Gold.PLP.part.nonpolar>
-39.0258

> <Gold.PLP.part.repulsive>
0.0674

> <Gold.PLP.ligand.clash>
0.0000

> <Gold.PLP.ligand.torsion>
1.2833

> <Gold.PLP.Chemscore.Hbond>
3.1785

> <Gold.PLP.Chemscore.CHOScore>
0.0000

> <Gold.PLP.Chemscore.Metal>
0.0000

> <Gold.Chemscore.Hbonds>
donor molecule, donor type, donor heavy atom, donor atom, acceptor molecule, acceptor atom, score
      L1  H     1    25       P1  7948  0.96
      P1  H  6896  6909       L1    14  1.00
      P1  H  6931  6943       L1    16  0.31
      P1  H  7989  7998       L1     4  1.00

> <Gold.PLP.Chemscore.Internal.Correction>
0.1988

> <Gold.Rescore>
     Score         DG    S(hbond)    S(metal)    S(lipo)     H(rot)  DE(clash)    DE(int)     intcor
     18.22     -19.57       2.76        0.00     114.45       3.33       0.17       1.17       ----

> <Gold.Chemscore.Fitness>
18.2225

> <Gold.Chemscore.DG>
-19.5654

> <Gold.Chemscore.ZeroCoef>
-5.4800

> <Gold.Chemscore.Hbond>
2.7617

> <Gold.Chemscore.Metal>
0.0000

> <Gold.Chemscore.Lipo>
114.4467

> <Gold.Chemscore.Internal_Hbond>
0.0000

> <Gold.Chemscore.DEClash>
0.1698

> <Gold.Chemscore.DEInternal>
1.1731

> <Gold.Chemscore.Rot>
3.3316

> <Gold.Chemscore.Internal.Correction>
   9.000000E+99

> <Gold.Chemscore.Hbonds>
donor molecule, donor type, donor heavy atom, donor atom, acceptor molecule, acceptor atom, score
      L1  H     1    25       P1  7948  0.80
      P1  H  6896  6909       L1    14  0.90
      P1  H  6931  6943       L1    16  0.04
      P1  H  7989  7998       L1     4  0.91

> <Gold.Chemscore.Hbond.Weighted>
-9.2240

> <Gold.Chemscore.Metal.Weighted>
-0.0000

> <Gold.Chemscore.Lipo.Weighted>
-13.3903

> <Gold.Chemscore.Internal_Hbond.Weighted>
0.0000

> <Gold.Chemscore.DEClash.Weighted>
0.1698

> <Gold.Chemscore.DEInternal.Weighted>
1.1731

> <Gold.Chemscore.Rot.Weighted>
8.5288

> <Gold.Chemscore.Internal.Correction.Weighted>
   9.000000E+99

> <Gold.Protein.RotatedTorsions>
[ 6907 6896 6895 6894 ] final  110.17 input  -60.11 | X-H torsion
[ 7974 7965 7964 7962 ] final  -38.44 input  175.53 | X-H torsion
[ 8008 7997 7996 7995 ] final  -76.62 input   59.86 | X-H torsion
[ 10167 10162 10161 10158 ] final  -66.24 input  -65.29 | X-H torsion
[ 10718 10713 10712 10709 ] final  177.46 input   66.30 | X-H torsion
[ 10763 10752 10751 10750 ] final  168.55 input  -60.55 | X-H torsion
[ 11005 11000 10999 10996 ] final  164.76 input  -57.11 | X-H torsion

> <Gold.Protein.ActiveResidues>
 VAL166  LYS551  ARG553  GLY616  TRP617  ASP618  TYR619  PRO620  LYS621  CYS622 
 ASP623  PHE694  ASN695  SER759  ASP760  ASP761  ALA762  ILE779  LEU786  VAL792 
 PHE793  MET794  SER795  GLU796  ALA797  LYS798  CYS799  TRP800  GLU811  SER814 

> <Gold.Protein.RotatedAtoms>
  152.5032  133.8839  159.7359 H   0  0  0  0  0  0  0  0  0  0  0  0  # atno 6907 bound_to 6896
  150.9294  133.6776  159.2821 H   0  0  0  0  0  0  0  0  0  0  0  0  # atno 6908 bound_to 6896
  151.4125  135.0991  159.9642 H   0  0  0  0  0  0  0  0  0  0  0  0  # atno 6909 bound_to 6896
  146.0486  140.6511  142.9052 H   0  0  0  0  0  0  0  0  0  0  0  0  # atno 7974 bound_to 7965
  154.5522  140.0724  156.8686 H   0  0  0  0  0  0  0  0  0  0  0  0  # atno 8008 bound_to 7997
  155.2972  140.3382  155.4231 H   0  0  0  0  0  0  0  0  0  0  0  0  # atno 8009 bound_to 7997
  156.1971  140.1707  156.7962 H   0  0  0  0  0  0  0  0  0  0  0  0  # atno 8010 bound_to 7997
  140.5671  143.2315  151.6613 H   0  0  0  0  0  0  0  0  0  0  0  0  # atno 10167 bound_to 10162
  156.9050  130.9891  151.3030 H   0  0  0  0  0  0  0  0  0  0  0  0  # atno 10718 bound_to 10713
  154.3703  135.2753  155.2270 H   0  0  0  0  0  0  0  0  0  0  0  0  # atno 10763 bound_to 10752
  154.4421  135.5952  153.6139 H   0  0  0  0  0  0  0  0  0  0  0  0  # atno 10764 bound_to 10752
  152.9839  135.6021  154.3933 H   0  0  0  0  0  0  0  0  0  0  0  0  # atno 10765 bound_to 10752
  140.2492  134.7990  157.3485 H   0  0  0  0  0  0  0  0  0  0  0  0  # atno 11005 bound_to 11000
  144.7111  140.4041  143.7080 LP  0  0  0  0  0  0  0  0  0  0  0  0  # atno 17320 bound_to 7965
  145.6762  139.1609  143.2726 LP  0  0  0  0  0  0  0  0  0  0  0  0  # atno 17321 bound_to 7965
  139.5098  144.3563  152.0604 LP  0  0  0  0  0  0  0  0  0  0  0  0  # atno 17342 bound_to 10162
  140.2696  144.3978  150.6156 LP  0  0  0  0  0  0  0  0  0  0  0  0  # atno 17343 bound_to 10162
  157.6002  130.8507  149.8791 LP  0  0  0  0  0  0  0  0  0  0  0  0  # atno 17370 bound_to 10713
  156.0563  130.3708  150.1083 LP  0  0  0  0  0  0  0  0  0  0  0  0  # atno 17371 bound_to 10713
  140.1575  134.4771  155.7917 LP  0  0  0  0  0  0  0  0  0  0  0  0  # atno 17394 bound_to 11000
  141.2203  133.6887  156.7486 LP  0  0  0  0  0  0  0  0  0  0  0  0  # atno 17395 bound_to 11000

$$$$
