AV-unprocessed.smi:1554|AV-procd|sdf|6262|dock4
  -GOLD-   22720 6453D 1   1.00000     0.00000
 Structure written by MMmdl.
 49 51  0  0  0  0  0  0  0  0  3 V2000
  152.0286  144.6898  160.1944 C   0  0  0  0  0  0  0  0  0  0  0  0
  151.8363  143.5011  159.2680 C   0  0  0  0  0  0  0  0  0  0  0  0
  151.0790  143.6804  158.0888 C   0  0  0  0  0  0  0  0  0  0  0  0
  150.9226  142.5752  157.2609 C   0  0  0  0  0  0  0  0  0  0  0  0
  150.2471  142.4316  156.0474 N   0  3  0  0  0  0  0  0  0  0  0  0
  150.3724  141.1497  155.6062 C   0  0  0  0  0  0  0  0  0  0  0  0
  151.1222  140.4720  156.5180 N   0  0  0  0  0  0  0  0  0  0  0  0
  151.5407  139.0629  156.5206 C   0  0  0  0  0  0  0  0  0  0  0  0
  152.1289  138.6072  155.1704 C   0  0  2  0  0  0  0  0  0  0  0  0
  153.0516  139.5929  154.7533 O   0  0  0  0  0  0  0  0  0  0  0  0
  151.0714  138.4133  154.0614 C   0  0  0  0  0  0  0  0  0  0  0  0
  150.0913  137.3451  154.3847 N   0  3  2  0  0  0  0  0  0  0  0  0
  149.0728  137.7896  155.3653 C   0  0  0  0  0  0  0  0  0  0  0  0
  148.0491  136.6715  155.6214 C   0  0  0  0  0  0  0  0  0  0  0  0
  148.7241  135.5023  156.0683 O   0  0  0  0  0  0  0  0  0  0  0  0
  149.6421  135.0062  155.1005 C   0  0  2  0  0  0  0  0  0  0  0  0
  150.2448  133.7024  155.6354 C   0  0  0  0  0  0  0  0  0  0  0  0
  150.7183  136.0761  154.8316 C   0  0  0  0  0  0  0  0  0  0  0  0
  151.4859  141.3214  157.5710 C   0  0  0  0  0  0  0  0  0  0  0  0
  152.2348  141.1284  158.7302 C   0  0  0  0  0  0  0  0  0  0  0  0
  152.4075  142.2413  159.5839 C   0  0  0  0  0  0  0  0  0  0  0  0
  153.2219  142.0600  160.8537 C   0  0  0  0  0  0  0  0  0  0  0  0
  151.5113  145.5743  159.8215 H   0  0  0  0  0  0  0  0  0  0  0  0
  153.0865  144.9363  160.2858 H   0  0  0  0  0  0  0  0  0  0  0  0
  151.6367  144.4700  161.1878 H   0  0  0  0  0  0  0  0  0  0  0  0
  150.6410  144.6368  157.8419 H   0  0  0  0  0  0  0  0  0  0  0  0
  149.9509  140.7442  154.6975 H   0  0  0  0  0  0  0  0  0  0  0  0
  152.2427  138.8927  157.3367 H   0  0  0  0  0  0  0  0  0  0  0  0
  150.6544  138.4717  156.7565 H   0  0  0  0  0  0  0  0  0  0  0  0
  152.6804  137.6821  155.3349 H   0  0  0  0  0  0  0  0  0  0  0  0
  152.6214  140.1758  154.1458 H   0  0  0  0  0  0  0  0  0  0  0  0
  150.5260  139.3384  153.8718 H   0  0  0  0  0  0  0  0  0  0  0  0
  151.5872  138.1680  153.1315 H   0  0  0  0  0  0  0  0  0  0  0  0
  149.5613  138.0702  156.2999 H   0  0  0  0  0  0  0  0  0  0  0  0
  148.5587  138.6761  154.9920 H   0  0  0  0  0  0  0  0  0  0  0  0
  147.3365  136.9821  156.3857 H   0  0  0  0  0  0  0  0  0  0  0  0
  147.4743  136.4539  154.7197 H   0  0  0  0  0  0  0  0  0  0  0  0
  149.1045  134.7859  154.1762 H   0  0  0  0  0  0  0  0  0  0  0  0
  150.9519  133.2752  154.9238 H   0  0  0  0  0  0  0  0  0  0  0  0
  149.4678  132.9594  155.8167 H   0  0  0  0  0  0  0  0  0  0  0  0
  150.7733  133.8666  156.5751 H   0  0  0  0  0  0  0  0  0  0  0  0
  151.4095  135.7068  154.0750 H   0  0  0  0  0  0  0  0  0  0  0  0
  151.3022  136.2568  155.7358 H   0  0  0  0  0  0  0  0  0  0  0  0
  152.6721  140.1725  158.9758 H   0  0  0  0  0  0  0  0  0  0  0  0
  153.5873  141.0374  160.9518 H   0  0  0  0  0  0  0  0  0  0  0  0
  152.6161  142.2820  161.7326 H   0  0  0  0  0  0  0  0  0  0  0  0
  154.0870  142.7237  160.8517 H   0  0  0  0  0  0  0  0  0  0  0  0
  149.5933  137.1455  153.5285 H   0  0  0  0  0  0  0  0  0  0  0  0
  149.7342  143.1529  155.5564 H   0  0  0  0  0  0  0  0  0  0  0  0
  1  2  1  0  0  0  0
  1 23  1  0  0  0  0
  1 24  1  0  0  0  0
  1 25  1  0  0  0  0
  2 21  1  0  0  0  0
  2  3  2  0  0  0  0
  3  4  1  0  0  0  0
  3 26  1  0  0  0  0
  4 19  2  0  0  0  0
  4  5  1  0  0  0  0
  5  6  2  0  0  0  0
  5 49  1  0  0  0  0
  6  7  1  0  0  0  0
  6 27  1  0  0  0  0
  7  8  1  0  0  0  0
  7 19  1  0  0  0  0
  8  9  1  0  0  0  0
  8 28  1  0  0  0  0
  8 29  1  0  0  0  0
  9 10  1  0  0  0  0
  9 11  1  0  0  0  0
  9 30  1  0  0  0  0
 10 31  1  0  0  0  0
 11 12  1  0  0  0  0
 11 32  1  0  0  0  0
 11 33  1  0  0  0  0
 12 18  1  0  0  0  0
 12 13  1  0  0  0  0
 12 48  1  0  0  0  0
 13 14  1  0  0  0  0
 13 34  1  0  0  0  0
 13 35  1  0  0  0  0
 14 15  1  0  0  0  0
 14 36  1  0  0  0  0
 14 37  1  0  0  0  0
 15 16  1  0  0  0  0
 16 17  1  0  0  0  0
 16 18  1  0  0  0  0
 16 38  1  0  0  0  0
 17 39  1  0  0  0  0
 17 40  1  0  0  0  0
 17 41  1  0  0  0  0
 18 42  1  0  0  0  0
 18 43  1  0  0  0  0
 19 20  1  0  0  0  0
 20 21  2  0  0  0  0
 20 44  1  0  0  0  0
 21 22  1  0  0  0  0
 22 45  1  0  0  0  0
 22 46  1  0  0  0  0
 22 47  1  0  0  0  0
M  CHG  1   5   1
M  CHG  1  12   1
M  END
> <s_m_source_file>
AV-unprocessed.smi

> <i_m_source_file_index>
1554

> <i_lp_mmshare_version>
43012

> <i_f3d_flags>
0

> <s_epik_input>
W0NIM11jKFtjSF0xKWMoW0NIM10pW2NIXWMoYzEyKW4oW2NIXW4yKVtDSDJdW0NASF0oW09IXSlbQ0gyXU4zW0NIMl1bQ0gyXU9bQ0BASF0oW0NIM10pW0NIMl0z

> <s_epik_cmdline>
J2VwaWtfcHl0aG9uJywgJy1waCcsICc3LjAnLCAnLXRuJywgJzgnLCAnLW1hJywgJzIwMCcsICctbWV0YWxfYmluZGluZycsICctaW1hZScsICc8aW5maWxlLm1hZT4nLCAnLW9tYWUnLCAnPG91dGZpbGUubWFlPic=

> <r_epik_Ionization_Penalty>
1.8848

> <r_epik_Ionization_Penalty_Charging>
1.88479

> <r_epik_Ionization_Penalty_Neutral>
1.42224e-05

> <r_epik_State_Penalty>
1.94551

> <r_epik_Charging_Adjusted_Penalty>
3.8303

> <i_epik_Tot_Q>
2

> <i_epik_Tot_abs_Q>
2

> <r_epik_Metal_State_Penalty>
5.95849

> <b_epik_Metal_Only>
0

> <s_lp_Force_Field>
OPLS_2005

> <r_lp_Energy>
32.1421

> <b_lp_Chiralities_Consistent>
1

> <s_lp_Variant>
AV-unprocessed.smi:1554-23

> <Gold.Version>
5.8.1

> <Gold.Id.Protein>
6NUR|6NUR_protein|mol2

> <Gold.PLP.Fitness>
61.9544

> <Gold.PLP.PLP>
-47.6060

> <Gold.PLP.part.hbond>
-4.0000

> <Gold.PLP.part.metal>
0.0000

> <Gold.PLP.part.buried>
-6.0995

> <Gold.PLP.part.nonpolar>
-37.3223

> <Gold.PLP.part.repulsive>
0.1996

> <Gold.PLP.ligand.clash>
0.0000

> <Gold.PLP.ligand.torsion>
0.3324

> <Gold.PLP.Chemscore.Hbond>
4.9840

> <Gold.PLP.Chemscore.CHOScore>
0.0000

> <Gold.PLP.Chemscore.Metal>
0.0000

> <Gold.Chemscore.Hbonds>
donor molecule, donor type, donor heavy atom, donor atom, acceptor molecule, acceptor atom, score
      L1  H     5    49       P1  8028  1.89
      L1  H    12    48       P1  7948  2.00
      P1  H  7997  8010       L1    10  1.00

> <Gold.PLP.Chemscore.Internal.Correction>
0.0611

> <Gold.Rescore>
     Score         DG    S(hbond)    S(metal)    S(lipo)     H(rot)  DE(clash)    DE(int)     intcor
     22.87     -23.45       2.79        0.00     120.10       2.11       0.26       0.33       ----

> <Gold.Chemscore.Fitness>
22.8672

> <Gold.Chemscore.DG>
-23.4518

> <Gold.Chemscore.ZeroCoef>
-5.4800

> <Gold.Chemscore.Hbond>
2.7927

> <Gold.Chemscore.Metal>
0.0000

> <Gold.Chemscore.Lipo>
120.0976

> <Gold.Chemscore.Internal_Hbond>
0.0000

> <Gold.Chemscore.DEClash>
0.2596

> <Gold.Chemscore.DEInternal>
0.3250

> <Gold.Chemscore.Rot>
2.1122

> <Gold.Chemscore.Internal.Correction>
   9.000000E+99

> <Gold.Chemscore.Hbonds>
donor molecule, donor type, donor heavy atom, donor atom, acceptor molecule, acceptor atom, score
      L1  H     5    49       P1  8028  0.92
      L1  H    12    48       P1  7948  0.80
      P1  H  7997  8010       L1    10  0.92

> <Gold.Chemscore.Hbond.Weighted>
-9.3277

> <Gold.Chemscore.Metal.Weighted>
-0.0000

> <Gold.Chemscore.Lipo.Weighted>
-14.0514

> <Gold.Chemscore.Internal_Hbond.Weighted>
0.0000

> <Gold.Chemscore.DEClash.Weighted>
0.2596

> <Gold.Chemscore.DEInternal.Weighted>
0.3250

> <Gold.Chemscore.Rot.Weighted>
5.4073

> <Gold.Chemscore.Internal.Correction.Weighted>
   9.000000E+99

> <Gold.Protein.RotatedTorsions>
[ 6907 6896 6895 6894 ] final  -31.80 input  -60.11 | X-H torsion
[ 7974 7965 7964 7962 ] final -121.31 input  175.53 | X-H torsion
[ 8008 7997 7996 7995 ] final   93.18 input   59.86 | X-H torsion
[ 10167 10162 10161 10158 ] final   40.96 input  -65.29 | X-H torsion
[ 10718 10713 10712 10709 ] final -160.21 input   66.30 | X-H torsion
[ 10763 10752 10751 10750 ] final  -70.29 input  -60.55 | X-H torsion
[ 11005 11000 10999 10996 ] final  110.87 input  -57.11 | X-H torsion

> <Gold.Protein.ActiveResidues>
 VAL166  LYS551  ARG553  GLY616  TRP617  ASP618  TYR619  PRO620  LYS621  CYS622 
 ASP623  PHE694  ASN695  SER759  ASP760  ASP761  ALA762  ILE779  LEU786  VAL792 
 PHE793  MET794  SER795  GLU796  ALA797  LYS798  CYS799  TRP800  GLU811  SER814 

> <Gold.Protein.RotatedAtoms>
  151.0872  134.9894  159.8384 H   0  0  0  0  0  0  0  0  0  0  0  0  # atno 6907 bound_to 6896
  152.5425  134.2109  159.8760 H   0  0  0  0  0  0  0  0  0  0  0  0  # atno 6908 bound_to 6896
  151.2143  133.4494  159.2632 H   0  0  0  0  0  0  0  0  0  0  0  0  # atno 6909 bound_to 6896
  145.0418  140.8150  143.4262 H   0  0  0  0  0  0  0  0  0  0  0  0  # atno 7974 bound_to 7965
  156.0439  140.3316  155.7274 H   0  0  0  0  0  0  0  0  0  0  0  0  # atno 8008 bound_to 7997
  155.5703  140.0627  157.2825 H   0  0  0  0  0  0  0  0  0  0  0  0  # atno 8009 bound_to 7997
  154.4405  140.1862  156.0861 H   0  0  0  0  0  0  0  0  0  0  0  0  # atno 8010 bound_to 7997
  140.3691  144.2129  150.6134 H   0  0  0  0  0  0  0  0  0  0  0  0  # atno 10167 bound_to 10162
  156.5789  130.8721  151.2859 H   0  0  0  0  0  0  0  0  0  0  0  0  # atno 10718 bound_to 10713
  154.4156  135.5998  153.5979 H   0  0  0  0  0  0  0  0  0  0  0  0  # atno 10763 bound_to 10752
  152.9792  135.5940  154.4017 H   0  0  0  0  0  0  0  0  0  0  0  0  # atno 10764 bound_to 10752
  154.3835  135.2841  155.2175 H   0  0  0  0  0  0  0  0  0  0  0  0  # atno 10765 bound_to 10752
  139.8891  134.9494  156.6345 H   0  0  0  0  0  0  0  0  0  0  0  0  # atno 11005 bound_to 11000
  145.1638  139.2443  143.5377 LP  0  0  0  0  0  0  0  0  0  0  0  0  # atno 17320 bound_to 7965
  146.3510  140.1372  142.8595 LP  0  0  0  0  0  0  0  0  0  0  0  0  # atno 17321 bound_to 7965
  140.5051  143.2306  151.8620 LP  0  0  0  0  0  0  0  0  0  0  0  0  # atno 17342 bound_to 10162
  139.4805  144.5014  151.9055 LP  0  0  0  0  0  0  0  0  0  0  0  0  # atno 17343 bound_to 10162
  157.7331  130.9725  150.1962 LP  0  0  0  0  0  0  0  0  0  0  0  0  # atno 17370 bound_to 10713
  156.2649  130.3715  149.8091 LP  0  0  0  0  0  0  0  0  0  0  0  0  # atno 17371 bound_to 10713
  140.7641  133.8793  155.8441 LP  0  0  0  0  0  0  0  0  0  0  0  0  # atno 17394 bound_to 11000
  140.9897  134.1295  157.4419 LP  0  0  0  0  0  0  0  0  0  0  0  0  # atno 17395 bound_to 11000

$$$$
