AV-unprocessed.smi:1508|AV-procd|sdf|6088|dock8
  -GOLD-   22720 6213D 1   1.00000     0.00000
 Structure written by MMmdl.
 37 38  0  0  0  0  0  0  0  0  3 V2000
  148.9516  141.4920  154.7351 C   0  0  0  0  0  0  0  0  0  0  0  0
  149.0741  141.6599  156.2578 C   0  0  0  0  0  0  0  0  0  0  0  0
  150.5178  141.9105  156.7725 C   0  0  2  0  0  0  0  0  0  0  0  0
  151.0092  140.7847  157.7232 C   0  0  0  0  0  0  0  0  0  0  0  0
  152.4280  140.4861  157.5576 N   0  0  0  0  0  0  0  0  0  0  0  0
  152.9617  139.2590  157.4774 C   0  0  0  0  0  0  0  0  0  0  0  0
  152.2301  138.2672  157.5224 O   0  0  0  0  0  0  0  0  0  0  0  0
  154.3079  139.2577  157.3599 N   0  5  0  0  0  0  0  0  0  0  0  0
  154.9364  138.1754  156.8720 C   0  0  0  0  0  0  0  0  0  0  0  0
  154.2749  137.1546  156.3036 N   0  0  0  0  0  0  0  0  0  0  0  0
  155.1127  136.1381  155.8652 N   0  0  0  0  0  0  0  0  0  0  0  0
  156.3917  136.4241  156.1074 C   0  0  0  0  0  0  0  0  0  0  0  0
  156.6890  137.9614  156.8912 S   0  0  0  0  0  0  0  0  0  0  0  0
  150.6638  143.2535  157.4060 N   0  3  0  0  0  0  0  0  0  0  0  0
  149.9963  143.4070  158.7242 C   0  0  0  0  0  0  0  0  0  0  0  0
  150.8959  144.2975  159.5922 C   0  0  0  0  0  0  0  0  0  0  0  0
  151.9601  144.8280  158.6388 C   0  0  0  0  0  0  0  0  0  0  0  0
  152.0516  143.7343  157.5817 C   0  0  0  0  0  0  0  0  0  0  0  0
  147.9191  141.2815  154.4559 H   0  0  0  0  0  0  0  0  0  0  0  0
  149.5649  140.6684  154.3698 H   0  0  0  0  0  0  0  0  0  0  0  0
  149.2510  142.3964  154.2060 H   0  0  0  0  0  0  0  0  0  0  0  0
  148.4292  142.4827  156.5673 H   0  0  0  0  0  0  0  0  0  0  0  0
  148.6466  140.7851  156.7473 H   0  0  0  0  0  0  0  0  0  0  0  0
  151.1672  141.9142  155.8955 H   0  0  0  0  0  0  0  0  0  0  0  0
  150.8380  141.0399  158.7694 H   0  0  0  0  0  0  0  0  0  0  0  0
  150.4478  139.8672  157.5476 H   0  0  0  0  0  0  0  0  0  0  0  0
  153.0611  141.2714  157.5109 H   0  0  0  0  0  0  0  0  0  0  0  0
  157.1650  135.7273  155.8205 H   0  0  0  0  0  0  0  0  0  0  0  0
  149.0125  143.8544  158.5798 H   0  0  0  0  0  0  0  0  0  0  0  0
  149.8550  142.4445  159.2186 H   0  0  0  0  0  0  0  0  0  0  0  0
  150.3436  145.0980  160.0847 H   0  0  0  0  0  0  0  0  0  0  0  0
  151.3673  143.6945  160.3696 H   0  0  0  0  0  0  0  0  0  0  0  0
  151.6189  145.7578  158.1816 H   0  0  0  0  0  0  0  0  0  0  0  0
  152.9129  145.0233  159.1319 H   0  0  0  0  0  0  0  0  0  0  0  0
  152.6807  142.9206  157.9474 H   0  0  0  0  0  0  0  0  0  0  0  0
  152.4792  144.1057  156.6500 H   0  0  0  0  0  0  0  0  0  0  0  0
  150.2192  143.9185  156.7893 H   0  0  0  0  0  0  0  0  0  0  0  0
  1  2  1  0  0  0  0
  1 19  1  0  0  0  0
  1 20  1  0  0  0  0
  1 21  1  0  0  0  0
  2  3  1  0  0  0  0
  2 22  1  0  0  0  0
  2 23  1  0  0  0  0
  3  4  1  0  0  0  0
  3 14  1  0  0  0  0
  3 24  1  0  0  0  0
  4  5  1  0  0  0  0
  4 25  1  0  0  0  0
  4 26  1  0  0  0  0
  5  6  1  0  0  0  0
  5 27  1  0  0  0  0
  6  7  2  0  0  0  0
  6  8  1  0  0  0  0
  8  9  1  0  0  0  0
  9 13  1  0  0  0  0
  9 10  2  0  0  0  0
 10 11  1  0  0  0  0
 11 12  2  0  0  0  0
 12 13  1  0  0  0  0
 12 28  1  0  0  0  0
 14 18  1  0  0  0  0
 14 15  1  0  0  0  0
 14 37  1  0  0  0  0
 15 16  1  0  0  0  0
 15 29  1  0  0  0  0
 15 30  1  0  0  0  0
 16 17  1  0  0  0  0
 16 31  1  0  0  0  0
 16 32  1  0  0  0  0
 17 18  1  0  0  0  0
 17 33  1  0  0  0  0
 17 34  1  0  0  0  0
 18 35  1  0  0  0  0
 18 36  1  0  0  0  0
M  CHG  1   8  -1
M  CHG  1  14   1
M  END
> <s_m_source_file>
AV-unprocessed.smi

> <i_m_source_file_index>
1508

> <i_lp_mmshare_version>
43012

> <i_f3d_flags>
0

> <s_epik_input>
W0NIMl0xW0NIMl1bQ0gyXVtDSDJdTjFbQ0BIXShbQ0gyXVtDSDNdKVtDSDJdW05IXUMoPU8pW05IXWMybm5bY0hdczI=

> <s_epik_cmdline>
J2VwaWtfcHl0aG9uJywgJy1waCcsICc3LjAnLCAnLXRuJywgJzgnLCAnLW1hJywgJzIwMCcsICctbWV0YWxfYmluZGluZycsICctaW1hZScsICc8aW5maWxlLm1hZT4nLCAnLW9tYWUnLCAnPG91dGZpbGUubWFlPic=

> <r_lp_tautomer_probability>
1

> <r_epik_Ionization_Penalty>
3.98086

> <r_epik_Ionization_Penalty_Charging>
3.94833

> <r_epik_Ionization_Penalty_Neutral>
0.032525

> <r_epik_State_Penalty>
3.94643

> <r_epik_Charging_Adjusted_Penalty>
7.89477

> <i_epik_Tot_Q>
0

> <i_epik_Tot_abs_Q>
2

> <r_epik_Metal_State_Penalty>
0.605555

> <b_epik_Metal_Only>
1

> <s_lp_Force_Field>
OPLS_2005

> <r_lp_Energy>
24.3568

> <b_lp_Chiralities_Consistent>
1

> <s_lp_Variant>
AV-unprocessed.smi:1508-3

> <Gold.Version>
5.8.1

> <Gold.Id.Protein>
6NUR|6NUR_protein|mol2

> <Gold.PLP.Fitness>
38.4919

> <Gold.PLP.PLP>
-26.4078

> <Gold.PLP.part.hbond>
-3.6441

> <Gold.PLP.part.metal>
0.0000

> <Gold.PLP.part.buried>
-2.2749

> <Gold.PLP.part.nonpolar>
-20.4377

> <Gold.PLP.part.repulsive>
0.0864

> <Gold.PLP.ligand.clash>
0.0000

> <Gold.PLP.ligand.torsion>
1.5105

> <Gold.PLP.Chemscore.Hbond>
5.0000

> <Gold.PLP.Chemscore.CHOScore>
0.0000

> <Gold.PLP.Chemscore.Metal>
0.0000

> <Gold.Chemscore.Hbonds>
donor molecule, donor type, donor heavy atom, donor atom, acceptor molecule, acceptor atom, score
      L1  H    14    37       P1  8028  2.00
      P1  H 10752 10765       L1    11  0.19

> <Gold.PLP.Chemscore.Internal.Correction>
0.1051

> <Gold.Rescore>
     Score         DG    S(hbond)    S(metal)    S(lipo)     H(rot)  DE(clash)    DE(int)     intcor
     11.34     -15.00       1.90        0.00      67.69       1.86       0.09       3.58       ----

> <Gold.Chemscore.Fitness>
11.3354

> <Gold.Chemscore.DG>
-14.9981

> <Gold.Chemscore.ZeroCoef>
-5.4800

> <Gold.Chemscore.Hbond>
1.9022

> <Gold.Chemscore.Metal>
0.0000

> <Gold.Chemscore.Lipo>
67.6904

> <Gold.Chemscore.Internal_Hbond>
0.0000

> <Gold.Chemscore.DEClash>
0.0867

> <Gold.Chemscore.DEInternal>
3.5759

> <Gold.Chemscore.Rot>
1.8575

> <Gold.Chemscore.Internal.Correction>
   9.000000E+99

> <Gold.Chemscore.Hbonds>
donor molecule, donor type, donor heavy atom, donor atom, acceptor molecule, acceptor atom, score
      L1  H    14    37       P1  8028  0.99
      P1  H 10752 10765       L1    11  0.14

> <Gold.Chemscore.Hbond.Weighted>
-6.3534

> <Gold.Chemscore.Metal.Weighted>
-0.0000

> <Gold.Chemscore.Lipo.Weighted>
-7.9198

> <Gold.Chemscore.Internal_Hbond.Weighted>
0.0000

> <Gold.Chemscore.DEClash.Weighted>
0.0867

> <Gold.Chemscore.DEInternal.Weighted>
3.5759

> <Gold.Chemscore.Rot.Weighted>
4.7551

> <Gold.Chemscore.Internal.Correction.Weighted>
   9.000000E+99

> <Gold.Protein.RotatedTorsions>
[ 6907 6896 6895 6894 ] final -130.74 input  -60.11 | X-H torsion
[ 7974 7965 7964 7962 ] final -120.85 input  175.53 | X-H torsion
[ 8008 7997 7996 7995 ] final  -90.27 input   59.86 | X-H torsion
[ 10167 10162 10161 10158 ] final   13.04 input  -65.29 | X-H torsion
[ 10718 10713 10712 10709 ] final -142.81 input   66.30 | X-H torsion
[ 10763 10752 10751 10750 ] final  -66.20 input  -60.55 | X-H torsion
[ 11005 11000 10999 10996 ] final  173.50 input  -57.11 | X-H torsion

> <Gold.Protein.ActiveResidues>
 VAL166  LYS551  ARG553  GLY616  TRP617  ASP618  TYR619  PRO620  LYS621  CYS622 
 ASP623  PHE694  ASN695  SER759  ASP760  ASP761  ALA762  ILE779  LEU786  VAL792 
 PHE793  MET794  SER795  GLU796  ALA797  LYS798  CYS799  TRP800  GLU811  SER814 

> <Gold.Protein.RotatedAtoms>
  150.9431  133.6634  159.2786 H   0  0  0  0  0  0  0  0  0  0  0  0  # atno 6907 bound_to 6896
  151.4016  135.0970  159.9567 H   0  0  0  0  0  0  0  0  0  0  0  0  # atno 6908 bound_to 6896
  152.5078  133.8923  159.7455 H   0  0  0  0  0  0  0  0  0  0  0  0  # atno 6909 bound_to 6896
  145.0468  140.8187  143.4233 H   0  0  0  0  0  0  0  0  0  0  0  0  # atno 7974 bound_to 7965
  154.6966  140.0532  157.0416 H   0  0  0  0  0  0  0  0  0  0  0  0  # atno 8008 bound_to 7997
  155.0743  140.3203  155.4602 H   0  0  0  0  0  0  0  0  0  0  0  0  # atno 8009 bound_to 7997
  156.2746  140.2076  156.5871 H   0  0  0  0  0  0  0  0  0  0  0  0  # atno 8010 bound_to 7997
  140.6028  143.8568  150.6983 H   0  0  0  0  0  0  0  0  0  0  0  0  # atno 10167 bound_to 10162
  156.3504  130.7685  151.1837 H   0  0  0  0  0  0  0  0  0  0  0  0  # atno 10718 bound_to 10713
  154.3563  135.6126  153.5668 H   0  0  0  0  0  0  0  0  0  0  0  0  # atno 10763 bound_to 10752
  152.9795  135.5804  154.4685 H   0  0  0  0  0  0  0  0  0  0  0  0  # atno 10764 bound_to 10752
  154.4415  135.2850  155.1821 H   0  0  0  0  0  0  0  0  0  0  0  0  # atno 10765 bound_to 10752
  140.3412  134.7275  157.4203 H   0  0  0  0  0  0  0  0  0  0  0  0  # atno 11005 bound_to 11000
  145.1578  139.2476  143.5407 LP  0  0  0  0  0  0  0  0  0  0  0  0  # atno 17320 bound_to 7965
  146.3514  140.1297  142.8597 LP  0  0  0  0  0  0  0  0  0  0  0  0  # atno 17321 bound_to 7965
  140.2119  143.3877  152.1712 LP  0  0  0  0  0  0  0  0  0  0  0  0  # atno 17342 bound_to 10162
  139.5303  144.7152  151.5078 LP  0  0  0  0  0  0  0  0  0  0  0  0  # atno 17343 bound_to 10162
  157.7460  131.0429  150.4717 LP  0  0  0  0  0  0  0  0  0  0  0  0  # atno 17370 bound_to 10713
  156.4912  130.4095  149.6406 LP  0  0  0  0  0  0  0  0  0  0  0  0  # atno 17371 bound_to 10713
  140.0780  134.5771  155.8571 LP  0  0  0  0  0  0  0  0  0  0  0  0  # atno 17394 bound_to 11000
  141.2038  133.6634  156.6083 LP  0  0  0  0  0  0  0  0  0  0  0  0  # atno 17395 bound_to 11000

$$$$
