AV-unprocessed.smi:1749|AV-procd|sdf|7048|dock7
  -GOLD-   22720 8263D 1   1.00000     0.00000
 Structure written by MMmdl.
 31 32  0  0  0  0  0  0  0  0  2 V2000
  151.4931  145.6329  160.0775 C   0  0  0  0  0  0  0  0  0  0  0  0
  151.7825  144.1328  160.2287 C   0  0  2  0  0  0  0  0  0  0  0  0
  152.4201  143.8168  161.5953 C   0  0  0  0  0  0  0  0  0  0  0  0
  152.7163  142.3165  161.7475 C   0  0  0  0  0  0  0  0  0  0  0  0
  153.6052  141.8031  160.6020 C   0  0  0  0  0  0  0  0  0  0  0  0
  152.9988  142.1115  159.2171 C   0  0  1  0  0  0  0  0  0  0  0  0
  151.7925  141.3211  158.9813 N   0  0  0  0  0  0  0  0  0  0  0  0
  151.6003  140.4044  158.0131 C   0  0  0  0  0  0  0  0  0  0  0  0
  152.5052  140.1877  157.2081 O   0  0  0  0  0  0  0  0  0  0  0  0
  150.4030  139.7614  157.9820 N   0  5  0  0  0  0  0  0  0  0  0  0
  149.9267  139.1760  156.8671 C   0  0  0  0  0  0  0  0  0  0  0  0
  148.8686  138.3490  156.8834 N   0  0  0  0  0  0  0  0  0  0  0  0
  148.5337  137.8665  155.6256 N   0  0  0  0  0  0  0  0  0  0  0  0
  149.3591  138.3349  154.6898 C   0  0  0  0  0  0  0  0  0  0  0  0
  150.6199  139.4082  155.2597 S   0  0  0  0  0  0  0  0  0  0  0  0
  152.6762  143.6131  159.0822 C   0  0  0  0  0  0  0  0  0  0  0  0
  152.4105  146.2207  160.1226 H   0  0  0  0  0  0  0  0  0  0  0  0
  150.8312  145.9866  160.8683 H   0  0  0  0  0  0  0  0  0  0  0  0
  151.0085  145.8441  159.1239 H   0  0  0  0  0  0  0  0  0  0  0  0
  150.8249  143.6125  160.1774 H   0  0  0  0  0  0  0  0  0  0  0  0
  153.3460  144.3824  161.7099 H   0  0  0  0  0  0  0  0  0  0  0  0
  151.7590  144.1412  162.3996 H   0  0  0  0  0  0  0  0  0  0  0  0
  153.2025  142.1299  162.7052 H   0  0  0  0  0  0  0  0  0  0  0  0
  151.7794  141.7578  161.7657 H   0  0  0  0  0  0  0  0  0  0  0  0
  154.5862  142.2740  160.6743 H   0  0  0  0  0  0  0  0  0  0  0  0
  153.7769  140.7318  160.7138 H   0  0  0  0  0  0  0  0  0  0  0  0
  153.7306  141.8571  158.4484 H   0  0  0  0  0  0  0  0  0  0  0  0
  151.0305  141.4689  159.6266 H   0  0  0  0  0  0  0  0  0  0  0  0
  149.2264  138.0446  153.6581 H   0  0  0  0  0  0  0  0  0  0  0  0
  152.1989  143.8029  158.1195 H   0  0  0  0  0  0  0  0  0  0  0  0
  153.6106  144.1761  159.0717 H   0  0  0  0  0  0  0  0  0  0  0  0
  1  2  1  0  0  0  0
  1 17  1  0  0  0  0
  1 18  1  0  0  0  0
  1 19  1  0  0  0  0
  2 16  1  0  0  0  0
  2  3  1  0  0  0  0
  2 20  1  0  0  0  0
  3  4  1  0  0  0  0
  3 21  1  0  0  0  0
  3 22  1  0  0  0  0
  4  5  1  0  0  0  0
  4 23  1  0  0  0  0
  4 24  1  0  0  0  0
  5  6  1  0  0  0  0
  5 25  1  0  0  0  0
  5 26  1  0  0  0  0
  6  7  1  0  0  0  0
  6 16  1  0  0  0  0
  6 27  1  0  0  0  0
  7  8  1  0  0  0  0
  7 28  1  0  0  0  0
  8  9  2  0  0  0  0
  8 10  1  0  0  0  0
 10 11  1  0  0  0  0
 11 15  1  0  0  0  0
 11 12  2  0  0  0  0
 12 13  1  0  0  0  0
 13 14  2  0  0  0  0
 14 15  1  0  0  0  0
 14 29  1  0  0  0  0
 16 30  1  0  0  0  0
 16 31  1  0  0  0  0
M  CHG  1  10  -1
M  END
> <s_m_source_file>
AV-unprocessed.smi

> <i_m_source_file_index>
1749

> <i_lp_mmshare_version>
43012

> <i_f3d_flags>
0

> <s_epik_input>
W0NIM11bQ0BASF0xW0NIMl1bQ0gyXVtDSDJdW0NASF0oW0NIMl0xKVtOSF1DKD1PKVtOSF1jMm5uW2NIXXMy

> <s_epik_cmdline>
J2VwaWtfcHl0aG9uJywgJy1waCcsICc3LjAnLCAnLXRuJywgJzgnLCAnLW1hJywgJzIwMCcsICctbWV0YWxfYmluZGluZycsICctaW1hZScsICc8aW5maWxlLm1hZT4nLCAnLW9tYWUnLCAnPG91dGZpbGUubWFlPic=

> <r_lp_tautomer_probability>
1

> <r_epik_Ionization_Penalty>
4.55442

> <r_epik_Ionization_Penalty_Charging>
4.5081

> <r_epik_Ionization_Penalty_Neutral>
0.0463156

> <r_epik_State_Penalty>
4.50781

> <r_epik_Charging_Adjusted_Penalty>
9.01591

> <i_epik_Tot_Q>
-1

> <i_epik_Tot_abs_Q>
1

> <r_epik_Metal_State_Penalty>
0.823335

> <b_epik_Metal_Only>
1

> <s_lp_Force_Field>
OPLS_2005

> <r_lp_Energy>
7.79414

> <b_lp_Chiralities_Consistent>
1

> <s_lp_Variant>
AV-unprocessed.smi:1749-5

> <Gold.Version>
5.8.1

> <Gold.Id.Protein>
6NUR|6NUR_protein|mol2

> <Gold.PLP.Fitness>
40.7453

> <Gold.PLP.PLP>
-35.0212

> <Gold.PLP.part.hbond>
-1.0000

> <Gold.PLP.part.metal>
0.0000

> <Gold.PLP.part.buried>
-3.6915

> <Gold.PLP.part.nonpolar>
-30.7382

> <Gold.PLP.part.repulsive>
0.1792

> <Gold.PLP.ligand.clash>
0.0000

> <Gold.PLP.ligand.torsion>
0.1411

> <Gold.PLP.Chemscore.Hbond>
1.0000

> <Gold.PLP.Chemscore.CHOScore>
1.0000

> <Gold.PLP.Chemscore.Metal>
0.0000

> <Gold.Chemscore.Hbonds>
donor molecule, donor type, donor heavy atom, donor atom, acceptor molecule, acceptor atom, score
      P1  H  7997  8008       L1     9  1.00
      L1  C    14    29       P1  7948  0.97

> <Gold.PLP.Chemscore.Internal.Correction>
0.0063

> <Gold.Rescore>
     Score         DG    S(hbond)    S(metal)    S(lipo)     H(rot)  DE(clash)    DE(int)     intcor
     15.83     -17.31       0.97        0.00      95.33       1.00       0.00       1.48       ----

> <Gold.Chemscore.Fitness>
15.8330

> <Gold.Chemscore.DG>
-17.3109

> <Gold.Chemscore.ZeroCoef>
-5.4800

> <Gold.Chemscore.Hbond>
0.9692

> <Gold.Chemscore.Metal>
0.0000

> <Gold.Chemscore.Lipo>
95.3315

> <Gold.Chemscore.Internal_Hbond>
0.0000

> <Gold.Chemscore.DEClash>
0.0021

> <Gold.Chemscore.DEInternal>
1.4758

> <Gold.Chemscore.Rot>
1.0000

> <Gold.Chemscore.Internal.Correction>
   9.000000E+99

> <Gold.Chemscore.Hbonds>
donor molecule, donor type, donor heavy atom, donor atom, acceptor molecule, acceptor atom, score
      P1  H  7997  8008       L1     9  0.93

> <Gold.Chemscore.Hbond.Weighted>
-3.2371

> <Gold.Chemscore.Metal.Weighted>
-0.0000

> <Gold.Chemscore.Lipo.Weighted>
-11.1538

> <Gold.Chemscore.Internal_Hbond.Weighted>
0.0000

> <Gold.Chemscore.DEClash.Weighted>
0.0021

> <Gold.Chemscore.DEInternal.Weighted>
1.4758

> <Gold.Chemscore.Rot.Weighted>
2.5600

> <Gold.Chemscore.Internal.Correction.Weighted>
   9.000000E+99

> <Gold.Protein.RotatedTorsions>
[ 6907 6896 6895 6894 ] final  -35.56 input  -60.11 | X-H torsion
[ 7974 7965 7964 7962 ] final  -24.24 input  175.53 | X-H torsion
[ 8008 7997 7996 7995 ] final  -51.52 input   59.86 | X-H torsion
[ 10167 10162 10161 10158 ] final   29.07 input  -65.29 | X-H torsion
[ 10718 10713 10712 10709 ] final  137.57 input   66.30 | X-H torsion
[ 10763 10752 10751 10750 ] final   77.68 input  -60.55 | X-H torsion
[ 11005 11000 10999 10996 ] final  -43.40 input  -57.11 | X-H torsion

> <Gold.Protein.ActiveResidues>
 VAL166  LYS551  ARG553  GLY616  TRP617  ASP618  TYR619  PRO620  LYS621  CYS622 
 ASP623  PHE694  ASN695  SER759  ASP760  ASP761  ALA762  ILE779  LEU786  VAL792 
 PHE793  MET794  SER795  GLU796  ALA797  LYS798  CYS799  TRP800  GLU811  SER814 

> <Gold.Protein.RotatedAtoms>
  151.0383  134.9589  159.8147 H   0  0  0  0  0  0  0  0  0  0  0  0  # atno 6907 bound_to 6896
  152.5359  134.2691  159.8974 H   0  0  0  0  0  0  0  0  0  0  0  0  # atno 6908 bound_to 6896
  151.2703  133.4216  159.2655 H   0  0  0  0  0  0  0  0  0  0  0  0  # atno 6909 bound_to 6896
  146.1567  140.4725  142.8588 H   0  0  0  0  0  0  0  0  0  0  0  0  # atno 7974 bound_to 7965
  154.4085  140.1246  156.4842 H   0  0  0  0  0  0  0  0  0  0  0  0  # atno 8008 bound_to 7997
  155.7054  140.3494  155.4931 H   0  0  0  0  0  0  0  0  0  0  0  0  # atno 8009 bound_to 7997
  155.9348  140.1076  157.1094 H   0  0  0  0  0  0  0  0  0  0  0  0  # atno 8010 bound_to 7997
  140.4798  144.0634  150.6262 H   0  0  0  0  0  0  0  0  0  0  0  0  # atno 10167 bound_to 10162
  157.4346  131.1052  151.0212 H   0  0  0  0  0  0  0  0  0  0  0  0  # atno 10718 bound_to 10713
  153.0817  135.4905  154.8516 H   0  0  0  0  0  0  0  0  0  0  0  0  # atno 10763 bound_to 10752
  154.7159  135.3029  154.9127 H   0  0  0  0  0  0  0  0  0  0  0  0  # atno 10764 bound_to 10752
  153.9806  135.6790  153.4803 H   0  0  0  0  0  0  0  0  0  0  0  0  # atno 10765 bound_to 10752
  141.0381  133.6791  156.2727 H   0  0  0  0  0  0  0  0  0  0  0  0  # atno 11005 bound_to 11000
  144.7972  140.6145  143.6502 LP  0  0  0  0  0  0  0  0  0  0  0  0  # atno 17320 bound_to 7965
  145.4692  139.1505  143.3824 LP  0  0  0  0  0  0  0  0  0  0  0  0  # atno 17321 bound_to 7965
  140.3872  143.2771  152.0102 LP  0  0  0  0  0  0  0  0  0  0  0  0  # atno 17342 bound_to 10162
  139.4831  144.6107  151.7439 LP  0  0  0  0  0  0  0  0  0  0  0  0  # atno 17343 bound_to 10162
  157.1096  130.6016  149.5479 LP  0  0  0  0  0  0  0  0  0  0  0  0  # atno 17370 bound_to 10713
  155.9926  130.4984  150.7345 LP  0  0  0  0  0  0  0  0  0  0  0  0  # atno 17371 bound_to 10713
  140.6285  134.5288  157.5556 LP  0  0  0  0  0  0  0  0  0  0  0  0  # atno 17394 bound_to 11000
  139.9255  134.8064  156.1081 LP  0  0  0  0  0  0  0  0  0  0  0  0  # atno 17395 bound_to 11000

$$$$
