AV-unprocessed.smi:276|AV-procd|sdf|2072|dock1
  -GOLD-   2262021333D 1   1.00000     0.00000
 Structure written by MMmdl.
 57 61  0  0  0  0  0  0  0  0  1 V2000
  153.1466  139.2197  156.4779 C   0  0  0  0  0  0  0  0  0  0  0  0
  152.4594  140.4330  156.2262 O   0  0  0  0  0  0  0  0  0  0  0  0
  151.7172  140.3989  155.0178 C   0  0  2  0  0  0  0  0  0  0  0  0
  150.7010  141.5368  154.8698 C   0  0  0  0  0  0  0  0  0  0  0  0
  149.7601  140.5071  154.2307 C   0  0  2  0  0  0  0  0  0  0  0  0
  148.3539  140.7246  154.5790 N   0  0  0  0  0  0  0  0  0  0  0  0
  147.6917  141.8346  153.9051 C   0  0  0  0  0  0  0  0  0  0  0  0
  147.5573  139.6315  154.5741 C   0  0  0  0  0  0  0  0  0  0  0  0
  147.2877  139.0648  155.7768 N   0  0  0  0  0  0  0  0  0  0  0  0
  146.5151  137.9771  155.8478 C   0  0  0  0  0  0  0  0  0  0  0  0
  145.9169  137.3124  154.8574 N   0  0  0  0  0  0  0  0  0  0  0  0
  146.1678  137.8921  153.6489 C   0  0  0  0  0  0  0  0  0  0  0  0
  146.9640  139.0493  153.4166 C   0  0  0  0  0  0  0  0  0  0  0  0
  146.9684  139.3520  152.0596 N   0  0  0  0  0  0  0  0  0  0  0  0
  146.2342  138.4183  151.5197 C   0  0  0  0  0  0  0  0  0  0  0  0
  145.7135  137.5004  152.4024 N   0  0  0  0  0  0  0  0  0  0  0  0
  144.8645  136.3687  152.0746 C   0  0  0  0  0  0  0  0  0  0  0  0
  145.5216  135.4205  151.0536 C   0  0  2  0  0  0  0  0  0  0  0  0
  144.9640  135.6092  149.7668 O   0  0  0  0  0  0  0  0  0  0  0  0
  145.4372  133.9390  151.4740 C   0  0  2  0  0  0  0  0  0  0  0  0
  146.1366  132.9279  150.5616 C   0  0  0  0  0  0  0  0  0  0  0  0
  145.3998  131.6559  150.9157 C   0  0  0  0  0  0  0  0  0  0  0  0
  143.9714  132.1641  151.0987 C   0  0  0  0  0  0  0  0  0  0  0  0
  144.0895  133.4923  151.6024 O   0  0  0  0  0  0  0  0  0  0  0  0
  150.5223  139.4257  155.0438 C   0  0  0  0  0  0  0  0  0  0  0  0
  150.6812  137.9886  154.5298 C   0  0  0  0  0  0  0  0  0  0  0  0
  149.7836  137.5041  155.6732 C   0  0  0  0  0  0  0  0  0  0  0  0
  150.0023  138.8481  156.3764 C   0  0  0  0  0  0  0  0  0  0  0  0
  153.6955  139.2978  157.4162 H   0  0  0  0  0  0  0  0  0  0  0  0
  153.8642  138.9973  155.6873 H   0  0  0  0  0  0  0  0  0  0  0  0
  152.4504  138.3845  156.5631 H   0  0  0  0  0  0  0  0  0  0  0  0
  152.3360  140.2614  154.1281 H   0  0  0  0  0  0  0  0  0  0  0  0
  150.3466  141.9149  155.8309 H   0  0  0  0  0  0  0  0  0  0  0  0
  151.0133  142.3438  154.2067 H   0  0  0  0  0  0  0  0  0  0  0  0
  149.9504  140.4284  153.1596 H   0  0  0  0  0  0  0  0  0  0  0  0
  147.6723  141.6744  152.8266 H   0  0  0  0  0  0  0  0  0  0  0  0
  148.2150  142.7702  154.1008 H   0  0  0  0  0  0  0  0  0  0  0  0
  146.6646  141.9555  154.2527 H   0  0  0  0  0  0  0  0  0  0  0  0
  146.3550  137.5817  156.8402 H   0  0  0  0  0  0  0  0  0  0  0  0
  146.0472  138.3754  150.4564 H   0  0  0  0  0  0  0  0  0  0  0  0
  144.6431  135.8326  152.9982 H   0  0  0  0  0  0  0  0  0  0  0  0
  143.9121  136.7425  151.6969 H   0  0  0  0  0  0  0  0  0  0  0  0
  146.5777  135.6811  150.9724 H   0  0  0  0  0  0  0  0  0  0  0  0
  144.3199  136.2990  149.8171 H   0  0  0  0  0  0  0  0  0  0  0  0
  145.8749  133.8437  152.4692 H   0  0  0  0  0  0  0  0  0  0  0  0
  145.9786  133.1579  149.5074 H   0  0  0  0  0  0  0  0  0  0  0  0
  147.2105  132.8653  150.7396 H   0  0  0  0  0  0  0  0  0  0  0  0
  145.4834  130.8831  150.1511 H   0  0  0  0  0  0  0  0  0  0  0  0
  145.7794  131.2517  151.8551 H   0  0  0  0  0  0  0  0  0  0  0  0
  143.4575  132.2048  150.1374 H   0  0  0  0  0  0  0  0  0  0  0  0
  143.3862  131.5340  151.7688 H   0  0  0  0  0  0  0  0  0  0  0  0
  150.2778  137.8105  153.5334 H   0  0  0  0  0  0  0  0  0  0  0  0
  151.7049  137.6226  154.6187 H   0  0  0  0  0  0  0  0  0  0  0  0
  148.7506  137.3449  155.3642 H   0  0  0  0  0  0  0  0  0  0  0  0
  150.1737  136.6431  156.2165 H   0  0  0  0  0  0  0  0  0  0  0  0
  150.7705  138.7805  157.1472 H   0  0  0  0  0  0  0  0  0  0  0  0
  149.0958  139.3071  156.7696 H   0  0  0  0  0  0  0  0  0  0  0  0
  1  2  1  0  0  0  0
  1 29  1  0  0  0  0
  1 30  1  0  0  0  0
  1 31  1  0  0  0  0
  2  3  1  0  0  0  0
  3 25  1  0  0  0  0
  3  4  1  0  0  0  0
  3 32  1  0  0  0  0
  4  5  1  0  0  0  0
  4 33  1  0  0  0  0
  4 34  1  0  0  0  0
  5  6  1  0  0  0  0
  5 25  1  0  0  0  0
  5 35  1  0  0  0  0
  6  7  1  0  0  0  0
  6  8  1  0  0  0  0
  7 36  1  0  0  0  0
  7 37  1  0  0  0  0
  7 38  1  0  0  0  0
  8 13  1  0  0  0  0
  8  9  2  0  0  0  0
  9 10  1  0  0  0  0
 10 11  2  0  0  0  0
 10 39  1  0  0  0  0
 11 12  1  0  0  0  0
 12 16  1  0  0  0  0
 12 13  2  0  0  0  0
 13 14  1  0  0  0  0
 14 15  2  0  0  0  0
 15 16  1  0  0  0  0
 15 40  1  0  0  0  0
 16 17  1  0  0  0  0
 17 18  1  0  0  0  0
 17 41  1  0  0  0  0
 17 42  1  0  0  0  0
 18 19  1  0  0  0  0
 18 20  1  0  0  0  0
 18 43  1  0  0  0  0
 19 44  1  0  0  0  0
 20 24  1  0  0  0  0
 20 21  1  0  0  0  0
 20 45  1  0  0  0  0
 21 22  1  0  0  0  0
 21 46  1  0  0  0  0
 21 47  1  0  0  0  0
 22 23  1  0  0  0  0
 22 48  1  0  0  0  0
 22 49  1  0  0  0  0
 23 24  1  0  0  0  0
 23 50  1  0  0  0  0
 23 51  1  0  0  0  0
 25 28  1  0  0  0  0
 25 26  1  0  0  0  0
 26 27  1  0  0  0  0
 26 52  1  0  0  0  0
 26 53  1  0  0  0  0
 27 28  1  0  0  0  0
 27 54  1  0  0  0  0
 27 55  1  0  0  0  0
 28 56  1  0  0  0  0
 28 57  1  0  0  0  0
M  END
> <s_m_source_file>
AV-unprocessed.smi

> <i_m_source_file_index>
276

> <i_lp_mmshare_version>
43012

> <i_f3d_flags>
0

> <s_epik_input>
W0NIMl0xW0NIMl1bQ0gyXUMxMltDQEhdKE9bQ0gzXSlbQ0gyXVtDQEhdMk4oW0NIM10pYyhuW2NIXW4zKWMoYzM0KW5bY0hdbjRbQ0gyXVtDQEhdKFtPSF0pW0NAQEhdNVtDSDJdW0NIMl1bQ0gyXU81

> <s_epik_cmdline>
J2VwaWtfcHl0aG9uJywgJy1waCcsICc3LjAnLCAnLXRuJywgJzgnLCAnLW1hJywgJzIwMCcsICctbWV0YWxfYmluZGluZycsICctaW1hZScsICc8aW5maWxlLm1hZT4nLCAnLW9tYWUnLCAnPG91dGZpbGUubWFlPic=

> <r_lp_tautomer_probability>
1

> <r_epik_Ionization_Penalty>
0.00204117

> <r_epik_Ionization_Penalty_Charging>
0

> <r_epik_Ionization_Penalty_Neutral>
0.00204117

> <r_epik_State_Penalty>
0.00127401

> <r_epik_Charging_Adjusted_Penalty>
0.00127401

> <i_epik_Tot_Q>
0

> <i_epik_Tot_abs_Q>
0

> <r_epik_Metal_State_Penalty>
-0

> <b_epik_Metal_Only>
0

> <s_lp_Force_Field>
OPLS_2005

> <r_lp_Energy>
58.4332

> <b_lp_Chiralities_Consistent>
1

> <s_lp_Variant>
AV-unprocessed.smi:276-3

> <Gold.Version>
5.8.1

> <Gold.Id.Protein>
6NUR|6NUR_protein|mol2

> <Gold.PLP.Fitness>
49.4221

> <Gold.PLP.PLP>
-42.3117

> <Gold.PLP.part.hbond>
-3.0000

> <Gold.PLP.part.metal>
0.0000

> <Gold.PLP.part.buried>
-5.7378

> <Gold.PLP.part.nonpolar>
-36.5692

> <Gold.PLP.part.repulsive>
2.2139

> <Gold.PLP.ligand.clash>
0.0000

> <Gold.PLP.ligand.torsion>
1.2871

> <Gold.PLP.Chemscore.Hbond>
2.0000

> <Gold.PLP.Chemscore.CHOScore>
0.8805

> <Gold.PLP.Chemscore.Metal>
0.0000

> <Gold.Chemscore.Hbonds>
donor molecule, donor type, donor heavy atom, donor atom, acceptor molecule, acceptor atom, score
      L1  H    19    44       P1 10171  0.30
      L1  C    15    40       P1 10171  0.74

> <Gold.PLP.Chemscore.Internal.Correction>
1.0433

> <Gold.Rescore>
     Score         DG    S(hbond)    S(metal)    S(lipo)     H(rot)  DE(clash)    DE(int)     intcor
     12.37     -15.31       1.91        0.00      88.90       2.72       0.17       2.77       ----

> <Gold.Chemscore.Fitness>
12.3696

> <Gold.Chemscore.DG>
-15.3132

> <Gold.Chemscore.ZeroCoef>
-5.4800

> <Gold.Chemscore.Hbond>
1.9126

> <Gold.Chemscore.Metal>
0.0000

> <Gold.Chemscore.Lipo>
88.8988

> <Gold.Chemscore.Internal_Hbond>
0.0000

> <Gold.Chemscore.DEClash>
0.1747

> <Gold.Chemscore.DEInternal>
2.7688

> <Gold.Chemscore.Rot>
2.7172

> <Gold.Chemscore.Internal.Correction>
   9.000000E+99

> <Gold.Chemscore.Hbonds>
donor molecule, donor type, donor heavy atom, donor atom, acceptor molecule, acceptor atom, score
      L1  H    19    44       P1 10171  0.29

> <Gold.Chemscore.Hbond.Weighted>
-6.3880

> <Gold.Chemscore.Metal.Weighted>
-0.0000

> <Gold.Chemscore.Lipo.Weighted>
-10.4012

> <Gold.Chemscore.Internal_Hbond.Weighted>
0.0000

> <Gold.Chemscore.DEClash.Weighted>
0.1747

> <Gold.Chemscore.DEInternal.Weighted>
2.7688

> <Gold.Chemscore.Rot.Weighted>
6.9560

> <Gold.Chemscore.Internal.Correction.Weighted>
   9.000000E+99

> <Gold.Protein.RotatedTorsions>
[ 6907 6896 6895 6894 ] final  -57.69 input  -60.11 | X-H torsion
[ 7974 7965 7964 7962 ] final -177.06 input  175.53 | X-H torsion
[ 8008 7997 7996 7995 ] final   84.08 input   59.86 | X-H torsion
[ 10167 10162 10161 10158 ] final    4.04 input  -65.29 | X-H torsion
[ 10718 10713 10712 10709 ] final -107.53 input   66.30 | X-H torsion
[ 10763 10752 10751 10750 ] final   49.18 input  -60.55 | X-H torsion
[ 11005 11000 10999 10996 ] final  -66.66 input  -57.11 | X-H torsion

> <Gold.Protein.ActiveResidues>
 VAL166  LYS551  ARG553  GLY616  TRP617  ASP618  TYR619  PRO620  LYS621  CYS622 
 ASP623  PHE694  ASN695  SER759  ASP760  ASP761  ALA762  ILE779  LEU786  VAL792 
 PHE793  MET794  SER795  GLU796  ALA797  LYS798  CYS799  TRP800  GLU811  SER814 

> <Gold.Protein.RotatedAtoms>
  150.8066  134.7195  159.6649 H   0  0  0  0  0  0  0  0  0  0  0  0  # atno 6907 bound_to 6896
  152.4186  134.5994  160.0005 H   0  0  0  0  0  0  0  0  0  0  0  0  # atno 6908 bound_to 6896
  151.6216  133.3301  159.3125 H   0  0  0  0  0  0  0  0  0  0  0  0  # atno 6909 bound_to 6896
  144.7127  140.1077  143.6413 H   0  0  0  0  0  0  0  0  0  0  0  0  # atno 7974 bound_to 7965
  155.9324  140.3414  155.6260 H   0  0  0  0  0  0  0  0  0  0  0  0  # atno 8008 bound_to 7997
  155.7141  140.0775  157.2377 H   0  0  0  0  0  0  0  0  0  0  0  0  # atno 8009 bound_to 7997
  154.4087  140.1617  156.2316 H   0  0  0  0  0  0  0  0  0  0  0  0  # atno 8010 bound_to 7997
  140.6555  143.7438  150.7646 H   0  0  0  0  0  0  0  0  0  0  0  0  # atno 10167 bound_to 10162
  156.0441  130.5667  150.7835 H   0  0  0  0  0  0  0  0  0  0  0  0  # atno 10718 bound_to 10713
  152.9788  135.5920  154.4047 H   0  0  0  0  0  0  0  0  0  0  0  0  # atno 10763 bound_to 10752
  154.3689  135.2767  155.2279 H   0  0  0  0  0  0  0  0  0  0  0  0  # atno 10764 bound_to 10752
  154.4244  135.6051  153.6084 H   0  0  0  0  0  0  0  0  0  0  0  0  # atno 10765 bound_to 10752
  141.1488  133.6703  156.6173 H   0  0  0  0  0  0  0  0  0  0  0  0  # atno 11005 bound_to 11000
  145.9482  139.2715  143.1228 LP  0  0  0  0  0  0  0  0  0  0  0  0  # atno 17320 bound_to 7965
  145.9351  140.9020  143.0336 LP  0  0  0  0  0  0  0  0  0  0  0  0  # atno 17321 bound_to 7965
  140.1097  143.4711  152.2377 LP  0  0  0  0  0  0  0  0  0  0  0  0  # atno 17342 bound_to 10162
  139.5777  144.7495  151.3722 LP  0  0  0  0  0  0  0  0  0  0  0  0  # atno 17343 bound_to 10162
  157.5296  131.0936  150.9973 LP  0  0  0  0  0  0  0  0  0  0  0  0  # atno 17370 bound_to 10713
  157.0283  130.5701  149.5340 LP  0  0  0  0  0  0  0  0  0  0  0  0  # atno 17371 bound_to 10713
  140.3568  134.7722  157.4506 LP  0  0  0  0  0  0  0  0  0  0  0  0  # atno 17394 bound_to 11000
  140.0817  134.5722  155.8534 LP  0  0  0  0  0  0  0  0  0  0  0  0  # atno 17395 bound_to 11000

$$$$
