AV-unprocessed.smi:2040|AV-procd|sdf|8286|dock2
  -GOLD-   2272010553D 1   1.00000     0.00000
 Structure written by MMmdl.
 38 39  0  0  0  0  0  0  0  0  1 V2000
  153.7296  141.7672  160.7680 C   0  0  0  0  0  0  0  0  0  0  0  0
  152.7334  142.3843  159.8314 C   0  0  0  0  0  0  0  0  0  0  0  0
  151.8943  141.7267  158.8857 C   0  0  0  0  0  0  0  0  0  0  0  0
  151.2065  142.7651  158.3196 C   0  0  0  0  0  0  0  0  0  0  0  0
  150.2547  142.7325  157.3494 N   0  0  0  0  0  0  0  0  0  0  0  0
  149.6436  141.6645  156.8078 C   0  0  0  0  0  0  0  0  0  0  0  0
  149.8738  140.4898  157.0948 O   0  0  0  0  0  0  0  0  0  0  0  0
  148.7353  142.0411  155.8959 N   0  0  0  0  0  0  0  0  0  0  0  0
  147.8793  141.1444  155.1213 C   0  0  2  0  0  0  0  0  0  0  0  0
  148.5167  140.8956  153.7459 C   0  0  0  0  0  0  0  0  0  0  0  0
  146.4637  141.7420  155.0058 C   0  0  2  0  0  0  0  0  0  0  0  0
  146.3443  142.9080  154.0205 C   0  0  0  0  0  0  0  0  0  0  0  0
  145.1516  143.6555  154.5691 C   0  0  0  0  0  0  0  0  0  0  0  0
  145.3732  143.5230  156.0717 C   0  0  0  0  0  0  0  0  0  0  0  0
  146.0415  142.2781  156.2588 O   0  0  0  0  0  0  0  0  0  0  0  0
  151.6195  143.9425  158.9026 N   0  0  0  0  0  0  0  0  0  0  0  0
  151.1852  145.3010  158.6418 C   0  0  0  0  0  0  0  0  0  0  0  0
  152.5658  143.7021  159.8359 N   0  0  0  0  0  0  0  0  0  0  0  0
  153.7033  140.6789  160.7095 H   0  0  0  0  0  0  0  0  0  0  0  0
  153.5252  142.0481  161.8015 H   0  0  0  0  0  0  0  0  0  0  0  0
  154.7436  142.0877  160.5283 H   0  0  0  0  0  0  0  0  0  0  0  0
  151.8246  140.6699  158.6759 H   0  0  0  0  0  0  0  0  0  0  0  0
  149.9705  143.6339  156.9954 H   0  0  0  0  0  0  0  0  0  0  0  0
  148.6188  143.0295  155.7266 H   0  0  0  0  0  0  0  0  0  0  0  0
  147.7909  140.1833  155.6311 H   0  0  0  0  0  0  0  0  0  0  0  0
  147.9159  140.2061  153.1524 H   0  0  0  0  0  0  0  0  0  0  0  0
  149.5106  140.4584  153.8472 H   0  0  0  0  0  0  0  0  0  0  0  0
  148.6158  141.8223  153.1798 H   0  0  0  0  0  0  0  0  0  0  0  0
  145.7495  140.9668  154.7226 H   0  0  0  0  0  0  0  0  0  0  0  0
  147.2320  143.5412  154.0637 H   0  0  0  0  0  0  0  0  0  0  0  0
  146.2069  142.5825  152.9889 H   0  0  0  0  0  0  0  0  0  0  0  0
  145.1009  144.6919  154.2344 H   0  0  0  0  0  0  0  0  0  0  0  0
  144.2278  143.1540  154.2778 H   0  0  0  0  0  0  0  0  0  0  0  0
  146.0234  144.3212  156.4317 H   0  0  0  0  0  0  0  0  0  0  0  0
  144.4410  143.5651  156.6357 H   0  0  0  0  0  0  0  0  0  0  0  0
  151.4409  145.5765  157.6186 H   0  0  0  0  0  0  0  0  0  0  0  0
  151.6692  145.9980  159.3272 H   0  0  0  0  0  0  0  0  0  0  0  0
  150.1051  145.3717  158.7715 H   0  0  0  0  0  0  0  0  0  0  0  0
  1  2  1  0  0  0  0
  1 19  1  0  0  0  0
  1 20  1  0  0  0  0
  1 21  1  0  0  0  0
  2 18  2  0  0  0  0
  2  3  1  0  0  0  0
  3  4  2  0  0  0  0
  3 22  1  0  0  0  0
  4  5  1  0  0  0  0
  4 16  1  0  0  0  0
  5  6  1  0  0  0  0
  5 23  1  0  0  0  0
  6  7  2  0  0  0  0
  6  8  1  0  0  0  0
  8  9  1  0  0  0  0
  8 24  1  0  0  0  0
  9 10  1  0  0  0  0
  9 11  1  0  0  0  0
  9 25  1  0  0  0  0
 10 26  1  0  0  0  0
 10 27  1  0  0  0  0
 10 28  1  0  0  0  0
 11 15  1  0  0  0  0
 11 12  1  0  0  0  0
 11 29  1  0  0  0  0
 12 13  1  0  0  0  0
 12 30  1  0  0  0  0
 12 31  1  0  0  0  0
 13 14  1  0  0  0  0
 13 32  1  0  0  0  0
 13 33  1  0  0  0  0
 14 15  1  0  0  0  0
 14 34  1  0  0  0  0
 14 35  1  0  0  0  0
 16 17  1  0  0  0  0
 16 18  1  0  0  0  0
 17 36  1  0  0  0  0
 17 37  1  0  0  0  0
 17 38  1  0  0  0  0
M  END
> <s_m_source_file>
AV-unprocessed.smi

> <i_m_source_file_index>
2040

> <i_lp_mmshare_version>
43012

> <i_f3d_flags>
0

> <s_epik_input>
W0NIM11jMVtjSF1jKG4objEpW0NIM10pW05IXUMoPU8pW05IXVtDQEhdKFtDSDNdKVtDQEBIXTJbQ0gyXVtDSDJdW0NIMl1PMg==

> <s_epik_cmdline>
J2VwaWtfcHl0aG9uJywgJy1waCcsICc3LjAnLCAnLXRuJywgJzgnLCAnLW1hJywgJzIwMCcsICctbWV0YWxfYmluZGluZycsICctaW1hZScsICc8aW5maWxlLm1hZT4nLCAnLW9tYWUnLCAnPG91dGZpbGUubWFlPic=

> <r_lp_tautomer_probability>
1

> <r_epik_Ionization_Penalty>
9.09088e-05

> <r_epik_Ionization_Penalty_Charging>
0

> <r_epik_Ionization_Penalty_Neutral>
9.09088e-05

> <r_epik_State_Penalty>
-0

> <r_epik_Charging_Adjusted_Penalty>
0

> <i_epik_Tot_Q>
0

> <i_epik_Tot_abs_Q>
0

> <r_epik_Metal_State_Penalty>
-0

> <b_epik_Metal_Only>
0

> <s_lp_Force_Field>
OPLS_2005

> <r_lp_Energy>
18.8843

> <b_lp_Chiralities_Consistent>
1

> <s_lp_Variant>
AV-unprocessed.smi:2040-1

> <Gold.Version>
5.8.1

> <Gold.Id.Protein>
6NUR|6NUR_protein|mol2

> <Gold.PLP.Fitness>
41.7822

> <Gold.PLP.PLP>
-36.8543

> <Gold.PLP.part.hbond>
-2.0000

> <Gold.PLP.part.metal>
0.0000

> <Gold.PLP.part.buried>
-4.5608

> <Gold.PLP.part.nonpolar>
-30.5852

> <Gold.PLP.part.repulsive>
0.2369

> <Gold.PLP.ligand.clash>
0.0000

> <Gold.PLP.ligand.torsion>
0.5420

> <Gold.PLP.Chemscore.Hbond>
2.0000

> <Gold.PLP.Chemscore.CHOScore>
0.0000

> <Gold.PLP.Chemscore.Metal>
0.0000

> <Gold.Chemscore.Hbonds>
donor molecule, donor type, donor heavy atom, donor atom, acceptor molecule, acceptor atom, score
      L1  H     5    23       P1  8028  1.00
      L1  H     8    24       P1  8028  1.00

> <Gold.PLP.Chemscore.Internal.Correction>
0.0119

> <Gold.Rescore>
     Score         DG    S(hbond)    S(metal)    S(lipo)     H(rot)  DE(clash)    DE(int)     intcor
     15.33     -17.67       1.90        0.00      76.85       1.23       0.49       1.85       ----

> <Gold.Chemscore.Fitness>
15.3315

> <Gold.Chemscore.DG>
-17.6661

> <Gold.Chemscore.ZeroCoef>
-5.4800

> <Gold.Chemscore.Hbond>
1.9020

> <Gold.Chemscore.Metal>
0.0000

> <Gold.Chemscore.Lipo>
76.8522

> <Gold.Chemscore.Internal_Hbond>
0.0000

> <Gold.Chemscore.DEClash>
0.4884

> <Gold.Chemscore.DEInternal>
1.8462

> <Gold.Chemscore.Rot>
1.2338

> <Gold.Chemscore.Internal.Correction>
   9.000000E+99

> <Gold.Chemscore.Hbonds>
donor molecule, donor type, donor heavy atom, donor atom, acceptor molecule, acceptor atom, score
      L1  H     5    23       P1  8028  0.87
      L1  H     8    24       P1  8028  1.00

> <Gold.Chemscore.Hbond.Weighted>
-6.3528

> <Gold.Chemscore.Metal.Weighted>
-0.0000

> <Gold.Chemscore.Lipo.Weighted>
-8.9917

> <Gold.Chemscore.Internal_Hbond.Weighted>
0.0000

> <Gold.Chemscore.DEClash.Weighted>
0.4884

> <Gold.Chemscore.DEInternal.Weighted>
1.8462

> <Gold.Chemscore.Rot.Weighted>
3.1584

> <Gold.Chemscore.Internal.Correction.Weighted>
   9.000000E+99

> <Gold.Protein.RotatedTorsions>
[ 6907 6896 6895 6894 ] final   76.97 input  -60.11 | X-H torsion
[ 7974 7965 7964 7962 ] final -137.40 input  175.53 | X-H torsion
[ 8008 7997 7996 7995 ] final  -93.96 input   59.86 | X-H torsion
[ 10167 10162 10161 10158 ] final  144.06 input  -65.29 | X-H torsion
[ 10718 10713 10712 10709 ] final -118.85 input   66.30 | X-H torsion
[ 10763 10752 10751 10750 ] final   98.92 input  -60.55 | X-H torsion
[ 11005 11000 10999 10996 ] final   79.08 input  -57.11 | X-H torsion

> <Gold.Protein.ActiveResidues>
 VAL166  LYS551  ARG553  GLY616  TRP617  ASP618  TYR619  PRO620  LYS621  CYS622 
 ASP623  PHE694  ASN695  SER759  ASP760  ASP761  ALA762  ILE779  LEU786  VAL792 
 PHE793  MET794  SER795  GLU796  ALA797  LYS798  CYS799  TRP800  GLU811  SER814 

> <Gold.Protein.RotatedAtoms>
  152.5097  134.3888  159.9376 H   0  0  0  0  0  0  0  0  0  0  0  0  # atno 6907 bound_to 6896
  151.3847  133.3803  159.2722 H   0  0  0  0  0  0  0  0  0  0  0  0  # atno 6908 bound_to 6896
  150.9478  134.8901  159.7711 H   0  0  0  0  0  0  0  0  0  0  0  0  # atno 6909 bound_to 6896
  144.8845  140.6555  143.5185 H   0  0  0  0  0  0  0  0  0  0  0  0  # atno 7974 bound_to 7965
  154.7424  140.0494  157.0822 H   0  0  0  0  0  0  0  0  0  0  0  0  # atno 8008 bound_to 7997
  155.0162  140.3141  155.4791 H   0  0  0  0  0  0  0  0  0  0  0  0  # atno 8009 bound_to 7997
  156.2867  140.2175  156.5278 H   0  0  0  0  0  0  0  0  0  0  0  0  # atno 8010 bound_to 7997
  139.4955  144.5998  151.6506 H   0  0  0  0  0  0  0  0  0  0  0  0  # atno 10167 bound_to 10162
  156.1137  130.6269  150.9343 H   0  0  0  0  0  0  0  0  0  0  0  0  # atno 10718 bound_to 10713
  153.2949  135.4131  155.1201 H   0  0  0  0  0  0  0  0  0  0  0  0  # atno 10763 bound_to 10752
  154.8532  135.3527  154.5930 H   0  0  0  0  0  0  0  0  0  0  0  0  # atno 10764 bound_to 10752
  153.6353  135.7059  153.5319 H   0  0  0  0  0  0  0  0  0  0  0  0  # atno 10765 bound_to 10752
  139.9187  134.7814  156.1732 H   0  0  0  0  0  0  0  0  0  0  0  0  # atno 11005 bound_to 11000
  145.3894  139.1620  143.4237 LP  0  0  0  0  0  0  0  0  0  0  0  0  # atno 17320 bound_to 7965
  146.3015  140.3982  142.8702 LP  0  0  0  0  0  0  0  0  0  0  0  0  # atno 17321 bound_to 7965
  140.5644  144.0214  150.6185 LP  0  0  0  0  0  0  0  0  0  0  0  0  # atno 17342 bound_to 10162
  140.3311  143.3077  152.0687 LP  0  0  0  0  0  0  0  0  0  0  0  0  # atno 17343 bound_to 10162
  157.6319  131.0920  150.8424 LP  0  0  0  0  0  0  0  0  0  0  0  0  # atno 17370 bound_to 10713
  156.8531  130.5087  149.5310 LP  0  0  0  0  0  0  0  0  0  0  0  0  # atno 17371 bound_to 10713
  141.0687  133.6807  156.2097 LP  0  0  0  0  0  0  0  0  0  0  0  0  # atno 17394 bound_to 11000
  140.6542  134.5035  157.5579 LP  0  0  0  0  0  0  0  0  0  0  0  0  # atno 17395 bound_to 11000

$$$$
