AV-unprocessed.smi:20|AV-procd|sdf|113|dock1
  -GOLD-   2262015273D 1   1.00000     0.00000
 Structure written by MMmdl.
 57 61  0  0  0  0  0  0  0  0  1 V2000
  144.3368  131.2774  160.5433 O   0  0  0  0  0  0  0  0  0  0  0  0
  145.4531  131.7894  160.5795 C   0  0  0  0  0  0  0  0  0  0  0  0
  145.7036  133.2796  160.4236 C   0  0  0  0  0  0  0  0  0  0  0  0
  147.1634  133.4516  160.9090 C   0  0  2  0  0  0  0  0  0  0  0  0
  147.2256  133.8440  162.4097 C   0  0  0  0  0  0  0  0  0  0  0  0
  146.7981  135.3029  162.6470 C   0  0  0  0  0  0  0  0  0  0  0  0
  147.5929  136.2633  161.7514 C   0  0  0  0  0  0  0  0  0  0  0  0
  147.5018  135.8568  160.3508 N   0  0  0  0  0  0  0  0  0  0  0  0
  147.8270  136.8232  159.4546 C   0  0  0  0  0  0  0  0  0  0  0  0
  146.8576  137.3955  158.6909 N   0  0  0  0  0  0  0  0  0  0  0  0
  147.1692  138.3425  157.8013 C   0  0  0  0  0  0  0  0  0  0  0  0
  148.3660  138.8588  157.5169 N   0  0  0  0  0  0  0  0  0  0  0  0
  149.3429  138.2929  158.2819 C   0  0  0  0  0  0  0  0  0  0  0  0
  149.1622  137.2803  159.2661 C   0  0  0  0  0  0  0  0  0  0  0  0
  150.3837  136.9675  159.8510 N   0  0  0  0  0  0  0  0  0  0  0  0
  151.2381  137.7412  159.2392 C   0  0  0  0  0  0  0  0  0  0  0  0
  150.7023  138.5553  158.2668 N   0  0  0  0  0  0  0  0  0  0  0  0
  151.4201  139.5188  157.4480 C   0  0  0  0  0  0  0  0  0  0  0  0
  151.2513  140.9938  157.9047 C   0  0  2  0  0  0  0  0  0  0  0  0
  150.9751  141.8890  156.6735 C   0  0  0  0  0  0  0  0  0  0  0  0
  150.2703  143.0577  157.0399 O   0  0  0  0  0  0  0  0  0  0  0  0
  152.4725  141.5272  158.7081 C   0  0  2  0  0  0  0  0  0  0  0  0
  152.8816  140.7192  159.9290 C   0  0  0  0  0  0  0  0  0  0  0  0
  153.7154  141.7176  160.7202 C   0  0  0  0  0  0  0  0  0  0  0  0
  153.0998  142.9772  160.4951 O   0  0  0  0  0  0  0  0  0  0  0  0
  152.2514  142.9035  159.3538 C   0  0  0  0  0  0  0  0  0  0  0  0
  147.9483  134.4897  160.0746 C   0  0  0  0  0  0  0  0  0  0  0  0
  147.7502  132.0324  160.7189 C   0  0  0  0  0  0  0  0  0  0  0  0
  146.6041  131.1452  160.7555 N   0  0  0  0  0  0  0  0  0  0  0  0
  145.5950  133.5387  159.3698 H   0  0  0  0  0  0  0  0  0  0  0  0
  144.9798  133.8635  160.9910 H   0  0  0  0  0  0  0  0  0  0  0  0
  146.6105  133.1740  163.0120 H   0  0  0  0  0  0  0  0  0  0  0  0
  148.2474  133.7252  162.7729 H   0  0  0  0  0  0  0  0  0  0  0  0
  145.7324  135.4222  162.4522 H   0  0  0  0  0  0  0  0  0  0  0  0
  146.9454  135.5670  163.6944 H   0  0  0  0  0  0  0  0  0  0  0  0
  147.2308  137.2797  161.9020 H   0  0  0  0  0  0  0  0  0  0  0  0
  148.6431  136.2606  162.0471 H   0  0  0  0  0  0  0  0  0  0  0  0
  146.3416  138.7417  157.2337 H   0  0  0  0  0  0  0  0  0  0  0  0
  152.2911  137.7371  159.4808 H   0  0  0  0  0  0  0  0  0  0  0  0
  152.4775  139.2535  157.4224 H   0  0  0  0  0  0  0  0  0  0  0  0
  151.0536  139.3869  156.4298 H   0  0  0  0  0  0  0  0  0  0  0  0
  150.3747  141.0623  158.5503 H   0  0  0  0  0  0  0  0  0  0  0  0
  151.9006  142.2175  156.2025 H   0  0  0  0  0  0  0  0  0  0  0  0
  150.4084  141.3449  155.9173 H   0  0  0  0  0  0  0  0  0  0  0  0
  149.8863  143.4342  156.2624 H   0  0  0  0  0  0  0  0  0  0  0  0
  153.3355  141.5952  158.0434 H   0  0  0  0  0  0  0  0  0  0  0  0
  152.0056  140.4186  160.5053 H   0  0  0  0  0  0  0  0  0  0  0  0
  153.4595  139.8293  159.6850 H   0  0  0  0  0  0  0  0  0  0  0  0
  153.7624  141.4772  161.7824 H   0  0  0  0  0  0  0  0  0  0  0  0
  154.7346  141.7524  160.3330 H   0  0  0  0  0  0  0  0  0  0  0  0
  152.4656  143.7214  158.6656 H   0  0  0  0  0  0  0  0  0  0  0  0
  151.2208  143.0123  159.6945 H   0  0  0  0  0  0  0  0  0  0  0  0
  149.0130  134.4177  160.3020 H   0  0  0  0  0  0  0  0  0  0  0  0
  147.8360  134.2652  159.0126 H   0  0  0  0  0  0  0  0  0  0  0  0
  148.2321  131.9258  159.7458 H   0  0  0  0  0  0  0  0  0  0  0  0
  148.4818  131.7648  161.4820 H   0  0  0  0  0  0  0  0  0  0  0  0
  146.6862  130.1467  160.8814 H   0  0  0  0  0  0  0  0  0  0  0  0
  1  2  2  0  0  0  0
  2 29  1  0  0  0  0
  2  3  1  0  0  0  0
  3  4  1  0  0  0  0
  3 30  1  0  0  0  0
  3 31  1  0  0  0  0
  4 27  1  0  0  0  0
  4  5  1  0  0  0  0
  4 28  1  0  0  0  0
  5  6  1  0  0  0  0
  5 32  1  0  0  0  0
  5 33  1  0  0  0  0
  6  7  1  0  0  0  0
  6 34  1  0  0  0  0
  6 35  1  0  0  0  0
  7  8  1  0  0  0  0
  7 36  1  0  0  0  0
  7 37  1  0  0  0  0
  8  9  1  0  0  0  0
  8 27  1  0  0  0  0
  9 14  1  0  0  0  0
  9 10  2  0  0  0  0
 10 11  1  0  0  0  0
 11 12  2  0  0  0  0
 11 38  1  0  0  0  0
 12 13  1  0  0  0  0
 13 17  1  0  0  0  0
 13 14  2  0  0  0  0
 14 15  1  0  0  0  0
 15 16  2  0  0  0  0
 16 17  1  0  0  0  0
 16 39  1  0  0  0  0
 17 18  1  0  0  0  0
 18 19  1  0  0  0  0
 18 40  1  0  0  0  0
 18 41  1  0  0  0  0
 19 20  1  0  0  0  0
 19 22  1  0  0  0  0
 19 42  1  0  0  0  0
 20 21  1  0  0  0  0
 20 43  1  0  0  0  0
 20 44  1  0  0  0  0
 21 45  1  0  0  0  0
 22 26  1  0  0  0  0
 22 23  1  0  0  0  0
 22 46  1  0  0  0  0
 23 24  1  0  0  0  0
 23 47  1  0  0  0  0
 23 48  1  0  0  0  0
 24 25  1  0  0  0  0
 24 49  1  0  0  0  0
 24 50  1  0  0  0  0
 25 26  1  0  0  0  0
 26 51  1  0  0  0  0
 26 52  1  0  0  0  0
 27 53  1  0  0  0  0
 27 54  1  0  0  0  0
 28 29  1  0  0  0  0
 28 55  1  0  0  0  0
 28 56  1  0  0  0  0
 29 57  1  0  0  0  0
M  END
> <s_m_source_file>
AV-unprocessed.smi

> <i_m_source_file_index>
20

> <i_lp_mmshare_version>
43012

> <i_f3d_flags>
0

> <s_epik_input>
W0NIMl0xW05IXUMoPU8pW0NIMl1bQ0BAXTEyW0NIMl1bQ0gyXVtDSDJdTihbQ0gyXTIpYyhuW2NIXW4zKWMoYzM0KW5bY0hdbjRbQ0gyXVtDQEhdKFtDSDJdW09IXSlbQ0BASF01W0NIMl1bQ0gyXU9bQ0gyXTU=

> <s_epik_cmdline>
J2VwaWtfcHl0aG9uJywgJy1waCcsICc3LjAnLCAnLXRuJywgJzgnLCAnLW1hJywgJzIwMCcsICctbWV0YWxfYmluZGluZycsICctaW1hZScsICc8aW5maWxlLm1hZT4nLCAnLW9tYWUnLCAnPG91dGZpbGUubWFlPic=

> <r_lp_tautomer_probability>
1

> <r_epik_Ionization_Penalty>
0.0019697

> <r_epik_Ionization_Penalty_Charging>
0

> <r_epik_Ionization_Penalty_Neutral>
0.0019697

> <r_epik_State_Penalty>
0.00113613

> <r_epik_Charging_Adjusted_Penalty>
0.00113613

> <i_epik_Tot_Q>
0

> <i_epik_Tot_abs_Q>
0

> <r_epik_Metal_State_Penalty>
-0

> <b_epik_Metal_Only>
0

> <s_lp_Force_Field>
OPLS_2005

> <r_lp_Energy>
60.2496

> <b_lp_Chiralities_Consistent>
1

> <s_lp_Variant>
AV-unprocessed.smi:20-1

> <Gold.Version>
5.8.1

> <Gold.Id.Protein>
6NUR|6NUR_protein|mol2

> <Gold.PLP.Fitness>
51.0910

> <Gold.PLP.PLP>
-47.1134

> <Gold.PLP.part.hbond>
-2.2439

> <Gold.PLP.part.metal>
0.0000

> <Gold.PLP.part.buried>
-7.2884

> <Gold.PLP.part.nonpolar>
-37.4913

> <Gold.PLP.part.repulsive>
0.0731

> <Gold.PLP.ligand.clash>
0.0000

> <Gold.PLP.ligand.torsion>
1.2914

> <Gold.PLP.Chemscore.Hbond>
2.0000

> <Gold.PLP.Chemscore.CHOScore>
0.0000

> <Gold.PLP.Chemscore.Metal>
0.0000

> <Gold.Chemscore.Hbonds>
donor molecule, donor type, donor heavy atom, donor atom, acceptor molecule, acceptor atom, score
      L1  H    21    45       P1  8028  0.88
      P1  H  6896  6908       L1    15  1.00

> <Gold.PLP.Chemscore.Internal.Correction>
0.5605

> <Gold.Rescore>
     Score         DG    S(hbond)    S(metal)    S(lipo)     H(rot)  DE(clash)    DE(int)     intcor
     16.14     -17.48       1.98        0.00     105.90       2.74       0.04       1.31       ----

> <Gold.Chemscore.Fitness>
16.1395

> <Gold.Chemscore.DG>
-17.4814

> <Gold.Chemscore.ZeroCoef>
-5.4800

> <Gold.Chemscore.Hbond>
1.9848

> <Gold.Chemscore.Metal>
0.0000

> <Gold.Chemscore.Lipo>
105.8990

> <Gold.Chemscore.Internal_Hbond>
0.0000

> <Gold.Chemscore.DEClash>
0.0354

> <Gold.Chemscore.DEInternal>
1.3065

> <Gold.Chemscore.Rot>
2.7415

> <Gold.Chemscore.Internal.Correction>
   9.000000E+99

> <Gold.Chemscore.Hbonds>
donor molecule, donor type, donor heavy atom, donor atom, acceptor molecule, acceptor atom, score
      L1  H    21    45       P1  8028  0.87
      P1  H  6896  6908       L1    15  0.52

> <Gold.Chemscore.Hbond.Weighted>
-6.6294

> <Gold.Chemscore.Metal.Weighted>
-0.0000

> <Gold.Chemscore.Lipo.Weighted>
-12.3902

> <Gold.Chemscore.Internal_Hbond.Weighted>
0.0000

> <Gold.Chemscore.DEClash.Weighted>
0.0354

> <Gold.Chemscore.DEInternal.Weighted>
1.3065

> <Gold.Chemscore.Rot.Weighted>
7.0182

> <Gold.Chemscore.Internal.Correction.Weighted>
   9.000000E+99

> <Gold.Protein.RotatedTorsions>
[ 6907 6896 6895 6894 ] final -139.36 input  -60.11 | X-H torsion
[ 7974 7965 7964 7962 ] final   84.47 input  175.53 | X-H torsion
[ 8008 7997 7996 7995 ] final   48.16 input   59.86 | X-H torsion
[ 10167 10162 10161 10158 ] final  -88.33 input  -65.29 | X-H torsion
[ 10718 10713 10712 10709 ] final   65.14 input   66.30 | X-H torsion
[ 10763 10752 10751 10750 ] final    6.87 input  -60.55 | X-H torsion
[ 11005 11000 10999 10996 ] final  -72.15 input  -57.11 | X-H torsion

> <Gold.Protein.ActiveResidues>
 VAL166  LYS551  ARG553  GLY616  TRP617  ASP618  TYR619  PRO620  LYS621  CYS622 
 ASP623  PHE694  ASN695  SER759  ASP760  ASP761  ALA762  ILE779  LEU786  VAL792 
 PHE793  MET794  SER795  GLU796  ALA797  LYS798  CYS799  TRP800  GLU811  SER814 

> <Gold.Protein.RotatedAtoms>
  151.0468  133.5658  159.2645 H   0  0  0  0  0  0  0  0  0  0  0  0  # atno 6907 bound_to 6896
  151.2684  135.0676  159.9134 H   0  0  0  0  0  0  0  0  0  0  0  0  # atno 6908 bound_to 6896
  152.5374  134.0203  159.8032 H   0  0  0  0  0  0  0  0  0  0  0  0  # atno 6909 bound_to 6896
  145.5983  139.2348  143.2260 H   0  0  0  0  0  0  0  0  0  0  0  0  # atno 7974 bound_to 7965
  155.3811  140.3428  155.4247 H   0  0  0  0  0  0  0  0  0  0  0  0  # atno 8008 bound_to 7997
  156.1610  140.1601  156.8646 H   0  0  0  0  0  0  0  0  0  0  0  0  # atno 8009 bound_to 7997
  154.5139  140.0783  156.8026 H   0  0  0  0  0  0  0  0  0  0  0  0  # atno 8010 bound_to 7997
  140.3757  143.2772  151.9445 H   0  0  0  0  0  0  0  0  0  0  0  0  # atno 10167 bound_to 10162
  157.6086  130.9198  149.9938 H   0  0  0  0  0  0  0  0  0  0  0  0  # atno 10718 bound_to 10713
  153.2427  135.6905  153.7765 H   0  0  0  0  0  0  0  0  0  0  0  0  # atno 10763 bound_to 10752
  153.6888  135.3316  155.3198 H   0  0  0  0  0  0  0  0  0  0  0  0  # atno 10764 bound_to 10752
  154.8362  135.4540  154.1355 H   0  0  0  0  0  0  0  0  0  0  0  0  # atno 10765 bound_to 10752
  141.1604  133.6838  156.7016 H   0  0  0  0  0  0  0  0  0  0  0  0  # atno 11005 bound_to 11000
  146.1595  140.6809  142.9284 LP  0  0  0  0  0  0  0  0  0  0  0  0  # atno 17320 bound_to 7965
  144.7321  140.4701  143.6930 LP  0  0  0  0  0  0  0  0  0  0  0  0  # atno 17321 bound_to 7965
  139.4799  144.5865  151.7844 LP  0  0  0  0  0  0  0  0  0  0  0  0  # atno 17342 bound_to 10162
  140.4988  144.1200  150.5966 LP  0  0  0  0  0  0  0  0  0  0  0  0  # atno 17343 bound_to 10162
  156.1181  130.3647  149.9934 LP  0  0  0  0  0  0  0  0  0  0  0  0  # atno 17370 bound_to 10713
  156.8019  130.9294  151.3646 LP  0  0  0  0  0  0  0  0  0  0  0  0  # atno 17371 bound_to 10713
  140.2955  134.8206  157.4053 LP  0  0  0  0  0  0  0  0  0  0  0  0  # atno 17394 bound_to 11000
  140.1309  134.5097  155.8107 LP  0  0  0  0  0  0  0  0  0  0  0  0  # atno 17395 bound_to 11000

$$$$
