AV-unprocessed.smi:1271|AV-procd|sdf|5332|dock1
  -GOLD-   22720 4463D 1   1.00000     0.00000
 Structure written by MMmdl.
 35 36  0  0  0  0  0  0  0  0  1 V2000
  151.0363  139.7260  156.3291 C   0  0  0  0  0  0  0  0  0  0  0  0
  150.3579  141.1012  156.3841 C   0  0  2  0  0  0  0  0  0  0  0  0
  150.0142  141.6229  154.9741 C   0  0  0  0  0  0  0  0  0  0  0  0
  149.0771  140.7629  154.2720 N   0  0  0  0  0  0  0  0  0  0  0  0
  147.9130  141.1163  153.6230 C   0  0  0  0  0  0  0  0  0  0  0  0
  147.3610  139.9709  153.1258 C   0  0  0  0  0  0  0  0  0  0  0  0
  148.2772  138.9563  153.5197 C   0  0  0  0  0  0  0  0  0  0  0  0
  149.3056  139.4338  154.2016 N   0  0  0  0  0  0  0  0  0  0  0  0
  151.2386  142.0469  157.0687 N   0  0  0  0  0  0  0  0  0  0  0  0
  151.6771  141.9471  158.3360 C   0  0  0  0  0  0  0  0  0  0  0  0
  151.4376  140.9673  159.0428 O   0  0  0  0  0  0  0  0  0  0  0  0
  152.4210  143.0001  158.7601 N   0  0  0  0  0  0  0  0  0  0  0  0
  152.5218  144.3068  158.0892 C   0  0  0  0  0  0  0  0  0  0  0  0
  151.4918  145.2679  158.7061 C   0  0  0  0  0  0  0  0  0  0  0  0
  151.8376  145.5514  160.4704 S   0  0  0  0  0  0  0  0  0  0  0  0
  152.0146  143.8284  161.0307 C   0  0  0  0  0  0  0  0  0  0  0  0
  152.9756  143.0473  160.1182 C   0  0  0  0  0  0  0  0  0  0  0  0
  150.3957  138.9927  155.8383 H   0  0  0  0  0  0  0  0  0  0  0  0
  151.2520  139.3551  157.3317 H   0  0  0  0  0  0  0  0  0  0  0  0
  151.9770  139.7673  155.7789 H   0  0  0  0  0  0  0  0  0  0  0  0
  149.4254  140.9795  156.9379 H   0  0  0  0  0  0  0  0  0  0  0  0
  149.5888  142.6258  155.0322 H   0  0  0  0  0  0  0  0  0  0  0  0
  150.9192  141.7026  154.3702 H   0  0  0  0  0  0  0  0  0  0  0  0
  147.5739  142.1408  153.5763 H   0  0  0  0  0  0  0  0  0  0  0  0
  146.4428  139.8727  152.5662 H   0  0  0  0  0  0  0  0  0  0  0  0
  148.2261  137.8941  153.3308 H   0  0  0  0  0  0  0  0  0  0  0  0
  151.5010  142.8724  156.5504 H   0  0  0  0  0  0  0  0  0  0  0  0
  153.5273  144.7113  158.2121 H   0  0  0  0  0  0  0  0  0  0  0  0
  152.3755  144.2462  157.0107 H   0  0  0  0  0  0  0  0  0  0  0  0
  151.5063  146.2269  158.1883 H   0  0  0  0  0  0  0  0  0  0  0  0
  150.4847  144.8641  158.6035 H   0  0  0  0  0  0  0  0  0  0  0  0
  152.3817  143.8298  162.0570 H   0  0  0  0  0  0  0  0  0  0  0  0
  151.0322  143.3547  161.0437 H   0  0  0  0  0  0  0  0  0  0  0  0
  153.1450  142.0477  160.5212 H   0  0  0  0  0  0  0  0  0  0  0  0
  153.9568  143.5240  160.1084 H   0  0  0  0  0  0  0  0  0  0  0  0
  1  2  1  0  0  0  0
  1 18  1  0  0  0  0
  1 19  1  0  0  0  0
  1 20  1  0  0  0  0
  2  3  1  0  0  0  0
  2  9  1  0  0  0  0
  2 21  1  0  0  0  0
  3  4  1  0  0  0  0
  3 22  1  0  0  0  0
  3 23  1  0  0  0  0
  4  8  1  0  0  0  0
  4  5  1  0  0  0  0
  5  6  2  0  0  0  0
  5 24  1  0  0  0  0
  6  7  1  0  0  0  0
  6 25  1  0  0  0  0
  7  8  2  0  0  0  0
  7 26  1  0  0  0  0
  9 10  1  0  0  0  0
  9 27  1  0  0  0  0
 10 11  2  0  0  0  0
 10 12  1  0  0  0  0
 12 17  1  0  0  0  0
 12 13  1  0  0  0  0
 13 14  1  0  0  0  0
 13 28  1  0  0  0  0
 13 29  1  0  0  0  0
 14 15  1  0  0  0  0
 14 30  1  0  0  0  0
 14 31  1  0  0  0  0
 15 16  1  0  0  0  0
 16 17  1  0  0  0  0
 16 32  1  0  0  0  0
 16 33  1  0  0  0  0
 17 34  1  0  0  0  0
 17 35  1  0  0  0  0
M  END
> <s_m_source_file>
AV-unprocessed.smi

> <i_m_source_file_index>
1271

> <i_lp_mmshare_version>
43012

> <i_f3d_flags>
0

> <s_epik_input>
bjFbY0hdW2NIXVtjSF1uMVtDSDJdW0NAQEhdKFtDSDNdKVtOSF1DKD1PKU4yW0NIMl1bQ0gyXVNbQ0gyXVtDSDJdMg==

> <s_epik_cmdline>
J2VwaWtfcHl0aG9uJywgJy1waCcsICc3LjAnLCAnLXRuJywgJzgnLCAnLW1hJywgJzIwMCcsICctbWV0YWxfYmluZGluZycsICctaW1hZScsICc8aW5maWxlLm1hZT4nLCAnLW9tYWUnLCAnPG91dGZpbGUubWFlPic=

> <r_lp_tautomer_probability>
1

> <r_epik_Ionization_Penalty>
5.86346e-05

> <r_epik_Ionization_Penalty_Charging>
0

> <r_epik_Ionization_Penalty_Neutral>
5.86346e-05

> <r_epik_State_Penalty>
-0

> <r_epik_Charging_Adjusted_Penalty>
0

> <i_epik_Tot_Q>
0

> <i_epik_Tot_abs_Q>
0

> <r_epik_Metal_State_Penalty>
-0

> <b_epik_Metal_Only>
0

> <s_lp_Force_Field>
OPLS_2005

> <r_lp_Energy>
22.4021

> <b_lp_Chiralities_Consistent>
1

> <s_lp_Variant>
AV-unprocessed.smi:1271-1

> <Gold.Version>
5.8.1

> <Gold.Id.Protein>
6NUR|6NUR_protein|mol2

> <Gold.PLP.Fitness>
43.7561

> <Gold.PLP.PLP>
-40.9553

> <Gold.PLP.part.hbond>
0.0000

> <Gold.PLP.part.metal>
0.0000

> <Gold.PLP.part.buried>
-1.6420

> <Gold.PLP.part.nonpolar>
-38.6361

> <Gold.PLP.part.repulsive>
0.2061

> <Gold.PLP.ligand.clash>
0.0000

> <Gold.PLP.ligand.torsion>
0.1476

> <Gold.PLP.Chemscore.Hbond>
0.0000

> <Gold.PLP.Chemscore.CHOScore>
1.0000

> <Gold.PLP.Chemscore.Metal>
0.0000

> <Gold.Chemscore.Hbonds>
donor molecule, donor type, donor heavy atom, donor atom, acceptor molecule, acceptor atom, score
      L1  C     7    26       P1  7948  1.00

> <Gold.PLP.Chemscore.Internal.Correction>
0.0959

> <Gold.Rescore>
     Score         DG    S(hbond)    S(metal)    S(lipo)     H(rot)  DE(clash)    DE(int)     intcor
     11.83     -13.74       0.00        0.00     101.39       1.41       0.23       1.69       ----

> <Gold.Chemscore.Fitness>
11.8269

> <Gold.Chemscore.DG>
-13.7413

> <Gold.Chemscore.ZeroCoef>
-5.4800

> <Gold.Chemscore.Hbond>
0.0000

> <Gold.Chemscore.Metal>
0.0000

> <Gold.Chemscore.Lipo>
101.3934

> <Gold.Chemscore.Internal_Hbond>
0.0000

> <Gold.Chemscore.DEClash>
0.2284

> <Gold.Chemscore.DEInternal>
1.6860

> <Gold.Chemscore.Rot>
1.4069

> <Gold.Chemscore.Internal.Correction>
   9.000000E+99

> <Gold.Chemscore.Hbond.Weighted>
-0.0000

> <Gold.Chemscore.Metal.Weighted>
-0.0000

> <Gold.Chemscore.Lipo.Weighted>
-11.8630

> <Gold.Chemscore.Internal_Hbond.Weighted>
0.0000

> <Gold.Chemscore.DEClash.Weighted>
0.2284

> <Gold.Chemscore.DEInternal.Weighted>
1.6860

> <Gold.Chemscore.Rot.Weighted>
3.6017

> <Gold.Chemscore.Internal.Correction.Weighted>
   9.000000E+99

> <Gold.Protein.RotatedTorsions>
[ 6907 6896 6895 6894 ] final -179.03 input  -60.11 | X-H torsion
[ 7974 7965 7964 7962 ] final  -77.88 input  175.53 | X-H torsion
[ 8008 7997 7996 7995 ] final -154.28 input   59.86 | X-H torsion
[ 10167 10162 10161 10158 ] final  -82.57 input  -65.29 | X-H torsion
[ 10718 10713 10712 10709 ] final -179.22 input   66.30 | X-H torsion
[ 10763 10752 10751 10750 ] final    2.73 input  -60.55 | X-H torsion
[ 11005 11000 10999 10996 ] final  -26.75 input  -57.11 | X-H torsion

> <Gold.Protein.ActiveResidues>
 VAL166  LYS551  ARG553  GLY616  TRP617  ASP618  TYR619  PRO620  LYS621  CYS622 
 ASP623  PHE694  ASN695  SER759  ASP760  ASP761  ALA762  ILE779  LEU786  VAL792 
 PHE793  MET794  SER795  GLU796  ALA797  LYS798  CYS799  TRP800  GLU811  SER814 

> <Gold.Protein.RotatedAtoms>
  151.6469  133.3323  159.3142 H   0  0  0  0  0  0  0  0  0  0  0  0  # atno 6907 bound_to 6896
  150.7980  134.7057  159.6584 H   0  0  0  0  0  0  0  0  0  0  0  0  # atno 6908 bound_to 6896
  152.4069  134.6196  160.0098 H   0  0  0  0  0  0  0  0  0  0  0  0  # atno 6909 bound_to 6896
  145.5939  140.9423  143.1277 H   0  0  0  0  0  0  0  0  0  0  0  0  # atno 7974 bound_to 7965
  155.6840  140.0747  157.2474 H   0  0  0  0  0  0  0  0  0  0  0  0  # atno 8008 bound_to 7997
  154.4100  140.1677  156.2065 H   0  0  0  0  0  0  0  0  0  0  0  0  # atno 8009 bound_to 7997
  155.9510  140.3377  155.6411 H   0  0  0  0  0  0  0  0  0  0  0  0  # atno 8010 bound_to 7997
  140.4307  143.2549  151.8763 H   0  0  0  0  0  0  0  0  0  0  0  0  # atno 10167 bound_to 10162
  156.8558  130.9735  151.3088 H   0  0  0  0  0  0  0  0  0  0  0  0  # atno 10718 bound_to 10713
  153.2920  135.6949  153.7284 H   0  0  0  0  0  0  0  0  0  0  0  0  # atno 10763 bound_to 10752
  153.6232  135.3423  155.3018 H   0  0  0  0  0  0  0  0  0  0  0  0  # atno 10764 bound_to 10752
  154.8526  135.4391  154.2005 H   0  0  0  0  0  0  0  0  0  0  0  0  # atno 10765 bound_to 10752
  140.9057  133.7494  156.0603 H   0  0  0  0  0  0  0  0  0  0  0  0  # atno 11005 bound_to 11000
  144.7339  139.7643  143.7337 LP  0  0  0  0  0  0  0  0  0  0  0  0  # atno 17320 bound_to 7965
  146.1626  139.4746  142.9978 LP  0  0  0  0  0  0  0  0  0  0  0  0  # atno 17321 bound_to 7965
  139.4785  144.5337  151.8629 LP  0  0  0  0  0  0  0  0  0  0  0  0  # atno 17342 bound_to 10162
  140.4430  144.1960  150.5892 LP  0  0  0  0  0  0  0  0  0  0  0  0  # atno 17343 bound_to 10162
  157.6278  130.8705  149.9219 LP  0  0  0  0  0  0  0  0  0  0  0  0  # atno 17370 bound_to 10713
  156.0803  130.3674  150.0594 LP  0  0  0  0  0  0  0  0  0  0  0  0  # atno 17371 bound_to 10713
  140.8174  134.3329  157.5393 LP  0  0  0  0  0  0  0  0  0  0  0  0  # atno 17394 bound_to 11000
  139.8749  134.9289  156.3463 LP  0  0  0  0  0  0  0  0  0  0  0  0  # atno 17395 bound_to 11000

$$$$
