AV-unprocessed.smi:3284|AV-procd|sdf|12575|dock9
  -GOLD-   2272018493D 1   1.00000     0.00000
 Structure written by MMmdl.
 44 45  0  0  0  0  0  0  0  0  2 V2000
  153.9843  141.2134  161.5637 C   0  0  0  0  0  0  0  0  0  0  0  0
  153.1395  142.3980  161.1270 C   0  0  0  0  0  0  0  0  0  0  0  0
  152.8518  143.4038  161.9763 C   0  0  0  0  0  0  0  0  0  0  0  0
  152.0531  144.6418  161.6108 C   0  0  0  0  0  0  0  0  0  0  0  0
  151.4180  144.5567  160.2135 C   0  0  0  0  0  0  0  0  0  0  0  0
  152.3490  143.8513  159.2108 C   0  0  2  0  0  0  0  0  0  0  0  0
  151.8393  143.9851  157.7661 C   0  0  0  0  0  0  0  0  0  0  0  0
  152.6772  142.3970  159.6678 C   0  0  2  0  0  0  0  0  0  0  0  0
  151.5213  141.3806  159.4816 C   0  0  0  0  0  0  0  0  0  0  0  0
  151.6164  140.6467  158.2045 N   0  3  0  0  0  0  0  0  0  0  0  0
  150.4532  140.8260  157.3124 C   0  0  0  0  0  0  0  0  0  0  0  0
  150.8886  141.0804  155.8613 C   0  0  0  0  0  0  0  0  0  0  0  0
  151.4604  139.8642  155.1960 C   0  0  0  0  0  0  0  0  0  0  0  0
  152.7601  139.5842  155.1664 N   0  0  0  0  0  0  0  0  0  0  0  0
  152.8479  138.3752  154.4844 C   0  0  0  0  0  0  0  0  0  0  0  0
  151.5869  137.9597  154.1308 C   0  0  0  0  0  0  0  0  0  0  0  0
  150.7036  138.9237  154.5984 N   0  0  0  0  0  0  0  0  0  0  0  0
  149.2607  138.8956  154.4573 C   0  0  0  0  0  0  0  0  0  0  0  0
  154.8708  141.1296  160.9346 H   0  0  0  0  0  0  0  0  0  0  0  0
  153.4263  140.2803  161.4955 H   0  0  0  0  0  0  0  0  0  0  0  0
  154.3179  141.3244  162.5960 H   0  0  0  0  0  0  0  0  0  0  0  0
  153.2230  143.3696  162.9904 H   0  0  0  0  0  0  0  0  0  0  0  0
  151.2829  144.8131  162.3634 H   0  0  0  0  0  0  0  0  0  0  0  0
  152.7319  145.4939  161.6553 H   0  0  0  0  0  0  0  0  0  0  0  0
  150.4681  144.0258  160.2745 H   0  0  0  0  0  0  0  0  0  0  0  0
  151.1762  145.5628  159.8684 H   0  0  0  0  0  0  0  0  0  0  0  0
  153.2944  144.3964  159.2324 H   0  0  0  0  0  0  0  0  0  0  0  0
  150.8277  143.5947  157.6548 H   0  0  0  0  0  0  0  0  0  0  0  0
  152.4900  143.4599  157.0665 H   0  0  0  0  0  0  0  0  0  0  0  0
  151.8130  145.0319  157.4617 H   0  0  0  0  0  0  0  0  0  0  0  0
  153.5281  142.0544  159.0766 H   0  0  0  0  0  0  0  0  0  0  0  0
  151.5352  140.6333  160.2741 H   0  0  0  0  0  0  0  0  0  0  0  0
  150.5545  141.8791  159.5502 H   0  0  0  0  0  0  0  0  0  0  0  0
  152.4430  140.9617  157.7171 H   0  0  0  0  0  0  0  0  0  0  0  0
  149.8142  139.9432  157.3618 H   0  0  0  0  0  0  0  0  0  0  0  0
  149.8624  141.6704  157.6695 H   0  0  0  0  0  0  0  0  0  0  0  0
  150.0422  141.4487  155.2815 H   0  0  0  0  0  0  0  0  0  0  0  0
  151.6358  141.8748  155.8331 H   0  0  0  0  0  0  0  0  0  0  0  0
  153.8017  137.9014  154.3042 H   0  0  0  0  0  0  0  0  0  0  0  0
  151.2545  137.0794  153.6001 H   0  0  0  0  0  0  0  0  0  0  0  0
  148.9469  137.9654  153.9825 H   0  0  0  0  0  0  0  0  0  0  0  0
  148.9340  139.7325  153.8393 H   0  0  0  0  0  0  0  0  0  0  0  0
  148.7904  138.9662  155.4385 H   0  0  0  0  0  0  0  0  0  0  0  0
  151.7196  139.6616  158.4051 H   0  0  0  0  0  0  0  0  0  0  0  0
  1  2  1  0  0  0  0
  1 19  1  0  0  0  0
  1 20  1  0  0  0  0
  1 21  1  0  0  0  0
  2  8  1  0  0  0  0
  2  3  2  0  0  0  0
  3  4  1  0  0  0  0
  3 22  1  0  0  0  0
  4  5  1  0  0  0  0
  4 23  1  0  0  0  0
  4 24  1  0  0  0  0
  5  6  1  0  0  0  0
  5 25  1  0  0  0  0
  5 26  1  0  0  0  0
  6  7  1  0  0  0  0
  6  8  1  0  0  0  0
  6 27  1  0  0  0  0
  7 28  1  0  0  0  0
  7 29  1  0  0  0  0
  7 30  1  0  0  0  0
  8  9  1  0  0  0  0
  8 31  1  0  0  0  0
  9 10  1  0  0  0  0
  9 32  1  0  0  0  0
  9 33  1  0  0  0  0
 10 11  1  0  0  0  0
 10 34  1  0  0  0  0
 10 44  1  0  0  0  0
 11 12  1  0  0  0  0
 11 35  1  0  0  0  0
 11 36  1  0  0  0  0
 12 13  1  0  0  0  0
 12 37  1  0  0  0  0
 12 38  1  0  0  0  0
 13 17  1  0  0  0  0
 13 14  2  0  0  0  0
 14 15  1  0  0  0  0
 15 16  2  0  0  0  0
 15 39  1  0  0  0  0
 16 17  1  0  0  0  0
 16 40  1  0  0  0  0
 17 18  1  0  0  0  0
 18 41  1  0  0  0  0
 18 42  1  0  0  0  0
 18 43  1  0  0  0  0
M  CHG  1  10   1
M  END
> <s_m_source_file>
AV-unprocessed.smi

> <i_m_source_file_index>
3284

> <i_lp_mmshare_version>
43012

> <i_f3d_flags>
0

> <s_epik_input>
W0NIM11DMT1bQ0hdW0NIMl1bQ0gyXVtDQEBIXShbQ0gzXSlbQ0BIXTFbQ0gyXVtOSF1bQ0gyXVtDSDJdYzJuW2NIXVtjSF1uMltDSDNd

> <s_epik_cmdline>
J2VwaWtfcHl0aG9uJywgJy1waCcsICc3LjAnLCAnLXRuJywgJzgnLCAnLW1hJywgJzIwMCcsICctbWV0YWxfYmluZGluZycsICctaW1hZScsICc8aW5maWxlLm1hZT4nLCAnLW9tYWUnLCAnPG91dGZpbGUubWFlPic=

> <r_lp_tautomer_probability>
1

> <r_epik_Ionization_Penalty>
0.150779

> <r_epik_Ionization_Penalty_Charging>
0.150779

> <r_epik_Ionization_Penalty_Neutral>
1.39452e-13

> <r_epik_State_Penalty>
0.349447

> <r_epik_Charging_Adjusted_Penalty>
0.500226

> <i_epik_Tot_Q>
1

> <i_epik_Tot_abs_Q>
1

> <r_epik_Metal_State_Penalty>
0.000470967

> <b_epik_Metal_Only>
0

> <s_lp_Force_Field>
OPLS_2005

> <r_lp_Energy>
16.0755

> <b_lp_Chiralities_Consistent>
1

> <s_lp_Variant>
AV-unprocessed.smi:3284-4

> <Gold.Version>
5.8.1

> <Gold.Id.Protein>
6NUR|6NUR_protein|mol2

> <Gold.PLP.Fitness>
51.6922

> <Gold.PLP.PLP>
-48.8231

> <Gold.PLP.part.hbond>
-1.8820

> <Gold.PLP.part.metal>
0.0000

> <Gold.PLP.part.buried>
-1.0745

> <Gold.PLP.part.nonpolar>
-46.0646

> <Gold.PLP.part.repulsive>
0.1025

> <Gold.PLP.ligand.clash>
0.0000

> <Gold.PLP.ligand.torsion>
1.5813

> <Gold.PLP.Chemscore.Hbond>
1.0000

> <Gold.PLP.Chemscore.CHOScore>
1.0000

> <Gold.PLP.Chemscore.Metal>
0.0000

> <Gold.Chemscore.Hbonds>
donor molecule, donor type, donor heavy atom, donor atom, acceptor molecule, acceptor atom, score
      P1  H  7997  8009       L1    14  1.00
      L1  C    16    40       P1  7949  1.00

> <Gold.PLP.Chemscore.Internal.Correction>
0.0318

> <Gold.Rescore>
     Score         DG    S(hbond)    S(metal)    S(lipo)     H(rot)  DE(clash)    DE(int)     intcor
     18.23     -20.69       0.98        0.00     137.27       1.61       0.87       1.60       ----

> <Gold.Chemscore.Fitness>
18.2252

> <Gold.Chemscore.DG>
-20.6877

> <Gold.Chemscore.ZeroCoef>
-5.4800

> <Gold.Chemscore.Hbond>
0.9792

> <Gold.Chemscore.Metal>
0.0000

> <Gold.Chemscore.Lipo>
137.2661

> <Gold.Chemscore.Internal_Hbond>
0.0000

> <Gold.Chemscore.DEClash>
0.8652

> <Gold.Chemscore.DEInternal>
1.5972

> <Gold.Chemscore.Rot>
1.6105

> <Gold.Chemscore.Internal.Correction>
   9.000000E+99

> <Gold.Chemscore.Hbonds>
donor molecule, donor type, donor heavy atom, donor atom, acceptor molecule, acceptor atom, score
      P1  H  7997  8009       L1    14  0.92

> <Gold.Chemscore.Hbond.Weighted>
-3.2705

> <Gold.Chemscore.Metal.Weighted>
-0.0000

> <Gold.Chemscore.Lipo.Weighted>
-16.0601

> <Gold.Chemscore.Internal_Hbond.Weighted>
0.0000

> <Gold.Chemscore.DEClash.Weighted>
0.8652

> <Gold.Chemscore.DEInternal.Weighted>
1.5972

> <Gold.Chemscore.Rot.Weighted>
4.1230

> <Gold.Chemscore.Internal.Correction.Weighted>
   9.000000E+99

> <Gold.Protein.RotatedTorsions>
[ 6907 6896 6895 6894 ] final -130.85 input  -60.11 | X-H torsion
[ 7974 7965 7964 7962 ] final   25.59 input  175.53 | X-H torsion
[ 8008 7997 7996 7995 ] final -151.39 input   59.86 | X-H torsion
[ 10167 10162 10161 10158 ] final   34.22 input  -65.29 | X-H torsion
[ 10718 10713 10712 10709 ] final  -22.95 input   66.30 | X-H torsion
[ 10763 10752 10751 10750 ] final  -76.94 input  -60.55 | X-H torsion
[ 11005 11000 10999 10996 ] final  144.74 input  -57.11 | X-H torsion

> <Gold.Protein.ActiveResidues>
 VAL166  LYS551  ARG553  GLY616  TRP617  ASP618  TYR619  PRO620  LYS621  CYS622 
 ASP623  PHE694  ASN695  SER759  ASP760  ASP761  ALA762  ILE779  LEU786  VAL792 
 PHE793  MET794  SER795  GLU796  ALA797  LYS798  CYS799  TRP800  GLU811  SER814 

> <Gold.Protein.RotatedAtoms>
  150.9444  133.6620  159.2784 H   0  0  0  0  0  0  0  0  0  0  0  0  # atno 6907 bound_to 6896
  151.3998  135.0968  159.9562 H   0  0  0  0  0  0  0  0  0  0  0  0  # atno 6908 bound_to 6896
  152.5083  133.8940  159.7463 H   0  0  0  0  0  0  0  0  0  0  0  0  # atno 6909 bound_to 6896
  146.1881  139.7445  142.8852 H   0  0  0  0  0  0  0  0  0  0  0  0  # atno 7974 bound_to 7965
  155.6386  140.0699  157.2626 H   0  0  0  0  0  0  0  0  0  0  0  0  # atno 8008 bound_to 7997
  154.4189  140.1754  156.1598 H   0  0  0  0  0  0  0  0  0  0  0  0  # atno 8009 bound_to 7997
  155.9874  140.3348  155.6724 H   0  0  0  0  0  0  0  0  0  0  0  0  # atno 8010 bound_to 7997
  140.4335  144.1291  150.6163 H   0  0  0  0  0  0  0  0  0  0  0  0  # atno 10167 bound_to 10162
  156.4976  130.4580  149.6720 H   0  0  0  0  0  0  0  0  0  0  0  0  # atno 10718 bound_to 10713
  154.5064  135.5781  153.6571 H   0  0  0  0  0  0  0  0  0  0  0  0  # atno 10763 bound_to 10752
  152.9888  135.6148  154.2935 H   0  0  0  0  0  0  0  0  0  0  0  0  # atno 10764 bound_to 10752
  154.2847  135.2850  155.2661 H   0  0  0  0  0  0  0  0  0  0  0  0  # atno 10765 bound_to 10752
  140.0656  134.9180  157.1259 H   0  0  0  0  0  0  0  0  0  0  0  0  # atno 11005 bound_to 11000
  145.3878  141.0368  143.3141 LP  0  0  0  0  0  0  0  0  0  0  0  0  # atno 17320 bound_to 7965
  144.8434  139.5435  143.6890 LP  0  0  0  0  0  0  0  0  0  0  0  0  # atno 17321 bound_to 7965
  140.4400  143.2530  151.9485 LP  0  0  0  0  0  0  0  0  0  0  0  0  # atno 17342 bound_to 10162
  139.4786  144.5663  151.8160 LP  0  0  0  0  0  0  0  0  0  0  0  0  # atno 17343 bound_to 10162
  156.3365  130.7359  151.2297 LP  0  0  0  0  0  0  0  0  0  0  0  0  # atno 17370 bound_to 10713
  157.7467  131.0415  150.4651 LP  0  0  0  0  0  0  0  0  0  0  0  0  # atno 17371 bound_to 10713
  140.3704  134.2396  155.7178 LP  0  0  0  0  0  0  0  0  0  0  0  0  # atno 17394 bound_to 11000
  141.1991  133.8019  157.0551 LP  0  0  0  0  0  0  0  0  0  0  0  0  # atno 17395 bound_to 11000

$$$$
