AV-unprocessed.smi:2094|AV-procd|sdf|8553|dock10
  -GOLD-   2272011273D 1   1.00000     0.00000
 Structure written by MMmdl.
 35 36  0  0  0  0  0  0  0  0  3 V2000
  146.6259  134.8150  158.4516 O   0  0  0  0  0  0  0  0  0  0  0  0
  146.6927  136.0441  158.3754 C   0  0  0  0  0  0  0  0  0  0  0  0
  146.3756  136.6578  157.2279 N   0  0  0  0  0  0  0  0  0  0  0  0
  145.9472  135.9830  156.0110 C   0  0  0  0  0  0  0  0  0  0  0  0
  146.7636  136.4784  154.8075 C   0  0  0  0  0  0  0  0  0  0  0  0
  147.6707  135.4313  154.2743 N   0  3  0  0  0  0  0  0  0  0  0  0
  146.9276  134.2474  153.7686 C   0  0  0  0  0  0  0  0  0  0  0  0
  147.8750  133.2406  153.0938 C   0  0  0  0  0  0  0  0  0  0  0  0
  148.9949  132.8118  154.0509 C   0  0  0  0  0  0  0  0  0  0  0  0
  149.7261  134.0491  154.5874 C   0  0  0  0  0  0  0  0  0  0  0  0
  148.7392  135.0373  155.2319 C   0  0  0  0  0  0  0  0  0  0  0  0
  147.0661  136.8919  159.3598 N   0  5  0  0  0  0  0  0  0  0  0  0
  147.1497  136.4536  160.6266 C   0  0  0  0  0  0  0  0  0  0  0  0
  147.7282  137.1588  161.6054 N   0  0  0  0  0  0  0  0  0  0  0  0
  147.6998  136.5159  162.8443 C   0  0  0  0  0  0  0  0  0  0  0  0
  147.0772  135.2965  162.8097 C   0  0  0  0  0  0  0  0  0  0  0  0
  146.5048  134.9169  161.2103 S   0  0  0  0  0  0  0  0  0  0  0  0
  146.4429  137.6647  157.2034 H   0  0  0  0  0  0  0  0  0  0  0  0
  146.0744  134.9059  156.1314 H   0  0  0  0  0  0  0  0  0  0  0  0
  144.8829  136.1702  155.8690 H   0  0  0  0  0  0  0  0  0  0  0  0
  146.1080  136.8416  154.0143 H   0  0  0  0  0  0  0  0  0  0  0  0
  147.3558  137.3350  155.1341 H   0  0  0  0  0  0  0  0  0  0  0  0
  146.3953  133.7709  154.5934 H   0  0  0  0  0  0  0  0  0  0  0  0
  146.1746  134.5649  153.0461 H   0  0  0  0  0  0  0  0  0  0  0  0
  147.3149  132.3662  152.7609 H   0  0  0  0  0  0  0  0  0  0  0  0
  148.3091  133.6892  152.1992 H   0  0  0  0  0  0  0  0  0  0  0  0
  148.5743  132.2426  154.8810 H   0  0  0  0  0  0  0  0  0  0  0  0
  149.6956  132.1501  153.5406 H   0  0  0  0  0  0  0  0  0  0  0  0
  150.4815  133.7489  155.3142 H   0  0  0  0  0  0  0  0  0  0  0  0
  150.2592  134.5424  153.7736 H   0  0  0  0  0  0  0  0  0  0  0  0
  149.2912  135.9139  155.5685 H   0  0  0  0  0  0  0  0  0  0  0  0
  148.2871  134.5901  156.1189 H   0  0  0  0  0  0  0  0  0  0  0  0
  148.1470  137.0008  163.6991 H   0  0  0  0  0  0  0  0  0  0  0  0
  146.9205  134.6025  163.6213 H   0  0  0  0  0  0  0  0  0  0  0  0
  148.1296  135.8381  153.4717 H   0  0  0  0  0  0  0  0  0  0  0  0
  1  2  2  0  0  0  0
  2  3  1  0  0  0  0
  2 12  1  0  0  0  0
  3  4  1  0  0  0  0
  3 18  1  0  0  0  0
  4  5  1  0  0  0  0
  4 19  1  0  0  0  0
  4 20  1  0  0  0  0
  5  6  1  0  0  0  0
  5 21  1  0  0  0  0
  5 22  1  0  0  0  0
  6 11  1  0  0  0  0
  6  7  1  0  0  0  0
  6 35  1  0  0  0  0
  7  8  1  0  0  0  0
  7 23  1  0  0  0  0
  7 24  1  0  0  0  0
  8  9  1  0  0  0  0
  8 25  1  0  0  0  0
  8 26  1  0  0  0  0
  9 10  1  0  0  0  0
  9 27  1  0  0  0  0
  9 28  1  0  0  0  0
 10 11  1  0  0  0  0
 10 29  1  0  0  0  0
 10 30  1  0  0  0  0
 11 31  1  0  0  0  0
 11 32  1  0  0  0  0
 12 13  1  0  0  0  0
 13 17  1  0  0  0  0
 13 14  2  0  0  0  0
 14 15  1  0  0  0  0
 15 16  2  0  0  0  0
 15 33  1  0  0  0  0
 16 17  1  0  0  0  0
 16 34  1  0  0  0  0
M  CHG  1   6   1
M  CHG  1  12  -1
M  END
> <s_m_source_file>
AV-unprocessed.smi

> <i_m_source_file_index>
2094

> <i_lp_mmshare_version>
43012

> <i_f3d_flags>
0

> <s_epik_input>
czFbY0hdW2NIXW5jMVtOSF1DKD1PKVtOSF1bQ0gyXVtDSDJdTjJbQ0gyXVtDSDJdW0NIMl1bQ0gyXVtDSDJdMg==

> <s_epik_cmdline>
J2VwaWtfcHl0aG9uJywgJy1waCcsICc3LjAnLCAnLXRuJywgJzgnLCAnLW1hJywgJzIwMCcsICctbWV0YWxfYmluZGluZycsICctaW1hZScsICc8aW5maWxlLm1hZT4nLCAnLW9tYWUnLCAnPG91dGZpbGUubWFlPic=

> <r_lp_tautomer_probability>
0.999

> <r_epik_Ionization_Penalty>
6.21931

> <r_epik_Ionization_Penalty_Charging>
5.38824

> <r_epik_Ionization_Penalty_Neutral>
0.831074

> <r_epik_State_Penalty>
5.38819

> <r_epik_Charging_Adjusted_Penalty>
10.7764

> <i_epik_Tot_Q>
0

> <i_epik_Tot_abs_Q>
2

> <r_epik_Metal_State_Penalty>
1.41404

> <b_epik_Metal_Only>
1

> <s_lp_Force_Field>
OPLS_2005

> <r_lp_Energy>
7.37815

> <b_lp_Chiralities_Consistent>
1

> <s_lp_Variant>
AV-unprocessed.smi:2094-2

> <Gold.Version>
5.8.1

> <Gold.Id.Protein>
6NUR|6NUR_protein|mol2

> <Gold.PLP.Fitness>
37.1567

> <Gold.PLP.PLP>
-27.1695

> <Gold.PLP.part.hbond>
-3.0000

> <Gold.PLP.part.metal>
0.0000

> <Gold.PLP.part.buried>
-1.2736

> <Gold.PLP.part.nonpolar>
-20.7903

> <Gold.PLP.part.repulsive>
0.0000

> <Gold.PLP.ligand.clash>
0.0000

> <Gold.PLP.ligand.torsion>
0.4865

> <Gold.PLP.Chemscore.Hbond>
3.6360

> <Gold.PLP.Chemscore.CHOScore>
0.0000

> <Gold.PLP.Chemscore.Metal>
0.0000

> <Gold.Chemscore.Hbonds>
donor molecule, donor type, donor heavy atom, donor atom, acceptor molecule, acceptor atom, score
      L1  H     6    35       P1  7948  2.00
      P1  H  6931  6943       L1    14  0.95
      P1  H  6934  6947       L1    14  0.64

> <Gold.PLP.Chemscore.Internal.Correction>
0.0521

> <Gold.Rescore>
     Score         DG    S(hbond)    S(metal)    S(lipo)     H(rot)  DE(clash)    DE(int)     intcor
     12.29     -14.24       1.96        0.00      53.46       1.58       0.01       1.94       ----

> <Gold.Chemscore.Fitness>
12.2872

> <Gold.Chemscore.DG>
-14.2369

> <Gold.Chemscore.ZeroCoef>
-5.4800

> <Gold.Chemscore.Hbond>
1.9609

> <Gold.Chemscore.Metal>
0.0000

> <Gold.Chemscore.Lipo>
53.4636

> <Gold.Chemscore.Internal_Hbond>
0.0000

> <Gold.Chemscore.DEClash>
0.0073

> <Gold.Chemscore.DEInternal>
1.9424

> <Gold.Chemscore.Rot>
1.5812

> <Gold.Chemscore.Internal.Correction>
   9.000000E+99

> <Gold.Chemscore.Hbonds>
donor molecule, donor type, donor heavy atom, donor atom, acceptor molecule, acceptor atom, score
      L1  H     6    35       P1  7948  1.00
      P1  H  6931  6943       L1    14  0.21
      P1  H  6934  6947       L1    14  0.12

> <Gold.Chemscore.Hbond.Weighted>
-6.5495

> <Gold.Chemscore.Metal.Weighted>
-0.0000

> <Gold.Chemscore.Lipo.Weighted>
-6.2552

> <Gold.Chemscore.Internal_Hbond.Weighted>
0.0000

> <Gold.Chemscore.DEClash.Weighted>
0.0073

> <Gold.Chemscore.DEInternal.Weighted>
1.9424

> <Gold.Chemscore.Rot.Weighted>
4.0478

> <Gold.Chemscore.Internal.Correction.Weighted>
   9.000000E+99

> <Gold.Protein.RotatedTorsions>
[ 6907 6896 6895 6894 ] final  -52.09 input  -60.11 | X-H torsion
[ 7974 7965 7964 7962 ] final  -86.03 input  175.53 | X-H torsion
[ 8008 7997 7996 7995 ] final   22.44 input   59.86 | X-H torsion
[ 10167 10162 10161 10158 ] final  174.10 input  -65.29 | X-H torsion
[ 10718 10713 10712 10709 ] final   67.90 input   66.30 | X-H torsion
[ 10763 10752 10751 10750 ] final -101.50 input  -60.55 | X-H torsion
[ 11005 11000 10999 10996 ] final   52.64 input  -57.11 | X-H torsion

> <Gold.Protein.ActiveResidues>
 VAL166  LYS551  ARG553  GLY616  TRP617  ASP618  TYR619  PRO620  LYS621  CYS622 
 ASP623  PHE694  ASN695  SER759  ASP760  ASP761  ALA762  ILE779  LEU786  VAL792 
 PHE793  MET794  SER795  GLU796  ALA797  LYS798  CYS799  TRP800  GLU811  SER814 

> <Gold.Protein.RotatedAtoms>
  150.8550  134.7886  159.7038 H   0  0  0  0  0  0  0  0  0  0  0  0  # atno 6907 bound_to 6896
  152.4604  134.5193  159.9787 H   0  0  0  0  0  0  0  0  0  0  0  0  # atno 6908 bound_to 6896
  151.5308  133.3411  159.2953 H   0  0  0  0  0  0  0  0  0  0  0  0  # atno 6909 bound_to 6896
  145.4853  140.9555  143.1841 H   0  0  0  0  0  0  0  0  0  0  0  0  # atno 7974 bound_to 7965
  154.9657  140.3084  155.5010 H   0  0  0  0  0  0  0  0  0  0  0  0  # atno 8008 bound_to 7997
  156.2972  140.2293  156.4685 H   0  0  0  0  0  0  0  0  0  0  0  0  # atno 8009 bound_to 7997
  154.7923  140.0439  157.1199 H   0  0  0  0  0  0  0  0  0  0  0  0  # atno 8010 bound_to 7997
  139.5130  144.3185  152.0225 H   0  0  0  0  0  0  0  0  0  0  0  0  # atno 10167 bound_to 10162
  157.6258  130.9345  150.0305 H   0  0  0  0  0  0  0  0  0  0  0  0  # atno 10718 bound_to 10713
  154.7662  135.4895  153.9559 H   0  0  0  0  0  0  0  0  0  0  0  0  # atno 10763 bound_to 10752
  153.1311  135.6753  153.9185 H   0  0  0  0  0  0  0  0  0  0  0  0  # atno 10764 bound_to 10752
  153.8888  135.3123  155.3425 H   0  0  0  0  0  0  0  0  0  0  0  0  # atno 10765 bound_to 10752
  140.0833  134.5309  155.8925 H   0  0  0  0  0  0  0  0  0  0  0  0  # atno 11005 bound_to 11000
  144.7865  139.6417  143.7132 LP  0  0  0  0  0  0  0  0  0  0  0  0  # atno 17320 bound_to 7965
  146.2316  139.5825  142.9551 LP  0  0  0  0  0  0  0  0  0  0  0  0  # atno 17321 bound_to 7965
  140.2627  144.4049  150.6179 LP  0  0  0  0  0  0  0  0  0  0  0  0  # atno 17342 bound_to 10162
  140.6145  143.2171  151.6819 LP  0  0  0  0  0  0  0  0  0  0  0  0  # atno 17343 bound_to 10162
  156.1429  130.3642  149.9555 LP  0  0  0  0  0  0  0  0  0  0  0  0  # atno 17370 bound_to 10713
  156.7591  130.9144  151.3640 LP  0  0  0  0  0  0  0  0  0  0  0  0  # atno 17371 bound_to 10713
  141.2054  133.6646  156.6178 LP  0  0  0  0  0  0  0  0  0  0  0  0  # atno 17394 bound_to 11000
  140.3457  134.7811  157.4430 LP  0  0  0  0  0  0  0  0  0  0  0  0  # atno 17395 bound_to 11000

$$$$
