AV-unprocessed.smi:1412|AV-procd|sdf|5741|dock1
  -GOLD-   22720 5373D 1   1.00000     0.00000
 Structure written by MMmdl.
 41 42  0  0  0  0  0  0  0  0  1 V2000
  145.3209  141.8877  155.0240 C   0  0  0  0  0  0  0  0  0  0  0  0
  146.5965  141.2365  155.5874 C   0  0  0  0  0  0  0  0  0  0  0  0
  147.2701  140.1710  154.6625 C   0  0  2  0  0  0  0  0  0  0  0  0
  147.1276  140.6893  153.2070 C   0  0  0  0  0  0  0  0  0  0  0  0
  146.4670  138.8315  154.7823 C   0  0  0  0  0  0  0  0  0  0  0  0
  145.0934  138.8916  154.2789 N   0  0  0  0  0  0  0  0  0  0  0  0
  144.1375  137.9740  154.4876 C   0  0  0  0  0  0  0  0  0  0  0  0
  144.3113  136.9468  155.1439 O   0  0  0  0  0  0  0  0  0  0  0  0
  142.9882  138.3254  153.8843 N   0  0  0  0  0  0  0  0  0  0  0  0
  141.7564  137.6190  153.8570 C   0  0  0  0  0  0  0  0  0  0  0  0
  141.5469  136.4621  154.5048 N   0  0  0  0  0  0  0  0  0  0  0  0
  140.2578  135.9832  154.3096 N   0  0  0  0  0  0  0  0  0  0  0  0
  139.5467  136.7963  153.5232 C   0  0  0  0  0  0  0  0  0  0  0  0
  140.3821  138.2279  152.9454 S   0  0  0  0  0  0  0  0  0  0  0  0
  148.6998  139.9551  155.0416 N   0  0  0  0  0  0  0  0  0  0  0  0
  149.4864  141.1795  155.2504 C   0  0  0  0  0  0  0  0  0  0  0  0
  150.9067  140.8817  155.7595 C   0  0  0  0  0  0  0  0  0  0  0  0
  151.5715  140.0201  154.8451 O   0  0  0  0  0  0  0  0  0  0  0  0
  150.8792  138.7916  154.6645 C   0  0  0  0  0  0  0  0  0  0  0  0
  149.4559  139.0657  154.1489 C   0  0  0  0  0  0  0  0  0  0  0  0
  144.8999  142.5885  155.7448 H   0  0  0  0  0  0  0  0  0  0  0  0
  144.5528  141.1463  154.8037 H   0  0  0  0  0  0  0  0  0  0  0  0
  145.5210  142.4457  154.1097 H   0  0  0  0  0  0  0  0  0  0  0  0
  147.3026  142.0312  155.8288 H   0  0  0  0  0  0  0  0  0  0  0  0
  146.3683  140.8057  156.5615 H   0  0  0  0  0  0  0  0  0  0  0  0
  146.0883  140.9000  152.9556 H   0  0  0  0  0  0  0  0  0  0  0  0
  147.4853  139.9632  152.4771 H   0  0  0  0  0  0  0  0  0  0  0  0
  147.6703  141.6193  153.0426 H   0  0  0  0  0  0  0  0  0  0  0  0
  146.9832  138.0199  154.2694 H   0  0  0  0  0  0  0  0  0  0  0  0
  146.4124  138.5234  155.8269 H   0  0  0  0  0  0  0  0  0  0  0  0
  144.8572  139.7005  153.7230 H   0  0  0  0  0  0  0  0  0  0  0  0
  142.9959  139.1999  153.3804 H   0  0  0  0  0  0  0  0  0  0  0  0
  138.5228  136.5514  153.2824 H   0  0  0  0  0  0  0  0  0  0  0  0
  149.5630  141.7444  154.3215 H   0  0  0  0  0  0  0  0  0  0  0  0
  149.0130  141.8316  155.9810 H   0  0  0  0  0  0  0  0  0  0  0  0
  151.4760  141.8066  155.8540 H   0  0  0  0  0  0  0  0  0  0  0  0
  150.8752  140.4226  156.7489 H   0  0  0  0  0  0  0  0  0  0  0  0
  151.4282  138.1759  153.9519 H   0  0  0  0  0  0  0  0  0  0  0  0
  150.8489  138.2409  155.6060 H   0  0  0  0  0  0  0  0  0  0  0  0
  148.9642  138.1011  154.0458 H   0  0  0  0  0  0  0  0  0  0  0  0
  149.5204  139.4992  153.1509 H   0  0  0  0  0  0  0  0  0  0  0  0
  1  2  1  0  0  0  0
  1 21  1  0  0  0  0
  1 22  1  0  0  0  0
  1 23  1  0  0  0  0
  2  3  1  0  0  0  0
  2 24  1  0  0  0  0
  2 25  1  0  0  0  0
  3  4  1  0  0  0  0
  3  5  1  0  0  0  0
  3 15  1  0  0  0  0
  4 26  1  0  0  0  0
  4 27  1  0  0  0  0
  4 28  1  0  0  0  0
  5  6  1  0  0  0  0
  5 29  1  0  0  0  0
  5 30  1  0  0  0  0
  6  7  1  0  0  0  0
  6 31  1  0  0  0  0
  7  8  2  0  0  0  0
  7  9  1  0  0  0  0
  9 10  1  0  0  0  0
  9 32  1  0  0  0  0
 10 14  1  0  0  0  0
 10 11  2  0  0  0  0
 11 12  1  0  0  0  0
 12 13  2  0  0  0  0
 13 14  1  0  0  0  0
 13 33  1  0  0  0  0
 15 20  1  0  0  0  0
 15 16  1  0  0  0  0
 16 17  1  0  0  0  0
 16 34  1  0  0  0  0
 16 35  1  0  0  0  0
 17 18  1  0  0  0  0
 17 36  1  0  0  0  0
 17 37  1  0  0  0  0
 18 19  1  0  0  0  0
 19 20  1  0  0  0  0
 19 38  1  0  0  0  0
 19 39  1  0  0  0  0
 20 40  1  0  0  0  0
 20 41  1  0  0  0  0
M  END
> <s_m_source_file>
AV-unprocessed.smi

> <i_m_source_file_index>
1412

> <i_lp_mmshare_version>
43012

> <i_f3d_flags>
0

> <s_epik_input>
W0NIMl0xW0NIMl1PW0NIMl1bQ0gyXU4xW0NAQF0oW0NIM10pKFtDSDJdW0NIM10pW0NIMl1bTkhdQyg9TylbTkhdYzJubltjSF1zMg==

> <s_epik_cmdline>
J2VwaWtfcHl0aG9uJywgJy1waCcsICc3LjAnLCAnLXRuJywgJzgnLCAnLW1hJywgJzIwMCcsICctbWV0YWxfYmluZGluZycsICctaW1hZScsICc8aW5maWxlLm1hZT4nLCAnLW9tYWUnLCAnPG91dGZpbGUubWFlPic=

> <r_lp_tautomer_probability>
1

> <r_epik_Ionization_Penalty>
0.295854

> <r_epik_Ionization_Penalty_Charging>
0

> <r_epik_Ionization_Penalty_Neutral>
0.295854

> <r_epik_State_Penalty>
0.288723

> <r_epik_Charging_Adjusted_Penalty>
0.288723

> <i_epik_Tot_Q>
0

> <i_epik_Tot_abs_Q>
0

> <r_epik_Metal_State_Penalty>
0.510549

> <b_epik_Metal_Only>
0

> <s_lp_Force_Field>
OPLS_2005

> <r_lp_Energy>
41.7733

> <b_lp_Chiralities_Consistent>
1

> <s_lp_Variant>
AV-unprocessed.smi:1412-2

> <Gold.Version>
5.8.1

> <Gold.Id.Protein>
6NUR|6NUR_protein|mol2

> <Gold.PLP.Fitness>
41.4644

> <Gold.PLP.PLP>
-30.4352

> <Gold.PLP.part.hbond>
-4.1663

> <Gold.PLP.part.metal>
0.0000

> <Gold.PLP.part.buried>
-3.4428

> <Gold.PLP.part.nonpolar>
-22.4139

> <Gold.PLP.part.repulsive>
0.2244

> <Gold.PLP.ligand.clash>
0.0000

> <Gold.PLP.ligand.torsion>
0.5451

> <Gold.PLP.Chemscore.Hbond>
3.9600

> <Gold.PLP.Chemscore.CHOScore>
0.0000

> <Gold.PLP.Chemscore.Metal>
0.0000

> <Gold.Chemscore.Hbonds>
donor molecule, donor type, donor heavy atom, donor atom, acceptor molecule, acceptor atom, score
      L1  H     6    31       P1 10175  0.94
      L1  H     9    32       P1 10175  1.00
      P1  H  7989  7998       L1    18  1.00
      P1  H 11000 11005       L1    12  0.86

> <Gold.PLP.Chemscore.Internal.Correction>
0.2393

> <Gold.Rescore>
     Score         DG    S(hbond)    S(metal)    S(lipo)     H(rot)  DE(clash)    DE(int)     intcor
     16.71     -18.70       3.19        0.00      62.66       1.86       0.04       1.95       ----

> <Gold.Chemscore.Fitness>
16.7060

> <Gold.Chemscore.DG>
-18.6968

> <Gold.Chemscore.ZeroCoef>
-5.4800

> <Gold.Chemscore.Hbond>
3.1883

> <Gold.Chemscore.Metal>
0.0000

> <Gold.Chemscore.Lipo>
62.6641

> <Gold.Chemscore.Internal_Hbond>
0.0000

> <Gold.Chemscore.DEClash>
0.0362

> <Gold.Chemscore.DEInternal>
1.9546

> <Gold.Chemscore.Rot>
1.8609

> <Gold.Chemscore.Internal.Correction>
   9.000000E+99

> <Gold.Chemscore.Hbonds>
donor molecule, donor type, donor heavy atom, donor atom, acceptor molecule, acceptor atom, score
      L1  H     6    31       P1 10175  0.91
      L1  H     9    32       P1 10175  0.99
      P1  H  7989  7998       L1    18  0.35
      P1  H 11000 11005       L1    12  0.29

> <Gold.Chemscore.Hbond.Weighted>
-10.6489

> <Gold.Chemscore.Metal.Weighted>
-0.0000

> <Gold.Chemscore.Lipo.Weighted>
-7.3317

> <Gold.Chemscore.Internal_Hbond.Weighted>
0.0000

> <Gold.Chemscore.DEClash.Weighted>
0.0362

> <Gold.Chemscore.DEInternal.Weighted>
1.9546

> <Gold.Chemscore.Rot.Weighted>
4.7638

> <Gold.Chemscore.Internal.Correction.Weighted>
   9.000000E+99

> <Gold.Protein.RotatedTorsions>
[ 6907 6896 6895 6894 ] final  107.15 input  -60.11 | X-H torsion
[ 7974 7965 7964 7962 ] final   75.51 input  175.53 | X-H torsion
[ 8008 7997 7996 7995 ] final -147.45 input   59.86 | X-H torsion
[ 10167 10162 10161 10158 ] final   61.24 input  -65.29 | X-H torsion
[ 10718 10713 10712 10709 ] final  -58.90 input   66.30 | X-H torsion
[ 10763 10752 10751 10750 ] final  136.39 input  -60.55 | X-H torsion
[ 11005 11000 10999 10996 ] final   53.86 input  -57.11 | X-H torsion

> <Gold.Protein.ActiveResidues>
 VAL166  LYS551  ARG553  GLY616  TRP617  ASP618  TYR619  PRO620  LYS621  CYS622 
 ASP623  PHE694  ASN695  SER759  ASP760  ASP761  ALA762  ILE779  LEU786  VAL792 
 PHE793  MET794  SER795  GLU796  ALA797  LYS798  CYS799  TRP800  GLU811  SER814 

> <Gold.Protein.RotatedAtoms>
  152.5166  133.9277  159.7564 H   0  0  0  0  0  0  0  0  0  0  0  0  # atno 6907 bound_to 6896
  150.9634  133.6412  159.2757 H   0  0  0  0  0  0  0  0  0  0  0  0  # atno 6908 bound_to 6896
  151.3649  135.0916  159.9499 H   0  0  0  0  0  0  0  0  0  0  0  0  # atno 6909 bound_to 6896
  145.7147  139.2627  143.1631 H   0  0  0  0  0  0  0  0  0  0  0  0  # atno 7974 bound_to 7965
  155.5757  140.0638  157.2796 H   0  0  0  0  0  0  0  0  0  0  0  0  # atno 8008 bound_to 7997
  154.4347  140.1861  156.0971 H   0  0  0  0  0  0  0  0  0  0  0  0  # atno 8009 bound_to 7997
  156.0343  140.3303  155.7177 H   0  0  0  0  0  0  0  0  0  0  0  0  # atno 8010 bound_to 7997
  140.1569  144.4409  150.6730 H   0  0  0  0  0  0  0  0  0  0  0  0  # atno 10167 bound_to 10162
  156.1101  130.4176  150.0641 H   0  0  0  0  0  0  0  0  0  0  0  0  # atno 10718 bound_to 10713
  153.8558  135.3073  155.3435 H   0  0  0  0  0  0  0  0  0  0  0  0  # atno 10763 bound_to 10752
  154.7871  135.4803  153.9973 H   0  0  0  0  0  0  0  0  0  0  0  0  # atno 10764 bound_to 10752
  153.1491  135.6839  153.9003 H   0  0  0  0  0  0  0  0  0  0  0  0  # atno 10765 bound_to 10752
  140.0733  134.5439  155.9023 H   0  0  0  0  0  0  0  0  0  0  0  0  # atno 11005 bound_to 11000
  146.0681  140.7899  142.9702 LP  0  0  0  0  0  0  0  0  0  0  0  0  # atno 17320 bound_to 7965
  144.6932  140.3299  143.7218 LP  0  0  0  0  0  0  0  0  0  0  0  0  # atno 17321 bound_to 7965
  140.6668  143.2271  151.5724 LP  0  0  0  0  0  0  0  0  0  0  0  0  # atno 17342 bound_to 10162
  139.5399  144.2675  152.1330 LP  0  0  0  0  0  0  0  0  0  0  0  0  # atno 17343 bound_to 10162
  156.8606  130.9490  151.3618 LP  0  0  0  0  0  0  0  0  0  0  0  0  # atno 17370 bound_to 10713
  157.6281  130.8708  149.9226 LP  0  0  0  0  0  0  0  0  0  0  0  0  # atno 17371 bound_to 10713
  141.2020  133.6622  156.5982 LP  0  0  0  0  0  0  0  0  0  0  0  0  # atno 17394 bound_to 11000
  140.3595  134.7700  157.4524 LP  0  0  0  0  0  0  0  0  0  0  0  0  # atno 17395 bound_to 11000

$$$$
