AV-unprocessed.smi:1994|AV-procd|sdf|8075|dock10
  -GOLD-   2272010283D 1   1.00000     0.00000
 Structure written by MMmdl.
 40 42  0  0  0  0  0  0  0  0  2 V2000
  147.2280  139.6453  153.5314 C   0  0  0  0  0  0  0  0  0  0  0  0
  146.6523  140.4686  154.6344 C   0  0  0  0  0  0  0  0  0  0  0  0
  145.4040  141.0158  154.6587 N   0  3  0  0  0  0  0  0  0  0  0  0
  145.2212  141.7231  155.8482 C   0  0  0  0  0  0  0  0  0  0  0  0
  144.1290  142.4427  156.3230 C   0  0  0  0  0  0  0  0  0  0  0  0
  144.2733  143.0506  157.5878 C   0  0  0  0  0  0  0  0  0  0  0  0
  145.4675  142.9316  158.3281 C   0  0  0  0  0  0  0  0  0  0  0  0
  146.5687  142.2001  157.8358 C   0  0  0  0  0  0  0  0  0  0  0  0
  146.4165  141.6012  156.5857 C   0  0  0  0  0  0  0  0  0  0  0  0
  147.2679  140.8167  155.8005 N   0  0  0  0  0  0  0  0  0  0  0  0
  148.6166  140.5055  156.2976 C   0  0  0  0  0  0  0  0  0  0  0  0
  149.7191  141.3370  155.6107 C   0  0  1  0  0  0  0  0  0  0  0  0
  149.1513  142.1354  154.5918 O   0  0  0  0  0  0  0  0  0  0  0  0
  150.4590  142.2519  156.5964 C   0  0  0  0  0  0  0  0  0  0  0  0
  151.1922  141.4417  157.5052 O   0  0  0  0  0  0  0  0  0  0  0  0
  151.7472  142.0408  158.6159 C   0  0  0  0  0  0  0  0  0  0  0  0
  151.4860  143.3772  159.0127 C   0  0  0  0  0  0  0  0  0  0  0  0
  152.0963  143.9116  160.1640 C   0  0  0  0  0  0  0  0  0  0  0  0
  152.9730  143.1221  160.9306 C   0  0  0  0  0  0  0  0  0  0  0  0
  153.2392  141.7958  160.5439 C   0  0  0  0  0  0  0  0  0  0  0  0
  152.6293  141.2599  159.3931 C   0  0  0  0  0  0  0  0  0  0  0  0
  152.8924  139.9809  159.0327 F   0  0  0  0  0  0  0  0  0  0  0  0
  146.4660  139.4160  152.7862 H   0  0  0  0  0  0  0  0  0  0  0  0
  147.6208  138.7073  153.9240 H   0  0  0  0  0  0  0  0  0  0  0  0
  148.0394  140.1861  153.0438 H   0  0  0  0  0  0  0  0  0  0  0  0
  143.2134  142.5359  155.7576 H   0  0  0  0  0  0  0  0  0  0  0  0
  143.4516  143.6196  157.9983 H   0  0  0  0  0  0  0  0  0  0  0  0
  145.5410  143.4108  159.2935 H   0  0  0  0  0  0  0  0  0  0  0  0
  147.4800  142.1145  158.4097 H   0  0  0  0  0  0  0  0  0  0  0  0
  148.6238  140.6824  157.3739 H   0  0  0  0  0  0  0  0  0  0  0  0
  148.7912  139.4372  156.1629 H   0  0  0  0  0  0  0  0  0  0  0  0
  150.4432  140.6735  155.1375 H   0  0  0  0  0  0  0  0  0  0  0  0
  149.2019  143.0403  154.8581 H   0  0  0  0  0  0  0  0  0  0  0  0
  151.1466  142.9006  156.0507 H   0  0  0  0  0  0  0  0  0  0  0  0
  149.7456  142.8835  157.1289 H   0  0  0  0  0  0  0  0  0  0  0  0
  150.8214  144.0143  158.4493 H   0  0  0  0  0  0  0  0  0  0  0  0
  151.8912  144.9302  160.4591 H   0  0  0  0  0  0  0  0  0  0  0  0
  153.4406  143.5331  161.8132 H   0  0  0  0  0  0  0  0  0  0  0  0
  153.9119  141.1878  161.1306 H   0  0  0  0  0  0  0  0  0  0  0  0
  144.7283  140.9131  153.9124 H   0  0  0  0  0  0  0  0  0  0  0  0
  1  2  1  0  0  0  0
  1 23  1  0  0  0  0
  1 24  1  0  0  0  0
  1 25  1  0  0  0  0
  2 10  1  0  0  0  0
  2  3  2  0  0  0  0
  3  4  1  0  0  0  0
  3 40  1  0  0  0  0
  4  9  2  0  0  0  0
  4  5  1  0  0  0  0
  5  6  2  0  0  0  0
  5 26  1  0  0  0  0
  6  7  1  0  0  0  0
  6 27  1  0  0  0  0
  7  8  2  0  0  0  0
  7 28  1  0  0  0  0
  8  9  1  0  0  0  0
  8 29  1  0  0  0  0
  9 10  1  0  0  0  0
 10 11  1  0  0  0  0
 11 12  1  0  0  0  0
 11 30  1  0  0  0  0
 11 31  1  0  0  0  0
 12 13  1  0  0  0  0
 12 14  1  0  0  0  0
 12 32  1  0  0  0  0
 13 33  1  0  0  0  0
 14 15  1  0  0  0  0
 14 34  1  0  0  0  0
 14 35  1  0  0  0  0
 15 16  1  0  0  0  0
 16 21  1  0  0  0  0
 16 17  2  0  0  0  0
 17 18  1  0  0  0  0
 17 36  1  0  0  0  0
 18 19  2  0  0  0  0
 18 37  1  0  0  0  0
 19 20  1  0  0  0  0
 19 38  1  0  0  0  0
 20 21  2  0  0  0  0
 20 39  1  0  0  0  0
 21 22  1  0  0  0  0
M  CHG  1   3   1
M  END
> <s_m_source_file>
AV-unprocessed.smi

> <i_m_source_file_index>
1994

> <i_lp_mmshare_version>
43012

> <i_f3d_flags>
0

> <s_epik_input>
W2NIXTFbY0hdW2NIXVtjSF1jKGMxMiluKGMobjIpW0NIM10pW0NIMl1bQ0BIXShbT0hdKVtDSDJdT2MzW2NIXVtjSF1bY0hdW2NIXWMzRg==

> <s_epik_cmdline>
J2VwaWtfcHl0aG9uJywgJy1waCcsICc3LjAnLCAnLXRuJywgJzgnLCAnLW1hJywgJzIwMCcsICctbWV0YWxfYmluZGluZycsICctaW1hZScsICc8aW5maWxlLm1hZT4nLCAnLW9tYWUnLCAnPG91dGZpbGUubWFlPic=

> <r_lp_tautomer_probability>
1

> <r_epik_Ionization_Penalty>
1.03916

> <r_epik_Ionization_Penalty_Charging>
1.03916

> <r_epik_Ionization_Penalty_Neutral>
2.3993e-06

> <r_epik_State_Penalty>
1.09101

> <r_epik_Charging_Adjusted_Penalty>
2.13018

> <i_epik_Tot_Q>
1

> <i_epik_Tot_abs_Q>
1

> <r_epik_Metal_State_Penalty>
5.08156

> <b_epik_Metal_Only>
0

> <s_lp_Force_Field>
OPLS_2005

> <r_lp_Energy>
18.0159

> <b_lp_Chiralities_Consistent>
1

> <s_lp_Variant>
AV-unprocessed.smi:1994-4

> <Gold.Version>
5.8.1

> <Gold.Id.Protein>
6NUR|6NUR_protein|mol2

> <Gold.PLP.Fitness>
46.0182

> <Gold.PLP.PLP>
-38.8645

> <Gold.PLP.part.hbond>
-3.4964

> <Gold.PLP.part.metal>
0.0000

> <Gold.PLP.part.buried>
-3.9540

> <Gold.PLP.part.nonpolar>
-32.1993

> <Gold.PLP.part.repulsive>
0.0293

> <Gold.PLP.ligand.clash>
0.0000

> <Gold.PLP.ligand.torsion>
1.0859

> <Gold.PLP.Chemscore.Hbond>
3.0983

> <Gold.PLP.Chemscore.CHOScore>
0.0000

> <Gold.PLP.Chemscore.Metal>
0.0000

> <Gold.Chemscore.Hbonds>
donor molecule, donor type, donor heavy atom, donor atom, acceptor molecule, acceptor atom, score
      L1  H     3    40       P1 10175  2.00
      L1  H    13    33       P1  8028  1.00
      P1  H  8011  8017       L1    13  0.05

> <Gold.PLP.Chemscore.Internal.Correction>
0.0307

> <Gold.Rescore>
     Score         DG    S(hbond)    S(metal)    S(lipo)     H(rot)  DE(clash)    DE(int)     intcor
     16.72     -18.07       1.95        0.00     101.70       2.27       0.12       1.23       ----

> <Gold.Chemscore.Fitness>
16.7182

> <Gold.Chemscore.DG>
-18.0712

> <Gold.Chemscore.ZeroCoef>
-5.4800

> <Gold.Chemscore.Hbond>
1.9476

> <Gold.Chemscore.Metal>
0.0000

> <Gold.Chemscore.Lipo>
101.6999

> <Gold.Chemscore.Internal_Hbond>
0.0000

> <Gold.Chemscore.DEClash>
0.1248

> <Gold.Chemscore.DEInternal>
1.2282

> <Gold.Chemscore.Rot>
2.2706

> <Gold.Chemscore.Internal.Correction>
   9.000000E+99

> <Gold.Chemscore.Hbonds>
donor molecule, donor type, donor heavy atom, donor atom, acceptor molecule, acceptor atom, score
      L1  H     3    40       P1 10175  0.91
      L1  H    13    33       P1  8028  1.00
      P1  H  8011  8017       L1    13  0.01

> <Gold.Chemscore.Hbond.Weighted>
-6.5051

> <Gold.Chemscore.Metal.Weighted>
-0.0000

> <Gold.Chemscore.Lipo.Weighted>
-11.8989

> <Gold.Chemscore.Internal_Hbond.Weighted>
0.0000

> <Gold.Chemscore.DEClash.Weighted>
0.1248

> <Gold.Chemscore.DEInternal.Weighted>
1.2282

> <Gold.Chemscore.Rot.Weighted>
5.8128

> <Gold.Chemscore.Internal.Correction.Weighted>
   9.000000E+99

> <Gold.Protein.RotatedTorsions>
[ 6907 6896 6895 6894 ] final   80.39 input  -60.11 | X-H torsion
[ 7974 7965 7964 7962 ] final  -11.08 input  175.53 | X-H torsion
[ 8008 7997 7996 7995 ] final  -35.22 input   59.86 | X-H torsion
[ 10167 10162 10161 10158 ] final  110.12 input  -65.29 | X-H torsion
[ 10718 10713 10712 10709 ] final  -10.68 input   66.30 | X-H torsion
[ 10763 10752 10751 10750 ] final  120.92 input  -60.55 | X-H torsion
[ 11005 11000 10999 10996 ] final   12.01 input  -57.11 | X-H torsion

> <Gold.Protein.ActiveResidues>
 VAL166  LYS551  ARG553  GLY616  TRP617  ASP618  TYR619  PRO620  LYS621  CYS622 
 ASP623  PHE694  ASN695  SER759  ASP760  ASP761  ALA762  ILE779  LEU786  VAL792 
 PHE793  MET794  SER795  GLU796  ALA797  LYS798  CYS799  TRP800  GLU811  SER814 

> <Gold.Protein.RotatedAtoms>
  152.5233  134.3364  159.9201 H   0  0  0  0  0  0  0  0  0  0  0  0  # atno 6907 bound_to 6896
  151.3314  133.3993  159.2670 H   0  0  0  0  0  0  0  0  0  0  0  0  # atno 6908 bound_to 6896
  150.9878  134.9237  159.7939 H   0  0  0  0  0  0  0  0  0  0  0  0  # atno 6909 bound_to 6896
  146.2199  140.2858  142.8365 H   0  0  0  0  0  0  0  0  0  0  0  0  # atno 7974 bound_to 7965
  154.4101  140.1663  156.2177 H   0  0  0  0  0  0  0  0  0  0  0  0  # atno 8008 bound_to 7997
  155.9390  140.3409  155.6289 H   0  0  0  0  0  0  0  0  0  0  0  0  # atno 8009 bound_to 7997
  155.7012  140.0745  157.2400 H   0  0  0  0  0  0  0  0  0  0  0  0  # atno 8010 bound_to 7997
  139.6713  144.7125  151.1683 H   0  0  0  0  0  0  0  0  0  0  0  0  # atno 10167 bound_to 10162
  156.6699  130.5006  149.6003 H   0  0  0  0  0  0  0  0  0  0  0  0  # atno 10718 bound_to 10713
  153.6061  135.3439  155.2962 H   0  0  0  0  0  0  0  0  0  0  0  0  # atno 10763 bound_to 10752
  154.8627  135.4239  154.2360 H   0  0  0  0  0  0  0  0  0  0  0  0  # atno 10764 bound_to 10752
  153.3200  135.7037  153.7111 H   0  0  0  0  0  0  0  0  0  0  0  0  # atno 10765 bound_to 10752
  140.4967  134.0786  155.7784 H   0  0  0  0  0  0  0  0  0  0  0  0  # atno 11005 bound_to 11000
  144.9163  140.7816  143.5776 LP  0  0  0  0  0  0  0  0  0  0  0  0  # atno 17320 bound_to 7965
  145.2792  139.1925  143.4800 LP  0  0  0  0  0  0  0  0  0  0  0  0  # atno 17321 bound_to 7965
  140.7619  143.5840  150.8865 LP  0  0  0  0  0  0  0  0  0  0  0  0  # atno 17342 bound_to 10162
  139.9506  143.6277  152.3030 LP  0  0  0  0  0  0  0  0  0  0  0  0  # atno 17343 bound_to 10162
  156.1946  130.6581  151.1100 LP  0  0  0  0  0  0  0  0  0  0  0  0  # atno 17370 bound_to 10713
  157.7080  131.0747  150.6598 LP  0  0  0  0  0  0  0  0  0  0  0  0  # atno 17371 bound_to 10713
  141.1456  133.9060  157.2223 LP  0  0  0  0  0  0  0  0  0  0  0  0  # atno 17394 bound_to 11000
  139.9737  135.0120  156.9577 LP  0  0  0  0  0  0  0  0  0  0  0  0  # atno 17395 bound_to 11000

$$$$
