AV-unprocessed.smi:1433|AV-procd|sdf|5838|dock2
  -GOLD-   22720 5503D 1   1.00000     0.00000
 Structure written by MMmdl.
 44 45  0  0  0  0  0  0  0  0  1 V2000
  153.7184  141.9532  161.9943 C   0  0  0  0  0  0  0  0  0  0  0  0
  153.3051  142.5555  160.6474 C   0  0  1  0  0  0  0  0  0  0  0  0
  152.4918  141.5646  159.7934 C   0  0  0  0  0  0  0  0  0  0  0  0
  152.0232  142.1468  158.5310 N   0  0  0  0  0  0  0  0  0  0  0  0
  151.2165  141.1980  157.7278 C   0  0  1  0  0  0  0  0  0  0  0  0
  151.0005  141.6818  156.2711 C   0  0  0  0  0  0  0  0  0  0  0  0
  151.8049  139.7561  157.7000 C   0  0  0  0  0  0  0  0  0  0  0  0
  151.3061  138.9385  156.5975 N   0  0  0  0  0  0  0  0  0  0  0  0
  151.8002  138.9393  155.3496 C   0  0  0  0  0  0  0  0  0  0  0  0
  152.7450  139.6435  154.9935 O   0  0  0  0  0  0  0  0  0  0  0  0
  151.1263  138.0017  154.3476 C   0  0  0  0  0  0  0  0  0  0  0  0
  149.6847  138.0048  154.5183 N   0  0  0  0  0  0  0  0  0  0  0  0
  148.7759  138.9581  154.1084 C   0  0  0  0  0  0  0  0  0  0  0  0
  147.5369  138.5304  154.4918 C   0  0  0  0  0  0  0  0  0  0  0  0
  147.7938  137.2905  155.1413 C   0  0  0  0  0  0  0  0  0  0  0  0
  149.0798  136.9781  155.1553 N   0  0  0  0  0  0  0  0  0  0  0  0
  151.2890  143.3773  158.8468 C   0  0  0  0  0  0  0  0  0  0  0  0
  152.1047  144.3635  159.7046 C   0  0  1  0  0  0  0  0  0  0  0  0
  151.2916  145.6027  160.0937 C   0  0  0  0  0  0  0  0  0  0  0  0
  152.5173  143.7118  160.8989 O   0  0  0  0  0  0  0  0  0  0  0  0
  154.3387  141.0678  161.8538 H   0  0  0  0  0  0  0  0  0  0  0  0
  152.8469  141.6619  162.5810 H   0  0  0  0  0  0  0  0  0  0  0  0
  154.2913  142.6704  162.5824 H   0  0  0  0  0  0  0  0  0  0  0  0
  154.2056  142.8510  160.1060 H   0  0  0  0  0  0  0  0  0  0  0  0
  153.1394  140.7111  159.6042 H   0  0  0  0  0  0  0  0  0  0  0  0
  151.6404  141.1976  160.3686 H   0  0  0  0  0  0  0  0  0  0  0  0
  150.2292  141.1323  158.1875 H   0  0  0  0  0  0  0  0  0  0  0  0
  150.4477  140.9607  155.6704 H   0  0  0  0  0  0  0  0  0  0  0  0
  151.9523  141.8632  155.7711 H   0  0  0  0  0  0  0  0  0  0  0  0
  150.4127  142.5971  156.2222 H   0  0  0  0  0  0  0  0  0  0  0  0
  152.8919  139.8005  157.6242 H   0  0  0  0  0  0  0  0  0  0  0  0
  151.5817  139.2072  158.6142 H   0  0  0  0  0  0  0  0  0  0  0  0
  150.5247  138.3310  156.7979 H   0  0  0  0  0  0  0  0  0  0  0  0
  151.3600  138.3242  153.3323 H   0  0  0  0  0  0  0  0  0  0  0  0
  151.5050  136.9834  154.4543 H   0  0  0  0  0  0  0  0  0  0  0  0
  149.0843  139.8514  153.5851 H   0  0  0  0  0  0  0  0  0  0  0  0
  146.5917  139.0281  154.3343 H   0  0  0  0  0  0  0  0  0  0  0  0
  147.0887  136.6131  155.5996 H   0  0  0  0  0  0  0  0  0  0  0  0
  151.0134  143.9023  157.9339 H   0  0  0  0  0  0  0  0  0  0  0  0
  150.3601  143.1289  159.3625 H   0  0  0  0  0  0  0  0  0  0  0  0
  152.9886  144.6851  159.1509 H   0  0  0  0  0  0  0  0  0  0  0  0
  150.9574  146.1477  159.2104 H   0  0  0  0  0  0  0  0  0  0  0  0
  151.8886  146.2851  160.6989 H   0  0  0  0  0  0  0  0  0  0  0  0
  150.4091  145.3293  160.6729 H   0  0  0  0  0  0  0  0  0  0  0  0
  1  2  1  0  0  0  0
  1 21  1  0  0  0  0
  1 22  1  0  0  0  0
  1 23  1  0  0  0  0
  2 20  1  0  0  0  0
  2  3  1  0  0  0  0
  2 24  1  0  0  0  0
  3  4  1  0  0  0  0
  3 25  1  0  0  0  0
  3 26  1  0  0  0  0
  4  5  1  0  0  0  0
  4 17  1  0  0  0  0
  5  6  1  0  0  0  0
  5  7  1  0  0  0  0
  5 27  1  0  0  0  0
  6 28  1  0  0  0  0
  6 29  1  0  0  0  0
  6 30  1  0  0  0  0
  7  8  1  0  0  0  0
  7 31  1  0  0  0  0
  7 32  1  0  0  0  0
  8  9  1  0  0  0  0
  8 33  1  0  0  0  0
  9 10  2  0  0  0  0
  9 11  1  0  0  0  0
 11 12  1  0  0  0  0
 11 34  1  0  0  0  0
 11 35  1  0  0  0  0
 12 16  1  0  0  0  0
 12 13  1  0  0  0  0
 13 14  2  0  0  0  0
 13 36  1  0  0  0  0
 14 15  1  0  0  0  0
 14 37  1  0  0  0  0
 15 16  2  0  0  0  0
 15 38  1  0  0  0  0
 17 18  1  0  0  0  0
 17 39  1  0  0  0  0
 17 40  1  0  0  0  0
 18 19  1  0  0  0  0
 18 20  1  0  0  0  0
 18 41  1  0  0  0  0
 19 42  1  0  0  0  0
 19 43  1  0  0  0  0
 19 44  1  0  0  0  0
M  END
> <s_m_source_file>
AV-unprocessed.smi

> <i_m_source_file_index>
1433

> <i_lp_mmshare_version>
43012

> <i_f3d_flags>
0

> <s_epik_input>
W0NIM11bQ0BASF0xW0NIMl1OKFtDSDJdW0NASF0oTzEpW0NIM10pW0NASF0oW0NIM10pW0NIMl1bTkhdQyg9TylbQ0gyXW4yW2NIXVtjSF1bY0hdbjI=

> <s_epik_cmdline>
J2VwaWtfcHl0aG9uJywgJy1waCcsICc3LjAnLCAnLXRuJywgJzgnLCAnLW1hJywgJzIwMCcsICctbWV0YWxfYmluZGluZycsICctaW1hZScsICc8aW5maWxlLm1hZT4nLCAnLW9tYWUnLCAnPG91dGZpbGUubWFlPic=

> <r_lp_tautomer_probability>
1

> <r_epik_Ionization_Penalty>
0.196927

> <r_epik_Ionization_Penalty_Charging>
0

> <r_epik_Ionization_Penalty_Neutral>
0.196927

> <r_epik_State_Penalty>
0.186684

> <r_epik_Charging_Adjusted_Penalty>
0.186684

> <i_epik_Tot_Q>
0

> <i_epik_Tot_abs_Q>
0

> <r_epik_Metal_State_Penalty>
0.186682

> <b_epik_Metal_Only>
0

> <s_lp_Force_Field>
OPLS_2005

> <r_lp_Energy>
27.7845

> <b_lp_Chiralities_Consistent>
1

> <s_lp_Variant>
AV-unprocessed.smi:1433-4

> <Gold.Version>
5.8.1

> <Gold.Id.Protein>
6NUR|6NUR_protein|mol2

> <Gold.PLP.Fitness>
45.7046

> <Gold.PLP.PLP>
-41.1662

> <Gold.PLP.part.hbond>
-2.0000

> <Gold.PLP.part.metal>
0.0000

> <Gold.PLP.part.buried>
-5.7185

> <Gold.PLP.part.nonpolar>
-34.4597

> <Gold.PLP.part.repulsive>
0.2788

> <Gold.PLP.ligand.clash>
0.0000

> <Gold.PLP.ligand.torsion>
1.1147

> <Gold.PLP.Chemscore.Hbond>
1.3262

> <Gold.PLP.Chemscore.CHOScore>
0.8986

> <Gold.PLP.Chemscore.Metal>
0.0000

> <Gold.Chemscore.Hbonds>
donor molecule, donor type, donor heavy atom, donor atom, acceptor molecule, acceptor atom, score
      P1  H  7989  7998       L1    10  0.30
      P1  H  7997  8009       L1    10  1.00
      L1  C    13    36       P1  7957  0.93

> <Gold.PLP.Chemscore.Internal.Correction>
0.0936

> <Gold.Rescore>
     Score         DG    S(hbond)    S(metal)    S(lipo)     H(rot)  DE(clash)    DE(int)     intcor
     15.48     -16.50       1.00        0.00     105.11       1.80       0.15       0.87       ----

> <Gold.Chemscore.Fitness>
15.4792

> <Gold.Chemscore.DG>
-16.5000

> <Gold.Chemscore.ZeroCoef>
-5.4800

> <Gold.Chemscore.Hbond>
0.9999

> <Gold.Chemscore.Metal>
0.0000

> <Gold.Chemscore.Lipo>
105.1120

> <Gold.Chemscore.Internal_Hbond>
0.0000

> <Gold.Chemscore.DEClash>
0.1490

> <Gold.Chemscore.DEInternal>
0.8718

> <Gold.Chemscore.Rot>
1.8038

> <Gold.Chemscore.Internal.Correction>
   9.000000E+99

> <Gold.Chemscore.Hbonds>
donor molecule, donor type, donor heavy atom, donor atom, acceptor molecule, acceptor atom, score
      P1  H  7989  7998       L1    10  0.07
      P1  H  7997  8009       L1    10  0.95

> <Gold.Chemscore.Hbond.Weighted>
-3.3397

> <Gold.Chemscore.Metal.Weighted>
-0.0000

> <Gold.Chemscore.Lipo.Weighted>
-12.2981

> <Gold.Chemscore.Internal_Hbond.Weighted>
0.0000

> <Gold.Chemscore.DEClash.Weighted>
0.1490

> <Gold.Chemscore.DEInternal.Weighted>
0.8718

> <Gold.Chemscore.Rot.Weighted>
4.6178

> <Gold.Chemscore.Internal.Correction.Weighted>
   9.000000E+99

> <Gold.Protein.RotatedTorsions>
[ 6907 6896 6895 6894 ] final    0.03 input  -60.11 | X-H torsion
[ 7974 7965 7964 7962 ] final -120.78 input  175.53 | X-H torsion
[ 8008 7997 7996 7995 ] final -132.84 input   59.86 | X-H torsion
[ 10167 10162 10161 10158 ] final  -51.10 input  -65.29 | X-H torsion
[ 10718 10713 10712 10709 ] final  -70.21 input   66.30 | X-H torsion
[ 10763 10752 10751 10750 ] final -103.46 input  -60.55 | X-H torsion
[ 11005 11000 10999 10996 ] final  123.46 input  -57.11 | X-H torsion

> <Gold.Protein.ActiveResidues>
 VAL166  LYS551  ARG553  GLY616  TRP617  ASP618  TYR619  PRO620  LYS621  CYS622 
 ASP623  PHE694  ASN695  SER759  ASP760  ASP761  ALA762  ILE779  LEU786  VAL792 
 PHE793  MET794  SER795  GLU796  ALA797  LYS798  CYS799  TRP800  GLU811  SER814 

> <Gold.Protein.RotatedAtoms>
  151.5699  135.1063  159.9992 H   0  0  0  0  0  0  0  0  0  0  0  0  # atno 6907 bound_to 6896
  152.4406  133.7437  159.6666 H   0  0  0  0  0  0  0  0  0  0  0  0  # atno 6908 bound_to 6896
  150.8311  133.8021  159.3122 H   0  0  0  0  0  0  0  0  0  0  0  0  # atno 6909 bound_to 6896
  145.0476  140.8194  143.4228 H   0  0  0  0  0  0  0  0  0  0  0  0  # atno 7974 bound_to 7965
  155.3356  140.0469  157.3043 H   0  0  0  0  0  0  0  0  0  0  0  0  # atno 8008 bound_to 7997
  154.5305  140.2255  155.8779 H   0  0  0  0  0  0  0  0  0  0  0  0  # atno 8009 bound_to 7997
  156.1783  140.3080  155.9107 H   0  0  0  0  0  0  0  0  0  0  0  0  # atno 8010 bound_to 7997
  140.6605  143.2632  151.4455 H   0  0  0  0  0  0  0  0  0  0  0  0  # atno 10167 bound_to 10162
  156.0418  130.4327  150.2262 H   0  0  0  0  0  0  0  0  0  0  0  0  # atno 10718 bound_to 10713
  154.7809  135.4822  153.9842 H   0  0  0  0  0  0  0  0  0  0  0  0  # atno 10763 bound_to 10752
  153.1492  135.6788  153.8915 H   0  0  0  0  0  0  0  0  0  0  0  0  # atno 10764 bound_to 10752
  153.8565  135.3160  155.3414 H   0  0  0  0  0  0  0  0  0  0  0  0  # atno 10765 bound_to 10752
  139.9313  134.9641  156.8262 H   0  0  0  0  0  0  0  0  0  0  0  0  # atno 11005 bound_to 11000
  145.1568  139.2482  143.5412 LP  0  0  0  0  0  0  0  0  0  0  0  0  # atno 17320 bound_to 7965
  146.3515  140.1284  142.8598 LP  0  0  0  0  0  0  0  0  0  0  0  0  # atno 17321 bound_to 7965
  139.5838  144.1651  152.2002 LP  0  0  0  0  0  0  0  0  0  0  0  0  # atno 17342 bound_to 10162
  140.0984  144.5560  150.7006 LP  0  0  0  0  0  0  0  0  0  0  0  0  # atno 17343 bound_to 10162
  157.0356  131.0020  151.3299 LP  0  0  0  0  0  0  0  0  0  0  0  0  # atno 17370 bound_to 10713
  157.5246  130.8020  149.7847 LP  0  0  0  0  0  0  0  0  0  0  0  0  # atno 17371 bound_to 10713
  140.6193  134.0009  155.7611 LP  0  0  0  0  0  0  0  0  0  0  0  0  # atno 17394 bound_to 11000
  141.0904  133.9926  157.3247 LP  0  0  0  0  0  0  0  0  0  0  0  0  # atno 17395 bound_to 11000

$$$$
