AV-unprocessed.smi:2822|AV-procd|sdf|10872|dock8
  -GOLD-   2272015313D 1   1.00000     0.00000
 Structure written by MMmdl.
 40 42  0  0  0  0  0  0  0  0  2 V2000
  146.5022  142.8598  154.1861 Cl  0  0  0  0  0  0  0  0  0  0  0  0
  147.3468  141.3508  154.1593 C   0  0  0  0  0  0  0  0  0  0  0  0
  146.9797  140.3604  153.2251 C   0  0  0  0  0  0  0  0  0  0  0  0
  147.5855  139.1576  153.1391 N   0  0  0  0  0  0  0  0  0  0  0  0
  148.5946  138.9001  153.9967 C   0  0  0  0  0  0  0  0  0  0  0  0
  149.0407  139.8181  154.9683 C   0  0  0  0  0  0  0  0  0  0  0  0
  148.4037  141.0784  155.0584 C   0  0  0  0  0  0  0  0  0  0  0  0
  148.7842  142.0511  155.9960 N   0  0  0  0  0  0  0  0  0  0  0  0
  149.3422  141.6608  157.2817 C   0  0  0  0  0  0  0  0  0  0  0  0
  150.6375  142.4234  157.5934 C   0  0  2  0  0  0  0  0  0  0  0  0
  151.5867  141.5904  158.4742 C   0  0  0  0  0  0  0  0  0  0  0  0
  152.7919  142.3777  158.8351 N   0  3  2  0  0  0  0  0  0  0  0  0
  153.7867  141.6209  159.6394 C   0  0  0  0  0  0  0  0  0  0  0  0
  153.3430  141.4499  161.1049 C   0  0  0  0  0  0  0  0  0  0  0  0
  153.0121  142.8056  161.7436 C   0  0  0  0  0  0  0  0  0  0  0  0
  151.9772  143.5587  160.8955 C   0  0  0  0  0  0  0  0  0  0  0  0
  152.4516  143.6988  159.4319 C   0  0  2  0  0  0  0  0  0  0  0  0
  151.4301  144.4369  158.5438 C   0  0  0  0  0  0  0  0  0  0  0  0
  150.2980  143.6106  158.3023 O   0  0  0  0  0  0  0  0  0  0  0  0
  146.1757  140.5386  152.5263 H   0  0  0  0  0  0  0  0  0  0  0  0
  149.0636  137.9315  153.9060 H   0  0  0  0  0  0  0  0  0  0  0  0
  149.8573  139.5419  155.6183 H   0  0  0  0  0  0  0  0  0  0  0  0
  148.4199  142.9880  155.8947 H   0  0  0  0  0  0  0  0  0  0  0  0
  148.6082  141.8281  158.0710 H   0  0  0  0  0  0  0  0  0  0  0  0
  149.5511  140.5907  157.2529 H   0  0  0  0  0  0  0  0  0  0  0  0
  151.1381  142.6790  156.6572 H   0  0  0  0  0  0  0  0  0  0  0  0
  151.0635  141.2617  159.3725 H   0  0  0  0  0  0  0  0  0  0  0  0
  151.8918  140.6899  157.9396 H   0  0  0  0  0  0  0  0  0  0  0  0
  153.9759  140.6495  159.1813 H   0  0  0  0  0  0  0  0  0  0  0  0
  154.7325  142.1631  159.6101 H   0  0  0  0  0  0  0  0  0  0  0  0
  152.4736  140.7943  161.1610 H   0  0  0  0  0  0  0  0  0  0  0  0
  154.1309  140.9560  161.6741 H   0  0  0  0  0  0  0  0  0  0  0  0
  152.6360  142.6621  162.7570 H   0  0  0  0  0  0  0  0  0  0  0  0
  153.9213  143.4020  161.8298 H   0  0  0  0  0  0  0  0  0  0  0  0
  151.0199  143.0379  160.9376 H   0  0  0  0  0  0  0  0  0  0  0  0
  151.8041  144.5458  161.3258 H   0  0  0  0  0  0  0  0  0  0  0  0
  153.3670  144.2925  159.4407 H   0  0  0  0  0  0  0  0  0  0  0  0
  151.1026  145.3595  159.0241 H   0  0  0  0  0  0  0  0  0  0  0  0
  151.8836  144.7249  157.5938 H   0  0  0  0  0  0  0  0  0  0  0  0
  153.2462  142.5809  157.9561 H   0  0  0  0  0  0  0  0  0  0  0  0
  1  2  1  0  0  0  0
  2  7  1  0  0  0  0
  2  3  2  0  0  0  0
  3  4  1  0  0  0  0
  3 20  1  0  0  0  0
  4  5  2  0  0  0  0
  5  6  1  0  0  0  0
  5 21  1  0  0  0  0
  6  7  2  0  0  0  0
  6 22  1  0  0  0  0
  7  8  1  0  0  0  0
  8  9  1  0  0  0  0
  8 23  1  0  0  0  0
  9 10  1  0  0  0  0
  9 24  1  0  0  0  0
  9 25  1  0  0  0  0
 10 19  1  0  0  0  0
 10 11  1  0  0  0  0
 10 26  1  0  0  0  0
 11 12  1  0  0  0  0
 11 27  1  0  0  0  0
 11 28  1  0  0  0  0
 12 17  1  0  0  0  0
 12 13  1  0  0  0  0
 12 40  1  0  0  0  0
 13 14  1  0  0  0  0
 13 29  1  0  0  0  0
 13 30  1  0  0  0  0
 14 15  1  0  0  0  0
 14 31  1  0  0  0  0
 14 32  1  0  0  0  0
 15 16  1  0  0  0  0
 15 33  1  0  0  0  0
 15 34  1  0  0  0  0
 16 17  1  0  0  0  0
 16 35  1  0  0  0  0
 16 36  1  0  0  0  0
 17 18  1  0  0  0  0
 17 37  1  0  0  0  0
 18 19  1  0  0  0  0
 18 38  1  0  0  0  0
 18 39  1  0  0  0  0
M  CHG  1  12   1
M  END
> <s_m_source_file>
AV-unprocessed.smi

> <i_m_source_file_index>
2822

> <i_lp_mmshare_version>
43012

> <i_f3d_flags>
0

> <s_epik_input>
Q2xjMVtjSF1uW2NIXVtjSF1jMVtOSF1bQ0gyXVtDQEhdKFtDSDJdMilPW0NIMl1bQ0BASF0oTjIzKVtDSDJdW0NIMl1bQ0gyXVtDSDJdMw==

> <s_epik_cmdline>
J2VwaWtfcHl0aG9uJywgJy1waCcsICc3LjAnLCAnLXRuJywgJzgnLCAnLW1hJywgJzIwMCcsICctbWV0YWxfYmluZGluZycsICctaW1hZScsICc8aW5maWxlLm1hZT4nLCAnLW9tYWUnLCAnPG91dGZpbGUubWFlPic=

> <r_lp_tautomer_probability>
0.999999

> <r_epik_Ionization_Penalty>
0.88937

> <r_epik_Ionization_Penalty_Charging>
0.0803403

> <r_epik_Ionization_Penalty_Neutral>
0.80903

> <r_epik_State_Penalty>
0.931884

> <r_epik_Charging_Adjusted_Penalty>
1.01222

> <i_epik_Tot_Q>
1

> <i_epik_Tot_abs_Q>
1

> <r_epik_Metal_State_Penalty>
0.0782275

> <b_epik_Metal_Only>
0

> <s_lp_Force_Field>
OPLS_2005

> <r_lp_Energy>
31.6827

> <b_lp_Chiralities_Consistent>
1

> <s_lp_Variant>
AV-unprocessed.smi:2822-13

> <Gold.Version>
5.8.1

> <Gold.Id.Protein>
6NUR|6NUR_protein|mol2

> <Gold.PLP.Fitness>
48.9609

> <Gold.PLP.PLP>
-42.1758

> <Gold.PLP.part.hbond>
-1.0000

> <Gold.PLP.part.metal>
0.0000

> <Gold.PLP.part.buried>
-5.7552

> <Gold.PLP.part.nonpolar>
-38.2346

> <Gold.PLP.part.repulsive>
2.2222

> <Gold.PLP.ligand.clash>
0.0000

> <Gold.PLP.ligand.torsion>
0.6165

> <Gold.PLP.Chemscore.Hbond>
0.9120

> <Gold.PLP.Chemscore.CHOScore>
1.7602

> <Gold.PLP.Chemscore.Metal>
0.0000

> <Gold.Chemscore.Hbonds>
donor molecule, donor type, donor heavy atom, donor atom, acceptor molecule, acceptor atom, score
      L1  H     8    23       P1  8028  0.90
      L1  C     3    20       P1 10175  1.00
      L1  C     5    21       P1  7948  0.70

> <Gold.PLP.Chemscore.Internal.Correction>
0.0015

> <Gold.Rescore>
     Score         DG    S(hbond)    S(metal)    S(lipo)     H(rot)  DE(clash)    DE(int)     intcor
     19.38     -20.02       0.93        0.00     123.24       1.17       0.03       0.61       ----

> <Gold.Chemscore.Fitness>
19.3782

> <Gold.Chemscore.DG>
-20.0247

> <Gold.Chemscore.ZeroCoef>
-5.4800

> <Gold.Chemscore.Hbond>
0.9338

> <Gold.Chemscore.Metal>
0.0000

> <Gold.Chemscore.Lipo>
123.2406

> <Gold.Chemscore.Internal_Hbond>
0.0000

> <Gold.Chemscore.DEClash>
0.0326

> <Gold.Chemscore.DEInternal>
0.6138

> <Gold.Chemscore.Rot>
1.1693

> <Gold.Chemscore.Internal.Correction>
   9.000000E+99

> <Gold.Chemscore.Hbonds>
donor molecule, donor type, donor heavy atom, donor atom, acceptor molecule, acceptor atom, score
      L1  H     8    23       P1  8028  0.85

> <Gold.Chemscore.Hbond.Weighted>
-3.1189

> <Gold.Chemscore.Metal.Weighted>
-0.0000

> <Gold.Chemscore.Lipo.Weighted>
-14.4192

> <Gold.Chemscore.Internal_Hbond.Weighted>
0.0000

> <Gold.Chemscore.DEClash.Weighted>
0.0326

> <Gold.Chemscore.DEInternal.Weighted>
0.6138

> <Gold.Chemscore.Rot.Weighted>
2.9934

> <Gold.Chemscore.Internal.Correction.Weighted>
   9.000000E+99

> <Gold.Protein.RotatedTorsions>
[ 6907 6896 6895 6894 ] final -142.70 input  -60.11 | X-H torsion
[ 7974 7965 7964 7962 ] final  107.44 input  175.53 | X-H torsion
[ 8008 7997 7996 7995 ] final  174.40 input   59.86 | X-H torsion
[ 10167 10162 10161 10158 ] final  128.73 input  -65.29 | X-H torsion
[ 10718 10713 10712 10709 ] final  118.49 input   66.30 | X-H torsion
[ 10763 10752 10751 10750 ] final -114.84 input  -60.55 | X-H torsion
[ 11005 11000 10999 10996 ] final  -35.98 input  -57.11 | X-H torsion

> <Gold.Protein.ActiveResidues>
 VAL166  LYS551  ARG553  GLY616  TRP617  ASP618  TYR619  PRO620  LYS621  CYS622 
 ASP623  PHE694  ASN695  SER759  ASP760  ASP761  ALA762  ILE779  LEU786  VAL792 
 PHE793  MET794  SER795  GLU796  ALA797  LYS798  CYS799  TRP800  GLU811  SER814 

> <Gold.Protein.RotatedAtoms>
  151.0905  133.5319  159.2615 H   0  0  0  0  0  0  0  0  0  0  0  0  # atno 6907 bound_to 6896
  151.2188  135.0510  159.8951 H   0  0  0  0  0  0  0  0  0  0  0  0  # atno 6908 bound_to 6896
  152.5433  134.0710  159.8248 H   0  0  0  0  0  0  0  0  0  0  0  0  # atno 6909 bound_to 6896
  145.2936  139.2592  143.3851 H   0  0  0  0  0  0  0  0  0  0  0  0  # atno 7974 bound_to 7965
  156.0978  140.1435  156.9508 H   0  0  0  0  0  0  0  0  0  0  0  0  # atno 8008 bound_to 7997
  154.4682  140.0919  156.7122 H   0  0  0  0  0  0  0  0  0  0  0  0  # atno 8009 bound_to 7997
  155.4812  140.3445  155.4342 H   0  0  0  0  0  0  0  0  0  0  0  0  # atno 8010 bound_to 7997
  139.5513  144.6815  151.4317 H   0  0  0  0  0  0  0  0  0  0  0  0  # atno 10167 bound_to 10162
  157.6027  131.1048  150.7763 H   0  0  0  0  0  0  0  0  0  0  0  0  # atno 10718 bound_to 10713
  154.8457  135.4403  154.1569 H   0  0  0  0  0  0  0  0  0  0  0  0  # atno 10763 bound_to 10752
  153.2716  135.6945  153.7481 H   0  0  0  0  0  0  0  0  0  0  0  0  # atno 10764 bound_to 10752
  153.6720  135.3417  155.3131 H   0  0  0  0  0  0  0  0  0  0  0  0  # atno 10765 bound_to 10752
  140.9839  133.7041  156.1731 H   0  0  0  0  0  0  0  0  0  0  0  0  # atno 11005 bound_to 11000
  146.3176  140.3433  142.8650 LP  0  0  0  0  0  0  0  0  0  0  0  0  # atno 17320 bound_to 7965
  144.9152  140.7804  143.5783 LP  0  0  0  0  0  0  0  0  0  0  0  0  # atno 17321 bound_to 7965
  140.6775  143.8156  150.7078 LP  0  0  0  0  0  0  0  0  0  0  0  0  # atno 17342 bound_to 10162
  140.1599  143.4284  152.2074 LP  0  0  0  0  0  0  0  0  0  0  0  0  # atno 17343 bound_to 10162
  156.8159  130.4968  149.5349 LP  0  0  0  0  0  0  0  0  0  0  0  0  # atno 17370 bound_to 10713
  156.1104  130.6036  151.0038 LP  0  0  0  0  0  0  0  0  0  0  0  0  # atno 17371 bound_to 10713
  140.7144  134.4426  157.5579 LP  0  0  0  0  0  0  0  0  0  0  0  0  # atno 17394 bound_to 11000
  139.8962  134.8665  156.2098 LP  0  0  0  0  0  0  0  0  0  0  0  0  # atno 17395 bound_to 11000

$$$$
