AV-unprocessed.smi:1254|AV-procd|sdf|5276|dock1
  -GOLD-   22720 4393D 1   1.00000     0.00000
 Structure written by MMmdl.
 45 46  0  0  0  0  0  0  0  0  3 V2000
  149.0210  140.8872  154.0779 C   0  0  0  0  0  0  0  0  0  0  0  0
  149.8255  139.6527  154.3032 C   0  0  0  0  0  0  0  0  0  0  0  0
  149.5010  138.3260  154.3308 C   0  0  0  0  0  0  0  0  0  0  0  0
  150.7439  137.6932  154.6069 C   0  0  0  0  0  0  0  0  0  0  0  0
  150.9491  136.3719  154.7225 N   0  5  0  0  0  0  0  0  0  0  0  0
  150.0382  135.5942  155.3509 C   0  0  0  0  0  0  0  0  0  0  0  0
  150.1490  135.0942  156.4726 O   0  0  0  0  0  0  0  0  0  0  0  0
  148.9287  135.3788  154.6330 N   0  0  0  0  0  0  0  0  0  0  0  0
  147.8007  134.5628  155.0606 C   0  0  0  0  0  0  0  0  0  0  0  0
  146.9548  134.1340  153.8541 C   0  0  1  0  0  0  0  0  0  0  0  0
  145.8170  133.1765  154.2649 C   0  0  0  0  0  0  0  0  0  0  0  0
  144.9612  132.8248  153.1055 N   0  3  2  0  0  0  0  0  0  0  0  0
  145.5670  131.8116  152.1994 C   0  0  0  0  0  0  0  0  0  0  0  0
  145.2145  132.0502  150.7153 C   0  0  0  0  0  0  0  0  0  0  0  0
  143.7560  131.6727  150.4054 C   0  0  0  0  0  0  0  0  0  0  0  0
  146.1739  131.2747  149.8004 C   0  0  0  0  0  0  0  0  0  0  0  0
  144.4754  134.0532  152.4268 C   0  0  0  0  0  0  0  0  0  0  0  0
  145.6351  135.0119  152.0949 C   0  0  0  0  0  0  0  0  0  0  0  0
  146.3742  135.2988  153.2750 O   0  0  0  0  0  0  0  0  0  0  0  0
  151.7379  138.5586  154.7187 N   0  0  0  0  0  0  0  0  0  0  0  0
  151.1558  139.8181  154.5329 O   0  0  0  0  0  0  0  0  0  0  0  0
  148.4233  140.7980  153.1708 H   0  0  0  0  0  0  0  0  0  0  0  0
  149.6634  141.7619  153.9734 H   0  0  0  0  0  0  0  0  0  0  0  0
  148.3442  141.0633  154.9139 H   0  0  0  0  0  0  0  0  0  0  0  0
  148.5295  137.8788  154.1821 H   0  0  0  0  0  0  0  0  0  0  0  0
  148.8708  135.8090  153.7217 H   0  0  0  0  0  0  0  0  0  0  0  0
  148.1783  133.6793  155.5780 H   0  0  0  0  0  0  0  0  0  0  0  0
  147.1940  135.1211  155.7751 H   0  0  0  0  0  0  0  0  0  0  0  0
  147.6043  133.6455  153.1250 H   0  0  0  0  0  0  0  0  0  0  0  0
  146.2148  132.2747  154.7321 H   0  0  0  0  0  0  0  0  0  0  0  0
  145.1906  133.6579  155.0176 H   0  0  0  0  0  0  0  0  0  0  0  0
  146.6484  131.7904  152.3354 H   0  0  0  0  0  0  0  0  0  0  0  0
  145.2131  130.8173  152.4752 H   0  0  0  0  0  0  0  0  0  0  0  0
  145.3434  133.1065  150.4818 H   0  0  0  0  0  0  0  0  0  0  0  0
  143.5646  130.6203  150.6173 H   0  0  0  0  0  0  0  0  0  0  0  0
  143.5212  131.8470  149.3550 H   0  0  0  0  0  0  0  0  0  0  0  0
  143.0555  132.2640  150.9952 H   0  0  0  0  0  0  0  0  0  0  0  0
  146.0982  130.1992  149.9649 H   0  0  0  0  0  0  0  0  0  0  0  0
  147.2096  131.5663  149.9770 H   0  0  0  0  0  0  0  0  0  0  0  0
  145.9557  131.4657  148.7492 H   0  0  0  0  0  0  0  0  0  0  0  0
  143.9084  133.8122  151.5286 H   0  0  0  0  0  0  0  0  0  0  0  0
  143.7793  134.5564  153.0991 H   0  0  0  0  0  0  0  0  0  0  0  0
  146.2935  134.5971  151.3304 H   0  0  0  0  0  0  0  0  0  0  0  0
  145.2414  135.9458  151.6933 H   0  0  0  0  0  0  0  0  0  0  0  0
  144.1485  132.3696  153.4962 H   0  0  0  0  0  0  0  0  0  0  0  0
  1  2  1  0  0  0  0
  1 22  1  0  0  0  0
  1 23  1  0  0  0  0
  1 24  1  0  0  0  0
  2 21  1  0  0  0  0
  2  3  2  0  0  0  0
  3  4  1  0  0  0  0
  3 25  1  0  0  0  0
  4  5  1  0  0  0  0
  4 20  2  0  0  0  0
  5  6  1  0  0  0  0
  6  7  2  0  0  0  0
  6  8  1  0  0  0  0
  8  9  1  0  0  0  0
  8 26  1  0  0  0  0
  9 10  1  0  0  0  0
  9 27  1  0  0  0  0
  9 28  1  0  0  0  0
 10 19  1  0  0  0  0
 10 11  1  0  0  0  0
 10 29  1  0  0  0  0
 11 12  1  0  0  0  0
 11 30  1  0  0  0  0
 11 31  1  0  0  0  0
 12 13  1  0  0  0  0
 12 17  1  0  0  0  0
 12 45  1  0  0  0  0
 13 14  1  0  0  0  0
 13 32  1  0  0  0  0
 13 33  1  0  0  0  0
 14 15  1  0  0  0  0
 14 16  1  0  0  0  0
 14 34  1  0  0  0  0
 15 35  1  0  0  0  0
 15 36  1  0  0  0  0
 15 37  1  0  0  0  0
 16 38  1  0  0  0  0
 16 39  1  0  0  0  0
 16 40  1  0  0  0  0
 17 18  1  0  0  0  0
 17 41  1  0  0  0  0
 17 42  1  0  0  0  0
 18 19  1  0  0  0  0
 18 43  1  0  0  0  0
 18 44  1  0  0  0  0
 20 21  1  0  0  0  0
M  CHG  1   5  -1
M  CHG  1  12   1
M  END
> <s_m_source_file>
AV-unprocessed.smi

> <i_m_source_file_index>
1254

> <i_lp_mmshare_version>
43012

> <i_f3d_flags>
0

> <s_epik_input>
W0NIM11jMVtjSF1jKG5vMSlbTkhdQyg9TylbTkhdW0NIMl1bQ0BASF0yW0NIMl1OKFtDSDJdW0NIMl1PMilbQ0gyXVtDSF0oW0NIM10pW0NIM10=

> <s_epik_cmdline>
J2VwaWtfcHl0aG9uJywgJy1waCcsICc3LjAnLCAnLXRuJywgJzgnLCAnLW1hJywgJzIwMCcsICctbWV0YWxfYmluZGluZycsICctaW1hZScsICc8aW5maWxlLm1hZT4nLCAnLW9tYWUnLCAnPG91dGZpbGUubWFlPic=

> <r_epik_Ionization_Penalty>
6.33139

> <r_epik_Ionization_Penalty_Charging>
6.33128

> <r_epik_Ionization_Penalty_Neutral>
0.000104968

> <r_epik_State_Penalty>
6.32522

> <r_epik_Charging_Adjusted_Penalty>
12.6565

> <i_epik_Tot_Q>
0

> <i_epik_Tot_abs_Q>
2

> <r_epik_Metal_State_Penalty>
2.26285

> <b_epik_Metal_Only>
1

> <s_lp_Force_Field>
OPLS_2005

> <r_lp_Energy>
8.57964

> <b_lp_Chiralities_Consistent>
1

> <s_lp_Variant>
AV-unprocessed.smi:1254-8

> <Gold.Version>
5.8.1

> <Gold.Id.Protein>
6NUR|6NUR_protein|mol2

> <Gold.PLP.Fitness>
48.2001

> <Gold.PLP.PLP>
-33.8780

> <Gold.PLP.part.hbond>
-3.9503

> <Gold.PLP.part.metal>
0.0000

> <Gold.PLP.part.buried>
-7.7380

> <Gold.PLP.part.nonpolar>
-25.2651

> <Gold.PLP.part.repulsive>
0.6707

> <Gold.PLP.ligand.clash>
0.4950

> <Gold.PLP.ligand.torsion>
1.8013

> <Gold.PLP.Chemscore.Hbond>
5.9500

> <Gold.PLP.Chemscore.CHOScore>
0.0000

> <Gold.PLP.Chemscore.Metal>
0.0000

> <Gold.Chemscore.Hbonds>
donor molecule, donor type, donor heavy atom, donor atom, acceptor molecule, acceptor atom, score
      L1  H     8    26       P1  7948  1.00
      L1  H    12    45       P1 10957  1.66
      P1  H  7989  7998       L1    21  1.00
      P1  H 10752 10765       L1     5  1.46

> <Gold.PLP.Chemscore.Internal.Correction>
0.5697

> <Gold.Rescore>
     Score         DG    S(hbond)    S(metal)    S(lipo)     H(rot)  DE(clash)    DE(int)     intcor
     16.94     -20.09       3.35        0.00      66.23       1.69       0.08       3.08       ----

> <Gold.Chemscore.Fitness>
16.9376

> <Gold.Chemscore.DG>
-20.0895

> <Gold.Chemscore.ZeroCoef>
-5.4800

> <Gold.Chemscore.Hbond>
3.3513

> <Gold.Chemscore.Metal>
0.0000

> <Gold.Chemscore.Lipo>
66.2316

> <Gold.Chemscore.Internal_Hbond>
0.0000

> <Gold.Chemscore.DEClash>
0.0757

> <Gold.Chemscore.DEInternal>
3.0763

> <Gold.Chemscore.Rot>
1.6926

> <Gold.Chemscore.Internal.Correction>
   9.000000E+99

> <Gold.Chemscore.Hbonds>
donor molecule, donor type, donor heavy atom, donor atom, acceptor molecule, acceptor atom, score
      L1  H     8    26       P1  7948  0.97
      L1  H    12    45       P1 10957  0.14
      P1  H  7989  7998       L1    21  0.52
      P1  H 10752 10765       L1     5  0.68

> <Gold.Chemscore.Hbond.Weighted>
-11.1934

> <Gold.Chemscore.Metal.Weighted>
-0.0000

> <Gold.Chemscore.Lipo.Weighted>
-7.7491

> <Gold.Chemscore.Internal_Hbond.Weighted>
0.0000

> <Gold.Chemscore.DEClash.Weighted>
0.0757

> <Gold.Chemscore.DEInternal.Weighted>
3.0763

> <Gold.Chemscore.Rot.Weighted>
4.3330

> <Gold.Chemscore.Internal.Correction.Weighted>
   9.000000E+99

> <Gold.Protein.RotatedTorsions>
[ 6907 6896 6895 6894 ] final  142.26 input  -60.11 | X-H torsion
[ 7974 7965 7964 7962 ] final  -73.70 input  175.53 | X-H torsion
[ 8008 7997 7996 7995 ] final  -81.90 input   59.86 | X-H torsion
[ 10167 10162 10161 10158 ] final -123.81 input  -65.29 | X-H torsion
[ 10718 10713 10712 10709 ] final -176.03 input   66.30 | X-H torsion
[ 10763 10752 10751 10750 ] final  165.31 input  -60.55 | X-H torsion
[ 11005 11000 10999 10996 ] final -108.47 input  -57.11 | X-H torsion

> <Gold.Protein.ActiveResidues>
 VAL166  LYS551  ARG553  GLY616  TRP617  ASP618  TYR619  PRO620  LYS621  CYS622 
 ASP623  PHE694  ASN695  SER759  ASP760  ASP761  ALA762  ILE779  LEU786  VAL792 
 PHE793  MET794  SER795  GLU796  ALA797  LYS798  CYS799  TRP800  GLU811  SER814 

> <Gold.Protein.RotatedAtoms>
  152.2209  133.4983  159.5161 H   0  0  0  0  0  0  0  0  0  0  0  0  # atno 6907 bound_to 6896
  150.7012  134.1344  159.4090 H   0  0  0  0  0  0  0  0  0  0  0  0  # atno 6908 bound_to 6896
  151.9264  135.0275  160.0576 H   0  0  0  0  0  0  0  0  0  0  0  0  # atno 6909 bound_to 6896
  145.6487  140.9289  143.0996 H   0  0  0  0  0  0  0  0  0  0  0  0  # atno 7974 bound_to 7965
  154.6031  140.0641  156.9395 H   0  0  0  0  0  0  0  0  0  0  0  0  # atno 8008 bound_to 7997
  155.2099  140.3322  155.4312 H   0  0  0  0  0  0  0  0  0  0  0  0  # atno 8009 bound_to 7997
  156.2330  140.1850  156.7176 H   0  0  0  0  0  0  0  0  0  0  0  0  # atno 8010 bound_to 7997
  139.9995  143.5556  152.2309 H   0  0  0  0  0  0  0  0  0  0  0  0  # atno 10167 bound_to 10162
  156.8086  130.9578  151.3116 H   0  0  0  0  0  0  0  0  0  0  0  0  # atno 10718 bound_to 10713
  154.3221  135.2756  155.2514 H   0  0  0  0  0  0  0  0  0  0  0  0  # atno 10763 bound_to 10752
  154.4863  135.5845  153.6429 H   0  0  0  0  0  0  0  0  0  0  0  0  # atno 10764 bound_to 10752
  152.9875  135.6123  154.3407 H   0  0  0  0  0  0  0  0  0  0  0  0  # atno 10765 bound_to 10752
  141.0900  133.9072  157.2098 H   0  0  0  0  0  0  0  0  0  0  0  0  # atno 11005 bound_to 11000
  144.7130  139.8298  143.7408 LP  0  0  0  0  0  0  0  0  0  0  0  0  # atno 17320 bound_to 7965
  146.1221  139.4241  143.0221 LP  0  0  0  0  0  0  0  0  0  0  0  0  # atno 17321 bound_to 7965
  139.6282  144.7640  151.2593 LP  0  0  0  0  0  0  0  0  0  0  0  0  # atno 17342 bound_to 10162
  140.7424  143.6526  150.8235 LP  0  0  0  0  0  0  0  0  0  0  0  0  # atno 17343 bound_to 10162
  157.6517  130.8890  149.9647 LP  0  0  0  0  0  0  0  0  0  0  0  0  # atno 17370 bound_to 10713
  156.1058  130.3653  150.0136 LP  0  0  0  0  0  0  0  0  0  0  0  0  # atno 17371 bound_to 10713
  139.9724  135.0124  156.9545 LP  0  0  0  0  0  0  0  0  0  0  0  0  # atno 17394 bound_to 11000
  140.5275  134.0846  155.7307 LP  0  0  0  0  0  0  0  0  0  0  0  0  # atno 17395 bound_to 11000

$$$$
