AV-unprocessed.smi:1046|AV-procd|sdf|4552|dock8
  -GOLD-   22720 2583D 1   1.00000     0.00000
 Structure written by MMmdl.
 54 56  0  0  0  0  0  0  0  0  3 V2000
  152.8747  142.8739  161.1553 C   0  0  0  0  0  0  0  0  0  0  0  0
  152.3040  142.4174  159.8234 C   0  0  0  0  0  0  0  0  0  0  0  0
  152.3777  141.0456  159.4927 C   0  0  0  0  0  0  0  0  0  0  0  0
  151.8446  140.6587  158.2690 C   0  0  0  0  0  0  0  0  0  0  0  0
  151.7652  139.4029  157.6640 N   0  3  0  0  0  0  0  0  0  0  0  0
  151.1491  139.5186  156.4555 C   0  0  0  0  0  0  0  0  0  0  0  0
  150.8352  140.8310  156.2773 N   0  0  0  0  0  0  0  0  0  0  0  0
  150.1591  141.4865  155.1480 C   0  0  0  0  0  0  0  0  0  0  0  0
  148.8883  140.7409  154.6948 C   0  0  2  0  0  0  0  0  0  0  0  0
  149.2427  139.6774  153.8314 O   0  0  0  0  0  0  0  0  0  0  0  0
  147.9114  141.6775  153.9554 C   0  0  0  0  0  0  0  0  0  0  0  0
  146.9500  142.3462  154.8693 N   0  3  0  0  0  0  0  0  0  0  0  0
  146.5024  141.4535  155.9698 C   0  0  0  0  0  0  0  0  0  0  0  0
  145.5598  142.2090  156.9292 C   0  0  0  0  0  0  0  0  0  0  0  0
  144.3923  142.7821  156.2600 N   0  0  0  0  0  0  0  0  0  0  0  0
  143.4219  141.7648  155.8422 C   0  0  0  0  0  0  0  0  0  0  0  0
  142.0339  142.3087  155.4673 C   0  0  0  0  0  0  0  0  0  0  0  0
  141.4228  141.4331  154.5455 O   0  0  0  0  0  0  0  0  0  0  0  0
  144.8590  143.6572  155.1819 C   0  0  0  0  0  0  0  0  0  0  0  0
  145.7803  142.9447  154.1710 C   0  0  0  0  0  0  0  0  0  0  0  0
  151.2516  141.5812  157.3847 C   0  0  0  0  0  0  0  0  0  0  0  0
  151.1742  142.9374  157.6948 C   0  0  0  0  0  0  0  0  0  0  0  0
  151.7122  143.3515  158.9344 C   0  0  0  0  0  0  0  0  0  0  0  0
  151.6415  144.8252  159.2979 C   0  0  0  0  0  0  0  0  0  0  0  0
  153.2338  142.0303  161.7455 H   0  0  0  0  0  0  0  0  0  0  0  0
  152.1150  143.3904  161.7426 H   0  0  0  0  0  0  0  0  0  0  0  0
  153.7134  143.5528  160.9985 H   0  0  0  0  0  0  0  0  0  0  0  0
  152.8292  140.3290  160.1634 H   0  0  0  0  0  0  0  0  0  0  0  0
  150.9459  138.7134  155.7643 H   0  0  0  0  0  0  0  0  0  0  0  0
  149.8974  142.4929  155.4774 H   0  0  0  0  0  0  0  0  0  0  0  0
  150.8635  141.6113  154.3254 H   0  0  0  0  0  0  0  0  0  0  0  0
  148.4116  140.3140  155.5766 H   0  0  0  0  0  0  0  0  0  0  0  0
  149.6519  140.0360  153.0583 H   0  0  0  0  0  0  0  0  0  0  0  0
  148.4590  142.4384  153.3967 H   0  0  0  0  0  0  0  0  0  0  0  0
  147.3662  141.0922  153.2130 H   0  0  0  0  0  0  0  0  0  0  0  0
  146.0131  140.5700  155.5570 H   0  0  0  0  0  0  0  0  0  0  0  0
  147.3701  141.0993  156.5278 H   0  0  0  0  0  0  0  0  0  0  0  0
  145.2379  141.5449  157.7324 H   0  0  0  0  0  0  0  0  0  0  0  0
  146.1188  143.0102  157.4146 H   0  0  0  0  0  0  0  0  0  0  0  0
  143.8140  141.1776  155.0121 H   0  0  0  0  0  0  0  0  0  0  0  0
  143.2861  141.0596  156.6635 H   0  0  0  0  0  0  0  0  0  0  0  0
  141.4010  142.3926  156.3514 H   0  0  0  0  0  0  0  0  0  0  0  0
  142.0978  143.2961  155.0106 H   0  0  0  0  0  0  0  0  0  0  0  0
  141.8531  141.5276  153.7090 H   0  0  0  0  0  0  0  0  0  0  0  0
  144.0145  144.1084  154.6626 H   0  0  0  0  0  0  0  0  0  0  0  0
  145.4057  144.4930  155.6207 H   0  0  0  0  0  0  0  0  0  0  0  0
  146.1146  143.6711  153.4315 H   0  0  0  0  0  0  0  0  0  0  0  0
  145.2348  142.1743  153.6249 H   0  0  0  0  0  0  0  0  0  0  0  0
  150.7252  143.6519  157.0219 H   0  0  0  0  0  0  0  0  0  0  0  0
  151.2260  145.4181  158.4824 H   0  0  0  0  0  0  0  0  0  0  0  0
  152.6351  145.2163  159.5181 H   0  0  0  0  0  0  0  0  0  0  0  0
  151.0088  144.9718  160.1737 H   0  0  0  0  0  0  0  0  0  0  0  0
  147.4508  143.1050  155.3100 H   0  0  0  0  0  0  0  0  0  0  0  0
  152.1040  138.5293  158.0468 H   0  0  0  0  0  0  0  0  0  0  0  0
  1  2  1  0  0  0  0
  1 25  1  0  0  0  0
  1 26  1  0  0  0  0
  1 27  1  0  0  0  0
  2 23  1  0  0  0  0
  2  3  2  0  0  0  0
  3  4  1  0  0  0  0
  3 28  1  0  0  0  0
  4 21  2  0  0  0  0
  4  5  1  0  0  0  0
  5  6  2  0  0  0  0
  5 54  1  0  0  0  0
  6  7  1  0  0  0  0
  6 29  1  0  0  0  0
  7  8  1  0  0  0  0
  7 21  1  0  0  0  0
  8  9  1  0  0  0  0
  8 30  1  0  0  0  0
  8 31  1  0  0  0  0
  9 10  1  0  0  0  0
  9 11  1  0  0  0  0
  9 32  1  0  0  0  0
 10 33  1  0  0  0  0
 11 12  1  0  0  0  0
 11 34  1  0  0  0  0
 11 35  1  0  0  0  0
 12 20  1  0  0  0  0
 12 13  1  0  0  0  0
 12 53  1  0  0  0  0
 13 14  1  0  0  0  0
 13 36  1  0  0  0  0
 13 37  1  0  0  0  0
 14 15  1  0  0  0  0
 14 38  1  0  0  0  0
 14 39  1  0  0  0  0
 15 16  1  0  0  0  0
 15 19  1  0  0  0  0
 16 17  1  0  0  0  0
 16 40  1  0  0  0  0
 16 41  1  0  0  0  0
 17 18  1  0  0  0  0
 17 42  1  0  0  0  0
 17 43  1  0  0  0  0
 18 44  1  0  0  0  0
 19 20  1  0  0  0  0
 19 45  1  0  0  0  0
 19 46  1  0  0  0  0
 20 47  1  0  0  0  0
 20 48  1  0  0  0  0
 21 22  1  0  0  0  0
 22 23  2  0  0  0  0
 22 49  1  0  0  0  0
 23 24  1  0  0  0  0
 24 50  1  0  0  0  0
 24 51  1  0  0  0  0
 24 52  1  0  0  0  0
M  CHG  1   5   1
M  CHG  1  12   1
M  END
> <s_m_source_file>
AV-unprocessed.smi

> <i_m_source_file_index>
1046

> <i_lp_mmshare_version>
43012

> <i_f3d_flags>
0

> <s_epik_input>
W0NIM11jKFtjSF0xKWMoW0NIM10pW2NIXWMoYzEyKW4oW2NIXW4yKVtDSDJdW0NASF0oW09IXSlbQ0gyXU4zW0NIMl1bQ0gyXU4oW0NIMl1bQ0gyXTMpW0NIMl1bQ0gyXVtPSF0=

> <s_epik_cmdline>
J2VwaWtfcHl0aG9uJywgJy1waCcsICc3LjAnLCAnLXRuJywgJzgnLCAnLW1hJywgJzIwMCcsICctbWV0YWxfYmluZGluZycsICctaW1hZScsICc8aW5maWxlLm1hZT4nLCAnLW9tYWUnLCAnPG91dGZpbGUubWFlPic=

> <r_epik_Ionization_Penalty>
1.22056

> <r_epik_Ionization_Penalty_Charging>
1.17959

> <r_epik_Ionization_Penalty_Neutral>
0.0409743

> <r_epik_State_Penalty>
1.27074

> <r_epik_Charging_Adjusted_Penalty>
2.45032

> <i_epik_Tot_Q>
2

> <i_epik_Tot_abs_Q>
2

> <r_epik_Metal_State_Penalty>
5.26922

> <b_epik_Metal_Only>
0

> <s_lp_Force_Field>
OPLS_2005

> <r_lp_Energy>
41.2385

> <b_lp_Chiralities_Consistent>
1

> <s_lp_Variant>
AV-unprocessed.smi:1046-5

> <Gold.Version>
5.8.1

> <Gold.Id.Protein>
6NUR|6NUR_protein|mol2

> <Gold.PLP.Fitness>
56.8958

> <Gold.PLP.PLP>
-47.1652

> <Gold.PLP.part.hbond>
-3.0636

> <Gold.PLP.part.metal>
0.0000

> <Gold.PLP.part.buried>
-6.1549

> <Gold.PLP.part.nonpolar>
-37.8666

> <Gold.PLP.part.repulsive>
0.2416

> <Gold.PLP.ligand.clash>
0.0000

> <Gold.PLP.ligand.torsion>
1.1737

> <Gold.PLP.Chemscore.Hbond>
3.9920

> <Gold.PLP.Chemscore.CHOScore>
0.0000

> <Gold.PLP.Chemscore.Metal>
0.0000

> <Gold.Chemscore.Hbonds>
donor molecule, donor type, donor heavy atom, donor atom, acceptor molecule, acceptor atom, score
      L1  H    10    33       P1  7957  0.88
      L1  H    12    53       P1  8028  1.40
      L1  H    18    44       P1 10174  0.70

> <Gold.PLP.Chemscore.Internal.Correction>
0.1020

> <Gold.Rescore>
     Score         DG    S(hbond)    S(metal)    S(lipo)     H(rot)  DE(clash)    DE(int)     intcor
     16.89     -19.14       2.53        0.00     116.46       3.29       1.02       1.23       ----

> <Gold.Chemscore.Fitness>
16.8927

> <Gold.Chemscore.DG>
-19.1372

> <Gold.Chemscore.ZeroCoef>
-5.4800

> <Gold.Chemscore.Hbond>
2.5307

> <Gold.Chemscore.Metal>
0.0000

> <Gold.Chemscore.Lipo>
116.4635

> <Gold.Chemscore.Internal_Hbond>
0.0000

> <Gold.Chemscore.DEClash>
1.0170

> <Gold.Chemscore.DEInternal>
1.2274

> <Gold.Chemscore.Rot>
3.2896

> <Gold.Chemscore.Internal.Correction>
   9.000000E+99

> <Gold.Chemscore.Hbonds>
donor molecule, donor type, donor heavy atom, donor atom, acceptor molecule, acceptor atom, score
      L1  H    10    33       P1  7957  0.86
      L1  H    12    53       P1  8028  0.18
      L1  H    18    44       P1 10174  0.07

> <Gold.Chemscore.Hbond.Weighted>
-8.4524

> <Gold.Chemscore.Metal.Weighted>
-0.0000

> <Gold.Chemscore.Lipo.Weighted>
-13.6262

> <Gold.Chemscore.Internal_Hbond.Weighted>
0.0000

> <Gold.Chemscore.DEClash.Weighted>
1.0170

> <Gold.Chemscore.DEInternal.Weighted>
1.2274

> <Gold.Chemscore.Rot.Weighted>
8.4215

> <Gold.Chemscore.Internal.Correction.Weighted>
   9.000000E+99

> <Gold.Protein.RotatedTorsions>
[ 6907 6896 6895 6894 ] final -127.77 input  -60.11 | X-H torsion
[ 7974 7965 7964 7962 ] final  -32.58 input  175.53 | X-H torsion
[ 8008 7997 7996 7995 ] final  -20.43 input   59.86 | X-H torsion
[ 10167 10162 10161 10158 ] final  113.26 input  -65.29 | X-H torsion
[ 10718 10713 10712 10709 ] final  119.22 input   66.30 | X-H torsion
[ 10763 10752 10751 10750 ] final  177.14 input  -60.55 | X-H torsion
[ 11005 11000 10999 10996 ] final   -6.68 input  -57.11 | X-H torsion

> <Gold.Protein.ActiveResidues>
 VAL166  LYS551  ARG553  GLY616  TRP617  ASP618  TYR619  PRO620  LYS621  CYS622 
 ASP623  PHE694  ASN695  SER759  ASP760  ASP761  ALA762  ILE779  LEU786  VAL792 
 PHE793  MET794  SER795  GLU796  ALA797  LYS798  CYS799  TRP800  GLU811  SER814 

> <Gold.Protein.RotatedAtoms>
  150.9108  133.6999  159.2854 H   0  0  0  0  0  0  0  0  0  0  0  0  # atno 6907 bound_to 6896
  151.4487  135.1026  159.9701 H   0  0  0  0  0  0  0  0  0  0  0  0  # atno 6908 bound_to 6896
  152.4929  133.8500  159.7251 H   0  0  0  0  0  0  0  0  0  0  0  0  # atno 6909 bound_to 6896
  146.0978  140.5810  142.8834 H   0  0  0  0  0  0  0  0  0  0  0  0  # atno 7974 bound_to 7965
  154.4770  140.2062  155.9854 H   0  0  0  0  0  0  0  0  0  0  0  0  # atno 8008 bound_to 7997
  156.1105  140.3229  155.8036 H   0  0  0  0  0  0  0  0  0  0  0  0  # atno 8009 bound_to 7997
  155.4643  140.0526  157.2978 H   0  0  0  0  0  0  0  0  0  0  0  0  # atno 8010 bound_to 7997
  139.6474  144.7127  151.2115 H   0  0  0  0  0  0  0  0  0  0  0  0  # atno 10167 bound_to 10162
  157.5977  131.1055  150.7865 H   0  0  0  0  0  0  0  0  0  0  0  0  # atno 10718 bound_to 10713
  154.4905  135.2779  155.1500 H   0  0  0  0  0  0  0  0  0  0  0  0  # atno 10763 bound_to 10752
  154.3174  135.6216  153.5496 H   0  0  0  0  0  0  0  0  0  0  0  0  # atno 10764 bound_to 10752
  152.9887  135.5734  154.5325 H   0  0  0  0  0  0  0  0  0  0  0  0  # atno 10765 bound_to 10752
  140.7046  133.8960  155.8707 H   0  0  0  0  0  0  0  0  0  0  0  0  # atno 11005 bound_to 11000
  144.7409  140.4939  143.6870 LP  0  0  0  0  0  0  0  0  0  0  0  0  # atno 17320 bound_to 7965
  145.5913  139.1496  143.3180 LP  0  0  0  0  0  0  0  0  0  0  0  0  # atno 17321 bound_to 7965
  140.7521  143.6207  150.8516 LP  0  0  0  0  0  0  0  0  0  0  0  0  # atno 17342 bound_to 10162
  139.9851  143.5908  152.2929 LP  0  0  0  0  0  0  0  0  0  0  0  0  # atno 17343 bound_to 10162
  156.8272  130.5004  149.5336 LP  0  0  0  0  0  0  0  0  0  0  0  0  # atno 17370 bound_to 10713
  156.1043  130.5992  150.9945 LP  0  0  0  0  0  0  0  0  0  0  0  0  # atno 17371 bound_to 10713
  141.0135  134.0987  157.4196 LP  0  0  0  0  0  0  0  0  0  0  0  0  # atno 17394 bound_to 11000
  139.8887  135.0100  156.6639 LP  0  0  0  0  0  0  0  0  0  0  0  0  # atno 17395 bound_to 11000

$$$$
