AV-unprocessed.smi:438|AV-procd|sdf|2575|dock4
  -GOLD-   2262022553D 1   1.00000     0.00000
 Structure written by MMmdl.
 48 49  0  0  0  0  0  0  0  0  1 V2000
  145.9038  136.5113  155.7593 C   0  0  0  0  0  0  0  0  0  0  0  0
  146.1445  137.5688  154.6978 C   0  0  0  0  0  0  0  0  0  0  0  0
  146.3123  138.8286  155.1561 N   0  0  0  0  0  0  0  0  0  0  0  0
  146.5499  139.7699  154.2440 C   0  0  0  0  0  0  0  0  0  0  0  0
  146.8023  141.4132  154.8849 S   0  0  0  0  0  0  0  0  0  0  0  0
  148.4474  141.8235  154.2227 C   0  0  0  0  0  0  0  0  0  0  0  0
  149.5937  141.2862  155.0792 C   0  0  0  0  0  0  0  0  0  0  0  0
  150.0716  140.1791  154.8337 O   0  0  0  0  0  0  0  0  0  0  0  0
  150.0141  142.0791  156.0801 N   0  0  0  0  0  0  0  0  0  0  0  0
  151.0650  141.7939  157.0619 C   0  0  2  0  0  0  0  0  0  0  0  0
  150.8469  140.4306  157.7560 C   0  0  0  0  0  0  0  0  0  0  0  0
  152.0007  140.1035  158.7147 C   0  0  0  0  0  0  0  0  0  0  0  0
  152.1894  141.2244  159.7472 C   0  0  0  0  0  0  0  0  0  0  0  0
  152.4200  142.5798  159.0602 C   0  0  0  0  0  0  0  0  0  0  0  0
  151.2744  142.9384  158.0912 C   0  0  1  0  0  0  0  0  0  0  0  0
  151.5447  144.2973  157.4213 C   0  0  0  0  0  0  0  0  0  0  0  0
  146.6205  139.6134  152.9211 N   0  0  0  0  0  0  0  0  0  0  0  0
  146.4539  138.3609  152.4464 C   0  0  0  0  0  0  0  0  0  0  0  0
  146.5337  138.1752  151.0966 O   0  0  0  0  0  0  0  0  0  0  0  0
  146.2064  137.2665  153.3126 C   0  0  0  0  0  0  0  0  0  0  0  0
  146.0192  135.8530  152.7704 C   0  0  0  0  0  0  0  0  0  0  0  0
  144.8453  135.7397  151.7843 C   0  0  0  0  0  0  0  0  0  0  0  0
  143.7625  136.5426  152.2031 O   0  0  0  0  0  0  0  0  0  0  0  0
  144.9748  135.9757  155.5670 H   0  0  0  0  0  0  0  0  0  0  0  0
  145.8340  136.9542  156.7535 H   0  0  0  0  0  0  0  0  0  0  0  0
  146.7236  135.7930  155.7705 H   0  0  0  0  0  0  0  0  0  0  0  0
  148.5345  141.4452  153.2037 H   0  0  0  0  0  0  0  0  0  0  0  0
  148.5328  142.9085  154.1583 H   0  0  0  0  0  0  0  0  0  0  0  0
  149.5442  142.9669  156.1854 H   0  0  0  0  0  0  0  0  0  0  0  0
  151.9815  141.7124  156.4757 H   0  0  0  0  0  0  0  0  0  0  0  0
  149.9131  140.4319  158.3185 H   0  0  0  0  0  0  0  0  0  0  0  0
  150.7561  139.6405  157.0096 H   0  0  0  0  0  0  0  0  0  0  0  0
  151.8054  139.1587  159.2229 H   0  0  0  0  0  0  0  0  0  0  0  0
  152.9225  139.9662  158.1480 H   0  0  0  0  0  0  0  0  0  0  0  0
  151.3091  141.2843  160.3884 H   0  0  0  0  0  0  0  0  0  0  0  0
  153.0316  140.9904  160.3993 H   0  0  0  0  0  0  0  0  0  0  0  0
  152.5224  143.3570  159.8183 H   0  0  0  0  0  0  0  0  0  0  0  0
  153.3665  142.5535  158.5183 H   0  0  0  0  0  0  0  0  0  0  0  0
  150.3672  143.0421  158.6875 H   0  0  0  0  0  0  0  0  0  0  0  0
  152.4412  144.2626  156.8017 H   0  0  0  0  0  0  0  0  0  0  0  0
  151.6837  145.0811  158.1661 H   0  0  0  0  0  0  0  0  0  0  0  0
  150.7151  144.6024  156.7857 H   0  0  0  0  0  0  0  0  0  0  0  0
  145.6852  138.0644  150.6960 H   0  0  0  0  0  0  0  0  0  0  0  0
  146.9391  135.5629  152.2620 H   0  0  0  0  0  0  0  0  0  0  0  0
  145.9034  135.1327  153.5798 H   0  0  0  0  0  0  0  0  0  0  0  0
  145.1454  136.0189  150.7739 H   0  0  0  0  0  0  0  0  0  0  0  0
  144.4983  134.7071  151.7412 H   0  0  0  0  0  0  0  0  0  0  0  0
  143.6669  137.2597  151.5950 H   0  0  0  0  0  0  0  0  0  0  0  0
  1  2  1  0  0  0  0
  1 24  1  0  0  0  0
  1 25  1  0  0  0  0
  1 26  1  0  0  0  0
  2 20  1  0  0  0  0
  2  3  2  0  0  0  0
  3  4  1  0  0  0  0
  4  5  1  0  0  0  0
  4 17  2  0  0  0  0
  5  6  1  0  0  0  0
  6  7  1  0  0  0  0
  6 27  1  0  0  0  0
  6 28  1  0  0  0  0
  7  8  2  0  0  0  0
  7  9  1  0  0  0  0
  9 10  1  0  0  0  0
  9 29  1  0  0  0  0
 10 15  1  0  0  0  0
 10 11  1  0  0  0  0
 10 30  1  0  0  0  0
 11 12  1  0  0  0  0
 11 31  1  0  0  0  0
 11 32  1  0  0  0  0
 12 13  1  0  0  0  0
 12 33  1  0  0  0  0
 12 34  1  0  0  0  0
 13 14  1  0  0  0  0
 13 35  1  0  0  0  0
 13 36  1  0  0  0  0
 14 15  1  0  0  0  0
 14 37  1  0  0  0  0
 14 38  1  0  0  0  0
 15 16  1  0  0  0  0
 15 39  1  0  0  0  0
 16 40  1  0  0  0  0
 16 41  1  0  0  0  0
 16 42  1  0  0  0  0
 17 18  1  0  0  0  0
 18 19  1  0  0  0  0
 18 20  2  0  0  0  0
 19 43  1  0  0  0  0
 20 21  1  0  0  0  0
 21 22  1  0  0  0  0
 21 44  1  0  0  0  0
 21 45  1  0  0  0  0
 22 23  1  0  0  0  0
 22 46  1  0  0  0  0
 22 47  1  0  0  0  0
 23 48  1  0  0  0  0
M  END
> <s_m_source_file>
AV-unprocessed.smi

> <i_m_source_file_index>
438

> <i_lp_mmshare_version>
43012

> <i_f3d_flags>
0

> <s_epik_input>
W09IXVtDSDJdW0NIMl1jMWMoW09IXSluYyhuYzFbQ0gzXSlTW0NIMl1DKD1PKVtOSF1bQ0BASF0yW0NIMl1bQ0gyXVtDSDJdW0NIMl1bQ0BIXTJbQ0gzXQ==

> <s_epik_cmdline>
J2VwaWtfcHl0aG9uJywgJy1waCcsICc3LjAnLCAnLXRuJywgJzgnLCAnLW1hJywgJzIwMCcsICctbWV0YWxfYmluZGluZycsICctaW1hZScsICc8aW5maWxlLm1hZT4nLCAnLW9tYWUnLCAnPG91dGZpbGUubWFlPic=

> <r_lp_tautomer_probability>
0.0660145

> <r_epik_Ionization_Penalty>
2.91405

> <r_epik_Ionization_Penalty_Charging>
0

> <r_epik_Ionization_Penalty_Neutral>
2.91405

> <r_epik_State_Penalty>
2.44767

> <r_epik_Charging_Adjusted_Penalty>
2.44767

> <i_epik_Tot_Q>
0

> <i_epik_Tot_abs_Q>
0

> <r_epik_Metal_State_Penalty>
3.04288

> <b_epik_Metal_Only>
0

> <s_lp_Force_Field>
OPLS_2005

> <r_lp_Energy>
1.00415

> <b_lp_Chiralities_Consistent>
1

> <s_lp_Variant>
AV-unprocessed.smi:438-13

> <Gold.Version>
5.8.1

> <Gold.Id.Protein>
6NUR|6NUR_protein|mol2

> <Gold.PLP.Fitness>
52.1605

> <Gold.PLP.PLP>
-38.3486

> <Gold.PLP.part.hbond>
-5.1195

> <Gold.PLP.part.metal>
0.0000

> <Gold.PLP.part.buried>
-0.5418

> <Gold.PLP.part.nonpolar>
-33.4869

> <Gold.PLP.part.repulsive>
0.6864

> <Gold.PLP.ligand.clash>
0.0000

> <Gold.PLP.ligand.torsion>
0.6499

> <Gold.PLP.Chemscore.Hbond>
5.0000

> <Gold.PLP.Chemscore.CHOScore>
0.0000

> <Gold.PLP.Chemscore.Metal>
0.0000

> <Gold.Chemscore.Hbonds>
donor molecule, donor type, donor heavy atom, donor atom, acceptor molecule, acceptor atom, score
      L1  H     9    29       P1  8028  1.00
      L1  H    19    43       P1 10171  0.89
      L1  H    23    48       P1 10171  0.52
      P1  H  7954  7966       L1    19  0.96
      P1  H  7989  7998       L1     8  0.53

> <Gold.PLP.Chemscore.Internal.Correction>
0.1117

> <Gold.Rescore>
     Score         DG    S(hbond)    S(metal)    S(lipo)     H(rot)  DE(clash)    DE(int)     intcor
     18.70     -21.47       4.36        0.00      87.53       3.44       2.15       0.62       ----

> <Gold.Chemscore.Fitness>
18.7005

> <Gold.Chemscore.DG>
-21.4725

> <Gold.Chemscore.ZeroCoef>
-5.4800

> <Gold.Chemscore.Hbond>
4.3557

> <Gold.Chemscore.Metal>
0.0000

> <Gold.Chemscore.Lipo>
87.5261

> <Gold.Chemscore.Internal_Hbond>
0.0000

> <Gold.Chemscore.DEClash>
2.1511

> <Gold.Chemscore.DEInternal>
0.6210

> <Gold.Chemscore.Rot>
3.4359

> <Gold.Chemscore.Internal.Correction>
   9.000000E+99

> <Gold.Chemscore.Hbonds>
donor molecule, donor type, donor heavy atom, donor atom, acceptor molecule, acceptor atom, score
      L1  H     9    29       P1  8028  0.98
      L1  H    19    43       P1 10171  0.85
      L1  H    23    48       P1 10171  0.52
      P1  H  7954  7966       L1    19  0.84
      P1  H  7989  7998       L1     8  0.08

> <Gold.Chemscore.Hbond.Weighted>
-14.5480

> <Gold.Chemscore.Metal.Weighted>
-0.0000

> <Gold.Chemscore.Lipo.Weighted>
-10.2405

> <Gold.Chemscore.Internal_Hbond.Weighted>
0.0000

> <Gold.Chemscore.DEClash.Weighted>
2.1511

> <Gold.Chemscore.DEInternal.Weighted>
0.6210

> <Gold.Chemscore.Rot.Weighted>
8.7960

> <Gold.Chemscore.Internal.Correction.Weighted>
   9.000000E+99

> <Gold.Protein.RotatedTorsions>
[ 6907 6896 6895 6894 ] final  -51.26 input  -60.11 | X-H torsion
[ 7974 7965 7964 7962 ] final  129.36 input  175.53 | X-H torsion
[ 8008 7997 7996 7995 ] final   48.33 input   59.86 | X-H torsion
[ 10167 10162 10161 10158 ] final  -59.22 input  -65.29 | X-H torsion
[ 10718 10713 10712 10709 ] final  -90.78 input   66.30 | X-H torsion
[ 10763 10752 10751 10750 ] final   77.28 input  -60.55 | X-H torsion
[ 11005 11000 10999 10996 ] final  -46.63 input  -57.11 | X-H torsion

> <Gold.Protein.ActiveResidues>
 VAL166  LYS551  ARG553  GLY616  TRP617  ASP618  TYR619  PRO620  LYS621  CYS622 
 ASP623  PHE694  ASN695  SER759  ASP760  ASP761  ALA762  ILE779  LEU786  VAL792 
 PHE793  MET794  SER795  GLU796  ALA797  LYS798  CYS799  TRP800  GLU811  SER814 

> <Gold.Protein.RotatedAtoms>
  150.8629  134.7985  159.7095 H   0  0  0  0  0  0  0  0  0  0  0  0  # atno 6907 bound_to 6896
  152.4660  134.5071  159.9752 H   0  0  0  0  0  0  0  0  0  0  0  0  # atno 6908 bound_to 6896
  151.5172  133.3435  159.2930 H   0  0  0  0  0  0  0  0  0  0  0  0  # atno 6909 bound_to 6896
  145.0295  139.4059  143.5157 H   0  0  0  0  0  0  0  0  0  0  0  0  # atno 7974 bound_to 7965
  155.3839  140.3430  155.4248 H   0  0  0  0  0  0  0  0  0  0  0  0  # atno 8008 bound_to 7997
  156.1595  140.1596  156.8669 H   0  0  0  0  0  0  0  0  0  0  0  0  # atno 8009 bound_to 7997
  154.5126  140.0786  156.8001 H   0  0  0  0  0  0  0  0  0  0  0  0  # atno 8010 bound_to 7997
  140.6149  143.2399  151.5622 H   0  0  0  0  0  0  0  0  0  0  0  0  # atno 10167 bound_to 10162
  155.9989  130.4923  150.5374 H   0  0  0  0  0  0  0  0  0  0  0  0  # atno 10718 bound_to 10713
  153.0787  135.4920  154.8458 H   0  0  0  0  0  0  0  0  0  0  0  0  # atno 10763 bound_to 10752
  154.7122  135.3022  154.9182 H   0  0  0  0  0  0  0  0  0  0  0  0  # atno 10764 bound_to 10752
  153.9872  135.6782  153.4805 H   0  0  0  0  0  0  0  0  0  0  0  0  # atno 10765 bound_to 10752
  141.0591  133.6715  156.3182 H   0  0  0  0  0  0  0  0  0  0  0  0  # atno 11005 bound_to 11000
  146.3496  139.9836  142.8693 LP  0  0  0  0  0  0  0  0  0  0  0  0  # atno 17320 bound_to 7965
  145.1790  140.9758  143.4277 LP  0  0  0  0  0  0  0  0  0  0  0  0  # atno 17321 bound_to 7965
  139.5390  144.2699  152.1312 LP  0  0  0  0  0  0  0  0  0  0  0  0  # atno 17342 bound_to 10162
  140.1907  144.4755  150.6481 LP  0  0  0  0  0  0  0  0  0  0  0  0  # atno 17343 bound_to 10162
  157.3315  131.0700  151.1857 LP  0  0  0  0  0  0  0  0  0  0  0  0  # atno 17370 bound_to 10713
  157.2736  130.6716  149.6031 LP  0  0  0  0  0  0  0  0  0  0  0  0  # atno 17371 bound_to 10713
  140.5905  134.5655  157.5498 LP  0  0  0  0  0  0  0  0  0  0  0  0  # atno 17394 bound_to 11000
  139.9416  134.7776  156.0664 LP  0  0  0  0  0  0  0  0  0  0  0  0  # atno 17395 bound_to 11000

$$$$
