AV-unprocessed.smi:48|AV-procd|sdf|450|dock3
  -GOLD-   2262016313D 1   1.00000     0.00000
 Structure written by MMmdl.
 30 32  0  0  0  0  0  0  0  0  1 V2000
  144.8321  140.5686  154.7739 O   0  0  0  0  0  0  0  0  0  0  0  0
  146.1280  141.1218  154.6848 C   0  0  0  0  0  0  0  0  0  0  0  0
  147.1812  140.0030  154.5960 C   0  0  2  0  0  0  0  0  0  0  0  0
  147.5526  139.5505  155.8911 O   0  0  0  0  0  0  0  0  0  0  0  0
  148.7531  138.8488  155.8001 C   0  0  2  0  0  0  0  0  0  0  0  0
  149.5615  139.1338  157.0279 N   0  0  0  0  0  0  0  0  0  0  0  0
  149.2755  140.0194  158.0041 C   0  0  0  0  0  0  0  0  0  0  0  0
  150.1343  140.1152  159.0183 N   0  0  0  0  0  0  0  0  0  0  0  0
  151.0913  139.1809  158.6582 C   0  0  0  0  0  0  0  0  0  0  0  0
  152.2924  138.7529  159.2741 C   0  0  0  0  0  0  0  0  0  0  0  0
  152.8121  139.4286  160.7746 Cl  0  0  0  0  0  0  0  0  0  0  0  0
  153.0287  137.7976  158.6580 N   0  0  0  0  0  0  0  0  0  0  0  0
  152.6033  137.2915  157.4940 C   0  0  0  0  0  0  0  0  0  0  0  0
  151.5018  137.5952  156.7984 N   0  0  0  0  0  0  0  0  0  0  0  0
  150.7589  138.5572  157.4216 C   0  0  0  0  0  0  0  0  0  0  0  0
  149.4551  139.2831  154.4944 C   0  0  2  0  0  0  0  0  0  0  0  0
  150.7967  139.7198  154.6318 O   0  0  0  0  0  0  0  0  0  0  0  0
  148.5211  140.3528  153.9306 C   0  0  2  0  0  0  0  0  0  0  0  0
  148.9339  141.6683  154.2602 O   0  0  0  0  0  0  0  0  0  0  0  0
  146.7473  139.1471  154.0755 H   0  0  0  0  0  0  0  0  0  0  0  0
  148.5645  137.7749  155.8369 H   0  0  0  0  0  0  0  0  0  0  0  0
  149.4470  138.4183  153.8298 H   0  0  0  0  0  0  0  0  0  0  0  0
  148.4539  140.2891  152.8440 H   0  0  0  0  0  0  0  0  0  0  0  0
  144.4398  140.5827  153.9139 H   0  0  0  0  0  0  0  0  0  0  0  0
  146.1841  141.7973  153.8308 H   0  0  0  0  0  0  0  0  0  0  0  0
  146.3045  141.7251  155.5756 H   0  0  0  0  0  0  0  0  0  0  0  0
  148.3830  140.6270  157.9701 H   0  0  0  0  0  0  0  0  0  0  0  0
  153.2365  136.5344  157.0557 H   0  0  0  0  0  0  0  0  0  0  0  0
  151.3601  139.0540  154.2668 H   0  0  0  0  0  0  0  0  0  0  0  0
  149.3744  142.0387  153.5105 H   0  0  0  0  0  0  0  0  0  0  0  0
  1  2  1  0  0  0  0
  1 24  1  0  0  0  0
  2  3  1  0  0  0  0
  2 25  1  0  0  0  0
  2 26  1  0  0  0  0
  3 20  1  0  0  0  0
  3 18  1  0  0  0  0
  3  4  1  0  0  0  0
  4  5  1  0  0  0  0
  5 21  1  0  0  0  0
  5  6  1  0  0  0  0
  5 16  1  0  0  0  0
  6 15  1  0  0  0  0
  6  7  1  0  0  0  0
  7  8  2  0  0  0  0
  7 27  1  0  0  0  0
  8  9  1  0  0  0  0
  9 15  2  0  0  0  0
  9 10  1  0  0  0  0
 10 11  1  0  0  0  0
 10 12  2  0  0  0  0
 12 13  1  0  0  0  0
 13 14  2  0  0  0  0
 13 28  1  0  0  0  0
 14 15  1  0  0  0  0
 16 22  1  0  0  0  0
 16 17  1  0  0  0  0
 16 18  1  0  0  0  0
 17 29  1  0  0  0  0
 18 23  1  0  0  0  0
 18 19  1  0  0  0  0
 19 30  1  0  0  0  0
M  END
> <s_m_source_file>
AV-unprocessed.smi

> <i_m_source_file_index>
48

> <i_lp_mmshare_version>
43012

> <i_f3d_flags>
0

> <s_epik_input>
W09IXVtDSDJdW0NASF0xT1tDQEhdKFtDQEhdKFtPSF0pW0NAQEhdMVtPSF0pbihbY0hdbjIpYyhjMjMpbltjSF1uYzNDbA==

> <s_epik_cmdline>
J2VwaWtfcHl0aG9uJywgJy1waCcsICc3LjAnLCAnLXRuJywgJzgnLCAnLW1hJywgJzIwMCcsICctbWV0YWxfYmluZGluZycsICctaW1hZScsICc8aW5maWxlLm1hZT4nLCAnLW9tYWUnLCAnPG91dGZpbGUubWFlPic=

> <r_lp_tautomer_probability>
1

> <r_epik_Ionization_Penalty>
3.45505e-06

> <r_epik_Ionization_Penalty_Charging>
0

> <r_epik_Ionization_Penalty_Neutral>
3.45505e-06

> <r_epik_State_Penalty>
-0

> <r_epik_Charging_Adjusted_Penalty>
0

> <i_epik_Tot_Q>
0

> <i_epik_Tot_abs_Q>
0

> <r_epik_Metal_State_Penalty>
-0

> <b_epik_Metal_Only>
0

> <s_epik_Chemistry_Notes>
This compound contains an acetal/aminal-like group ( X-CH(R)-Y where X, Y are N, S, or O) that may be acid/base labile, releasing an aldehyde.

> <s_lp_Force_Field>
OPLS_2005

> <r_lp_Energy>
43.6519

> <b_lp_Chiralities_Consistent>
1

> <s_lp_Variant>
AV-unprocessed.smi:48-4

> <Gold.Version>
5.8.1

> <Gold.Id.Protein>
6NUR|6NUR_protein|mol2

> <Gold.PLP.Fitness>
38.4751

> <Gold.PLP.PLP>
-25.8185

> <Gold.PLP.part.hbond>
-5.6210

> <Gold.PLP.part.metal>
0.0000

> <Gold.PLP.part.buried>
-3.2656

> <Gold.PLP.part.nonpolar>
-17.9427

> <Gold.PLP.part.repulsive>
0.1200

> <Gold.PLP.ligand.clash>
0.0000

> <Gold.PLP.ligand.torsion>
0.3729

> <Gold.PLP.Chemscore.Hbond>
3.4696

> <Gold.PLP.Chemscore.CHOScore>
0.9976

> <Gold.PLP.Chemscore.Metal>
0.0000

> <Gold.Chemscore.Hbonds>
donor molecule, donor type, donor heavy atom, donor atom, acceptor molecule, acceptor atom, score
      L1  H     1    24       P1 10175  1.00
      P1  H  7989  7998       L1    17  0.30

> <Gold.PLP.Chemscore.Internal.Correction>
0.0006

> <Gold.Rescore>
     Score         DG    S(hbond)    S(metal)    S(lipo)     H(rot)  DE(clash)    DE(int)     intcor
     10.12     -10.91       2.86        0.00      47.96       3.80       0.00       0.79       ----

> <Gold.Chemscore.Fitness>
10.1199

> <Gold.Chemscore.DG>
-10.9055

> <Gold.Chemscore.ZeroCoef>
-5.4800

> <Gold.Chemscore.Hbond>
2.8582

> <Gold.Chemscore.Metal>
0.0000

> <Gold.Chemscore.Lipo>
47.9610

> <Gold.Chemscore.Internal_Hbond>
0.0000

> <Gold.Chemscore.DEClash>
0.0004

> <Gold.Chemscore.DEInternal>
0.7852

> <Gold.Chemscore.Rot>
3.8017

> <Gold.Chemscore.Internal.Correction>
   9.000000E+99

> <Gold.Chemscore.Hbonds>
donor molecule, donor type, donor heavy atom, donor atom, acceptor molecule, acceptor atom, score
      L1  H     1    24       P1 10175  0.99

> <Gold.Chemscore.Hbond.Weighted>
-9.5464

> <Gold.Chemscore.Metal.Weighted>
-0.0000

> <Gold.Chemscore.Lipo.Weighted>
-5.6114

> <Gold.Chemscore.Internal_Hbond.Weighted>
0.0000

> <Gold.Chemscore.DEClash.Weighted>
0.0004

> <Gold.Chemscore.DEInternal.Weighted>
0.7852

> <Gold.Chemscore.Rot.Weighted>
9.7324

> <Gold.Chemscore.Internal.Correction.Weighted>
   9.000000E+99

> <Gold.Protein.RotatedTorsions>
[ 6907 6896 6895 6894 ] final -115.00 input  -60.11 | X-H torsion
[ 7974 7965 7964 7962 ] final   30.09 input  175.53 | X-H torsion
[ 8008 7997 7996 7995 ] final  128.85 input   59.86 | X-H torsion
[ 10167 10162 10161 10158 ] final -123.60 input  -65.29 | X-H torsion
[ 10718 10713 10712 10709 ] final -102.15 input   66.30 | X-H torsion
[ 10763 10752 10751 10750 ] final  166.12 input  -60.55 | X-H torsion
[ 11005 11000 10999 10996 ] final -168.90 input  -57.11 | X-H torsion

> <Gold.Protein.ActiveResidues>
 VAL166  LYS551  ARG553  GLY616  TRP617  ASP618  TYR619  PRO620  LYS621  CYS622 
 ASP623  PHE694  ASN695  SER759  ASP760  ASP761  ALA762  ILE779  LEU786  VAL792 
 PHE793  MET794  SER795  GLU796  ALA797  LYS798  CYS799  TRP800  GLU811  SER814 

> <Gold.Protein.RotatedAtoms>
  150.7944  133.8721  159.3261 H   0  0  0  0  0  0  0  0  0  0  0  0  # atno 6907 bound_to 6896
  151.6550  135.0995  160.0177 H   0  0  0  0  0  0  0  0  0  0  0  0  # atno 6908 bound_to 6896
  152.4024  133.6798  159.6362 H   0  0  0  0  0  0  0  0  0  0  0  0  # atno 6909 bound_to 6896
  146.1632  139.6834  142.9019 H   0  0  0  0  0  0  0  0  0  0  0  0  # atno 7974 bound_to 7965
  156.2924  140.2634  156.2504 H   0  0  0  0  0  0  0  0  0  0  0  0  # atno 8008 bound_to 7997
  154.9889  140.0389  157.2329 H   0  0  0  0  0  0  0  0  0  0  0  0  # atno 8009 bound_to 7997
  154.7704  140.2777  155.6147 H   0  0  0  0  0  0  0  0  0  0  0  0  # atno 8010 bound_to 7997
  140.0018  143.5533  152.2300 H   0  0  0  0  0  0  0  0  0  0  0  0  # atno 10167 bound_to 10162
  156.0219  130.5407  150.7067 H   0  0  0  0  0  0  0  0  0  0  0  0  # atno 10718 bound_to 10713
  154.3342  135.2754  155.2456 H   0  0  0  0  0  0  0  0  0  0  0  0  # atno 10763 bound_to 10752
  154.4755  135.5872  153.6355 H   0  0  0  0  0  0  0  0  0  0  0  0  # atno 10764 bound_to 10752
  152.9863  135.6098  154.3537 H   0  0  0  0  0  0  0  0  0  0  0  0  # atno 10765 bound_to 10752
  140.5368  134.5562  157.5089 H   0  0  0  0  0  0  0  0  0  0  0  0  # atno 11005 bound_to 11000
  145.4534  141.0429  143.2792 LP  0  0  0  0  0  0  0  0  0  0  0  0  # atno 17320 bound_to 7965
  144.8056  139.6057  143.7052 LP  0  0  0  0  0  0  0  0  0  0  0  0  # atno 17321 bound_to 7965
  139.6266  144.7638  151.2625 LP  0  0  0  0  0  0  0  0  0  0  0  0  # atno 17342 bound_to 10162
  140.7416  143.6553  150.8212 LP  0  0  0  0  0  0  0  0  0  0  0  0  # atno 17343 bound_to 10162
  157.4715  131.0893  151.0637 LP  0  0  0  0  0  0  0  0  0  0  0  0  # atno 17370 bound_to 10713
  157.1096  130.6016  149.5479 LP  0  0  0  0  0  0  0  0  0  0  0  0  # atno 17371 bound_to 10713
  139.9525  134.7592  156.0416 LP  0  0  0  0  0  0  0  0  0  0  0  0  # atno 17394 bound_to 11000
  141.1250  133.6602  156.3313 LP  0  0  0  0  0  0  0  0  0  0  0  0  # atno 17395 bound_to 11000

$$$$
