AV-unprocessed.smi:249|AV-procd|sdf|1911|dock5
  -GOLD-   2262021 03D 1   1.00000     0.00000
 Structure written by MMmdl.
 64 67  0  0  0  0  0  0  0  0  2 V2000
  147.9455  142.5535  158.3548 C   0  0  0  0  0  0  0  0  0  0  0  0
  148.1931  141.6353  157.1480 C   0  0  0  0  0  0  0  0  0  0  0  0
  149.1890  142.1884  156.1831 N   0  3  1  0  0  0  0  0  0  0  0  0
  150.5170  142.4965  156.7864 C   0  0  0  0  0  0  0  0  0  0  0  0
  151.3191  141.2184  157.0998 C   0  0  0  0  0  0  0  0  0  0  0  0
  151.4775  140.3469  155.8391 C   0  0  1  0  0  0  0  0  0  0  0  0
  152.2149  139.1095  156.1101 N   0  0  0  0  0  0  0  0  0  0  0  0
  152.8255  138.3469  155.0232 C   0  0  0  0  0  0  0  0  0  0  0  0
  152.0171  138.4803  157.2976 C   0  0  0  0  0  0  0  0  0  0  0  0
  153.0851  138.2526  158.1074 N   0  0  0  0  0  0  0  0  0  0  0  0
  152.9267  137.6293  159.2786 C   0  0  0  0  0  0  0  0  0  0  0  0
  151.8053  137.1617  159.8292 N   0  0  0  0  0  0  0  0  0  0  0  0
  150.7267  137.4001  159.0304 C   0  0  0  0  0  0  0  0  0  0  0  0
  150.7412  138.0462  157.7614 C   0  0  0  0  0  0  0  0  0  0  0  0
  149.4471  138.1167  157.2560 N   0  0  0  0  0  0  0  0  0  0  0  0
  148.7147  137.5311  158.1634 C   0  0  0  0  0  0  0  0  0  0  0  0
  149.4038  137.0646  159.2590 N   0  0  0  0  0  0  0  0  0  0  0  0
  148.8397  136.3759  160.4062 C   0  0  0  0  0  0  0  0  0  0  0  0
  147.9057  135.1944  160.0319 C   0  0  1  0  0  0  0  0  0  0  0  0
  148.6952  133.9172  159.6443 C   0  0  0  0  0  0  0  0  0  0  0  0
  149.6454  134.1718  158.6302 O   0  0  0  0  0  0  0  0  0  0  0  0
  146.9113  134.9033  161.1865 C   0  0  1  0  0  0  0  0  0  0  0  0
  147.5576  134.5811  162.5242 C   0  0  0  0  0  0  0  0  0  0  0  0
  146.4126  134.8196  163.4991 C   0  0  0  0  0  0  0  0  0  0  0  0
  145.6959  135.9229  162.9627 O   0  0  0  0  0  0  0  0  0  0  0  0
  146.0188  136.0883  161.5848 C   0  0  0  0  0  0  0  0  0  0  0  0
  150.1079  140.0769  155.1877 C   0  0  0  0  0  0  0  0  0  0  0  0
  149.3588  141.3995  154.9240 C   0  0  1  0  0  0  0  0  0  0  0  0
  148.0481  141.1902  154.1442 C   0  0  0  0  0  0  0  0  0  0  0  0
  147.1077  142.1844  158.9468 H   0  0  0  0  0  0  0  0  0  0  0  0
  147.7018  143.5679  158.0376 H   0  0  0  0  0  0  0  0  0  0  0  0
  148.8062  142.6010  159.0209 H   0  0  0  0  0  0  0  0  0  0  0  0
  148.4867  140.6421  157.4869 H   0  0  0  0  0  0  0  0  0  0  0  0
  147.2310  141.5147  156.6542 H   0  0  0  0  0  0  0  0  0  0  0  0
  151.0799  143.1071  156.0792 H   0  0  0  0  0  0  0  0  0  0  0  0
  150.4160  143.1120  157.6787 H   0  0  0  0  0  0  0  0  0  0  0  0
  152.3027  141.4906  157.4846 H   0  0  0  0  0  0  0  0  0  0  0  0
  150.8266  140.6607  157.8963 H   0  0  0  0  0  0  0  0  0  0  0  0
  152.0487  140.9534  155.1376 H   0  0  0  0  0  0  0  0  0  0  0  0
  153.6934  137.7926  155.3822 H   0  0  0  0  0  0  0  0  0  0  0  0
  153.1604  138.9991  154.2177 H   0  0  0  0  0  0  0  0  0  0  0  0
  152.1117  137.6363  154.6055 H   0  0  0  0  0  0  0  0  0  0  0  0
  153.8277  137.4834  159.8561 H   0  0  0  0  0  0  0  0  0  0  0  0
  147.6453  137.4182  158.0574 H   0  0  0  0  0  0  0  0  0  0  0  0
  149.6565  136.0231  161.0372 H   0  0  0  0  0  0  0  0  0  0  0  0
  148.3021  137.1215  160.9917 H   0  0  0  0  0  0  0  0  0  0  0  0
  147.3121  135.4959  159.1673 H   0  0  0  0  0  0  0  0  0  0  0  0
  149.1938  133.4895  160.5145 H   0  0  0  0  0  0  0  0  0  0  0  0
  148.0346  133.1454  159.2531 H   0  0  0  0  0  0  0  0  0  0  0  0
  149.7110  135.1072  158.5124 H   0  0  0  0  0  0  0  0  0  0  0  0
  146.2695  134.0654  160.9077 H   0  0  0  0  0  0  0  0  0  0  0  0
  147.9438  133.5633  162.5848 H   0  0  0  0  0  0  0  0  0  0  0  0
  148.3758  135.2725  162.7316 H   0  0  0  0  0  0  0  0  0  0  0  0
  145.7516  133.9525  163.5285 H   0  0  0  0  0  0  0  0  0  0  0  0
  146.7577  135.0194  164.5136 H   0  0  0  0  0  0  0  0  0  0  0  0
  146.5518  137.0335  161.4737 H   0  0  0  0  0  0  0  0  0  0  0  0
  145.1110  136.1426  160.9837 H   0  0  0  0  0  0  0  0  0  0  0  0
  150.2559  139.5450  154.2471 H   0  0  0  0  0  0  0  0  0  0  0  0
  149.4994  139.4242  155.8135 H   0  0  0  0  0  0  0  0  0  0  0  0
  149.9920  142.0064  154.2745 H   0  0  0  0  0  0  0  0  0  0  0  0
  148.2553  140.8043  153.1457 H   0  0  0  0  0  0  0  0  0  0  0  0
  147.5034  142.1273  154.0253 H   0  0  0  0  0  0  0  0  0  0  0  0
  147.3886  140.4699  154.6286 H   0  0  0  0  0  0  0  0  0  0  0  0
  148.8061  143.0772  155.8935 H   0  0  0  0  0  0  0  0  0  0  0  0
  1  2  1  0  0  0  0
  1 30  1  0  0  0  0
  1 31  1  0  0  0  0
  1 32  1  0  0  0  0
  2  3  1  0  0  0  0
  2 33  1  0  0  0  0
  2 34  1  0  0  0  0
  3 28  1  0  0  0  0
  3  4  1  0  0  0  0
  3 64  1  0  0  0  0
  4  5  1  0  0  0  0
  4 35  1  0  0  0  0
  4 36  1  0  0  0  0
  5  6  1  0  0  0  0
  5 37  1  0  0  0  0
  5 38  1  0  0  0  0
  6  7  1  0  0  0  0
  6 27  1  0  0  0  0
  6 39  1  0  0  0  0
  7  8  1  0  0  0  0
  7  9  1  0  0  0  0
  8 40  1  0  0  0  0
  8 41  1  0  0  0  0
  8 42  1  0  0  0  0
  9 14  1  0  0  0  0
  9 10  2  0  0  0  0
 10 11  1  0  0  0  0
 11 12  2  0  0  0  0
 11 43  1  0  0  0  0
 12 13  1  0  0  0  0
 13 17  1  0  0  0  0
 13 14  2  0  0  0  0
 14 15  1  0  0  0  0
 15 16  2  0  0  0  0
 16 17  1  0  0  0  0
 16 44  1  0  0  0  0
 17 18  1  0  0  0  0
 18 19  1  0  0  0  0
 18 45  1  0  0  0  0
 18 46  1  0  0  0  0
 19 20  1  0  0  0  0
 19 22  1  0  0  0  0
 19 47  1  0  0  0  0
 20 21  1  0  0  0  0
 20 48  1  0  0  0  0
 20 49  1  0  0  0  0
 21 50  1  0  0  0  0
 22 26  1  0  0  0  0
 22 23  1  0  0  0  0
 22 51  1  0  0  0  0
 23 24  1  0  0  0  0
 23 52  1  0  0  0  0
 23 53  1  0  0  0  0
 24 25  1  0  0  0  0
 24 54  1  0  0  0  0
 24 55  1  0  0  0  0
 25 26  1  0  0  0  0
 26 56  1  0  0  0  0
 26 57  1  0  0  0  0
 27 28  1  0  0  0  0
 27 58  1  0  0  0  0
 27 59  1  0  0  0  0
 28 29  1  0  0  0  0
 28 60  1  0  0  0  0
 29 61  1  0  0  0  0
 29 62  1  0  0  0  0
 29 63  1  0  0  0  0
M  CHG  1   3   1
M  END
> <s_m_source_file>
AV-unprocessed.smi

> <i_m_source_file_index>
249

> <i_lp_mmshare_version>
43012

> <i_f3d_flags>
0

> <s_epik_input>
W0NIM11bQ0gyXU4xW0NIMl1bQ0gyXVtDQEhdKFtDSDJdW0NASF0xW0NIM10pTihbQ0gzXSljKG5bY0hdbjIpYyhjMjMpbltjSF1uM1tDSDJdW0NASF0oW0NIMl1bT0hdKVtDQEBIXTRbQ0gyXVtDSDJdT1tDSDJdNA==

> <s_epik_cmdline>
J2VwaWtfcHl0aG9uJywgJy1waCcsICc3LjAnLCAnLXRuJywgJzgnLCAnLW1hJywgJzIwMCcsICctbWV0YWxfYmluZGluZycsICctaW1hZScsICc8aW5maWxlLm1hZT4nLCAnLW9tYWUnLCAnPG91dGZpbGUubWFlPic=

> <r_lp_tautomer_probability>
1

> <r_epik_Ionization_Penalty>
0.00294688

> <r_epik_Ionization_Penalty_Charging>
0.00169971

> <r_epik_Ionization_Penalty_Neutral>
0.00124717

> <r_epik_State_Penalty>
-0

> <r_epik_Charging_Adjusted_Penalty>
0.00169971

> <i_epik_Tot_Q>
1

> <i_epik_Tot_abs_Q>
1

> <r_epik_Metal_State_Penalty>
-0

> <b_epik_Metal_Only>
0

> <s_lp_Force_Field>
OPLS_2005

> <r_lp_Energy>
53.8972

> <b_lp_Chiralities_Consistent>
1

> <s_lp_Variant>
AV-unprocessed.smi:249-14

> <Gold.Version>
5.8.1

> <Gold.Id.Protein>
6NUR|6NUR_protein|mol2

> <Gold.PLP.Fitness>
52.0835

> <Gold.PLP.PLP>
-43.7718

> <Gold.PLP.part.hbond>
-2.9036

> <Gold.PLP.part.metal>
0.0000

> <Gold.PLP.part.buried>
-2.4128

> <Gold.PLP.part.nonpolar>
-38.6172

> <Gold.PLP.part.repulsive>
0.0917

> <Gold.PLP.ligand.clash>
0.0000

> <Gold.PLP.ligand.torsion>
2.1459

> <Gold.PLP.Chemscore.Hbond>
3.9920

> <Gold.PLP.Chemscore.CHOScore>
0.0000

> <Gold.PLP.Chemscore.Metal>
0.0000

> <Gold.Chemscore.Hbonds>
donor molecule, donor type, donor heavy atom, donor atom, acceptor molecule, acceptor atom, score
      L1  H     3    64       P1  8028  2.00
      P1  H  6896  6908       L1    21  0.50
      P1  H  6896  6909       L1    12  0.85

> <Gold.PLP.Chemscore.Internal.Correction>
0.6276

> <Gold.Rescore>
     Score         DG    S(hbond)    S(metal)    S(lipo)     H(rot)  DE(clash)    DE(int)     intcor
     10.21     -14.87       1.51        0.00      95.17       2.65       0.02       4.64       ----

> <Gold.Chemscore.Fitness>
10.2144

> <Gold.Chemscore.DG>
-14.8717

> <Gold.Chemscore.ZeroCoef>
-5.4800

> <Gold.Chemscore.Hbond>
1.5104

> <Gold.Chemscore.Metal>
0.0000

> <Gold.Chemscore.Lipo>
95.1716

> <Gold.Chemscore.Internal_Hbond>
0.0000

> <Gold.Chemscore.DEClash>
0.0158

> <Gold.Chemscore.DEInternal>
4.6415

> <Gold.Chemscore.Rot>
2.6515

> <Gold.Chemscore.Internal.Correction>
   9.000000E+99

> <Gold.Chemscore.Hbonds>
donor molecule, donor type, donor heavy atom, donor atom, acceptor molecule, acceptor atom, score
      L1  H     3    64       P1  8028  0.97
      P1  H  6896  6908       L1    21  0.07
      P1  H  6896  6909       L1    12  0.14

> <Gold.Chemscore.Hbond.Weighted>
-5.0446

> <Gold.Chemscore.Metal.Weighted>
-0.0000

> <Gold.Chemscore.Lipo.Weighted>
-11.1351

> <Gold.Chemscore.Internal_Hbond.Weighted>
0.0000

> <Gold.Chemscore.DEClash.Weighted>
0.0158

> <Gold.Chemscore.DEInternal.Weighted>
4.6415

> <Gold.Chemscore.Rot.Weighted>
6.7880

> <Gold.Chemscore.Internal.Correction.Weighted>
   9.000000E+99

> <Gold.Protein.RotatedTorsions>
[ 6907 6896 6895 6894 ] final  118.61 input  -60.11 | X-H torsion
[ 7974 7965 7964 7962 ] final -106.17 input  175.53 | X-H torsion
[ 8008 7997 7996 7995 ] final   98.82 input   59.86 | X-H torsion
[ 10167 10162 10161 10158 ] final   31.86 input  -65.29 | X-H torsion
[ 10718 10713 10712 10709 ] final -108.30 input   66.30 | X-H torsion
[ 10763 10752 10751 10750 ] final -158.02 input  -60.55 | X-H torsion
[ 11005 11000 10999 10996 ] final -107.07 input  -57.11 | X-H torsion

> <Gold.Protein.ActiveResidues>
 VAL166  LYS551  ARG553  GLY616  TRP617  ASP618  TYR619  PRO620  LYS621  CYS622 
 ASP623  PHE694  ASN695  SER759  ASP760  ASP761  ALA762  ILE779  LEU786  VAL792 
 PHE793  MET794  SER795  GLU796  ALA797  LYS798  CYS799  TRP800  GLU811  SER814 

> <Gold.Protein.RotatedAtoms>
  152.4531  133.7668  159.6776 H   0  0  0  0  0  0  0  0  0  0  0  0  # atno 6907 bound_to 6896
  150.8448  133.7868  159.3053 H   0  0  0  0  0  0  0  0  0  0  0  0  # atno 6908 bound_to 6896
  151.5481  135.1070  159.9995 H   0  0  0  0  0  0  0  0  0  0  0  0  # atno 6909 bound_to 6896
  145.2212  140.9135  143.3258 H   0  0  0  0  0  0  0  0  0  0  0  0  # atno 7974 bound_to 7965
  156.1043  140.3238  155.7984 H   0  0  0  0  0  0  0  0  0  0  0  0  # atno 8008 bound_to 7997
  155.4783  140.0552  157.2988 H   0  0  0  0  0  0  0  0  0  0  0  0  # atno 8009 bound_to 7997
  154.4717  140.2014  155.9993 H   0  0  0  0  0  0  0  0  0  0  0  0  # atno 8010 bound_to 7997
  140.4550  144.0991  150.6200 H   0  0  0  0  0  0  0  0  0  0  0  0  # atno 10167 bound_to 10162
  156.0479  130.5706  150.7942 H   0  0  0  0  0  0  0  0  0  0  0  0  # atno 10718 bound_to 10713
  154.7590  135.3112  154.8415 H   0  0  0  0  0  0  0  0  0  0  0  0  # atno 10763 bound_to 10752
  153.9181  135.6798  153.4753 H   0  0  0  0  0  0  0  0  0  0  0  0  # atno 10764 bound_to 10752
  153.1189  135.4832  154.9093 H   0  0  0  0  0  0  0  0  0  0  0  0  # atno 10765 bound_to 10752
  141.0973  133.8948  157.1932 H   0  0  0  0  0  0  0  0  0  0  0  0  # atno 11005 bound_to 11000
  144.9763  139.3828  143.6284 LP  0  0  0  0  0  0  0  0  0  0  0  0  # atno 17320 bound_to 7965
  146.3375  139.8884  142.8813 LP  0  0  0  0  0  0  0  0  0  0  0  0  # atno 17321 bound_to 7965
  140.4161  143.2633  151.9773 LP  0  0  0  0  0  0  0  0  0  0  0  0  # atno 17342 bound_to 10162
  139.4800  144.5872  151.7833 LP  0  0  0  0  0  0  0  0  0  0  0  0  # atno 17343 bound_to 10162
  157.5374  131.0939  150.9874 LP  0  0  0  0  0  0  0  0  0  0  0  0  # atno 17370 bound_to 10713
  157.0165  130.5657  149.5326 LP  0  0  0  0  0  0  0  0  0  0  0  0  # atno 17371 bound_to 10713
  139.9813  135.0097  156.9756 LP  0  0  0  0  0  0  0  0  0  0  0  0  # atno 17394 bound_to 11000
  140.5109  134.1003  155.7270 LP  0  0  0  0  0  0  0  0  0  0  0  0  # atno 17395 bound_to 11000

$$$$
