AV-unprocessed.smi:275|AV-procd|sdf|2062|dock6
  -GOLD-   2262021313D 1   1.00000     0.00000
 Structure written by MMmdl.
 65 69  0  0  0  0  0  0  0  0  1 V2000
  147.9395  135.4141  154.4399 C   0  0  0  0  0  0  0  0  0  0  0  0
  148.5579  134.0084  154.5922 C   0  0  0  0  0  0  0  0  0  0  0  0
  147.4971  132.9346  154.2994 C   0  0  0  0  0  0  0  0  0  0  0  0
  149.2712  133.7160  155.9313 C   0  0  2  0  0  0  0  0  0  0  0  0
  150.5790  134.3436  156.0793 N   0  0  0  0  0  0  0  0  0  0  0  0
  150.5738  135.6518  156.6319 C   0  0  0  0  0  0  0  0  0  0  0  0
  149.9095  135.8053  157.8050 N   0  0  0  0  0  0  0  0  0  0  0  0
  149.8497  136.9913  158.4169 C   0  0  0  0  0  0  0  0  0  0  0  0
  150.3785  138.1533  158.0341 N   0  0  0  0  0  0  0  0  0  0  0  0
  151.0509  138.0180  156.8570 C   0  0  0  0  0  0  0  0  0  0  0  0
  151.1974  136.8207  156.0987 C   0  0  0  0  0  0  0  0  0  0  0  0
  151.9531  137.0822  154.9602 N   0  0  0  0  0  0  0  0  0  0  0  0
  152.2355  138.3534  155.0417 C   0  0  0  0  0  0  0  0  0  0  0  0
  151.7248  138.9944  156.1465 N   0  0  0  0  0  0  0  0  0  0  0  0
  151.8723  140.3984  156.4881 C   0  0  0  0  0  0  0  0  0  0  0  0
  150.6210  140.9901  157.1838 C   0  0  2  0  0  0  0  0  0  0  0  0
  149.4693  141.2831  156.1916 C   0  0  0  0  0  0  0  0  0  0  0  0
  149.9304  141.9913  155.0590 O   0  0  0  0  0  0  0  0  0  0  0  0
  150.9781  142.2244  158.0502 C   0  0  2  0  0  0  0  0  0  0  0  0
  151.3784  143.4601  157.2635 C   0  0  0  0  0  0  0  0  0  0  0  0
  152.0966  144.2959  158.3175 C   0  0  0  0  0  0  0  0  0  0  0  0
  152.7043  143.3618  159.2027 O   0  0  0  0  0  0  0  0  0  0  0  0
  152.2153  142.0509  158.9376 C   0  0  0  0  0  0  0  0  0  0  0  0
  151.0142  133.2865  156.9801 C   0  0  0  0  0  0  0  0  0  0  0  0
  149.9678  132.3833  156.3007 C   0  0  0  0  0  0  0  0  0  0  0  0
  149.1421  131.4813  157.2342 C   0  0  0  0  0  0  0  0  0  0  0  0
  149.9387  130.2910  157.7914 C   0  0  0  0  0  0  0  0  0  0  0  0
  150.5027  129.4286  156.6574 C   0  0  0  0  0  0  0  0  0  0  0  0
  151.3199  130.2806  155.6805 C   0  0  0  0  0  0  0  0  0  0  0  0
  150.5124  131.4864  155.1686 C   0  0  0  0  0  0  0  0  0  0  0  0
  147.2257  135.6351  155.2338 H   0  0  0  0  0  0  0  0  0  0  0  0
  147.4004  135.4935  153.4957 H   0  0  0  0  0  0  0  0  0  0  0  0
  148.6883  136.2015  154.4250 H   0  0  0  0  0  0  0  0  0  0  0  0
  149.3034  133.9120  153.8020 H   0  0  0  0  0  0  0  0  0  0  0  0
  146.6837  132.9711  155.0245 H   0  0  0  0  0  0  0  0  0  0  0  0
  147.9281  131.9337  154.3341 H   0  0  0  0  0  0  0  0  0  0  0  0
  147.0628  133.0682  153.3084 H   0  0  0  0  0  0  0  0  0  0  0  0
  148.6226  133.9864  156.7654 H   0  0  0  0  0  0  0  0  0  0  0  0
  149.2989  137.0108  159.3457 H   0  0  0  0  0  0  0  0  0  0  0  0
  152.8195  138.8637  154.2895 H   0  0  0  0  0  0  0  0  0  0  0  0
  152.7487  140.4896  157.1298 H   0  0  0  0  0  0  0  0  0  0  0  0
  152.0985  140.9546  155.5774 H   0  0  0  0  0  0  0  0  0  0  0  0
  150.2470  140.2225  157.8632 H   0  0  0  0  0  0  0  0  0  0  0  0
  148.9944  140.3604  155.8585 H   0  0  0  0  0  0  0  0  0  0  0  0
  148.6827  141.8654  156.6709 H   0  0  0  0  0  0  0  0  0  0  0  0
  149.5936  142.8736  155.0982 H   0  0  0  0  0  0  0  0  0  0  0  0
  150.1296  142.4837  158.6856 H   0  0  0  0  0  0  0  0  0  0  0  0
  152.0690  143.1957  156.4613 H   0  0  0  0  0  0  0  0  0  0  0  0
  150.5307  143.9864  156.8244 H   0  0  0  0  0  0  0  0  0  0  0  0
  152.8329  144.9720  157.8826 H   0  0  0  0  0  0  0  0  0  0  0  0
  151.3799  144.8927  158.8829 H   0  0  0  0  0  0  0  0  0  0  0  0
  151.9929  141.5227  159.8651 H   0  0  0  0  0  0  0  0  0  0  0  0
  152.9940  141.4966  158.4119 H   0  0  0  0  0  0  0  0  0  0  0  0
  152.0488  132.9819  156.8218 H   0  0  0  0  0  0  0  0  0  0  0  0
  150.8054  133.4777  158.0328 H   0  0  0  0  0  0  0  0  0  0  0  0
  148.7531  132.0608  158.0724 H   0  0  0  0  0  0  0  0  0  0  0  0
  148.2638  131.1085  156.7056 H   0  0  0  0  0  0  0  0  0  0  0  0
  150.7543  130.6558  158.4168 H   0  0  0  0  0  0  0  0  0  0  0  0
  149.3012  129.6849  158.4357 H   0  0  0  0  0  0  0  0  0  0  0  0
  151.1202  128.6277  157.0651 H   0  0  0  0  0  0  0  0  0  0  0  0
  149.6825  128.9477  156.1230 H   0  0  0  0  0  0  0  0  0  0  0  0
  152.2261  130.6314  156.1754 H   0  0  0  0  0  0  0  0  0  0  0  0
  151.6475  129.6688  154.8396 H   0  0  0  0  0  0  0  0  0  0  0  0
  149.6924  131.1323  154.5428 H   0  0  0  0  0  0  0  0  0  0  0  0
  151.1723  132.0582  154.5171 H   0  0  0  0  0  0  0  0  0  0  0  0
  1  2  1  0  0  0  0
  1 31  1  0  0  0  0
  1 32  1  0  0  0  0
  1 33  1  0  0  0  0
  2  3  1  0  0  0  0
  2  4  1  0  0  0  0
  2 34  1  0  0  0  0
  3 35  1  0  0  0  0
  3 36  1  0  0  0  0
  3 37  1  0  0  0  0
  4 25  1  0  0  0  0
  4  5  1  0  0  0  0
  4 38  1  0  0  0  0
  5  6  1  0  0  0  0
  5 24  1  0  0  0  0
  6 11  1  0  0  0  0
  6  7  2  0  0  0  0
  7  8  1  0  0  0  0
  8  9  2  0  0  0  0
  8 39  1  0  0  0  0
  9 10  1  0  0  0  0
 10 14  1  0  0  0  0
 10 11  2  0  0  0  0
 11 12  1  0  0  0  0
 12 13  2  0  0  0  0
 13 14  1  0  0  0  0
 13 40  1  0  0  0  0
 14 15  1  0  0  0  0
 15 16  1  0  0  0  0
 15 41  1  0  0  0  0
 15 42  1  0  0  0  0
 16 17  1  0  0  0  0
 16 19  1  0  0  0  0
 16 43  1  0  0  0  0
 17 18  1  0  0  0  0
 17 44  1  0  0  0  0
 17 45  1  0  0  0  0
 18 46  1  0  0  0  0
 19 23  1  0  0  0  0
 19 20  1  0  0  0  0
 19 47  1  0  0  0  0
 20 21  1  0  0  0  0
 20 48  1  0  0  0  0
 20 49  1  0  0  0  0
 21 22  1  0  0  0  0
 21 50  1  0  0  0  0
 21 51  1  0  0  0  0
 22 23  1  0  0  0  0
 23 52  1  0  0  0  0
 23 53  1  0  0  0  0
 24 25  1  0  0  0  0
 24 54  1  0  0  0  0
 24 55  1  0  0  0  0
 25 30  1  0  0  0  0
 25 26  1  0  0  0  0
 26 27  1  0  0  0  0
 26 56  1  0  0  0  0
 26 57  1  0  0  0  0
 27 28  1  0  0  0  0
 27 58  1  0  0  0  0
 27 59  1  0  0  0  0
 28 29  1  0  0  0  0
 28 60  1  0  0  0  0
 28 61  1  0  0  0  0
 29 30  1  0  0  0  0
 29 62  1  0  0  0  0
 29 63  1  0  0  0  0
 30 64  1  0  0  0  0
 30 65  1  0  0  0  0
M  END
> <s_m_source_file>
AV-unprocessed.smi

> <i_m_source_file_index>
275

> <i_lp_mmshare_version>
43012

> <i_f3d_flags>
0

> <s_epik_input>
W0NIMl0xW0NIMl1bQ0gyXVtDSDJdW0NIMl1DMTJbQ0BIXShbQ0hdKFtDSDNdKVtDSDNdKU4oW0NIMl0yKWMobltjSF1uMyljKGMzNCluW2NIXW40W0NIMl1bQ0BIXShbQ0gyXVtPSF0pW0NAQEhdNVtDSDJdW0NIMl1PW0NIMl01

> <s_epik_cmdline>
J2VwaWtfcHl0aG9uJywgJy1waCcsICc3LjAnLCAnLXRuJywgJzgnLCAnLW1hJywgJzIwMCcsICctbWV0YWxfYmluZGluZycsICctaW1hZScsICc8aW5maWxlLm1hZT4nLCAnLW9tYWUnLCAnPG91dGZpbGUubWFlPic=

> <r_lp_tautomer_probability>
1

> <r_epik_Ionization_Penalty>
0.00375122

> <r_epik_Ionization_Penalty_Charging>
0

> <r_epik_Ionization_Penalty_Neutral>
0.00375122

> <r_epik_State_Penalty>
0.00260593

> <r_epik_Charging_Adjusted_Penalty>
0.00260593

> <i_epik_Tot_Q>
0

> <i_epik_Tot_abs_Q>
0

> <r_epik_Metal_State_Penalty>
-0

> <b_epik_Metal_Only>
0

> <s_lp_Force_Field>
OPLS_2005

> <r_lp_Energy>
69.4255

> <b_lp_Chiralities_Consistent>
1

> <s_lp_Variant>
AV-unprocessed.smi:275-1

> <Gold.Version>
5.8.1

> <Gold.Id.Protein>
6NUR|6NUR_protein|mol2

> <Gold.PLP.Fitness>
46.7834

> <Gold.PLP.PLP>
-41.1350

> <Gold.PLP.part.hbond>
-3.0000

> <Gold.PLP.part.metal>
0.0000

> <Gold.PLP.part.buried>
-6.8579

> <Gold.PLP.part.nonpolar>
-32.4013

> <Gold.PLP.part.repulsive>
0.1510

> <Gold.PLP.ligand.clash>
0.0000

> <Gold.PLP.ligand.torsion>
1.0417

> <Gold.PLP.Chemscore.Hbond>
2.3890

> <Gold.PLP.Chemscore.CHOScore>
0.0000

> <Gold.PLP.Chemscore.Metal>
0.0000

> <Gold.Chemscore.Hbonds>
donor molecule, donor type, donor heavy atom, donor atom, acceptor molecule, acceptor atom, score
      L1  H    18    46       P1  8028  0.96
      P1  H  6896  6907       L1     7  0.25
      P1  H 10752 10764       L1    12  0.98

> <Gold.PLP.Chemscore.Internal.Correction>
0.5649

> <Gold.Rescore>
     Score         DG    S(hbond)    S(metal)    S(lipo)     H(rot)  DE(clash)    DE(int)     intcor
     14.35     -17.25       1.86        0.00     102.97       2.54       0.02       2.88       ----

> <Gold.Chemscore.Fitness>
14.3518

> <Gold.Chemscore.DG>
-17.2505

> <Gold.Chemscore.ZeroCoef>
-5.4800

> <Gold.Chemscore.Hbond>
1.8620

> <Gold.Chemscore.Metal>
0.0000

> <Gold.Chemscore.Lipo>
102.9733

> <Gold.Chemscore.Internal_Hbond>
0.0000

> <Gold.Chemscore.DEClash>
0.0234

> <Gold.Chemscore.DEInternal>
2.8753

> <Gold.Chemscore.Rot>
2.5377

> <Gold.Chemscore.Internal.Correction>
   9.000000E+99

> <Gold.Chemscore.Hbonds>
donor molecule, donor type, donor heavy atom, donor atom, acceptor molecule, acceptor atom, score
      L1  H    18    46       P1  8028  0.91
      P1  H  6896  6907       L1     7  0.09
      P1  H 10752 10764       L1    12  0.72

> <Gold.Chemscore.Hbond.Weighted>
-6.2192

> <Gold.Chemscore.Metal.Weighted>
-0.0000

> <Gold.Chemscore.Lipo.Weighted>
-12.0479

> <Gold.Chemscore.Internal_Hbond.Weighted>
0.0000

> <Gold.Chemscore.DEClash.Weighted>
0.0234

> <Gold.Chemscore.DEInternal.Weighted>
2.8753

> <Gold.Chemscore.Rot.Weighted>
6.4966

> <Gold.Chemscore.Internal.Correction.Weighted>
   9.000000E+99

> <Gold.Protein.RotatedTorsions>
[ 6907 6896 6895 6894 ] final  -85.79 input  -60.11 | X-H torsion
[ 7974 7965 7964 7962 ] final  155.83 input  175.53 | X-H torsion
[ 8008 7997 7996 7995 ] final -139.60 input   59.86 | X-H torsion
[ 10167 10162 10161 10158 ] final   40.20 input  -65.29 | X-H torsion
[ 10718 10713 10712 10709 ] final   67.42 input   66.30 | X-H torsion
[ 10763 10752 10751 10750 ] final  -66.28 input  -60.55 | X-H torsion
[ 11005 11000 10999 10996 ] final  -25.81 input  -57.11 | X-H torsion

> <Gold.Protein.ActiveResidues>
 VAL166  LYS551  ARG553  GLY616  TRP617  ASP618  TYR619  PRO620  LYS621  CYS622 
 ASP623  PHE694  ASN695  SER759  ASP760  ASP761  ALA762  ILE779  LEU786  VAL792 
 PHE793  MET794  SER795  GLU796  ALA797  LYS798  CYS799  TRP800  GLU811  SER814 

> <Gold.Protein.RotatedAtoms>
  150.6869  134.3151  159.4762 H   0  0  0  0  0  0  0  0  0  0  0  0  # atno 6907 bound_to 6896
  152.1033  134.9324  160.0578 H   0  0  0  0  0  0  0  0  0  0  0  0  # atno 6908 bound_to 6896
  152.0595  133.4020  159.4448 H   0  0  0  0  0  0  0  0  0  0  0  0  # atno 6909 bound_to 6896
  144.8001  139.7121  143.6185 H   0  0  0  0  0  0  0  0  0  0  0  0  # atno 7974 bound_to 7965
  155.4475  140.0536  157.3004 H   0  0  0  0  0  0  0  0  0  0  0  0  # atno 8008 bound_to 7997
  154.4791  140.2074  155.9762 H   0  0  0  0  0  0  0  0  0  0  0  0  # atno 8009 bound_to 7997
  156.1179  140.3193  155.8170 H   0  0  0  0  0  0  0  0  0  0  0  0  # atno 8010 bound_to 7997
  140.3765  144.2036  150.6131 H   0  0  0  0  0  0  0  0  0  0  0  0  # atno 10167 bound_to 10162
  157.6229  130.9320  150.0240 H   0  0  0  0  0  0  0  0  0  0  0  0  # atno 10718 bound_to 10713
  154.3575  135.6123  153.5674 H   0  0  0  0  0  0  0  0  0  0  0  0  # atno 10763 bound_to 10752
  152.9795  135.5807  154.4672 H   0  0  0  0  0  0  0  0  0  0  0  0  # atno 10764 bound_to 10752
  154.4404  135.2850  155.1829 H   0  0  0  0  0  0  0  0  0  0  0  0  # atno 10765 bound_to 10752
  140.8972  133.7548  156.0496 H   0  0  0  0  0  0  0  0  0  0  0  0  # atno 11005 bound_to 11000
  146.2280  139.5758  142.9574 LP  0  0  0  0  0  0  0  0  0  0  0  0  # atno 17320 bound_to 7965
  145.5575  141.0407  143.2244 LP  0  0  0  0  0  0  0  0  0  0  0  0  # atno 17321 bound_to 7965
  140.4981  143.2326  151.8719 LP  0  0  0  0  0  0  0  0  0  0  0  0  # atno 17342 bound_to 10162
  139.4799  144.5090  151.8958 LP  0  0  0  0  0  0  0  0  0  0  0  0  # atno 17343 bound_to 10162
  156.1385  130.3642  149.9620 LP  0  0  0  0  0  0  0  0  0  0  0  0  # atno 17370 bound_to 10713
  156.7666  130.9170  151.3643 LP  0  0  0  0  0  0  0  0  0  0  0  0  # atno 17371 bound_to 10713
  140.8275  134.3217  157.5360 LP  0  0  0  0  0  0  0  0  0  0  0  0  # atno 17394 bound_to 11000
  139.8737  134.9344  156.3607 LP  0  0  0  0  0  0  0  0  0  0  0  0  # atno 17395 bound_to 11000

$$$$
