AV-unprocessed.smi:1586|AV-procd|sdf|6381|dock6
  -GOLD-   22720 7 13D 1   1.00000     0.00000
 Structure written by MMmdl.
 46 47  0  0  0  0  0  0  0  0  3 V2000
  144.0337  132.0990  150.0568 C   0  0  0  0  0  0  0  0  0  0  0  0
  144.1060  133.4569  150.7704 C   0  0  0  0  0  0  0  0  0  0  0  0
  145.3385  134.1807  150.4497 N   0  0  0  0  0  0  0  0  0  0  0  0
  145.4656  135.5023  151.0747 C   0  0  0  0  0  0  0  0  0  0  0  0
  145.6812  135.4076  152.5991 C   0  0  0  0  0  0  0  0  0  0  0  0
  146.8966  134.5988  152.8979 N   0  3  0  0  0  0  0  0  0  0  0  0
  147.3378  134.5519  154.3264 C   0  0  2  0  0  0  0  0  0  0  0  0
  148.6763  133.7957  154.5211 C   0  0  0  0  0  0  0  0  0  0  0  0
  146.1844  134.0482  155.2381 C   0  0  0  0  0  0  0  0  0  0  0  0
  146.6149  133.9604  156.6347 N   0  5  0  0  0  0  0  0  0  0  0  0
  147.0540  135.0127  157.3797 C   0  0  0  0  0  0  0  0  0  0  0  0
  147.5498  136.0681  156.9672 O   0  0  0  0  0  0  0  0  0  0  0  0
  146.9049  134.8018  158.7001 N   0  0  0  0  0  0  0  0  0  0  0  0
  147.2461  135.6576  159.7807 C   0  0  0  0  0  0  0  0  0  0  0  0
  147.0219  135.2535  161.1239 C   0  0  0  0  0  0  0  0  0  0  0  0
  147.4700  136.3226  161.8472 C   0  0  0  0  0  0  0  0  0  0  0  0
  147.5435  136.5987  163.3098 C   0  0  0  0  0  0  0  0  0  0  0  0
  147.9313  137.2966  161.0173 O   0  0  0  0  0  0  0  0  0  0  0  0
  147.7847  136.8648  159.6939 N   0  0  0  0  0  0  0  0  0  0  0  0
  146.7800  133.2591  152.2697 C   0  0  0  0  0  0  0  0  0  0  0  0
  146.5382  133.3961  150.7516 C   0  0  0  0  0  0  0  0  0  0  0  0
  143.1793  131.5255  150.4166 H   0  0  0  0  0  0  0  0  0  0  0  0
  144.9295  131.5055  150.2427 H   0  0  0  0  0  0  0  0  0  0  0  0
  143.9149  132.2083  148.9790 H   0  0  0  0  0  0  0  0  0  0  0  0
  143.2193  134.0487  150.5462 H   0  0  0  0  0  0  0  0  0  0  0  0
  144.0876  133.2710  151.8451 H   0  0  0  0  0  0  0  0  0  0  0  0
  146.3152  136.0158  150.6226 H   0  0  0  0  0  0  0  0  0  0  0  0
  144.5944  136.1170  150.8518 H   0  0  0  0  0  0  0  0  0  0  0  0
  145.7933  136.4152  152.9999 H   0  0  0  0  0  0  0  0  0  0  0  0
  144.8018  134.9805  153.0806 H   0  0  0  0  0  0  0  0  0  0  0  0
  147.5215  135.5864  154.6208 H   0  0  0  0  0  0  0  0  0  0  0  0
  149.0604  133.9083  155.5366 H   0  0  0  0  0  0  0  0  0  0  0  0
  149.4450  134.1891  153.8560 H   0  0  0  0  0  0  0  0  0  0  0  0
  148.5901  132.7255  154.3254 H   0  0  0  0  0  0  0  0  0  0  0  0
  145.3295  134.7172  155.1269 H   0  0  0  0  0  0  0  0  0  0  0  0
  145.8366  133.0834  154.8689 H   0  0  0  0  0  0  0  0  0  0  0  0
  146.4927  133.9176  158.9578 H   0  0  0  0  0  0  0  0  0  0  0  0
  146.6010  134.3317  161.4968 H   0  0  0  0  0  0  0  0  0  0  0  0
  146.9223  135.8996  163.8699 H   0  0  0  0  0  0  0  0  0  0  0  0
  147.1988  137.6088  163.5318 H   0  0  0  0  0  0  0  0  0  0  0  0
  148.5685  136.5036  163.6685 H   0  0  0  0  0  0  0  0  0  0  0  0
  147.7038  132.7003  152.4227 H   0  0  0  0  0  0  0  0  0  0  0  0
  145.9857  132.6851  152.7479 H   0  0  0  0  0  0  0  0  0  0  0  0
  146.4620  132.4114  150.2892 H   0  0  0  0  0  0  0  0  0  0  0  0
  147.3978  133.8837  150.2898 H   0  0  0  0  0  0  0  0  0  0  0  0
  147.6583  135.0498  152.4115 H   0  0  0  0  0  0  0  0  0  0  0  0
  1  2  1  0  0  0  0
  1 22  1  0  0  0  0
  1 23  1  0  0  0  0
  1 24  1  0  0  0  0
  2  3  1  0  0  0  0
  2 25  1  0  0  0  0
  2 26  1  0  0  0  0
  3 21  1  0  0  0  0
  3  4  1  0  0  0  0
  4  5  1  0  0  0  0
  4 27  1  0  0  0  0
  4 28  1  0  0  0  0
  5  6  1  0  0  0  0
  5 29  1  0  0  0  0
  5 30  1  0  0  0  0
  6  7  1  0  0  0  0
  6 20  1  0  0  0  0
  6 46  1  0  0  0  0
  7  8  1  0  0  0  0
  7  9  1  0  0  0  0
  7 31  1  0  0  0  0
  8 32  1  0  0  0  0
  8 33  1  0  0  0  0
  8 34  1  0  0  0  0
  9 10  1  0  0  0  0
  9 35  1  0  0  0  0
  9 36  1  0  0  0  0
 10 11  1  0  0  0  0
 11 12  2  0  0  0  0
 11 13  1  0  0  0  0
 13 14  1  0  0  0  0
 13 37  1  0  0  0  0
 14 19  2  0  0  0  0
 14 15  1  0  0  0  0
 15 16  2  0  0  0  0
 15 38  1  0  0  0  0
 16 17  1  0  0  0  0
 16 18  1  0  0  0  0
 17 39  1  0  0  0  0
 17 40  1  0  0  0  0
 17 41  1  0  0  0  0
 18 19  1  0  0  0  0
 20 21  1  0  0  0  0
 20 42  1  0  0  0  0
 20 43  1  0  0  0  0
 21 44  1  0  0  0  0
 21 45  1  0  0  0  0
M  CHG  1   6   1
M  CHG  1  10  -1
M  END
> <s_m_source_file>
AV-unprocessed.smi

> <i_m_source_file_index>
1586

> <i_lp_mmshare_version>
43012

> <i_f3d_flags>
0

> <s_epik_input>
W0NIM11bQ0gyXU4xW0NIMl1bQ0gyXU4oW0NIMl1bQ0gyXTEpW0NASF0oW0NIM10pW0NIMl1bTkhdQyg9TylbTkhdYzJbY0hdYyhbQ0gzXSlvbjI=

> <s_epik_cmdline>
J2VwaWtfcHl0aG9uJywgJy1waCcsICc3LjAnLCAnLXRuJywgJzgnLCAnLW1hJywgJzIwMCcsICctbWV0YWxfYmluZGluZycsICctaW1hZScsICc8aW5maWxlLm1hZT4nLCAnLW9tYWUnLCAnPG91dGZpbGUubWFlPic=

> <r_epik_Ionization_Penalty>
6.72969

> <r_epik_Ionization_Penalty_Charging>
6.72741

> <r_epik_Ionization_Penalty_Neutral>
0.00227419

> <r_epik_State_Penalty>
7.72748

> <r_epik_Charging_Adjusted_Penalty>
14.4549

> <i_epik_Tot_Q>
0

> <i_epik_Tot_abs_Q>
2

> <r_epik_Metal_State_Penalty>
3.65268

> <b_epik_Metal_Only>
1

> <s_lp_Force_Field>
OPLS_2005

> <r_lp_Energy>
18.0395

> <b_lp_Chiralities_Consistent>
1

> <s_lp_Variant>
AV-unprocessed.smi:1586-9

> <Gold.Version>
5.8.1

> <Gold.Id.Protein>
6NUR|6NUR_protein|mol2

> <Gold.PLP.Fitness>
42.8587

> <Gold.PLP.PLP>
-31.9931

> <Gold.PLP.part.hbond>
-3.0000

> <Gold.PLP.part.metal>
0.0000

> <Gold.PLP.part.buried>
-5.0828

> <Gold.PLP.part.nonpolar>
-25.1304

> <Gold.PLP.part.repulsive>
0.9273

> <Gold.PLP.ligand.clash>
0.0000

> <Gold.PLP.ligand.torsion>
0.2160

> <Gold.PLP.Chemscore.Hbond>
3.6800

> <Gold.PLP.Chemscore.CHOScore>
0.0000

> <Gold.PLP.Chemscore.Metal>
0.0000

> <Gold.Chemscore.Hbonds>
donor molecule, donor type, donor heavy atom, donor atom, acceptor molecule, acceptor atom, score
      L1  H     6    46       P1  7948  2.00
      P1  H  6931  6943       L1    18  0.88
      P1  H  6934  6947       L1    18  0.74

> <Gold.PLP.Chemscore.Internal.Correction>
0.2576

> <Gold.Rescore>
     Score         DG    S(hbond)    S(metal)    S(lipo)     H(rot)  DE(clash)    DE(int)     intcor
     15.03     -16.65       2.01        0.00      75.83       1.73       0.05       1.57       ----

> <Gold.Chemscore.Fitness>
15.0337

> <Gold.Chemscore.DG>
-16.6546

> <Gold.Chemscore.ZeroCoef>
-5.4800

> <Gold.Chemscore.Hbond>
2.0116

> <Gold.Chemscore.Metal>
0.0000

> <Gold.Chemscore.Lipo>
75.8299

> <Gold.Chemscore.Internal_Hbond>
0.0000

> <Gold.Chemscore.DEClash>
0.0504

> <Gold.Chemscore.DEInternal>
1.5705

> <Gold.Chemscore.Rot>
1.7250

> <Gold.Chemscore.Internal.Correction>
   9.000000E+99

> <Gold.Chemscore.Hbonds>
donor molecule, donor type, donor heavy atom, donor atom, acceptor molecule, acceptor atom, score
      L1  H     6    46       P1  7948  0.97
      P1  H  6931  6943       L1    18  0.56
      P1  H  6934  6947       L1    18  0.26

> <Gold.Chemscore.Hbond.Weighted>
-6.7186

> <Gold.Chemscore.Metal.Weighted>
-0.0000

> <Gold.Chemscore.Lipo.Weighted>
-8.8721

> <Gold.Chemscore.Internal_Hbond.Weighted>
0.0000

> <Gold.Chemscore.DEClash.Weighted>
0.0504

> <Gold.Chemscore.DEInternal.Weighted>
1.5705

> <Gold.Chemscore.Rot.Weighted>
4.4161

> <Gold.Chemscore.Internal.Correction.Weighted>
   9.000000E+99

> <Gold.Protein.RotatedTorsions>
[ 6907 6896 6895 6894 ] final  102.51 input  -60.11 | X-H torsion
[ 7974 7965 7964 7962 ] final  124.09 input  175.53 | X-H torsion
[ 8008 7997 7996 7995 ] final   90.94 input   59.86 | X-H torsion
[ 10167 10162 10161 10158 ] final   33.54 input  -65.29 | X-H torsion
[ 10718 10713 10712 10709 ] final -114.40 input   66.30 | X-H torsion
[ 10763 10752 10751 10750 ] final -122.70 input  -60.55 | X-H torsion
[ 11005 11000 10999 10996 ] final  130.62 input  -57.11 | X-H torsion

> <Gold.Protein.ActiveResidues>
 VAL166  LYS551  ARG553  GLY616  TRP617  ASP618  TYR619  PRO620  LYS621  CYS622 
 ASP623  PHE694  ASN695  SER759  ASP760  ASP761  ALA762  ILE779  LEU786  VAL792 
 PHE793  MET794  SER795  GLU796  ALA797  LYS798  CYS799  TRP800  GLU811  SER814 

> <Gold.Protein.RotatedAtoms>
  152.5322  133.9965  159.7874 H   0  0  0  0  0  0  0  0  0  0  0  0  # atno 6907 bound_to 6896
  151.0192  133.5885  159.2680 H   0  0  0  0  0  0  0  0  0  0  0  0  # atno 6908 bound_to 6896
  151.2931  135.0754  159.9265 H   0  0  0  0  0  0  0  0  0  0  0  0  # atno 6909 bound_to 6896
  145.0884  139.3605  143.4873 H   0  0  0  0  0  0  0  0  0  0  0  0  # atno 7974 bound_to 7965
  156.0179  140.3343  155.7008 H   0  0  0  0  0  0  0  0  0  0  0  0  # atno 8008 bound_to 7997
  155.6065  140.0661  157.2736 H   0  0  0  0  0  0  0  0  0  0  0  0  # atno 8009 bound_to 7997
  154.4305  140.1801  156.1215 H   0  0  0  0  0  0  0  0  0  0  0  0  # atno 8010 bound_to 7997
  140.4398  144.1205  150.6172 H   0  0  0  0  0  0  0  0  0  0  0  0  # atno 10167 bound_to 10162
  156.0828  130.6025  150.8770 H   0  0  0  0  0  0  0  0  0  0  0  0  # atno 10718 bound_to 10713
  154.8694  135.4123  154.2825 H   0  0  0  0  0  0  0  0  0  0  0  0  # atno 10763 bound_to 10752
  153.3715  135.7008  153.6640 H   0  0  0  0  0  0  0  0  0  0  0  0  # atno 10764 bound_to 10752
  153.5499  135.3631  155.2727 H   0  0  0  0  0  0  0  0  0  0  0  0  # atno 10765 bound_to 10752
  139.9682  134.9585  156.9320 H   0  0  0  0  0  0  0  0  0  0  0  0  # atno 11005 bound_to 11000
  146.3531  140.0707  142.8623 LP  0  0  0  0  0  0  0  0  0  0  0  0  # atno 17320 bound_to 7965
  145.1095  140.9396  143.4665 LP  0  0  0  0  0  0  0  0  0  0  0  0  # atno 17321 bound_to 7965
  140.4332  143.2559  151.9569 LP  0  0  0  0  0  0  0  0  0  0  0  0  # atno 17342 bound_to 10162
  139.4789  144.5724  151.8066 LP  0  0  0  0  0  0  0  0  0  0  0  0  # atno 17343 bound_to 10162
  157.5951  131.0943  150.9055 LP  0  0  0  0  0  0  0  0  0  0  0  0  # atno 17370 bound_to 10713
  156.9223  130.5319  149.5279 LP  0  0  0  0  0  0  0  0  0  0  0  0  # atno 17371 bound_to 10713
  140.5350  134.0776  155.7326 LP  0  0  0  0  0  0  0  0  0  0  0  0  # atno 17394 bound_to 11000
  141.1362  133.9217  157.2428 LP  0  0  0  0  0  0  0  0  0  0  0  0  # atno 17395 bound_to 11000

$$$$
