AV-unprocessed.smi:1082|AV-procd|sdf|4714|dock2
  -GOLD-   22720 3243D 1   1.00000     0.00000
 Structure written by MMmdl.
 48 50  0  0  0  0  0  0  0  0  4 V2000
  151.6330  138.1112  158.8255 O   0  0  0  0  0  0  0  0  0  0  0  0
  151.0734  137.9912  157.7297 C   0  0  0  0  0  0  0  0  0  0  0  0
  150.8737  136.8515  157.0161 N   0  5  0  0  0  0  0  0  0  0  0  0
  149.7471  136.6209  156.1088 C   0  0  0  0  0  0  0  0  0  0  0  0
  149.7434  135.1511  155.6410 C   0  0  0  0  0  0  0  0  0  0  0  0
  148.7047  134.8728  154.6128 N   0  3  0  0  0  0  0  0  0  0  0  0
  148.7845  133.5210  154.0096 C   0  0  0  0  0  0  0  0  0  0  0  0
  147.3433  133.0289  153.8155 C   0  0  0  0  0  0  0  0  0  0  0  0
  146.4753  134.2628  154.0403 C   0  0  0  0  0  0  0  0  0  0  0  0
  147.2979  135.0844  155.0262 C   0  0  0  0  0  0  0  0  0  0  0  0
  150.5895  139.0743  157.0982 N   0  0  0  0  0  0  0  0  0  0  0  0
  150.6963  140.4363  157.4921 C   0  0  0  0  0  0  0  0  0  0  0  0
  151.6648  140.8394  158.4453 C   0  0  0  0  0  0  0  0  0  0  0  0
  151.7076  142.1775  158.8795 C   0  0  0  0  0  0  0  0  0  0  0  0
  150.7684  143.0886  158.3660 C   0  0  0  0  0  0  0  0  0  0  0  0
  149.8498  142.6699  157.4709 N   0  3  0  0  0  0  0  0  0  0  0  0
  149.7670  141.3989  157.0030 C   0  0  0  0  0  0  0  0  0  0  0  0
  148.7581  141.1076  156.0566 N   0  0  0  0  0  0  0  0  0  0  0  0
  148.9718  141.4563  154.6550 C   0  0  0  0  0  0  0  0  0  0  0  0
  147.6041  141.8688  154.1000 C   0  0  0  0  0  0  0  0  0  0  0  0
  146.6122  141.2204  155.0612 C   0  0  0  0  0  0  0  0  0  0  0  0
  147.3518  141.2928  156.3944 C   0  0  0  0  0  0  0  0  0  0  0  0
  148.7968  136.8364  156.5971 H   0  0  0  0  0  0  0  0  0  0  0  0
  149.7787  137.2641  155.2284 H   0  0  0  0  0  0  0  0  0  0  0  0
  150.7259  134.9292  155.2211 H   0  0  0  0  0  0  0  0  0  0  0  0
  149.6177  134.4778  156.4896 H   0  0  0  0  0  0  0  0  0  0  0  0
  149.3139  133.5904  153.0589 H   0  0  0  0  0  0  0  0  0  0  0  0
  149.3341  132.8250  154.6452 H   0  0  0  0  0  0  0  0  0  0  0  0
  147.1815  132.5777  152.8362 H   0  0  0  0  0  0  0  0  0  0  0  0
  147.1099  132.2758  154.5693 H   0  0  0  0  0  0  0  0  0  0  0  0
  146.3607  134.8123  153.1049 H   0  0  0  0  0  0  0  0  0  0  0  0
  145.4802  134.0211  154.4150 H   0  0  0  0  0  0  0  0  0  0  0  0
  147.1457  134.7038  156.0375 H   0  0  0  0  0  0  0  0  0  0  0  0
  147.0224  136.1397  155.0153 H   0  0  0  0  0  0  0  0  0  0  0  0
  150.2385  138.9125  156.1656 H   0  0  0  0  0  0  0  0  0  0  0  0
  152.3637  140.1304  158.8638 H   0  0  0  0  0  0  0  0  0  0  0  0
  152.4424  142.4953  159.6045 H   0  0  0  0  0  0  0  0  0  0  0  0
  150.7204  144.1312  158.6449 H   0  0  0  0  0  0  0  0  0  0  0  0
  149.7051  142.2555  154.5362 H   0  0  0  0  0  0  0  0  0  0  0  0
  149.3393  140.5766  154.1256 H   0  0  0  0  0  0  0  0  0  0  0  0
  147.5017  142.9539  154.1465 H   0  0  0  0  0  0  0  0  0  0  0  0
  147.4577  141.5620  153.0639 H   0  0  0  0  0  0  0  0  0  0  0  0
  145.6448  141.7231  155.0827 H   0  0  0  0  0  0  0  0  0  0  0  0
  146.4489  140.1789  154.7800 H   0  0  0  0  0  0  0  0  0  0  0  0
  147.0048  140.5298  157.0921 H   0  0  0  0  0  0  0  0  0  0  0  0
  147.1955  142.2725  156.8478 H   0  0  0  0  0  0  0  0  0  0  0  0
  148.8816  135.5198  153.8567 H   0  0  0  0  0  0  0  0  0  0  0  0
  149.1809  143.3541  157.1177 H   0  0  0  0  0  0  0  0  0  0  0  0
  1  2  2  0  0  0  0
  2  3  1  0  0  0  0
  2 11  1  0  0  0  0
  3  4  1  0  0  0  0
  4  5  1  0  0  0  0
  4 23  1  0  0  0  0
  4 24  1  0  0  0  0
  5  6  1  0  0  0  0
  5 25  1  0  0  0  0
  5 26  1  0  0  0  0
  6 10  1  0  0  0  0
  6  7  1  0  0  0  0
  6 47  1  0  0  0  0
  7  8  1  0  0  0  0
  7 27  1  0  0  0  0
  7 28  1  0  0  0  0
  8  9  1  0  0  0  0
  8 29  1  0  0  0  0
  8 30  1  0  0  0  0
  9 10  1  0  0  0  0
  9 31  1  0  0  0  0
  9 32  1  0  0  0  0
 10 33  1  0  0  0  0
 10 34  1  0  0  0  0
 11 12  1  0  0  0  0
 11 35  1  0  0  0  0
 12 17  1  0  0  0  0
 12 13  2  0  0  0  0
 13 14  1  0  0  0  0
 13 36  1  0  0  0  0
 14 15  2  0  0  0  0
 14 37  1  0  0  0  0
 15 16  1  0  0  0  0
 15 38  1  0  0  0  0
 16 17  2  0  0  0  0
 16 48  1  0  0  0  0
 17 18  1  0  0  0  0
 18 22  1  0  0  0  0
 18 19  1  0  0  0  0
 19 20  1  0  0  0  0
 19 39  1  0  0  0  0
 19 40  1  0  0  0  0
 20 21  1  0  0  0  0
 20 41  1  0  0  0  0
 20 42  1  0  0  0  0
 21 22  1  0  0  0  0
 21 43  1  0  0  0  0
 21 44  1  0  0  0  0
 22 45  1  0  0  0  0
 22 46  1  0  0  0  0
M  CHG  1   3  -1
M  CHG  1   6   1
M  CHG  1  16   1
M  END
> <s_m_source_file>
AV-unprocessed.smi

> <i_m_source_file_index>
1082

> <i_lp_mmshare_version>
43012

> <i_f3d_flags>
0

> <s_epik_input>
W0NIMl0xW0NIMl1bQ0gyXVtDSDJdTjFbQ0gyXVtDSDJdW05IXUMoPU8pW05IXWMyW2NIXVtjSF1bY0hdbmMyTjNbQ0gyXVtDSDJdW0NIMl1bQ0gyXTM=

> <s_epik_cmdline>
J2VwaWtfcHl0aG9uJywgJy1waCcsICc3LjAnLCAnLXRuJywgJzgnLCAnLW1hJywgJzIwMCcsICctbWV0YWxfYmluZGluZycsICctaW1hZScsICc8aW5maWxlLm1hZT4nLCAnLW9tYWUnLCAnPG91dGZpbGUubWFlPic=

> <r_lp_tautomer_probability>
0.999994

> <r_epik_Ionization_Penalty>
8.55934

> <r_epik_Ionization_Penalty_Charging>
8.55934

> <r_epik_Ionization_Penalty_Neutral>
3.77642e-06

> <r_epik_State_Penalty>
8.06887

> <r_epik_Charging_Adjusted_Penalty>
16.6282

> <i_epik_Tot_Q>
1

> <i_epik_Tot_abs_Q>
3

> <r_epik_Metal_State_Penalty>
4.05607

> <b_epik_Metal_Only>
1

> <s_lp_Force_Field>
OPLS_2005

> <r_lp_Energy>
53.4939

> <b_lp_Chiralities_Consistent>
1

> <s_lp_Variant>
AV-unprocessed.smi:1082-3

> <Gold.Version>
5.8.1

> <Gold.Id.Protein>
6NUR|6NUR_protein|mol2

> <Gold.PLP.Fitness>
41.5783

> <Gold.PLP.PLP>
-30.3869

> <Gold.PLP.part.hbond>
-2.0000

> <Gold.PLP.part.metal>
0.0000

> <Gold.PLP.part.buried>
-4.0966

> <Gold.PLP.part.nonpolar>
-23.6627

> <Gold.PLP.part.repulsive>
0.1140

> <Gold.PLP.ligand.clash>
0.0000

> <Gold.PLP.ligand.torsion>
0.6185

> <Gold.PLP.Chemscore.Hbond>
3.9200

> <Gold.PLP.Chemscore.CHOScore>
0.0000

> <Gold.PLP.Chemscore.Metal>
0.0000

> <Gold.Chemscore.Hbonds>
donor molecule, donor type, donor heavy atom, donor atom, acceptor molecule, acceptor atom, score
      L1  H     6    47       P1  7948  1.66
      L1  H    16    48       P1  8028  1.76

> <Gold.PLP.Chemscore.Internal.Correction>
0.6686

> <Gold.Rescore>
     Score         DG    S(hbond)    S(metal)    S(lipo)     H(rot)  DE(clash)    DE(int)     intcor
     14.53     -16.75       1.91        0.00      76.92       1.60       0.14       2.08       ----

> <Gold.Chemscore.Fitness>
14.5286

> <Gold.Chemscore.DG>
-16.7500

> <Gold.Chemscore.ZeroCoef>
-5.4800

> <Gold.Chemscore.Hbond>
1.9060

> <Gold.Chemscore.Metal>
0.0000

> <Gold.Chemscore.Lipo>
76.9190

> <Gold.Chemscore.Internal_Hbond>
0.0000

> <Gold.Chemscore.DEClash>
0.1418

> <Gold.Chemscore.DEInternal>
2.0795

> <Gold.Chemscore.Rot>
1.5998

> <Gold.Chemscore.Internal.Correction>
   9.000000E+99

> <Gold.Chemscore.Hbonds>
donor molecule, donor type, donor heavy atom, donor atom, acceptor molecule, acceptor atom, score
      L1  H     6    47       P1  7948  0.72
      L1  H    16    48       P1  8028  0.65

> <Gold.Chemscore.Hbond.Weighted>
-6.3661

> <Gold.Chemscore.Metal.Weighted>
-0.0000

> <Gold.Chemscore.Lipo.Weighted>
-8.9995

> <Gold.Chemscore.Internal_Hbond.Weighted>
0.0000

> <Gold.Chemscore.DEClash.Weighted>
0.1418

> <Gold.Chemscore.DEInternal.Weighted>
2.0795

> <Gold.Chemscore.Rot.Weighted>
4.0956

> <Gold.Chemscore.Internal.Correction.Weighted>
   9.000000E+99

> <Gold.Protein.RotatedTorsions>
[ 6907 6896 6895 6894 ] final  -76.33 input  -60.11 | X-H torsion
[ 7974 7965 7964 7962 ] final   90.45 input  175.53 | X-H torsion
[ 8008 7997 7996 7995 ] final  118.49 input   59.86 | X-H torsion
[ 10167 10162 10161 10158 ] final   34.01 input  -65.29 | X-H torsion
[ 10718 10713 10712 10709 ] final    6.23 input   66.30 | X-H torsion
[ 10763 10752 10751 10750 ] final  -34.48 input  -60.55 | X-H torsion
[ 11005 11000 10999 10996 ] final  -38.26 input  -57.11 | X-H torsion

> <Gold.Protein.ActiveResidues>
 VAL166  LYS551  ARG553  GLY616  TRP617  ASP618  TYR619  PRO620  LYS621  CYS622 
 ASP623  PHE694  ASN695  SER759  ASP760  ASP761  ALA762  ILE779  LEU786  VAL792 
 PHE793  MET794  SER795  GLU796  ALA797  LYS798  CYS799  TRP800  GLU811  SER814 

> <Gold.Protein.RotatedAtoms>
  150.7031  134.4588  159.5370 H   0  0  0  0  0  0  0  0  0  0  0  0  # atno 6907 bound_to 6896
  152.2266  134.8359  160.0488 H   0  0  0  0  0  0  0  0  0  0  0  0  # atno 6908 bound_to 6896
  151.9190  133.3545  159.3927 H   0  0  0  0  0  0  0  0  0  0  0  0  # atno 6909 bound_to 6896
  145.5189  139.2279  143.2683 H   0  0  0  0  0  0  0  0  0  0  0  0  # atno 7974 bound_to 7965
  156.2549  140.2873  156.0843 H   0  0  0  0  0  0  0  0  0  0  0  0  # atno 8008 bound_to 7997
  155.1532  140.0398  157.2843 H   0  0  0  0  0  0  0  0  0  0  0  0  # atno 8009 bound_to 7997
  154.6445  140.2530  155.7290 H   0  0  0  0  0  0  0  0  0  0  0  0  # atno 8010 bound_to 7997
  140.4355  144.1263  150.6165 H   0  0  0  0  0  0  0  0  0  0  0  0  # atno 10167 bound_to 10162
  156.9191  130.5784  149.5647 H   0  0  0  0  0  0  0  0  0  0  0  0  # atno 10718 bound_to 10713
  153.8475  135.6852  153.4796 H   0  0  0  0  0  0  0  0  0  0  0  0  # atno 10763 bound_to 10752
  153.1417  135.4654  154.9504 H   0  0  0  0  0  0  0  0  0  0  0  0  # atno 10764 bound_to 10752
  154.7817  135.3271  154.7922 H   0  0  0  0  0  0  0  0  0  0  0  0  # atno 10765 bound_to 10752
  141.0014  133.6953  156.2030 H   0  0  0  0  0  0  0  0  0  0  0  0  # atno 11005 bound_to 11000
  146.2119  140.6000  142.9056 LP  0  0  0  0  0  0  0  0  0  0  0  0  # atno 17320 bound_to 7965
  144.7687  140.5588  143.6685 LP  0  0  0  0  0  0  0  0  0  0  0  0  # atno 17321 bound_to 7965
  140.4379  143.2539  151.9512 LP  0  0  0  0  0  0  0  0  0  0  0  0  # atno 17342 bound_to 10162
  139.4787  144.5683  151.8130 LP  0  0  0  0  0  0  0  0  0  0  0  0  # atno 17343 bound_to 10162
  156.0500  130.5570  150.8967 LP  0  0  0  0  0  0  0  0  0  0  0  0  # atno 17370 bound_to 10713
  157.5919  131.0944  150.9104 LP  0  0  0  0  0  0  0  0  0  0  0  0  # atno 17371 bound_to 10713
  140.6882  134.4694  157.5589 LP  0  0  0  0  0  0  0  0  0  0  0  0  # atno 17394 bound_to 11000
  139.9041  134.8489  156.1777 LP  0  0  0  0  0  0  0  0  0  0  0  0  # atno 17395 bound_to 11000

$$$$
