AV-unprocessed.smi:2834|AV-procd|sdf|10917|dock9
  -GOLD-   2272015363D 1   1.00000     0.00000
 Structure written by MMmdl.
 35 36  0  0  0  0  0  0  0  0  1 V2000
  140.0729  141.3949  153.9563 C   0  0  0  0  0  0  0  0  0  0  0  0
  139.9301  139.8573  153.9405 C   0  0  2  0  0  0  0  0  0  0  0  0
  141.1273  139.2381  153.3602 N   0  0  0  0  0  0  0  0  0  0  0  0
  141.3903  137.9258  153.2469 C   0  0  0  0  0  0  0  0  0  0  0  0
  140.6219  137.0374  153.6152 O   0  0  0  0  0  0  0  0  0  0  0  0
  142.5913  137.7191  152.6824 N   0  0  0  0  0  0  0  0  0  0  0  0
  143.2195  136.4737  152.4284 C   0  0  0  0  0  0  0  0  0  0  0  0
  142.8154  135.2340  152.9882 C   0  0  0  0  0  0  0  0  0  0  0  0
  143.5857  134.2433  152.5647 N   0  0  0  0  0  0  0  0  0  0  0  0
  144.4858  134.8273  151.7352 N   0  0  0  0  0  0  0  0  0  0  0  0
  145.4931  134.0133  151.0795 C   0  0  0  0  0  0  0  0  0  0  0  0
  144.8924  132.7690  150.4050 C   0  0  0  0  0  0  0  0  0  0  0  0
  144.1261  132.1226  151.2830 F   0  0  0  0  0  0  0  0  0  0  0  0
  144.1421  133.1167  149.3594 F   0  0  0  0  0  0  0  0  0  0  0  0
  145.8598  131.9469  149.9978 F   0  0  0  0  0  0  0  0  0  0  0  0
  144.2912  136.1902  151.6301 C   0  0  0  0  0  0  0  0  0  0  0  0
  138.6967  139.4380  153.1269 C   0  0  0  0  0  0  0  0  0  0  0  0
  137.8776  138.5736  154.0811 C   0  0  0  0  0  0  0  0  0  0  0  0
  138.2122  139.0958  155.3528 O   0  0  0  0  0  0  0  0  0  0  0  0
  139.6158  139.2941  155.3438 C   0  0  0  0  0  0  0  0  0  0  0  0
  139.1729  141.8700  154.3482 H   0  0  0  0  0  0  0  0  0  0  0  0
  140.2426  141.7856  152.9526 H   0  0  0  0  0  0  0  0  0  0  0  0
  140.9039  141.7209  154.5820 H   0  0  0  0  0  0  0  0  0  0  0  0
  141.8296  139.8779  153.0193 H   0  0  0  0  0  0  0  0  0  0  0  0
  143.1181  138.5389  152.4194 H   0  0  0  0  0  0  0  0  0  0  0  0
  142.0056  135.0231  153.6711 H   0  0  0  0  0  0  0  0  0  0  0  0
  146.0043  134.6314  150.3404 H   0  0  0  0  0  0  0  0  0  0  0  0
  146.2442  133.7203  151.8148 H   0  0  0  0  0  0  0  0  0  0  0  0
  144.9182  136.8120  151.0083 H   0  0  0  0  0  0  0  0  0  0  0  0
  138.1069  140.3099  152.8405 H   0  0  0  0  0  0  0  0  0  0  0  0
  138.9370  138.9020  152.2074 H   0  0  0  0  0  0  0  0  0  0  0  0
  136.8059  138.6319  153.8890 H   0  0  0  0  0  0  0  0  0  0  0  0
  138.1835  137.5276  154.0213 H   0  0  0  0  0  0  0  0  0  0  0  0
  140.0956  138.3274  155.5086 H   0  0  0  0  0  0  0  0  0  0  0  0
  139.9255  139.9584  156.1514 H   0  0  0  0  0  0  0  0  0  0  0  0
  1  2  1  0  0  0  0
  1 21  1  0  0  0  0
  1 22  1  0  0  0  0
  1 23  1  0  0  0  0
  2 20  1  0  0  0  0
  2  3  1  0  0  0  0
  2 17  1  0  0  0  0
  3  4  1  0  0  0  0
  3 24  1  0  0  0  0
  4  5  2  0  0  0  0
  4  6  1  0  0  0  0
  6  7  1  0  0  0  0
  6 25  1  0  0  0  0
  7 16  2  0  0  0  0
  7  8  1  0  0  0  0
  8  9  2  0  0  0  0
  8 26  1  0  0  0  0
  9 10  1  0  0  0  0
 10 11  1  0  0  0  0
 10 16  1  0  0  0  0
 11 12  1  0  0  0  0
 11 27  1  0  0  0  0
 11 28  1  0  0  0  0
 12 13  1  0  0  0  0
 12 14  1  0  0  0  0
 12 15  1  0  0  0  0
 16 29  1  0  0  0  0
 17 18  1  0  0  0  0
 17 30  1  0  0  0  0
 17 31  1  0  0  0  0
 18 19  1  0  0  0  0
 18 32  1  0  0  0  0
 18 33  1  0  0  0  0
 19 20  1  0  0  0  0
 20 34  1  0  0  0  0
 20 35  1  0  0  0  0
M  END
> <s_m_source_file>
AV-unprocessed.smi

> <i_m_source_file_index>
2834

> <i_lp_mmshare_version>
43012

> <i_f3d_flags>
0

> <s_epik_input>
W0NIMl0xT1tDSDJdW0NIMl1bQ0BAXTEoW0NIM10pW05IXUMoPU8pW05IXWMyW2NIXW5uKFtjSF0yKVtDSDJdQyhGKShGKUY=

> <s_epik_cmdline>
J2VwaWtfcHl0aG9uJywgJy1waCcsICc3LjAnLCAnLXRuJywgJzgnLCAnLW1hJywgJzIwMCcsICctbWV0YWxfYmluZGluZycsICctaW1hZScsICc8aW5maWxlLm1hZT4nLCAnLW9tYWUnLCAnPG91dGZpbGUubWFlPic=

> <r_lp_tautomer_probability>
1

> <r_epik_Ionization_Penalty>
3.3002e-05

> <r_epik_Ionization_Penalty_Charging>
0

> <r_epik_Ionization_Penalty_Neutral>
3.3002e-05

> <r_epik_State_Penalty>
-0

> <r_epik_Charging_Adjusted_Penalty>
0

> <i_epik_Tot_Q>
0

> <i_epik_Tot_abs_Q>
0

> <r_epik_Metal_State_Penalty>
-0

> <b_epik_Metal_Only>
0

> <s_lp_Force_Field>
OPLS_2005

> <r_lp_Energy>
22.3443

> <b_lp_Chiralities_Consistent>
1

> <s_lp_Variant>
AV-unprocessed.smi:2834-2

> <Gold.Version>
5.8.1

> <Gold.Id.Protein>
6NUR|6NUR_protein|mol2

> <Gold.PLP.Fitness>
42.7929

> <Gold.PLP.PLP>
-34.8989

> <Gold.PLP.part.hbond>
-3.1350

> <Gold.PLP.part.metal>
0.0000

> <Gold.PLP.part.buried>
-4.8427

> <Gold.PLP.part.nonpolar>
-28.0575

> <Gold.PLP.part.repulsive>
0.3024

> <Gold.PLP.ligand.clash>
0.0000

> <Gold.PLP.ligand.torsion>
0.2658

> <Gold.PLP.Chemscore.Hbond>
2.0000

> <Gold.PLP.Chemscore.CHOScore>
0.7980

> <Gold.PLP.Chemscore.Metal>
0.0000

> <Gold.Chemscore.Hbonds>
donor molecule, donor type, donor heavy atom, donor atom, acceptor molecule, acceptor atom, score
      L1  H     3    24       P1 10175  1.00
      L1  H     6    25       P1 10175  1.00
      L1  C    16    29       P1 10171  0.75

> <Gold.PLP.Chemscore.Internal.Correction>
0.0317

> <Gold.Rescore>
     Score         DG    S(hbond)    S(metal)    S(lipo)     H(rot)  DE(clash)    DE(int)     intcor
      9.21     -13.75       1.78        0.00      49.34       1.34       0.09       4.44       ----

> <Gold.Chemscore.Fitness>
9.2091

> <Gold.Chemscore.DG>
-13.7483

> <Gold.Chemscore.ZeroCoef>
-5.4800

> <Gold.Chemscore.Hbond>
1.7754

> <Gold.Chemscore.Metal>
0.0000

> <Gold.Chemscore.Lipo>
49.3419

> <Gold.Chemscore.Internal_Hbond>
0.0000

> <Gold.Chemscore.DEClash>
0.0945

> <Gold.Chemscore.DEInternal>
4.4448

> <Gold.Chemscore.Rot>
1.3417

> <Gold.Chemscore.Internal.Correction>
   9.000000E+99

> <Gold.Chemscore.Hbonds>
donor molecule, donor type, donor heavy atom, donor atom, acceptor molecule, acceptor atom, score
      L1  H     3    24       P1 10175  0.30
      L1  H     6    25       P1 10175  0.97

> <Gold.Chemscore.Hbond.Weighted>
-5.9299

> <Gold.Chemscore.Metal.Weighted>
-0.0000

> <Gold.Chemscore.Lipo.Weighted>
-5.7730

> <Gold.Chemscore.Internal_Hbond.Weighted>
0.0000

> <Gold.Chemscore.DEClash.Weighted>
0.0945

> <Gold.Chemscore.DEInternal.Weighted>
4.4448

> <Gold.Chemscore.Rot.Weighted>
3.4347

> <Gold.Chemscore.Internal.Correction.Weighted>
   9.000000E+99

> <Gold.Protein.RotatedTorsions>
[ 6907 6896 6895 6894 ] final  127.52 input  -60.11 | X-H torsion
[ 7974 7965 7964 7962 ] final  -97.49 input  175.53 | X-H torsion
[ 8008 7997 7996 7995 ] final   52.29 input   59.86 | X-H torsion
[ 10167 10162 10161 10158 ] final   58.41 input  -65.29 | X-H torsion
[ 10718 10713 10712 10709 ] final -142.87 input   66.30 | X-H torsion
[ 10763 10752 10751 10750 ] final  -35.96 input  -60.55 | X-H torsion
[ 11005 11000 10999 10996 ] final   29.63 input  -57.11 | X-H torsion

> <Gold.Protein.ActiveResidues>
 VAL166  LYS551  ARG553  GLY616  TRP617  ASP618  TYR619  PRO620  LYS621  CYS622 
 ASP623  PHE694  ASN695  SER759  ASP760  ASP761  ALA762  ILE779  LEU786  VAL792 
 PHE793  MET794  SER795  GLU796  ALA797  LYS798  CYS799  TRP800  GLU811  SER814 

> <Gold.Protein.RotatedAtoms>
  152.3805  133.6540  159.6157 H   0  0  0  0  0  0  0  0  0  0  0  0  # atno 6907 bound_to 6896
  150.7737  133.9121  159.3381 H   0  0  0  0  0  0  0  0  0  0  0  0  # atno 6908 bound_to 6896
  151.6928  135.0945  160.0288 H   0  0  0  0  0  0  0  0  0  0  0  0  # atno 6909 bound_to 6896
  145.3330  140.9445  143.2651 H   0  0  0  0  0  0  0  0  0  0  0  0  # atno 7974 bound_to 7965
  155.4493  140.3457  155.4299 H   0  0  0  0  0  0  0  0  0  0  0  0  # atno 8008 bound_to 7997
  156.1230  140.1492  156.9207 H   0  0  0  0  0  0  0  0  0  0  0  0  # atno 8009 bound_to 7997
  154.4837  140.0862  156.7417 H   0  0  0  0  0  0  0  0  0  0  0  0  # atno 8010 bound_to 7997
  140.1876  144.4119  150.6586 H   0  0  0  0  0  0  0  0  0  0  0  0  # atno 10167 bound_to 10162
  156.3511  130.7688  151.1841 H   0  0  0  0  0  0  0  0  0  0  0  0  # atno 10718 bound_to 10713
  153.8719  135.6830  153.4773 H   0  0  0  0  0  0  0  0  0  0  0  0  # atno 10763 bound_to 10752
  153.1282  135.4709  154.9304 H   0  0  0  0  0  0  0  0  0  0  0  0  # atno 10764 bound_to 10752
  154.7710  135.3238  154.8140 H   0  0  0  0  0  0  0  0  0  0  0  0  # atno 10765 bound_to 10752
  140.3029  134.2736  155.7750 H   0  0  0  0  0  0  0  0  0  0  0  0  # atno 11005 bound_to 11000
  144.8849  139.4853  143.6705 LP  0  0  0  0  0  0  0  0  0  0  0  0  # atno 17320 bound_to 7965
  146.3038  139.7512  142.9071 LP  0  0  0  0  0  0  0  0  0  0  0  0  # atno 17321 bound_to 7965
  140.6478  143.2217  151.6147 LP  0  0  0  0  0  0  0  0  0  0  0  0  # atno 17342 bound_to 10162
  139.5269  144.3031  152.1057 LP  0  0  0  0  0  0  0  0  0  0  0  0  # atno 17343 bound_to 10162
  157.7461  131.0427  150.4708 LP  0  0  0  0  0  0  0  0  0  0  0  0  # atno 17370 bound_to 10713
  156.4903  130.4094  149.6410 LP  0  0  0  0  0  0  0  0  0  0  0  0  # atno 17371 bound_to 10713
  141.2124  133.7658  156.9794 LP  0  0  0  0  0  0  0  0  0  0  0  0  # atno 17394 bound_to 11000
  140.1093  134.9487  157.2041 LP  0  0  0  0  0  0  0  0  0  0  0  0  # atno 17395 bound_to 11000

$$$$
