AV-unprocessed.smi:2033|AV-procd|sdf|8259|dock5
  -GOLD-   2272010533D 1   1.00000     0.00000
 Structure written by MMmdl.
 33 34  0  0  0  0  0  0  0  0  1 V2000
  146.6189  142.6027  154.3553 C   0  0  0  0  0  0  0  0  0  0  0  0
  146.5644  141.1228  154.1866 C   0  0  0  0  0  0  0  0  0  0  0  0
  146.0926  140.3019  155.1330 N   0  0  0  0  0  0  0  0  0  0  0  0
  146.1450  138.9696  154.7475 N   0  0  0  0  0  0  0  0  0  0  0  0
  146.6568  138.8247  153.5175 C   0  0  0  0  0  0  0  0  0  0  0  0
  146.8242  137.5692  152.8754 N   0  0  0  0  0  0  0  0  0  0  0  0
  145.9032  136.6128  152.6628 C   0  0  0  0  0  0  0  0  0  0  0  0
  144.7217  136.6735  153.0040 O   0  0  0  0  0  0  0  0  0  0  0  0
  146.4350  135.5621  152.0211 N   0  0  0  0  0  0  0  0  0  0  0  0
  145.7109  134.3610  151.6044 C   0  0  2  0  0  0  0  0  0  0  0  0
  146.6886  133.2984  151.0405 C   0  0  0  0  0  0  0  0  0  0  0  0
  146.0778  132.2606  150.0755 C   0  0  0  0  0  0  0  0  0  0  0  0
  144.8337  131.5159  150.6010 C   0  0  0  0  0  0  0  0  0  0  0  0
  143.6397  132.3888  151.0578 C   0  0  0  0  0  0  0  0  0  0  0  0
  143.6082  133.7283  150.4709 N   0  0  0  0  0  0  0  0  0  0  0  0
  144.5119  134.6973  150.6973 C   0  0  0  0  0  0  0  0  0  0  0  0
  144.4043  135.8095  150.1823 O   0  0  0  0  0  0  0  0  0  0  0  0
  147.1227  140.3199  152.7242 S   0  0  0  0  0  0  0  0  0  0  0  0
  146.0230  142.9144  155.2137 H   0  0  0  0  0  0  0  0  0  0  0  0
  146.2291  143.0948  153.4641 H   0  0  0  0  0  0  0  0  0  0  0  0
  147.6496  142.9214  154.5102 H   0  0  0  0  0  0  0  0  0  0  0  0
  147.7553  137.3779  152.5356 H   0  0  0  0  0  0  0  0  0  0  0  0
  147.4137  135.5995  151.7754 H   0  0  0  0  0  0  0  0  0  0  0  0
  145.2710  133.9484  152.5133 H   0  0  0  0  0  0  0  0  0  0  0  0
  147.5003  133.7994  150.5109 H   0  0  0  0  0  0  0  0  0  0  0  0
  147.1605  132.7774  151.8744 H   0  0  0  0  0  0  0  0  0  0  0  0
  145.8332  132.7452  149.1292 H   0  0  0  0  0  0  0  0  0  0  0  0
  146.8438  131.5261  149.8251 H   0  0  0  0  0  0  0  0  0  0  0  0
  144.4893  130.8542  149.8057 H   0  0  0  0  0  0  0  0  0  0  0  0
  145.1226  130.8573  151.4206 H   0  0  0  0  0  0  0  0  0  0  0  0
  142.7056  131.8838  150.8108 H   0  0  0  0  0  0  0  0  0  0  0  0
  143.6364  132.4780  152.1446 H   0  0  0  0  0  0  0  0  0  0  0  0
  142.8303  133.9419  149.8634 H   0  0  0  0  0  0  0  0  0  0  0  0
  1  2  1  0  0  0  0
  1 19  1  0  0  0  0
  1 20  1  0  0  0  0
  1 21  1  0  0  0  0
  2 18  1  0  0  0  0
  2  3  2  0  0  0  0
  3  4  1  0  0  0  0
  4  5  2  0  0  0  0
  5  6  1  0  0  0  0
  5 18  1  0  0  0  0
  6  7  1  0  0  0  0
  6 22  1  0  0  0  0
  7  8  2  0  0  0  0
  7  9  1  0  0  0  0
  9 10  1  0  0  0  0
  9 23  1  0  0  0  0
 10 16  1  0  0  0  0
 10 11  1  0  0  0  0
 10 24  1  0  0  0  0
 11 12  1  0  0  0  0
 11 25  1  0  0  0  0
 11 26  1  0  0  0  0
 12 13  1  0  0  0  0
 12 27  1  0  0  0  0
 12 28  1  0  0  0  0
 13 14  1  0  0  0  0
 13 29  1  0  0  0  0
 13 30  1  0  0  0  0
 14 15  1  0  0  0  0
 14 31  1  0  0  0  0
 14 32  1  0  0  0  0
 15 16  1  0  0  0  0
 15 33  1  0  0  0  0
 16 17  2  0  0  0  0
M  END
> <s_m_source_file>
AV-unprocessed.smi

> <i_m_source_file_index>
2033

> <i_lp_mmshare_version>
43012

> <i_f3d_flags>
0

> <s_epik_input>
W0NIM11jMW5uYyhzMSlbTkhdQyg9TylbTkhdW0NAQEhdMltDSDJdW0NIMl1bQ0gyXVtDSDJdW05IXUMyPU8=

> <s_epik_cmdline>
J2VwaWtfcHl0aG9uJywgJy1waCcsICc3LjAnLCAnLXRuJywgJzgnLCAnLW1hJywgJzIwMCcsICctbWV0YWxfYmluZGluZycsICctaW1hZScsICc8aW5maWxlLm1hZT4nLCAnLW9tYWUnLCAnPG91dGZpbGUubWFlPic=

> <r_lp_tautomer_probability>
1

> <r_epik_Ionization_Penalty>
0.00079266

> <r_epik_Ionization_Penalty_Charging>
0

> <r_epik_Ionization_Penalty_Neutral>
0.00079266

> <r_epik_State_Penalty>
-0

> <r_epik_Charging_Adjusted_Penalty>
0

> <i_epik_Tot_Q>
0

> <i_epik_Tot_abs_Q>
0

> <r_epik_Metal_State_Penalty>
0.265831

> <b_epik_Metal_Only>
0

> <s_lp_Force_Field>
OPLS_2005

> <r_lp_Energy>
13.3352

> <b_lp_Chiralities_Consistent>
1

> <s_lp_Variant>
AV-unprocessed.smi:2033-1

> <Gold.Version>
5.8.1

> <Gold.Id.Protein>
6NUR|6NUR_protein|mol2

> <Gold.PLP.Fitness>
36.6542

> <Gold.PLP.PLP>
-28.6410

> <Gold.PLP.part.hbond>
-3.0000

> <Gold.PLP.part.metal>
0.0000

> <Gold.PLP.part.buried>
-3.5742

> <Gold.PLP.part.nonpolar>
-25.1727

> <Gold.PLP.part.repulsive>
2.5725

> <Gold.PLP.ligand.clash>
0.0000

> <Gold.PLP.ligand.torsion>
0.5191

> <Gold.PLP.Chemscore.Hbond>
3.0000

> <Gold.PLP.Chemscore.CHOScore>
0.0000

> <Gold.PLP.Chemscore.Metal>
0.0000

> <Gold.Chemscore.Hbonds>
donor molecule, donor type, donor heavy atom, donor atom, acceptor molecule, acceptor atom, score
      L1  H     6    22       P1  7948  1.00
      L1  H     9    23       P1  7948  1.00
      L1  H    15    33       P1 10186  1.00

> <Gold.PLP.Chemscore.Internal.Correction>
0.0513

> <Gold.Rescore>
     Score         DG    S(hbond)    S(metal)    S(lipo)     H(rot)  DE(clash)    DE(int)     intcor
     18.56     -19.36       2.92        0.00      57.14       1.00       0.32       0.48       ----

> <Gold.Chemscore.Fitness>
18.5628

> <Gold.Chemscore.DG>
-19.3647

> <Gold.Chemscore.ZeroCoef>
-5.4800

> <Gold.Chemscore.Hbond>
2.9219

> <Gold.Chemscore.Metal>
0.0000

> <Gold.Chemscore.Lipo>
57.1412

> <Gold.Chemscore.Internal_Hbond>
0.0000

> <Gold.Chemscore.DEClash>
0.3209

> <Gold.Chemscore.DEInternal>
0.4810

> <Gold.Chemscore.Rot>
1.0000

> <Gold.Chemscore.Internal.Correction>
   9.000000E+99

> <Gold.Chemscore.Hbonds>
donor molecule, donor type, donor heavy atom, donor atom, acceptor molecule, acceptor atom, score
      L1  H     6    22       P1  7948  0.95
      L1  H     9    23       P1  7948  0.98
      L1  H    15    33       P1 10186  0.97

> <Gold.Chemscore.Hbond.Weighted>
-9.7592

> <Gold.Chemscore.Metal.Weighted>
-0.0000

> <Gold.Chemscore.Lipo.Weighted>
-6.6855

> <Gold.Chemscore.Internal_Hbond.Weighted>
0.0000

> <Gold.Chemscore.DEClash.Weighted>
0.3209

> <Gold.Chemscore.DEInternal.Weighted>
0.4810

> <Gold.Chemscore.Rot.Weighted>
2.5600

> <Gold.Chemscore.Internal.Correction.Weighted>
   9.000000E+99

> <Gold.Protein.RotatedTorsions>
[ 6907 6896 6895 6894 ] final  -51.30 input  -60.11 | X-H torsion
[ 7974 7965 7964 7962 ] final -106.72 input  175.53 | X-H torsion
[ 8008 7997 7996 7995 ] final    3.51 input   59.86 | X-H torsion
[ 10167 10162 10161 10158 ] final  -79.32 input  -65.29 | X-H torsion
[ 10718 10713 10712 10709 ] final   38.95 input   66.30 | X-H torsion
[ 10763 10752 10751 10750 ] final   40.68 input  -60.55 | X-H torsion
[ 11005 11000 10999 10996 ] final  -68.16 input  -57.11 | X-H torsion

> <Gold.Protein.ActiveResidues>
 VAL166  LYS551  ARG553  GLY616  TRP617  ASP618  TYR619  PRO620  LYS621  CYS622 
 ASP623  PHE694  ASN695  SER759  ASP760  ASP761  ALA762  ILE779  LEU786  VAL792 
 PHE793  MET794  SER795  GLU796  ALA797  LYS798  CYS799  TRP800  GLU811  SER814 

> <Gold.Protein.RotatedAtoms>
  150.8624  134.7979  159.7092 H   0  0  0  0  0  0  0  0  0  0  0  0  # atno 6907 bound_to 6896
  152.4657  134.5078  159.9754 H   0  0  0  0  0  0  0  0  0  0  0  0  # atno 6908 bound_to 6896
  151.5180  133.3433  159.2932 H   0  0  0  0  0  0  0  0  0  0  0  0  # atno 6909 bound_to 6896
  145.2142  140.9108  143.3296 H   0  0  0  0  0  0  0  0  0  0  0  0  # atno 7974 bound_to 7965
  154.7046  140.2680  155.6687 H   0  0  0  0  0  0  0  0  0  0  0  0  # atno 8008 bound_to 7997
  156.2776  140.2765  156.1591 H   0  0  0  0  0  0  0  0  0  0  0  0  # atno 8009 bound_to 7997
  155.0718  140.0372  157.2601 H   0  0  0  0  0  0  0  0  0  0  0  0  # atno 8010 bound_to 7997
  140.4604  143.2455  151.8357 H   0  0  0  0  0  0  0  0  0  0  0  0  # atno 10167 bound_to 10162
  157.3648  130.7669  149.7075 H   0  0  0  0  0  0  0  0  0  0  0  0  # atno 10718 bound_to 10713
  152.9929  135.6184  154.2665 H   0  0  0  0  0  0  0  0  0  0  0  0  # atno 10763 bound_to 10752
  154.2399  135.2789  155.2859 H   0  0  0  0  0  0  0  0  0  0  0  0  # atno 10764 bound_to 10752
  154.5378  135.5769  153.6871 H   0  0  0  0  0  0  0  0  0  0  0  0  # atno 10765 bound_to 10752
  141.1525  133.6735  156.6404 H   0  0  0  0  0  0  0  0  0  0  0  0  # atno 11005 bound_to 11000
  144.9826  139.3768  143.6254 LP  0  0  0  0  0  0  0  0  0  0  0  0  # atno 17320 bound_to 7965
  146.3390  139.8974  142.8799 LP  0  0  0  0  0  0  0  0  0  0  0  0  # atno 17321 bound_to 7965
  139.4805  144.5014  151.9055 LP  0  0  0  0  0  0  0  0  0  0  0  0  # atno 17342 bound_to 10162
  140.4100  144.2381  150.5889 LP  0  0  0  0  0  0  0  0  0  0  0  0  # atno 17343 bound_to 10162
  155.9744  130.4103  150.3926 LP  0  0  0  0  0  0  0  0  0  0  0  0  # atno 17370 bound_to 10713
  157.2008  131.0437  151.2651 LP  0  0  0  0  0  0  0  0  0  0  0  0  # atno 17371 bound_to 10713
  140.3398  134.7859  157.4389 LP  0  0  0  0  0  0  0  0  0  0  0  0  # atno 17394 bound_to 11000
  140.0948  134.5553  155.8409 LP  0  0  0  0  0  0  0  0  0  0  0  0  # atno 17395 bound_to 11000

$$$$
