AV-unprocessed.smi:1737|AV-procd|sdf|6995|dock9
  -GOLD-   22720 8213D 1   1.00000     0.00000
 Structure written by MMmdl.
 43 44  0  0  0  0  0  0  0  0  2 V2000
  147.9182  132.8901  152.4049 C   0  0  0  0  0  0  0  0  0  0  0  0
  146.6082  133.0215  151.6450 C   0  0  0  0  0  0  0  0  0  0  0  0
  146.0824  131.8955  150.9763 C   0  0  0  0  0  0  0  0  0  0  0  0
  144.8706  132.0178  150.2752 C   0  0  0  0  0  0  0  0  0  0  0  0
  144.2317  133.2694  150.2723 C   0  0  0  0  0  0  0  0  0  0  0  0
  144.7268  134.3506  150.9086 N   0  0  0  0  0  0  0  0  0  0  0  0
  145.8953  134.2493  151.5907 C   0  0  0  0  0  0  0  0  0  0  0  0
  146.4790  135.3500  152.2796 N   0  0  0  0  0  0  0  0  0  0  0  0
  145.9401  136.1076  153.2510 C   0  0  0  0  0  0  0  0  0  0  0  0
  144.8244  135.9477  153.7474 O   0  0  0  0  0  0  0  0  0  0  0  0
  146.7780  137.0836  153.6300 N   0  0  0  0  0  0  0  0  0  0  0  0
  146.4864  138.0699  154.6665 C   0  0  0  0  0  0  0  0  0  0  0  0
  147.1182  139.4590  154.3822 C   0  0  2  0  0  0  0  0  0  0  0  0
  147.0563  139.7713  152.8673 C   0  0  0  0  0  0  0  0  0  0  0  0
  148.5036  139.5239  154.9520 N   0  3  0  0  0  0  0  0  0  0  0  0
  149.5379  138.7350  154.2270 C   0  0  0  0  0  0  0  0  0  0  0  0
  150.9079  138.8506  154.9180 C   0  0  0  0  0  0  0  0  0  0  0  0
  151.2875  140.2151  155.0175 O   0  0  0  0  0  0  0  0  0  0  0  0
  150.3628  140.9574  155.7984 C   0  0  0  0  0  0  0  0  0  0  0  0
  148.9815  140.9233  155.1251 C   0  0  0  0  0  0  0  0  0  0  0  0
  148.3308  131.8849  152.3143 H   0  0  0  0  0  0  0  0  0  0  0  0
  147.7654  133.0955  153.4649 H   0  0  0  0  0  0  0  0  0  0  0  0
  148.6579  133.5915  152.0177 H   0  0  0  0  0  0  0  0  0  0  0  0
  146.5997  130.9474  150.9980 H   0  0  0  0  0  0  0  0  0  0  0  0
  144.4427  131.1750  149.7531 H   0  0  0  0  0  0  0  0  0  0  0  0
  143.2995  133.4079  149.7447 H   0  0  0  0  0  0  0  0  0  0  0  0
  147.4147  135.5922  151.9894 H   0  0  0  0  0  0  0  0  0  0  0  0
  147.6773  137.1473  153.1753 H   0  0  0  0  0  0  0  0  0  0  0  0
  145.4043  138.1269  154.7775 H   0  0  0  0  0  0  0  0  0  0  0  0
  146.8644  137.6814  155.6128 H   0  0  0  0  0  0  0  0  0  0  0  0
  146.5264  140.2275  154.8822 H   0  0  0  0  0  0  0  0  0  0  0  0
  146.0410  139.6892  152.4800 H   0  0  0  0  0  0  0  0  0  0  0  0
  147.6808  139.0867  152.2922 H   0  0  0  0  0  0  0  0  0  0  0  0
  147.3721  140.7909  152.6467 H   0  0  0  0  0  0  0  0  0  0  0  0
  149.2747  137.6779  154.2005 H   0  0  0  0  0  0  0  0  0  0  0  0
  149.6087  139.0829  153.1950 H   0  0  0  0  0  0  0  0  0  0  0  0
  150.8840  138.3940  155.9088 H   0  0  0  0  0  0  0  0  0  0  0  0
  151.6636  138.3166  154.3415 H   0  0  0  0  0  0  0  0  0  0  0  0
  150.3144  140.5582  156.8128 H   0  0  0  0  0  0  0  0  0  0  0  0
  150.7160  141.9858  155.8777 H   0  0  0  0  0  0  0  0  0  0  0  0
  149.0366  141.4123  154.1512 H   0  0  0  0  0  0  0  0  0  0  0  0
  148.2884  141.5062  155.7285 H   0  0  0  0  0  0  0  0  0  0  0  0
  148.4467  139.1169  155.8747 H   0  0  0  0  0  0  0  0  0  0  0  0
  1  2  1  0  0  0  0
  1 21  1  0  0  0  0
  1 22  1  0  0  0  0
  1 23  1  0  0  0  0
  2  7  1  0  0  0  0
  2  3  2  0  0  0  0
  3  4  1  0  0  0  0
  3 24  1  0  0  0  0
  4  5  2  0  0  0  0
  4 25  1  0  0  0  0
  5  6  1  0  0  0  0
  5 26  1  0  0  0  0
  6  7  2  0  0  0  0
  7  8  1  0  0  0  0
  8  9  1  0  0  0  0
  8 27  1  0  0  0  0
  9 10  2  0  0  0  0
  9 11  1  0  0  0  0
 11 12  1  0  0  0  0
 11 28  1  0  0  0  0
 12 13  1  0  0  0  0
 12 29  1  0  0  0  0
 12 30  1  0  0  0  0
 13 14  1  0  0  0  0
 13 15  1  0  0  0  0
 13 31  1  0  0  0  0
 14 32  1  0  0  0  0
 14 33  1  0  0  0  0
 14 34  1  0  0  0  0
 15 20  1  0  0  0  0
 15 16  1  0  0  0  0
 15 43  1  0  0  0  0
 16 17  1  0  0  0  0
 16 35  1  0  0  0  0
 16 36  1  0  0  0  0
 17 18  1  0  0  0  0
 17 37  1  0  0  0  0
 17 38  1  0  0  0  0
 18 19  1  0  0  0  0
 19 20  1  0  0  0  0
 19 39  1  0  0  0  0
 19 40  1  0  0  0  0
 20 41  1  0  0  0  0
 20 42  1  0  0  0  0
M  CHG  1  15   1
M  END
> <s_m_source_file>
AV-unprocessed.smi

> <i_m_source_file_index>
1737

> <i_lp_mmshare_version>
43012

> <i_f3d_flags>
0

> <s_epik_input>
W0NIM11jMVtjSF1bY0hdW2NIXW5jMVtOSF1DKD1PKVtOSF1bQ0gyXVtDQEhdKFtDSDNdKU4yW0NIMl1bQ0gyXU9bQ0gyXVtDSDJdMg==

> <s_epik_cmdline>
J2VwaWtfcHl0aG9uJywgJy1waCcsICc3LjAnLCAnLXRuJywgJzgnLCAnLW1hJywgJzIwMCcsICctbWV0YWxfYmluZGluZycsICctaW1hZScsICc8aW5maWxlLm1hZT4nLCAnLW9tYWUnLCAnPG91dGZpbGUubWFlPic=

> <r_epik_Ionization_Penalty>
0.602573

> <r_epik_Ionization_Penalty_Charging>
0.602531

> <r_epik_Ionization_Penalty_Neutral>
4.25912e-05

> <r_epik_State_Penalty>
0.617039

> <r_epik_Charging_Adjusted_Penalty>
1.21957

> <i_epik_Tot_Q>
1

> <i_epik_Tot_abs_Q>
1

> <r_epik_Metal_State_Penalty>
0.617042

> <b_epik_Metal_Only>
0

> <s_lp_Force_Field>
OPLS_2005

> <r_lp_Energy>
21.8503

> <b_lp_Chiralities_Consistent>
1

> <s_lp_Variant>
AV-unprocessed.smi:1737-3

> <Gold.Version>
5.8.1

> <Gold.Id.Protein>
6NUR|6NUR_protein|mol2

> <Gold.PLP.Fitness>
43.3497

> <Gold.PLP.PLP>
-33.9248

> <Gold.PLP.part.hbond>
-3.0000

> <Gold.PLP.part.metal>
0.0000

> <Gold.PLP.part.buried>
-1.9185

> <Gold.PLP.part.nonpolar>
-29.3339

> <Gold.PLP.part.repulsive>
0.4306

> <Gold.PLP.ligand.clash>
0.0000

> <Gold.PLP.ligand.torsion>
1.2013

> <Gold.PLP.Chemscore.Hbond>
2.9280

> <Gold.PLP.Chemscore.CHOScore>
1.0000

> <Gold.PLP.Chemscore.Metal>
0.0000

> <Gold.Chemscore.Hbonds>
donor molecule, donor type, donor heavy atom, donor atom, acceptor molecule, acceptor atom, score
      L1  H     8    27       P1  7948  1.00
      L1  H    11    28       P1  7948  0.86
      P1  H  7989  7998       L1    18  1.00
      L1  C     5    26       P1 10186  1.00

> <Gold.PLP.Chemscore.Internal.Correction>
0.0434

> <Gold.Rescore>
     Score         DG    S(hbond)    S(metal)    S(lipo)     H(rot)  DE(clash)    DE(int)     intcor
     18.25     -20.66       2.77        0.00      83.68       1.51       1.13       1.29       ----

> <Gold.Chemscore.Fitness>
18.2464

> <Gold.Chemscore.DG>
-20.6643

> <Gold.Chemscore.ZeroCoef>
-5.4800

> <Gold.Chemscore.Hbond>
2.7743

> <Gold.Chemscore.Metal>
0.0000

> <Gold.Chemscore.Lipo>
83.6826

> <Gold.Chemscore.Internal_Hbond>
0.0000

> <Gold.Chemscore.DEClash>
1.1305

> <Gold.Chemscore.DEInternal>
1.2873

> <Gold.Chemscore.Rot>
1.5128

> <Gold.Chemscore.Internal.Correction>
   9.000000E+99

> <Gold.Chemscore.Hbonds>
donor molecule, donor type, donor heavy atom, donor atom, acceptor molecule, acceptor atom, score
      L1  H     8    27       P1  7948  1.00
      L1  H    11    28       P1  7948  0.80
      P1  H  7989  7998       L1    18  0.73

> <Gold.Chemscore.Hbond.Weighted>
-9.2660

> <Gold.Chemscore.Metal.Weighted>
-0.0000

> <Gold.Chemscore.Lipo.Weighted>
-9.7909

> <Gold.Chemscore.Internal_Hbond.Weighted>
0.0000

> <Gold.Chemscore.DEClash.Weighted>
1.1305

> <Gold.Chemscore.DEInternal.Weighted>
1.2873

> <Gold.Chemscore.Rot.Weighted>
3.8726

> <Gold.Chemscore.Internal.Correction.Weighted>
   9.000000E+99

> <Gold.Protein.RotatedTorsions>
[ 6907 6896 6895 6894 ] final -131.61 input  -60.11 | X-H torsion
[ 7974 7965 7964 7962 ] final -138.80 input  175.53 | X-H torsion
[ 8008 7997 7996 7995 ] final  126.35 input   59.86 | X-H torsion
[ 10167 10162 10161 10158 ] final  156.50 input  -65.29 | X-H torsion
[ 10718 10713 10712 10709 ] final  105.46 input   66.30 | X-H torsion
[ 10763 10752 10751 10750 ] final -163.56 input  -60.55 | X-H torsion
[ 11005 11000 10999 10996 ] final  -92.43 input  -57.11 | X-H torsion

> <Gold.Protein.ActiveResidues>
 VAL166  LYS551  ARG553  GLY616  TRP617  ASP618  TYR619  PRO620  LYS621  CYS622 
 ASP623  PHE694  ASN695  SER759  ASP760  ASP761  ALA762  ILE779  LEU786  VAL792 
 PHE793  MET794  SER795  GLU796  ALA797  LYS798  CYS799  TRP800  GLU811  SER814 

> <Gold.Protein.RotatedAtoms>
  150.9529  133.6529  159.2768 H   0  0  0  0  0  0  0  0  0  0  0  0  # atno 6907 bound_to 6896
  151.3878  135.0950  159.9526 H   0  0  0  0  0  0  0  0  0  0  0  0  # atno 6908 bound_to 6896
  152.5117  133.9050  159.7514 H   0  0  0  0  0  0  0  0  0  0  0  0  # atno 6909 bound_to 6896
  144.8729  140.6393  143.5255 H   0  0  0  0  0  0  0  0  0  0  0  0  # atno 7974 bound_to 7965
  156.2861  140.2695  156.2096 H   0  0  0  0  0  0  0  0  0  0  0  0  # atno 8008 bound_to 7997
  155.0278  140.0386  157.2480 H   0  0  0  0  0  0  0  0  0  0  0  0  # atno 8009 bound_to 7997
  154.7381  140.2719  155.6402 H   0  0  0  0  0  0  0  0  0  0  0  0  # atno 8010 bound_to 7997
  139.4821  144.5003  151.8179 H   0  0  0  0  0  0  0  0  0  0  0  0  # atno 10167 bound_to 10162
  157.6704  131.0828  150.5860 H   0  0  0  0  0  0  0  0  0  0  0  0  # atno 10718 bound_to 10713
  154.7111  135.3006  154.9195 H   0  0  0  0  0  0  0  0  0  0  0  0  # atno 10763 bound_to 10752
  154.0096  135.6696  153.4768 H   0  0  0  0  0  0  0  0  0  0  0  0  # atno 10764 bound_to 10752
  153.0756  135.5037  154.8310 H   0  0  0  0  0  0  0  0  0  0  0  0  # atno 10765 bound_to 10752
  141.1522  133.7821  157.0019 H   0  0  0  0  0  0  0  0  0  0  0  0  # atno 11005 bound_to 11000
  145.4097  139.1582  143.4132 LP  0  0  0  0  0  0  0  0  0  0  0  0  # atno 17320 bound_to 7965
  146.2942  140.4200  142.8728 LP  0  0  0  0  0  0  0  0  0  0  0  0  # atno 17321 bound_to 7965
  140.4495  144.1875  150.5896 LP  0  0  0  0  0  0  0  0  0  0  0  0  # atno 17342 bound_to 10162
  140.4599  143.2453  151.9233 LP  0  0  0  0  0  0  0  0  0  0  0  0  # atno 17343 bound_to 10162
  156.6160  130.4393  149.5840 LP  0  0  0  0  0  0  0  0  0  0  0  0  # atno 17370 bound_to 10713
  156.2393  130.6841  151.1540 LP  0  0  0  0  0  0  0  0  0  0  0  0  # atno 17371 bound_to 10713
  140.0934  134.9579  157.1812 LP  0  0  0  0  0  0  0  0  0  0  0  0  # atno 17394 bound_to 11000
  140.3415  134.2699  155.7211 LP  0  0  0  0  0  0  0  0  0  0  0  0  # atno 17395 bound_to 11000

$$$$
