AV-unprocessed.smi:2124|AV-procd|sdf|8666|dock6
  -GOLD-   2272011413D 1   1.00000     0.00000
 Structure written by MMmdl.
 46 48  0  0  0  0  0  0  0  0  2 V2000
  146.8257  135.4342  155.4313 C   0  0  0  0  0  0  0  0  0  0  0  0
  147.9548  136.4245  155.2426 C   0  0  0  0  0  0  0  0  0  0  0  0
  147.6821  137.6254  154.8996 N   0  0  0  0  0  0  0  0  0  0  0  0
  148.7261  138.5508  154.7317 C   0  0  0  0  0  0  0  0  0  0  0  0
  148.3062  139.9546  154.3330 C   0  0  0  0  0  0  0  0  0  0  0  0
  150.0275  138.1902  154.9244 C   0  0  0  0  0  0  0  0  0  0  0  0
  151.1974  139.1605  154.7643 C   0  0  0  0  0  0  0  0  0  0  0  0
  151.9776  139.4653  156.0444 C   0  0  0  0  0  0  0  0  0  0  0  0
  152.9615  138.7890  156.3432 O   0  0  0  0  0  0  0  0  0  0  0  0
  151.5271  140.4858  156.7910 N   0  0  0  0  0  0  0  0  0  0  0  0
  152.1186  140.9524  158.0430 C   0  0  2  0  0  0  0  0  0  0  0  0
  152.2180  139.7803  159.0348 C   0  0  0  0  0  0  0  0  0  0  0  0
  151.2758  142.1240  158.5987 C   0  0  2  0  0  0  0  0  0  0  0  0
  150.8248  143.1581  157.5411 C   0  0  0  0  0  0  0  0  0  0  0  0
  151.2073  144.5034  158.1856 C   0  0  2  0  0  0  0  0  0  0  0  0
  152.7346  144.6790  158.1071 C   0  0  0  0  0  0  0  0  0  0  0  0
  153.2439  143.6712  159.1535 C   0  0  0  0  0  0  0  0  0  0  0  0
  151.9414  143.0243  159.6696 C   0  0  1  0  0  0  0  0  0  0  0  0
  150.9982  144.2232  159.6693 C   0  0  0  0  0  0  0  0  0  0  0  0
  150.2994  136.7940  155.3124 C   0  0  0  0  0  0  0  0  0  0  0  0
  151.4555  136.4115  155.4889 O   0  0  0  0  0  0  0  0  0  0  0  0
  149.2317  135.9590  155.4615 N   0  5  0  0  0  0  0  0  0  0  0  0
  145.8733  135.8574  155.1087 H   0  0  0  0  0  0  0  0  0  0  0  0
  146.7395  135.1585  156.4824 H   0  0  0  0  0  0  0  0  0  0  0  0
  147.0111  134.5305  154.8498 H   0  0  0  0  0  0  0  0  0  0  0  0
  148.6171  140.6778  155.0869 H   0  0  0  0  0  0  0  0  0  0  0  0
  147.2232  140.0273  154.2273 H   0  0  0  0  0  0  0  0  0  0  0  0
  148.7529  140.2309  153.3787 H   0  0  0  0  0  0  0  0  0  0  0  0
  151.8795  138.7579  154.0146 H   0  0  0  0  0  0  0  0  0  0  0  0
  150.8594  140.1061  154.3394 H   0  0  0  0  0  0  0  0  0  0  0  0
  150.7135  140.9843  156.4611 H   0  0  0  0  0  0  0  0  0  0  0  0
  153.1254  141.3129  157.8288 H   0  0  0  0  0  0  0  0  0  0  0  0
  152.7028  140.0848  159.9621 H   0  0  0  0  0  0  0  0  0  0  0  0
  152.8050  138.9606  158.6195 H   0  0  0  0  0  0  0  0  0  0  0  0
  151.2319  139.3888  159.2869 H   0  0  0  0  0  0  0  0  0  0  0  0
  150.3788  141.6962  159.0510 H   0  0  0  0  0  0  0  0  0  0  0  0
  151.3155  143.0235  156.5763 H   0  0  0  0  0  0  0  0  0  0  0  0
  149.7487  143.0913  157.3758 H   0  0  0  0  0  0  0  0  0  0  0  0
  150.6490  145.3528  157.7910 H   0  0  0  0  0  0  0  0  0  0  0  0
  153.1243  144.4755  157.1091 H   0  0  0  0  0  0  0  0  0  0  0  0
  153.0260  145.6944  158.3791 H   0  0  0  0  0  0  0  0  0  0  0  0
  153.9534  142.9547  158.7418 H   0  0  0  0  0  0  0  0  0  0  0  0
  153.7518  144.1965  159.9635 H   0  0  0  0  0  0  0  0  0  0  0  0
  152.0503  142.5406  160.6405 H   0  0  0  0  0  0  0  0  0  0  0  0
  151.3309  145.0376  160.3153 H   0  0  0  0  0  0  0  0  0  0  0  0
  149.9673  143.9668  159.9200 H   0  0  0  0  0  0  0  0  0  0  0  0
  1  2  1  0  0  0  0
  1 23  1  0  0  0  0
  1 24  1  0  0  0  0
  1 25  1  0  0  0  0
  2 22  1  0  0  0  0
  2  3  2  0  0  0  0
  3  4  1  0  0  0  0
  4  5  1  0  0  0  0
  4  6  2  0  0  0  0
  5 26  1  0  0  0  0
  5 27  1  0  0  0  0
  5 28  1  0  0  0  0
  6  7  1  0  0  0  0
  6 20  1  0  0  0  0
  7  8  1  0  0  0  0
  7 29  1  0  0  0  0
  7 30  1  0  0  0  0
  8  9  2  0  0  0  0
  8 10  1  0  0  0  0
 10 11  1  0  0  0  0
 10 31  1  0  0  0  0
 11 12  1  0  0  0  0
 11 13  1  0  0  0  0
 11 32  1  0  0  0  0
 12 33  1  0  0  0  0
 12 34  1  0  0  0  0
 12 35  1  0  0  0  0
 13 18  1  0  0  0  0
 13 14  1  0  0  0  0
 13 36  1  0  0  0  0
 14 15  1  0  0  0  0
 14 37  1  0  0  0  0
 14 38  1  0  0  0  0
 15 19  1  0  0  0  0
 15 16  1  0  0  0  0
 15 39  1  0  0  0  0
 16 17  1  0  0  0  0
 16 40  1  0  0  0  0
 16 41  1  0  0  0  0
 17 18  1  0  0  0  0
 17 42  1  0  0  0  0
 17 43  1  0  0  0  0
 18 19  1  0  0  0  0
 18 44  1  0  0  0  0
 19 45  1  0  0  0  0
 19 46  1  0  0  0  0
 20 21  2  0  0  0  0
 20 22  1  0  0  0  0
M  CHG  1  22  -1
M  END
> <s_m_source_file>
AV-unprocessed.smi

> <i_m_source_file_index>
2124

> <i_lp_mmshare_version>
43012

> <i_f3d_flags>
0

> <s_epik_input>
W0NIM11jMW5jKFtDSDNdKWMoYyg9TylbbkhdMSlbQ0gyXUMoPU8pW05IXVtDQEhdKFtDSDNdKVtDQEhdKFtDSDJdW0NASF0yMylbQ0BIXShbQ0gyXTMpW0NIMl1bQ0gyXTI=

> <s_epik_cmdline>
J2VwaWtfcHl0aG9uJywgJy1waCcsICc3LjAnLCAnLXRuJywgJzgnLCAnLW1hJywgJzIwMCcsICctbWV0YWxfYmluZGluZycsICctaW1hZScsICc8aW5maWxlLm1hZT4nLCAnLW9tYWUnLCAnPG91dGZpbGUubWFlPic=

> <r_lp_tautomer_probability>
0.839158

> <r_epik_Ionization_Penalty>
6.63797

> <r_epik_Ionization_Penalty_Charging>
7.48558e-08

> <r_epik_Ionization_Penalty_Neutral>
6.63797

> <r_epik_State_Penalty>
4.49496

> <r_epik_Charging_Adjusted_Penalty>
4.49496

> <i_epik_Tot_Q>
-1

> <i_epik_Tot_abs_Q>
1

> <r_epik_Metal_State_Penalty>
0.841241

> <b_epik_Metal_Only>
1

> <s_lp_Force_Field>
OPLS_2005

> <r_lp_Energy>
56.0848

> <b_lp_Chiralities_Consistent>
1

> <s_lp_Variant>
AV-unprocessed.smi:2124-17

> <Gold.Version>
5.8.1

> <Gold.Id.Protein>
6NUR|6NUR_protein|mol2

> <Gold.PLP.Fitness>
45.5433

> <Gold.PLP.PLP>
-40.8657

> <Gold.PLP.part.hbond>
-2.0000

> <Gold.PLP.part.metal>
0.0000

> <Gold.PLP.part.buried>
-2.0478

> <Gold.PLP.part.nonpolar>
-36.3249

> <Gold.PLP.part.repulsive>
0.4484

> <Gold.PLP.ligand.clash>
0.0000

> <Gold.PLP.ligand.torsion>
0.6684

> <Gold.PLP.Chemscore.Hbond>
2.0000

> <Gold.PLP.Chemscore.CHOScore>
0.0000

> <Gold.PLP.Chemscore.Metal>
0.0000

> <Gold.Chemscore.Hbonds>
donor molecule, donor type, donor heavy atom, donor atom, acceptor molecule, acceptor atom, score
      P1  H  7997  8008       L1     9  1.00
      P1  H 10752 10763       L1    21  1.00

> <Gold.PLP.Chemscore.Internal.Correction>
0.0146

> <Gold.Rescore>
     Score         DG    S(hbond)    S(metal)    S(lipo)     H(rot)  DE(clash)    DE(int)     intcor
     19.03     -21.10       1.77        0.00     118.22       1.61       0.25       1.82       ----

> <Gold.Chemscore.Fitness>
19.0312

> <Gold.Chemscore.DG>
-21.1030

> <Gold.Chemscore.ZeroCoef>
-5.4800

> <Gold.Chemscore.Hbond>
1.7664

> <Gold.Chemscore.Metal>
0.0000

> <Gold.Chemscore.Lipo>
118.2249

> <Gold.Chemscore.Internal_Hbond>
0.0000

> <Gold.Chemscore.DEClash>
0.2537

> <Gold.Chemscore.DEInternal>
1.8181

> <Gold.Chemscore.Rot>
1.6051

> <Gold.Chemscore.Internal.Correction>
   9.000000E+99

> <Gold.Chemscore.Hbonds>
donor molecule, donor type, donor heavy atom, donor atom, acceptor molecule, acceptor atom, score
      P1  H  7997  8008       L1     9  0.44
      P1  H 10752 10763       L1    21  1.00

> <Gold.Chemscore.Hbond.Weighted>
-5.8996

> <Gold.Chemscore.Metal.Weighted>
-0.0000

> <Gold.Chemscore.Lipo.Weighted>
-13.8323

> <Gold.Chemscore.Internal_Hbond.Weighted>
0.0000

> <Gold.Chemscore.DEClash.Weighted>
0.2537

> <Gold.Chemscore.DEInternal.Weighted>
1.8181

> <Gold.Chemscore.Rot.Weighted>
4.1090

> <Gold.Chemscore.Internal.Correction.Weighted>
   9.000000E+99

> <Gold.Protein.RotatedTorsions>
[ 6907 6896 6895 6894 ] final  124.55 input  -60.11 | X-H torsion
[ 7974 7965 7964 7962 ] final   16.17 input  175.53 | X-H torsion
[ 8008 7997 7996 7995 ] final  -52.16 input   59.86 | X-H torsion
[ 10167 10162 10161 10158 ] final  175.97 input  -65.29 | X-H torsion
[ 10718 10713 10712 10709 ] final -172.02 input   66.30 | X-H torsion
[ 10763 10752 10751 10750 ] final   68.63 input  -60.55 | X-H torsion
[ 11005 11000 10999 10996 ] final  -25.88 input  -57.11 | X-H torsion

> <Gold.Protein.ActiveResidues>
 VAL166  LYS551  ARG553  GLY616  TRP617  ASP618  TYR619  PRO620  LYS621  CYS622 
 ASP623  PHE694  ASN695  SER759  ASP760  ASP761  ALA762  ILE779  LEU786  VAL792 
 PHE793  MET794  SER795  GLU796  ALA797  LYS798  CYS799  TRP800  GLU811  SER814 

> <Gold.Protein.RotatedAtoms>
  152.4069  133.6902  159.6363 H   0  0  0  0  0  0  0  0  0  0  0  0  # atno 6907 bound_to 6896
  150.7953  133.8693  159.3263 H   0  0  0  0  0  0  0  0  0  0  0  0  # atno 6908 bound_to 6896
  151.6446  135.1010  160.0200 H   0  0  0  0  0  0  0  0  0  0  0  0  # atno 6909 bound_to 6896
  146.2257  139.8787  142.8574 H   0  0  0  0  0  0  0  0  0  0  0  0  # atno 7974 bound_to 7965
  154.4100  140.1230  156.4947 H   0  0  0  0  0  0  0  0  0  0  0  0  # atno 8008 bound_to 7997
  155.6955  140.3495  155.4892 H   0  0  0  0  0  0  0  0  0  0  0  0  # atno 8009 bound_to 7997
  155.9431  140.1091  157.1029 H   0  0  0  0  0  0  0  0  0  0  0  0  # atno 8010 bound_to 7997
  139.5197  144.2970  152.0413 H   0  0  0  0  0  0  0  0  0  0  0  0  # atno 10167 bound_to 10162
  156.7494  130.9372  151.3114 H   0  0  0  0  0  0  0  0  0  0  0  0  # atno 10718 bound_to 10713
  153.0245  135.5240  154.7164 H   0  0  0  0  0  0  0  0  0  0  0  0  # atno 10763 bound_to 10752
  154.6232  135.2891  155.0304 H   0  0  0  0  0  0  0  0  0  0  0  0  # atno 10764 bound_to 10752
  154.1283  135.6597  153.4969 H   0  0  0  0  0  0  0  0  0  0  0  0  # atno 10765 bound_to 10752
  140.8978  133.7544  156.0504 H   0  0  0  0  0  0  0  0  0  0  0  0  # atno 11005 bound_to 11000
  145.2534  141.0052  143.3868 LP  0  0  0  0  0  0  0  0  0  0  0  0  # atno 17320 bound_to 7965
  144.9356  139.4248  143.6474 LP  0  0  0  0  0  0  0  0  0  0  0  0  # atno 17321 bound_to 7965
  140.2419  144.4261  150.6257 LP  0  0  0  0  0  0  0  0  0  0  0  0  # atno 17342 bound_to 10162
  140.6285  143.2184  151.6546 LP  0  0  0  0  0  0  0  0  0  0  0  0  # atno 17343 bound_to 10162
  157.6783  130.9116  150.0205 LP  0  0  0  0  0  0  0  0  0  0  0  0  # atno 17370 bound_to 10713
  156.1411  130.3642  149.9581 LP  0  0  0  0  0  0  0  0  0  0  0  0  # atno 17371 bound_to 10713
  140.8267  134.3226  157.5363 LP  0  0  0  0  0  0  0  0  0  0  0  0  # atno 17394 bound_to 11000
  139.8738  134.9340  156.3596 LP  0  0  0  0  0  0  0  0  0  0  0  0  # atno 17395 bound_to 11000

$$$$
