AV-unprocessed.smi:1040|AV-procd|sdf|4524|dock1
  -GOLD-   22720 2543D 1   1.00000     0.00000
 Structure written by MMmdl.
 54 55  0  0  0  0  0  0  0  0  1 V2000
  149.5722  135.1978  155.9248 C   0  0  0  0  0  0  0  0  0  0  0  0
  149.5997  134.1038  154.8442 C   0  0  2  0  0  0  0  0  0  0  0  0
  148.5124  134.3691  153.9034 N   0  0  0  0  0  0  0  0  0  0  0  0
  147.9556  133.4622  153.0866 C   0  0  0  0  0  0  0  0  0  0  0  0
  148.3198  132.2880  153.0332 O   0  0  0  0  0  0  0  0  0  0  0  0
  146.9662  134.0147  152.3644 N   0  0  0  0  0  0  0  0  0  0  0  0
  146.1081  133.4391  151.3796 C   0  0  0  0  0  0  0  0  0  0  0  0
  146.5176  132.4332  150.4686 C   0  0  0  0  0  0  0  0  0  0  0  0
  145.5883  131.9210  149.5454 C   0  0  0  0  0  0  0  0  0  0  0  0
  144.2786  132.4302  149.5611 C   0  0  0  0  0  0  0  0  0  0  0  0
  143.8725  133.3909  150.4145 N   0  0  0  0  0  0  0  0  0  0  0  0
  144.7623  133.8926  151.3057 C   0  0  0  0  0  0  0  0  0  0  0  0
  144.3067  134.9136  152.1634 N   0  0  0  0  0  0  0  0  0  0  0  0
  144.8938  136.2203  151.8732 C   0  0  0  0  0  0  0  0  0  0  0  0
  144.6439  137.1994  153.0331 C   0  0  0  0  0  0  0  0  0  0  0  0
  143.1459  137.2860  153.3676 C   0  0  0  0  0  0  0  0  0  0  0  0
  142.5753  135.8830  153.6319 C   0  0  0  0  0  0  0  0  0  0  0  0
  142.8740  134.9369  152.4562 C   0  0  0  0  0  0  0  0  0  0  0  0
  149.3959  132.7460  155.5346 C   0  0  0  0  0  0  0  0  0  0  0  0
  148.3624  132.5183  156.1649 O   0  0  0  0  0  0  0  0  0  0  0  0
  150.4085  131.8695  155.4121 N   0  0  0  0  0  0  0  0  0  0  0  0
  150.5113  130.5110  155.9579 C   0  0  0  0  0  0  0  0  0  0  0  0
  149.4480  129.6594  155.2424 C   0  0  0  0  0  0  0  0  0  0  0  0
  150.2183  130.5066  157.4734 C   0  0  0  0  0  0  0  0  0  0  0  0
  151.9061  129.9167  155.6714 C   0  0  0  0  0  0  0  0  0  0  0  0
  150.3636  135.0476  156.6605 H   0  0  0  0  0  0  0  0  0  0  0  0
  148.6211  135.2184  156.4593 H   0  0  0  0  0  0  0  0  0  0  0  0
  149.7228  136.1838  155.4844 H   0  0  0  0  0  0  0  0  0  0  0  0
  150.5589  134.1275  154.3232 H   0  0  0  0  0  0  0  0  0  0  0  0
  148.1456  135.3092  153.8895 H   0  0  0  0  0  0  0  0  0  0  0  0
  146.7812  134.9879  152.5595 H   0  0  0  0  0  0  0  0  0  0  0  0
  147.5202  132.0391  150.4476 H   0  0  0  0  0  0  0  0  0  0  0  0
  145.8740  131.1537  148.8413 H   0  0  0  0  0  0  0  0  0  0  0  0
  143.5383  132.0595  148.8678 H   0  0  0  0  0  0  0  0  0  0  0  0
  145.9653  136.1316  151.6913 H   0  0  0  0  0  0  0  0  0  0  0  0
  144.4509  136.6091  150.9551 H   0  0  0  0  0  0  0  0  0  0  0  0
  145.1965  136.8689  153.9137 H   0  0  0  0  0  0  0  0  0  0  0  0
  145.0287  138.1871  152.7782 H   0  0  0  0  0  0  0  0  0  0  0  0
  142.9897  137.9268  154.2357 H   0  0  0  0  0  0  0  0  0  0  0  0
  142.6114  137.7480  152.5365 H   0  0  0  0  0  0  0  0  0  0  0  0
  143.0119  135.4773  154.5454 H   0  0  0  0  0  0  0  0  0  0  0  0
  141.4999  135.9406  153.8010 H   0  0  0  0  0  0  0  0  0  0  0  0
  142.3266  135.2646  151.5711 H   0  0  0  0  0  0  0  0  0  0  0  0
  142.5287  133.9300  152.6947 H   0  0  0  0  0  0  0  0  0  0  0  0
  151.2029  132.1783  154.8706 H   0  0  0  0  0  0  0  0  0  0  0  0
  149.4553  128.6299  155.6023 H   0  0  0  0  0  0  0  0  0  0  0  0
  149.6188  129.6300  154.1655 H   0  0  0  0  0  0  0  0  0  0  0  0
  148.4447  130.0555  155.4052 H   0  0  0  0  0  0  0  0  0  0  0  0
  149.2506  130.9599  157.6921 H   0  0  0  0  0  0  0  0  0  0  0  0
  150.9733  131.0510  158.0404 H   0  0  0  0  0  0  0  0  0  0  0  0
  150.1993  129.4893  157.8658 H   0  0  0  0  0  0  0  0  0  0  0  0
  151.9616  128.8751  155.9896 H   0  0  0  0  0  0  0  0  0  0  0  0
  152.6963  130.4532  156.1966 H   0  0  0  0  0  0  0  0  0  0  0  0
  152.1388  129.9465  154.6063 H   0  0  0  0  0  0  0  0  0  0  0  0
  1  2  1  0  0  0  0
  1 26  1  0  0  0  0
  1 27  1  0  0  0  0
  1 28  1  0  0  0  0
  2  3  1  0  0  0  0
  2 19  1  0  0  0  0
  2 29  1  0  0  0  0
  3  4  1  0  0  0  0
  3 30  1  0  0  0  0
  4  5  2  0  0  0  0
  4  6  1  0  0  0  0
  6  7  1  0  0  0  0
  6 31  1  0  0  0  0
  7 12  1  0  0  0  0
  7  8  2  0  0  0  0
  8  9  1  0  0  0  0
  8 32  1  0  0  0  0
  9 10  2  0  0  0  0
  9 33  1  0  0  0  0
 10 11  1  0  0  0  0
 10 34  1  0  0  0  0
 11 12  2  0  0  0  0
 12 13  1  0  0  0  0
 13 18  1  0  0  0  0
 13 14  1  0  0  0  0
 14 15  1  0  0  0  0
 14 35  1  0  0  0  0
 14 36  1  0  0  0  0
 15 16  1  0  0  0  0
 15 37  1  0  0  0  0
 15 38  1  0  0  0  0
 16 17  1  0  0  0  0
 16 39  1  0  0  0  0
 16 40  1  0  0  0  0
 17 18  1  0  0  0  0
 17 41  1  0  0  0  0
 17 42  1  0  0  0  0
 18 43  1  0  0  0  0
 18 44  1  0  0  0  0
 19 20  2  0  0  0  0
 19 21  1  0  0  0  0
 21 22  1  0  0  0  0
 21 45  1  0  0  0  0
 22 23  1  0  0  0  0
 22 24  1  0  0  0  0
 22 25  1  0  0  0  0
 23 46  1  0  0  0  0
 23 47  1  0  0  0  0
 23 48  1  0  0  0  0
 24 49  1  0  0  0  0
 24 50  1  0  0  0  0
 24 51  1  0  0  0  0
 25 52  1  0  0  0  0
 25 53  1  0  0  0  0
 25 54  1  0  0  0  0
M  END
> <s_m_source_file>
AV-unprocessed.smi

> <i_m_source_file_index>
1040

> <i_lp_mmshare_version>
43012

> <i_f3d_flags>
0

> <s_epik_input>
W0NIM11DKFtDSDNdKShbQ0gzXSlbTkhdQyg9TylbQ0BIXShbQ0gzXSlbTkhdQyg9TylbTkhdYzFbY0hdW2NIXVtjSF1uYzFOMltDSDJdW0NIMl1bQ0gyXVtDSDJdW0NIMl0y

> <s_epik_cmdline>
J2VwaWtfcHl0aG9uJywgJy1waCcsICc3LjAnLCAnLXRuJywgJzgnLCAnLW1hJywgJzIwMCcsICctbWV0YWxfYmluZGluZycsICctaW1hZScsICc8aW5maWxlLm1hZT4nLCAnLW9tYWUnLCAnPG91dGZpbGUubWFlPic=

> <r_lp_tautomer_probability>
1

> <r_epik_Ionization_Penalty>
0.0878593

> <r_epik_Ionization_Penalty_Charging>
0

> <r_epik_Ionization_Penalty_Neutral>
0.0878593

> <r_epik_State_Penalty>
0.07381

> <r_epik_Charging_Adjusted_Penalty>
0.07381

> <i_epik_Tot_Q>
0

> <i_epik_Tot_abs_Q>
0

> <r_epik_Metal_State_Penalty>
0.0646628

> <b_epik_Metal_Only>
0

> <s_lp_Force_Field>
OPLS_2005

> <r_lp_Energy>
21.1097

> <b_lp_Chiralities_Consistent>
1

> <s_lp_Variant>
AV-unprocessed.smi:1040-1

> <Gold.Version>
5.8.1

> <Gold.Id.Protein>
6NUR|6NUR_protein|mol2

> <Gold.PLP.Fitness>
36.6038

> <Gold.PLP.PLP>
-38.3465

> <Gold.PLP.part.hbond>
-2.0000

> <Gold.PLP.part.metal>
0.0000

> <Gold.PLP.part.buried>
-3.5491

> <Gold.PLP.part.nonpolar>
-33.3415

> <Gold.PLP.part.repulsive>
0.9831

> <Gold.PLP.ligand.clash>
0.0000

> <Gold.PLP.ligand.torsion>
1.0541

> <Gold.PLP.Chemscore.Hbond>
0.0000

> <Gold.PLP.Chemscore.CHOScore>
0.0000

> <Gold.PLP.Chemscore.Metal>
0.0000

> <Gold.Chemscore.Hbonds>
donor molecule, donor type, donor heavy atom, donor atom, acceptor molecule, acceptor atom, score
      L1  H     3    30       P1  7948  0.01

> <Gold.PLP.Chemscore.Internal.Correction>
0.3657

> <Gold.Rescore>
     Score         DG    S(hbond)    S(metal)    S(lipo)     H(rot)  DE(clash)    DE(int)     intcor
      7.59     -11.91       0.05        0.00      88.86       1.61       0.67       3.64       ----

> <Gold.Chemscore.Fitness>
7.5886

> <Gold.Chemscore.DG>
-11.9065

> <Gold.Chemscore.ZeroCoef>
-5.4800

> <Gold.Chemscore.Hbond>
0.0487

> <Gold.Chemscore.Metal>
0.0000

> <Gold.Chemscore.Lipo>
88.8589

> <Gold.Chemscore.Internal_Hbond>
0.0000

> <Gold.Chemscore.DEClash>
0.6738

> <Gold.Chemscore.DEInternal>
3.6442

> <Gold.Chemscore.Rot>
1.6143

> <Gold.Chemscore.Internal.Correction>
   9.000000E+99

> <Gold.Chemscore.Hbonds>
donor molecule, donor type, donor heavy atom, donor atom, acceptor molecule, acceptor atom, score
      L1  H     3    30       P1  7948  0.02

> <Gold.Chemscore.Hbond.Weighted>
-0.1627

> <Gold.Chemscore.Metal.Weighted>
-0.0000

> <Gold.Chemscore.Lipo.Weighted>
-10.3965

> <Gold.Chemscore.Internal_Hbond.Weighted>
0.0000

> <Gold.Chemscore.DEClash.Weighted>
0.6738

> <Gold.Chemscore.DEInternal.Weighted>
3.6442

> <Gold.Chemscore.Rot.Weighted>
4.1326

> <Gold.Chemscore.Internal.Correction.Weighted>
   9.000000E+99

> <Gold.Protein.RotatedTorsions>
[ 6907 6896 6895 6894 ] final  101.33 input  -60.11 | X-H torsion
[ 7974 7965 7964 7962 ] final -176.13 input  175.53 | X-H torsion
[ 8008 7997 7996 7995 ] final -119.93 input   59.86 | X-H torsion
[ 10167 10162 10161 10158 ] final -116.75 input  -65.29 | X-H torsion
[ 10718 10713 10712 10709 ] final   24.21 input   66.30 | X-H torsion
[ 10763 10752 10751 10750 ] final -145.71 input  -60.55 | X-H torsion
[ 11005 11000 10999 10996 ] final   94.30 input  -57.11 | X-H torsion

> <Gold.Protein.ActiveResidues>
 VAL166  LYS551  ARG553  GLY616  TRP617  ASP618  TYR619  PRO620  LYS621  CYS622 
 ASP623  PHE694  ASN695  SER759  ASP760  ASP761  ALA762  ILE779  LEU786  VAL792 
 PHE793  MET794  SER795  GLU796  ALA797  LYS798  CYS799  TRP800  GLU811  SER814 

> <Gold.Protein.RotatedAtoms>
  152.5352  134.0143  159.7952 H   0  0  0  0  0  0  0  0  0  0  0  0  # atno 6907 bound_to 6896
  151.0340  133.5757  159.2665 H   0  0  0  0  0  0  0  0  0  0  0  0  # atno 6908 bound_to 6896
  151.2751  135.0704  159.9202 H   0  0  0  0  0  0  0  0  0  0  0  0  # atno 6909 bound_to 6896
  144.7127  140.1216  143.6405 H   0  0  0  0  0  0  0  0  0  0  0  0  # atno 7974 bound_to 7965
  155.1236  140.0399  157.2756 H   0  0  0  0  0  0  0  0  0  0  0  0  # atno 8008 bound_to 7997
  154.6595  140.2587  155.7099 H   0  0  0  0  0  0  0  0  0  0  0  0  # atno 8009 bound_to 7997
  156.2613  140.2820  156.1061 H   0  0  0  0  0  0  0  0  0  0  0  0  # atno 8010 bound_to 7997
  140.0758  143.4834  152.1954 H   0  0  0  0  0  0  0  0  0  0  0  0  # atno 10167 bound_to 10162
  157.1767  130.6784  149.6098 H   0  0  0  0  0  0  0  0  0  0  0  0  # atno 10718 bound_to 10713
  154.8371  135.3406  154.6546 H   0  0  0  0  0  0  0  0  0  0  0  0  # atno 10763 bound_to 10752
  153.7160  135.6961  153.5029 H   0  0  0  0  0  0  0  0  0  0  0  0  # atno 10764 bound_to 10752
  153.2416  135.4383  155.0657 H   0  0  0  0  0  0  0  0  0  0  0  0  # atno 10765 bound_to 10752
  139.8800  134.8837  156.3843 H   0  0  0  0  0  0  0  0  0  0  0  0  # atno 11005 bound_to 11000
  145.9366  139.2641  143.1294 LP  0  0  0  0  0  0  0  0  0  0  0  0  # atno 17320 bound_to 7965
  145.9468  140.8939  143.0279 LP  0  0  0  0  0  0  0  0  0  0  0  0  # atno 17321 bound_to 7965
  139.5809  144.7509  151.3644 LP  0  0  0  0  0  0  0  0  0  0  0  0  # atno 17342 bound_to 10162
  140.7103  143.7409  150.7554 LP  0  0  0  0  0  0  0  0  0  0  0  0  # atno 17343 bound_to 10162
  155.9730  130.4660  150.6275 LP  0  0  0  0  0  0  0  0  0  0  0  0  # atno 17370 bound_to 10713
  157.3992  131.0807  151.1324 LP  0  0  0  0  0  0  0  0  0  0  0  0  # atno 17371 bound_to 10713
  140.9377  133.7536  156.0106 LP  0  0  0  0  0  0  0  0  0  0  0  0  # atno 17394 bound_to 11000
  140.8256  134.3238  157.5366 LP  0  0  0  0  0  0  0  0  0  0  0  0  # atno 17395 bound_to 11000

$$$$
