AV-unprocessed.smi:2581|AV-procd|sdf|10131|dock3
  -GOLD-   2272014143D 1   1.00000     0.00000
 Structure written by MMmdl.
 40 42  0  0  0  0  0  0  0  0  2 V2000
  152.0383  139.9738  155.1075 O   0  0  0  0  0  0  0  0  0  0  0  0
  151.5065  140.7378  155.9124 C   0  0  0  0  0  0  0  0  0  0  0  0
  152.2211  141.3023  157.0599 C   0  0  0  0  0  0  0  0  0  0  0  0
  151.6592  142.1690  157.9420 C   0  0  0  0  0  0  0  0  0  0  0  0
  152.3751  142.6922  159.0215 N   0  0  0  0  0  0  0  0  0  0  0  0
  152.1910  144.0440  159.5443 C   0  0  0  0  0  0  0  0  0  0  0  0
  151.6340  143.9823  160.9788 C   0  0  0  0  0  0  0  0  0  0  0  0
  152.5067  143.2153  161.8032 O   0  0  0  0  0  0  0  0  0  0  0  0
  152.6637  141.8828  161.3257 C   0  0  0  0  0  0  0  0  0  0  0  0
  153.2492  141.9226  159.9042 C   0  0  0  0  0  0  0  0  0  0  0  0
  150.2718  142.5196  157.6755 C   0  0  0  0  0  0  0  0  0  0  0  0
  149.6043  142.0394  156.6827 N   0  0  0  0  0  0  0  0  0  0  0  0
  150.2042  141.1436  155.8130 N   0  0  0  0  0  0  0  0  0  0  0  0
  149.3477  140.6938  154.6973 C   0  0  2  0  0  0  0  0  0  0  0  0
  147.8743  141.0703  154.9541 C   0  0  0  0  0  0  0  0  0  0  0  0
  146.9920  140.6047  153.7854 C   0  0  0  0  0  0  0  0  0  0  0  0
  147.1809  139.1024  153.5144 C   0  0  0  0  0  0  0  0  0  0  0  0
  148.6073  138.7863  153.2798 N   0  3  0  0  0  0  0  0  0  0  0  0
  149.4773  139.1783  154.4101 C   0  0  0  0  0  0  0  0  0  0  0  0
  153.2443  140.9871  157.2001 H   0  0  0  0  0  0  0  0  0  0  0  0
  153.1488  144.5652  159.5322 H   0  0  0  0  0  0  0  0  0  0  0  0
  151.5087  144.6255  158.9255 H   0  0  0  0  0  0  0  0  0  0  0  0
  151.5474  144.9866  161.3931 H   0  0  0  0  0  0  0  0  0  0  0  0
  150.6342  143.5453  160.9871 H   0  0  0  0  0  0  0  0  0  0  0  0
  153.3339  141.3428  161.9946 H   0  0  0  0  0  0  0  0  0  0  0  0
  151.7059  141.3601  161.3393 H   0  0  0  0  0  0  0  0  0  0  0  0
  153.4175  140.9136  159.5298 H   0  0  0  0  0  0  0  0  0  0  0  0
  154.2294  142.4005  159.9244 H   0  0  0  0  0  0  0  0  0  0  0  0
  149.8154  143.2293  158.3643 H   0  0  0  0  0  0  0  0  0  0  0  0
  149.6523  141.1914  153.7748 H   0  0  0  0  0  0  0  0  0  0  0  0
  147.5241  140.6122  155.8801 H   0  0  0  0  0  0  0  0  0  0  0  0
  147.7774  142.1490  155.0839 H   0  0  0  0  0  0  0  0  0  0  0  0
  145.9445  140.8168  154.0017 H   0  0  0  0  0  0  0  0  0  0  0  0
  147.2433  141.1730  152.8889 H   0  0  0  0  0  0  0  0  0  0  0  0
  146.8167  138.5156  154.3588 H   0  0  0  0  0  0  0  0  0  0  0  0
  146.6010  138.7997  152.6423 H   0  0  0  0  0  0  0  0  0  0  0  0
  148.7021  137.7930  153.1229 H   0  0  0  0  0  0  0  0  0  0  0  0
  150.5093  138.9253  154.1657 H   0  0  0  0  0  0  0  0  0  0  0  0
  149.1960  138.5780  155.2765 H   0  0  0  0  0  0  0  0  0  0  0  0
  148.9144  139.2786  152.4530 H   0  0  0  0  0  0  0  0  0  0  0  0
  1  2  2  0  0  0  0
  2 13  1  0  0  0  0
  2  3  1  0  0  0  0
  3  4  2  0  0  0  0
  3 20  1  0  0  0  0
  4  5  1  0  0  0  0
  4 11  1  0  0  0  0
  5 10  1  0  0  0  0
  5  6  1  0  0  0  0
  6  7  1  0  0  0  0
  6 21  1  0  0  0  0
  6 22  1  0  0  0  0
  7  8  1  0  0  0  0
  7 23  1  0  0  0  0
  7 24  1  0  0  0  0
  8  9  1  0  0  0  0
  9 10  1  0  0  0  0
  9 25  1  0  0  0  0
  9 26  1  0  0  0  0
 10 27  1  0  0  0  0
 10 28  1  0  0  0  0
 11 12  2  0  0  0  0
 11 29  1  0  0  0  0
 12 13  1  0  0  0  0
 13 14  1  0  0  0  0
 14 19  1  0  0  0  0
 14 15  1  0  0  0  0
 14 30  1  0  0  0  0
 15 16  1  0  0  0  0
 15 31  1  0  0  0  0
 15 32  1  0  0  0  0
 16 17  1  0  0  0  0
 16 33  1  0  0  0  0
 16 34  1  0  0  0  0
 17 18  1  0  0  0  0
 17 35  1  0  0  0  0
 17 36  1  0  0  0  0
 18 19  1  0  0  0  0
 18 37  1  0  0  0  0
 18 40  1  0  0  0  0
 19 38  1  0  0  0  0
 19 39  1  0  0  0  0
M  CHG  1  18   1
M  END
> <s_m_source_file>
AV-unprocessed.smi

> <i_m_source_file_index>
2581

> <i_lp_mmshare_version>
43012

> <i_f3d_flags>
0

> <s_epik_input>
W0NIMl0xW0NIMl1PW0NIMl1bQ0gyXU4xYyhbY0hdYzI9TylbY0hdbm4yW0NAQEhdM1tDSDJdW0NIMl1bQ0gyXVtOSF1bQ0gyXTM=

> <s_epik_cmdline>
J2VwaWtfcHl0aG9uJywgJy1waCcsICc3LjAnLCAnLXRuJywgJzgnLCAnLW1hJywgJzIwMCcsICctbWV0YWxfYmluZGluZycsICctaW1hZScsICc8aW5maWxlLm1hZT4nLCAnLW9tYWUnLCAnPG91dGZpbGUubWFlPic=

> <r_lp_tautomer_probability>
1

> <r_epik_Ionization_Penalty>
0.00140529

> <r_epik_Ionization_Penalty_Charging>
0.00140528

> <r_epik_Ionization_Penalty_Neutral>
1.0684e-08

> <r_epik_State_Penalty>
0.000937322

> <r_epik_Charging_Adjusted_Penalty>
0.00234261

> <i_epik_Tot_Q>
1

> <i_epik_Tot_abs_Q>
1

> <r_epik_Metal_State_Penalty>
-0

> <b_epik_Metal_Only>
0

> <s_lp_Force_Field>
OPLS_2005

> <r_lp_Energy>
43.5577

> <b_lp_Chiralities_Consistent>
1

> <s_lp_Variant>
AV-unprocessed.smi:2581-1

> <Gold.Version>
5.8.1

> <Gold.Id.Protein>
6NUR|6NUR_protein|mol2

> <Gold.PLP.Fitness>
46.3951

> <Gold.PLP.PLP>
-36.8076

> <Gold.PLP.part.hbond>
-3.0000

> <Gold.PLP.part.metal>
0.0000

> <Gold.PLP.part.buried>
-6.4208

> <Gold.PLP.part.nonpolar>
-28.7847

> <Gold.PLP.part.repulsive>
1.3973

> <Gold.PLP.ligand.clash>
0.0000

> <Gold.PLP.ligand.torsion>
0.9562

> <Gold.PLP.Chemscore.Hbond>
3.8160

> <Gold.PLP.Chemscore.CHOScore>
0.0000

> <Gold.PLP.Chemscore.Metal>
0.0000

> <Gold.Chemscore.Hbonds>
donor molecule, donor type, donor heavy atom, donor atom, acceptor molecule, acceptor atom, score
      L1  H    18    37       P1  7948  1.98
      L1  H    18    40       P1  7957  1.00
      P1  H  7989  7998       L1     1  0.82

> <Gold.PLP.Chemscore.Internal.Correction>
0.0520

> <Gold.Rescore>
     Score         DG    S(hbond)    S(metal)    S(lipo)     H(rot)  DE(clash)    DE(int)     intcor
     18.50     -22.22       2.38        0.00      97.12       1.00       1.78       1.95       ----

> <Gold.Chemscore.Fitness>
18.4975

> <Gold.Chemscore.DG>
-22.2219

> <Gold.Chemscore.ZeroCoef>
-5.4800

> <Gold.Chemscore.Hbond>
2.3768

> <Gold.Chemscore.Metal>
0.0000

> <Gold.Chemscore.Lipo>
97.1234

> <Gold.Chemscore.Internal_Hbond>
0.0000

> <Gold.Chemscore.DEClash>
1.7786

> <Gold.Chemscore.DEInternal>
1.9458

> <Gold.Chemscore.Rot>
1.0000

> <Gold.Chemscore.Internal.Correction>
   9.000000E+99

> <Gold.Chemscore.Hbonds>
donor molecule, donor type, donor heavy atom, donor atom, acceptor molecule, acceptor atom, score
      L1  H    18    37       P1  7948  0.90
      L1  H    18    40       P1  7957  1.00
      P1  H  7989  7998       L1     1  0.21

> <Gold.Chemscore.Hbond.Weighted>
-7.9385

> <Gold.Chemscore.Metal.Weighted>
-0.0000

> <Gold.Chemscore.Lipo.Weighted>
-11.3634

> <Gold.Chemscore.Internal_Hbond.Weighted>
0.0000

> <Gold.Chemscore.DEClash.Weighted>
1.7786

> <Gold.Chemscore.DEInternal.Weighted>
1.9458

> <Gold.Chemscore.Rot.Weighted>
2.5600

> <Gold.Chemscore.Internal.Correction.Weighted>
   9.000000E+99

> <Gold.Protein.RotatedTorsions>
[ 6907 6896 6895 6894 ] final  162.04 input  -60.11 | X-H torsion
[ 7974 7965 7964 7962 ] final  -69.12 input  175.53 | X-H torsion
[ 8008 7997 7996 7995 ] final  -24.15 input   59.86 | X-H torsion
[ 10167 10162 10161 10158 ] final  -68.53 input  -65.29 | X-H torsion
[ 10718 10713 10712 10709 ] final -179.12 input   66.30 | X-H torsion
[ 10763 10752 10751 10750 ] final  118.31 input  -60.55 | X-H torsion
[ 11005 11000 10999 10996 ] final  106.11 input  -57.11 | X-H torsion

> <Gold.Protein.ActiveResidues>
 VAL166  LYS551  ARG553  GLY616  TRP617  ASP618  TYR619  PRO620  LYS621  CYS622 
 ASP623  PHE694  ASN695  SER759  ASP760  ASP761  ALA762  ILE779  LEU786  VAL792 
 PHE793  MET794  SER795  GLU796  ALA797  LYS798  CYS799  TRP800  GLU811  SER814 

> <Gold.Protein.RotatedAtoms>
  151.9465  133.3653  159.3984 H   0  0  0  0  0  0  0  0  0  0  0  0  # atno 6907 bound_to 6896
  150.6988  134.4385  159.5290 H   0  0  0  0  0  0  0  0  0  0  0  0  # atno 6908 bound_to 6896
  152.2050  134.8553  160.0554 H   0  0  0  0  0  0  0  0  0  0  0  0  # atno 6909 bound_to 6896
  145.7078  140.9091  143.0697 H   0  0  0  0  0  0  0  0  0  0  0  0  # atno 7974 bound_to 7965
  154.4545  140.1961  156.0420 H   0  0  0  0  0  0  0  0  0  0  0  0  # atno 8008 bound_to 7997
  156.0718  140.3283  155.7557 H   0  0  0  0  0  0  0  0  0  0  0  0  # atno 8009 bound_to 7997
  155.5252  140.0573  157.2890 H   0  0  0  0  0  0  0  0  0  0  0  0  # atno 8010 bound_to 7997
  140.5500  143.2312  151.6928 H   0  0  0  0  0  0  0  0  0  0  0  0  # atno 10167 bound_to 10162
  156.8544  130.9730  151.3089 H   0  0  0  0  0  0  0  0  0  0  0  0  # atno 10718 bound_to 10713
  153.5657  135.3512  155.2817 H   0  0  0  0  0  0  0  0  0  0  0  0  # atno 10763 bound_to 10752
  154.8689  135.4147  154.2781 H   0  0  0  0  0  0  0  0  0  0  0  0  # atno 10764 bound_to 10752
  153.3536  135.7056  153.6838 H   0  0  0  0  0  0  0  0  0  0  0  0  # atno 10765 bound_to 10752
  139.8810  134.9358  156.5616 H   0  0  0  0  0  0  0  0  0  0  0  0  # atno 11005 bound_to 11000
  144.6950  139.9033  143.7459 LP  0  0  0  0  0  0  0  0  0  0  0  0  # atno 17320 bound_to 7965
  146.0740  139.3728  143.0505 LP  0  0  0  0  0  0  0  0  0  0  0  0  # atno 17321 bound_to 7965
  139.5023  144.3832  152.0355 LP  0  0  0  0  0  0  0  0  0  0  0  0  # atno 17342 bound_to 10162
  140.2949  144.3712  150.6077 LP  0  0  0  0  0  0  0  0  0  0  0  0  # atno 17343 bound_to 10162
  157.6285  130.8711  149.9233 LP  0  0  0  0  0  0  0  0  0  0  0  0  # atno 17370 bound_to 10713
  156.0811  130.3673  150.0579 LP  0  0  0  0  0  0  0  0  0  0  0  0  # atno 17371 bound_to 10713
  140.8165  133.8388  155.8857 LP  0  0  0  0  0  0  0  0  0  0  0  0  # atno 17394 bound_to 11000
  140.9458  134.1842  157.4764 LP  0  0  0  0  0  0  0  0  0  0  0  0  # atno 17395 bound_to 11000

$$$$
