AV-unprocessed.smi:379|AV-procd|sdf|2459|dock9
  -GOLD-   2262022403D 1   1.00000     0.00000
 Structure written by MMmdl.
 39 40  0  0  0  0  0  0  0  0  1 V2000
  147.8394  137.6117  158.3074 C   0  0  0  0  0  0  0  0  0  0  0  0
  148.9333  136.5400  158.4252 C   0  0  0  0  0  0  0  0  0  0  0  0
  149.6565  136.2256  157.0997 C   0  0  1  0  0  0  0  0  0  0  0  0
  148.6606  136.0278  155.9485 C   0  0  0  0  0  0  0  0  0  0  0  0
  150.5871  137.2964  156.7464 N   0  0  0  0  0  0  0  0  0  0  0  0
  151.9041  137.1560  156.5283 C   0  0  0  0  0  0  0  0  0  0  0  0
  152.4898  136.0738  156.5868 O   0  0  0  0  0  0  0  0  0  0  0  0
  152.6674  138.4448  156.1888 C   0  0  0  0  0  0  0  0  0  0  0  0
  151.8370  139.6624  156.3158 N   0  0  0  0  0  0  0  0  0  0  0  0
  150.9084  139.9543  155.2838 C   0  0  0  0  0  0  0  0  0  0  0  0
  150.8125  139.2280  154.2926 O   0  0  0  0  0  0  0  0  0  0  0  0
  150.0875  141.1441  155.4939 C   0  0  0  0  0  0  0  0  0  0  0  0
  149.1199  141.4522  154.4938 C   0  0  0  0  0  0  0  0  0  0  0  0
  148.3452  141.6865  153.6664 N   0  0  0  0  0  0  0  0  0  0  0  0
  150.2417  141.9092  156.5940 C   0  0  0  0  0  0  0  0  0  0  0  0
  151.1770  141.6296  157.5664 N   0  0  0  0  0  0  0  0  0  0  0  0
  151.2165  142.3638  158.7996 C   0  0  0  0  0  0  0  0  0  0  0  0
  151.5470  143.8401  158.7645 C   0  0  0  0  0  0  0  0  0  0  0  0
  152.5379  142.8640  159.3503 C   0  0  0  0  0  0  0  0  0  0  0  0
  151.9666  140.4621  157.4771 C   0  0  0  0  0  0  0  0  0  0  0  0
  152.7366  140.1419  158.3860 O   0  0  0  0  0  0  0  0  0  0  0  0
  147.4208  137.8448  159.2866 H   0  0  0  0  0  0  0  0  0  0  0  0
  147.0179  137.2794  157.6722 H   0  0  0  0  0  0  0  0  0  0  0  0
  148.2367  138.5357  157.8869 H   0  0  0  0  0  0  0  0  0  0  0  0
  149.6683  136.8776  159.1569 H   0  0  0  0  0  0  0  0  0  0  0  0
  148.4980  135.6274  158.8346 H   0  0  0  0  0  0  0  0  0  0  0  0
  150.1985  135.2861  157.2215 H   0  0  0  0  0  0  0  0  0  0  0  0
  147.9704  135.2116  156.1634 H   0  0  0  0  0  0  0  0  0  0  0  0
  149.1769  135.7849  155.0191 H   0  0  0  0  0  0  0  0  0  0  0  0
  148.0682  136.9271  155.7755 H   0  0  0  0  0  0  0  0  0  0  0  0
  150.1974  138.2252  156.6737 H   0  0  0  0  0  0  0  0  0  0  0  0
  153.5521  138.4929  156.8248 H   0  0  0  0  0  0  0  0  0  0  0  0
  153.0726  138.3675  155.1781 H   0  0  0  0  0  0  0  0  0  0  0  0
  149.6122  142.7787  156.7183 H   0  0  0  0  0  0  0  0  0  0  0  0
  150.4789  142.0625  159.5416 H   0  0  0  0  0  0  0  0  0  0  0  0
  151.7980  144.2874  157.8045 H   0  0  0  0  0  0  0  0  0  0  0  0
  151.0129  144.4898  159.4549 H   0  0  0  0  0  0  0  0  0  0  0  0
  152.6634  142.8609  160.4311 H   0  0  0  0  0  0  0  0  0  0  0  0
  153.4424  142.6703  158.7764 H   0  0  0  0  0  0  0  0  0  0  0  0
  1  2  1  0  0  0  0
  1 22  1  0  0  0  0
  1 23  1  0  0  0  0
  1 24  1  0  0  0  0
  2  3  1  0  0  0  0
  2 25  1  0  0  0  0
  2 26  1  0  0  0  0
  3  4  1  0  0  0  0
  3  5  1  0  0  0  0
  3 27  1  0  0  0  0
  4 28  1  0  0  0  0
  4 29  1  0  0  0  0
  4 30  1  0  0  0  0
  5  6  1  0  0  0  0
  5 31  1  0  0  0  0
  6  7  2  0  0  0  0
  6  8  1  0  0  0  0
  8  9  1  0  0  0  0
  8 32  1  0  0  0  0
  8 33  1  0  0  0  0
  9 20  1  0  0  0  0
  9 10  1  0  0  0  0
 10 11  2  0  0  0  0
 10 12  1  0  0  0  0
 12 13  1  0  0  0  0
 12 15  2  0  0  0  0
 13 14  3  0  0  0  0
 15 16  1  0  0  0  0
 15 34  1  0  0  0  0
 16 17  1  0  0  0  0
 16 20  1  0  0  0  0
 17 19  1  0  0  0  0
 17 18  1  0  0  0  0
 17 35  1  0  0  0  0
 18 19  1  0  0  0  0
 18 36  1  0  0  0  0
 18 37  1  0  0  0  0
 19 38  1  0  0  0  0
 19 39  1  0  0  0  0
 20 21  2  0  0  0  0
M  END
> <s_m_source_file>
AV-unprocessed.smi

> <i_m_source_file_index>
379

> <i_lp_mmshare_version>
43012

> <i_f3d_flags>
0

> <s_epik_input>
W0NIM11bQ0gyXVtDQEhdKFtDSDNdKVtOSF1DKD1PKVtDSDJdbjFjKD1PKWMoQyNOKVtjSF1uKGMxPU8pW0NIXTJbQ0gyXVtDSDJdMg==

> <s_epik_cmdline>
J2VwaWtfcHl0aG9uJywgJy1waCcsICc3LjAnLCAnLXRuJywgJzgnLCAnLW1hJywgJzIwMCcsICctbWV0YWxfYmluZGluZycsICctaW1hZScsICc8aW5maWxlLm1hZT4nLCAnLW9tYWUnLCAnPG91dGZpbGUubWFlPic=

> <r_lp_tautomer_probability>
1

> <r_epik_Ionization_Penalty>
1.93863e-08

> <r_epik_Ionization_Penalty_Charging>
8.45512e-11

> <r_epik_Ionization_Penalty_Neutral>
1.93017e-08

> <r_epik_State_Penalty>
-0

> <r_epik_Charging_Adjusted_Penalty>
8.45512e-11

> <i_epik_Tot_Q>
0

> <i_epik_Tot_abs_Q>
0

> <r_epik_Metal_State_Penalty>
-0

> <b_epik_Metal_Only>
0

> <s_lp_Force_Field>
OPLS_2005

> <r_lp_Energy>
29.1248

> <b_lp_Chiralities_Consistent>
1

> <s_lp_Variant>
AV-unprocessed.smi:379-2

> <Gold.Version>
5.8.1

> <Gold.Id.Protein>
6NUR|6NUR_protein|mol2

> <Gold.PLP.Fitness>
44.1923

> <Gold.PLP.PLP>
-35.4305

> <Gold.PLP.part.hbond>
-3.9971

> <Gold.PLP.part.metal>
0.0000

> <Gold.PLP.part.buried>
-1.3842

> <Gold.PLP.part.nonpolar>
-29.2653

> <Gold.PLP.part.repulsive>
0.3731

> <Gold.PLP.ligand.clash>
0.0000

> <Gold.PLP.ligand.torsion>
0.5447

> <Gold.PLP.Chemscore.Hbond>
2.2065

> <Gold.PLP.Chemscore.CHOScore>
1.0000

> <Gold.PLP.Chemscore.Metal>
0.0000

> <Gold.Chemscore.Hbonds>
donor molecule, donor type, donor heavy atom, donor atom, acceptor molecule, acceptor atom, score
      P1  H  7997  8008       L1    21  0.20
      P1  H  8011  8017       L1    14  0.35
      P1  H 10752 10765       L1     7  1.00
      L1  C    15    34       P1  8028  1.00

> <Gold.PLP.Chemscore.Internal.Correction>
0.2318

> <Gold.Rescore>
     Score         DG    S(hbond)    S(metal)    S(lipo)     H(rot)  DE(clash)    DE(int)     intcor
     12.63     -14.13       1.77        0.00      66.72       1.98       0.31       1.18       ----

> <Gold.Chemscore.Fitness>
12.6349

> <Gold.Chemscore.DG>
-14.1265

> <Gold.Chemscore.ZeroCoef>
-5.4800

> <Gold.Chemscore.Hbond>
1.7671

> <Gold.Chemscore.Metal>
0.0000

> <Gold.Chemscore.Lipo>
66.7238

> <Gold.Chemscore.Internal_Hbond>
0.0000

> <Gold.Chemscore.DEClash>
0.3147

> <Gold.Chemscore.DEInternal>
1.1769

> <Gold.Chemscore.Rot>
1.9774

> <Gold.Chemscore.Internal.Correction>
   9.000000E+99

> <Gold.Chemscore.Hbonds>
donor molecule, donor type, donor heavy atom, donor atom, acceptor molecule, acceptor atom, score
      P1  H  7997  8008       L1    21  0.04
      P1  H  8011  8017       L1    14  0.03
      P1  H 10752 10765       L1     7  0.98

> <Gold.Chemscore.Hbond.Weighted>
-5.9021

> <Gold.Chemscore.Metal.Weighted>
-0.0000

> <Gold.Chemscore.Lipo.Weighted>
-7.8067

> <Gold.Chemscore.Internal_Hbond.Weighted>
0.0000

> <Gold.Chemscore.DEClash.Weighted>
0.3147

> <Gold.Chemscore.DEInternal.Weighted>
1.1769

> <Gold.Chemscore.Rot.Weighted>
5.0623

> <Gold.Chemscore.Internal.Correction.Weighted>
   9.000000E+99

> <Gold.Protein.RotatedTorsions>
[ 6907 6896 6895 6894 ] final   66.64 input  -60.11 | X-H torsion
[ 7974 7965 7964 7962 ] final  -96.19 input  175.53 | X-H torsion
[ 8008 7997 7996 7995 ] final  -96.15 input   59.86 | X-H torsion
[ 10167 10162 10161 10158 ] final   60.98 input  -65.29 | X-H torsion
[ 10718 10713 10712 10709 ] final -120.06 input   66.30 | X-H torsion
[ 10763 10752 10751 10750 ] final -136.59 input  -60.55 | X-H torsion
[ 11005 11000 10999 10996 ] final   90.84 input  -57.11 | X-H torsion

> <Gold.Protein.ActiveResidues>
 VAL166  LYS551  ARG553  GLY616  TRP617  ASP618  TYR619  PRO620  LYS621  CYS622 
 ASP623  PHE694  ASN695  SER759  ASP760  ASP761  ALA762  ILE779  LEU786  VAL792 
 PHE793  MET794  SER795  GLU796  ALA797  LYS798  CYS799  TRP800  GLU811  SER814 

> <Gold.Protein.RotatedAtoms>
  152.4495  134.5423  159.9842 H   0  0  0  0  0  0  0  0  0  0  0  0  # atno 6907 bound_to 6896
  151.5499  133.3413  159.2959 H   0  0  0  0  0  0  0  0  0  0  0  0  # atno 6908 bound_to 6896
  150.8420  134.7748  159.7003 H   0  0  0  0  0  0  0  0  0  0  0  0  # atno 6909 bound_to 6896
  145.3501  140.9475  143.2559 H   0  0  0  0  0  0  0  0  0  0  0  0  # atno 7974 bound_to 7965
  154.7706  140.0474  157.1048 H   0  0  0  0  0  0  0  0  0  0  0  0  # atno 8008 bound_to 7997
  154.9824  140.3103  155.4921 H   0  0  0  0  0  0  0  0  0  0  0  0  # atno 8009 bound_to 7997
  156.2920  140.2233  156.4924 H   0  0  0  0  0  0  0  0  0  0  0  0  # atno 8010 bound_to 7997
  140.1597  144.4382  150.6716 H   0  0  0  0  0  0  0  0  0  0  0  0  # atno 10167 bound_to 10162
  156.1229  130.6337  150.9493 H   0  0  0  0  0  0  0  0  0  0  0  0  # atno 10718 bound_to 10713
  154.8680  135.3668  154.5086 H   0  0  0  0  0  0  0  0  0  0  0  0  # atno 10763 bound_to 10752
  153.5723  135.7020  153.5504 H   0  0  0  0  0  0  0  0  0  0  0  0  # atno 10764 bound_to 10752
  153.3531  135.4066  155.1624 H   0  0  0  0  0  0  0  0  0  0  0  0  # atno 10765 bound_to 10752
  139.8849  134.8638  156.3342 H   0  0  0  0  0  0  0  0  0  0  0  0  # atno 11005 bound_to 11000
  144.8724  139.5019  143.6761 LP  0  0  0  0  0  0  0  0  0  0  0  0  # atno 17320 bound_to 7965
  146.2971  139.7312  142.9118 LP  0  0  0  0  0  0  0  0  0  0  0  0  # atno 17321 bound_to 7965
  140.6651  143.2265  151.5763 LP  0  0  0  0  0  0  0  0  0  0  0  0  # atno 17342 bound_to 10162
  139.5387  144.2709  152.1305 LP  0  0  0  0  0  0  0  0  0  0  0  0  # atno 17343 bound_to 10162
  157.6411  131.0910  150.8248 LP  0  0  0  0  0  0  0  0  0  0  0  0  # atno 17370 bound_to 10713
  156.8342  130.5026  149.5328 LP  0  0  0  0  0  0  0  0  0  0  0  0  # atno 17371 bound_to 10713
  140.9702  133.7332  156.0524 LP  0  0  0  0  0  0  0  0  0  0  0  0  # atno 17394 bound_to 11000
  140.7880  134.3650  157.5471 LP  0  0  0  0  0  0  0  0  0  0  0  0  # atno 17395 bound_to 11000

$$$$
