AV-unprocessed.smi:3210|AV-procd|sdf|12272|dock2
  -GOLD-   2272018103D 1   1.00000     0.00000
 Structure written by MMmdl.
 35 36  0  0  0  0  0  0  0  0  2 V2000
  144.6469  137.4965  152.6970 O   0  0  0  0  0  0  0  0  0  0  0  0
  145.8051  137.3999  152.2887 C   0  0  0  0  0  0  0  0  0  0  0  0
  146.6140  138.6470  151.9262 C   0  0  0  0  0  0  0  0  0  0  0  0
  147.9597  138.6415  152.5359 N   0  3  0  0  0  0  0  0  0  0  0  0
  147.9751  139.0062  153.9653 C   0  0  0  0  0  0  0  0  0  0  0  0
  148.8570  138.0408  154.7701 C   0  0  0  0  0  0  0  0  0  0  0  0
  150.2266  138.5086  154.8607 N   0  0  0  0  0  0  0  0  0  0  0  0
  151.3730  137.9085  154.3828 C   0  0  0  0  0  0  0  0  0  0  0  0
  152.4222  138.7174  154.7132 C   0  0  0  0  0  0  0  0  0  0  0  0
  151.8105  139.7997  155.4055 C   0  0  0  0  0  0  0  0  0  0  0  0
  150.4962  139.6709  155.4931 N   0  0  0  0  0  0  0  0  0  0  0  0
  146.4353  136.2257  152.1351 N   0  0  0  0  0  0  0  0  0  0  0  0
  145.8533  134.9202  152.4206 C   0  0  0  0  0  0  0  0  0  0  0  0
  145.5178  134.0867  151.1984 C   0  0  0  0  0  0  0  0  0  0  0  0
  145.3873  132.5860  151.3105 C   0  0  0  0  0  0  0  0  0  0  0  0
  146.5507  133.1880  150.5595 C   0  0  0  0  0  0  0  0  0  0  0  0
  146.7080  138.7050  150.8409 H   0  0  0  0  0  0  0  0  0  0  0  0
  146.0702  139.5331  152.2568 H   0  0  0  0  0  0  0  0  0  0  0  0
  148.3508  137.7157  152.4329 H   0  0  0  0  0  0  0  0  0  0  0  0
  148.3454  140.0266  154.0725 H   0  0  0  0  0  0  0  0  0  0  0  0
  146.9530  138.9915  154.3460 H   0  0  0  0  0  0  0  0  0  0  0  0
  148.4669  137.9172  155.7816 H   0  0  0  0  0  0  0  0  0  0  0  0
  148.8582  137.0529  154.3075 H   0  0  0  0  0  0  0  0  0  0  0  0
  151.3485  136.9675  153.8531 H   0  0  0  0  0  0  0  0  0  0  0  0
  153.4682  138.5589  154.4958 H   0  0  0  0  0  0  0  0  0  0  0  0
  152.2791  140.6683  155.8440 H   0  0  0  0  0  0  0  0  0  0  0  0
  147.3859  136.2340  151.7934 H   0  0  0  0  0  0  0  0  0  0  0  0
  146.5535  134.3686  153.0484 H   0  0  0  0  0  0  0  0  0  0  0  0
  144.9473  135.0459  153.0155 H   0  0  0  0  0  0  0  0  0  0  0  0
  144.8109  134.5633  150.5216 H   0  0  0  0  0  0  0  0  0  0  0  0
  145.5965  132.1280  152.2752 H   0  0  0  0  0  0  0  0  0  0  0  0
  144.6055  132.1051  150.7261 H   0  0  0  0  0  0  0  0  0  0  0  0
  146.5446  133.1080  149.4743 H   0  0  0  0  0  0  0  0  0  0  0  0
  147.5322  133.1299  151.0255 H   0  0  0  0  0  0  0  0  0  0  0  0
  148.5410  139.2927  152.0276 H   0  0  0  0  0  0  0  0  0  0  0  0
  1  2  2  0  0  0  0
  2  3  1  0  0  0  0
  2 12  1  0  0  0  0
  3  4  1  0  0  0  0
  3 17  1  0  0  0  0
  3 18  1  0  0  0  0
  4  5  1  0  0  0  0
  4 19  1  0  0  0  0
  4 35  1  0  0  0  0
  5  6  1  0  0  0  0
  5 20  1  0  0  0  0
  5 21  1  0  0  0  0
  6  7  1  0  0  0  0
  6 22  1  0  0  0  0
  6 23  1  0  0  0  0
  7 11  1  0  0  0  0
  7  8  1  0  0  0  0
  8  9  2  0  0  0  0
  8 24  1  0  0  0  0
  9 10  1  0  0  0  0
  9 25  1  0  0  0  0
 10 11  2  0  0  0  0
 10 26  1  0  0  0  0
 12 13  1  0  0  0  0
 12 27  1  0  0  0  0
 13 14  1  0  0  0  0
 13 28  1  0  0  0  0
 13 29  1  0  0  0  0
 14 16  1  0  0  0  0
 14 15  1  0  0  0  0
 14 30  1  0  0  0  0
 15 16  1  0  0  0  0
 15 31  1  0  0  0  0
 15 32  1  0  0  0  0
 16 33  1  0  0  0  0
 16 34  1  0  0  0  0
M  CHG  1   4   1
M  END
> <s_m_source_file>
AV-unprocessed.smi

> <i_m_source_file_index>
3210

> <i_lp_mmshare_version>
43012

> <i_f3d_flags>
0

> <s_epik_input>
W0NIMl0xW0NIMl1bQ0hdMVtDSDJdW05IXUMoPU8pW0NIMl1bTkhdW0NIMl1bQ0gyXW4yW2NIXVtjSF1bY0hdbjI=

> <s_epik_cmdline>
J2VwaWtfcHl0aG9uJywgJy1waCcsICc3LjAnLCAnLXRuJywgJzgnLCAnLW1hJywgJzIwMCcsICctbWV0YWxfYmluZGluZycsICctaW1hZScsICc8aW5maWxlLm1hZT4nLCAnLW9tYWUnLCAnPG91dGZpbGUubWFlPic=

> <r_lp_tautomer_probability>
1

> <r_epik_Ionization_Penalty>
0.20724

> <r_epik_Ionization_Penalty_Charging>
0.207237

> <r_epik_Ionization_Penalty_Neutral>
3.19342e-06

> <r_epik_State_Penalty>
0.197611

> <r_epik_Charging_Adjusted_Penalty>
0.404848

> <i_epik_Tot_Q>
1

> <i_epik_Tot_abs_Q>
1

> <r_epik_Metal_State_Penalty>
0.197786

> <b_epik_Metal_Only>
0

> <s_lp_Force_Field>
OPLS_2005

> <r_lp_Energy>
10.8837

> <b_lp_Chiralities_Consistent>
1

> <s_lp_Variant>
AV-unprocessed.smi:3210-1

> <Gold.Version>
5.8.1

> <Gold.Id.Protein>
6NUR|6NUR_protein|mol2

> <Gold.PLP.Fitness>
46.3812

> <Gold.PLP.PLP>
-32.8043

> <Gold.PLP.part.hbond>
-3.0000

> <Gold.PLP.part.metal>
0.0000

> <Gold.PLP.part.buried>
-4.9723

> <Gold.PLP.part.nonpolar>
-27.4098

> <Gold.PLP.part.repulsive>
0.6781

> <Gold.PLP.ligand.clash>
0.0000

> <Gold.PLP.ligand.torsion>
1.0628

> <Gold.PLP.Chemscore.Hbond>
4.0000

> <Gold.PLP.Chemscore.CHOScore>
1.0000

> <Gold.PLP.Chemscore.Metal>
0.0000

> <Gold.Chemscore.Hbonds>
donor molecule, donor type, donor heavy atom, donor atom, acceptor molecule, acceptor atom, score
      L1  H     4    19       P1  7948  2.00
      L1  H     4    35       P1  7957  1.00
      L1  H    12    27       P1  7948  1.00
      L1  C     8    24       P1  7949  0.92

> <Gold.PLP.Chemscore.Internal.Correction>
0.7026

> <Gold.Rescore>
     Score         DG    S(hbond)    S(metal)    S(lipo)     H(rot)  DE(clash)    DE(int)     intcor
     16.22     -17.43       2.97        0.00      69.23       2.37       0.09       1.12       ----

> <Gold.Chemscore.Fitness>
16.2174

> <Gold.Chemscore.DG>
-17.4289

> <Gold.Chemscore.ZeroCoef>
-5.4800

> <Gold.Chemscore.Hbond>
2.9699

> <Gold.Chemscore.Metal>
0.0000

> <Gold.Chemscore.Lipo>
69.2349

> <Gold.Chemscore.Internal_Hbond>
0.0000

> <Gold.Chemscore.DEClash>
0.0872

> <Gold.Chemscore.DEInternal>
1.1243

> <Gold.Chemscore.Rot>
2.3715

> <Gold.Chemscore.Internal.Correction>
   9.000000E+99

> <Gold.Chemscore.Hbonds>
donor molecule, donor type, donor heavy atom, donor atom, acceptor molecule, acceptor atom, score
      L1  H     4    19       P1  7948  1.00
      L1  H     4    35       P1  7957  0.94
      L1  H    12    27       P1  7948  0.94

> <Gold.Chemscore.Hbond.Weighted>
-9.9195

> <Gold.Chemscore.Metal.Weighted>
-0.0000

> <Gold.Chemscore.Lipo.Weighted>
-8.1005

> <Gold.Chemscore.Internal_Hbond.Weighted>
0.0000

> <Gold.Chemscore.DEClash.Weighted>
0.0872

> <Gold.Chemscore.DEInternal.Weighted>
1.1243

> <Gold.Chemscore.Rot.Weighted>
6.0712

> <Gold.Chemscore.Internal.Correction.Weighted>
   9.000000E+99

> <Gold.Protein.RotatedTorsions>
[ 6907 6896 6895 6894 ] final   80.08 input  -60.11 | X-H torsion
[ 7974 7965 7964 7962 ] final -118.08 input  175.53 | X-H torsion
[ 8008 7997 7996 7995 ] final  -71.33 input   59.86 | X-H torsion
[ 10167 10162 10161 10158 ] final -138.78 input  -65.29 | X-H torsion
[ 10718 10713 10712 10709 ] final   89.25 input   66.30 | X-H torsion
[ 10763 10752 10751 10750 ] final  -93.47 input  -60.55 | X-H torsion
[ 11005 11000 10999 10996 ] final -111.59 input  -57.11 | X-H torsion

> <Gold.Protein.ActiveResidues>
 VAL166  LYS551  ARG553  GLY616  TRP617  ASP618  TYR619  PRO620  LYS621  CYS622 
 ASP623  PHE694  ASN695  SER759  ASP760  ASP761  ALA762  ILE779  LEU786  VAL792 
 PHE793  MET794  SER795  GLU796  ALA797  LYS798  CYS799  TRP800  GLU811  SER814 

> <Gold.Protein.RotatedAtoms>
  152.5222  134.3412  159.9217 H   0  0  0  0  0  0  0  0  0  0  0  0  # atno 6907 bound_to 6896
  151.3362  133.3974  159.2674 H   0  0  0  0  0  0  0  0  0  0  0  0  # atno 6908 bound_to 6896
  150.9840  134.9207  159.7919 H   0  0  0  0  0  0  0  0  0  0  0  0  # atno 6909 bound_to 6896
  145.0779  140.8405  143.4057 H   0  0  0  0  0  0  0  0  0  0  0  0  # atno 7974 bound_to 7965
  154.5079  140.0817  156.7932 H   0  0  0  0  0  0  0  0  0  0  0  0  # atno 8008 bound_to 7997
  155.3851  140.3430  155.4230 H   0  0  0  0  0  0  0  0  0  0  0  0  # atno 8009 bound_to 7997
  156.1538  140.1567  156.8713 H   0  0  0  0  0  0  0  0  0  0  0  0  # atno 8010 bound_to 7997
  139.8445  143.7279  152.2661 H   0  0  0  0  0  0  0  0  0  0  0  0  # atno 10167 bound_to 10162
  157.6954  131.0326  150.3397 H   0  0  0  0  0  0  0  0  0  0  0  0  # atno 10718 bound_to 10713
  154.6962  135.5193  153.8462 H   0  0  0  0  0  0  0  0  0  0  0  0  # atno 10763 bound_to 10752
  153.0669  135.6588  154.0343 H   0  0  0  0  0  0  0  0  0  0  0  0  # atno 10764 bound_to 10752
  154.0210  135.2993  155.3360 H   0  0  0  0  0  0  0  0  0  0  0  0  # atno 10765 bound_to 10752
  141.0725  133.9356  157.2456 H   0  0  0  0  0  0  0  0  0  0  0  0  # atno 11005 bound_to 11000
  145.1214  139.2691  143.5586 LP  0  0  0  0  0  0  0  0  0  0  0  0  # atno 17320 bound_to 7965
  146.3530  140.0839  142.8616 LP  0  0  0  0  0  0  0  0  0  0  0  0  # atno 17321 bound_to 7965
  139.7526  144.7530  151.0483 LP  0  0  0  0  0  0  0  0  0  0  0  0  # atno 17342 bound_to 10162
  140.7794  143.4842  150.9978 LP  0  0  0  0  0  0  0  0  0  0  0  0  # atno 17343 bound_to 10162
  156.3860  130.3889  149.7066 LP  0  0  0  0  0  0  0  0  0  0  0  0  # atno 17370 bound_to 10713
  156.4432  130.7871  151.2892 LP  0  0  0  0  0  0  0  0  0  0  0  0  # atno 17371 bound_to 10713
  139.9538  135.0170  156.9070 LP  0  0  0  0  0  0  0  0  0  0  0  0  # atno 17394 bound_to 11000
  140.5643  134.0505  155.7409 LP  0  0  0  0  0  0  0  0  0  0  0  0  # atno 17395 bound_to 11000

$$$$
