AV-unprocessed.smi:56|AV-procd|sdf|577|dock3
  -GOLD-   2262016483D 1   1.00000     0.00000
 Structure written by MMmdl.
 23 24  0  0  0  0  0  0  0  0  2 V2000
  146.6169  132.4570  149.8634 O   0  0  0  0  0  0  0  0  0  0  0  0
  145.6041  132.4266  150.8565 C   0  0  1  0  0  0  0  0  0  0  0  0
  145.8699  131.3233  151.8585 C   0  0  0  0  0  0  0  0  0  0  0  0
  146.0093  129.9183  151.6362 C   0  0  0  0  0  0  0  0  0  0  0  0
  146.2410  129.3997  152.8780 C   0  0  0  0  0  0  0  0  0  0  0  0
  146.2334  130.4593  153.7519 N   0  0  0  0  0  0  0  0  0  0  0  0
  146.0098  131.6373  153.1415 N   0  0  0  0  0  0  0  0  0  0  0  0
  145.4880  133.8163  151.4915 C   0  0  0  0  0  0  0  0  0  0  0  0
  144.6472  134.6308  150.4967 C   0  0  0  0  0  0  0  0  0  0  0  0
  143.9473  133.6552  149.6354 N   0  3  0  0  0  0  0  0  0  0  0  0
  144.2506  132.3041  150.1414 C   0  0  0  0  0  0  0  0  0  0  0  0
  146.3789  130.3962  154.7497 H   0  0  0  0  0  0  0  0  0  0  0  0
  147.1893  131.7157  149.9837 H   0  0  0  0  0  0  0  0  0  0  0  0
  145.9517  129.3694  150.7081 H   0  0  0  0  0  0  0  0  0  0  0  0
  146.4088  128.3843  153.2062 H   0  0  0  0  0  0  0  0  0  0  0  0
  144.9355  133.7406  152.4297 H   0  0  0  0  0  0  0  0  0  0  0  0
  146.4524  134.2720  151.7210 H   0  0  0  0  0  0  0  0  0  0  0  0
  143.9359  135.2792  151.0093 H   0  0  0  0  0  0  0  0  0  0  0  0
  145.2831  135.2575  149.8706 H   0  0  0  0  0  0  0  0  0  0  0  0
  142.9506  133.8202  149.6294 H   0  0  0  0  0  0  0  0  0  0  0  0
  144.2376  131.5498  149.3534 H   0  0  0  0  0  0  0  0  0  0  0  0
  143.4626  132.0557  150.8535 H   0  0  0  0  0  0  0  0  0  0  0  0
  144.3115  133.7399  148.6973 H   0  0  0  0  0  0  0  0  0  0  0  0
  1  2  1  0  0  0  0
  1 13  1  0  0  0  0
  2 11  1  0  0  0  0
  2  8  1  0  0  0  0
  2  3  1  0  0  0  0
  3  7  2  0  0  0  0
  3  4  1  0  0  0  0
  4  5  2  0  0  0  0
  4 14  1  0  0  0  0
  5  6  1  0  0  0  0
  5 15  1  0  0  0  0
  6  7  1  0  0  0  0
  6 12  1  0  0  0  0
  8  9  1  0  0  0  0
  8 16  1  0  0  0  0
  8 17  1  0  0  0  0
  9 10  1  0  0  0  0
  9 18  1  0  0  0  0
  9 19  1  0  0  0  0
 10 11  1  0  0  0  0
 10 20  1  0  0  0  0
 10 23  1  0  0  0  0
 11 21  1  0  0  0  0
 11 22  1  0  0  0  0
M  CHG  1  10   1
M  END
> <s_m_source_file>
AV-unprocessed.smi

> <i_m_source_file_index>
56

> <i_lp_mmshare_version>
43012

> <i_f3d_flags>
0

> <s_epik_input>
W0NIMl0xW05IXVtDSDJdW0NIMl1bQ0BAXTEoW09IXSljMltjSF1bY0hdbltuSF0y

> <s_epik_cmdline>
J2VwaWtfcHl0aG9uJywgJy1waCcsICc3LjAnLCAnLXRuJywgJzgnLCAnLW1hJywgJzIwMCcsICctbWV0YWxfYmluZGluZycsICctaW1hZScsICc8aW5maWxlLm1hZT4nLCAnLW9tYWUnLCAnPG91dGZpbGUubWFlPic=

> <r_lp_tautomer_probability>
0.5

> <r_epik_Ionization_Penalty>
0.000592189

> <r_epik_Ionization_Penalty_Charging>
0.00059155

> <r_epik_Ionization_Penalty_Neutral>
6.39784e-07

> <r_epik_State_Penalty>
0.41068

> <r_epik_Charging_Adjusted_Penalty>
0.411271

> <i_epik_Tot_Q>
1

> <i_epik_Tot_abs_Q>
1

> <r_epik_Metal_State_Penalty>
0.410682

> <b_epik_Metal_Only>
0

> <s_lp_Force_Field>
OPLS_2005

> <r_lp_Energy>
24.7564

> <b_lp_Chiralities_Consistent>
1

> <s_lp_Variant>
AV-unprocessed.smi:56-1

> <Gold.Version>
5.8.1

> <Gold.Id.Protein>
6NUR|6NUR_protein|mol2

> <Gold.PLP.Fitness>
32.3259

> <Gold.PLP.PLP>
-22.8822

> <Gold.PLP.part.hbond>
-3.0956

> <Gold.PLP.part.metal>
0.0000

> <Gold.PLP.part.buried>
-3.8498

> <Gold.PLP.part.nonpolar>
-15.7440

> <Gold.PLP.part.repulsive>
0.2586

> <Gold.PLP.ligand.clash>
0.0000

> <Gold.PLP.ligand.torsion>
0.0137

> <Gold.PLP.Chemscore.Hbond>
3.1498

> <Gold.PLP.Chemscore.CHOScore>
0.0000

> <Gold.PLP.Chemscore.Metal>
0.0000

> <Gold.Chemscore.Hbonds>
donor molecule, donor type, donor heavy atom, donor atom, acceptor molecule, acceptor atom, score
      L1  H     1    13       P1 10747  1.00
      L1  H    10    20       P1 10186  1.98
      L1  H    10    23       P1  7921  0.14

> <Gold.PLP.Chemscore.Internal.Correction>
0.0218

> <Gold.Rescore>
     Score         DG    S(hbond)    S(metal)    S(lipo)     H(rot)  DE(clash)    DE(int)     intcor
     17.04     -17.05       2.65        0.00      55.97       1.50       0.00       0.01       ----

> <Gold.Chemscore.Fitness>
17.0398

> <Gold.Chemscore.DG>
-17.0529

> <Gold.Chemscore.ZeroCoef>
-5.4800

> <Gold.Chemscore.Hbond>
2.6527

> <Gold.Chemscore.Metal>
0.0000

> <Gold.Chemscore.Lipo>
55.9742

> <Gold.Chemscore.Internal_Hbond>
0.0000

> <Gold.Chemscore.DEClash>
0.0000

> <Gold.Chemscore.DEInternal>
0.0131

> <Gold.Chemscore.Rot>
1.4985

> <Gold.Chemscore.Internal.Correction>
   9.000000E+99

> <Gold.Chemscore.Hbonds>
donor molecule, donor type, donor heavy atom, donor atom, acceptor molecule, acceptor atom, score
      L1  H     1    13       P1 10747  0.94
      L1  H    10    20       P1 10186  0.92
      L1  H    10    23       P1  7921  0.15

> <Gold.Chemscore.Hbond.Weighted>
-8.8601

> <Gold.Chemscore.Metal.Weighted>
-0.0000

> <Gold.Chemscore.Lipo.Weighted>
-6.5490

> <Gold.Chemscore.Internal_Hbond.Weighted>
0.0000

> <Gold.Chemscore.DEClash.Weighted>
0.0000

> <Gold.Chemscore.DEInternal.Weighted>
0.0131

> <Gold.Chemscore.Rot.Weighted>
3.8362

> <Gold.Chemscore.Internal.Correction.Weighted>
   9.000000E+99

> <Gold.Protein.RotatedTorsions>
[ 6907 6896 6895 6894 ] final  -78.20 input  -60.11 | X-H torsion
[ 7974 7965 7964 7962 ] final   42.37 input  175.53 | X-H torsion
[ 8008 7997 7996 7995 ] final   72.75 input   59.86 | X-H torsion
[ 10167 10162 10161 10158 ] final  -78.19 input  -65.29 | X-H torsion
[ 10718 10713 10712 10709 ] final   76.73 input   66.30 | X-H torsion
[ 10763 10752 10751 10750 ] final   82.07 input  -60.55 | X-H torsion
[ 11005 11000 10999 10996 ] final   24.37 input  -57.11 | X-H torsion

> <Gold.Protein.ActiveResidues>
 VAL166  LYS551  ARG553  GLY616  TRP617  ASP618  TYR619  PRO620  LYS621  CYS622 
 ASP623  PHE694  ASN695  SER759  ASP760  ASP761  ALA762  ILE779  LEU786  VAL792 
 PHE793  MET794  SER795  GLU796  ALA797  LYS798  CYS799  TRP800  GLU811  SER814 

> <Gold.Protein.RotatedAtoms>
  150.6979  134.4308  159.5247 H   0  0  0  0  0  0  0  0  0  0  0  0  # atno 6907 bound_to 6896
  152.2035  134.8564  160.0514 H   0  0  0  0  0  0  0  0  0  0  0  0  # atno 6908 bound_to 6896
  151.9476  133.3621  159.4025 H   0  0  0  0  0  0  0  0  0  0  0  0  # atno 6909 bound_to 6896
  146.0746  139.5308  142.9576 H   0  0  0  0  0  0  0  0  0  0  0  0  # atno 7974 bound_to 7965
  155.7735  140.3484  155.5259 H   0  0  0  0  0  0  0  0  0  0  0  0  # atno 8008 bound_to 7997
  155.8799  140.1000  157.1513 H   0  0  0  0  0  0  0  0  0  0  0  0  # atno 8009 bound_to 7997
  154.4024  140.1324  156.4170 H   0  0  0  0  0  0  0  0  0  0  0  0  # atno 8010 bound_to 7997
  140.4704  143.2428  151.8213 H   0  0  0  0  0  0  0  0  0  0  0  0  # atno 10167 bound_to 10162
  157.6684  130.9788  150.1539 H   0  0  0  0  0  0  0  0  0  0  0  0  # atno 10718 bound_to 10713
  153.1171  135.4742  154.9133 H   0  0  0  0  0  0  0  0  0  0  0  0  # atno 10763 bound_to 10752
  154.7539  135.3113  154.8509 H   0  0  0  0  0  0  0  0  0  0  0  0  # atno 10764 bound_to 10752
  153.9083  135.6868  153.4805 H   0  0  0  0  0  0  0  0  0  0  0  0  # atno 10765 bound_to 10752
  140.3594  134.2142  155.7673 H   0  0  0  0  0  0  0  0  0  0  0  0  # atno 11005 bound_to 11000
  145.6330  141.0300  143.1853 LP  0  0  0  0  0  0  0  0  0  0  0  0  # atno 17320 bound_to 7965
  144.7253  139.7895  143.7367 LP  0  0  0  0  0  0  0  0  0  0  0  0  # atno 17321 bound_to 7965
  139.4818  144.4899  151.9199 LP  0  0  0  0  0  0  0  0  0  0  0  0  # atno 17342 bound_to 10162
  140.3984  144.2525  150.5894 LP  0  0  0  0  0  0  0  0  0  0  0  0  # atno 17343 bound_to 10162
  156.2331  130.3684  149.8422 LP  0  0  0  0  0  0  0  0  0  0  0  0  # atno 17370 bound_to 10713
  156.6243  130.8639  151.3482 LP  0  0  0  0  0  0  0  0  0  0  0  0  # atno 17371 bound_to 10713
  141.1988  133.8025  157.0563 LP  0  0  0  0  0  0  0  0  0  0  0  0  # atno 17394 bound_to 11000
  140.0639  134.9740  157.1352 LP  0  0  0  0  0  0  0  0  0  0  0  0  # atno 17395 bound_to 11000

$$$$
