AV-unprocessed.smi:2385|AV-procd|sdf|9466|dock8
  -GOLD-   2272013 93D 1   1.00000     0.00000
 Structure written by MMmdl.
 50 52  0  0  0  0  0  0  0  0  2 V2000
  153.9745  141.6888  160.9724 C   0  0  0  0  0  0  0  0  0  0  0  0
  152.9530  141.9092  159.8763 C   0  0  0  0  0  0  0  0  0  0  0  0
  152.1292  140.8613  159.4232 C   0  0  0  0  0  0  0  0  0  0  0  0
  151.1963  141.1247  158.4015 C   0  0  0  0  0  0  0  0  0  0  0  0
  151.1094  142.4260  157.8574 C   0  0  0  0  0  0  0  0  0  0  0  0
  150.1366  142.5869  156.8348 N   0  0  0  0  0  0  0  0  0  0  0  0
  149.5889  141.6394  156.0532 C   0  0  0  0  0  0  0  0  0  0  0  0
  149.8351  140.4345  156.1131 O   0  0  0  0  0  0  0  0  0  0  0  0
  148.7221  142.1715  155.1786 N   0  0  0  0  0  0  0  0  0  0  0  0
  147.9432  141.4181  154.1956 C   0  0  2  0  0  0  0  0  0  0  0  0
  147.1029  142.3417  153.2924 C   0  0  0  0  0  0  0  0  0  0  0  0
  145.9386  142.9935  154.0585 C   0  0  0  0  0  0  0  0  0  0  0  0
  145.0718  141.9704  154.7004 N   0  3  2  0  0  0  0  0  0  0  0  0
  143.8643  142.5709  155.3279 C   0  0  0  0  0  0  0  0  0  0  0  0
  144.0991  144.0091  155.8358 C   0  0  1  0  0  0  0  0  0  0  0  0
  143.9472  145.1165  154.7957 C   0  0  0  0  0  0  0  0  0  0  0  0
  143.2999  146.2787  155.5568 C   0  0  0  0  0  0  0  0  0  0  0  0
  143.2198  145.8491  156.9079 O   0  0  0  0  0  0  0  0  0  0  0  0
  143.0875  144.4395  156.8963 C   0  0  0  0  0  0  0  0  0  0  0  0
  145.8509  141.1048  155.6256 C   0  0  0  0  0  0  0  0  0  0  0  0
  147.0182  140.4109  154.8990 C   0  0  0  0  0  0  0  0  0  0  0  0
  151.9071  143.4293  158.3013 N   0  0  0  0  0  0  0  0  0  0  0  0
  152.8010  143.1760  159.2802 C   0  0  0  0  0  0  0  0  0  0  0  0
  153.9466  140.6629  161.3405 H   0  0  0  0  0  0  0  0  0  0  0  0
  153.7785  142.3575  161.8110 H   0  0  0  0  0  0  0  0  0  0  0  0
  154.9787  141.8905  160.5984 H   0  0  0  0  0  0  0  0  0  0  0  0
  152.2066  139.8712  159.8485 H   0  0  0  0  0  0  0  0  0  0  0  0
  150.5567  140.3312  158.0425 H   0  0  0  0  0  0  0  0  0  0  0  0
  149.8262  143.5344  156.6790 H   0  0  0  0  0  0  0  0  0  0  0  0
  148.5770  143.1701  155.2069 H   0  0  0  0  0  0  0  0  0  0  0  0
  148.6437  140.8579  153.5733 H   0  0  0  0  0  0  0  0  0  0  0  0
  147.7278  143.1107  152.8370 H   0  0  0  0  0  0  0  0  0  0  0  0
  146.6991  141.7579  152.4640 H   0  0  0  0  0  0  0  0  0  0  0  0
  146.3185  143.6802  154.8168 H   0  0  0  0  0  0  0  0  0  0  0  0
  145.3508  143.5892  153.3592 H   0  0  0  0  0  0  0  0  0  0  0  0
  143.0073  142.5158  154.6548 H   0  0  0  0  0  0  0  0  0  0  0  0
  143.5933  141.9698  156.1971 H   0  0  0  0  0  0  0  0  0  0  0  0
  145.0911  144.0814  156.2851 H   0  0  0  0  0  0  0  0  0  0  0  0
  144.9125  145.4015  154.3766 H   0  0  0  0  0  0  0  0  0  0  0  0
  143.3002  144.8116  153.9721 H   0  0  0  0  0  0  0  0  0  0  0  0
  143.8755  147.2013  155.4786 H   0  0  0  0  0  0  0  0  0  0  0  0
  142.2949  146.4722  155.1795 H   0  0  0  0  0  0  0  0  0  0  0  0
  142.0696  144.1690  156.6104 H   0  0  0  0  0  0  0  0  0  0  0  0
  143.2961  144.0106  157.8768 H   0  0  0  0  0  0  0  0  0  0  0  0
  146.2255  141.7033  156.4573 H   0  0  0  0  0  0  0  0  0  0  0  0
  145.2115  140.3382  156.0575 H   0  0  0  0  0  0  0  0  0  0  0  0
  146.6138  139.7196  154.1582 H   0  0  0  0  0  0  0  0  0  0  0  0
  147.5875  139.8008  155.6015 H   0  0  0  0  0  0  0  0  0  0  0  0
  153.4114  144.0092  159.5963 H   0  0  0  0  0  0  0  0  0  0  0  0
  144.7393  141.3806  153.9509 H   0  0  0  0  0  0  0  0  0  0  0  0
  1  2  1  0  0  0  0
  1 24  1  0  0  0  0
  1 25  1  0  0  0  0
  1 26  1  0  0  0  0
  2 23  1  0  0  0  0
  2  3  2  0  0  0  0
  3  4  1  0  0  0  0
  3 27  1  0  0  0  0
  4  5  2  0  0  0  0
  4 28  1  0  0  0  0
  5  6  1  0  0  0  0
  5 22  1  0  0  0  0
  6  7  1  0  0  0  0
  6 29  1  0  0  0  0
  7  8  2  0  0  0  0
  7  9  1  0  0  0  0
  9 10  1  0  0  0  0
  9 30  1  0  0  0  0
 10 21  1  0  0  0  0
 10 11  1  0  0  0  0
 10 31  1  0  0  0  0
 11 12  1  0  0  0  0
 11 32  1  0  0  0  0
 11 33  1  0  0  0  0
 12 13  1  0  0  0  0
 12 34  1  0  0  0  0
 12 35  1  0  0  0  0
 13 14  1  0  0  0  0
 13 20  1  0  0  0  0
 13 50  1  0  0  0  0
 14 15  1  0  0  0  0
 14 36  1  0  0  0  0
 14 37  1  0  0  0  0
 15 19  1  0  0  0  0
 15 16  1  0  0  0  0
 15 38  1  0  0  0  0
 16 17  1  0  0  0  0
 16 39  1  0  0  0  0
 16 40  1  0  0  0  0
 17 18  1  0  0  0  0
 17 41  1  0  0  0  0
 17 42  1  0  0  0  0
 18 19  1  0  0  0  0
 19 43  1  0  0  0  0
 19 44  1  0  0  0  0
 20 21  1  0  0  0  0
 20 45  1  0  0  0  0
 20 46  1  0  0  0  0
 21 47  1  0  0  0  0
 21 48  1  0  0  0  0
 22 23  2  0  0  0  0
 23 49  1  0  0  0  0
M  CHG  1  13   1
M  END
> <s_m_source_file>
AV-unprocessed.smi

> <i_m_source_file_index>
2385

> <i_lp_mmshare_version>
43012

> <i_f3d_flags>
0

> <s_epik_input>
W0NIM11jMVtjSF1bY0hdYyhuW2NIXTEpW05IXUMoPU8pW05IXVtDSF0yW0NIMl1bQ0gyXU4oW0NIMl1bQ0gyXTIpW0NIMl1bQ0BASF0zW0NIMl1bQ0gyXU9bQ0gyXTM=

> <s_epik_cmdline>
J2VwaWtfcHl0aG9uJywgJy1waCcsICc3LjAnLCAnLXRuJywgJzgnLCAnLW1hJywgJzIwMCcsICctbWV0YWxfYmluZGluZycsICctaW1hZScsICc8aW5maWxlLm1hZT4nLCAnLW9tYWUnLCAnPG91dGZpbGUubWFlPic=

> <r_epik_Ionization_Penalty>
0.00752367

> <r_epik_Ionization_Penalty_Charging>
0.00747775

> <r_epik_Ionization_Penalty_Neutral>
4.59207e-05

> <r_epik_State_Penalty>
0.00558817

> <r_epik_Charging_Adjusted_Penalty>
0.0130659

> <i_epik_Tot_Q>
1

> <i_epik_Tot_abs_Q>
1

> <r_epik_Metal_State_Penalty>
-0

> <b_epik_Metal_Only>
0

> <s_lp_Force_Field>
OPLS_2005

> <r_lp_Energy>
36.5339

> <b_lp_Chiralities_Consistent>
1

> <s_lp_Variant>
AV-unprocessed.smi:2385-4

> <Gold.Version>
5.8.1

> <Gold.Id.Protein>
6NUR|6NUR_protein|mol2

> <Gold.PLP.Fitness>
50.4410

> <Gold.PLP.PLP>
-39.9746

> <Gold.PLP.part.hbond>
-3.0000

> <Gold.PLP.part.metal>
0.0000

> <Gold.PLP.part.buried>
-7.6899

> <Gold.PLP.part.nonpolar>
-30.1501

> <Gold.PLP.part.repulsive>
0.3050

> <Gold.PLP.ligand.clash>
0.0000

> <Gold.PLP.ligand.torsion>
0.7774

> <Gold.PLP.Chemscore.Hbond>
4.0000

> <Gold.PLP.Chemscore.CHOScore>
0.0000

> <Gold.PLP.Chemscore.Metal>
0.0000

> <Gold.Chemscore.Hbonds>
donor molecule, donor type, donor heavy atom, donor atom, acceptor molecule, acceptor atom, score
      L1  H     6    29       P1  8028  0.99
      L1  H     9    30       P1  8028  1.00
      L1  H    13    50       P1 10175  2.00

> <Gold.PLP.Chemscore.Internal.Correction>
0.0213

> <Gold.Rescore>
     Score         DG    S(hbond)    S(metal)    S(lipo)     H(rot)  DE(clash)    DE(int)     intcor
     18.87     -22.89       2.76        0.00     100.62       1.41       1.61       2.41       ----

> <Gold.Chemscore.Fitness>
18.8686

> <Gold.Chemscore.DG>
-22.8899

> <Gold.Chemscore.ZeroCoef>
-5.4800

> <Gold.Chemscore.Hbond>
2.7650

> <Gold.Chemscore.Metal>
0.0000

> <Gold.Chemscore.Lipo>
100.6246

> <Gold.Chemscore.Internal_Hbond>
0.0000

> <Gold.Chemscore.DEClash>
1.6145

> <Gold.Chemscore.DEInternal>
2.4068

> <Gold.Chemscore.Rot>
1.4056

> <Gold.Chemscore.Internal.Correction>
   9.000000E+99

> <Gold.Chemscore.Hbonds>
donor molecule, donor type, donor heavy atom, donor atom, acceptor molecule, acceptor atom, score
      L1  H     6    29       P1  8028  0.94
      L1  H     9    30       P1  8028  0.99
      L1  H    13    50       P1 10175  0.38

> <Gold.Chemscore.Hbond.Weighted>
-9.2351

> <Gold.Chemscore.Metal.Weighted>
-0.0000

> <Gold.Chemscore.Lipo.Weighted>
-11.7731

> <Gold.Chemscore.Internal_Hbond.Weighted>
0.0000

> <Gold.Chemscore.DEClash.Weighted>
1.6145

> <Gold.Chemscore.DEInternal.Weighted>
2.4068

> <Gold.Chemscore.Rot.Weighted>
3.5982

> <Gold.Chemscore.Internal.Correction.Weighted>
   9.000000E+99

> <Gold.Protein.RotatedTorsions>
[ 6907 6896 6895 6894 ] final   78.69 input  -60.11 | X-H torsion
[ 7974 7965 7964 7962 ] final -153.36 input  175.53 | X-H torsion
[ 8008 7997 7996 7995 ] final   71.63 input   59.86 | X-H torsion
[ 10167 10162 10161 10158 ] final   23.59 input  -65.29 | X-H torsion
[ 10718 10713 10712 10709 ] final -120.84 input   66.30 | X-H torsion
[ 10763 10752 10751 10750 ] final -127.72 input  -60.55 | X-H torsion
[ 11005 11000 10999 10996 ] final  -77.22 input  -57.11 | X-H torsion

> <Gold.Protein.ActiveResidues>
 VAL166  LYS551  ARG553  GLY616  TRP617  ASP618  TYR619  PRO620  LYS621  CYS622 
 ASP623  PHE694  ASN695  SER759  ASP760  ASP761  ALA762  ILE779  LEU786  VAL792 
 PHE793  MET794  SER795  GLU796  ALA797  LYS798  CYS799  TRP800  GLU811  SER814 

> <Gold.Protein.RotatedAtoms>
  152.5169  134.3625  159.9289 H   0  0  0  0  0  0  0  0  0  0  0  0  # atno 6907 bound_to 6896
  151.3578  133.3894  159.2694 H   0  0  0  0  0  0  0  0  0  0  0  0  # atno 6908 bound_to 6896
  150.9676  134.9073  159.7826 H   0  0  0  0  0  0  0  0  0  0  0  0  # atno 6909 bound_to 6896
  144.7745  140.4536  143.5883 H   0  0  0  0  0  0  0  0  0  0  0  0  # atno 7974 bound_to 7965
  155.7567  140.3487  155.5177 H   0  0  0  0  0  0  0  0  0  0  0  0  # atno 8008 bound_to 7997
  155.8952  140.1024  157.1410 H   0  0  0  0  0  0  0  0  0  0  0  0  # atno 8009 bound_to 7997
  154.4038  140.1296  156.4354 H   0  0  0  0  0  0  0  0  0  0  0  0  # atno 8010 bound_to 7997
  140.5257  143.9928  150.6439 H   0  0  0  0  0  0  0  0  0  0  0  0  # atno 10167 bound_to 10162
  156.1289  130.6381  150.9589 H   0  0  0  0  0  0  0  0  0  0  0  0  # atno 10718 bound_to 10713
  154.8753  135.3952  154.3639 H   0  0  0  0  0  0  0  0  0  0  0  0  # atno 10763 bound_to 10752
  153.4408  135.7027  153.6176 H   0  0  0  0  0  0  0  0  0  0  0  0  # atno 10764 bound_to 10752
  153.4757  135.3780  155.2384 H   0  0  0  0  0  0  0  0  0  0  0  0  # atno 10765 bound_to 10752
  141.1659  133.7014  156.7787 H   0  0  0  0  0  0  0  0  0  0  0  0  # atno 11005 bound_to 11000
  145.6227  139.1526  143.3013 LP  0  0  0  0  0  0  0  0  0  0  0  0  # atno 17320 bound_to 7965
  146.1915  140.6336  142.9143 LP  0  0  0  0  0  0  0  0  0  0  0  0  # atno 17321 bound_to 7965
  140.3289  143.3090  152.0708 LP  0  0  0  0  0  0  0  0  0  0  0  0  # atno 17342 bound_to 10162
  139.4937  144.6523  151.6649 LP  0  0  0  0  0  0  0  0  0  0  0  0  # atno 17343 bound_to 10162
  157.6469  131.0902  150.8134 LP  0  0  0  0  0  0  0  0  0  0  0  0  # atno 17370 bound_to 10713
  156.8221  130.4987  149.5342 LP  0  0  0  0  0  0  0  0  0  0  0  0  # atno 17371 bound_to 10713
  140.2410  134.8613  157.3574 LP  0  0  0  0  0  0  0  0  0  0  0  0  # atno 17394 bound_to 11000
  140.1795  134.4507  155.7780 LP  0  0  0  0  0  0  0  0  0  0  0  0  # atno 17395 bound_to 11000

$$$$
