AV-unprocessed.smi:693|AV-procd|sdf|3372|dock7
  -GOLD-   22720 0353D 1   1.00000     0.00000
 Structure written by MMmdl.
 46 47  0  0  0  0  0  0  0  0  1 V2000
  151.7457  145.3999  159.6306 C   0  0  0  0  0  0  0  0  0  0  0  0
  152.3880  144.1547  160.2053 C   0  0  0  0  0  0  0  0  0  0  0  0
  152.3589  143.9003  161.5928 C   0  0  0  0  0  0  0  0  0  0  0  0
  152.9756  142.7288  162.0726 C   0  0  0  0  0  0  0  0  0  0  0  0
  153.5961  141.8605  161.1511 C   0  0  0  0  0  0  0  0  0  0  0  0
  154.2722  140.5860  161.6159 C   0  0  0  0  0  0  0  0  0  0  0  0
  153.7599  139.3500  160.8594 C   0  0  0  0  0  0  0  0  0  0  0  0
  154.3616  138.1241  161.3697 N   0  0  0  0  0  0  0  0  0  0  0  0
  153.9423  136.8769  161.0966 C   0  0  0  0  0  0  0  0  0  0  0  0
  152.9601  136.6584  160.3858 O   0  0  0  0  0  0  0  0  0  0  0  0
  154.6695  135.8925  161.6842 N   0  0  0  0  0  0  0  0  0  0  0  0
  155.9755  136.0529  162.3436 C   0  0  0  0  0  0  0  0  0  0  0  0
  157.0622  135.5138  161.3998 C   0  0  0  0  0  0  0  0  0  0  0  0
  156.7857  134.0459  161.0226 C   0  0  0  0  0  0  0  0  0  0  0  0
  155.3341  133.8258  160.5239 C   0  0  1  0  0  0  0  0  0  0  0  0
  154.9835  132.3372  160.2972 C   0  0  0  0  0  0  0  0  0  0  0  0
  153.5449  132.1024  159.8245 C   0  0  0  0  0  0  0  0  0  0  0  0
  152.8197  131.2120  160.5056 N   0  0  0  0  0  0  0  0  0  0  0  0
  153.0996  132.6967  158.8453 O   0  0  0  0  0  0  0  0  0  0  0  0
  154.3371  134.4725  161.5124 C   0  0  0  0  0  0  0  0  0  0  0  0
  153.5693  142.2074  159.7838 C   0  0  0  0  0  0  0  0  0  0  0  0
  152.9796  143.3282  159.3147 N   0  0  0  0  0  0  0  0  0  0  0  0
  151.1483  145.9186  160.3812 H   0  0  0  0  0  0  0  0  0  0  0  0
  151.0926  145.1441  158.7956 H   0  0  0  0  0  0  0  0  0  0  0  0
  152.5119  146.0866  159.2702 H   0  0  0  0  0  0  0  0  0  0  0  0
  151.8772  144.5847  162.2756 H   0  0  0  0  0  0  0  0  0  0  0  0
  152.9704  142.5027  163.1288 H   0  0  0  0  0  0  0  0  0  0  0  0
  155.3497  140.6929  161.4831 H   0  0  0  0  0  0  0  0  0  0  0  0
  154.1054  140.4650  162.6871 H   0  0  0  0  0  0  0  0  0  0  0  0
  152.6793  139.2654  160.9767 H   0  0  0  0  0  0  0  0  0  0  0  0
  153.9506  139.4456  159.7891 H   0  0  0  0  0  0  0  0  0  0  0  0
  155.1668  138.2281  161.9698 H   0  0  0  0  0  0  0  0  0  0  0  0
  156.2068  137.0788  162.6290 H   0  0  0  0  0  0  0  0  0  0  0  0
  155.9797  135.4877  163.2767 H   0  0  0  0  0  0  0  0  0  0  0  0
  157.0951  136.1241  160.4961 H   0  0  0  0  0  0  0  0  0  0  0  0
  158.0432  135.5994  161.8679 H   0  0  0  0  0  0  0  0  0  0  0  0
  157.5068  133.7342  160.2676 H   0  0  0  0  0  0  0  0  0  0  0  0
  156.9640  133.4179  161.8965 H   0  0  0  0  0  0  0  0  0  0  0  0
  155.2271  134.3441  159.5691 H   0  0  0  0  0  0  0  0  0  0  0  0
  155.6654  131.9020  159.5655 H   0  0  0  0  0  0  0  0  0  0  0  0
  155.1413  131.7786  161.2211 H   0  0  0  0  0  0  0  0  0  0  0  0
  151.8668  131.0208  160.2320 H   0  0  0  0  0  0  0  0  0  0  0  0
  153.2293  130.7307  161.2930 H   0  0  0  0  0  0  0  0  0  0  0  0
  154.3865  133.9706  162.4799 H   0  0  0  0  0  0  0  0  0  0  0  0
  153.3129  134.3307  161.1642 H   0  0  0  0  0  0  0  0  0  0  0  0
  154.0317  141.5681  159.0460 H   0  0  0  0  0  0  0  0  0  0  0  0
  1  2  1  0  0  0  0
  1 23  1  0  0  0  0
  1 24  1  0  0  0  0
  1 25  1  0  0  0  0
  2 22  1  0  0  0  0
  2  3  2  0  0  0  0
  3  4  1  0  0  0  0
  3 26  1  0  0  0  0
  4  5  2  0  0  0  0
  4 27  1  0  0  0  0
  5  6  1  0  0  0  0
  5 21  1  0  0  0  0
  6  7  1  0  0  0  0
  6 28  1  0  0  0  0
  6 29  1  0  0  0  0
  7  8  1  0  0  0  0
  7 30  1  0  0  0  0
  7 31  1  0  0  0  0
  8  9  1  0  0  0  0
  8 32  1  0  0  0  0
  9 10  2  0  0  0  0
  9 11  1  0  0  0  0
 11 20  1  0  0  0  0
 11 12  1  0  0  0  0
 12 13  1  0  0  0  0
 12 33  1  0  0  0  0
 12 34  1  0  0  0  0
 13 14  1  0  0  0  0
 13 35  1  0  0  0  0
 13 36  1  0  0  0  0
 14 15  1  0  0  0  0
 14 37  1  0  0  0  0
 14 38  1  0  0  0  0
 15 16  1  0  0  0  0
 15 20  1  0  0  0  0
 15 39  1  0  0  0  0
 16 17  1  0  0  0  0
 16 40  1  0  0  0  0
 16 41  1  0  0  0  0
 17 18  1  0  0  0  0
 17 19  2  0  0  0  0
 18 42  1  0  0  0  0
 18 43  1  0  0  0  0
 20 44  1  0  0  0  0
 20 45  1  0  0  0  0
 21 22  2  0  0  0  0
 21 46  1  0  0  0  0
M  END
> <s_m_source_file>
AV-unprocessed.smi

> <i_m_source_file_index>
693

> <i_lp_mmshare_version>
43012

> <i_f3d_flags>
0

> <s_epik_input>
W0NIM11jMVtjSF1bY0hdYyhbY0hdbjEpW0NIMl1bQ0gyXVtOSF1DKD1PKU4yW0NIMl1bQ0gyXVtDSDJdW0NASF0oW0NIMl0yKVtDSDJdQyg9TylbTkgyXQ==

> <s_epik_cmdline>
J2VwaWtfcHl0aG9uJywgJy1waCcsICc3LjAnLCAnLXRuJywgJzgnLCAnLW1hJywgJzIwMCcsICctbWV0YWxfYmluZGluZycsICctaW1hZScsICc8aW5maWxlLm1hZT4nLCAnLW9tYWUnLCAnPG91dGZpbGUubWFlPic=

> <r_epik_Ionization_Penalty>
0.056948

> <r_epik_Ionization_Penalty_Charging>
0

> <r_epik_Ionization_Penalty_Neutral>
0.056948

> <r_epik_State_Penalty>
0.0490937

> <r_epik_Charging_Adjusted_Penalty>
0.0490937

> <i_epik_Tot_Q>
0

> <i_epik_Tot_abs_Q>
0

> <r_epik_Metal_State_Penalty>
0.0447689

> <b_epik_Metal_Only>
0

> <s_lp_Force_Field>
OPLS_2005

> <r_lp_Energy>
25.6146

> <b_lp_Chiralities_Consistent>
1

> <s_lp_Variant>
AV-unprocessed.smi:693-1

> <Gold.Version>
5.8.1

> <Gold.Id.Protein>
6NUR|6NUR_protein|mol2

> <Gold.PLP.Fitness>
43.9110

> <Gold.PLP.PLP>
-38.3285

> <Gold.PLP.part.hbond>
-1.9745

> <Gold.PLP.part.metal>
0.0000

> <Gold.PLP.part.buried>
-5.5683

> <Gold.PLP.part.nonpolar>
-31.2700

> <Gold.PLP.part.repulsive>
0.0730

> <Gold.PLP.ligand.clash>
0.0000

> <Gold.PLP.ligand.torsion>
0.2249

> <Gold.PLP.Chemscore.Hbond>
1.9913

> <Gold.PLP.Chemscore.CHOScore>
0.0000

> <Gold.PLP.Chemscore.Metal>
0.0000

> <Gold.Chemscore.Hbonds>
donor molecule, donor type, donor heavy atom, donor atom, acceptor molecule, acceptor atom, score
      P1  H  6896  6907       L1    10  1.00
      P1  H  6896  6908       L1    19  0.47

> <Gold.PLP.Chemscore.Internal.Correction>
0.0586

> <Gold.Rescore>
     Score         DG    S(hbond)    S(metal)    S(lipo)     H(rot)  DE(clash)    DE(int)     intcor
     17.28     -17.79       1.90        0.00     100.13       2.25       0.14       0.37       ----

> <Gold.Chemscore.Fitness>
17.2786

> <Gold.Chemscore.DG>
-17.7862

> <Gold.Chemscore.ZeroCoef>
-5.4800

> <Gold.Chemscore.Hbond>
1.9025

> <Gold.Chemscore.Metal>
0.0000

> <Gold.Chemscore.Lipo>
100.1277

> <Gold.Chemscore.Internal_Hbond>
0.0000

> <Gold.Chemscore.DEClash>
0.1404

> <Gold.Chemscore.DEInternal>
0.3672

> <Gold.Chemscore.Rot>
2.2512

> <Gold.Chemscore.Internal.Correction>
   9.000000E+99

> <Gold.Chemscore.Hbonds>
donor molecule, donor type, donor heavy atom, donor atom, acceptor molecule, acceptor atom, score
      P1  H  6896  6907       L1    10  1.00
      P1  H  6896  6908       L1    19  0.12

> <Gold.Chemscore.Hbond.Weighted>
-6.3544

> <Gold.Chemscore.Metal.Weighted>
-0.0000

> <Gold.Chemscore.Lipo.Weighted>
-11.7149

> <Gold.Chemscore.Internal_Hbond.Weighted>
0.0000

> <Gold.Chemscore.DEClash.Weighted>
0.1404

> <Gold.Chemscore.DEInternal.Weighted>
0.3672

> <Gold.Chemscore.Rot.Weighted>
5.7631

> <Gold.Chemscore.Internal.Correction.Weighted>
   9.000000E+99

> <Gold.Protein.RotatedTorsions>
[ 6907 6896 6895 6894 ] final   32.49 input  -60.11 | X-H torsion
[ 7974 7965 7964 7962 ] final -171.54 input  175.53 | X-H torsion
[ 8008 7997 7996 7995 ] final  -47.13 input   59.86 | X-H torsion
[ 10167 10162 10161 10158 ] final -162.34 input  -65.29 | X-H torsion
[ 10718 10713 10712 10709 ] final  134.31 input   66.30 | X-H torsion
[ 10763 10752 10751 10750 ] final   75.19 input  -60.55 | X-H torsion
[ 11005 11000 10999 10996 ] final -140.50 input  -57.11 | X-H torsion

> <Gold.Protein.ActiveResidues>
 VAL166  LYS551  ARG553  GLY616  TRP617  ASP618  TYR619  PRO620  LYS621  CYS622 
 ASP623  PHE694  ASN695  SER759  ASP760  ASP761  ALA762  ILE779  LEU786  VAL792 
 PHE793  MET794  SER795  GLU796  ALA797  LYS798  CYS799  TRP800  GLU811  SER814 

> <Gold.Protein.RotatedAtoms>
  152.0752  134.9507  160.0573 H   0  0  0  0  0  0  0  0  0  0  0  0  # atno 6907 bound_to 6896
  152.0818  133.4151  159.4512 H   0  0  0  0  0  0  0  0  0  0  0  0  # atno 6908 bound_to 6896
  150.6836  134.2893  159.4703 H   0  0  0  0  0  0  0  0  0  0  0  0  # atno 6909 bound_to 6896
  144.7156  140.1906  143.6349 H   0  0  0  0  0  0  0  0  0  0  0  0  # atno 7974 bound_to 7965
  154.4013  140.1354  156.4125 H   0  0  0  0  0  0  0  0  0  0  0  0  # atno 8008 bound_to 7997
  155.7720  140.3483  155.5232 H   0  0  0  0  0  0  0  0  0  0  0  0  # atno 8009 bound_to 7997
  155.8757  140.0979  157.1510 H   0  0  0  0  0  0  0  0  0  0  0  0  # atno 8010 bound_to 7997
  139.6399  144.0278  152.2084 H   0  0  0  0  0  0  0  0  0  0  0  0  # atno 10167 bound_to 10162
  157.4685  131.1078  150.9832 H   0  0  0  0  0  0  0  0  0  0  0  0  # atno 10718 bound_to 10713
  153.0637  135.4998  154.8153 H   0  0  0  0  0  0  0  0  0  0  0  0  # atno 10763 bound_to 10752
  154.6922  135.2986  154.9465 H   0  0  0  0  0  0  0  0  0  0  0  0  # atno 10764 bound_to 10752
  154.0216  135.6741  153.4826 H   0  0  0  0  0  0  0  0  0  0  0  0  # atno 10765 bound_to 10752
  140.8417  134.2394  157.4807 H   0  0  0  0  0  0  0  0  0  0  0  0  # atno 11005 bound_to 11000
  145.8772  139.2303  143.1626 LP  0  0  0  0  0  0  0  0  0  0  0  0  # atno 17320 bound_to 7965
  146.0029  140.8504  143.0009 LP  0  0  0  0  0  0  0  0  0  0  0  0  # atno 17321 bound_to 7965
  139.9965  144.6324  150.7767 LP  0  0  0  0  0  0  0  0  0  0  0  0  # atno 17342 bound_to 10162
  140.7485  143.2924  151.3295 LP  0  0  0  0  0  0  0  0  0  0  0  0  # atno 17343 bound_to 10162
  157.0604  130.5823  149.5385 LP  0  0  0  0  0  0  0  0  0  0  0  0  # atno 17370 bound_to 10713
  156.0062  130.5149  150.7837 LP  0  0  0  0  0  0  0  0  0  0  0  0  # atno 17371 bound_to 10713
  139.8703  134.9638  156.4476 LP  0  0  0  0  0  0  0  0  0  0  0  0  # atno 17394 bound_to 11000
  140.8888  133.7863  155.9548 LP  0  0  0  0  0  0  0  0  0  0  0  0  # atno 17395 bound_to 11000

$$$$
