AV-unprocessed.smi:1664|AV-procd|sdf|6667|dock5
  -GOLD-   22720 7373D 1   1.00000     0.00000
 Structure written by MMmdl.
 35 36  0  0  0  0  0  0  0  0  3 V2000
  150.1950  139.4087  154.3993 C   0  0  0  0  0  0  0  0  0  0  0  0
  149.3189  140.5954  154.8474 C   0  0  1  0  0  0  0  0  0  0  0  0
  148.3457  140.1254  155.8560 C   0  0  0  0  0  0  0  0  0  0  0  0
  147.5840  139.7574  156.6463 N   0  0  0  0  0  0  0  0  0  0  0  0
  150.1729  141.6440  155.4079 N   0  0  0  0  0  0  0  0  0  0  0  0
  150.9781  141.5583  156.4806 C   0  0  0  0  0  0  0  0  0  0  0  0
  151.1396  140.5294  157.1349 O   0  0  0  0  0  0  0  0  0  0  0  0
  151.7073  142.8440  156.8824 C   0  0  0  0  0  0  0  0  0  0  0  0
  152.3449  142.7131  158.2022 N   0  0  0  0  0  0  0  0  0  0  0  0
  153.3193  141.7045  158.3411 C   0  0  0  0  0  0  0  0  0  0  0  0
  153.9832  141.5033  159.4960 C   0  0  0  0  0  0  0  0  0  0  0  0
  154.9896  140.4709  159.6141 N   0  3  0  0  0  0  0  0  0  0  0  0
  155.2483  139.7857  158.6300 O   0  0  0  0  0  0  0  0  0  0  0  0
  155.5530  140.3099  160.6927 O   0  5  0  0  0  0  0  0  0  0  0  0
  153.6607  142.3639  160.6175 C   0  0  0  0  0  0  0  0  0  0  0  0
  152.7323  143.3325  160.4906 C   0  0  0  0  0  0  0  0  0  0  0  0
  152.0163  143.5547  159.2300 C   0  0  0  0  0  0  0  0  0  0  0  0
  151.1736  144.4431  159.1067 O   0  0  0  0  0  0  0  0  0  0  0  0
  148.5706  141.1348  153.6300 C   0  0  0  0  0  0  0  0  0  0  0  0
  147.1838  141.7318  153.7229 C   0  0  0  0  0  0  0  0  0  0  0  0
  147.3946  140.4141  153.0092 C   0  0  0  0  0  0  0  0  0  0  0  0
  149.5896  138.6303  153.9337 H   0  0  0  0  0  0  0  0  0  0  0  0
  150.7171  138.9479  155.2382 H   0  0  0  0  0  0  0  0  0  0  0  0
  150.9461  139.7200  153.6724 H   0  0  0  0  0  0  0  0  0  0  0  0
  150.1228  142.5405  154.9461 H   0  0  0  0  0  0  0  0  0  0  0  0
  152.4451  143.0961  156.1183 H   0  0  0  0  0  0  0  0  0  0  0  0
  150.9986  143.6737  156.8747 H   0  0  0  0  0  0  0  0  0  0  0  0
  153.4908  141.1218  157.4474 H   0  0  0  0  0  0  0  0  0  0  0  0
  154.1615  142.2391  161.5663 H   0  0  0  0  0  0  0  0  0  0  0  0
  152.5086  143.9634  161.3383 H   0  0  0  0  0  0  0  0  0  0  0  0
  149.2323  141.6240  152.9167 H   0  0  0  0  0  0  0  0  0  0  0  0
  146.6728  141.7079  154.6831 H   0  0  0  0  0  0  0  0  0  0  0  0
  146.9746  142.6067  153.1108 H   0  0  0  0  0  0  0  0  0  0  0  0
  147.3249  140.4146  151.9234 H   0  0  0  0  0  0  0  0  0  0  0  0
  147.0251  139.5140  153.4958 H   0  0  0  0  0  0  0  0  0  0  0  0
  1  2  1  0  0  0  0
  1 22  1  0  0  0  0
  1 23  1  0  0  0  0
  1 24  1  0  0  0  0
  2  3  1  0  0  0  0
  2  5  1  0  0  0  0
  2 19  1  0  0  0  0
  3  4  3  0  0  0  0
  5  6  1  0  0  0  0
  5 25  1  0  0  0  0
  6  7  2  0  0  0  0
  6  8  1  0  0  0  0
  8  9  1  0  0  0  0
  8 26  1  0  0  0  0
  8 27  1  0  0  0  0
  9 17  1  0  0  0  0
  9 10  1  0  0  0  0
 10 11  2  0  0  0  0
 10 28  1  0  0  0  0
 11 12  1  0  0  0  0
 11 15  1  0  0  0  0
 12 13  2  0  0  0  0
 12 14  1  0  0  0  0
 15 16  2  0  0  0  0
 15 29  1  0  0  0  0
 16 17  1  0  0  0  0
 16 30  1  0  0  0  0
 17 18  2  0  0  0  0
 19 21  1  0  0  0  0
 19 20  1  0  0  0  0
 19 31  1  0  0  0  0
 20 21  1  0  0  0  0
 20 32  1  0  0  0  0
 20 33  1  0  0  0  0
 21 34  1  0  0  0  0
 21 35  1  0  0  0  0
M  CHG  1  12   1
M  CHG  1  14  -1
M  END
> <s_m_source_file>
AV-unprocessed.smi

> <i_m_source_file_index>
1664

> <i_lp_mmshare_version>
43012

> <i_f3d_flags>
0

> <s_epik_input>
W0NIMl0xW0NIMl1bQ0hdMVtDQF0oW0NIM10pKEMjTilbTkhdQyg9TylbQ0gyXW4yW2NIXWMoW04rXSg9TylbTy1dKVtjSF1bY0hdYzI9Tw==

> <s_epik_cmdline>
J2VwaWtfcHl0aG9uJywgJy1waCcsICc3LjAnLCAnLXRuJywgJzgnLCAnLW1hJywgJzIwMCcsICctbWV0YWxfYmluZGluZycsICctaW1hZScsICc8aW5maWxlLm1hZT4nLCAnLW9tYWUnLCAnPG91dGZpbGUubWFlPic=

> <r_lp_tautomer_probability>
1

> <r_epik_Ionization_Penalty>
4.65324e-07

> <r_epik_Ionization_Penalty_Charging>
6.17383e-11

> <r_epik_Ionization_Penalty_Neutral>
4.65262e-07

> <r_epik_State_Penalty>
-0

> <r_epik_Charging_Adjusted_Penalty>
6.17383e-11

> <i_epik_Tot_Q>
0

> <i_epik_Tot_abs_Q>
2

> <r_epik_Metal_State_Penalty>
-0

> <b_epik_Metal_Only>
0

> <s_lp_Force_Field>
OPLS_2005

> <r_lp_Energy>
25.9803

> <b_lp_Chiralities_Consistent>
1

> <s_lp_Variant>
AV-unprocessed.smi:1664-1

> <Gold.Version>
5.8.1

> <Gold.Id.Protein>
6NUR|6NUR_protein|mol2

> <Gold.PLP.Fitness>
51.5155

> <Gold.PLP.PLP>
-46.4492

> <Gold.PLP.part.hbond>
-2.5463

> <Gold.PLP.part.metal>
0.0000

> <Gold.PLP.part.buried>
-6.5977

> <Gold.PLP.part.nonpolar>
-38.4463

> <Gold.PLP.part.repulsive>
0.2870

> <Gold.PLP.ligand.clash>
0.0000

> <Gold.PLP.ligand.torsion>
0.9067

> <Gold.PLP.Chemscore.Hbond>
1.7760

> <Gold.PLP.Chemscore.CHOScore>
0.0000

> <Gold.PLP.Chemscore.Metal>
0.0000

> <Gold.Chemscore.Hbonds>
donor molecule, donor type, donor heavy atom, donor atom, acceptor molecule, acceptor atom, score
      P1  H  7997  8010       L1    13  0.47

> <Gold.PLP.Chemscore.Internal.Correction>
1.5516

> <Gold.Rescore>
     Score         DG    S(hbond)    S(metal)    S(lipo)     H(rot)  DE(clash)    DE(int)     intcor
     14.24     -16.94       1.94        0.00      84.94       1.94       0.01       2.68       ----

> <Gold.Chemscore.Fitness>
14.2437

> <Gold.Chemscore.DG>
-16.9387

> <Gold.Chemscore.ZeroCoef>
-5.4800

> <Gold.Chemscore.Hbond>
1.9411

> <Gold.Chemscore.Metal>
0.0000

> <Gold.Chemscore.Lipo>
84.9421

> <Gold.Chemscore.Internal_Hbond>
0.0000

> <Gold.Chemscore.DEClash>
0.0111

> <Gold.Chemscore.DEInternal>
2.6839

> <Gold.Chemscore.Rot>
1.9386

> <Gold.Chemscore.Internal.Correction>
   9.000000E+99

> <Gold.Chemscore.Hbonds>
donor molecule, donor type, donor heavy atom, donor atom, acceptor molecule, acceptor atom, score
      P1  H  7997  8010       L1    13  0.46

> <Gold.Chemscore.Hbond.Weighted>
-6.4832

> <Gold.Chemscore.Metal.Weighted>
-0.0000

> <Gold.Chemscore.Lipo.Weighted>
-9.9382

> <Gold.Chemscore.Internal_Hbond.Weighted>
0.0000

> <Gold.Chemscore.DEClash.Weighted>
0.0111

> <Gold.Chemscore.DEInternal.Weighted>
2.6839

> <Gold.Chemscore.Rot.Weighted>
4.9627

> <Gold.Chemscore.Internal.Correction.Weighted>
   9.000000E+99

> <Gold.Protein.RotatedTorsions>
[ 6907 6896 6895 6894 ] final  153.01 input  -60.11 | X-H torsion
[ 7974 7965 7964 7962 ] final  -87.44 input  175.53 | X-H torsion
[ 8008 7997 7996 7995 ] final    1.40 input   59.86 | X-H torsion
[ 10167 10162 10161 10158 ] final   69.96 input  -65.29 | X-H torsion
[ 10718 10713 10712 10709 ] final  -91.39 input   66.30 | X-H torsion
[ 10763 10752 10751 10750 ] final  174.11 input  -60.55 | X-H torsion
[ 11005 11000 10999 10996 ] final  -35.03 input  -57.11 | X-H torsion

> <Gold.Protein.ActiveResidues>
 VAL166  LYS551  ARG553  GLY616  TRP617  ASP618  TYR619  PRO620  LYS621  CYS622 
 ASP623  PHE694  ASN695  SER759  ASP760  ASP761  ALA762  ILE779  LEU786  VAL792 
 PHE793  MET794  SER795  GLU796  ALA797  LYS798  CYS799  TRP800  GLU811  SER814 

> <Gold.Protein.RotatedAtoms>
  152.0786  133.4142  159.4490 H   0  0  0  0  0  0  0  0  0  0  0  0  # atno 6907 bound_to 6896
  150.6862  134.3008  159.4715 H   0  0  0  0  0  0  0  0  0  0  0  0  # atno 6908 bound_to 6896
  152.0847  134.9447  160.0623 H   0  0  0  0  0  0  0  0  0  0  0  0  # atno 6909 bound_to 6896
  145.4665  140.9560  143.1940 H   0  0  0  0  0  0  0  0  0  0  0  0  # atno 7974 bound_to 7965
  154.6793  140.2629  155.6924 H   0  0  0  0  0  0  0  0  0  0  0  0  # atno 8008 bound_to 7997
  156.2690  140.2813  156.1254 H   0  0  0  0  0  0  0  0  0  0  0  0  # atno 8009 bound_to 7997
  155.1054  140.0375  157.2699 H   0  0  0  0  0  0  0  0  0  0  0  0  # atno 8010 bound_to 7997
  140.0621  144.5224  150.7287 H   0  0  0  0  0  0  0  0  0  0  0  0  # atno 10167 bound_to 10162
  155.9993  130.4946  150.5467 H   0  0  0  0  0  0  0  0  0  0  0  0  # atno 10718 bound_to 10713
  154.4493  135.2764  155.1792 H   0  0  0  0  0  0  0  0  0  0  0  0  # atno 10763 bound_to 10752
  154.3626  135.6126  153.5702 H   0  0  0  0  0  0  0  0  0  0  0  0  # atno 10764 bound_to 10752
  152.9846  135.5838  154.4835 H   0  0  0  0  0  0  0  0  0  0  0  0  # atno 10765 bound_to 10752
  140.9764  133.7081  156.1609 H   0  0  0  0  0  0  0  0  0  0  0  0  # atno 11005 bound_to 11000
  144.7971  139.6214  143.7088 LP  0  0  0  0  0  0  0  0  0  0  0  0  # atno 17320 bound_to 7965
  146.2421  139.6022  142.9484 LP  0  0  0  0  0  0  0  0  0  0  0  0  # atno 17321 bound_to 7965
  140.7167  143.2551  151.4412 LP  0  0  0  0  0  0  0  0  0  0  0  0  # atno 17342 bound_to 10162
  139.5887  144.1546  152.2062 LP  0  0  0  0  0  0  0  0  0  0  0  0  # atno 17343 bound_to 10162
  157.3396  131.0714  151.1798 LP  0  0  0  0  0  0  0  0  0  0  0  0  # atno 17370 bound_to 10713
  157.2651  130.6677  149.5993 LP  0  0  0  0  0  0  0  0  0  0  0  0  # atno 17371 bound_to 10713
  140.7253  134.4314  157.5571 LP  0  0  0  0  0  0  0  0  0  0  0  0  # atno 17394 bound_to 11000
  139.8932  134.8736  156.2234 LP  0  0  0  0  0  0  0  0  0  0  0  0  # atno 17395 bound_to 11000

$$$$
