AV-unprocessed.smi:1008|AV-procd|sdf|4411|dock7
  -GOLD-   22720 2353D 1   1.00000     0.00000
 Structure written by MMmdl.
 23 23  0  0  0  0  0  0  0  0  1 V2000
  146.8253  138.9598  152.4144 C   0  0  0  0  0  0  0  0  0  0  0  0
  148.0477  139.3602  153.2218 C   0  0  0  0  0  0  0  0  0  0  0  0
  149.0715  138.4294  153.2141 N   0  0  0  0  0  0  0  0  0  0  0  0
  150.2289  138.7029  153.9268 C   0  0  0  0  0  0  0  0  0  0  0  0
  151.1881  137.7145  153.8546 N   0  0  0  0  0  0  0  0  0  0  0  0
  150.4171  139.7900  154.6123 N   0  0  0  0  0  0  0  0  0  0  0  0
  149.4137  140.7704  154.6601 C   0  0  0  0  0  0  0  0  0  0  0  0
  149.5799  141.8021  155.3091 O   0  0  0  0  0  0  0  0  0  0  0  0
  148.1612  140.5189  153.9152 C   0  0  0  0  0  0  0  0  0  0  0  0
  147.0674  141.5824  153.9505 C   0  0  0  0  0  0  0  0  0  0  0  0
  146.0552  141.3349  155.0784 C   0  0  0  0  0  0  0  0  0  0  0  0
  144.8006  141.8725  154.7213 O   0  0  0  0  0  0  0  0  0  0  0  0
  152.0840  137.7642  154.3174 H   0  0  0  0  0  0  0  0  0  0  0  0
  145.9333  138.9760  153.0413 H   0  0  0  0  0  0  0  0  0  0  0  0
  146.9262  137.9552  152.0017 H   0  0  0  0  0  0  0  0  0  0  0  0
  146.6763  139.6492  151.5830 H   0  0  0  0  0  0  0  0  0  0  0  0
  151.0626  136.8617  153.3282 H   0  0  0  0  0  0  0  0  0  0  0  0
  148.9363  137.5805  152.6848 H   0  0  0  0  0  0  0  0  0  0  0  0
  146.5455  141.6146  152.9945 H   0  0  0  0  0  0  0  0  0  0  0  0
  147.5220  142.5680  154.0622 H   0  0  0  0  0  0  0  0  0  0  0  0
  145.9427  140.2671  155.2681 H   0  0  0  0  0  0  0  0  0  0  0  0
  146.3872  141.7993  156.0075 H   0  0  0  0  0  0  0  0  0  0  0  0
  144.4329  141.3435  154.0296 H   0  0  0  0  0  0  0  0  0  0  0  0
  1 14  1  0  0  0  0
  1 15  1  0  0  0  0
  1 16  1  0  0  0  0
  1  2  1  0  0  0  0
  2  9  2  0  0  0  0
  2  3  1  0  0  0  0
  3 18  1  0  0  0  0
  3  4  1  0  0  0  0
  4  5  1  0  0  0  0
  4  6  2  0  0  0  0
  5 17  1  0  0  0  0
  5 13  1  0  0  0  0
  6  7  1  0  0  0  0
  7  8  2  0  0  0  0
  7  9  1  0  0  0  0
  9 10  1  0  0  0  0
 10 11  1  0  0  0  0
 10 19  1  0  0  0  0
 10 20  1  0  0  0  0
 11 12  1  0  0  0  0
 11 21  1  0  0  0  0
 11 22  1  0  0  0  0
 12 23  1  0  0  0  0
M  END
> <s_m_source_file>
AV-unprocessed.smi

> <i_m_source_file_index>
1008

> <i_lp_mmshare_version>
43012

> <i_f3d_flags>
0

> <s_epik_input>
W0NIM11jMW5jKFtOSDJdKVtuSF1jKD1PKWMxW0NIMl1bQ0gyXVtPSF0=

> <s_epik_cmdline>
J2VwaWtfcHl0aG9uJywgJy1waCcsICc3LjAnLCAnLXRuJywgJzgnLCAnLW1hJywgJzIwMCcsICctbWV0YWxfYmluZGluZycsICctaW1hZScsICc8aW5maWxlLm1hZT4nLCAnLW9tYWUnLCAnPG91dGZpbGUubWFlPic=

> <r_lp_tautomer_probability>
0.108277

> <r_epik_Ionization_Penalty>
0.666207

> <r_epik_Ionization_Penalty_Charging>
0.00797854

> <r_epik_Ionization_Penalty_Neutral>
0.658229

> <r_epik_State_Penalty>
1.38976

> <r_epik_Charging_Adjusted_Penalty>
1.39774

> <i_epik_Tot_Q>
0

> <i_epik_Tot_abs_Q>
0

> <r_epik_Metal_State_Penalty>
0.86313

> <b_epik_Metal_Only>
0

> <s_lp_Force_Field>
OPLS_2005

> <r_lp_Energy>
8.84659

> <b_lp_Chiralities_Consistent>
1

> <s_lp_Variant>
AV-unprocessed.smi:1008-2

> <Gold.Version>
5.8.1

> <Gold.Id.Protein>
6NUR|6NUR_protein|mol2

> <Gold.PLP.Fitness>
31.1941

> <Gold.PLP.PLP>
-20.9897

> <Gold.PLP.part.hbond>
-5.2355

> <Gold.PLP.part.metal>
0.0000

> <Gold.PLP.part.buried>
0.9754

> <Gold.PLP.part.nonpolar>
-17.5110

> <Gold.PLP.part.repulsive>
1.0622

> <Gold.PLP.ligand.clash>
0.0000

> <Gold.PLP.ligand.torsion>
0.5380

> <Gold.PLP.Chemscore.Hbond>
3.7600

> <Gold.PLP.Chemscore.CHOScore>
0.0000

> <Gold.PLP.Chemscore.Metal>
0.0000

> <Gold.Chemscore.Hbonds>
donor molecule, donor type, donor heavy atom, donor atom, acceptor molecule, acceptor atom, score
      L1  H     3    18       P1  7948  1.00
      L1  H     5    17       P1  7949  0.90
      L1  H    12    23       P1 10175  1.00
      P1  H  7989  7998       L1     6  0.70

> <Gold.PLP.Chemscore.Internal.Correction>
0.0003

> <Gold.Rescore>
     Score         DG    S(hbond)    S(metal)    S(lipo)     H(rot)  DE(clash)    DE(int)     intcor
      9.58     -12.39       2.46        0.00      33.91       2.06       2.22       0.59       ----

> <Gold.Chemscore.Fitness>
9.5771

> <Gold.Chemscore.DG>
-12.3862

> <Gold.Chemscore.ZeroCoef>
-5.4800

> <Gold.Chemscore.Hbond>
2.4586

> <Gold.Chemscore.Metal>
0.0000

> <Gold.Chemscore.Lipo>
33.9051

> <Gold.Chemscore.Internal_Hbond>
0.0000

> <Gold.Chemscore.DEClash>
2.2160

> <Gold.Chemscore.DEInternal>
0.5931

> <Gold.Chemscore.Rot>
2.0595

> <Gold.Chemscore.Internal.Correction>
   9.000000E+99

> <Gold.Chemscore.Hbonds>
donor molecule, donor type, donor heavy atom, donor atom, acceptor molecule, acceptor atom, score
      L1  H     3    18       P1  7948  0.95
      L1  H     5    17       P1  7949  0.29
      L1  H    12    23       P1 10175  0.40
      P1  H  7989  7998       L1     6  0.03

> <Gold.Chemscore.Hbond.Weighted>
-8.2117

> <Gold.Chemscore.Metal.Weighted>
-0.0000

> <Gold.Chemscore.Lipo.Weighted>
-3.9669

> <Gold.Chemscore.Internal_Hbond.Weighted>
0.0000

> <Gold.Chemscore.DEClash.Weighted>
2.2160

> <Gold.Chemscore.DEInternal.Weighted>
0.5931

> <Gold.Chemscore.Rot.Weighted>
5.2724

> <Gold.Chemscore.Internal.Correction.Weighted>
   9.000000E+99

> <Gold.Protein.RotatedTorsions>
[ 6907 6896 6895 6894 ] final -153.61 input  -60.11 | X-H torsion
[ 7974 7965 7964 7962 ] final -148.17 input  175.53 | X-H torsion
[ 8008 7997 7996 7995 ] final   34.93 input   59.86 | X-H torsion
[ 10167 10162 10161 10158 ] final   21.47 input  -65.29 | X-H torsion
[ 10718 10713 10712 10709 ] final  -58.13 input   66.30 | X-H torsion
[ 10763 10752 10751 10750 ] final -156.60 input  -60.55 | X-H torsion
[ 11005 11000 10999 10996 ] final  -20.81 input  -57.11 | X-H torsion

> <Gold.Protein.ActiveResidues>
 VAL166  LYS551  ARG553  GLY616  TRP617  ASP618  TYR619  PRO620  LYS621  CYS622 
 ASP623  PHE694  ASN695  SER759  ASP760  ASP761  ALA762  ILE779  LEU786  VAL792 
 PHE793  MET794  SER795  GLU796  ALA797  LYS798  CYS799  TRP800  GLU811  SER814 

> <Gold.Protein.RotatedAtoms>
  151.2451  133.4379  159.2608 H   0  0  0  0  0  0  0  0  0  0  0  0  # atno 6907 bound_to 6896
  151.0669  134.9773  159.8299 H   0  0  0  0  0  0  0  0  0  0  0  0  # atno 6908 bound_to 6896
  152.5406  134.2399  159.8910 H   0  0  0  0  0  0  0  0  0  0  0  0  # atno 6909 bound_to 6896
  144.8046  140.5232  143.5683 H   0  0  0  0  0  0  0  0  0  0  0  0  # atno 7974 bound_to 7965
  155.1629  140.3285  155.4408 H   0  0  0  0  0  0  0  0  0  0  0  0  # atno 8008 bound_to 7997
  156.2536  140.1957  156.6686 H   0  0  0  0  0  0  0  0  0  0  0  0  # atno 8009 bound_to 7997
  154.6392  140.0572  156.9811 H   0  0  0  0  0  0  0  0  0  0  0  0  # atno 8010 bound_to 7997
  140.5424  143.9653  150.6527 H   0  0  0  0  0  0  0  0  0  0  0  0  # atno 10167 bound_to 10162
  156.1158  130.4170  150.0536 H   0  0  0  0  0  0  0  0  0  0  0  0  # atno 10718 bound_to 10713
  154.7700  135.3142  154.8208 H   0  0  0  0  0  0  0  0  0  0  0  0  # atno 10763 bound_to 10752
  153.8946  135.6822  153.4763 H   0  0  0  0  0  0  0  0  0  0  0  0  # atno 10764 bound_to 10752
  153.1313  135.4779  154.9287 H   0  0  0  0  0  0  0  0  0  0  0  0  # atno 10765 bound_to 10752
  140.8500  133.7863  155.9956 H   0  0  0  0  0  0  0  0  0  0  0  0  # atno 11005 bound_to 11000
  145.5468  139.1476  143.3416 LP  0  0  0  0  0  0  0  0  0  0  0  0  # atno 17320 bound_to 7965
  146.2335  140.5607  142.8965 LP  0  0  0  0  0  0  0  0  0  0  0  0  # atno 17321 bound_to 7965
  140.3057  143.3231  152.0928 LP  0  0  0  0  0  0  0  0  0  0  0  0  # atno 17342 bound_to 10162
  139.4994  144.6668  151.6337 LP  0  0  0  0  0  0  0  0  0  0  0  0  # atno 17343 bound_to 10162
  156.8487  130.9451  151.3627 LP  0  0  0  0  0  0  0  0  0  0  0  0  # atno 17370 bound_to 10713
  157.6341  130.8752  149.9327 LP  0  0  0  0  0  0  0  0  0  0  0  0  # atno 17371 bound_to 10713
  140.8800  134.2623  157.5149 LP  0  0  0  0  0  0  0  0  0  0  0  0  # atno 17394 bound_to 11000
  139.8704  134.9610  156.4383 LP  0  0  0  0  0  0  0  0  0  0  0  0  # atno 17395 bound_to 11000

$$$$
