AV-unprocessed.smi:34|AV-procd|sdf|243|dock2
  -GOLD-   2262015593D 1   1.00000     0.00000
 Structure written by MMmdl.
 54 58  0  0  0  0  0  0  0  0  2 V2000
  142.1330  135.9862  155.3638 O   0  0  0  0  0  0  0  0  0  0  0  0
  141.6555  136.3576  154.2895 C   0  0  0  0  0  0  0  0  0  0  0  0
  142.1820  136.2097  153.0474 N   0  5  0  0  0  0  0  0  0  0  0  0
  143.4804  136.4727  152.8349 C   0  0  0  0  0  0  0  0  0  0  0  0
  144.1295  135.9193  151.7790 N   0  0  0  0  0  0  0  0  0  0  0  0
  145.4222  136.1895  151.5638 C   0  0  0  0  0  0  0  0  0  0  0  0
  146.2432  136.9783  152.2633 N   0  0  0  0  0  0  0  0  0  0  0  0
  145.6018  137.5466  153.3254 C   0  0  0  0  0  0  0  0  0  0  0  0
  144.2323  137.3456  153.6680 C   0  0  0  0  0  0  0  0  0  0  0  0
  143.8940  138.0755  154.7978 N   0  0  0  0  0  0  0  0  0  0  0  0
  145.0476  138.6719  155.0867 C   0  0  0  0  0  0  0  0  0  0  0  0
  146.0994  138.4171  154.2830 N   0  0  0  0  0  0  0  0  0  0  0  0
  147.4861  138.9652  154.4136 C   0  0  2  0  0  0  0  0  0  0  0  0
  147.5747  139.6752  155.6123 O   0  0  0  0  0  0  0  0  0  0  0  0
  148.3587  140.8501  155.4210 C   0  0  1  0  0  0  0  0  0  0  0  0
  149.8459  140.5109  155.6156 C   0  0  0  0  0  0  0  0  0  0  0  0
  150.2373  140.8798  156.9278 O   0  0  0  0  0  0  0  0  0  0  0  0
  151.5412  140.8904  157.2675 C   0  0  0  0  0  0  0  0  0  0  0  0
  152.3834  140.1423  156.7667 O   0  0  0  0  0  0  0  0  0  0  0  0
  151.8583  141.9011  158.3174 C   0  0  0  0  0  0  0  0  0  0  0  0
  151.3434  143.2130  158.1950 C   0  0  0  0  0  0  0  0  0  0  0  0
  151.6259  144.1884  159.1709 C   0  0  0  0  0  0  0  0  0  0  0  0
  152.4253  143.8633  160.2822 C   0  0  0  0  0  0  0  0  0  0  0  0
  152.9431  142.5619  160.4158 C   0  0  0  0  0  0  0  0  0  0  0  0
  152.6628  141.5854  159.4401 C   0  0  0  0  0  0  0  0  0  0  0  0
  148.0203  141.2639  153.9878 C   0  0  2  0  0  0  0  0  0  0  0  0
  146.8673  141.9349  154.0135 F   0  0  0  0  0  0  0  0  0  0  0  0
  147.8714  139.9279  153.2715 C   0  0  2  0  0  0  0  0  0  0  0  0
  146.9697  139.9928  152.1808 O   0  0  0  0  0  0  0  0  0  0  0  0
  140.2969  137.0053  154.2851 C   0  0  0  0  0  0  0  0  0  0  0  0
  139.3882  136.7346  155.3337 C   0  0  0  0  0  0  0  0  0  0  0  0
  138.1216  137.3505  155.3609 C   0  0  0  0  0  0  0  0  0  0  0  0
  137.7539  138.2519  154.3443 C   0  0  0  0  0  0  0  0  0  0  0  0
  138.6557  138.5405  153.3031 C   0  0  0  0  0  0  0  0  0  0  0  0
  139.9222  137.9245  153.2748 C   0  0  0  0  0  0  0  0  0  0  0  0
  145.8621  135.7041  150.7054 H   0  0  0  0  0  0  0  0  0  0  0  0
  145.1344  139.3316  155.9375 H   0  0  0  0  0  0  0  0  0  0  0  0
  148.1259  138.0824  154.4513 H   0  0  0  0  0  0  0  0  0  0  0  0
  148.0642  141.6261  156.1291 H   0  0  0  0  0  0  0  0  0  0  0  0
  150.0269  139.4497  155.4390 H   0  0  0  0  0  0  0  0  0  0  0  0
  150.4538  141.0695  154.9029 H   0  0  0  0  0  0  0  0  0  0  0  0
  150.7273  143.4859  157.3503 H   0  0  0  0  0  0  0  0  0  0  0  0
  151.2282  145.1871  159.0661 H   0  0  0  0  0  0  0  0  0  0  0  0
  152.6412  144.6111  161.0310 H   0  0  0  0  0  0  0  0  0  0  0  0
  153.5563  142.3107  161.2687 H   0  0  0  0  0  0  0  0  0  0  0  0
  153.0756  140.5962  159.5738 H   0  0  0  0  0  0  0  0  0  0  0  0
  148.7643  141.9188  153.5333 H   0  0  0  0  0  0  0  0  0  0  0  0
  148.8448  139.6102  152.8957 H   0  0  0  0  0  0  0  0  0  0  0  0
  147.4668  140.0761  151.3815 H   0  0  0  0  0  0  0  0  0  0  0  0
  139.6561  136.0466  156.1226 H   0  0  0  0  0  0  0  0  0  0  0  0
  137.4332  137.1318  156.1635 H   0  0  0  0  0  0  0  0  0  0  0  0
  136.7833  138.7244  154.3657 H   0  0  0  0  0  0  0  0  0  0  0  0
  138.3783  139.2376  152.5260 H   0  0  0  0  0  0  0  0  0  0  0  0
  140.6036  138.1680  152.4724 H   0  0  0  0  0  0  0  0  0  0  0  0
  1  2  2  0  0  0  0
  2  3  1  0  0  0  0
  2 30  1  0  0  0  0
  3  4  1  0  0  0  0
  4  9  1  0  0  0  0
  4  5  2  0  0  0  0
  5  6  1  0  0  0  0
  6  7  2  0  0  0  0
  6 36  1  0  0  0  0
  7  8  1  0  0  0  0
  8 12  1  0  0  0  0
  8  9  2  0  0  0  0
  9 10  1  0  0  0  0
 10 11  2  0  0  0  0
 11 12  1  0  0  0  0
 11 37  1  0  0  0  0
 12 13  1  0  0  0  0
 13 28  1  0  0  0  0
 13 14  1  0  0  0  0
 13 38  1  0  0  0  0
 14 15  1  0  0  0  0
 15 16  1  0  0  0  0
 15 26  1  0  0  0  0
 15 39  1  0  0  0  0
 16 17  1  0  0  0  0
 16 40  1  0  0  0  0
 16 41  1  0  0  0  0
 17 18  1  0  0  0  0
 18 19  2  0  0  0  0
 18 20  1  0  0  0  0
 20 25  1  0  0  0  0
 20 21  2  0  0  0  0
 21 22  1  0  0  0  0
 21 42  1  0  0  0  0
 22 23  2  0  0  0  0
 22 43  1  0  0  0  0
 23 24  1  0  0  0  0
 23 44  1  0  0  0  0
 24 25  2  0  0  0  0
 24 45  1  0  0  0  0
 25 46  1  0  0  0  0
 26 27  1  0  0  0  0
 26 28  1  0  0  0  0
 26 47  1  0  0  0  0
 28 29  1  0  0  0  0
 28 48  1  0  0  0  0
 29 49  1  0  0  0  0
 30 35  1  0  0  0  0
 30 31  2  0  0  0  0
 31 32  1  0  0  0  0
 31 50  1  0  0  0  0
 32 33  2  0  0  0  0
 32 51  1  0  0  0  0
 33 34  1  0  0  0  0
 33 52  1  0  0  0  0
 34 35  2  0  0  0  0
 34 53  1  0  0  0  0
 35 54  1  0  0  0  0
M  CHG  1   3  -1
M  END
> <s_m_source_file>
AV-unprocessed.smi

> <i_m_source_file_index>
34

> <i_lp_mmshare_version>
43012

> <i_f3d_flags>
0

> <s_epik_input>
W2NIXTFbY0hdW2NIXVtjSF1bY0hdYzFDKD1PKVtOSF1jKG5bY0hdbjIpYyhjMjMpbltjSF1uM1tDQEBIXTRPW0NASF0oW0NAQEhdKEYpW0NASF00W09IXSlbQ0gyXU9DKD1PKWM1W2NIXVtjSF1bY0hdW2NIXVtjSF01

> <s_epik_cmdline>
J2VwaWtfcHl0aG9uJywgJy1waCcsICc3LjAnLCAnLXRuJywgJzgnLCAnLW1hJywgJzIwMCcsICctbWV0YWxfYmluZGluZycsICctaW1hZScsICc8aW5maWxlLm1hZT4nLCAnLW9tYWUnLCAnPG91dGZpbGUubWFlPic=

> <r_lp_tautomer_probability>
1

> <r_epik_Ionization_Penalty>
4.33227

> <r_epik_Ionization_Penalty_Charging>
3.41027

> <r_epik_Ionization_Penalty_Neutral>
0.922001

> <r_epik_State_Penalty>
3.41358

> <r_epik_Charging_Adjusted_Penalty>
6.82385

> <i_epik_Tot_Q>
-1

> <i_epik_Tot_abs_Q>
1

> <r_epik_Metal_State_Penalty>
0.496292

> <b_epik_Metal_Only>
1

> <s_epik_Chemistry_Notes>
This compound has an ester and may undergo hydrolysis at high or low pH. This compound contains an acetal/aminal-like group ( X-CH(R)-Y where X, Y are N, S, or O) that may be acid/base labile, releasing an aldehyde.

> <s_lp_Force_Field>
OPLS_2005

> <r_lp_Energy>
51.1701

> <b_lp_Chiralities_Consistent>
1

> <s_lp_Variant>
AV-unprocessed.smi:34-29

> <Gold.Version>
5.8.1

> <Gold.Id.Protein>
6NUR|6NUR_protein|mol2

> <Gold.PLP.Fitness>
56.1530

> <Gold.PLP.PLP>
-55.7311

> <Gold.PLP.part.hbond>
-3.0000

> <Gold.PLP.part.metal>
0.0000

> <Gold.PLP.part.buried>
-6.7264

> <Gold.PLP.part.nonpolar>
-48.1098

> <Gold.PLP.part.repulsive>
2.1232

> <Gold.PLP.ligand.clash>
0.0000

> <Gold.PLP.ligand.torsion>
2.5512

> <Gold.PLP.Chemscore.Hbond>
1.6160

> <Gold.PLP.Chemscore.CHOScore>
0.0000

> <Gold.PLP.Chemscore.Metal>
0.0000

> <Gold.Chemscore.Hbonds>
donor molecule, donor type, donor heavy atom, donor atom, acceptor molecule, acceptor atom, score
      L1  H    29    49       P1  7957  0.48
      P1  H  7997  8010       L1    19  0.98

> <Gold.PLP.Chemscore.Internal.Correction>
0.6763

> <Gold.Rescore>
     Score         DG    S(hbond)    S(metal)    S(lipo)     H(rot)  DE(clash)    DE(int)     intcor
     11.77     -19.68       1.80        0.00     129.09       2.69       1.37       6.54       ----

> <Gold.Chemscore.Fitness>
11.7720

> <Gold.Chemscore.DG>
-19.6809

> <Gold.Chemscore.ZeroCoef>
-5.4800

> <Gold.Chemscore.Hbond>
1.7950

> <Gold.Chemscore.Metal>
0.0000

> <Gold.Chemscore.Lipo>
129.0858

> <Gold.Chemscore.Internal_Hbond>
0.0000

> <Gold.Chemscore.DEClash>
1.3729

> <Gold.Chemscore.DEInternal>
6.5359

> <Gold.Chemscore.Rot>
2.6944

> <Gold.Chemscore.Internal.Correction>
   9.000000E+99

> <Gold.Chemscore.Hbonds>
donor molecule, donor type, donor heavy atom, donor atom, acceptor molecule, acceptor atom, score
      L1  H    29    49       P1  7957  0.47
      P1  H  7997  8010       L1    19  0.89

> <Gold.Chemscore.Hbond.Weighted>
-5.9954

> <Gold.Chemscore.Metal.Weighted>
-0.0000

> <Gold.Chemscore.Lipo.Weighted>
-15.1030

> <Gold.Chemscore.Internal_Hbond.Weighted>
0.0000

> <Gold.Chemscore.DEClash.Weighted>
1.3729

> <Gold.Chemscore.DEInternal.Weighted>
6.5359

> <Gold.Chemscore.Rot.Weighted>
6.8975

> <Gold.Chemscore.Internal.Correction.Weighted>
   9.000000E+99

> <Gold.Protein.RotatedTorsions>
[ 6907 6896 6895 6894 ] final  -90.40 input  -60.11 | X-H torsion
[ 7974 7965 7964 7962 ] final  -24.97 input  175.53 | X-H torsion
[ 8008 7997 7996 7995 ] final   55.18 input   59.86 | X-H torsion
[ 10167 10162 10161 10158 ] final   72.03 input  -65.29 | X-H torsion
[ 10718 10713 10712 10709 ] final  -36.72 input   66.30 | X-H torsion
[ 10763 10752 10751 10750 ] final  -55.04 input  -60.55 | X-H torsion
[ 11005 11000 10999 10996 ] final -106.22 input  -57.11 | X-H torsion

> <Gold.Protein.ActiveResidues>
 VAL166  LYS551  ARG553  GLY616  TRP617  ASP618  TYR619  PRO620  LYS621  CYS622 
 ASP623  PHE694  ASN695  SER759  ASP760  ASP761  ALA762  ILE779  LEU786  VAL792 
 PHE793  MET794  SER795  GLU796  ALA797  LYS798  CYS799  TRP800  GLU811  SER814 

> <Gold.Protein.RotatedAtoms>
  150.6881  134.2437  159.4482 H   0  0  0  0  0  0  0  0  0  0  0  0  # atno 6907 bound_to 6896
  152.0380  134.9726  160.0583 H   0  0  0  0  0  0  0  0  0  0  0  0  # atno 6908 bound_to 6896
  152.1239  133.4334  159.4725 H   0  0  0  0  0  0  0  0  0  0  0  0  # atno 6909 bound_to 6896
  146.1521  140.4823  142.8607 H   0  0  0  0  0  0  0  0  0  0  0  0  # atno 7974 bound_to 7965
  155.4968  140.3473  155.4364 H   0  0  0  0  0  0  0  0  0  0  0  0  # atno 8008 bound_to 7997
  156.0940  140.1418  156.9583 H   0  0  0  0  0  0  0  0  0  0  0  0  # atno 8009 bound_to 7997
  154.4652  140.0920  156.6979 H   0  0  0  0  0  0  0  0  0  0  0  0  # atno 8010 bound_to 7997
  140.0397  144.5399  150.7444 H   0  0  0  0  0  0  0  0  0  0  0  0  # atno 10167 bound_to 10162
  156.3235  130.4269  149.7938 H   0  0  0  0  0  0  0  0  0  0  0  0  # atno 10718 bound_to 10713
  154.1845  135.6437  153.5043 H   0  0  0  0  0  0  0  0  0  0  0  0  # atno 10763 bound_to 10752
  153.0050  135.5414  154.6479 H   0  0  0  0  0  0  0  0  0  0  0  0  # atno 10764 bound_to 10752
  154.5852  135.2929  155.0665 H   0  0  0  0  0  0  0  0  0  0  0  0  # atno 10765 bound_to 10752
  141.1015  133.8874  157.1829 H   0  0  0  0  0  0  0  0  0  0  0  0  # atno 11005 bound_to 11000
  144.7917  140.6044  143.6537 LP  0  0  0  0  0  0  0  0  0  0  0  0  # atno 17320 bound_to 7965
  145.4798  139.1496  143.3768 LP  0  0  0  0  0  0  0  0  0  0  0  0  # atno 17321 bound_to 7965
  140.7266  143.2642  151.4100 LP  0  0  0  0  0  0  0  0  0  0  0  0  # atno 17342 bound_to 10162
  139.6022  144.1272  152.2210 LP  0  0  0  0  0  0  0  0  0  0  0  0  # atno 17343 bound_to 10162
  156.5237  130.8226  151.3213 LP  0  0  0  0  0  0  0  0  0  0  0  0  # atno 17370 bound_to 10713
  157.7416  130.9874  150.2460 LP  0  0  0  0  0  0  0  0  0  0  0  0  # atno 17371 bound_to 10713
  139.9869  135.0079  156.9883 LP  0  0  0  0  0  0  0  0  0  0  0  0  # atno 17394 bound_to 11000
  140.5009  134.1098  155.7250 LP  0  0  0  0  0  0  0  0  0  0  0  0  # atno 17395 bound_to 11000

$$$$
