AV-unprocessed.smi:2844|AV-procd|sdf|10940|dock1
  -GOLD-   2272015383D 1   1.00000     0.00000
 Structure written by MMmdl.
 38 40  0  0  0  0  0  0  0  0  1 V2000
  152.4530  143.4246  160.4883 C   0  0  0  0  0  0  0  0  0  0  0  0
  152.0428  142.5350  159.3280 C   0  0  0  0  0  0  0  0  0  0  0  0
  152.0926  141.1319  159.4875 C   0  0  0  0  0  0  0  0  0  0  0  0
  151.7179  140.2695  158.4340 C   0  0  0  0  0  0  0  0  0  0  0  0
  151.6868  138.8868  158.3720 N   0  0  0  0  0  0  0  0  0  0  0  0
  151.2498  138.6843  157.1324 C   0  0  0  0  0  0  0  0  0  0  0  0
  150.9948  139.7738  156.3826 N   0  0  0  0  0  0  0  0  0  0  0  0
  150.5140  139.8049  155.0130 C   0  0  0  0  0  0  0  0  0  0  0  0
  149.4884  140.9293  154.7743 C   0  0  1  0  0  0  0  0  0  0  0  0
  149.4888  141.2932  153.4056 O   0  0  0  0  0  0  0  0  0  0  0  0
  148.0685  140.5126  155.2040 C   0  0  0  0  0  0  0  0  0  0  0  0
  147.1149  141.6056  155.1289 N   0  0  0  0  0  0  0  0  0  0  0  0
  146.7419  142.3387  154.0188 C   0  0  0  0  0  0  0  0  0  0  0  0
  145.8254  143.2384  154.4703 C   0  0  0  0  0  0  0  0  0  0  0  0
  145.0020  144.4307  153.5346 Cl  0  0  0  0  0  0  0  0  0  0  0  0
  145.6813  143.0006  155.8608 C   0  0  0  0  0  0  0  0  0  0  0  0
  146.4645  142.0056  156.2516 N   0  0  0  0  0  0  0  0  0  0  0  0
  151.2904  140.8542  157.2061 C   0  0  0  0  0  0  0  0  0  0  0  0
  151.2385  142.2488  157.0344 C   0  0  0  0  0  0  0  0  0  0  0  0
  151.6143  143.0959  158.0979 C   0  0  0  0  0  0  0  0  0  0  0  0
  151.5519  144.6007  157.9047 C   0  0  0  0  0  0  0  0  0  0  0  0
  152.7234  142.8357  161.3653 H   0  0  0  0  0  0  0  0  0  0  0  0
  151.6346  144.0870  160.7708 H   0  0  0  0  0  0  0  0  0  0  0  0
  153.3148  144.0339  160.2156 H   0  0  0  0  0  0  0  0  0  0  0  0
  152.4196  140.7042  160.4239 H   0  0  0  0  0  0  0  0  0  0  0  0
  151.1087  137.6856  156.7453 H   0  0  0  0  0  0  0  0  0  0  0  0
  151.3688  139.9160  154.3442 H   0  0  0  0  0  0  0  0  0  0  0  0
  150.0678  138.8353  154.7891 H   0  0  0  0  0  0  0  0  0  0  0  0
  149.7880  141.8070  155.3488 H   0  0  0  0  0  0  0  0  0  0  0  0
  149.5194  140.5062  152.8839 H   0  0  0  0  0  0  0  0  0  0  0  0
  147.7073  139.6944  154.5793 H   0  0  0  0  0  0  0  0  0  0  0  0
  148.0796  140.1397  156.2292 H   0  0  0  0  0  0  0  0  0  0  0  0
  147.1511  142.1618  153.0353 H   0  0  0  0  0  0  0  0  0  0  0  0
  145.0508  143.5014  156.5807 H   0  0  0  0  0  0  0  0  0  0  0  0
  150.9114  142.6618  156.0914 H   0  0  0  0  0  0  0  0  0  0  0  0
  151.2152  144.8596  156.9005 H   0  0  0  0  0  0  0  0  0  0  0  0
  152.5355  145.0469  158.0529 H   0  0  0  0  0  0  0  0  0  0  0  0
  150.8572  145.0479  158.6160 H   0  0  0  0  0  0  0  0  0  0  0  0
  1  2  1  0  0  0  0
  1 22  1  0  0  0  0
  1 23  1  0  0  0  0
  1 24  1  0  0  0  0
  2 20  1  0  0  0  0
  2  3  2  0  0  0  0
  3  4  1  0  0  0  0
  3 25  1  0  0  0  0
  4 18  2  0  0  0  0
  4  5  1  0  0  0  0
  5  6  2  0  0  0  0
  6  7  1  0  0  0  0
  6 26  1  0  0  0  0
  7  8  1  0  0  0  0
  7 18  1  0  0  0  0
  8  9  1  0  0  0  0
  8 27  1  0  0  0  0
  8 28  1  0  0  0  0
  9 10  1  0  0  0  0
  9 11  1  0  0  0  0
  9 29  1  0  0  0  0
 10 30  1  0  0  0  0
 11 12  1  0  0  0  0
 11 31  1  0  0  0  0
 11 32  1  0  0  0  0
 12 17  1  0  0  0  0
 12 13  1  0  0  0  0
 13 14  2  0  0  0  0
 13 33  1  0  0  0  0
 14 15  1  0  0  0  0
 14 16  1  0  0  0  0
 16 17  2  0  0  0  0
 16 34  1  0  0  0  0
 18 19  1  0  0  0  0
 19 20  2  0  0  0  0
 19 35  1  0  0  0  0
 20 21  1  0  0  0  0
 21 36  1  0  0  0  0
 21 37  1  0  0  0  0
 21 38  1  0  0  0  0
M  END
> <s_m_source_file>
AV-unprocessed.smi

> <i_m_source_file_index>
2844

> <i_lp_mmshare_version>
43012

> <i_f3d_flags>
0

> <s_epik_input>
W0NIM11jKFtjSF0xKWMoW0NIM10pW2NIXWMoYzEyKW4oW2NIXW4yKVtDSDJdW0NASF0oW09IXSlbQ0gyXW4zW2NIXWMoQ2wpW2NIXW4z

> <s_epik_cmdline>
J2VwaWtfcHl0aG9uJywgJy1waCcsICc3LjAnLCAnLXRuJywgJzgnLCAnLW1hJywgJzIwMCcsICctbWV0YWxfYmluZGluZycsICctaW1hZScsICc8aW5maWxlLm1hZT4nLCAnLW9tYWUnLCAnPG91dGZpbGUubWFlPic=

> <r_lp_tautomer_probability>
1

> <r_epik_Ionization_Penalty>
0.1021

> <r_epik_Ionization_Penalty_Charging>
0

> <r_epik_Ionization_Penalty_Neutral>
0.1021

> <r_epik_State_Penalty>
0.0920694

> <r_epik_Charging_Adjusted_Penalty>
0.0920694

> <i_epik_Tot_Q>
0

> <i_epik_Tot_abs_Q>
0

> <r_epik_Metal_State_Penalty>
0.0784292

> <b_epik_Metal_Only>
0

> <s_lp_Force_Field>
OPLS_2005

> <r_lp_Energy>
10.226

> <b_lp_Chiralities_Consistent>
1

> <s_lp_Variant>
AV-unprocessed.smi:2844-2

> <Gold.Version>
5.8.1

> <Gold.Id.Protein>
6NUR|6NUR_protein|mol2

> <Gold.PLP.Fitness>
49.7356

> <Gold.PLP.PLP>
-45.5433

> <Gold.PLP.part.hbond>
-2.9155

> <Gold.PLP.part.metal>
0.0000

> <Gold.PLP.part.buried>
-4.0560

> <Gold.PLP.part.nonpolar>
-37.9365

> <Gold.PLP.part.repulsive>
0.1091

> <Gold.PLP.ligand.clash>
0.0000

> <Gold.PLP.ligand.torsion>
0.5742

> <Gold.PLP.Chemscore.Hbond>
1.7693

> <Gold.PLP.Chemscore.CHOScore>
0.0000

> <Gold.PLP.Chemscore.Metal>
0.0000

> <Gold.Chemscore.Hbonds>
donor molecule, donor type, donor heavy atom, donor atom, acceptor molecule, acceptor atom, score
      L1  H    10    30       P1  7957  0.77
      P1  H  8011  8017       L1    10  1.00

> <Gold.PLP.Chemscore.Internal.Correction>
0.0328

> <Gold.Rescore>
     Score         DG    S(hbond)    S(metal)    S(lipo)     H(rot)  DE(clash)    DE(int)     intcor
     17.35     -18.39       1.47        0.00     115.61       2.15       0.55       0.49       ----

> <Gold.Chemscore.Fitness>
17.3470

> <Gold.Chemscore.DG>
-18.3923

> <Gold.Chemscore.ZeroCoef>
-5.4800

> <Gold.Chemscore.Hbond>
1.4667

> <Gold.Chemscore.Metal>
0.0000

> <Gold.Chemscore.Lipo>
115.6077

> <Gold.Chemscore.Internal_Hbond>
0.0000

> <Gold.Chemscore.DEClash>
0.5544

> <Gold.Chemscore.DEInternal>
0.4909

> <Gold.Chemscore.Rot>
2.1534

> <Gold.Chemscore.Internal.Correction>
   9.000000E+99

> <Gold.Chemscore.Hbonds>
donor molecule, donor type, donor heavy atom, donor atom, acceptor molecule, acceptor atom, score
      L1  H    10    30       P1  7957  0.76
      P1  H  8011  8017       L1    10  0.32

> <Gold.Chemscore.Hbond.Weighted>
-4.8989

> <Gold.Chemscore.Metal.Weighted>
-0.0000

> <Gold.Chemscore.Lipo.Weighted>
-13.5261

> <Gold.Chemscore.Internal_Hbond.Weighted>
0.0000

> <Gold.Chemscore.DEClash.Weighted>
0.5544

> <Gold.Chemscore.DEInternal.Weighted>
0.4909

> <Gold.Chemscore.Rot.Weighted>
5.5127

> <Gold.Chemscore.Internal.Correction.Weighted>
   9.000000E+99

> <Gold.Protein.RotatedTorsions>
[ 6907 6896 6895 6894 ] final   79.11 input  -60.11 | X-H torsion
[ 7974 7965 7964 7962 ] final  -34.30 input  175.53 | X-H torsion
[ 8008 7997 7996 7995 ] final  171.30 input   59.86 | X-H torsion
[ 10167 10162 10161 10158 ] final -154.41 input  -65.29 | X-H torsion
[ 10718 10713 10712 10709 ] final -155.26 input   66.30 | X-H torsion
[ 10763 10752 10751 10750 ] final   74.65 input  -60.55 | X-H torsion
[ 11005 11000 10999 10996 ] final  -34.11 input  -57.11 | X-H torsion

> <Gold.Protein.ActiveResidues>
 VAL166  LYS551  ARG553  GLY616  TRP617  ASP618  TYR619  PRO620  LYS621  CYS622 
 ASP623  PHE694  ASN695  SER759  ASP760  ASP761  ALA762  ILE779  LEU786  VAL792 
 PHE793  MET794  SER795  GLU796  ALA797  LYS798  CYS799  TRP800  GLU811  SER814 

> <Gold.Protein.RotatedAtoms>
  152.5186  134.3562  159.9268 H   0  0  0  0  0  0  0  0  0  0  0  0  # atno 6907 bound_to 6896
  151.3513  133.3918  159.2688 H   0  0  0  0  0  0  0  0  0  0  0  0  # atno 6908 bound_to 6896
  150.9724  134.9113  159.7854 H   0  0  0  0  0  0  0  0  0  0  0  0  # atno 6909 bound_to 6896
  146.0841  140.6021  142.8895 H   0  0  0  0  0  0  0  0  0  0  0  0  # atno 7974 bound_to 7965
  156.1284  140.1515  156.9102 H   0  0  0  0  0  0  0  0  0  0  0  0  # atno 8008 bound_to 7997
  154.4890  140.0857  156.7591 H   0  0  0  0  0  0  0  0  0  0  0  0  # atno 8009 bound_to 7997
  155.4301  140.3427  155.4281 H   0  0  0  0  0  0  0  0  0  0  0  0  # atno 8010 bound_to 7997
  139.7015  143.9255  152.2431 H   0  0  0  0  0  0  0  0  0  0  0  0  # atno 10167 bound_to 10162
  156.5105  130.8432  151.2644 H   0  0  0  0  0  0  0  0  0  0  0  0  # atno 10718 bound_to 10713
  153.0601  135.5018  154.8074 H   0  0  0  0  0  0  0  0  0  0  0  0  # atno 10763 bound_to 10752
  154.6870  135.2978  154.9536 H   0  0  0  0  0  0  0  0  0  0  0  0  # atno 10764 bound_to 10752
  154.0304  135.6730  153.4833 H   0  0  0  0  0  0  0  0  0  0  0  0  # atno 10765 bound_to 10752
  140.9690  133.7120  156.1492 H   0  0  0  0  0  0  0  0  0  0  0  0  # atno 11005 bound_to 11000
  144.7313  140.4680  143.6936 LP  0  0  0  0  0  0  0  0  0  0  0  0  # atno 17320 bound_to 7965
  145.6163  139.1519  143.3047 LP  0  0  0  0  0  0  0  0  0  0  0  0  # atno 17321 bound_to 7965
  139.9098  144.6863  150.8574 LP  0  0  0  0  0  0  0  0  0  0  0  0  # atno 17342 bound_to 10162
  140.7711  143.3451  151.2127 LP  0  0  0  0  0  0  0  0  0  0  0  0  # atno 17343 bound_to 10162
  157.7451  130.9951  150.2732 LP  0  0  0  0  0  0  0  0  0  0  0  0  # atno 17370 bound_to 10713
  156.3245  130.3791  149.7545 LP  0  0  0  0  0  0  0  0  0  0  0  0  # atno 17371 bound_to 10713
  140.7357  134.4205  157.5561 LP  0  0  0  0  0  0  0  0  0  0  0  0  # atno 17394 bound_to 11000
  139.8905  134.8803  156.2367 LP  0  0  0  0  0  0  0  0  0  0  0  0  # atno 17395 bound_to 11000

$$$$
