AV-unprocessed.smi:2499|AV-procd|sdf|9831|dock4
  -GOLD-   2272013463D 1   1.00000     0.00000
 Structure written by MMmdl.
 27 28  0  0  0  0  0  0  0  0  1 V2000
  151.6534  145.1678  158.6095 C   0  0  0  0  0  0  0  0  0  0  0  0
  152.0189  143.7413  158.1765 C   0  0  2  0  0  0  0  0  0  0  0  0
  151.1093  143.3302  157.1115 N   0  0  0  0  0  0  0  0  0  0  0  0
  150.9803  142.0821  156.6380 C   0  0  0  0  0  0  0  0  0  0  0  0
  151.6316  141.1240  157.0550 O   0  0  0  0  0  0  0  0  0  0  0  0
  150.0588  142.0245  155.6619 N   0  0  0  0  0  0  0  0  0  0  0  0
  149.6455  140.8820  154.9313 C   0  0  0  0  0  0  0  0  0  0  0  0
  150.4323  139.9177  154.4512 N   0  0  0  0  0  0  0  0  0  0  0  0
  149.5630  139.0371  153.8239 C   0  0  0  0  0  0  0  0  0  0  0  0
  148.2886  139.5240  153.9605 C   0  0  0  0  0  0  0  0  0  0  0  0
  148.3254  140.6977  154.6645 O   0  0  0  0  0  0  0  0  0  0  0  0
  152.0216  142.7984  159.3681 C   0  0  0  0  0  0  0  0  0  0  0  0
  152.8106  143.1246  160.6142 C   0  0  0  0  0  0  0  0  0  0  0  0
  153.2417  141.9818  159.7244 C   0  0  0  0  0  0  0  0  0  0  0  0
  152.3451  145.5374  159.3673 H   0  0  0  0  0  0  0  0  0  0  0  0
  150.6477  145.2106  159.0292 H   0  0  0  0  0  0  0  0  0  0  0  0
  151.6932  145.8580  157.7660 H   0  0  0  0  0  0  0  0  0  0  0  0
  153.0323  143.7767  157.7714 H   0  0  0  0  0  0  0  0  0  0  0  0
  150.5318  144.0528  156.7073 H   0  0  0  0  0  0  0  0  0  0  0  0
  149.6028  142.8900  155.4140 H   0  0  0  0  0  0  0  0  0  0  0  0
  149.9157  138.1415  153.3342 H   0  0  0  0  0  0  0  0  0  0  0  0
  147.3162  139.1805  153.6396 H   0  0  0  0  0  0  0  0  0  0  0  0
  151.0613  142.3155  159.5402 H   0  0  0  0  0  0  0  0  0  0  0  0
  153.4237  144.0236  160.6067 H   0  0  0  0  0  0  0  0  0  0  0  0
  152.3610  142.8745  161.5729 H   0  0  0  0  0  0  0  0  0  0  0  0
  153.0785  140.9696  160.0881 H   0  0  0  0  0  0  0  0  0  0  0  0
  154.1420  142.1234  159.1298 H   0  0  0  0  0  0  0  0  0  0  0  0
  1  2  1  0  0  0  0
  1 15  1  0  0  0  0
  1 16  1  0  0  0  0
  1 17  1  0  0  0  0
  2  3  1  0  0  0  0
  2 12  1  0  0  0  0
  2 18  1  0  0  0  0
  3  4  1  0  0  0  0
  3 19  1  0  0  0  0
  4  5  2  0  0  0  0
  4  6  1  0  0  0  0
  6  7  1  0  0  0  0
  6 20  1  0  0  0  0
  7 11  1  0  0  0  0
  7  8  2  0  0  0  0
  8  9  1  0  0  0  0
  9 10  2  0  0  0  0
  9 21  1  0  0  0  0
 10 11  1  0  0  0  0
 10 22  1  0  0  0  0
 12 14  1  0  0  0  0
 12 13  1  0  0  0  0
 12 23  1  0  0  0  0
 13 14  1  0  0  0  0
 13 24  1  0  0  0  0
 13 25  1  0  0  0  0
 14 26  1  0  0  0  0
 14 27  1  0  0  0  0
M  END
> <s_m_source_file>
AV-unprocessed.smi

> <i_m_source_file_index>
2499

> <i_lp_mmshare_version>
43012

> <i_f3d_flags>
0

> <s_epik_input>
W0NIMl0xW0NIMl1bQ0hdMVtDQEhdKFtDSDNdKVtOSF1DKD1PKVtOSF1jMm5bY0hdW2NIXW8y

> <s_epik_cmdline>
J2VwaWtfcHl0aG9uJywgJy1waCcsICc3LjAnLCAnLXRuJywgJzgnLCAnLW1hJywgJzIwMCcsICctbWV0YWxfYmluZGluZycsICctaW1hZScsICc8aW5maWxlLm1hZT4nLCAnLW9tYWUnLCAnPG91dGZpbGUubWFlPic=

> <r_lp_tautomer_probability>
0.785861

> <r_epik_Ionization_Penalty>
5.39182e-05

> <r_epik_Ionization_Penalty_Charging>
0

> <r_epik_Ionization_Penalty_Neutral>
5.39182e-05

> <r_epik_State_Penalty>
0.0482803

> <r_epik_Charging_Adjusted_Penalty>
0.0482803

> <i_epik_Tot_Q>
0

> <i_epik_Tot_abs_Q>
0

> <r_epik_Metal_State_Penalty>
0.0621274

> <b_epik_Metal_Only>
0

> <s_lp_Force_Field>
OPLS_2005

> <r_lp_Energy>
12.2154

> <b_lp_Chiralities_Consistent>
1

> <s_lp_Variant>
AV-unprocessed.smi:2499-1

> <Gold.Version>
5.8.1

> <Gold.Id.Protein>
6NUR|6NUR_protein|mol2

> <Gold.PLP.Fitness>
41.9840

> <Gold.PLP.PLP>
-31.7851

> <Gold.PLP.part.hbond>
-3.0000

> <Gold.PLP.part.metal>
0.0000

> <Gold.PLP.part.buried>
-2.5504

> <Gold.PLP.part.nonpolar>
-26.0519

> <Gold.PLP.part.repulsive>
0.3665

> <Gold.PLP.ligand.clash>
0.0000

> <Gold.PLP.ligand.torsion>
1.2523

> <Gold.PLP.Chemscore.Hbond>
2.9913

> <Gold.PLP.Chemscore.CHOScore>
0.8877

> <Gold.PLP.Chemscore.Metal>
0.0000

> <Gold.Chemscore.Hbonds>
donor molecule, donor type, donor heavy atom, donor atom, acceptor molecule, acceptor atom, score
      L1  H     3    19       P1  8028  0.98
      L1  H     6    20       P1  8028  1.00
      P1  H  7989  7998       L1     8  1.00
      L1  C     9    21       P1  7948  0.94

> <Gold.PLP.Chemscore.Internal.Correction>
1.0667

> <Gold.Rescore>
     Score         DG    S(hbond)    S(metal)    S(lipo)     H(rot)  DE(clash)    DE(int)     intcor
     17.09     -19.68       2.72        0.00      71.92       1.29       0.02       2.58       ----

> <Gold.Chemscore.Fitness>
17.0859

> <Gold.Chemscore.DG>
-19.6791

> <Gold.Chemscore.ZeroCoef>
-5.4800

> <Gold.Chemscore.Hbond>
2.7217

> <Gold.Chemscore.Metal>
0.0000

> <Gold.Chemscore.Lipo>
71.9218

> <Gold.Chemscore.Internal_Hbond>
0.0000

> <Gold.Chemscore.DEClash>
0.0164

> <Gold.Chemscore.DEInternal>
2.5767

> <Gold.Chemscore.Rot>
1.2915

> <Gold.Chemscore.Internal.Correction>
   9.000000E+99

> <Gold.Chemscore.Hbonds>
donor molecule, donor type, donor heavy atom, donor atom, acceptor molecule, acceptor atom, score
      L1  H     3    19       P1  8028  0.89
      L1  H     6    20       P1  8028  0.97
      P1  H  7989  7998       L1     8  0.34

> <Gold.Chemscore.Hbond.Weighted>
-9.0904

> <Gold.Chemscore.Metal.Weighted>
-0.0000

> <Gold.Chemscore.Lipo.Weighted>
-8.4148

> <Gold.Chemscore.Internal_Hbond.Weighted>
0.0000

> <Gold.Chemscore.DEClash.Weighted>
0.0164

> <Gold.Chemscore.DEInternal.Weighted>
2.5767

> <Gold.Chemscore.Rot.Weighted>
3.3062

> <Gold.Chemscore.Internal.Correction.Weighted>
   9.000000E+99

> <Gold.Protein.RotatedTorsions>
[ 6907 6896 6895 6894 ] final   26.89 input  -60.11 | X-H torsion
[ 7974 7965 7964 7962 ] final -100.78 input  175.53 | X-H torsion
[ 8008 7997 7996 7995 ] final  105.46 input   59.86 | X-H torsion
[ 10167 10162 10161 10158 ] final -128.54 input  -65.29 | X-H torsion
[ 10718 10713 10712 10709 ] final   40.22 input   66.30 | X-H torsion
[ 10763 10752 10751 10750 ] final  102.25 input  -60.55 | X-H torsion
[ 11005 11000 10999 10996 ] final  137.21 input  -57.11 | X-H torsion

> <Gold.Protein.ActiveResidues>
 VAL166  LYS551  ARG553  GLY616  TRP617  ASP618  TYR619  PRO620  LYS621  CYS622 
 ASP623  PHE694  ASN695  SER759  ASP760  ASP761  ALA762  ILE779  LEU786  VAL792 
 PHE793  MET794  SER795  GLU796  ALA797  LYS798  CYS799  TRP800  GLU811  SER814 

> <Gold.Protein.RotatedAtoms>
  151.9942  134.9963  160.0562 H   0  0  0  0  0  0  0  0  0  0  0  0  # atno 6907 bound_to 6896
  152.1580  133.4559  159.4855 H   0  0  0  0  0  0  0  0  0  0  0  0  # atno 6908 bound_to 6896
  150.6884  134.2025  159.4371 H   0  0  0  0  0  0  0  0  0  0  0  0  # atno 6909 bound_to 6896
  145.2901  140.9350  143.2883 H   0  0  0  0  0  0  0  0  0  0  0  0  # atno 7974 bound_to 7965
  156.1661  140.3130  155.8891 H   0  0  0  0  0  0  0  0  0  0  0  0  # atno 8008 bound_to 7997
  155.3684  140.0480  157.3063 H   0  0  0  0  0  0  0  0  0  0  0  0  # atno 8009 bound_to 7997
  154.5193  140.2193  155.9016 H   0  0  0  0  0  0  0  0  0  0  0  0  # atno 8010 bound_to 7997
  139.9492  143.6075  152.2480 H   0  0  0  0  0  0  0  0  0  0  0  0  # atno 10167 bound_to 10162
  157.3796  130.7746  149.7182 H   0  0  0  0  0  0  0  0  0  0  0  0  # atno 10718 bound_to 10713
  153.3372  135.4017  155.1542 H   0  0  0  0  0  0  0  0  0  0  0  0  # atno 10763 bound_to 10752
  154.8636  135.3624  154.5394 H   0  0  0  0  0  0  0  0  0  0  0  0  # atno 10764 bound_to 10752
  153.5836  135.7076  153.5512 H   0  0  0  0  0  0  0  0  0  0  0  0  # atno 10765 bound_to 10752
  140.0099  134.9443  157.0254 H   0  0  0  0  0  0  0  0  0  0  0  0  # atno 11005 bound_to 11000
  144.9180  139.4446  143.6555 LP  0  0  0  0  0  0  0  0  0  0  0  0  # atno 17320 bound_to 7965
  146.3188  139.8025  142.8962 LP  0  0  0  0  0  0  0  0  0  0  0  0  # atno 17321 bound_to 7965
  139.6642  144.7662  151.1905 LP  0  0  0  0  0  0  0  0  0  0  0  0  # atno 17342 bound_to 10162
  140.7588  143.5963  150.8744 LP  0  0  0  0  0  0  0  0  0  0  0  0  # atno 17343 bound_to 10162
  155.9773  130.4065  150.3723 LP  0  0  0  0  0  0  0  0  0  0  0  0  # atno 17370 bound_to 10713
  157.1825  131.0395  151.2741 LP  0  0  0  0  0  0  0  0  0  0  0  0  # atno 17371 bound_to 10713
  140.4574  134.1519  155.7187 LP  0  0  0  0  0  0  0  0  0  0  0  0  # atno 17394 bound_to 11000
  141.1703  133.8622  157.1590 LP  0  0  0  0  0  0  0  0  0  0  0  0  # atno 17395 bound_to 11000

$$$$
