AV-unprocessed.smi:2682|AV-procd|sdf|10374|dock3
  -GOLD-   2272014403D 1   1.00000     0.00000
 Structure written by MMmdl.
 30 30  0  0  0  0  0  0  0  0  1 V2000
  147.1548  142.3002  154.2364 C   0  0  0  0  0  0  0  0  0  0  0  0
  148.1073  141.6195  155.0342 O   0  0  0  0  0  0  0  0  0  0  0  0
  148.6886  140.5163  154.3595 C   0  0  0  0  0  0  0  0  0  0  0  0
  149.7388  139.8691  155.2667 C   0  0  0  0  0  0  0  0  0  0  0  0
  150.9648  140.5671  155.1260 O   0  0  0  0  0  0  0  0  0  0  0  0
  151.8817  140.2774  156.1694 C   0  0  0  0  0  0  0  0  0  0  0  0
  151.6256  141.2296  157.3362 C   0  0  0  0  0  0  0  0  0  0  0  0
  150.6636  141.9945  157.2839 O   0  0  0  0  0  0  0  0  0  0  0  0
  152.5059  141.1464  158.3539 N   0  0  0  0  0  0  0  0  0  0  0  0
  152.5808  141.8909  159.5439 C   0  0  0  0  0  0  0  0  0  0  0  0
  151.9356  143.0653  159.7736 C   0  0  0  0  0  0  0  0  0  0  0  0
  152.0849  143.7667  161.0313 C   0  0  0  0  0  0  0  0  0  0  0  0
  152.8846  143.2325  161.9660 C   0  0  0  0  0  0  0  0  0  0  0  0
  153.5540  142.0294  161.7300 N   0  0  0  0  0  0  0  0  0  0  0  0
  153.4600  141.3183  160.5812 C   0  0  0  0  0  0  0  0  0  0  0  0
  154.0857  140.2665  160.4522 O   0  0  0  0  0  0  0  0  0  0  0  0
  146.7380  143.1367  154.7968 H   0  0  0  0  0  0  0  0  0  0  0  0
  146.3329  141.6408  153.9545 H   0  0  0  0  0  0  0  0  0  0  0  0
  147.6125  142.6970  153.3293 H   0  0  0  0  0  0  0  0  0  0  0  0
  147.9098  139.7882  154.1280 H   0  0  0  0  0  0  0  0  0  0  0  0
  149.1393  140.8265  153.4154 H   0  0  0  0  0  0  0  0  0  0  0  0
  149.4026  139.8726  156.3046 H   0  0  0  0  0  0  0  0  0  0  0  0
  149.8813  138.8287  154.9712 H   0  0  0  0  0  0  0  0  0  0  0  0
  151.7591  139.2497  156.5147 H   0  0  0  0  0  0  0  0  0  0  0  0
  152.9077  140.3913  155.8149 H   0  0  0  0  0  0  0  0  0  0  0  0
  153.2093  140.4264  158.2683 H   0  0  0  0  0  0  0  0  0  0  0  0
  151.3043  143.5253  159.0318 H   0  0  0  0  0  0  0  0  0  0  0  0
  151.5659  144.6966  161.2112 H   0  0  0  0  0  0  0  0  0  0  0  0
  153.0698  143.6685  162.9366 H   0  0  0  0  0  0  0  0  0  0  0  0
  154.1427  141.6786  162.4718 H   0  0  0  0  0  0  0  0  0  0  0  0
  1  2  1  0  0  0  0
  1 17  1  0  0  0  0
  1 18  1  0  0  0  0
  1 19  1  0  0  0  0
  2  3  1  0  0  0  0
  3  4  1  0  0  0  0
  3 20  1  0  0  0  0
  3 21  1  0  0  0  0
  4  5  1  0  0  0  0
  4 22  1  0  0  0  0
  4 23  1  0  0  0  0
  5  6  1  0  0  0  0
  6  7  1  0  0  0  0
  6 24  1  0  0  0  0
  6 25  1  0  0  0  0
  7  8  2  0  0  0  0
  7  9  1  0  0  0  0
  9 26  1  0  0  0  0
  9 10  1  0  0  0  0
 10 11  2  0  0  0  0
 10 15  1  0  0  0  0
 11 12  1  0  0  0  0
 11 27  1  0  0  0  0
 12 13  2  0  0  0  0
 12 28  1  0  0  0  0
 13 14  1  0  0  0  0
 13 29  1  0  0  0  0
 14 15  1  0  0  0  0
 14 30  1  0  0  0  0
 15 16  2  0  0  0  0
M  END
> <s_m_source_file>
AV-unprocessed.smi

> <i_m_source_file_index>
2682

> <i_lp_mmshare_version>
43012

> <i_f3d_flags>
0

> <s_epik_input>
W0NIM11PW0NIMl1bQ0gyXU9bQ0gyXUMoPU8pW05IXWMxW2NIXVtjSF1bY0hdbmMxW09IXQ==

> <s_epik_cmdline>
J2VwaWtfcHl0aG9uJywgJy1waCcsICc3LjAnLCAnLXRuJywgJzgnLCAnLW1hJywgJzIwMCcsICctbWV0YWxfYmluZGluZycsICctaW1hZScsICc8aW5maWxlLm1hZT4nLCAnLW9tYWUnLCAnPG91dGZpbGUubWFlPic=

> <r_lp_tautomer_probability>
1

> <r_epik_Ionization_Penalty>
0.000101939

> <r_epik_Ionization_Penalty_Charging>
0.000101884

> <r_epik_Ionization_Penalty_Neutral>
5.41789e-08

> <r_epik_State_Penalty>
-0

> <r_epik_Charging_Adjusted_Penalty>
0.000101884

> <i_epik_Tot_Q>
0

> <i_epik_Tot_abs_Q>
0

> <r_epik_Metal_State_Penalty>
0.0807852

> <b_epik_Metal_Only>
0

> <s_lp_Force_Field>
OPLS_2005

> <r_lp_Energy>
15.1735

> <b_lp_Chiralities_Consistent>
1

> <s_lp_Variant>
AV-unprocessed.smi:2682-1

> <Gold.Version>
5.8.1

> <Gold.Id.Protein>
6NUR|6NUR_protein|mol2

> <Gold.PLP.Fitness>
35.8111

> <Gold.PLP.PLP>
-33.5543

> <Gold.PLP.part.hbond>
-1.0000

> <Gold.PLP.part.metal>
0.0000

> <Gold.PLP.part.buried>
-5.5165

> <Gold.PLP.part.nonpolar>
-26.1402

> <Gold.PLP.part.repulsive>
0.3912

> <Gold.PLP.ligand.clash>
0.0000

> <Gold.PLP.ligand.torsion>
0.4371

> <Gold.PLP.Chemscore.Hbond>
1.0000

> <Gold.PLP.Chemscore.CHOScore>
0.0000

> <Gold.PLP.Chemscore.Metal>
0.0000

> <Gold.Chemscore.Hbonds>
donor molecule, donor type, donor heavy atom, donor atom, acceptor molecule, acceptor atom, score
      P1  H  7989  7998       L1     5  0.96

> <Gold.PLP.Chemscore.Internal.Correction>
0.1311

> <Gold.Rescore>
     Score         DG    S(hbond)    S(metal)    S(lipo)     H(rot)  DE(clash)    DE(int)     intcor
     10.90     -11.54       0.97        0.00      71.71       2.17       0.05       0.59       ----

> <Gold.Chemscore.Fitness>
10.9025

> <Gold.Chemscore.DG>
-11.5434

> <Gold.Chemscore.ZeroCoef>
-5.4800

> <Gold.Chemscore.Hbond>
0.9701

> <Gold.Chemscore.Metal>
0.0000

> <Gold.Chemscore.Lipo>
71.7122

> <Gold.Chemscore.Internal_Hbond>
0.0000

> <Gold.Chemscore.DEClash>
0.0494

> <Gold.Chemscore.DEInternal>
0.5914

> <Gold.Chemscore.Rot>
2.1746

> <Gold.Chemscore.Internal.Correction>
   9.000000E+99

> <Gold.Chemscore.Hbonds>
donor molecule, donor type, donor heavy atom, donor atom, acceptor molecule, acceptor atom, score
      P1  H  7989  7998       L1     5  0.85

> <Gold.Chemscore.Hbond.Weighted>
-3.2400

> <Gold.Chemscore.Metal.Weighted>
-0.0000

> <Gold.Chemscore.Lipo.Weighted>
-8.3903

> <Gold.Chemscore.Internal_Hbond.Weighted>
0.0000

> <Gold.Chemscore.DEClash.Weighted>
0.0494

> <Gold.Chemscore.DEInternal.Weighted>
0.5914

> <Gold.Chemscore.Rot.Weighted>
5.5669

> <Gold.Chemscore.Internal.Correction.Weighted>
   9.000000E+99

> <Gold.Protein.RotatedTorsions>
[ 6907 6896 6895 6894 ] final   32.09 input  -60.11 | X-H torsion
[ 7974 7965 7964 7962 ] final   33.09 input  175.53 | X-H torsion
[ 8008 7997 7996 7995 ] final -177.30 input   59.86 | X-H torsion
[ 10167 10162 10161 10158 ] final   57.58 input  -65.29 | X-H torsion
[ 10718 10713 10712 10709 ] final   43.76 input   66.30 | X-H torsion
[ 10763 10752 10751 10750 ] final  -48.67 input  -60.55 | X-H torsion
[ 11005 11000 10999 10996 ] final   26.42 input  -57.11 | X-H torsion

> <Gold.Protein.ActiveResidues>
 VAL166  LYS551  ARG553  GLY616  TRP617  ASP618  TYR619  PRO620  LYS621  CYS622 
 ASP623  PHE694  ASN695  SER759  ASP760  ASP761  ALA762  ILE779  LEU786  VAL792 
 PHE793  MET794  SER795  GLU796  ALA797  LYS798  CYS799  TRP800  GLU811  SER814 

> <Gold.Protein.RotatedAtoms>
  152.0695  134.9542  160.0574 H   0  0  0  0  0  0  0  0  0  0  0  0  # atno 6907 bound_to 6896
  152.0874  133.4178  159.4536 H   0  0  0  0  0  0  0  0  0  0  0  0  # atno 6908 bound_to 6896
  150.6836  134.2831  159.4679 H   0  0  0  0  0  0  0  0  0  0  0  0  # atno 6909 bound_to 6896
  146.1444  139.6442  142.9141 H   0  0  0  0  0  0  0  0  0  0  0  0  # atno 7974 bound_to 7965
  156.0053  140.1229  157.0508 H   0  0  0  0  0  0  0  0  0  0  0  0  # atno 8008 bound_to 7997
  154.4256  140.1098  156.5822 H   0  0  0  0  0  0  0  0  0  0  0  0  # atno 8009 bound_to 7997
  155.6156  140.3472  155.4638 H   0  0  0  0  0  0  0  0  0  0  0  0  # atno 8010 bound_to 7997
  140.1965  144.4032  150.6548 H   0  0  0  0  0  0  0  0  0  0  0  0  # atno 10167 bound_to 10162
  157.4194  130.7960  149.7501 H   0  0  0  0  0  0  0  0  0  0  0  0  # atno 10718 bound_to 10713
  154.0816  135.6590  153.4839 H   0  0  0  0  0  0  0  0  0  0  0  0  # atno 10763 bound_to 10752
  153.0354  135.5181  154.7468 H   0  0  0  0  0  0  0  0  0  0  0  0  # atno 10764 bound_to 10752
  154.6565  135.3008  154.9889 H   0  0  0  0  0  0  0  0  0  0  0  0  # atno 10765 bound_to 10752
  140.3372  134.2372  155.7694 H   0  0  0  0  0  0  0  0  0  0  0  0  # atno 11005 bound_to 11000
  145.4972  141.0438  143.2560 LP  0  0  0  0  0  0  0  0  0  0  0  0  # atno 17320 bound_to 7965
  144.7829  139.6488  143.7146 LP  0  0  0  0  0  0  0  0  0  0  0  0  # atno 17321 bound_to 7965
  140.6420  143.2205  151.6269 LP  0  0  0  0  0  0  0  0  0  0  0  0  # atno 17342 bound_to 10162
  139.5234  144.3133  152.0974 LP  0  0  0  0  0  0  0  0  0  0  0  0  # atno 17343 bound_to 10162
  155.9875  130.3966  150.3159 LP  0  0  0  0  0  0  0  0  0  0  0  0  # atno 17370 bound_to 10713
  157.1305  131.0270  151.2971 LP  0  0  0  0  0  0  0  0  0  0  0  0  # atno 17371 bound_to 10713
  141.2048  133.7877  157.0268 LP  0  0  0  0  0  0  0  0  0  0  0  0  # atno 17394 bound_to 11000
  140.0811  134.9648  157.1625 LP  0  0  0  0  0  0  0  0  0  0  0  0  # atno 17395 bound_to 11000

$$$$
