AV-unprocessed.smi:1406|AV-procd|sdf|5724|dock5
  -GOLD-   22720 5353D 1   1.00000     0.00000
 Structure written by MMmdl.
 41 43  0  0  0  0  0  0  0  0  2 V2000
  150.1369  132.4970  154.4360 C   0  0  0  0  0  0  0  0  0  0  0  0
  149.3512  133.8183  154.5574 C   0  0  1  0  0  0  0  0  0  0  0  0
  147.9025  133.6880  154.0632 C   0  0  0  0  0  0  0  0  0  0  0  0
  147.1187  132.9133  154.6128 O   0  0  0  0  0  0  0  0  0  0  0  0
  147.5605  134.4557  153.0163 N   0  0  0  0  0  0  0  0  0  0  0  0
  146.2435  134.4866  152.3876 C   0  0  1  0  0  0  0  0  0  0  0  0
  145.7686  135.8984  152.0659 C   0  0  0  0  0  0  0  0  0  0  0  0
  144.6838  135.6425  151.0186 C   0  0  0  0  0  0  0  0  0  0  0  0
  145.1339  134.4610  150.2477 N   0  3  2  0  0  0  0  0  0  0  0  0
  144.0402  133.5716  149.7858 C   0  0  0  0  0  0  0  0  0  0  0  0
  144.6065  132.3860  148.9832 C   0  0  0  0  0  0  0  0  0  0  0  0
  145.7514  131.6533  149.7138 C   0  0  0  0  0  0  0  0  0  0  0  0
  146.0500  132.2590  151.0942 C   0  0  0  0  0  0  0  0  0  0  0  0
  146.2242  133.7930  151.0142 C   0  0  2  0  0  0  0  0  0  0  0  0
  149.3742  134.3553  155.9125 N   0  0  0  0  0  0  0  0  0  0  0  0
  150.4027  134.7868  156.6458 C   0  0  0  0  0  0  0  0  0  0  0  0
  150.0564  135.2625  157.8335 N   0  0  0  0  0  0  0  0  0  0  0  0
  148.7030  135.0920  157.7613 C   0  0  0  0  0  0  0  0  0  0  0  0
  148.2408  134.5640  156.6281 N   0  0  0  0  0  0  0  0  0  0  0  0
  150.1430  132.1378  153.4063 H   0  0  0  0  0  0  0  0  0  0  0  0
  149.7133  131.7070  155.0576 H   0  0  0  0  0  0  0  0  0  0  0  0
  151.1751  132.6341  154.7392 H   0  0  0  0  0  0  0  0  0  0  0  0
  149.8521  134.5473  153.9179 H   0  0  0  0  0  0  0  0  0  0  0  0
  148.2659  135.0655  152.6286 H   0  0  0  0  0  0  0  0  0  0  0  0
  145.5000  134.0286  153.0438 H   0  0  0  0  0  0  0  0  0  0  0  0
  145.3948  136.4319  152.9404 H   0  0  0  0  0  0  0  0  0  0  0  0
  146.5784  136.4854  151.6291 H   0  0  0  0  0  0  0  0  0  0  0  0
  143.7423  135.4203  151.5240 H   0  0  0  0  0  0  0  0  0  0  0  0
  144.5176  136.5024  150.3696 H   0  0  0  0  0  0  0  0  0  0  0  0
  143.4735  133.2076  150.6445 H   0  0  0  0  0  0  0  0  0  0  0  0
  143.3437  134.1411  149.1695 H   0  0  0  0  0  0  0  0  0  0  0  0
  143.8030  131.6850  148.7548 H   0  0  0  0  0  0  0  0  0  0  0  0
  144.9719  132.7456  148.0204 H   0  0  0  0  0  0  0  0  0  0  0  0
  145.5126  130.5946  149.8198 H   0  0  0  0  0  0  0  0  0  0  0  0
  146.6530  131.6989  149.1014 H   0  0  0  0  0  0  0  0  0  0  0  0
  145.2379  132.0099  151.7788 H   0  0  0  0  0  0  0  0  0  0  0  0
  146.9457  131.7989  151.5120 H   0  0  0  0  0  0  0  0  0  0  0  0
  147.1489  134.0187  150.4802 H   0  0  0  0  0  0  0  0  0  0  0  0
  151.4262  134.7568  156.3020 H   0  0  0  0  0  0  0  0  0  0  0  0
  148.0375  135.3726  158.5643 H   0  0  0  0  0  0  0  0  0  0  0  0
  145.5761  134.8177  149.4125 H   0  0  0  0  0  0  0  0  0  0  0  0
  1  2  1  0  0  0  0
  1 20  1  0  0  0  0
  1 21  1  0  0  0  0
  1 22  1  0  0  0  0
  2  3  1  0  0  0  0
  2 15  1  0  0  0  0
  2 23  1  0  0  0  0
  3  4  2  0  0  0  0
  3  5  1  0  0  0  0
  5  6  1  0  0  0  0
  5 24  1  0  0  0  0
  6 14  1  0  0  0  0
  6  7  1  0  0  0  0
  6 25  1  0  0  0  0
  7  8  1  0  0  0  0
  7 26  1  0  0  0  0
  7 27  1  0  0  0  0
  8  9  1  0  0  0  0
  8 28  1  0  0  0  0
  8 29  1  0  0  0  0
  9 14  1  0  0  0  0
  9 10  1  0  0  0  0
  9 41  1  0  0  0  0
 10 11  1  0  0  0  0
 10 30  1  0  0  0  0
 10 31  1  0  0  0  0
 11 12  1  0  0  0  0
 11 32  1  0  0  0  0
 11 33  1  0  0  0  0
 12 13  1  0  0  0  0
 12 34  1  0  0  0  0
 12 35  1  0  0  0  0
 13 14  1  0  0  0  0
 13 36  1  0  0  0  0
 13 37  1  0  0  0  0
 14 38  1  0  0  0  0
 15 19  1  0  0  0  0
 15 16  1  0  0  0  0
 16 17  2  0  0  0  0
 16 39  1  0  0  0  0
 17 18  1  0  0  0  0
 18 19  2  0  0  0  0
 18 40  1  0  0  0  0
M  CHG  1   9   1
M  END
> <s_m_source_file>
AV-unprocessed.smi

> <i_m_source_file_index>
1406

> <i_lp_mmshare_version>
43012

> <i_f3d_flags>
0

> <s_epik_input>
bjFbY0hdbltjSF1uMVtDQEhdKFtDSDNdKUMoPU8pW05IXVtDQEhdKFtDSDJdW0NIMl0yKVtDQEBIXShOMjMpW0NIMl1bQ0gyXVtDSDJdW0NIMl0z

> <s_epik_cmdline>
J2VwaWtfcHl0aG9uJywgJy1waCcsICc3LjAnLCAnLXRuJywgJzgnLCAnLW1hJywgJzIwMCcsICctbWV0YWxfYmluZGluZycsICctaW1hZScsICc8aW5maWxlLm1hZT4nLCAnLW9tYWUnLCAnPG91dGZpbGUubWFlPic=

> <r_lp_tautomer_probability>
1

> <r_epik_Ionization_Penalty>
0.00197066

> <r_epik_Ionization_Penalty_Charging>
0.00196223

> <r_epik_Ionization_Penalty_Neutral>
8.43107e-06

> <r_epik_State_Penalty>
0.00133866

> <r_epik_Charging_Adjusted_Penalty>
0.00330089

> <i_epik_Tot_Q>
1

> <i_epik_Tot_abs_Q>
1

> <r_epik_Metal_State_Penalty>
-0

> <b_epik_Metal_Only>
0

> <s_lp_Force_Field>
OPLS_2005

> <r_lp_Energy>
45.3415

> <b_lp_Chiralities_Consistent>
1

> <s_lp_Variant>
AV-unprocessed.smi:1406-16

> <Gold.Version>
5.8.1

> <Gold.Id.Protein>
6NUR|6NUR_protein|mol2

> <Gold.PLP.Fitness>
38.0210

> <Gold.PLP.PLP>
-29.5005

> <Gold.PLP.part.hbond>
-2.9264

> <Gold.PLP.part.metal>
0.0000

> <Gold.PLP.part.buried>
-1.2707

> <Gold.PLP.part.nonpolar>
-24.4209

> <Gold.PLP.part.repulsive>
0.0953

> <Gold.PLP.ligand.clash>
0.0000

> <Gold.PLP.ligand.torsion>
0.2779

> <Gold.PLP.Chemscore.Hbond>
2.9913

> <Gold.PLP.Chemscore.CHOScore>
0.0000

> <Gold.PLP.Chemscore.Metal>
0.0000

> <Gold.Chemscore.Hbonds>
donor molecule, donor type, donor heavy atom, donor atom, acceptor molecule, acceptor atom, score
      L1  H     5    24       P1  7948  0.98
      L1  H     9    41       P1  7921  1.00
      P1  H  6896  6909       L1    17  0.82

> <Gold.PLP.Chemscore.Internal.Correction>
0.1026

> <Gold.Rescore>
     Score         DG    S(hbond)    S(metal)    S(lipo)     H(rot)  DE(clash)    DE(int)     intcor
     16.93     -19.03       2.91        0.00      74.14       1.89       0.12       1.98       ----

> <Gold.Chemscore.Fitness>
16.9319

> <Gold.Chemscore.DG>
-19.0305

> <Gold.Chemscore.ZeroCoef>
-5.4800

> <Gold.Chemscore.Hbond>
2.9060

> <Gold.Chemscore.Metal>
0.0000

> <Gold.Chemscore.Lipo>
74.1353

> <Gold.Chemscore.Internal_Hbond>
0.0000

> <Gold.Chemscore.DEClash>
0.1185

> <Gold.Chemscore.DEInternal>
1.9801

> <Gold.Chemscore.Rot>
1.8865

> <Gold.Chemscore.Internal.Correction>
   9.000000E+99

> <Gold.Chemscore.Hbonds>
donor molecule, donor type, donor heavy atom, donor atom, acceptor molecule, acceptor atom, score
      L1  H     5    24       P1  7948  0.71
      L1  H     9    41       P1  7921  0.97
      P1  H  6896  6909       L1    17  0.53

> <Gold.Chemscore.Hbond.Weighted>
-9.7062

> <Gold.Chemscore.Metal.Weighted>
-0.0000

> <Gold.Chemscore.Lipo.Weighted>
-8.6738

> <Gold.Chemscore.Internal_Hbond.Weighted>
0.0000

> <Gold.Chemscore.DEClash.Weighted>
0.1185

> <Gold.Chemscore.DEInternal.Weighted>
1.9801

> <Gold.Chemscore.Rot.Weighted>
4.8295

> <Gold.Chemscore.Internal.Correction.Weighted>
   9.000000E+99

> <Gold.Protein.RotatedTorsions>
[ 6907 6896 6895 6894 ] final   43.62 input  -60.11 | X-H torsion
[ 7974 7965 7964 7962 ] final  135.21 input  175.53 | X-H torsion
[ 8008 7997 7996 7995 ] final  -93.21 input   59.86 | X-H torsion
[ 10167 10162 10161 10158 ] final  120.75 input  -65.29 | X-H torsion
[ 10718 10713 10712 10709 ] final -114.82 input   66.30 | X-H torsion
[ 10763 10752 10751 10750 ] final   15.94 input  -60.55 | X-H torsion
[ 11005 11000 10999 10996 ] final   -1.66 input  -57.11 | X-H torsion

> <Gold.Protein.ActiveResidues>
 VAL166  LYS551  ARG553  GLY616  TRP617  ASP618  TYR619  PRO620  LYS621  CYS622 
 ASP623  PHE694  ASN695  SER759  ASP760  ASP761  ALA762  ILE779  LEU786  VAL792 
 PHE793  MET794  SER795  GLU796  ALA797  LYS798  CYS799  TRP800  GLU811  SER814 

> <Gold.Protein.RotatedAtoms>
  152.2225  134.8399  160.0483 H   0  0  0  0  0  0  0  0  0  0  0  0  # atno 6907 bound_to 6896
  151.9177  133.3572  159.3894 H   0  0  0  0  0  0  0  0  0  0  0  0  # atno 6908 bound_to 6896
  150.7004  134.4592  159.5417 H   0  0  0  0  0  0  0  0  0  0  0  0  # atno 6909 bound_to 6896
  144.9686  139.4631  143.5444 H   0  0  0  0  0  0  0  0  0  0  0  0  # atno 7974 bound_to 7965
  154.7328  140.0501  157.0741 H   0  0  0  0  0  0  0  0  0  0  0  0  # atno 8008 bound_to 7997
  155.0280  140.3154  155.4749 H   0  0  0  0  0  0  0  0  0  0  0  0  # atno 8009 bound_to 7997
  156.2845  140.2155  156.5400 H   0  0  0  0  0  0  0  0  0  0  0  0  # atno 8010 bound_to 7997
  139.5962  144.7042  151.3170 H   0  0  0  0  0  0  0  0  0  0  0  0  # atno 10167 bound_to 10162
  156.0854  130.6047  150.8824 H   0  0  0  0  0  0  0  0  0  0  0  0  # atno 10718 bound_to 10713
  153.1477  135.6772  153.8929 H   0  0  0  0  0  0  0  0  0  0  0  0  # atno 10763 bound_to 10752
  153.8365  135.3111  155.3424 H   0  0  0  0  0  0  0  0  0  0  0  0  # atno 10764 bound_to 10752
  154.7838  135.4873  153.9987 H   0  0  0  0  0  0  0  0  0  0  0  0  # atno 10765 bound_to 10752
  140.6498  133.9415  155.8373 H   0  0  0  0  0  0  0  0  0  0  0  0  # atno 11005 bound_to 11000
  146.3375  139.8883  142.8813 LP  0  0  0  0  0  0  0  0  0  0  0  0  # atno 17320 bound_to 7965
  145.2593  141.0071  143.3836 LP  0  0  0  0  0  0  0  0  0  0  0  0  # atno 17321 bound_to 7965
  140.7214  143.7126  150.7758 LP  0  0  0  0  0  0  0  0  0  0  0  0  # atno 17342 bound_to 10162
  140.0692  143.5078  152.2588 LP  0  0  0  0  0  0  0  0  0  0  0  0  # atno 17343 bound_to 10162
  157.5987  131.0942  150.8997 LP  0  0  0  0  0  0  0  0  0  0  0  0  # atno 17370 bound_to 10713
  156.9158  130.5297  149.5279 LP  0  0  0  0  0  0  0  0  0  0  0  0  # atno 17371 bound_to 10713
  141.0545  134.0436  157.3740 LP  0  0  0  0  0  0  0  0  0  0  0  0  # atno 17394 bound_to 11000
  139.9050  135.0177  156.7444 LP  0  0  0  0  0  0  0  0  0  0  0  0  # atno 17395 bound_to 11000

$$$$
