AV-unprocessed.smi:1703|AV-procd|sdf|6861|dock7
  -GOLD-   22720 8 53D 1   1.00000     0.00000
 Structure written by MMmdl.
 49 51  0  0  0  0  0  0  0  0  2 V2000
  147.1306  136.5300  162.4124 C   0  0  0  0  0  0  0  0  0  0  0  0
  147.6350  135.9429  161.0897 C   0  0  2  0  0  0  0  0  0  0  0  0
  148.2682  137.0156  160.1849 C   0  0  0  0  0  0  0  0  0  0  0  0
  148.6632  136.4221  158.8854 N   0  3  2  0  0  0  0  0  0  0  0  0
  149.3871  137.3622  157.9923 C   0  0  0  0  0  0  0  0  0  0  0  0
  150.7188  137.8409  158.6029 C   0  0  1  0  0  0  0  0  0  0  0  0
  151.3378  136.7474  159.2538 O   0  0  0  0  0  0  0  0  0  0  0  0
  151.6703  138.4098  157.5309 C   0  0  0  0  0  0  0  0  0  0  0  0
  151.4482  139.8273  157.2754 N   0  0  0  0  0  0  0  0  0  0  0  0
  150.8753  140.4034  156.1883 C   0  0  0  0  0  0  0  0  0  0  0  0
  150.3745  139.6006  155.0271 C   0  0  0  0  0  0  0  0  0  0  0  0
  150.0670  140.3993  153.9048 O   0  0  0  0  0  0  0  0  0  0  0  0
  150.7894  141.7336  156.2136 N   0  0  0  0  0  0  0  0  0  0  0  0
  151.3654  142.0528  157.4276 C   0  0  0  0  0  0  0  0  0  0  0  0
  151.5753  143.3078  158.0424 C   0  0  0  0  0  0  0  0  0  0  0  0
  152.1932  143.3885  159.3074 C   0  0  0  0  0  0  0  0  0  0  0  0
  152.6107  142.2184  159.9738 C   0  0  0  0  0  0  0  0  0  0  0  0
  152.4114  140.9577  159.3788 C   0  0  0  0  0  0  0  0  0  0  0  0
  151.7920  140.8821  158.1165 C   0  0  0  0  0  0  0  0  0  0  0  0
  147.4915  135.7953  158.2302 C   0  0  0  0  0  0  0  0  0  0  0  0
  146.8288  134.7580  159.1581 C   0  0  1  0  0  0  0  0  0  0  0  0
  147.6410  133.4589  159.3062 C   0  0  0  0  0  0  0  0  0  0  0  0
  146.5237  135.3518  160.4203 O   0  0  0  0  0  0  0  0  0  0  0  0
  147.9444  136.9898  162.9738 H   0  0  0  0  0  0  0  0  0  0  0  0
  146.6917  135.7539  163.0401 H   0  0  0  0  0  0  0  0  0  0  0  0
  146.3684  137.2910  162.2424 H   0  0  0  0  0  0  0  0  0  0  0  0
  148.3749  135.1771  161.3225 H   0  0  0  0  0  0  0  0  0  0  0  0
  147.5638  137.8315  160.0149 H   0  0  0  0  0  0  0  0  0  0  0  0
  149.1350  137.4442  160.6867 H   0  0  0  0  0  0  0  0  0  0  0  0
  149.5991  136.8755  157.0387 H   0  0  0  0  0  0  0  0  0  0  0  0
  148.7417  138.2113  157.7622 H   0  0  0  0  0  0  0  0  0  0  0  0
  150.5328  138.6115  159.3497 H   0  0  0  0  0  0  0  0  0  0  0  0
  152.2496  136.9541  159.3936 H   0  0  0  0  0  0  0  0  0  0  0  0
  152.7089  138.2718  157.8345 H   0  0  0  0  0  0  0  0  0  0  0  0
  151.5584  137.8610  156.5958 H   0  0  0  0  0  0  0  0  0  0  0  0
  151.1140  138.8511  154.7472 H   0  0  0  0  0  0  0  0  0  0  0  0
  149.4762  139.0585  155.3246 H   0  0  0  0  0  0  0  0  0  0  0  0
  149.8226  139.8319  153.1898 H   0  0  0  0  0  0  0  0  0  0  0  0
  151.2595  144.2100  157.5400 H   0  0  0  0  0  0  0  0  0  0  0  0
  152.3479  144.3533  159.7682 H   0  0  0  0  0  0  0  0  0  0  0  0
  153.0831  142.2894  160.9426 H   0  0  0  0  0  0  0  0  0  0  0  0
  152.7295  140.0611  159.8886 H   0  0  0  0  0  0  0  0  0  0  0  0
  146.7709  136.5729  157.9713 H   0  0  0  0  0  0  0  0  0  0  0  0
  147.7909  135.3181  157.2960 H   0  0  0  0  0  0  0  0  0  0  0  0
  145.8714  134.4809  158.7159 H   0  0  0  0  0  0  0  0  0  0  0  0
  147.7465  132.9579  158.3437 H   0  0  0  0  0  0  0  0  0  0  0  0
  147.1441  132.7650  159.9846 H   0  0  0  0  0  0  0  0  0  0  0  0
  148.6459  133.6381  159.6878 H   0  0  0  0  0  0  0  0  0  0  0  0
  149.3094  135.6714  159.0858 H   0  0  0  0  0  0  0  0  0  0  0  0
  1  2  1  0  0  0  0
  1 24  1  0  0  0  0
  1 25  1  0  0  0  0
  1 26  1  0  0  0  0
  2 23  1  0  0  0  0
  2  3  1  0  0  0  0
  2 27  1  0  0  0  0
  3  4  1  0  0  0  0
  3 28  1  0  0  0  0
  3 29  1  0  0  0  0
  4  5  1  0  0  0  0
  4 20  1  0  0  0  0
  4 49  1  0  0  0  0
  5  6  1  0  0  0  0
  5 30  1  0  0  0  0
  5 31  1  0  0  0  0
  6  7  1  0  0  0  0
  6  8  1  0  0  0  0
  6 32  1  0  0  0  0
  7 33  1  0  0  0  0
  8  9  1  0  0  0  0
  8 34  1  0  0  0  0
  8 35  1  0  0  0  0
  9 19  1  0  0  0  0
  9 10  1  0  0  0  0
 10 11  1  0  0  0  0
 10 13  2  0  0  0  0
 11 12  1  0  0  0  0
 11 36  1  0  0  0  0
 11 37  1  0  0  0  0
 12 38  1  0  0  0  0
 13 14  1  0  0  0  0
 14 19  2  0  0  0  0
 14 15  1  0  0  0  0
 15 16  2  0  0  0  0
 15 39  1  0  0  0  0
 16 17  1  0  0  0  0
 16 40  1  0  0  0  0
 17 18  2  0  0  0  0
 17 41  1  0  0  0  0
 18 19  1  0  0  0  0
 18 42  1  0  0  0  0
 20 21  1  0  0  0  0
 20 43  1  0  0  0  0
 20 44  1  0  0  0  0
 21 22  1  0  0  0  0
 21 23  1  0  0  0  0
 21 45  1  0  0  0  0
 22 46  1  0  0  0  0
 22 47  1  0  0  0  0
 22 48  1  0  0  0  0
M  CHG  1   4   1
M  END
> <s_m_source_file>
AV-unprocessed.smi

> <i_m_source_file_index>
1703

> <i_lp_mmshare_version>
43012

> <i_f3d_flags>
0

> <s_epik_input>
W0NIM11bQ0BASF0xW0NIMl1OKFtDSDJdW0NASF0oTzEpW0NIM10pW0NIMl1bQ0BIXShbT0hdKVtDSDJdbihjKG4yKVtDSDJdW09IXSljKGMyMylbY0hdW2NIXVtjSF1bY0hdMw==

> <s_epik_cmdline>
J2VwaWtfcHl0aG9uJywgJy1waCcsICc3LjAnLCAnLXRuJywgJzgnLCAnLW1hJywgJzIwMCcsICctbWV0YWxfYmluZGluZycsICctaW1hZScsICc8aW5maWxlLm1hZT4nLCAnLW9tYWUnLCAnPG91dGZpbGUubWFlPic=

> <r_epik_Ionization_Penalty>
0.655661

> <r_epik_Ionization_Penalty_Charging>
0.608065

> <r_epik_Ionization_Penalty_Neutral>
0.0475963

> <r_epik_State_Penalty>
0.695267

> <r_epik_Charging_Adjusted_Penalty>
1.30333

> <i_epik_Tot_Q>
1

> <i_epik_Tot_abs_Q>
1

> <r_epik_Metal_State_Penalty>
0.653591

> <b_epik_Metal_Only>
0

> <s_lp_Force_Field>
OPLS_2005

> <r_lp_Energy>
24.4185

> <b_lp_Chiralities_Consistent>
1

> <s_lp_Variant>
AV-unprocessed.smi:1703-9

> <Gold.Version>
5.8.1

> <Gold.Id.Protein>
6NUR|6NUR_protein|mol2

> <Gold.PLP.Fitness>
45.6906

> <Gold.PLP.PLP>
-40.0416

> <Gold.PLP.part.hbond>
-2.9315

> <Gold.PLP.part.metal>
0.0000

> <Gold.PLP.part.buried>
-5.8769

> <Gold.PLP.part.nonpolar>
-32.2346

> <Gold.PLP.part.repulsive>
0.2118

> <Gold.PLP.ligand.clash>
0.0000

> <Gold.PLP.ligand.torsion>
0.7972

> <Gold.PLP.Chemscore.Hbond>
2.4037

> <Gold.PLP.Chemscore.CHOScore>
0.0000

> <Gold.PLP.Chemscore.Metal>
0.0000

> <Gold.Chemscore.Hbonds>
donor molecule, donor type, donor heavy atom, donor atom, acceptor molecule, acceptor atom, score
      L1  H    12    38       P1  7957  0.69
      P1  H  6896  6907       L1     7  0.80
      P1  H  7989  7998       L1    12  0.74

> <Gold.PLP.Chemscore.Internal.Correction>
0.0322

> <Gold.Rescore>
     Score         DG    S(hbond)    S(metal)    S(lipo)     H(rot)  DE(clash)    DE(int)     intcor
     15.44     -16.61       1.90        0.00     105.59       2.96       0.21       0.96       ----

> <Gold.Chemscore.Fitness>
15.4423

> <Gold.Chemscore.DG>
-16.6133

> <Gold.Chemscore.ZeroCoef>
-5.4800

> <Gold.Chemscore.Hbond>
1.9040

> <Gold.Chemscore.Metal>
0.0000

> <Gold.Chemscore.Lipo>
105.5921

> <Gold.Chemscore.Internal_Hbond>
0.0000

> <Gold.Chemscore.DEClash>
0.2062

> <Gold.Chemscore.DEInternal>
0.9647

> <Gold.Chemscore.Rot>
2.9611

> <Gold.Chemscore.Internal.Correction>
   9.000000E+99

> <Gold.Chemscore.Hbonds>
donor molecule, donor type, donor heavy atom, donor atom, acceptor molecule, acceptor atom, score
      L1  H    12    38       P1  7957  0.66
      P1  H  6896  6907       L1     7  0.12
      P1  H  7989  7998       L1    12  0.07

> <Gold.Chemscore.Hbond.Weighted>
-6.3593

> <Gold.Chemscore.Metal.Weighted>
-0.0000

> <Gold.Chemscore.Lipo.Weighted>
-12.3543

> <Gold.Chemscore.Internal_Hbond.Weighted>
0.0000

> <Gold.Chemscore.DEClash.Weighted>
0.2062

> <Gold.Chemscore.DEInternal.Weighted>
0.9647

> <Gold.Chemscore.Rot.Weighted>
7.5803

> <Gold.Chemscore.Internal.Correction.Weighted>
   9.000000E+99

> <Gold.Protein.RotatedTorsions>
[ 6907 6896 6895 6894 ] final   -9.87 input  -60.11 | X-H torsion
[ 7974 7965 7964 7962 ] final   85.21 input  175.53 | X-H torsion
[ 8008 7997 7996 7995 ] final -135.36 input   59.86 | X-H torsion
[ 10167 10162 10161 10158 ] final  -10.68 input  -65.29 | X-H torsion
[ 10718 10713 10712 10709 ] final -157.49 input   66.30 | X-H torsion
[ 10763 10752 10751 10750 ] final -134.78 input  -60.55 | X-H torsion
[ 11005 11000 10999 10996 ] final -156.25 input  -57.11 | X-H torsion

> <Gold.Protein.ActiveResidues>
 VAL166  LYS551  ARG553  GLY616  TRP617  ASP618  TYR619  PRO620  LYS621  CYS622 
 ASP623  PHE694  ASN695  SER759  ASP760  ASP761  ALA762  ILE779  LEU786  VAL792 
 PHE793  MET794  SER795  GLU796  ALA797  LYS798  CYS799  TRP800  GLU811  SER814 

> <Gold.Protein.RotatedAtoms>
  151.4109  135.0985  159.9584 H   0  0  0  0  0  0  0  0  0  0  0  0  # atno 6907 bound_to 6896
  152.5020  133.8799  159.7351 H   0  0  0  0  0  0  0  0  0  0  0  0  # atno 6908 bound_to 6896
  150.9293  133.6729  159.2842 H   0  0  0  0  0  0  0  0  0  0  0  0  # atno 6909 bound_to 6896
  145.5885  139.2334  143.2313 H   0  0  0  0  0  0  0  0  0  0  0  0  # atno 7974 bound_to 7965
  155.3774  140.0492  157.3044 H   0  0  0  0  0  0  0  0  0  0  0  0  # atno 8008 bound_to 7997
  154.5099  140.2188  155.9138 H   0  0  0  0  0  0  0  0  0  0  0  0  # atno 8009 bound_to 7997
  156.1571  140.3124  155.8749 H   0  0  0  0  0  0  0  0  0  0  0  0  # atno 8010 bound_to 7997
  140.7120  143.5721  150.9081 H   0  0  0  0  0  0  0  0  0  0  0  0  # atno 10167 bound_to 10162
  156.5410  130.8563  151.2749 H   0  0  0  0  0  0  0  0  0  0  0  0  # atno 10718 bound_to 10713
  154.8714  135.3724  154.4791 H   0  0  0  0  0  0  0  0  0  0  0  0  # atno 10763 bound_to 10752
  153.5446  135.7026  153.5625 H   0  0  0  0  0  0  0  0  0  0  0  0  # atno 10764 bound_to 10752
  153.3771  135.4006  155.1795 H   0  0  0  0  0  0  0  0  0  0  0  0  # atno 10765 bound_to 10752
  140.6776  134.4180  157.5228 H   0  0  0  0  0  0  0  0  0  0  0  0  # atno 11005 bound_to 11000
  146.1664  140.6711  142.9253 LP  0  0  0  0  0  0  0  0  0  0  0  0  # atno 17320 bound_to 7965
  144.7362  140.4815  143.6902 LP  0  0  0  0  0  0  0  0  0  0  0  0  # atno 17321 bound_to 7965
  139.9447  143.6341  152.3044 LP  0  0  0  0  0  0  0  0  0  0  0  0  # atno 17342 bound_to 10162
  139.6838  144.7653  151.1560 LP  0  0  0  0  0  0  0  0  0  0  0  0  # atno 17343 bound_to 10162
  157.7405  130.9852  150.2383 LP  0  0  0  0  0  0  0  0  0  0  0  0  # atno 17370 bound_to 10713
  156.2971  130.3753  149.7785 LP  0  0  0  0  0  0  0  0  0  0  0  0  # atno 17371 bound_to 10713
  139.8962  134.8665  156.2099 LP  0  0  0  0  0  0  0  0  0  0  0  0  # atno 17394 bound_to 11000
  141.0343  133.6971  156.1485 LP  0  0  0  0  0  0  0  0  0  0  0  0  # atno 17395 bound_to 11000

$$$$
