AV-unprocessed.smi:3212|AV-procd|sdf|12280|dock3
  -GOLD-   2272018113D 1   1.00000     0.00000
 Structure written by MMmdl.
 39 39  0  0  0  0  0  0  0  0  1 V2000
  151.1020  138.5937  154.4700 C   0  0  0  0  0  0  0  0  0  0  0  0
  150.6293  139.9573  155.0004 C   0  0  2  0  0  0  0  0  0  0  0  0
  151.1824  140.1824  156.3489 N   0  0  0  0  0  0  0  0  0  0  0  0
  150.9913  141.5380  156.8530 C   0  0  0  0  0  0  0  0  0  0  0  0
  151.5050  141.6236  158.2970 C   0  0  0  0  0  0  0  0  0  0  0  0
  151.5606  142.9966  158.7599 N   0  0  0  0  0  0  0  0  0  0  0  0
  151.1930  144.1430  158.0872 C   0  0  0  0  0  0  0  0  0  0  0  0
  151.4164  145.1960  158.9274 C   0  0  0  0  0  0  0  0  0  0  0  0
  151.9279  144.5848  160.1064 C   0  0  0  0  0  0  0  0  0  0  0  0
  152.0123  143.2682  160.0032 N   0  0  0  0  0  0  0  0  0  0  0  0
  149.0954  140.0682  154.9443 C   0  0  0  0  0  0  0  0  0  0  0  0
  148.4540  140.2813  155.9732 O   0  0  0  0  0  0  0  0  0  0  0  0
  148.5373  139.9481  153.7257 N   0  0  0  0  0  0  0  0  0  0  0  0
  147.1221  140.0593  153.3545 C   0  0  0  0  0  0  0  0  0  0  0  0
  147.0346  139.7937  151.8413 C   0  0  0  0  0  0  0  0  0  0  0  0
  146.5969  141.4816  153.6433 C   0  0  0  0  0  0  0  0  0  0  0  0
  146.2780  139.0036  154.0990 C   0  0  0  0  0  0  0  0  0  0  0  0
  150.7198  138.4045  153.4660 H   0  0  0  0  0  0  0  0  0  0  0  0
  150.7732  137.7749  155.1119 H   0  0  0  0  0  0  0  0  0  0  0  0
  152.1903  138.5519  154.4164 H   0  0  0  0  0  0  0  0  0  0  0  0
  151.0465  140.7171  154.3367 H   0  0  0  0  0  0  0  0  0  0  0  0
  152.1648  139.9506  156.3828 H   0  0  0  0  0  0  0  0  0  0  0  0
  151.5383  142.2416  156.2235 H   0  0  0  0  0  0  0  0  0  0  0  0
  149.9381  141.8200  156.8251 H   0  0  0  0  0  0  0  0  0  0  0  0
  150.8612  141.0537  158.9691 H   0  0  0  0  0  0  0  0  0  0  0  0
  152.5046  141.1936  158.3742 H   0  0  0  0  0  0  0  0  0  0  0  0
  150.8058  144.1141  157.0794 H   0  0  0  0  0  0  0  0  0  0  0  0
  151.2408  146.2431  158.7303 H   0  0  0  0  0  0  0  0  0  0  0  0
  152.2373  145.0555  161.0281 H   0  0  0  0  0  0  0  0  0  0  0  0
  149.1722  139.7775  152.9595 H   0  0  0  0  0  0  0  0  0  0  0  0
  146.0059  139.8605  151.4855 H   0  0  0  0  0  0  0  0  0  0  0  0
  147.4035  138.7986  151.5893 H   0  0  0  0  0  0  0  0  0  0  0  0
  147.6240  140.5162  151.2753 H   0  0  0  0  0  0  0  0  0  0  0  0
  147.2125  142.2384  153.1556 H   0  0  0  0  0  0  0  0  0  0  0  0
  146.5833  141.7058  154.7099 H   0  0  0  0  0  0  0  0  0  0  0  0
  145.5763  141.6049  153.2792 H   0  0  0  0  0  0  0  0  0  0  0  0
  145.2443  139.0128  153.7520 H   0  0  0  0  0  0  0  0  0  0  0  0
  146.2543  139.1801  155.1743 H   0  0  0  0  0  0  0  0  0  0  0  0
  146.6681  137.9980  153.9387 H   0  0  0  0  0  0  0  0  0  0  0  0
  1  2  1  0  0  0  0
  1 18  1  0  0  0  0
  1 19  1  0  0  0  0
  1 20  1  0  0  0  0
  2  3  1  0  0  0  0
  2 11  1  0  0  0  0
  2 21  1  0  0  0  0
  3  4  1  0  0  0  0
  3 22  1  0  0  0  0
  4  5  1  0  0  0  0
  4 23  1  0  0  0  0
  4 24  1  0  0  0  0
  5  6  1  0  0  0  0
  5 25  1  0  0  0  0
  5 26  1  0  0  0  0
  6 10  1  0  0  0  0
  6  7  1  0  0  0  0
  7  8  2  0  0  0  0
  7 27  1  0  0  0  0
  8  9  1  0  0  0  0
  8 28  1  0  0  0  0
  9 10  2  0  0  0  0
  9 29  1  0  0  0  0
 11 12  2  0  0  0  0
 11 13  1  0  0  0  0
 13 14  1  0  0  0  0
 13 30  1  0  0  0  0
 14 15  1  0  0  0  0
 14 16  1  0  0  0  0
 14 17  1  0  0  0  0
 15 31  1  0  0  0  0
 15 32  1  0  0  0  0
 15 33  1  0  0  0  0
 16 34  1  0  0  0  0
 16 35  1  0  0  0  0
 16 36  1  0  0  0  0
 17 37  1  0  0  0  0
 17 38  1  0  0  0  0
 17 39  1  0  0  0  0
M  END
> <s_m_source_file>
AV-unprocessed.smi

> <i_m_source_file_index>
3212

> <i_lp_mmshare_version>
43012

> <i_f3d_flags>
0

> <s_epik_input>
W0NIM11DKFtDSDNdKShbQ0gzXSlbTkhdQyg9TylbQ0BIXShbQ0gzXSlbTkhdW0NIMl1bQ0gyXW4xW2NIXVtjSF1bY0hdbjE=

> <s_epik_cmdline>
J2VwaWtfcHl0aG9uJywgJy1waCcsICc3LjAnLCAnLXRuJywgJzgnLCAnLW1hJywgJzIwMCcsICctbWV0YWxfYmluZGluZycsICctaW1hZScsICc8aW5maWxlLm1hZT4nLCAnLW9tYWUnLCAnPG91dGZpbGUubWFlPic=

> <r_lp_tautomer_probability>
1

> <r_epik_Ionization_Penalty>
0.745735

> <r_epik_Ionization_Penalty_Charging>
0

> <r_epik_Ionization_Penalty_Neutral>
0.745735

> <r_epik_State_Penalty>
0.771152

> <r_epik_Charging_Adjusted_Penalty>
0.771152

> <i_epik_Tot_Q>
0

> <i_epik_Tot_abs_Q>
0

> <r_epik_Metal_State_Penalty>
0.770403

> <b_epik_Metal_Only>
0

> <s_lp_Force_Field>
OPLS_2005

> <r_lp_Energy>
5.75151

> <b_lp_Chiralities_Consistent>
1

> <s_lp_Variant>
AV-unprocessed.smi:3212-3

> <Gold.Version>
5.8.1

> <Gold.Id.Protein>
6NUR|6NUR_protein|mol2

> <Gold.PLP.Fitness>
41.0907

> <Gold.PLP.PLP>
-35.2082

> <Gold.PLP.part.hbond>
-1.0000

> <Gold.PLP.part.metal>
0.0000

> <Gold.PLP.part.buried>
-1.0433

> <Gold.PLP.part.nonpolar>
-34.0441

> <Gold.PLP.part.repulsive>
0.1447

> <Gold.PLP.ligand.clash>
0.0000

> <Gold.PLP.ligand.torsion>
0.0859

> <Gold.PLP.Chemscore.Hbond>
1.0000

> <Gold.PLP.Chemscore.CHOScore>
1.0000

> <Gold.PLP.Chemscore.Metal>
0.0000

> <Gold.Chemscore.Hbonds>
donor molecule, donor type, donor heavy atom, donor atom, acceptor molecule, acceptor atom, score
      L1  H    13    30       P1  7957  0.98
      L1  C     7    27       P1  8028  1.00

> <Gold.PLP.Chemscore.Internal.Correction>
0.0542

> <Gold.Rescore>
     Score         DG    S(hbond)    S(metal)    S(lipo)     H(rot)  DE(clash)    DE(int)     intcor
     14.11     -15.19       0.98        0.00      98.47       1.99       0.87       0.20       ----

> <Gold.Chemscore.Fitness>
14.1141

> <Gold.Chemscore.DG>
-15.1860

> <Gold.Chemscore.ZeroCoef>
-5.4800

> <Gold.Chemscore.Hbond>
0.9804

> <Gold.Chemscore.Metal>
0.0000

> <Gold.Chemscore.Lipo>
98.4675

> <Gold.Chemscore.Internal_Hbond>
0.0000

> <Gold.Chemscore.DEClash>
0.8710

> <Gold.Chemscore.DEInternal>
0.2009

> <Gold.Chemscore.Rot>
1.9880

> <Gold.Chemscore.Internal.Correction>
   9.000000E+99

> <Gold.Chemscore.Hbonds>
donor molecule, donor type, donor heavy atom, donor atom, acceptor molecule, acceptor atom, score
      L1  H    13    30       P1  7957  0.93

> <Gold.Chemscore.Hbond.Weighted>
-3.2746

> <Gold.Chemscore.Metal.Weighted>
-0.0000

> <Gold.Chemscore.Lipo.Weighted>
-11.5207

> <Gold.Chemscore.Internal_Hbond.Weighted>
0.0000

> <Gold.Chemscore.DEClash.Weighted>
0.8710

> <Gold.Chemscore.DEInternal.Weighted>
0.2009

> <Gold.Chemscore.Rot.Weighted>
5.0893

> <Gold.Chemscore.Internal.Correction.Weighted>
   9.000000E+99

> <Gold.Protein.RotatedTorsions>
[ 6907 6896 6895 6894 ] final -171.03 input  -60.11 | X-H torsion
[ 7974 7965 7964 7962 ] final   13.78 input  175.53 | X-H torsion
[ 8008 7997 7996 7995 ] final -121.90 input   59.86 | X-H torsion
[ 10167 10162 10161 10158 ] final   39.71 input  -65.29 | X-H torsion
[ 10718 10713 10712 10709 ] final  -75.71 input   66.30 | X-H torsion
[ 10763 10752 10751 10750 ] final   90.15 input  -60.55 | X-H torsion
[ 11005 11000 10999 10996 ] final  170.47 input  -57.11 | X-H torsion

> <Gold.Protein.ActiveResidues>
 VAL166  LYS551  ARG553  GLY616  TRP617  ASP618  TYR619  PRO620  LYS621  CYS622 
 ASP623  PHE694  ASN695  SER759  ASP760  ASP761  ALA762  ILE779  LEU786  VAL792 
 PHE793  MET794  SER795  GLU796  ALA797  LYS798  CYS799  TRP800  GLU811  SER814 

> <Gold.Protein.RotatedAtoms>
  151.5172  133.3473  159.2894 H   0  0  0  0  0  0  0  0  0  0  0  0  # atno 6907 bound_to 6896
  150.8675  134.8044  159.7140 H   0  0  0  0  0  0  0  0  0  0  0  0  # atno 6908 bound_to 6896
  152.4674  134.5051  159.9788 H   0  0  0  0  0  0  0  0  0  0  0  0  # atno 6909 bound_to 6896
  146.2321  139.9138  142.8520 H   0  0  0  0  0  0  0  0  0  0  0  0  # atno 7974 bound_to 7965
  155.1556  140.0405  157.2831 H   0  0  0  0  0  0  0  0  0  0  0  0  # atno 8008 bound_to 7997
  154.6373  140.2538  155.7336 H   0  0  0  0  0  0  0  0  0  0  0  0  # atno 8009 bound_to 7997
  156.2515  140.2863  156.0751 H   0  0  0  0  0  0  0  0  0  0  0  0  # atno 8010 bound_to 7997
  140.3813  144.1976  150.6130 H   0  0  0  0  0  0  0  0  0  0  0  0  # atno 10167 bound_to 10162
  156.0199  130.4447  150.3083 H   0  0  0  0  0  0  0  0  0  0  0  0  # atno 10718 bound_to 10713
  153.1946  135.4444  155.0191 H   0  0  0  0  0  0  0  0  0  0  0  0  # atno 10763 bound_to 10752
  154.8111  135.3295  154.7306 H   0  0  0  0  0  0  0  0  0  0  0  0  # atno 10764 bound_to 10752
  153.7756  135.6981  153.4953 H   0  0  0  0  0  0  0  0  0  0  0  0  # atno 10765 bound_to 10752
  140.3087  134.7535  157.3974 H   0  0  0  0  0  0  0  0  0  0  0  0  # atno 11005 bound_to 11000
  145.2204  140.9932  143.4049 LP  0  0  0  0  0  0  0  0  0  0  0  0  # atno 17320 bound_to 7965
  144.9615  139.3975  143.6353 LP  0  0  0  0  0  0  0  0  0  0  0  0  # atno 17321 bound_to 7965
  140.4934  143.2340  151.8784 LP  0  0  0  0  0  0  0  0  0  0  0  0  # atno 17342 bound_to 10162
  139.4795  144.5140  151.8893 LP  0  0  0  0  0  0  0  0  0  0  0  0  # atno 17343 bound_to 10162
  157.1185  131.0240  151.3019 LP  0  0  0  0  0  0  0  0  0  0  0  0  # atno 17370 bound_to 10713
  157.4647  130.7673  149.7268 LP  0  0  0  0  0  0  0  0  0  0  0  0  # atno 17371 bound_to 10713
  140.1044  134.5429  155.8323 LP  0  0  0  0  0  0  0  0  0  0  0  0  # atno 17394 bound_to 11000
  141.2113  133.6705  156.6571 LP  0  0  0  0  0  0  0  0  0  0  0  0  # atno 17395 bound_to 11000

$$$$
