AV-unprocessed.smi:1750|AV-procd|sdf|7055|dock2
  -GOLD-   22720 8273D 1   1.00000     0.00000
 Structure written by MMmdl.
 35 36  0  0  0  0  0  0  0  0  2 V2000
  149.4502  133.8367  154.8348 C   0  0  0  0  0  0  0  0  0  0  0  0
  150.3634  135.0387  155.0992 C   0  0  0  0  0  0  0  0  0  0  0  0
  150.4496  135.3970  156.5895 C   0  0  0  0  0  0  0  0  0  0  0  0
  151.5332  136.3810  156.8798 C   0  0  0  0  0  0  0  0  0  0  0  0
  152.8183  136.1492  156.6000 N   0  0  0  0  0  0  0  0  0  0  0  0
  153.6358  137.2003  156.9892 N   0  0  0  0  0  0  0  0  0  0  0  0
  152.9633  138.1986  157.5796 C   0  0  0  0  0  0  0  0  0  0  0  0
  153.5694  139.3097  158.0298 N   0  5  0  0  0  0  0  0  0  0  0  0
  152.9071  140.1548  158.8524 C   0  0  0  0  0  0  0  0  0  0  0  0
  151.6888  140.3445  158.8782 O   0  0  0  0  0  0  0  0  0  0  0  0
  153.7042  140.8246  159.6950 N   0  0  0  0  0  0  0  0  0  0  0  0
  153.2567  141.8005  160.6801 C   0  0  0  0  0  0  0  0  0  0  0  0
  152.3994  142.8854  160.0142 C   0  0  1  0  0  0  0  0  0  0  0  0
  152.0696  144.0628  160.9310 C   0  0  0  0  0  0  0  0  0  0  0  0
  151.8696  145.2263  159.9707 C   0  0  0  0  0  0  0  0  0  0  0  0
  152.3942  144.7023  158.6312 C   0  0  0  0  0  0  0  0  0  0  0  0
  153.1032  143.5157  158.9555 O   0  0  0  0  0  0  0  0  0  0  0  0
  151.2264  137.9130  157.6800 S   0  0  0  0  0  0  0  0  0  0  0  0
  149.4020  133.6129  153.7690 H   0  0  0  0  0  0  0  0  0  0  0  0
  148.4345  134.0302  155.1809 H   0  0  0  0  0  0  0  0  0  0  0  0
  149.8156  132.9457  155.3461 H   0  0  0  0  0  0  0  0  0  0  0  0
  151.3617  134.8208  154.7175 H   0  0  0  0  0  0  0  0  0  0  0  0
  149.9986  135.8993  154.5372 H   0  0  0  0  0  0  0  0  0  0  0  0
  149.4998  135.8096  156.9321 H   0  0  0  0  0  0  0  0  0  0  0  0
  150.6310  134.4991  157.1810 H   0  0  0  0  0  0  0  0  0  0  0  0
  154.6956  140.6398  159.6502 H   0  0  0  0  0  0  0  0  0  0  0  0
  152.6696  141.2961  161.4492 H   0  0  0  0  0  0  0  0  0  0  0  0
  154.1232  142.2437  161.1728 H   0  0  0  0  0  0  0  0  0  0  0  0
  151.4756  142.4544  159.6223 H   0  0  0  0  0  0  0  0  0  0  0  0
  151.1964  143.8727  161.5558 H   0  0  0  0  0  0  0  0  0  0  0  0
  152.9126  144.2764  161.5896 H   0  0  0  0  0  0  0  0  0  0  0  0
  150.8203  145.5120  159.8917 H   0  0  0  0  0  0  0  0  0  0  0  0
  152.4313  146.0993  160.3046 H   0  0  0  0  0  0  0  0  0  0  0  0
  151.5662  144.4534  157.9660 H   0  0  0  0  0  0  0  0  0  0  0  0
  153.0365  145.4206  158.1214 H   0  0  0  0  0  0  0  0  0  0  0  0
  1  2  1  0  0  0  0
  1 19  1  0  0  0  0
  1 20  1  0  0  0  0
  1 21  1  0  0  0  0
  2  3  1  0  0  0  0
  2 22  1  0  0  0  0
  2 23  1  0  0  0  0
  3  4  1  0  0  0  0
  3 24  1  0  0  0  0
  3 25  1  0  0  0  0
  4 18  1  0  0  0  0
  4  5  2  0  0  0  0
  5  6  1  0  0  0  0
  6  7  2  0  0  0  0
  7  8  1  0  0  0  0
  7 18  1  0  0  0  0
  8  9  1  0  0  0  0
  9 10  2  0  0  0  0
  9 11  1  0  0  0  0
 11 12  1  0  0  0  0
 11 26  1  0  0  0  0
 12 13  1  0  0  0  0
 12 27  1  0  0  0  0
 12 28  1  0  0  0  0
 13 17  1  0  0  0  0
 13 14  1  0  0  0  0
 13 29  1  0  0  0  0
 14 15  1  0  0  0  0
 14 30  1  0  0  0  0
 14 31  1  0  0  0  0
 15 16  1  0  0  0  0
 15 32  1  0  0  0  0
 15 33  1  0  0  0  0
 16 17  1  0  0  0  0
 16 34  1  0  0  0  0
 16 35  1  0  0  0  0
M  CHG  1   8  -1
M  END
> <s_m_source_file>
AV-unprocessed.smi

> <i_m_source_file_index>
1750

> <i_lp_mmshare_version>
43012

> <i_f3d_flags>
0

> <s_epik_input>
W0NIM11bQ0gyXVtDSDJdYzFubmMoczEpW05IXUMoPU8pW05IXVtDSDJdW0NAQEhdMltDSDJdW0NIMl1bQ0gyXU8y

> <s_epik_cmdline>
J2VwaWtfcHl0aG9uJywgJy1waCcsICc3LjAnLCAnLXRuJywgJzgnLCAnLW1hJywgJzIwMCcsICctbWV0YWxfYmluZGluZycsICctaW1hZScsICc8aW5maWxlLm1hZT4nLCAnLW9tYWUnLCAnPG91dGZpbGUubWFlPic=

> <r_lp_tautomer_probability>
1

> <r_epik_Ionization_Penalty>
4.22484

> <r_epik_Ionization_Penalty_Charging>
4.21437

> <r_epik_Ionization_Penalty_Neutral>
0.0104685

> <r_epik_State_Penalty>
4.21389

> <r_epik_Charging_Adjusted_Penalty>
8.42826

> <i_epik_Tot_Q>
-1

> <i_epik_Tot_abs_Q>
1

> <r_epik_Metal_State_Penalty>
0.69377

> <b_epik_Metal_Only>
1

> <s_lp_Force_Field>
OPLS_2005

> <r_lp_Energy>
10.9062

> <b_lp_Chiralities_Consistent>
1

> <s_lp_Variant>
AV-unprocessed.smi:1750-4

> <Gold.Version>
5.8.1

> <Gold.Id.Protein>
6NUR|6NUR_protein|mol2

> <Gold.PLP.Fitness>
44.2701

> <Gold.PLP.PLP>
-35.8113

> <Gold.PLP.part.hbond>
-2.2760

> <Gold.PLP.part.metal>
0.0000

> <Gold.PLP.part.buried>
-6.1728

> <Gold.PLP.part.nonpolar>
-27.9692

> <Gold.PLP.part.repulsive>
0.0749

> <Gold.PLP.ligand.clash>
0.0058

> <Gold.PLP.ligand.torsion>
0.3065

> <Gold.PLP.Chemscore.Hbond>
3.0000

> <Gold.PLP.Chemscore.CHOScore>
0.0000

> <Gold.PLP.Chemscore.Metal>
0.0000

> <Gold.Chemscore.Hbonds>
donor molecule, donor type, donor heavy atom, donor atom, acceptor molecule, acceptor atom, score
      P1  H  7997  8009       L1     8  2.00
      P1  H 10752 10763       L1     5  1.00

> <Gold.PLP.Chemscore.Internal.Correction>
0.0776

> <Gold.Rescore>
     Score         DG    S(hbond)    S(metal)    S(lipo)     H(rot)  DE(clash)    DE(int)     intcor
     14.07     -17.18       1.76        0.00      84.46       1.59       0.02       3.09       ----

> <Gold.Chemscore.Fitness>
14.0650

> <Gold.Chemscore.DG>
-17.1756

> <Gold.Chemscore.ZeroCoef>
-5.4800

> <Gold.Chemscore.Hbond>
1.7636

> <Gold.Chemscore.Metal>
0.0000

> <Gold.Chemscore.Lipo>
84.4567

> <Gold.Chemscore.Internal_Hbond>
0.0000

> <Gold.Chemscore.DEClash>
0.0174

> <Gold.Chemscore.DEInternal>
3.0932

> <Gold.Chemscore.Rot>
1.5922

> <Gold.Chemscore.Internal.Correction>
   9.000000E+99

> <Gold.Chemscore.Hbonds>
donor molecule, donor type, donor heavy atom, donor atom, acceptor molecule, acceptor atom, score
      P1  H  7997  8009       L1     8  0.81
      P1  H 10752 10763       L1     5  0.78

> <Gold.Chemscore.Hbond.Weighted>
-5.8903

> <Gold.Chemscore.Metal.Weighted>
-0.0000

> <Gold.Chemscore.Lipo.Weighted>
-9.8814

> <Gold.Chemscore.Internal_Hbond.Weighted>
0.0000

> <Gold.Chemscore.DEClash.Weighted>
0.0174

> <Gold.Chemscore.DEInternal.Weighted>
3.0932

> <Gold.Chemscore.Rot.Weighted>
4.0761

> <Gold.Chemscore.Internal.Correction.Weighted>
   9.000000E+99

> <Gold.Protein.RotatedTorsions>
[ 6907 6896 6895 6894 ] final  112.57 input  -60.11 | X-H torsion
[ 7974 7965 7964 7962 ] final   44.70 input  175.53 | X-H torsion
[ 8008 7997 7996 7995 ] final  160.55 input   59.86 | X-H torsion
[ 10167 10162 10161 10158 ] final    7.69 input  -65.29 | X-H torsion
[ 10718 10713 10712 10709 ] final  117.01 input   66.30 | X-H torsion
[ 10763 10752 10751 10750 ] final  108.30 input  -60.55 | X-H torsion
[ 11005 11000 10999 10996 ] final   94.22 input  -57.11 | X-H torsion

> <Gold.Protein.ActiveResidues>
 VAL166  LYS551  ARG553  GLY616  TRP617  ASP618  TYR619  PRO620  LYS621  CYS622 
 ASP623  PHE694  ASN695  SER759  ASP760  ASP761  ALA762  ILE779  LEU786  VAL792 
 PHE793  MET794  SER795  GLU796  ALA797  LYS798  CYS799  TRP800  GLU811  SER814 

> <Gold.Protein.RotatedAtoms>
  152.4909  133.8497  159.7195 H   0  0  0  0  0  0  0  0  0  0  0  0  # atno 6907 bound_to 6896
  150.9038  133.7075  159.2879 H   0  0  0  0  0  0  0  0  0  0  0  0  # atno 6908 bound_to 6896
  151.4508  135.1033  159.9749 H   0  0  0  0  0  0  0  0  0  0  0  0  # atno 6909 bound_to 6896
  146.0545  139.5045  142.9697 H   0  0  0  0  0  0  0  0  0  0  0  0  # atno 7974 bound_to 7965
  156.2165  140.1801  156.7578 H   0  0  0  0  0  0  0  0  0  0  0  0  # atno 8008 bound_to 7997
  154.5799  140.0668  156.9117 H   0  0  0  0  0  0  0  0  0  0  0  0  # atno 8009 bound_to 7997
  155.2521  140.3329  155.4283 H   0  0  0  0  0  0  0  0  0  0  0  0  # atno 8010 bound_to 7997
  140.6357  143.7891  150.7357 H   0  0  0  0  0  0  0  0  0  0  0  0  # atno 10167 bound_to 10162
  157.6124  131.1032  150.7554 H   0  0  0  0  0  0  0  0  0  0  0  0  # atno 10718 bound_to 10713
  153.4187  135.3816  155.2097 H   0  0  0  0  0  0  0  0  0  0  0  0  # atno 10763 bound_to 10752
  154.8743  135.3812  154.4411 H   0  0  0  0  0  0  0  0  0  0  0  0  # atno 10764 bound_to 10752
  153.4928  135.7088  153.5937 H   0  0  0  0  0  0  0  0  0  0  0  0  # atno 10765 bound_to 10752
  139.8801  134.8833  156.3832 H   0  0  0  0  0  0  0  0  0  0  0  0  # atno 11005 bound_to 11000
  145.6667  141.0227  143.1679 LP  0  0  0  0  0  0  0  0  0  0  0  0  # atno 17320 bound_to 7965
  144.7140  139.8264  143.7405 LP  0  0  0  0  0  0  0  0  0  0  0  0  # atno 17321 bound_to 7965
  140.1511  143.4356  152.2130 LP  0  0  0  0  0  0  0  0  0  0  0  0  # atno 17342 bound_to 10162
  139.5568  144.7378  151.4271 LP  0  0  0  0  0  0  0  0  0  0  0  0  # atno 17343 bound_to 10162
  156.7928  130.4895  149.5382 LP  0  0  0  0  0  0  0  0  0  0  0  0  # atno 17370 bound_to 10713
  156.1232  130.6125  151.0225 LP  0  0  0  0  0  0  0  0  0  0  0  0  # atno 17371 bound_to 10713
  140.9384  133.7531  156.0115 LP  0  0  0  0  0  0  0  0  0  0  0  0  # atno 17394 bound_to 11000
  140.8248  134.3247  157.5369 LP  0  0  0  0  0  0  0  0  0  0  0  0  # atno 17395 bound_to 11000

$$$$
