AV-unprocessed.smi:788|AV-procd|sdf|3731|dock6
  -GOLD-   22720 1163D 1   1.00000     0.00000
 Structure written by MMmdl.
 35 36  0  0  0  0  0  0  0  0  1 V2000
  151.2747  137.9768  154.4989 C   0  0  0  0  0  0  0  0  0  0  0  0
  150.4987  139.3057  154.5491 C   0  0  2  0  0  0  0  0  0  0  0  0
  151.1162  140.2479  155.6012 C   0  0  0  0  0  0  0  0  0  0  0  0
  150.3724  141.5887  155.6795 C   0  0  0  0  0  0  0  0  0  0  0  0
  148.8754  141.3774  155.9534 C   0  0  0  0  0  0  0  0  0  0  0  0
  148.2171  140.4496  154.9132 C   0  0  1  0  0  0  0  0  0  0  0  0
  148.0245  141.1554  153.5542 C   0  0  0  0  0  0  0  0  0  0  0  0
  148.9861  139.1028  154.8246 C   0  0  1  0  0  0  0  0  0  0  0  0
  148.3967  138.2254  153.8149 N   0  0  0  0  0  0  0  0  0  0  0  0
  147.1237  137.7985  153.7857 C   0  0  0  0  0  0  0  0  0  0  0  0
  146.2977  138.1124  154.6408 O   0  0  0  0  0  0  0  0  0  0  0  0
  146.7853  136.9936  152.7556 N   0  0  0  0  0  0  0  0  0  0  0  0
  145.5548  136.3634  152.4057 C   0  0  0  0  0  0  0  0  0  0  0  0
  144.4267  136.4313  153.1320 N   0  0  0  0  0  0  0  0  0  0  0  0
  143.3864  135.7180  152.5522 N   0  0  0  0  0  0  0  0  0  0  0  0
  143.7684  135.1356  151.4124 C   0  0  0  0  0  0  0  0  0  0  0  0
  145.4359  135.4039  150.9369 S   0  0  0  0  0  0  0  0  0  0  0  0
  151.1737  137.4243  155.4335 H   0  0  0  0  0  0  0  0  0  0  0  0
  152.3377  138.1512  154.3305 H   0  0  0  0  0  0  0  0  0  0  0  0
  150.9237  137.3336  153.6916 H   0  0  0  0  0  0  0  0  0  0  0  0
  150.6116  139.7781  153.5725 H   0  0  0  0  0  0  0  0  0  0  0  0
  151.0972  139.7671  156.5803 H   0  0  0  0  0  0  0  0  0  0  0  0
  152.1660  140.4296  155.3689 H   0  0  0  0  0  0  0  0  0  0  0  0
  150.8074  142.2052  156.4664 H   0  0  0  0  0  0  0  0  0  0  0  0
  150.5086  142.1408  154.7493 H   0  0  0  0  0  0  0  0  0  0  0  0
  148.7558  140.9418  156.9462 H   0  0  0  0  0  0  0  0  0  0  0  0
  148.3615  142.3389  155.9829 H   0  0  0  0  0  0  0  0  0  0  0  0
  147.2145  140.2291  155.2827 H   0  0  0  0  0  0  0  0  0  0  0  0
  148.9747  141.3887  153.0751 H   0  0  0  0  0  0  0  0  0  0  0  0
  147.4804  142.0920  153.6772 H   0  0  0  0  0  0  0  0  0  0  0  0
  147.4484  140.5420  152.8612 H   0  0  0  0  0  0  0  0  0  0  0  0
  148.9022  138.6063  155.7937 H   0  0  0  0  0  0  0  0  0  0  0  0
  149.0090  137.9194  153.0719 H   0  0  0  0  0  0  0  0  0  0  0  0
  147.5462  136.7911  152.1237 H   0  0  0  0  0  0  0  0  0  0  0  0
  143.0636  134.5439  150.8472 H   0  0  0  0  0  0  0  0  0  0  0  0
  1  2  1  0  0  0  0
  1 18  1  0  0  0  0
  1 19  1  0  0  0  0
  1 20  1  0  0  0  0
  2  8  1  0  0  0  0
  2  3  1  0  0  0  0
  2 21  1  0  0  0  0
  3  4  1  0  0  0  0
  3 22  1  0  0  0  0
  3 23  1  0  0  0  0
  4  5  1  0  0  0  0
  4 24  1  0  0  0  0
  4 25  1  0  0  0  0
  5  6  1  0  0  0  0
  5 26  1  0  0  0  0
  5 27  1  0  0  0  0
  6  7  1  0  0  0  0
  6  8  1  0  0  0  0
  6 28  1  0  0  0  0
  7 29  1  0  0  0  0
  7 30  1  0  0  0  0
  7 31  1  0  0  0  0
  8  9  1  0  0  0  0
  8 32  1  0  0  0  0
  9 10  1  0  0  0  0
  9 33  1  0  0  0  0
 10 11  2  0  0  0  0
 10 12  1  0  0  0  0
 12 13  1  0  0  0  0
 12 34  1  0  0  0  0
 13 17  1  0  0  0  0
 13 14  2  0  0  0  0
 14 15  1  0  0  0  0
 15 16  2  0  0  0  0
 16 17  1  0  0  0  0
 16 35  1  0  0  0  0
M  END
> <s_m_source_file>
AV-unprocessed.smi

> <i_m_source_file_index>
788

> <i_lp_mmshare_version>
43012

> <i_f3d_flags>
0

> <s_epik_input>
W0NIM11bQ0BASF0xW0NIMl1bQ0gyXVtDSDJdW0NAQEhdKFtDSDNdKVtDQEhdMVtOSF1DKD1PKVtOSF1jMm5uW2NIXXMy

> <s_epik_cmdline>
J2VwaWtfcHl0aG9uJywgJy1waCcsICc3LjAnLCAnLXRuJywgJzgnLCAnLW1hJywgJzIwMCcsICctbWV0YWxfYmluZGluZycsICctaW1hZScsICc8aW5maWxlLm1hZT4nLCAnLW9tYWUnLCAnPG91dGZpbGUubWFlPic=

> <r_lp_tautomer_probability>
1

> <r_epik_Ionization_Penalty>
0.000304078

> <r_epik_Ionization_Penalty_Charging>
0

> <r_epik_Ionization_Penalty_Neutral>
0.000304078

> <r_epik_State_Penalty>
-0

> <r_epik_Charging_Adjusted_Penalty>
0

> <i_epik_Tot_Q>
0

> <i_epik_Tot_abs_Q>
0

> <r_epik_Metal_State_Penalty>
0.164801

> <b_epik_Metal_Only>
0

> <s_lp_Force_Field>
OPLS_2005

> <r_lp_Energy>
15.5702

> <b_lp_Chiralities_Consistent>
1

> <s_lp_Variant>
AV-unprocessed.smi:788-1

> <Gold.Version>
5.8.1

> <Gold.Id.Protein>
6NUR|6NUR_protein|mol2

> <Gold.PLP.Fitness>
34.1227

> <Gold.PLP.PLP>
-26.2707

> <Gold.PLP.part.hbond>
-1.7977

> <Gold.PLP.part.metal>
0.0000

> <Gold.PLP.part.buried>
-0.9096

> <Gold.PLP.part.nonpolar>
-23.2187

> <Gold.PLP.part.repulsive>
0.4111

> <Gold.PLP.ligand.clash>
0.0000

> <Gold.PLP.ligand.torsion>
0.0087

> <Gold.PLP.Chemscore.Hbond>
1.6183

> <Gold.PLP.Chemscore.CHOScore>
1.0000

> <Gold.PLP.Chemscore.Metal>
0.0000

> <Gold.Chemscore.Hbonds>
donor molecule, donor type, donor heavy atom, donor atom, acceptor molecule, acceptor atom, score
      L1  H     9    33       P1  7948  0.62
      L1  H    12    34       P1  7948  0.98
      L1  C    16    35       P1 10186  1.00

> <Gold.PLP.Chemscore.Internal.Correction>
0.0145

> <Gold.Rescore>
     Score         DG    S(hbond)    S(metal)    S(lipo)     H(rot)  DE(clash)    DE(int)     intcor
     14.23     -15.94       1.63        0.00      64.77       1.00       0.48       1.23       ----

> <Gold.Chemscore.Fitness>
14.2324

> <Gold.Chemscore.DG>
-15.9423

> <Gold.Chemscore.ZeroCoef>
-5.4800

> <Gold.Chemscore.Hbond>
1.6302

> <Gold.Chemscore.Metal>
0.0000

> <Gold.Chemscore.Lipo>
64.7651

> <Gold.Chemscore.Internal_Hbond>
0.0000

> <Gold.Chemscore.DEClash>
0.4753

> <Gold.Chemscore.DEInternal>
1.2346

> <Gold.Chemscore.Rot>
1.0000

> <Gold.Chemscore.Internal.Correction>
   9.000000E+99

> <Gold.Chemscore.Hbonds>
donor molecule, donor type, donor heavy atom, donor atom, acceptor molecule, acceptor atom, score
      L1  H     9    33       P1  7948  0.59
      L1  H    12    34       P1  7948  0.89

> <Gold.Chemscore.Hbond.Weighted>
-5.4448

> <Gold.Chemscore.Metal.Weighted>
-0.0000

> <Gold.Chemscore.Lipo.Weighted>
-7.5775

> <Gold.Chemscore.Internal_Hbond.Weighted>
0.0000

> <Gold.Chemscore.DEClash.Weighted>
0.4753

> <Gold.Chemscore.DEInternal.Weighted>
1.2346

> <Gold.Chemscore.Rot.Weighted>
2.5600

> <Gold.Chemscore.Internal.Correction.Weighted>
   9.000000E+99

> <Gold.Protein.RotatedTorsions>
[ 6907 6896 6895 6894 ] final   -1.05 input  -60.11 | X-H torsion
[ 7974 7965 7964 7962 ] final  178.22 input  175.53 | X-H torsion
[ 8008 7997 7996 7995 ] final   51.04 input   59.86 | X-H torsion
[ 10167 10162 10161 10158 ] final -101.67 input  -65.29 | X-H torsion
[ 10718 10713 10712 10709 ] final   21.80 input   66.30 | X-H torsion
[ 10763 10752 10751 10750 ] final  142.81 input  -60.55 | X-H torsion
[ 11005 11000 10999 10996 ] final   19.28 input  -57.11 | X-H torsion

> <Gold.Protein.ActiveResidues>
 VAL166  LYS551  ARG553  GLY616  TRP617  ASP618  TYR619  PRO620  LYS621  CYS622 
 ASP623  PHE694  ASN695  SER759  ASP760  ASP761  ALA762  ILE779  LEU786  VAL792 
 PHE793  MET794  SER795  GLU796  ALA797  LYS798  CYS799  TRP800  GLU811  SER814 

> <Gold.Protein.RotatedAtoms>
  151.5524  135.1067  159.9952 H   0  0  0  0  0  0  0  0  0  0  0  0  # atno 6907 bound_to 6896
  152.4485  133.7579  159.6741 H   0  0  0  0  0  0  0  0  0  0  0  0  # atno 6908 bound_to 6896
  150.8407  133.7873  159.3086 H   0  0  0  0  0  0  0  0  0  0  0  0  # atno 6909 bound_to 6896
  144.7159  140.0365  143.6438 H   0  0  0  0  0  0  0  0  0  0  0  0  # atno 7974 bound_to 7965
  155.4287  140.3449  155.4278 H   0  0  0  0  0  0  0  0  0  0  0  0  # atno 8008 bound_to 7997
  156.1349  140.1525  156.9040 H   0  0  0  0  0  0  0  0  0  0  0  0  # atno 8009 bound_to 7997
  154.4924  140.0837  156.7604 H   0  0  0  0  0  0  0  0  0  0  0  0  # atno 8010 bound_to 7997
  140.2388  143.3553  152.0820 H   0  0  0  0  0  0  0  0  0  0  0  0  # atno 10167 bound_to 10162
  157.1435  130.6643  149.5988 H   0  0  0  0  0  0  0  0  0  0  0  0  # atno 10718 bound_to 10713
  153.9620  135.2959  155.3433 H   0  0  0  0  0  0  0  0  0  0  0  0  # atno 10763 bound_to 10752
  154.7369  135.5042  153.9060 H   0  0  0  0  0  0  0  0  0  0  0  0  # atno 10764 bound_to 10752
  153.0942  135.6716  153.9906 H   0  0  0  0  0  0  0  0  0  0  0  0  # atno 10765 bound_to 10752
  140.4155  134.1574  155.7669 H   0  0  0  0  0  0  0  0  0  0  0  0  # atno 11005 bound_to 11000
  146.0059  139.3129  143.0900 LP  0  0  0  0  0  0  0  0  0  0  0  0  # atno 17320 bound_to 7965
  145.8739  140.9403  143.0636 LP  0  0  0  0  0  0  0  0  0  0  0  0  # atno 17321 bound_to 7965
  139.5084  144.6850  151.5912 LP  0  0  0  0  0  0  0  0  0  0  0  0  # atno 17342 bound_to 10162
  140.6129  143.9402  150.6467 LP  0  0  0  0  0  0  0  0  0  0  0  0  # atno 17343 bound_to 10162
  155.9784  130.4769  150.6653 LP  0  0  0  0  0  0  0  0  0  0  0  0  # atno 17370 bound_to 10713
  157.4286  131.0846  151.1061 LP  0  0  0  0  0  0  0  0  0  0  0  0  # atno 17371 bound_to 10713
  141.1805  133.8425  157.1275 LP  0  0  0  0  0  0  0  0  0  0  0  0  # atno 17394 bound_to 11000
  140.0237  134.9934  157.0643 LP  0  0  0  0  0  0  0  0  0  0  0  0  # atno 17395 bound_to 11000

$$$$
