AV-unprocessed.smi:1865|AV-procd|sdf|7554|dock8
  -GOLD-   22720 9273D 1   1.00000     0.00000
 Structure written by MMmdl.
 40 41  0  0  0  0  0  0  0  0  1 V2000
  155.4399  139.6989  160.7350 O   0  0  0  0  0  0  0  0  0  0  0  0
  154.8697  140.6431  161.2822 C   0  0  0  0  0  0  0  0  0  0  0  0
  154.3187  141.8065  160.4518 C   0  0  0  0  0  0  0  0  0  0  0  0
  152.8678  142.1731  160.8181 C   0  0  0  0  0  0  0  0  0  0  0  0
  152.1483  142.9640  159.7109 C   0  0  0  0  0  0  0  0  0  0  0  0
  153.0893  143.8259  158.8671 C   0  0  0  0  0  0  0  0  0  0  0  0
  152.1699  144.8334  158.1729 C   0  0  0  0  0  0  0  0  0  0  0  0
  150.9599  145.0117  159.1016 C   0  0  0  0  0  0  0  0  0  0  0  0
  151.1162  143.9755  160.2227 C   0  0  0  0  0  0  0  0  0  0  0  0
  154.6993  140.7284  162.6105 N   0  0  0  0  0  0  0  0  0  0  0  0
  155.1621  139.7426  163.5802 C   0  0  0  0  0  0  0  0  0  0  0  0
  155.8138  140.4090  164.8029 C   0  0  0  0  0  0  0  0  0  0  0  0
  154.8379  140.5660  165.9523 C   0  0  0  0  0  0  0  0  0  0  0  0
  154.9322  139.7524  167.1000 C   0  0  0  0  0  0  0  0  0  0  0  0
  153.9980  139.9335  168.1381 C   0  0  0  0  0  0  0  0  0  0  0  0
  153.0064  140.9227  167.9830 C   0  0  0  0  0  0  0  0  0  0  0  0
  152.9060  141.7067  166.8878 N   0  0  0  0  0  0  0  0  0  0  0  0
  153.8059  141.5269  165.8972 C   0  0  0  0  0  0  0  0  0  0  0  0
  154.9594  142.6799  160.5840 H   0  0  0  0  0  0  0  0  0  0  0  0
  154.3816  141.5286  159.3994 H   0  0  0  0  0  0  0  0  0  0  0  0
  152.2992  141.2703  161.0465 H   0  0  0  0  0  0  0  0  0  0  0  0
  152.8704  142.7700  161.7316 H   0  0  0  0  0  0  0  0  0  0  0  0
  151.6444  142.2643  159.0416 H   0  0  0  0  0  0  0  0  0  0  0  0
  153.7895  144.3569  159.5138 H   0  0  0  0  0  0  0  0  0  0  0  0
  153.6737  143.2386  158.1583 H   0  0  0  0  0  0  0  0  0  0  0  0
  152.6788  145.7762  157.9701 H   0  0  0  0  0  0  0  0  0  0  0  0
  151.8377  144.4286  157.2160 H   0  0  0  0  0  0  0  0  0  0  0  0
  150.9157  146.0211  159.5122 H   0  0  0  0  0  0  0  0  0  0  0  0
  150.0352  144.8449  158.5481 H   0  0  0  0  0  0  0  0  0  0  0  0
  150.1676  143.5056  160.4839 H   0  0  0  0  0  0  0  0  0  0  0  0
  151.4937  144.4698  161.1190 H   0  0  0  0  0  0  0  0  0  0  0  0
  154.2213  141.5391  162.9765 H   0  0  0  0  0  0  0  0  0  0  0  0
  154.3318  139.1041  163.8879 H   0  0  0  0  0  0  0  0  0  0  0  0
  155.8840  139.0944  163.0825 H   0  0  0  0  0  0  0  0  0  0  0  0
  156.6696  139.8215  165.1384 H   0  0  0  0  0  0  0  0  0  0  0  0
  156.2016  141.3936  164.5374 H   0  0  0  0  0  0  0  0  0  0  0  0
  155.7044  139.0019  167.1845 H   0  0  0  0  0  0  0  0  0  0  0  0
  154.0398  139.3288  169.0319 H   0  0  0  0  0  0  0  0  0  0  0  0
  152.2739  141.0883  168.7591 H   0  0  0  0  0  0  0  0  0  0  0  0
  153.6977  142.1675  165.0343 H   0  0  0  0  0  0  0  0  0  0  0  0
  1  2  2  0  0  0  0
  2  3  1  0  0  0  0
  2 10  1  0  0  0  0
  3  4  1  0  0  0  0
  3 19  1  0  0  0  0
  3 20  1  0  0  0  0
  4  5  1  0  0  0  0
  4 21  1  0  0  0  0
  4 22  1  0  0  0  0
  5  9  1  0  0  0  0
  5  6  1  0  0  0  0
  5 23  1  0  0  0  0
  6  7  1  0  0  0  0
  6 24  1  0  0  0  0
  6 25  1  0  0  0  0
  7  8  1  0  0  0  0
  7 26  1  0  0  0  0
  7 27  1  0  0  0  0
  8  9  1  0  0  0  0
  8 28  1  0  0  0  0
  8 29  1  0  0  0  0
  9 30  1  0  0  0  0
  9 31  1  0  0  0  0
 10 11  1  0  0  0  0
 10 32  1  0  0  0  0
 11 12  1  0  0  0  0
 11 33  1  0  0  0  0
 11 34  1  0  0  0  0
 12 13  1  0  0  0  0
 12 35  1  0  0  0  0
 12 36  1  0  0  0  0
 13 18  1  0  0  0  0
 13 14  2  0  0  0  0
 14 15  1  0  0  0  0
 14 37  1  0  0  0  0
 15 16  2  0  0  0  0
 15 38  1  0  0  0  0
 16 17  1  0  0  0  0
 16 39  1  0  0  0  0
 17 18  2  0  0  0  0
 18 40  1  0  0  0  0
M  END
> <s_m_source_file>
AV-unprocessed.smi

> <i_m_source_file_index>
1865

> <i_lp_mmshare_version>
43012

> <i_f3d_flags>
0

> <s_epik_input>
W0NIMl0xW0NIMl1bQ0gyXVtDSDJdW0NIXTFbQ0gyXVtDSDJdQyg9TylbTkhdW0NIMl1bQ0gyXWMyW2NIXVtjSF1bY0hdbltjSF0y

> <s_epik_cmdline>
J2VwaWtfcHl0aG9uJywgJy1waCcsICc3LjAnLCAnLXRuJywgJzgnLCAnLW1hJywgJzIwMCcsICctbWV0YWxfYmluZGluZycsICctaW1hZScsICc8aW5maWxlLm1hZT4nLCAnLW9tYWUnLCAnPG91dGZpbGUubWFlPic=

> <r_epik_Ionization_Penalty>
0.0133844

> <r_epik_Ionization_Penalty_Charging>
0

> <r_epik_Ionization_Penalty_Neutral>
0.0133844

> <r_epik_State_Penalty>
0.0104136

> <r_epik_Charging_Adjusted_Penalty>
0.0104136

> <i_epik_Tot_Q>
0

> <i_epik_Tot_abs_Q>
0

> <r_epik_Metal_State_Penalty>
0.0101831

> <b_epik_Metal_Only>
0

> <s_lp_Force_Field>
OPLS_2005

> <r_lp_Energy>
19.5978

> <b_lp_Chiralities_Consistent>
1

> <s_lp_Variant>
AV-unprocessed.smi:1865-1

> <Gold.Version>
5.8.1

> <Gold.Id.Protein>
6NUR|6NUR_protein|mol2

> <Gold.PLP.Fitness>
45.4459

> <Gold.PLP.PLP>
-47.6198

> <Gold.PLP.part.hbond>
-2.0000

> <Gold.PLP.part.metal>
0.0000

> <Gold.PLP.part.buried>
-6.2855

> <Gold.PLP.part.nonpolar>
-39.1878

> <Gold.PLP.part.repulsive>
0.0654

> <Gold.PLP.ligand.clash>
0.0000

> <Gold.PLP.ligand.torsion>
1.1061

> <Gold.PLP.Chemscore.Hbond>
0.0000

> <Gold.PLP.Chemscore.CHOScore>
0.0000

> <Gold.PLP.Chemscore.Metal>
0.0000

> <Gold.PLP.Chemscore.Internal.Correction>
0.0383

> <Gold.Rescore>
     Score         DG    S(hbond)    S(metal)    S(lipo)     H(rot)  DE(clash)    DE(int)     intcor
     15.86     -16.97       0.00        0.00     132.39       1.56       0.49       0.62       ----

> <Gold.Chemscore.Fitness>
15.8610

> <Gold.Chemscore.DG>
-16.9722

> <Gold.Chemscore.ZeroCoef>
-5.4800

> <Gold.Chemscore.Hbond>
0.0000

> <Gold.Chemscore.Metal>
0.0000

> <Gold.Chemscore.Lipo>
132.3872

> <Gold.Chemscore.Internal_Hbond>
0.0000

> <Gold.Chemscore.DEClash>
0.4925

> <Gold.Chemscore.DEInternal>
0.6187

> <Gold.Chemscore.Rot>
1.5614

> <Gold.Chemscore.Internal.Correction>
   9.000000E+99

> <Gold.Chemscore.Hbond.Weighted>
-0.0000

> <Gold.Chemscore.Metal.Weighted>
-0.0000

> <Gold.Chemscore.Lipo.Weighted>
-15.4893

> <Gold.Chemscore.Internal_Hbond.Weighted>
0.0000

> <Gold.Chemscore.DEClash.Weighted>
0.4925

> <Gold.Chemscore.DEInternal.Weighted>
0.6187

> <Gold.Chemscore.Rot.Weighted>
3.9971

> <Gold.Chemscore.Internal.Correction.Weighted>
   9.000000E+99

> <Gold.Protein.RotatedTorsions>
[ 6907 6896 6895 6894 ] final  175.13 input  -60.11 | X-H torsion
[ 7974 7965 7964 7962 ] final   90.68 input  175.53 | X-H torsion
[ 8008 7997 7996 7995 ] final  -77.22 input   59.86 | X-H torsion
[ 10167 10162 10161 10158 ] final  -19.22 input  -65.29 | X-H torsion
[ 10718 10713 10712 10709 ] final  136.09 input   66.30 | X-H torsion
[ 10763 10752 10751 10750 ] final   71.67 input  -60.55 | X-H torsion
[ 11005 11000 10999 10996 ] final   62.80 input  -57.11 | X-H torsion

> <Gold.Protein.ActiveResidues>
 VAL166  LYS551  ARG553  GLY616  TRP617  ASP618  TYR619  PRO620  LYS621  CYS622 
 ASP623  PHE694  ASN695  SER759  ASP760  ASP761  ALA762  ILE779  LEU786  VAL792 
 PHE793  MET794  SER795  GLU796  ALA797  LYS798  CYS799  TRP800  GLU811  SER814 

> <Gold.Protein.RotatedAtoms>
  151.7412  133.3322  159.3365 H   0  0  0  0  0  0  0  0  0  0  0  0  # atno 6907 bound_to 6896
  150.7573  134.6277  159.6179 H   0  0  0  0  0  0  0  0  0  0  0  0  # atno 6908 bound_to 6896
  152.3529  134.6982  160.0282 H   0  0  0  0  0  0  0  0  0  0  0  0  # atno 6909 bound_to 6896
  145.5158  139.2278  143.2699 H   0  0  0  0  0  0  0  0  0  0  0  0  # atno 7974 bound_to 7965
  154.5576  140.0714  156.8768 H   0  0  0  0  0  0  0  0  0  0  0  0  # atno 8008 bound_to 7997
  155.2873  140.3375  155.4236 H   0  0  0  0  0  0  0  0  0  0  0  0  # atno 8009 bound_to 7997
  156.2015  140.1723  156.7875 H   0  0  0  0  0  0  0  0  0  0  0  0  # atno 8010 bound_to 7997
  140.7266  143.4840  151.0079 H   0  0  0  0  0  0  0  0  0  0  0  0  # atno 10167 bound_to 10162
  157.4503  131.1065  151.0041 H   0  0  0  0  0  0  0  0  0  0  0  0  # atno 10718 bound_to 10713
  153.0413  135.5128  154.7628 H   0  0  0  0  0  0  0  0  0  0  0  0  # atno 10763 bound_to 10752
  154.6564  135.2932  154.9925 H   0  0  0  0  0  0  0  0  0  0  0  0  # atno 10764 bound_to 10752
  154.0791  135.6666  153.4888 H   0  0  0  0  0  0  0  0  0  0  0  0  # atno 10765 bound_to 10752
  140.0067  134.6358  155.9844 H   0  0  0  0  0  0  0  0  0  0  0  0  # atno 11005 bound_to 11000
  146.2137  140.5967  142.9048 LP  0  0  0  0  0  0  0  0  0  0  0  0  # atno 17320 bound_to 7965
  144.7702  140.5621  143.6675 LP  0  0  0  0  0  0  0  0  0  0  0  0  # atno 17321 bound_to 7965
  139.8540  143.7400  152.3177 LP  0  0  0  0  0  0  0  0  0  0  0  0  # atno 17342 bound_to 10162
  139.7593  144.7511  151.0388 LP  0  0  0  0  0  0  0  0  0  0  0  0  # atno 17343 bound_to 10162
  157.0874  130.5928  149.5432 LP  0  0  0  0  0  0  0  0  0  0  0  0  # atno 17370 bound_to 10713
  155.9984  130.5058  150.7570 LP  0  0  0  0  0  0  0  0  0  0  0  0  # atno 17371 bound_to 10713
  141.1682  133.6537  156.4555 LP  0  0  0  0  0  0  0  0  0  0  0  0  # atno 17394 bound_to 11000
  140.4628  134.6825  157.5093 LP  0  0  0  0  0  0  0  0  0  0  0  0  # atno 17395 bound_to 11000

$$$$
