AV-unprocessed.smi:1522|AV-procd|sdf|6137|dock7
  -GOLD-   22720 6283D 1   1.00000     0.00000
 Structure written by MMmdl.
 34 35  0  0  0  0  0  0  0  0  3 V2000
  148.5270  133.2166  154.3056 C   0  0  0  0  0  0  0  0  0  0  0  0
  147.3953  134.2606  154.4444 C   0  0  1  0  0  0  0  0  0  0  0  0
  147.8050  135.3861  155.4237 C   0  0  0  0  0  0  0  0  0  0  0  0
  147.9577  134.8884  156.7852 N   0  0  0  0  0  0  0  0  0  0  0  0
  148.9097  135.2715  157.6450 C   0  0  0  0  0  0  0  0  0  0  0  0
  149.7444  136.1117  157.3015 O   0  0  0  0  0  0  0  0  0  0  0  0
  148.8346  134.6559  158.8461 N   0  5  0  0  0  0  0  0  0  0  0  0
  148.2804  135.2899  159.8925 C   0  0  0  0  0  0  0  0  0  0  0  0
  148.1571  136.6261  159.9391 N   0  0  0  0  0  0  0  0  0  0  0  0
  147.5525  137.0780  161.1043 N   0  0  0  0  0  0  0  0  0  0  0  0
  147.2270  136.0653  161.9072 C   0  0  0  0  0  0  0  0  0  0  0  0
  147.6252  134.4678  161.3116 S   0  0  0  0  0  0  0  0  0  0  0  0
  147.0193  134.8270  153.1167 N   0  3  0  0  0  0  0  0  0  0  0  0
  146.5674  133.8461  152.1055 C   0  0  0  0  0  0  0  0  0  0  0  0
  145.7994  134.6649  151.0747 C   0  0  0  0  0  0  0  0  0  0  0  0
  145.0866  135.7075  151.9279 C   0  0  0  0  0  0  0  0  0  0  0  0
  145.9931  135.9007  153.1516 C   0  0  0  0  0  0  0  0  0  0  0  0
  148.8147  132.8010  155.2714 H   0  0  0  0  0  0  0  0  0  0  0  0
  149.4189  133.6586  153.8602 H   0  0  0  0  0  0  0  0  0  0  0  0
  148.2297  132.3690  153.6888 H   0  0  0  0  0  0  0  0  0  0  0  0
  146.5176  133.7542  154.8497 H   0  0  0  0  0  0  0  0  0  0  0  0
  148.7441  135.8389  155.1011 H   0  0  0  0  0  0  0  0  0  0  0  0
  147.0596  136.1817  155.4435 H   0  0  0  0  0  0  0  0  0  0  0  0
  147.2930  134.1987  157.1036 H   0  0  0  0  0  0  0  0  0  0  0  0
  146.7454  136.2597  162.8538 H   0  0  0  0  0  0  0  0  0  0  0  0
  147.4014  133.3063  151.6559 H   0  0  0  0  0  0  0  0  0  0  0  0
  145.8987  133.1191  152.5700 H   0  0  0  0  0  0  0  0  0  0  0  0
  146.4982  135.1544  150.3949 H   0  0  0  0  0  0  0  0  0  0  0  0
  145.1132  134.0627  150.4784 H   0  0  0  0  0  0  0  0  0  0  0  0
  144.9076  136.6369  151.3864 H   0  0  0  0  0  0  0  0  0  0  0  0
  144.1183  135.3197  152.2473 H   0  0  0  0  0  0  0  0  0  0  0  0
  145.3919  135.8560  154.0609 H   0  0  0  0  0  0  0  0  0  0  0  0
  146.4900  136.8712  153.1287 H   0  0  0  0  0  0  0  0  0  0  0  0
  147.8513  135.2526  152.7333 H   0  0  0  0  0  0  0  0  0  0  0  0
  1  2  1  0  0  0  0
  1 18  1  0  0  0  0
  1 19  1  0  0  0  0
  1 20  1  0  0  0  0
  2  3  1  0  0  0  0
  2 13  1  0  0  0  0
  2 21  1  0  0  0  0
  3  4  1  0  0  0  0
  3 22  1  0  0  0  0
  3 23  1  0  0  0  0
  4  5  1  0  0  0  0
  4 24  1  0  0  0  0
  5  6  2  0  0  0  0
  5  7  1  0  0  0  0
  7  8  1  0  0  0  0
  8 12  1  0  0  0  0
  8  9  2  0  0  0  0
  9 10  1  0  0  0  0
 10 11  2  0  0  0  0
 11 12  1  0  0  0  0
 11 25  1  0  0  0  0
 13 17  1  0  0  0  0
 13 14  1  0  0  0  0
 13 34  1  0  0  0  0
 14 15  1  0  0  0  0
 14 26  1  0  0  0  0
 14 27  1  0  0  0  0
 15 16  1  0  0  0  0
 15 28  1  0  0  0  0
 15 29  1  0  0  0  0
 16 17  1  0  0  0  0
 16 30  1  0  0  0  0
 16 31  1  0  0  0  0
 17 32  1  0  0  0  0
 17 33  1  0  0  0  0
M  CHG  1   7  -1
M  CHG  1  13   1
M  END
> <s_m_source_file>
AV-unprocessed.smi

> <i_m_source_file_index>
1522

> <i_lp_mmshare_version>
43012

> <i_f3d_flags>
0

> <s_epik_input>
W0NIMl0xW0NIMl1bQ0gyXVtDSDJdTjFbQ0BIXShbQ0gzXSlbQ0gyXVtOSF1DKD1PKVtOSF1jMm5uW2NIXXMy

> <s_epik_cmdline>
J2VwaWtfcHl0aG9uJywgJy1waCcsICc3LjAnLCAnLXRuJywgJzgnLCAnLW1hJywgJzIwMCcsICctbWV0YWxfYmluZGluZycsICctaW1hZScsICc8aW5maWxlLm1hZT4nLCAnLW9tYWUnLCAnPG91dGZpbGUubWFlPic=

> <r_lp_tautomer_probability>
1

> <r_epik_Ionization_Penalty>
3.04208

> <r_epik_Ionization_Penalty_Charging>
3.00964

> <r_epik_Ionization_Penalty_Neutral>
0.0324455

> <r_epik_State_Penalty>
3.0051

> <r_epik_Charging_Adjusted_Penalty>
6.01474

> <i_epik_Tot_Q>
0

> <i_epik_Tot_abs_Q>
2

> <r_epik_Metal_State_Penalty>
0.454155

> <b_epik_Metal_Only>
1

> <s_lp_Force_Field>
OPLS_2005

> <r_lp_Energy>
23.3187

> <b_lp_Chiralities_Consistent>
1

> <s_lp_Variant>
AV-unprocessed.smi:1522-4

> <Gold.Version>
5.8.1

> <Gold.Id.Protein>
6NUR|6NUR_protein|mol2

> <Gold.PLP.Fitness>
38.1301

> <Gold.PLP.PLP>
-22.5273

> <Gold.PLP.part.hbond>
-4.0000

> <Gold.PLP.part.metal>
0.0000

> <Gold.PLP.part.buried>
-3.0873

> <Gold.PLP.part.nonpolar>
-15.3243

> <Gold.PLP.part.repulsive>
0.0095

> <Gold.PLP.ligand.clash>
0.0000

> <Gold.PLP.ligand.torsion>
1.0216

> <Gold.PLP.Chemscore.Hbond>
5.8560

> <Gold.PLP.Chemscore.CHOScore>
0.0000

> <Gold.PLP.Chemscore.Metal>
0.0000

> <Gold.Chemscore.Hbonds>
donor molecule, donor type, donor heavy atom, donor atom, acceptor molecule, acceptor atom, score
      L1  H    13    34       P1  7948  2.00
      P1  H  6896  6908       L1     7  2.00
      P1  H  6931  6943       L1    10  0.91
      P1  H  6934  6947       L1    10  0.96

> <Gold.PLP.Chemscore.Internal.Correction>
0.0781

> <Gold.Rescore>
     Score         DG    S(hbond)    S(metal)    S(lipo)     H(rot)  DE(clash)    DE(int)     intcor
     14.07     -15.08       2.63        0.00      43.71       1.68       0.00       1.01       ----

> <Gold.Chemscore.Fitness>
14.0717

> <Gold.Chemscore.DG>
-15.0840

> <Gold.Chemscore.ZeroCoef>
-5.4800

> <Gold.Chemscore.Hbond>
2.6290

> <Gold.Chemscore.Metal>
0.0000

> <Gold.Chemscore.Lipo>
43.7097

> <Gold.Chemscore.Internal_Hbond>
0.0000

> <Gold.Chemscore.DEClash>
0.0021

> <Gold.Chemscore.DEInternal>
1.0101

> <Gold.Chemscore.Rot>
1.6762

> <Gold.Chemscore.Internal.Correction>
   9.000000E+99

> <Gold.Chemscore.Hbonds>
donor molecule, donor type, donor heavy atom, donor atom, acceptor molecule, acceptor atom, score
      L1  H    13    34       P1  7948  1.00
      P1  H  6896  6908       L1     7  0.26
      P1  H  6931  6943       L1    10  0.23
      P1  H  6934  6947       L1    10  0.63

> <Gold.Chemscore.Hbond.Weighted>
-8.7809

> <Gold.Chemscore.Metal.Weighted>
-0.0000

> <Gold.Chemscore.Lipo.Weighted>
-5.1140

> <Gold.Chemscore.Internal_Hbond.Weighted>
0.0000

> <Gold.Chemscore.DEClash.Weighted>
0.0021

> <Gold.Chemscore.DEInternal.Weighted>
1.0101

> <Gold.Chemscore.Rot.Weighted>
4.2910

> <Gold.Chemscore.Internal.Correction.Weighted>
   9.000000E+99

> <Gold.Protein.RotatedTorsions>
[ 6907 6896 6895 6894 ] final  151.46 input  -60.11 | X-H torsion
[ 7974 7965 7964 7962 ] final -112.40 input  175.53 | X-H torsion
[ 8008 7997 7996 7995 ] final  159.92 input   59.86 | X-H torsion
[ 10167 10162 10161 10158 ] final -150.70 input  -65.29 | X-H torsion
[ 10718 10713 10712 10709 ] final  -50.24 input   66.30 | X-H torsion
[ 10763 10752 10751 10750 ] final   60.33 input  -60.55 | X-H torsion
[ 11005 11000 10999 10996 ] final   45.39 input  -57.11 | X-H torsion

> <Gold.Protein.ActiveResidues>
 VAL166  LYS551  ARG553  GLY616  TRP617  ASP618  TYR619  PRO620  LYS621  CYS622 
 ASP623  PHE694  ASN695  SER759  ASP760  ASP761  ALA762  ILE779  LEU786  VAL792 
 PHE793  MET794  SER795  GLU796  ALA797  LYS798  CYS799  TRP800  GLU811  SER814 

> <Gold.Protein.RotatedAtoms>
  152.1003  133.4246  159.4583 H   0  0  0  0  0  0  0  0  0  0  0  0  # atno 6907 bound_to 6896
  150.6864  134.2768  159.4620 H   0  0  0  0  0  0  0  0  0  0  0  0  # atno 6908 bound_to 6896
  152.0628  134.9583  160.0625 H   0  0  0  0  0  0  0  0  0  0  0  0  # atno 6909 bound_to 6896
  145.1444  140.8795  143.3683 H   0  0  0  0  0  0  0  0  0  0  0  0  # atno 7974 bound_to 7965
  156.2207  140.1818  156.7483 H   0  0  0  0  0  0  0  0  0  0  0  0  # atno 8008 bound_to 7997
  154.5861  140.0658  156.9202 H   0  0  0  0  0  0  0  0  0  0  0  0  # atno 8009 bound_to 7997
  155.2417  140.3322  155.4294 H   0  0  0  0  0  0  0  0  0  0  0  0  # atno 8010 bound_to 7997
  139.7332  143.8776  152.2541 H   0  0  0  0  0  0  0  0  0  0  0  0  # atno 10167 bound_to 10162
  156.1819  130.4150  149.9494 H   0  0  0  0  0  0  0  0  0  0  0  0  # atno 10718 bound_to 10713
  152.9918  135.5540  154.5857 H   0  0  0  0  0  0  0  0  0  0  0  0  # atno 10763 bound_to 10752
  154.5229  135.2809  155.1249 H   0  0  0  0  0  0  0  0  0  0  0  0  # atno 10764 bound_to 10752
  154.2595  135.6384  153.5322 H   0  0  0  0  0  0  0  0  0  0  0  0  # atno 10765 bound_to 10752
  140.1464  134.4517  155.8412 H   0  0  0  0  0  0  0  0  0  0  0  0  # atno 11005 bound_to 11000
  145.0497  139.3191  143.5935 LP  0  0  0  0  0  0  0  0  0  0  0  0  # atno 17320 bound_to 7965
  146.3501  139.9901  142.8686 LP  0  0  0  0  0  0  0  0  0  0  0  0  # atno 17321 bound_to 7965
  139.8705  144.7070  150.8993 LP  0  0  0  0  0  0  0  0  0  0  0  0  # atno 17342 bound_to 10162
  140.7774  143.3742  151.1594 LP  0  0  0  0  0  0  0  0  0  0  0  0  # atno 17343 bound_to 10162
  156.7262  130.9026  151.3622 LP  0  0  0  0  0  0  0  0  0  0  0  0  # atno 17370 bound_to 10713
  157.6874  130.9199  150.0422 LP  0  0  0  0  0  0  0  0  0  0  0  0  # atno 17371 bound_to 10713
  141.2193  133.6854  156.7342 LP  0  0  0  0  0  0  0  0  0  0  0  0  # atno 17394 bound_to 11000
  140.2658  134.8431  157.3801 LP  0  0  0  0  0  0  0  0  0  0  0  0  # atno 17395 bound_to 11000

$$$$
