AV-unprocessed.smi:1429|AV-procd|sdf|5819|dock3
  -GOLD-   22720 5473D 1   1.00000     0.00000
 Structure written by MMmdl.
 30 31  0  0  0  0  0  0  0  0  1 V2000
  146.6376  138.6541  152.5924 C   0  0  0  0  0  0  0  0  0  0  0  0
  147.5735  139.4093  153.4730 C   0  0  0  0  0  0  0  0  0  0  0  0
  148.5204  138.8131  154.2079 N   0  0  0  0  0  0  0  0  0  0  0  0
  149.2647  139.7234  154.9453 N   0  0  0  0  0  0  0  0  0  0  0  0
  148.8551  140.9835  154.7442 C   0  0  0  0  0  0  0  0  0  0  0  0
  149.4427  142.1142  155.3705 N   0  0  0  0  0  0  0  0  0  0  0  0
  150.5372  142.1599  156.1501 C   0  0  0  0  0  0  0  0  0  0  0  0
  151.2227  141.1893  156.4722 O   0  0  0  0  0  0  0  0  0  0  0  0
  150.8037  143.4155  156.5380 N   0  0  0  0  0  0  0  0  0  0  0  0
  151.9357  143.8241  157.3643 C   0  0  0  0  0  0  0  0  0  0  0  0
  151.4896  144.2258  158.7826 C   0  0  1  0  0  0  0  0  0  0  0  0
  152.2410  143.5133  159.8884 C   0  0  0  0  0  0  0  0  0  0  0  0
  151.9447  144.3985  161.0961 C   0  0  0  0  0  0  0  0  0  0  0  0
  151.7684  145.7161  160.5830 O   0  0  0  0  0  0  0  0  0  0  0  0
  151.7465  145.6860  159.1595 C   0  0  0  0  0  0  0  0  0  0  0  0
  147.5128  141.1608  153.6271 S   0  0  0  0  0  0  0  0  0  0  0  0
  146.9047  137.5972  152.5615 H   0  0  0  0  0  0  0  0  0  0  0  0
  146.6760  139.0531  151.5788 H   0  0  0  0  0  0  0  0  0  0  0  0
  145.6184  138.7465  152.9678 H   0  0  0  0  0  0  0  0  0  0  0  0
  148.9820  142.9944  155.1928 H   0  0  0  0  0  0  0  0  0  0  0  0
  150.1841  144.1494  156.2268 H   0  0  0  0  0  0  0  0  0  0  0  0
  152.6210  142.9785  157.4261 H   0  0  0  0  0  0  0  0  0  0  0  0
  152.4942  144.6333  156.8903 H   0  0  0  0  0  0  0  0  0  0  0  0
  150.4250  144.0154  158.8995 H   0  0  0  0  0  0  0  0  0  0  0  0
  151.9192  142.4814  160.0307 H   0  0  0  0  0  0  0  0  0  0  0  0
  153.3124  143.5113  159.6818 H   0  0  0  0  0  0  0  0  0  0  0  0
  151.0162  144.0881  161.5768 H   0  0  0  0  0  0  0  0  0  0  0  0
  152.7398  144.3637  161.8415 H   0  0  0  0  0  0  0  0  0  0  0  0
  152.7211  146.0134  158.7944 H   0  0  0  0  0  0  0  0  0  0  0  0
  150.9909  146.3625  158.7594 H   0  0  0  0  0  0  0  0  0  0  0  0
  1  2  1  0  0  0  0
  1 17  1  0  0  0  0
  1 18  1  0  0  0  0
  1 19  1  0  0  0  0
  2 16  1  0  0  0  0
  2  3  2  0  0  0  0
  3  4  1  0  0  0  0
  4  5  2  0  0  0  0
  5  6  1  0  0  0  0
  5 16  1  0  0  0  0
  6  7  1  0  0  0  0
  6 20  1  0  0  0  0
  7  8  2  0  0  0  0
  7  9  1  0  0  0  0
  9 10  1  0  0  0  0
  9 21  1  0  0  0  0
 10 11  1  0  0  0  0
 10 22  1  0  0  0  0
 10 23  1  0  0  0  0
 11 15  1  0  0  0  0
 11 12  1  0  0  0  0
 11 24  1  0  0  0  0
 12 13  1  0  0  0  0
 12 25  1  0  0  0  0
 12 26  1  0  0  0  0
 13 14  1  0  0  0  0
 13 27  1  0  0  0  0
 13 28  1  0  0  0  0
 14 15  1  0  0  0  0
 15 29  1  0  0  0  0
 15 30  1  0  0  0  0
M  END
> <s_m_source_file>
AV-unprocessed.smi

> <i_m_source_file_index>
1429

> <i_lp_mmshare_version>
43012

> <i_f3d_flags>
0

> <s_epik_input>
W0NIM11jMW5uYyhzMSlbTkhdQyg9TylbTkhdW0NIMl1bQ0BASF0yW0NIMl1bQ0gyXU9bQ0gyXTI=

> <s_epik_cmdline>
J2VwaWtfcHl0aG9uJywgJy1waCcsICc3LjAnLCAnLXRuJywgJzgnLCAnLW1hJywgJzIwMCcsICctbWV0YWxfYmluZGluZycsICctaW1hZScsICc8aW5maWxlLm1hZT4nLCAnLW9tYWUnLCAnPG91dGZpbGUubWFlPic=

> <r_lp_tautomer_probability>
1

> <r_epik_Ionization_Penalty>
0.000468089

> <r_epik_Ionization_Penalty_Charging>
0

> <r_epik_Ionization_Penalty_Neutral>
0.000468089

> <r_epik_State_Penalty>
-0

> <r_epik_Charging_Adjusted_Penalty>
0

> <i_epik_Tot_Q>
0

> <i_epik_Tot_abs_Q>
0

> <r_epik_Metal_State_Penalty>
0.211262

> <b_epik_Metal_Only>
0

> <s_lp_Force_Field>
OPLS_2005

> <r_lp_Energy>
17.5985

> <b_lp_Chiralities_Consistent>
1

> <s_lp_Variant>
AV-unprocessed.smi:1429-2

> <Gold.Version>
5.8.1

> <Gold.Id.Protein>
6NUR|6NUR_protein|mol2

> <Gold.PLP.Fitness>
38.6373

> <Gold.PLP.PLP>
-34.2383

> <Gold.PLP.part.hbond>
-2.0000

> <Gold.PLP.part.metal>
0.0000

> <Gold.PLP.part.buried>
-4.6674

> <Gold.PLP.part.nonpolar>
-28.5068

> <Gold.PLP.part.repulsive>
0.7927

> <Gold.PLP.ligand.clash>
0.0000

> <Gold.PLP.ligand.torsion>
0.8035

> <Gold.PLP.Chemscore.Hbond>
2.0000

> <Gold.PLP.Chemscore.CHOScore>
0.0000

> <Gold.PLP.Chemscore.Metal>
0.0000

> <Gold.Chemscore.Hbonds>
donor molecule, donor type, donor heavy atom, donor atom, acceptor molecule, acceptor atom, score
      L1  H     6    20       P1  8028  0.93
      L1  H     9    21       P1  8028  0.94

> <Gold.PLP.Chemscore.Internal.Correction>
0.0060

> <Gold.Rescore>
     Score         DG    S(hbond)    S(metal)    S(lipo)     H(rot)  DE(clash)    DE(int)     intcor
     15.80     -18.25       1.95        0.00      82.09       1.31       0.42       2.03       ----

> <Gold.Chemscore.Fitness>
15.7964

> <Gold.Chemscore.DG>
-18.2454

> <Gold.Chemscore.ZeroCoef>
-5.4800

> <Gold.Chemscore.Hbond>
1.9524

> <Gold.Chemscore.Metal>
0.0000

> <Gold.Chemscore.Lipo>
82.0903

> <Gold.Chemscore.Internal_Hbond>
0.0000

> <Gold.Chemscore.DEClash>
0.4201

> <Gold.Chemscore.DEInternal>
2.0290

> <Gold.Chemscore.Rot>
1.3125

> <Gold.Chemscore.Internal.Correction>
   9.000000E+99

> <Gold.Chemscore.Hbonds>
donor molecule, donor type, donor heavy atom, donor atom, acceptor molecule, acceptor atom, score
      L1  H     6    20       P1  8028  0.90
      L1  H     9    21       P1  8028  0.89

> <Gold.Chemscore.Hbond.Weighted>
-6.5209

> <Gold.Chemscore.Metal.Weighted>
-0.0000

> <Gold.Chemscore.Lipo.Weighted>
-9.6046

> <Gold.Chemscore.Internal_Hbond.Weighted>
0.0000

> <Gold.Chemscore.DEClash.Weighted>
0.4201

> <Gold.Chemscore.DEInternal.Weighted>
2.0290

> <Gold.Chemscore.Rot.Weighted>
3.3600

> <Gold.Chemscore.Internal.Correction.Weighted>
   9.000000E+99

> <Gold.Protein.RotatedTorsions>
[ 6907 6896 6895 6894 ] final  -24.21 input  -60.11 | X-H torsion
[ 7974 7965 7964 7962 ] final -168.27 input  175.53 | X-H torsion
[ 8008 7997 7996 7995 ] final  -38.55 input   59.86 | X-H torsion
[ 10167 10162 10161 10158 ] final -164.05 input  -65.29 | X-H torsion
[ 10718 10713 10712 10709 ] final -146.38 input   66.30 | X-H torsion
[ 10763 10752 10751 10750 ] final -134.04 input  -60.55 | X-H torsion
[ 11005 11000 10999 10996 ] final  137.26 input  -57.11 | X-H torsion

> <Gold.Protein.ActiveResidues>
 VAL166  LYS551  ARG553  GLY616  TRP617  ASP618  TYR619  PRO620  LYS621  CYS622 
 ASP623  PHE694  ASN695  SER759  ASP760  ASP761  ALA762  ILE779  LEU786  VAL792 
 PHE793  MET794  SER795  GLU796  ALA797  LYS798  CYS799  TRP800  GLU811  SER814 

> <Gold.Protein.RotatedAtoms>
  151.1928  135.0409  159.8839 H   0  0  0  0  0  0  0  0  0  0  0  0  # atno 6907 bound_to 6896
  152.5438  134.0937  159.8298 H   0  0  0  0  0  0  0  0  0  0  0  0  # atno 6908 bound_to 6896
  151.1068  133.5155  159.2639 H   0  0  0  0  0  0  0  0  0  0  0  0  # atno 6909 bound_to 6896
  144.7206  140.2395  143.6293 H   0  0  0  0  0  0  0  0  0  0  0  0  # atno 7974 bound_to 7965
  154.4035  140.1575  156.2718 H   0  0  0  0  0  0  0  0  0  0  0  0  # atno 8008 bound_to 7997
  155.8946  140.3436  155.5959 H   0  0  0  0  0  0  0  0  0  0  0  0  # atno 8009 bound_to 7997
  155.7518  140.0806  157.2188 H   0  0  0  0  0  0  0  0  0  0  0  0  # atno 8010 bound_to 7997
  139.6278  144.0499  152.1989 H   0  0  0  0  0  0  0  0  0  0  0  0  # atno 10167 bound_to 10162
  156.3941  130.7901  151.2106 H   0  0  0  0  0  0  0  0  0  0  0  0  # atno 10718 bound_to 10713
  154.8725  135.3747  154.4670 H   0  0  0  0  0  0  0  0  0  0  0  0  # atno 10763 bound_to 10752
  153.5333  135.7027  153.5677 H   0  0  0  0  0  0  0  0  0  0  0  0  # atno 10764 bound_to 10752
  153.3872  135.3981  155.1863 H   0  0  0  0  0  0  0  0  0  0  0  0  # atno 10765 bound_to 10752
  140.0102  134.9442  157.0261 H   0  0  0  0  0  0  0  0  0  0  0  0  # atno 11005 bound_to 11000
  145.8333  139.2096  143.1870 LP  0  0  0  0  0  0  0  0  0  0  0  0  # atno 17320 bound_to 7965
  146.0411  140.8164  142.9828 LP  0  0  0  0  0  0  0  0  0  0  0  0  # atno 17321 bound_to 7965
  140.0157  144.6191  150.7609 LP  0  0  0  0  0  0  0  0  0  0  0  0  # atno 17342 bound_to 10162
  140.7421  143.2827  151.3552 LP  0  0  0  0  0  0  0  0  0  0  0  0  # atno 17343 bound_to 10162
  157.7500  131.0306  150.4146 LP  0  0  0  0  0  0  0  0  0  0  0  0  # atno 17370 bound_to 10713
  156.4413  130.3992  149.6695 LP  0  0  0  0  0  0  0  0  0  0  0  0  # atno 17371 bound_to 10713
  140.4569  134.1525  155.7187 LP  0  0  0  0  0  0  0  0  0  0  0  0  # atno 17394 bound_to 11000
  141.1705  133.8617  157.1584 LP  0  0  0  0  0  0  0  0  0  0  0  0  # atno 17395 bound_to 11000

$$$$
