AV-unprocessed.smi:2310|AV-procd|sdf|9258|dock10
  -GOLD-   2272012483D 1   1.00000     0.00000
 Structure written by MMmdl.
 46 47  0  0  0  0  0  0  0  0  2 V2000
  144.2095  135.3436  150.6959 C   0  0  0  0  0  0  0  0  0  0  0  0
  145.5842  135.9407  151.0310 C   0  0  0  0  0  0  0  0  0  0  0  0
  145.5137  137.2155  151.8921 C   0  0  1  0  0  0  0  0  0  0  0  0
  144.5144  137.0555  153.0485 C   0  0  0  0  0  0  0  0  0  0  0  0
  144.9164  136.0317  154.0264 C   0  0  0  0  0  0  0  0  0  0  0  0
  145.2318  135.2255  154.7938 N   0  0  0  0  0  0  0  0  0  0  0  0
  146.8378  137.5357  152.4265 N   0  0  0  0  0  0  0  0  0  0  0  0
  147.1155  138.5148  153.2995 C   0  0  0  0  0  0  0  0  0  0  0  0
  146.2684  139.2781  153.7627 O   0  0  0  0  0  0  0  0  0  0  0  0
  148.4295  138.5574  153.5782 N   0  0  0  0  0  0  0  0  0  0  0  0
  149.1213  139.4794  154.4119 C   0  0  0  0  0  0  0  0  0  0  0  0
  148.5297  140.6685  154.9050 C   0  0  0  0  0  0  0  0  0  0  0  0
  149.2771  141.5295  155.7332 C   0  0  0  0  0  0  0  0  0  0  0  0
  150.6090  141.1970  156.0720 C   0  0  0  0  0  0  0  0  0  0  0  0
  151.4154  142.0095  156.8924 N   0  0  0  0  0  0  0  0  0  0  0  0
  151.9945  141.4989  158.1243 C   0  0  0  0  0  0  0  0  0  0  0  0
  152.5995  142.7242  158.8079 C   0  0  0  0  0  0  0  0  0  0  0  0
  151.6674  143.8561  158.3773 C   0  0  0  0  0  0  0  0  0  0  0  0
  151.2172  143.4517  156.9688 C   0  0  0  0  0  0  0  0  0  0  0  0
  151.1238  140.0375  155.5986 N   0  3  0  0  0  0  0  0  0  0  0  0
  150.4476  139.1792  154.8027 C   0  0  0  0  0  0  0  0  0  0  0  0
  151.1716  137.9219  154.3567 C   0  0  0  0  0  0  0  0  0  0  0  0
  144.3179  134.4176  150.1311 H   0  0  0  0  0  0  0  0  0  0  0  0
  143.6098  136.0267  150.0940 H   0  0  0  0  0  0  0  0  0  0  0  0
  143.6487  135.1154  151.6027 H   0  0  0  0  0  0  0  0  0  0  0  0
  146.1703  135.1872  151.5583 H   0  0  0  0  0  0  0  0  0  0  0  0
  146.1230  136.1490  150.1058 H   0  0  0  0  0  0  0  0  0  0  0  0
  145.1528  138.0245  151.2542 H   0  0  0  0  0  0  0  0  0  0  0  0
  144.4112  137.9954  153.5911 H   0  0  0  0  0  0  0  0  0  0  0  0
  143.5256  136.7935  152.6710 H   0  0  0  0  0  0  0  0  0  0  0  0
  147.6036  136.9648  152.0994 H   0  0  0  0  0  0  0  0  0  0  0  0
  149.0139  137.9173  153.0605 H   0  0  0  0  0  0  0  0  0  0  0  0
  147.5092  140.9319  154.6734 H   0  0  0  0  0  0  0  0  0  0  0  0
  148.8139  142.4332  156.1007 H   0  0  0  0  0  0  0  0  0  0  0  0
  151.2082  141.0633  158.7428 H   0  0  0  0  0  0  0  0  0  0  0  0
  152.7483  140.7351  157.9305 H   0  0  0  0  0  0  0  0  0  0  0  0
  152.6691  142.6149  159.8907 H   0  0  0  0  0  0  0  0  0  0  0  0
  153.6036  142.9072  158.4222 H   0  0  0  0  0  0  0  0  0  0  0  0
  150.8036  143.8872  159.0429 H   0  0  0  0  0  0  0  0  0  0  0  0
  152.1453  144.8358  158.4050 H   0  0  0  0  0  0  0  0  0  0  0  0
  151.8392  143.9310  156.2122 H   0  0  0  0  0  0  0  0  0  0  0  0
  150.1810  143.7430  156.7935 H   0  0  0  0  0  0  0  0  0  0  0  0
  151.2475  137.8942  153.2694 H   0  0  0  0  0  0  0  0  0  0  0  0
  150.6315  137.0344  154.6872 H   0  0  0  0  0  0  0  0  0  0  0  0
  152.1805  137.8753  154.7679 H   0  0  0  0  0  0  0  0  0  0  0  0
  152.0808  139.7969  155.8567 H   0  0  0  0  0  0  0  0  0  0  0  0
  1  2  1  0  0  0  0
  1 23  1  0  0  0  0
  1 24  1  0  0  0  0
  1 25  1  0  0  0  0
  2  3  1  0  0  0  0
  2 26  1  0  0  0  0
  2 27  1  0  0  0  0
  3  4  1  0  0  0  0
  3  7  1  0  0  0  0
  3 28  1  0  0  0  0
  4  5  1  0  0  0  0
  4 29  1  0  0  0  0
  4 30  1  0  0  0  0
  5  6  3  0  0  0  0
  7  8  1  0  0  0  0
  7 31  1  0  0  0  0
  8  9  2  0  0  0  0
  8 10  1  0  0  0  0
 10 11  1  0  0  0  0
 10 32  1  0  0  0  0
 11 21  1  0  0  0  0
 11 12  2  0  0  0  0
 12 13  1  0  0  0  0
 12 33  1  0  0  0  0
 13 14  2  0  0  0  0
 13 34  1  0  0  0  0
 14 15  1  0  0  0  0
 14 20  1  0  0  0  0
 15 19  1  0  0  0  0
 15 16  1  0  0  0  0
 16 17  1  0  0  0  0
 16 35  1  0  0  0  0
 16 36  1  0  0  0  0
 17 18  1  0  0  0  0
 17 37  1  0  0  0  0
 17 38  1  0  0  0  0
 18 19  1  0  0  0  0
 18 39  1  0  0  0  0
 18 40  1  0  0  0  0
 19 41  1  0  0  0  0
 19 42  1  0  0  0  0
 20 21  2  0  0  0  0
 20 46  1  0  0  0  0
 21 22  1  0  0  0  0
 22 43  1  0  0  0  0
 22 44  1  0  0  0  0
 22 45  1  0  0  0  0
M  CHG  1  20   1
M  END
> <s_m_source_file>
AV-unprocessed.smi

> <i_m_source_file_index>
2310

> <i_lp_mmshare_version>
43012

> <i_f3d_flags>
0

> <s_epik_input>
TiNDW0NIMl1bQ0BASF0oW0NIMl1bQ0gzXSlbTkhdQyg9TylbTkhdYzFbY0hdW2NIXWMobmMxW0NIM10pTjJbQ0gyXVtDSDJdW0NIMl1bQ0gyXTI=

> <s_epik_cmdline>
J2VwaWtfcHl0aG9uJywgJy1waCcsICc3LjAnLCAnLXRuJywgJzgnLCAnLW1hJywgJzIwMCcsICctbWV0YWxfYmluZGluZycsICctaW1hZScsICc8aW5maWxlLm1hZT4nLCAnLW9tYWUnLCAnPG91dGZpbGUubWFlPic=

> <r_lp_tautomer_probability>
0.999994

> <r_epik_Ionization_Penalty>
0.577302

> <r_epik_Ionization_Penalty_Charging>
0.577278

> <r_epik_Ionization_Penalty_Neutral>
2.39253e-05

> <r_epik_State_Penalty>
0.589738

> <r_epik_Charging_Adjusted_Penalty>
1.16702

> <i_epik_Tot_Q>
1

> <i_epik_Tot_abs_Q>
1

> <r_epik_Metal_State_Penalty>
0.784556

> <b_epik_Metal_Only>
0

> <s_lp_Force_Field>
OPLS_2005

> <r_lp_Energy>
35.6243

> <b_lp_Chiralities_Consistent>
1

> <s_lp_Variant>
AV-unprocessed.smi:2310-4

> <Gold.Version>
5.8.1

> <Gold.Id.Protein>
6NUR|6NUR_protein|mol2

> <Gold.PLP.Fitness>
41.6919

> <Gold.PLP.PLP>
-37.6105

> <Gold.PLP.part.hbond>
-2.9802

> <Gold.PLP.part.metal>
0.0000

> <Gold.PLP.part.buried>
-2.3380

> <Gold.PLP.part.nonpolar>
-35.6164

> <Gold.PLP.part.repulsive>
0.6464

> <Gold.PLP.ligand.clash>
0.0000

> <Gold.PLP.ligand.torsion>
0.8907

> <Gold.PLP.Chemscore.Hbond>
1.8723

> <Gold.PLP.Chemscore.CHOScore>
0.0000

> <Gold.PLP.Chemscore.Metal>
0.0000

> <Gold.Chemscore.Hbonds>
donor molecule, donor type, donor heavy atom, donor atom, acceptor molecule, acceptor atom, score
      L1  H     7    31       P1  7948  1.00
      L1  H    10    32       P1  7948  0.86

> <Gold.PLP.Chemscore.Internal.Correction>
0.2459

> <Gold.Rescore>
     Score         DG    S(hbond)    S(metal)    S(lipo)     H(rot)  DE(clash)    DE(int)     intcor
     15.59     -18.89       1.67        0.00      99.07       1.47       1.07       2.23       ----

> <Gold.Chemscore.Fitness>
15.5939

> <Gold.Chemscore.DG>
-18.8935

> <Gold.Chemscore.ZeroCoef>
-5.4800

> <Gold.Chemscore.Hbond>
1.6714

> <Gold.Chemscore.Metal>
0.0000

> <Gold.Chemscore.Lipo>
99.0735

> <Gold.Chemscore.Internal_Hbond>
0.0000

> <Gold.Chemscore.DEClash>
1.0707

> <Gold.Chemscore.DEInternal>
2.2289

> <Gold.Chemscore.Rot>
1.4690

> <Gold.Chemscore.Internal.Correction>
   9.000000E+99

> <Gold.Chemscore.Hbonds>
donor molecule, donor type, donor heavy atom, donor atom, acceptor molecule, acceptor atom, score
      L1  H     7    31       P1  7948  0.93
      L1  H    10    32       P1  7948  0.79

> <Gold.Chemscore.Hbond.Weighted>
-5.5825

> <Gold.Chemscore.Metal.Weighted>
-0.0000

> <Gold.Chemscore.Lipo.Weighted>
-11.5916

> <Gold.Chemscore.Internal_Hbond.Weighted>
0.0000

> <Gold.Chemscore.DEClash.Weighted>
1.0707

> <Gold.Chemscore.DEInternal.Weighted>
2.2289

> <Gold.Chemscore.Rot.Weighted>
3.7606

> <Gold.Chemscore.Internal.Correction.Weighted>
   9.000000E+99

> <Gold.Protein.RotatedTorsions>
[ 6907 6896 6895 6894 ] final   17.77 input  -60.11 | X-H torsion
[ 7974 7965 7964 7962 ] final  -21.92 input  175.53 | X-H torsion
[ 8008 7997 7996 7995 ] final  164.30 input   59.86 | X-H torsion
[ 10167 10162 10161 10158 ] final  149.51 input  -65.29 | X-H torsion
[ 10718 10713 10712 10709 ] final   25.25 input   66.30 | X-H torsion
[ 10763 10752 10751 10750 ] final   78.58 input  -60.55 | X-H torsion
[ 11005 11000 10999 10996 ] final  -51.54 input  -57.11 | X-H torsion

> <Gold.Protein.ActiveResidues>
 VAL166  LYS551  ARG553  GLY616  TRP617  ASP618  TYR619  PRO620  LYS621  CYS622 
 ASP623  PHE694  ASN695  SER759  ASP760  ASP761  ALA762  ILE779  LEU786  VAL792 
 PHE793  MET794  SER795  GLU796  ALA797  LYS798  CYS799  TRP800  GLU811  SER814 

> <Gold.Protein.RotatedAtoms>
  151.8548  135.0545  160.0462 H   0  0  0  0  0  0  0  0  0  0  0  0  # atno 6907 bound_to 6896
  152.2708  133.5376  159.5446 H   0  0  0  0  0  0  0  0  0  0  0  0  # atno 6908 bound_to 6896
  150.7151  134.0616  159.3875 H   0  0  0  0  0  0  0  0  0  0  0  0  # atno 6909 bound_to 6896
  146.1705  140.4408  142.8534 H   0  0  0  0  0  0  0  0  0  0  0  0  # atno 7974 bound_to 7965
  156.1891  140.1700  156.8128 H   0  0  0  0  0  0  0  0  0  0  0  0  # atno 8008 bound_to 7997
  154.5449  140.0729  156.8604 H   0  0  0  0  0  0  0  0  0  0  0  0  # atno 8009 bound_to 7997
  155.3141  140.3369  155.4245 H   0  0  0  0  0  0  0  0  0  0  0  0  # atno 8010 bound_to 7997
  139.4861  144.5596  151.7255 H   0  0  0  0  0  0  0  0  0  0  0  0  # atno 10167 bound_to 10162
  157.1908  130.6845  149.6149 H   0  0  0  0  0  0  0  0  0  0  0  0  # atno 10718 bound_to 10713
  153.0885  135.4872  154.8644 H   0  0  0  0  0  0  0  0  0  0  0  0  # atno 10763 bound_to 10752
  154.7240  135.3045  154.9003 H   0  0  0  0  0  0  0  0  0  0  0  0  # atno 10764 bound_to 10752
  153.9658  135.6807  153.4799 H   0  0  0  0  0  0  0  0  0  0  0  0  # atno 10765 bound_to 10752
  141.0876  133.6639  156.3892 H   0  0  0  0  0  0  0  0  0  0  0  0  # atno 11005 bound_to 11000
  144.8156  140.6462  143.6386 LP  0  0  0  0  0  0  0  0  0  0  0  0  # atno 17320 bound_to 7965
  145.4352  139.1543  143.4000 LP  0  0  0  0  0  0  0  0  0  0  0  0  # atno 17321 bound_to 7965
  140.5164  144.0947  150.6009 LP  0  0  0  0  0  0  0  0  0  0  0  0  # atno 17342 bound_to 10162
  140.3890  143.2762  152.0082 LP  0  0  0  0  0  0  0  0  0  0  0  0  # atno 17343 bound_to 10162
  155.9712  130.4615  150.6112 LP  0  0  0  0  0  0  0  0  0  0  0  0  # atno 17370 bound_to 10713
  157.3862  131.0788  151.1434 LP  0  0  0  0  0  0  0  0  0  0  0  0  # atno 17371 bound_to 10713
  140.5326  134.6198  157.5355 LP  0  0  0  0  0  0  0  0  0  0  0  0  # atno 17394 bound_to 11000
  139.9697  134.7313  156.0066 LP  0  0  0  0  0  0  0  0  0  0  0  0  # atno 17395 bound_to 11000

$$$$
