AV-unprocessed.smi:2002|AV-procd|sdf|8113|dock8
  -GOLD-   2272010343D 1   1.00000     0.00000
 Structure written by MMmdl.
 39 40  0  0  0  0  0  0  0  0  2 V2000
  144.8256  131.7661  150.3282 C   0  0  0  0  0  0  0  0  0  0  0  0
  145.9198  132.7452  150.7738 C   0  0  0  0  0  0  0  0  0  0  0  0
  145.5334  134.1553  150.5354 N   0  3  1  0  0  0  0  0  0  0  0  0
  144.0803  134.4372  150.6257 C   0  0  0  0  0  0  0  0  0  0  0  0
  143.9275  135.7192  151.4544 C   0  0  0  0  0  0  0  0  0  0  0  0
  145.3165  136.3555  151.4403 C   0  0  1  0  0  0  0  0  0  0  0  0
  145.5639  137.3257  152.6118 C   0  0  0  0  0  0  0  0  0  0  0  0
  146.9825  137.6144  152.8002 N   0  0  0  0  0  0  0  0  0  0  0  0
  147.4859  138.5079  153.6644 C   0  0  0  0  0  0  0  0  0  0  0  0
  146.7908  139.1841  154.4235 O   0  0  0  0  0  0  0  0  0  0  0  0
  148.8267  138.5564  153.5924 N   0  0  0  0  0  0  0  0  0  0  0  0
  149.7042  139.3610  154.3631 C   0  0  0  0  0  0  0  0  0  0  0  0
  149.2029  140.4014  155.1896 C   0  0  0  0  0  0  0  0  0  0  0  0
  150.3359  140.9248  155.7465 C   0  0  0  0  0  0  0  0  0  0  0  0
  150.5716  142.0364  156.7109 C   0  0  0  0  0  0  0  0  0  0  0  0
  151.4351  140.2600  155.2975 O   0  0  0  0  0  0  0  0  0  0  0  0
  151.0237  139.2593  154.4093 N   0  0  0  0  0  0  0  0  0  0  0  0
  146.2260  135.1251  151.4071 C   0  0  0  0  0  0  0  0  0  0  0  0
  145.1479  130.7353  150.4766 H   0  0  0  0  0  0  0  0  0  0  0  0
  144.5927  131.8906  149.2701 H   0  0  0  0  0  0  0  0  0  0  0  0
  143.9041  131.9060  150.8938 H   0  0  0  0  0  0  0  0  0  0  0  0
  146.1616  132.5969  151.8273 H   0  0  0  0  0  0  0  0  0  0  0  0
  146.8296  132.5320  150.2107 H   0  0  0  0  0  0  0  0  0  0  0  0
  143.6901  134.5750  149.6169 H   0  0  0  0  0  0  0  0  0  0  0  0
  143.5259  133.6177  151.0854 H   0  0  0  0  0  0  0  0  0  0  0  0
  143.1573  136.3833  151.0612 H   0  0  0  0  0  0  0  0  0  0  0  0
  143.6479  135.4581  152.4763 H   0  0  0  0  0  0  0  0  0  0  0  0
  145.4322  136.8957  150.4990 H   0  0  0  0  0  0  0  0  0  0  0  0
  145.0618  138.2722  152.4101 H   0  0  0  0  0  0  0  0  0  0  0  0
  145.1238  136.9399  153.5332 H   0  0  0  0  0  0  0  0  0  0  0  0
  147.6292  137.1053  152.2151 H   0  0  0  0  0  0  0  0  0  0  0  0
  149.2687  137.9507  152.9167 H   0  0  0  0  0  0  0  0  0  0  0  0
  148.1820  140.7146  155.3507 H   0  0  0  0  0  0  0  0  0  0  0  0
  149.7678  142.7712  156.6612 H   0  0  0  0  0  0  0  0  0  0  0  0
  151.5094  142.5483  156.4938 H   0  0  0  0  0  0  0  0  0  0  0  0
  150.6209  141.6567  157.7315 H   0  0  0  0  0  0  0  0  0  0  0  0
  146.3255  134.7081  152.4110 H   0  0  0  0  0  0  0  0  0  0  0  0
  147.2258  135.3496  151.0339 H   0  0  0  0  0  0  0  0  0  0  0  0
  145.8098  134.3858  149.5917 H   0  0  0  0  0  0  0  0  0  0  0  0
  1  2  1  0  0  0  0
  1 19  1  0  0  0  0
  1 20  1  0  0  0  0
  1 21  1  0  0  0  0
  2  3  1  0  0  0  0
  2 22  1  0  0  0  0
  2 23  1  0  0  0  0
  3 18  1  0  0  0  0
  3  4  1  0  0  0  0
  3 39  1  0  0  0  0
  4  5  1  0  0  0  0
  4 24  1  0  0  0  0
  4 25  1  0  0  0  0
  5  6  1  0  0  0  0
  5 26  1  0  0  0  0
  5 27  1  0  0  0  0
  6  7  1  0  0  0  0
  6 18  1  0  0  0  0
  6 28  1  0  0  0  0
  7  8  1  0  0  0  0
  7 29  1  0  0  0  0
  7 30  1  0  0  0  0
  8  9  1  0  0  0  0
  8 31  1  0  0  0  0
  9 10  2  0  0  0  0
  9 11  1  0  0  0  0
 11 12  1  0  0  0  0
 11 32  1  0  0  0  0
 12 17  2  0  0  0  0
 12 13  1  0  0  0  0
 13 14  2  0  0  0  0
 13 33  1  0  0  0  0
 14 15  1  0  0  0  0
 14 16  1  0  0  0  0
 15 34  1  0  0  0  0
 15 35  1  0  0  0  0
 15 36  1  0  0  0  0
 16 17  1  0  0  0  0
 18 37  1  0  0  0  0
 18 38  1  0  0  0  0
M  CHG  1   3   1
M  END
> <s_m_source_file>
AV-unprocessed.smi

> <i_m_source_file_index>
2002

> <i_lp_mmshare_version>
43012

> <i_f3d_flags>
0

> <s_epik_input>
W0NIM11bQ0gyXU4xW0NIMl1bQ0gyXVtDQEhdKFtDSDJdMSlbQ0gyXVtOSF1DKD1PKVtOSF1jMltjSF1jKFtDSDNdKW9uMg==

> <s_epik_cmdline>
J2VwaWtfcHl0aG9uJywgJy1waCcsICc3LjAnLCAnLXRuJywgJzgnLCAnLW1hJywgJzIwMCcsICctbWV0YWxfYmluZGluZycsICctaW1hZScsICc8aW5maWxlLm1hZT4nLCAnLW9tYWUnLCAnPG91dGZpbGUubWFlPic=

> <r_epik_Ionization_Penalty>
0.000632871

> <r_epik_Ionization_Penalty_Charging>
0.000610951

> <r_epik_Ionization_Penalty_Neutral>
2.19198e-05

> <r_epik_State_Penalty>
0.000385263

> <r_epik_Charging_Adjusted_Penalty>
0.000996214

> <i_epik_Tot_Q>
1

> <i_epik_Tot_abs_Q>
1

> <r_epik_Metal_State_Penalty>
-0

> <b_epik_Metal_Only>
0

> <s_lp_Force_Field>
OPLS_2005

> <r_lp_Energy>
24.2793

> <b_lp_Chiralities_Consistent>
1

> <s_lp_Variant>
AV-unprocessed.smi:2002-1

> <Gold.Version>
5.8.1

> <Gold.Id.Protein>
6NUR|6NUR_protein|mol2

> <Gold.PLP.Fitness>
38.4979

> <Gold.PLP.PLP>
-30.8201

> <Gold.PLP.part.hbond>
-6.0000

> <Gold.PLP.part.metal>
0.0000

> <Gold.PLP.part.buried>
-2.7579

> <Gold.PLP.part.nonpolar>
-23.9825

> <Gold.PLP.part.repulsive>
0.4324

> <Gold.PLP.ligand.clash>
0.0000

> <Gold.PLP.ligand.torsion>
0.4628

> <Gold.PLP.Chemscore.Hbond>
2.8640

> <Gold.PLP.Chemscore.CHOScore>
0.0000

> <Gold.PLP.Chemscore.Metal>
0.0000

> <Gold.Chemscore.Hbonds>
donor molecule, donor type, donor heavy atom, donor atom, acceptor molecule, acceptor atom, score
      L1  H     3    39       P1  7921  1.00
      L1  H     8    31       P1  7948  1.00
      L1  H    11    32       P1  7948  0.86

> <Gold.PLP.Chemscore.Internal.Correction>
0.0113

> <Gold.Rescore>
     Score         DG    S(hbond)    S(metal)    S(lipo)     H(rot)  DE(clash)    DE(int)     intcor
     15.92     -18.51       2.78        0.00      65.32       1.52       0.72       1.87       ----

> <Gold.Chemscore.Fitness>
15.9166

> <Gold.Chemscore.DG>
-18.5066

> <Gold.Chemscore.ZeroCoef>
-5.4800

> <Gold.Chemscore.Hbond>
2.7789

> <Gold.Chemscore.Metal>
0.0000

> <Gold.Chemscore.Lipo>
65.3180

> <Gold.Chemscore.Internal_Hbond>
0.0000

> <Gold.Chemscore.DEClash>
0.7158

> <Gold.Chemscore.DEInternal>
1.8742

> <Gold.Chemscore.Rot>
1.5223

> <Gold.Chemscore.Internal.Correction>
   9.000000E+99

> <Gold.Chemscore.Hbonds>
donor molecule, donor type, donor heavy atom, donor atom, acceptor molecule, acceptor atom, score
      L1  H     3    39       P1  7921  0.61
      L1  H     8    31       P1  7948  0.98
      L1  H    11    32       P1  7948  0.78

> <Gold.Chemscore.Hbond.Weighted>
-9.2815

> <Gold.Chemscore.Metal.Weighted>
-0.0000

> <Gold.Chemscore.Lipo.Weighted>
-7.6422

> <Gold.Chemscore.Internal_Hbond.Weighted>
0.0000

> <Gold.Chemscore.DEClash.Weighted>
0.7158

> <Gold.Chemscore.DEInternal.Weighted>
1.8742

> <Gold.Chemscore.Rot.Weighted>
3.8971

> <Gold.Chemscore.Internal.Correction.Weighted>
   9.000000E+99

> <Gold.Protein.RotatedTorsions>
[ 6907 6896 6895 6894 ] final -178.06 input  -60.11 | X-H torsion
[ 7974 7965 7964 7962 ] final  -12.96 input  175.53 | X-H torsion
[ 8008 7997 7996 7995 ] final  135.03 input   59.86 | X-H torsion
[ 10167 10162 10161 10158 ] final  -98.78 input  -65.29 | X-H torsion
[ 10718 10713 10712 10709 ] final  -26.39 input   66.30 | X-H torsion
[ 10763 10752 10751 10750 ] final  -60.99 input  -60.55 | X-H torsion
[ 11005 11000 10999 10996 ] final  -51.75 input  -57.11 | X-H torsion

> <Gold.Protein.ActiveResidues>
 VAL166  LYS551  ARG553  GLY616  TRP617  ASP618  TYR619  PRO620  LYS621  CYS622 
 ASP623  PHE694  ASN695  SER759  ASP760  ASP761  ALA762  ILE779  LEU786  VAL792 
 PHE793  MET794  SER795  GLU796  ALA797  LYS798  CYS799  TRP800  GLU811  SER814 

> <Gold.Protein.RotatedAtoms>
  151.6311  133.3332  159.3108 H   0  0  0  0  0  0  0  0  0  0  0  0  # atno 6907 bound_to 6896
  150.8056  134.7182  159.6652 H   0  0  0  0  0  0  0  0  0  0  0  0  # atno 6908 bound_to 6896
  152.4151  134.6061  160.0064 H   0  0  0  0  0  0  0  0  0  0  0  0  # atno 6909 bound_to 6896
  146.2132  140.3133  142.8384 H   0  0  0  0  0  0  0  0  0  0  0  0  # atno 7974 bound_to 7965
  156.3001  140.2481  156.3515 H   0  0  0  0  0  0  0  0  0  0  0  0  # atno 8008 bound_to 7997
  154.8962  140.0407  157.1886 H   0  0  0  0  0  0  0  0  0  0  0  0  # atno 8009 bound_to 7997
  154.8547  140.2911  155.5580 H   0  0  0  0  0  0  0  0  0  0  0  0  # atno 8010 bound_to 7997
  140.2694  143.3354  152.0549 H   0  0  0  0  0  0  0  0  0  0  0  0  # atno 10167 bound_to 10162
  156.4518  130.4485  149.6985 H   0  0  0  0  0  0  0  0  0  0  0  0  # atno 10718 bound_to 10713
  154.2776  135.6278  153.5334 H   0  0  0  0  0  0  0  0  0  0  0  0  # atno 10763 bound_to 10752
  152.9870  135.5625  154.5530 H   0  0  0  0  0  0  0  0  0  0  0  0  # atno 10764 bound_to 10752
  154.5114  135.2877  155.1315 H   0  0  0  0  0  0  0  0  0  0  0  0  # atno 10765 bound_to 10752
  141.0888  133.6637  156.3924 H   0  0  0  0  0  0  0  0  0  0  0  0  # atno 11005 bound_to 11000
  144.8972  140.7598  143.5889 LP  0  0  0  0  0  0  0  0  0  0  0  0  # atno 17320 bound_to 7965
  145.3058  139.1835  143.4665 LP  0  0  0  0  0  0  0  0  0  0  0  0  # atno 17321 bound_to 7965
  139.4993  144.6667  151.6340 LP  0  0  0  0  0  0  0  0  0  0  0  0  # atno 17342 bound_to 10162
  140.5902  143.9793  150.6320 LP  0  0  0  0  0  0  0  0  0  0  0  0  # atno 17343 bound_to 10162
  156.3808  130.7578  151.2570 LP  0  0  0  0  0  0  0  0  0  0  0  0  # atno 17370 bound_to 10713
  157.7502  131.0296  150.4100 LP  0  0  0  0  0  0  0  0  0  0  0  0  # atno 17371 bound_to 10713
  140.5301  134.6221  157.5347 LP  0  0  0  0  0  0  0  0  0  0  0  0  # atno 17394 bound_to 11000
  139.9710  134.7293  156.0041 LP  0  0  0  0  0  0  0  0  0  0  0  0  # atno 17395 bound_to 11000

$$$$
