AV-unprocessed.smi:1803|AV-procd|sdf|7284|dock10
  -GOLD-   22720 8543D 1   1.00000     0.00000
 Structure written by MMmdl.
 36 38  0  0  0  0  0  0  0  0  2 V2000
  145.6959  137.6172  154.5458 O   0  0  0  0  0  0  0  0  0  0  0  0
  146.5878  137.1324  153.8520 C   0  0  0  0  0  0  0  0  0  0  0  0
  147.7170  137.8243  153.5870 N   0  0  0  0  0  0  0  0  0  0  0  0
  148.1453  139.1269  153.9783 C   0  0  0  0  0  0  0  0  0  0  0  0
  149.2146  139.3775  154.7518 N   0  0  0  0  0  0  0  0  0  0  0  0
  149.3882  140.7356  154.9817 N   0  0  0  0  0  0  0  0  0  0  0  0
  148.4404  141.4588  154.3794 C   0  0  0  0  0  0  0  0  0  0  0  0
  147.2443  140.5498  153.4722 S   0  0  0  0  0  0  0  0  0  0  0  0
  146.5008  135.9036  153.3167 N   0  0  0  0  0  0  0  0  0  0  0  0
  145.3826  134.9806  153.4808 C   0  0  1  0  0  0  0  0  0  0  0  0
  144.0157  135.6873  153.4453 C   0  0  0  0  0  0  0  0  0  0  0  0
  143.0799  134.7313  152.6795 C   0  0  0  0  0  0  0  0  0  0  0  0
  143.8849  133.5231  152.4177 N   0  3  1  0  0  0  0  0  0  0  0  0
  143.4800  132.6784  151.2728 C   0  0  0  0  0  0  0  0  0  0  0  0
  144.3838  131.4305  151.2175 C   0  0  0  0  0  0  0  0  0  0  0  0
  145.8793  131.8075  151.2065 C   0  0  0  0  0  0  0  0  0  0  0  0
  146.2211  132.7641  152.3655 C   0  0  0  0  0  0  0  0  0  0  0  0
  145.2800  133.9800  152.3266 C   0  0  2  0  0  0  0  0  0  0  0  0
  148.3641  137.3433  152.9792 H   0  0  0  0  0  0  0  0  0  0  0  0
  148.4449  142.5349  154.4711 H   0  0  0  0  0  0  0  0  0  0  0  0
  147.2777  135.5829  152.7557 H   0  0  0  0  0  0  0  0  0  0  0  0
  145.4651  134.4404  154.4265 H   0  0  0  0  0  0  0  0  0  0  0  0
  143.6533  135.8893  154.4539 H   0  0  0  0  0  0  0  0  0  0  0  0
  144.0729  136.6428  152.9215 H   0  0  0  0  0  0  0  0  0  0  0  0
  142.1826  134.4829  153.2470 H   0  0  0  0  0  0  0  0  0  0  0  0
  142.7703  135.1866  151.7374 H   0  0  0  0  0  0  0  0  0  0  0  0
  142.4363  132.3831  151.3861 H   0  0  0  0  0  0  0  0  0  0  0  0
  143.5561  133.2478  150.3450 H   0  0  0  0  0  0  0  0  0  0  0  0
  144.1794  130.8003  152.0842 H   0  0  0  0  0  0  0  0  0  0  0  0
  144.1420  130.8319  150.3389 H   0  0  0  0  0  0  0  0  0  0  0  0
  146.4937  130.9088  151.2674 H   0  0  0  0  0  0  0  0  0  0  0  0
  146.1252  132.2860  150.2575 H   0  0  0  0  0  0  0  0  0  0  0  0
  146.1242  132.2433  153.3191 H   0  0  0  0  0  0  0  0  0  0  0  0
  147.2603  133.0843  152.2868 H   0  0  0  0  0  0  0  0  0  0  0  0
  145.4106  134.5104  151.3801 H   0  0  0  0  0  0  0  0  0  0  0  0
  143.8259  132.9526  153.2489 H   0  0  0  0  0  0  0  0  0  0  0  0
  1  2  2  0  0  0  0
  2  3  1  0  0  0  0
  2  9  1  0  0  0  0
  3  4  1  0  0  0  0
  3 19  1  0  0  0  0
  4  8  1  0  0  0  0
  4  5  2  0  0  0  0
  5  6  1  0  0  0  0
  6  7  2  0  0  0  0
  7  8  1  0  0  0  0
  7 20  1  0  0  0  0
  9 10  1  0  0  0  0
  9 21  1  0  0  0  0
 10 18  1  0  0  0  0
 10 11  1  0  0  0  0
 10 22  1  0  0  0  0
 11 12  1  0  0  0  0
 11 23  1  0  0  0  0
 11 24  1  0  0  0  0
 12 13  1  0  0  0  0
 12 25  1  0  0  0  0
 12 26  1  0  0  0  0
 13 18  1  0  0  0  0
 13 14  1  0  0  0  0
 13 36  1  0  0  0  0
 14 15  1  0  0  0  0
 14 27  1  0  0  0  0
 14 28  1  0  0  0  0
 15 16  1  0  0  0  0
 15 29  1  0  0  0  0
 15 30  1  0  0  0  0
 16 17  1  0  0  0  0
 16 31  1  0  0  0  0
 16 32  1  0  0  0  0
 17 18  1  0  0  0  0
 17 33  1  0  0  0  0
 17 34  1  0  0  0  0
 18 35  1  0  0  0  0
M  CHG  1  13   1
M  END
> <s_m_source_file>
AV-unprocessed.smi

> <i_m_source_file_index>
1803

> <i_lp_mmshare_version>
43012

> <i_f3d_flags>
0

> <s_epik_input>
czFbY0hdbm5jMVtOSF1DKD1PKVtOSF1bQ0BIXShbQ0gyXVtDSDJdMilbQ0BASF0oTjIzKVtDSDJdW0NIMl1bQ0gyXVtDSDJdMw==

> <s_epik_cmdline>
J2VwaWtfcHl0aG9uJywgJy1waCcsICc3LjAnLCAnLXRuJywgJzgnLCAnLW1hJywgJzIwMCcsICctbWV0YWxfYmluZGluZycsICctaW1hZScsICc8aW5maWxlLm1hZT4nLCAnLW9tYWUnLCAnPG91dGZpbGUubWFlPic=

> <r_lp_tautomer_probability>
1

> <r_epik_Ionization_Penalty>
0.00213286

> <r_epik_Ionization_Penalty_Charging>
0.00107044

> <r_epik_Ionization_Penalty_Neutral>
0.00106242

> <r_epik_State_Penalty>
-0

> <r_epik_Charging_Adjusted_Penalty>
0.00107044

> <i_epik_Tot_Q>
1

> <i_epik_Tot_abs_Q>
1

> <r_epik_Metal_State_Penalty>
0.292783

> <b_epik_Metal_Only>
0

> <s_lp_Force_Field>
OPLS_2005

> <r_lp_Energy>
35.8309

> <b_lp_Chiralities_Consistent>
1

> <s_lp_Variant>
AV-unprocessed.smi:1803-6

> <Gold.Version>
5.8.1

> <Gold.Id.Protein>
6NUR|6NUR_protein|mol2

> <Gold.PLP.Fitness>
34.7340

> <Gold.PLP.PLP>
-25.2441

> <Gold.PLP.part.hbond>
-2.5077

> <Gold.PLP.part.metal>
0.0000

> <Gold.PLP.part.buried>
-5.3656

> <Gold.PLP.part.nonpolar>
-19.2754

> <Gold.PLP.part.repulsive>
0.3183

> <Gold.PLP.ligand.clash>
0.0000

> <Gold.PLP.ligand.torsion>
0.9208

> <Gold.PLP.Chemscore.Hbond>
2.7740

> <Gold.PLP.Chemscore.CHOScore>
1.0000

> <Gold.PLP.Chemscore.Metal>
0.0000

> <Gold.Chemscore.Hbonds>
donor molecule, donor type, donor heavy atom, donor atom, acceptor molecule, acceptor atom, score
      L1  H     3    19       P1  7948  1.00
      L1  H     9    21       P1  7948  0.86
      L1  H    13    36       P1 10957  0.88
      L1  C     7    20       P1  8028  1.00

> <Gold.PLP.Chemscore.Internal.Correction>
0.0095

> <Gold.Rescore>
     Score         DG    S(hbond)    S(metal)    S(lipo)     H(rot)  DE(clash)    DE(int)     intcor
     15.55     -17.75       2.50        0.00      55.34       1.00       0.01       2.19       ----

> <Gold.Chemscore.Fitness>
15.5470

> <Gold.Chemscore.DG>
-17.7508

> <Gold.Chemscore.ZeroCoef>
-5.4800

> <Gold.Chemscore.Hbond>
2.5018

> <Gold.Chemscore.Metal>
0.0000

> <Gold.Chemscore.Lipo>
55.3392

> <Gold.Chemscore.Internal_Hbond>
0.0000

> <Gold.Chemscore.DEClash>
0.0126

> <Gold.Chemscore.DEInternal>
2.1911

> <Gold.Chemscore.Rot>
1.0000

> <Gold.Chemscore.Internal.Correction>
   9.000000E+99

> <Gold.Chemscore.Hbonds>
donor molecule, donor type, donor heavy atom, donor atom, acceptor molecule, acceptor atom, score
      L1  H     3    19       P1  7948  1.00
      L1  H     9    21       P1  7948  0.82
      L1  H    13    36       P1 10957  0.29

> <Gold.Chemscore.Hbond.Weighted>
-8.3561

> <Gold.Chemscore.Metal.Weighted>
-0.0000

> <Gold.Chemscore.Lipo.Weighted>
-6.4747

> <Gold.Chemscore.Internal_Hbond.Weighted>
0.0000

> <Gold.Chemscore.DEClash.Weighted>
0.0126

> <Gold.Chemscore.DEInternal.Weighted>
2.1911

> <Gold.Chemscore.Rot.Weighted>
2.5600

> <Gold.Chemscore.Internal.Correction.Weighted>
   9.000000E+99

> <Gold.Protein.RotatedTorsions>
[ 6907 6896 6895 6894 ] final  -87.16 input  -60.11 | X-H torsion
[ 7974 7965 7964 7962 ] final  144.04 input  175.53 | X-H torsion
[ 8008 7997 7996 7995 ] final -168.44 input   59.86 | X-H torsion
[ 10167 10162 10161 10158 ] final   14.64 input  -65.29 | X-H torsion
[ 10718 10713 10712 10709 ] final  164.57 input   66.30 | X-H torsion
[ 10763 10752 10751 10750 ] final   94.55 input  -60.55 | X-H torsion
[ 11005 11000 10999 10996 ] final    0.09 input  -57.11 | X-H torsion

> <Gold.Protein.ActiveResidues>
 VAL166  LYS551  ARG553  GLY616  TRP617  ASP618  TYR619  PRO620  LYS621  CYS622 
 ASP623  PHE694  ASN695  SER759  ASP760  ASP761  ALA762  ILE779  LEU786  VAL792 
 PHE793  MET794  SER795  GLU796  ALA797  LYS798  CYS799  TRP800  GLU811  SER814 

> <Gold.Protein.RotatedAtoms>
  150.6866  134.2939  159.4677 H   0  0  0  0  0  0  0  0  0  0  0  0  # atno 6907 bound_to 6896
  152.0841  134.9448  160.0582 H   0  0  0  0  0  0  0  0  0  0  0  0  # atno 6908 bound_to 6896
  152.0790  133.4108  159.4529 H   0  0  0  0  0  0  0  0  0  0  0  0  # atno 6909 bound_to 6896
  144.8870  139.5615  143.5816 H   0  0  0  0  0  0  0  0  0  0  0  0  # atno 7974 bound_to 7965
  155.8914  140.1025  157.1416 H   0  0  0  0  0  0  0  0  0  0  0  0  # atno 8008 bound_to 7997
  154.4015  140.1310  156.4384 H   0  0  0  0  0  0  0  0  0  0  0  0  # atno 8009 bound_to 7997
  155.7529  140.3464  155.5162 H   0  0  0  0  0  0  0  0  0  0  0  0  # atno 8010 bound_to 7997
  140.5922  143.8773  150.6884 H   0  0  0  0  0  0  0  0  0  0  0  0  # atno 10167 bound_to 10162
  157.0924  131.0421  151.2531 H   0  0  0  0  0  0  0  0  0  0  0  0  # atno 10718 bound_to 10713
  153.2429  135.4285  155.0717 H   0  0  0  0  0  0  0  0  0  0  0  0  # atno 10763 bound_to 10752
  154.8348  135.3407  154.6623 H   0  0  0  0  0  0  0  0  0  0  0  0  # atno 10764 bound_to 10752
  153.7046  135.7026  153.5110 H   0  0  0  0  0  0  0  0  0  0  0  0  # atno 10765 bound_to 10752
  140.6305  133.9580  155.8271 H   0  0  0  0  0  0  0  0  0  0  0  0  # atno 11005 bound_to 11000
  146.3030  139.7488  142.9077 LP  0  0  0  0  0  0  0  0  0  0  0  0  # atno 17320 bound_to 7965
  145.3852  141.0364  143.3155 LP  0  0  0  0  0  0  0  0  0  0  0  0  # atno 17321 bound_to 7965
  140.2298  143.3744  152.1574 LP  0  0  0  0  0  0  0  0  0  0  0  0  # atno 17342 bound_to 10162
  139.5235  144.7072  151.5319 LP  0  0  0  0  0  0  0  0  0  0  0  0  # atno 17343 bound_to 10162
  157.4709  130.7708  149.7323 LP  0  0  0  0  0  0  0  0  0  0  0  0  # atno 17370 bound_to 10713
  155.9894  130.3952  150.3073 LP  0  0  0  0  0  0  0  0  0  0  0  0  # atno 17371 bound_to 10713
  141.0679  134.0249  157.3568 LP  0  0  0  0  0  0  0  0  0  0  0  0  # atno 17394 bound_to 11000
  139.9118  135.0191  156.7722 LP  0  0  0  0  0  0  0  0  0  0  0  0  # atno 17395 bound_to 11000

$$$$
