AV-unprocessed.smi:3057|AV-procd|sdf|11664|dock5
  -GOLD-   2272017 73D 1   1.00000     0.00000
 Structure written by MMmdl.
 40 42  0  0  0  0  0  0  0  0  1 V2000
  153.9428  137.3197  162.4562 C   0  0  0  0  0  0  0  0  0  0  0  0
  155.4284  137.2491  162.8600 C   0  0  2  0  0  0  0  0  0  0  0  0
  155.5999  137.2362  164.3900 C   0  0  0  0  0  0  0  0  0  0  0  0
  155.8576  138.7039  164.7619 C   0  0  0  0  0  0  0  0  0  0  0  0
  156.3848  139.2844  163.4594 C   0  0  0  0  0  0  0  0  0  0  0  0
  156.9977  140.3487  163.3921 O   0  0  0  0  0  0  0  0  0  0  0  0
  156.1396  138.4431  162.4471 N   0  0  0  0  0  0  0  0  0  0  0  0
  156.7618  138.4491  161.1204 C   0  0  2  0  0  0  0  0  0  0  0  0
  156.0382  139.4184  160.1688 C   0  0  0  0  0  0  0  0  0  0  0  0
  156.4337  139.5967  159.0157 O   0  0  0  0  0  0  0  0  0  0  0  0
  154.9776  140.0571  160.6847 N   0  0  0  0  0  0  0  0  0  0  0  0
  154.1591  141.0397  159.9802 C   0  0  0  0  0  0  0  0  0  0  0  0
  153.3788  141.9732  160.9288 C   0  0  0  0  0  0  0  0  0  0  0  0
  152.6291  143.0841  160.2125 C   0  0  0  0  0  0  0  0  0  0  0  0
  152.7056  143.2157  158.8092 C   0  0  0  0  0  0  0  0  0  0  0  0
  152.0090  144.2738  158.1947 C   0  0  0  0  0  0  0  0  0  0  0  0
  151.2617  145.1523  159.0025 C   0  0  0  0  0  0  0  0  0  0  0  0
  151.2436  144.9317  160.3943 C   0  0  0  0  0  0  0  0  0  0  0  0
  151.9109  143.9219  160.9939 N   0  0  0  0  0  0  0  0  0  0  0  0
  156.6456  137.0024  160.5760 C   0  0  0  0  0  0  0  0  0  0  0  0
  156.2848  135.9257  161.9908 S   0  0  0  0  0  0  0  0  0  0  0  0
  153.4502  138.1868  162.8973 H   0  0  0  0  0  0  0  0  0  0  0  0
  153.4063  136.4306  162.7883 H   0  0  0  0  0  0  0  0  0  0  0  0
  153.8206  137.3877  161.3750 H   0  0  0  0  0  0  0  0  0  0  0  0
  154.7330  136.8243  164.9076 H   0  0  0  0  0  0  0  0  0  0  0  0
  156.4640  136.6338  164.6747 H   0  0  0  0  0  0  0  0  0  0  0  0
  154.9338  139.2142  165.0362 H   0  0  0  0  0  0  0  0  0  0  0  0
  156.5758  138.8065  165.5757 H   0  0  0  0  0  0  0  0  0  0  0  0
  157.8124  138.7284  161.2202 H   0  0  0  0  0  0  0  0  0  0  0  0
  154.7222  139.8554  161.6406 H   0  0  0  0  0  0  0  0  0  0  0  0
  154.7758  141.6222  159.2942 H   0  0  0  0  0  0  0  0  0  0  0  0
  153.4534  140.4841  159.3620 H   0  0  0  0  0  0  0  0  0  0  0  0
  152.6673  141.3890  161.5136 H   0  0  0  0  0  0  0  0  0  0  0  0
  154.0642  142.4163  161.6522 H   0  0  0  0  0  0  0  0  0  0  0  0
  153.2917  142.5279  158.2173 H   0  0  0  0  0  0  0  0  0  0  0  0
  152.0495  144.4098  157.1242 H   0  0  0  0  0  0  0  0  0  0  0  0
  150.7152  145.9751  158.5660 H   0  0  0  0  0  0  0  0  0  0  0  0
  150.6797  145.5850  161.0437 H   0  0  0  0  0  0  0  0  0  0  0  0
  155.8209  136.8949  159.8700 H   0  0  0  0  0  0  0  0  0  0  0  0
  157.5553  136.6808  160.0682 H   0  0  0  0  0  0  0  0  0  0  0  0
  1  2  1  0  0  0  0
  1 22  1  0  0  0  0
  1 23  1  0  0  0  0
  1 24  1  0  0  0  0
  2  7  1  0  0  0  0
  2 21  1  0  0  0  0
  2  3  1  0  0  0  0
  3  4  1  0  0  0  0
  3 25  1  0  0  0  0
  3 26  1  0  0  0  0
  4  5  1  0  0  0  0
  4 27  1  0  0  0  0
  4 28  1  0  0  0  0
  5  6  2  0  0  0  0
  5  7  1  0  0  0  0
  7  8  1  0  0  0  0
  8  9  1  0  0  0  0
  8 20  1  0  0  0  0
  8 29  1  0  0  0  0
  9 10  2  0  0  0  0
  9 11  1  0  0  0  0
 11 12  1  0  0  0  0
 11 30  1  0  0  0  0
 12 13  1  0  0  0  0
 12 31  1  0  0  0  0
 12 32  1  0  0  0  0
 13 14  1  0  0  0  0
 13 33  1  0  0  0  0
 13 34  1  0  0  0  0
 14 19  1  0  0  0  0
 14 15  2  0  0  0  0
 15 16  1  0  0  0  0
 15 35  1  0  0  0  0
 16 17  2  0  0  0  0
 16 36  1  0  0  0  0
 17 18  1  0  0  0  0
 17 37  1  0  0  0  0
 18 19  2  0  0  0  0
 18 38  1  0  0  0  0
 20 21  1  0  0  0  0
 20 39  1  0  0  0  0
 20 40  1  0  0  0  0
M  END
> <s_m_source_file>
AV-unprocessed.smi

> <i_m_source_file_index>
3057

> <i_lp_mmshare_version>
43012

> <i_f3d_flags>
0

> <s_epik_input>
W0NIMl0xW0NIMl1DKD1PKU4oW0NAQF0xMltDSDNdKVtDQEhdKFtDSDJdUzIpQyg9TylbTkhdW0NIMl1bQ0gyXWMzW2NIXVtjSF1bY0hdW2NIXW4z

> <s_epik_cmdline>
J2VwaWtfcHl0aG9uJywgJy1waCcsICc3LjAnLCAnLXRuJywgJzgnLCAnLW1hJywgJzIwMCcsICctbWV0YWxfYmluZGluZycsICctaW1hZScsICc8aW5maWxlLm1hZT4nLCAnLW9tYWUnLCAnPG91dGZpbGUubWFlPic=

> <r_epik_Ionization_Penalty>
0.0249631

> <r_epik_Ionization_Penalty_Charging>
0

> <r_epik_Ionization_Penalty_Neutral>
0.0249631

> <r_epik_State_Penalty>
0.0202943

> <r_epik_Charging_Adjusted_Penalty>
0.0202943

> <i_epik_Tot_Q>
0

> <i_epik_Tot_abs_Q>
0

> <r_epik_Metal_State_Penalty>
0.0194661

> <b_epik_Metal_Only>
0

> <s_lp_Force_Field>
OPLS_2005

> <r_lp_Energy>
26.6501

> <b_lp_Chiralities_Consistent>
1

> <s_lp_Variant>
AV-unprocessed.smi:3057-4

> <Gold.Version>
5.8.1

> <Gold.Id.Protein>
6NUR|6NUR_protein|mol2

> <Gold.PLP.Fitness>
45.6649

> <Gold.PLP.PLP>
-43.0207

> <Gold.PLP.part.hbond>
-1.0000

> <Gold.PLP.part.metal>
0.0000

> <Gold.PLP.part.buried>
-4.5579

> <Gold.PLP.part.nonpolar>
-38.5460

> <Gold.PLP.part.repulsive>
0.2078

> <Gold.PLP.ligand.clash>
0.0000

> <Gold.PLP.ligand.torsion>
0.1850

> <Gold.PLP.Chemscore.Hbond>
1.0000

> <Gold.PLP.Chemscore.CHOScore>
0.0000

> <Gold.PLP.Chemscore.Metal>
0.0000

> <Gold.Chemscore.Hbonds>
donor molecule, donor type, donor heavy atom, donor atom, acceptor molecule, acceptor atom, score
      P1  H  7997  8010       L1    10  1.00

> <Gold.PLP.Chemscore.Internal.Correction>
0.0142

> <Gold.Rescore>
     Score         DG    S(hbond)    S(metal)    S(lipo)     H(rot)  DE(clash)    DE(int)     intcor
     18.71     -18.87       1.00        0.00     119.56       1.53       0.03       0.14       ----

> <Gold.Chemscore.Fitness>
18.7105

> <Gold.Chemscore.DG>
-18.8735

> <Gold.Chemscore.ZeroCoef>
-5.4800

> <Gold.Chemscore.Hbond>
0.9974

> <Gold.Chemscore.Metal>
0.0000

> <Gold.Chemscore.Lipo>
119.5638

> <Gold.Chemscore.Internal_Hbond>
0.0000

> <Gold.Chemscore.DEClash>
0.0255

> <Gold.Chemscore.DEInternal>
0.1375

> <Gold.Chemscore.Rot>
1.5339

> <Gold.Chemscore.Internal.Correction>
   9.000000E+99

> <Gold.Chemscore.Hbonds>
donor molecule, donor type, donor heavy atom, donor atom, acceptor molecule, acceptor atom, score
      P1  H  7997  8010       L1    10  1.00

> <Gold.Chemscore.Hbond.Weighted>
-3.3313

> <Gold.Chemscore.Metal.Weighted>
-0.0000

> <Gold.Chemscore.Lipo.Weighted>
-13.9890

> <Gold.Chemscore.Internal_Hbond.Weighted>
0.0000

> <Gold.Chemscore.DEClash.Weighted>
0.0255

> <Gold.Chemscore.DEInternal.Weighted>
0.1375

> <Gold.Chemscore.Rot.Weighted>
3.9267

> <Gold.Chemscore.Internal.Correction.Weighted>
   9.000000E+99

> <Gold.Protein.RotatedTorsions>
[ 6907 6896 6895 6894 ] final   94.26 input  -60.11 | X-H torsion
[ 7974 7965 7964 7962 ] final   -0.83 input  175.53 | X-H torsion
[ 8008 7997 7996 7995 ] final  -35.25 input   59.86 | X-H torsion
[ 10167 10162 10161 10158 ] final  143.48 input  -65.29 | X-H torsion
[ 10718 10713 10712 10709 ] final  -55.86 input   66.30 | X-H torsion
[ 10763 10752 10751 10750 ] final  110.13 input  -60.55 | X-H torsion
[ 11005 11000 10999 10996 ] final   42.38 input  -57.11 | X-H torsion

> <Gold.Protein.ActiveResidues>
 VAL166  LYS551  ARG553  GLY616  TRP617  ASP618  TYR619  PRO620  LYS621  CYS622 
 ASP623  PHE694  ASN695  SER759  ASP760  ASP761  ALA762  ILE779  LEU786  VAL792 
 PHE793  MET794  SER795  GLU796  ALA797  LYS798  CYS799  TRP800  GLU811  SER814 

> <Gold.Protein.RotatedAtoms>
  152.5450  134.1221  159.8403 H   0  0  0  0  0  0  0  0  0  0  0  0  # atno 6907 bound_to 6896
  151.1276  133.5052  159.2607 H   0  0  0  0  0  0  0  0  0  0  0  0  # atno 6908 bound_to 6896
  151.1710  135.0328  159.8806 H   0  0  0  0  0  0  0  0  0  0  0  0  # atno 6909 bound_to 6896
  146.2423  140.1329  142.8337 H   0  0  0  0  0  0  0  0  0  0  0  0  # atno 7974 bound_to 7965
  154.4100  140.1662  156.2181 H   0  0  0  0  0  0  0  0  0  0  0  0  # atno 8008 bound_to 7997
  155.9387  140.3409  155.6286 H   0  0  0  0  0  0  0  0  0  0  0  0  # atno 8009 bound_to 7997
  155.7016  140.0746  157.2398 H   0  0  0  0  0  0  0  0  0  0  0  0  # atno 8010 bound_to 7997
  139.4969  144.6037  151.6424 H   0  0  0  0  0  0  0  0  0  0  0  0  # atno 10167 bound_to 10162
  156.1335  130.4158  150.0227 H   0  0  0  0  0  0  0  0  0  0  0  0  # atno 10718 bound_to 10713
  153.4446  135.3758  155.2248 H   0  0  0  0  0  0  0  0  0  0  0  0  # atno 10763 bound_to 10752
  154.8755  135.3871  154.4111 H   0  0  0  0  0  0  0  0  0  0  0  0  # atno 10764 bound_to 10752
  153.4662  135.7087  153.6084 H   0  0  0  0  0  0  0  0  0  0  0  0  # atno 10765 bound_to 10752
  140.1744  134.4181  155.8237 H   0  0  0  0  0  0  0  0  0  0  0  0  # atno 11005 bound_to 11000
  145.0311  140.8871  143.5109 LP  0  0  0  0  0  0  0  0  0  0  0  0  # atno 17320 bound_to 7965
  145.1394  139.2582  143.5498 LP  0  0  0  0  0  0  0  0  0  0  0  0  # atno 17321 bound_to 7965
  140.5694  144.0135  150.6209 LP  0  0  0  0  0  0  0  0  0  0  0  0  # atno 17342 bound_to 10162
  140.3247  143.3115  152.0748 LP  0  0  0  0  0  0  0  0  0  0  0  0  # atno 17343 bound_to 10162
  156.8133  130.9332  151.3643 LP  0  0  0  0  0  0  0  0  0  0  0  0  # atno 17370 bound_to 10713
  157.6510  130.8884  149.9633 LP  0  0  0  0  0  0  0  0  0  0  0  0  # atno 17371 bound_to 10713
  141.2219  133.6971  156.7821 LP  0  0  0  0  0  0  0  0  0  0  0  0  # atno 17394 bound_to 11000
  140.2339  134.8665  157.3505 LP  0  0  0  0  0  0  0  0  0  0  0  0  # atno 17395 bound_to 11000

$$$$
