AV-unprocessed.smi:1263|AV-procd|sdf|5312|dock5
  -GOLD-   22720 4433D 1   1.00000     0.00000
 Structure written by MMmdl.
 43 45  0  0  0  0  0  0  0  0  1 V2000
  145.7347  133.0466  151.7777 C   0  0  0  0  0  0  0  0  0  0  0  0
  146.8381  133.4405  152.5861 O   0  0  0  0  0  0  0  0  0  0  0  0
  147.5778  132.4580  153.2167 C   0  0  0  0  0  0  0  0  0  0  0  0
  147.1497  131.1734  153.1301 N   0  0  0  0  0  0  0  0  0  0  0  0
  147.8735  130.2119  153.7389 C   0  0  0  0  0  0  0  0  0  0  0  0
  149.0554  130.4748  154.4550 C   0  0  0  0  0  0  0  0  0  0  0  0
  149.5012  131.8061  154.5474 C   0  0  0  0  0  0  0  0  0  0  0  0
  148.7442  132.8290  153.9262 C   0  0  0  0  0  0  0  0  0  0  0  0
  149.1158  134.2019  153.9394 N   0  0  0  0  0  0  0  0  0  0  0  0
  149.8392  134.8667  154.8563 C   0  0  0  0  0  0  0  0  0  0  0  0
  150.2796  134.3846  155.8999 O   0  0  0  0  0  0  0  0  0  0  0  0
  150.0075  136.1477  154.4983 N   0  0  0  0  0  0  0  0  0  0  0  0
  150.7309  137.1625  155.2600 C   0  0  0  0  0  0  0  0  0  0  0  0
  150.0050  137.4445  156.5851 C   0  0  0  0  0  0  0  0  0  0  0  0
  150.6516  138.6260  157.3291 C   0  0  0  0  0  0  0  0  0  0  0  0
  150.6348  139.8231  156.4879 N   0  0  0  0  0  0  0  0  0  0  0  0
  151.2077  140.9304  157.2356 C   0  0  0  0  0  0  0  0  0  0  0  0
  150.2506  141.9039  157.8844 C   0  0  0  0  0  0  0  0  0  0  0  0
  151.0391  142.3204  156.6661 C   0  0  0  0  0  0  0  0  0  0  0  0
  151.4373  139.5974  155.2855 C   0  0  0  0  0  0  0  0  0  0  0  0
  150.8265  138.4620  154.4454 C   0  0  0  0  0  0  0  0  0  0  0  0
  145.2618  133.9332  151.3556 H   0  0  0  0  0  0  0  0  0  0  0  0
  144.9811  132.5165  152.3620 H   0  0  0  0  0  0  0  0  0  0  0  0
  146.0539  132.4151  150.9473 H   0  0  0  0  0  0  0  0  0  0  0  0
  147.5029  129.2017  153.6458 H   0  0  0  0  0  0  0  0  0  0  0  0
  149.6107  129.6727  154.9182 H   0  0  0  0  0  0  0  0  0  0  0  0
  150.4187  132.0121  155.0764 H   0  0  0  0  0  0  0  0  0  0  0  0
  148.7397  134.7560  153.1837 H   0  0  0  0  0  0  0  0  0  0  0  0
  149.6009  136.4485  153.6245 H   0  0  0  0  0  0  0  0  0  0  0  0
  151.7445  136.8276  155.4875 H   0  0  0  0  0  0  0  0  0  0  0  0
  148.9540  137.6690  156.3960 H   0  0  0  0  0  0  0  0  0  0  0  0
  150.0230  136.5561  157.2174 H   0  0  0  0  0  0  0  0  0  0  0  0
  150.1002  138.8198  158.2499 H   0  0  0  0  0  0  0  0  0  0  0  0
  151.6755  138.3793  157.6152 H   0  0  0  0  0  0  0  0  0  0  0  0
  152.1365  140.7633  157.7790 H   0  0  0  0  0  0  0  0  0  0  0  0
  149.1836  141.7318  157.7562 H   0  0  0  0  0  0  0  0  0  0  0  0
  150.5418  142.3296  158.8424 H   0  0  0  0  0  0  0  0  0  0  0  0
  151.8559  143.0244  156.8121 H   0  0  0  0  0  0  0  0  0  0  0  0
  150.4958  142.4254  155.7288 H   0  0  0  0  0  0  0  0  0  0  0  0
  151.4686  140.5113  154.6912 H   0  0  0  0  0  0  0  0  0  0  0  0
  152.4666  139.3571  155.5571 H   0  0  0  0  0  0  0  0  0  0  0  0
  151.4301  138.2991  153.5519 H   0  0  0  0  0  0  0  0  0  0  0  0
  149.8359  138.7616  154.0994 H   0  0  0  0  0  0  0  0  0  0  0  0
  1  2  1  0  0  0  0
  1 22  1  0  0  0  0
  1 23  1  0  0  0  0
  1 24  1  0  0  0  0
  2  3  1  0  0  0  0
  3  8  1  0  0  0  0
  3  4  2  0  0  0  0
  4  5  1  0  0  0  0
  5  6  2  0  0  0  0
  5 25  1  0  0  0  0
  6  7  1  0  0  0  0
  6 26  1  0  0  0  0
  7  8  2  0  0  0  0
  7 27  1  0  0  0  0
  8  9  1  0  0  0  0
  9 10  1  0  0  0  0
  9 28  1  0  0  0  0
 10 11  2  0  0  0  0
 10 12  1  0  0  0  0
 12 13  1  0  0  0  0
 12 29  1  0  0  0  0
 13 21  1  0  0  0  0
 13 14  1  0  0  0  0
 13 30  1  0  0  0  0
 14 15  1  0  0  0  0
 14 31  1  0  0  0  0
 14 32  1  0  0  0  0
 15 16  1  0  0  0  0
 15 33  1  0  0  0  0
 15 34  1  0  0  0  0
 16 17  1  0  0  0  0
 16 20  1  0  0  0  0
 17 19  1  0  0  0  0
 17 18  1  0  0  0  0
 17 35  1  0  0  0  0
 18 19  1  0  0  0  0
 18 36  1  0  0  0  0
 18 37  1  0  0  0  0
 19 38  1  0  0  0  0
 19 39  1  0  0  0  0
 20 21  1  0  0  0  0
 20 40  1  0  0  0  0
 20 41  1  0  0  0  0
 21 42  1  0  0  0  0
 21 43  1  0  0  0  0
M  END
> <s_m_source_file>
AV-unprocessed.smi

> <i_m_source_file_index>
1263

> <i_lp_mmshare_version>
43012

> <i_f3d_flags>
0

> <s_epik_input>
W0NIM11PYzFuW2NIXVtjSF1bY0hdYzFbTkhdQyg9TylbTkhdW0NIXTJbQ0gyXVtDSDJdTihbQ0gyXVtDSDJdMilbQ0hdM1tDSDJdW0NIMl0z

> <s_epik_cmdline>
J2VwaWtfcHl0aG9uJywgJy1waCcsICc3LjAnLCAnLXRuJywgJzgnLCAnLW1hJywgJzIwMCcsICctbWV0YWxfYmluZGluZycsICctaW1hZScsICc8aW5maWxlLm1hZT4nLCAnLW9tYWUnLCAnPG91dGZpbGUubWFlPic=

> <r_lp_tautomer_probability>
1

> <r_epik_Ionization_Penalty>
1.02543

> <r_epik_Ionization_Penalty_Charging>
0

> <r_epik_Ionization_Penalty_Neutral>
1.02543

> <r_epik_State_Penalty>
1.07599

> <r_epik_Charging_Adjusted_Penalty>
1.07599

> <i_epik_Tot_Q>
0

> <i_epik_Tot_abs_Q>
0

> <r_epik_Metal_State_Penalty>
1.07599

> <b_epik_Metal_Only>
0

> <s_lp_Force_Field>
OPLS_2005

> <r_lp_Energy>
24.353

> <b_lp_Chiralities_Consistent>
1

> <s_lp_Variant>
AV-unprocessed.smi:1263-3

> <Gold.Version>
5.8.1

> <Gold.Id.Protein>
6NUR|6NUR_protein|mol2

> <Gold.PLP.Fitness>
39.0387

> <Gold.PLP.PLP>
-33.9971

> <Gold.PLP.part.hbond>
-2.7337

> <Gold.PLP.part.metal>
0.0000

> <Gold.PLP.part.buried>
-3.5412

> <Gold.PLP.part.nonpolar>
-27.6970

> <Gold.PLP.part.repulsive>
0.5157

> <Gold.PLP.ligand.clash>
0.0000

> <Gold.PLP.ligand.torsion>
0.8400

> <Gold.PLP.Chemscore.Hbond>
1.8500

> <Gold.PLP.Chemscore.CHOScore>
0.0000

> <Gold.PLP.Chemscore.Metal>
0.0000

> <Gold.Chemscore.Hbonds>
donor molecule, donor type, donor heavy atom, donor atom, acceptor molecule, acceptor atom, score
      L1  H     9    28       P1  7948  0.98
      L1  H    12    29       P1  7948  1.00

> <Gold.PLP.Chemscore.Internal.Correction>
1.1715

> <Gold.Rescore>
     Score         DG    S(hbond)    S(metal)    S(lipo)     H(rot)  DE(clash)    DE(int)     intcor
     13.26     -14.93       1.47        0.00      69.50       1.41       0.06       1.61       ----

> <Gold.Chemscore.Fitness>
13.2610

> <Gold.Chemscore.DG>
-14.9305

> <Gold.Chemscore.ZeroCoef>
-5.4800

> <Gold.Chemscore.Hbond>
1.4721

> <Gold.Chemscore.Metal>
0.0000

> <Gold.Chemscore.Lipo>
69.5003

> <Gold.Chemscore.Internal_Hbond>
0.0000

> <Gold.Chemscore.DEClash>
0.0584

> <Gold.Chemscore.DEInternal>
1.6111

> <Gold.Chemscore.Rot>
1.4053

> <Gold.Chemscore.Internal.Correction>
   9.000000E+99

> <Gold.Chemscore.Hbonds>
donor molecule, donor type, donor heavy atom, donor atom, acceptor molecule, acceptor atom, score
      L1  H     9    28       P1  7948  0.28
      L1  H    12    29       P1  7948  0.59

> <Gold.Chemscore.Hbond.Weighted>
-4.9167

> <Gold.Chemscore.Metal.Weighted>
-0.0000

> <Gold.Chemscore.Lipo.Weighted>
-8.1315

> <Gold.Chemscore.Internal_Hbond.Weighted>
0.0000

> <Gold.Chemscore.DEClash.Weighted>
0.0584

> <Gold.Chemscore.DEInternal.Weighted>
1.6111

> <Gold.Chemscore.Rot.Weighted>
3.5977

> <Gold.Chemscore.Internal.Correction.Weighted>
   9.000000E+99

> <Gold.Protein.RotatedTorsions>
[ 6907 6896 6895 6894 ] final  -19.77 input  -60.11 | X-H torsion
[ 7974 7965 7964 7962 ] final -138.71 input  175.53 | X-H torsion
[ 8008 7997 7996 7995 ] final   49.24 input   59.86 | X-H torsion
[ 10167 10162 10161 10158 ] final  131.98 input  -65.29 | X-H torsion
[ 10718 10713 10712 10709 ] final -115.39 input   66.30 | X-H torsion
[ 10763 10752 10751 10750 ] final  -75.34 input  -60.55 | X-H torsion
[ 11005 11000 10999 10996 ] final  -15.44 input  -57.11 | X-H torsion

> <Gold.Protein.ActiveResidues>
 VAL166  LYS551  ARG553  GLY616  TRP617  ASP618  TYR619  PRO620  LYS621  CYS622 
 ASP623  PHE694  ASN695  SER759  ASP760  ASP761  ALA762  ILE779  LEU786  VAL792 
 PHE793  MET794  SER795  GLU796  ALA797  LYS798  CYS799  TRP800  GLU811  SER814 

> <Gold.Protein.RotatedAtoms>
  151.2581  135.0645  159.9087 H   0  0  0  0  0  0  0  0  0  0  0  0  # atno 6907 bound_to 6896
  152.5370  134.0260  159.8013 H   0  0  0  0  0  0  0  0  0  0  0  0  # atno 6908 bound_to 6896
  151.0479  133.5600  159.2676 H   0  0  0  0  0  0  0  0  0  0  0  0  # atno 6909 bound_to 6896
  144.8736  140.6404  143.5251 H   0  0  0  0  0  0  0  0  0  0  0  0  # atno 7974 bound_to 7965
  155.3989  140.3437  155.4256 H   0  0  0  0  0  0  0  0  0  0  0  0  # atno 8008 bound_to 7997
  156.1515  140.1572  156.8794 H   0  0  0  0  0  0  0  0  0  0  0  0  # atno 8009 bound_to 7997
  154.5057  140.0803  156.7870 H   0  0  0  0  0  0  0  0  0  0  0  0  # atno 8010 bound_to 7997
  139.5360  144.6682  151.4786 H   0  0  0  0  0  0  0  0  0  0  0  0  # atno 10167 bound_to 10162
  156.0893  130.6078  150.8900 H   0  0  0  0  0  0  0  0  0  0  0  0  # atno 10718 bound_to 10713
  154.4852  135.5834  153.6418 H   0  0  0  0  0  0  0  0  0  0  0  0  # atno 10763 bound_to 10752
  152.9853  135.6099  154.3195 H   0  0  0  0  0  0  0  0  0  0  0  0  # atno 10764 bound_to 10752
  154.3090  135.2845  155.2554 H   0  0  0  0  0  0  0  0  0  0  0  0  # atno 10765 bound_to 10752
  140.7967  133.8246  155.9431 H   0  0  0  0  0  0  0  0  0  0  0  0  # atno 11005 bound_to 11000
  145.4084  139.1584  143.4139 LP  0  0  0  0  0  0  0  0  0  0  0  0  # atno 17320 bound_to 7965
  146.2947  140.4186  142.8726 LP  0  0  0  0  0  0  0  0  0  0  0  0  # atno 17321 bound_to 7965
  140.6566  143.8587  150.6842 LP  0  0  0  0  0  0  0  0  0  0  0  0  # atno 17342 bound_to 10162
  140.1968  143.3991  152.1822 LP  0  0  0  0  0  0  0  0  0  0  0  0  # atno 17343 bound_to 10162
  157.6037  131.0940  150.8916 LP  0  0  0  0  0  0  0  0  0  0  0  0  # atno 17370 bound_to 10713
  156.9069  130.5266  149.5281 LP  0  0  0  0  0  0  0  0  0  0  0  0  # atno 17371 bound_to 10713
  140.9335  134.1991  157.4847 LP  0  0  0  0  0  0  0  0  0  0  0  0  # atno 17394 bound_to 11000
  139.8725  134.9843  156.5233 LP  0  0  0  0  0  0  0  0  0  0  0  0  # atno 17395 bound_to 11000

$$$$
