AV-unprocessed.smi:55|AV-procd|sdf|571|dock8
  -GOLD-   2262016473D 1   1.00000     0.00000
 Structure written by MMmdl.
 30 31  0  0  0  0  0  0  0  0  2 V2000
  150.5732  142.8851  158.6619 C   0  0  0  0  0  0  0  0  0  0  0  0
  150.8735  141.8473  157.5946 C   0  0  0  0  0  0  0  0  0  0  0  0
  150.0851  141.6795  156.5094 C   0  0  0  0  0  0  0  0  0  0  0  0
  150.3655  140.7339  155.5391 N   0  0  0  0  0  0  0  0  0  0  0  0
  149.4779  140.5882  154.3265 C   0  0  2  0  0  0  0  0  0  0  0  0
  148.2989  141.5507  154.3921 C   0  0  0  0  0  0  0  0  0  0  0  0
  147.2243  140.7929  153.6216 C   0  0  2  0  0  0  0  0  0  0  0  0
  145.9885  140.8747  154.3075 O   0  0  0  0  0  0  0  0  0  0  0  0
  147.7792  139.3552  153.4652 C   0  0  2  0  0  0  0  0  0  0  0  0
  146.8189  138.2096  153.8372 C   0  0  0  0  0  0  0  0  0  0  0  0
  147.5127  136.9799  153.8550 O   0  0  0  0  0  0  0  0  0  0  0  0
  148.9192  139.3172  154.3155 O   0  0  0  0  0  0  0  0  0  0  0  0
  151.5293  139.9310  155.6547 C   0  0  0  0  0  0  0  0  0  0  0  0
  151.7741  139.1306  154.7515 O   0  0  0  0  0  0  0  0  0  0  0  0
  152.3257  140.0861  156.7510 N   0  5  0  0  0  0  0  0  0  0  0  0
  152.0621  140.9964  157.7324 C   0  0  0  0  0  0  0  0  0  0  0  0
  152.7885  141.1241  158.7177 O   0  0  0  0  0  0  0  0  0  0  0  0
  150.1029  140.7097  153.4398 H   0  0  0  0  0  0  0  0  0  0  0  0
  147.0904  141.2363  152.6342 H   0  0  0  0  0  0  0  0  0  0  0  0
  148.1198  139.2370  152.4348 H   0  0  0  0  0  0  0  0  0  0  0  0
  149.6662  143.4432  158.4283 H   0  0  0  0  0  0  0  0  0  0  0  0
  151.3962  143.5958  158.7433 H   0  0  0  0  0  0  0  0  0  0  0  0
  150.4343  142.4054  159.6312 H   0  0  0  0  0  0  0  0  0  0  0  0
  149.2154  142.3100  156.3969 H   0  0  0  0  0  0  0  0  0  0  0  0
  148.0121  141.6942  155.4357 H   0  0  0  0  0  0  0  0  0  0  0  0
  148.5582  142.5169  153.9582 H   0  0  0  0  0  0  0  0  0  0  0  0
  145.2903  140.7475  153.6838 H   0  0  0  0  0  0  0  0  0  0  0  0
  146.3408  138.3906  154.8005 H   0  0  0  0  0  0  0  0  0  0  0  0
  146.0297  138.1136  153.0912 H   0  0  0  0  0  0  0  0  0  0  0  0
  147.7802  136.7734  152.9726 H   0  0  0  0  0  0  0  0  0  0  0  0
  1  2  1  0  0  0  0
  1 21  1  0  0  0  0
  1 22  1  0  0  0  0
  1 23  1  0  0  0  0
  2 16  1  0  0  0  0
  2  3  2  0  0  0  0
  3  4  1  0  0  0  0
  3 24  1  0  0  0  0
  4  5  1  0  0  0  0
  4 13  1  0  0  0  0
  5 18  1  0  0  0  0
  5 12  1  0  0  0  0
  5  6  1  0  0  0  0
  6  7  1  0  0  0  0
  6 25  1  0  0  0  0
  6 26  1  0  0  0  0
  7 19  1  0  0  0  0
  7  8  1  0  0  0  0
  7  9  1  0  0  0  0
  8 27  1  0  0  0  0
  9 20  1  0  0  0  0
  9 10  1  0  0  0  0
  9 12  1  0  0  0  0
 10 11  1  0  0  0  0
 10 28  1  0  0  0  0
 10 29  1  0  0  0  0
 11 30  1  0  0  0  0
 13 14  2  0  0  0  0
 13 15  1  0  0  0  0
 15 16  1  0  0  0  0
 16 17  2  0  0  0  0
M  CHG  1  15  -1
M  END
> <s_m_source_file>
AV-unprocessed.smi

> <i_m_source_file_index>
55

> <i_lp_mmshare_version>
43012

> <i_f3d_flags>
0

> <s_epik_input>
Tz1jMVtuSF1jKD1PKW4oW2NIXWMxW0NIM10pW0NAQEhdMltDSDJdW0NAQEhdKFtPSF0pW0NAQEhdKE8yKVtDSDJdW09IXQ==

> <s_epik_cmdline>
J2VwaWtfcHl0aG9uJywgJy1waCcsICc3LjAnLCAnLXRuJywgJzgnLCAnLW1hJywgJzIwMCcsICctbWV0YWxfYmluZGluZycsICctaW1hZScsICc8aW5maWxlLm1hZT4nLCAnLW9tYWUnLCAnPG91dGZpbGUubWFlPic=

> <r_lp_tautomer_probability>
0.999537

> <r_epik_Ionization_Penalty>
3.66603

> <r_epik_Ionization_Penalty_Charging>
1.09773e-07

> <r_epik_Ionization_Penalty_Neutral>
3.66603

> <r_epik_State_Penalty>
3.66562

> <r_epik_Charging_Adjusted_Penalty>
3.66562

> <i_epik_Tot_Q>
-1

> <i_epik_Tot_abs_Q>
1

> <r_epik_Metal_State_Penalty>
0.234536

> <b_epik_Metal_Only>
1

> <s_epik_Chemistry_Notes>
This compound contains an acetal/aminal-like group ( X-CH(R)-Y where X, Y are N, S, or O) that may be acid/base labile, releasing an aldehyde.

> <s_lp_Force_Field>
OPLS_2005

> <r_lp_Energy>
40.7454

> <b_lp_Chiralities_Consistent>
1

> <s_lp_Variant>
AV-unprocessed.smi:55-11

> <Gold.Version>
5.8.1

> <Gold.Id.Protein>
6NUR|6NUR_protein|mol2

> <Gold.PLP.Fitness>
43.1787

> <Gold.PLP.PLP>
-27.6755

> <Gold.PLP.part.hbond>
-3.9931

> <Gold.PLP.part.metal>
0.0000

> <Gold.PLP.part.buried>
-0.1355

> <Gold.PLP.part.nonpolar>
-22.6996

> <Gold.PLP.part.repulsive>
0.2044

> <Gold.PLP.ligand.clash>
0.0000

> <Gold.PLP.ligand.torsion>
0.0520

> <Gold.PLP.Chemscore.Hbond>
4.1944

> <Gold.PLP.Chemscore.CHOScore>
1.0000

> <Gold.PLP.Chemscore.Metal>
0.0000

> <Gold.Chemscore.Hbonds>
donor molecule, donor type, donor heavy atom, donor atom, acceptor molecule, acceptor atom, score
      L1  H     8    27       P1 10175  1.00
      L1  H    11    30       P1  7948  1.00
      P1  H  7989  7998       L1    14  0.15
      P1  H  7997  8008       L1    15  1.92
      L1  C     3    24       P1  8028  0.97

> <Gold.PLP.Chemscore.Internal.Correction>
0.0242

> <Gold.Rescore>
     Score         DG    S(hbond)    S(metal)    S(lipo)     H(rot)  DE(clash)    DE(int)     intcor
     11.13     -12.66       2.67        0.00      43.79       2.69       0.23       1.30       ----

> <Gold.Chemscore.Fitness>
11.1282

> <Gold.Chemscore.DG>
-12.6587

> <Gold.Chemscore.ZeroCoef>
-5.4800

> <Gold.Chemscore.Hbond>
2.6749

> <Gold.Chemscore.Metal>
0.0000

> <Gold.Chemscore.Lipo>
43.7917

> <Gold.Chemscore.Internal_Hbond>
0.0000

> <Gold.Chemscore.DEClash>
0.2307

> <Gold.Chemscore.DEInternal>
1.2997

> <Gold.Chemscore.Rot>
2.6871

> <Gold.Chemscore.Internal.Correction>
   9.000000E+99

> <Gold.Chemscore.Hbonds>
donor molecule, donor type, donor heavy atom, donor atom, acceptor molecule, acceptor atom, score
      L1  H     8    27       P1 10175  0.88
      L1  H    11    30       P1  7948  0.95
      P1  H  7997  8008       L1    15  0.51

> <Gold.Chemscore.Hbond.Weighted>
-8.9341

> <Gold.Chemscore.Metal.Weighted>
-0.0000

> <Gold.Chemscore.Lipo.Weighted>
-5.1236

> <Gold.Chemscore.Internal_Hbond.Weighted>
0.0000

> <Gold.Chemscore.DEClash.Weighted>
0.2307

> <Gold.Chemscore.DEInternal.Weighted>
1.2997

> <Gold.Chemscore.Rot.Weighted>
6.8791

> <Gold.Chemscore.Internal.Correction.Weighted>
   9.000000E+99

> <Gold.Protein.RotatedTorsions>
[ 6907 6896 6895 6894 ] final  119.86 input  -60.11 | X-H torsion
[ 7974 7965 7964 7962 ] final  -88.58 input  175.53 | X-H torsion
[ 8008 7997 7996 7995 ] final  -41.82 input   59.86 | X-H torsion
[ 10167 10162 10161 10158 ] final -119.66 input  -65.29 | X-H torsion
[ 10718 10713 10712 10709 ] final   21.51 input   66.30 | X-H torsion
[ 10763 10752 10751 10750 ] final   39.15 input  -60.55 | X-H torsion
[ 11005 11000 10999 10996 ] final  -60.58 input  -57.11 | X-H torsion

> <Gold.Protein.ActiveResidues>
 VAL166  LYS551  ARG553  GLY616  TRP617  ASP618  TYR619  PRO620  LYS621  CYS622 
 ASP623  PHE694  ASN695  SER759  ASP760  ASP761  ALA762  ILE779  LEU786  VAL792 
 PHE793  MET794  SER795  GLU796  ALA797  LYS798  CYS799  TRP800  GLU811  SER814 

> <Gold.Protein.RotatedAtoms>
  152.4441  133.7502  159.6689 H   0  0  0  0  0  0  0  0  0  0  0  0  # atno 6907 bound_to 6896
  150.8337  133.8038  159.3094 H   0  0  0  0  0  0  0  0  0  0  0  0  # atno 6908 bound_to 6896
  151.5685  135.1066  160.0041 H   0  0  0  0  0  0  0  0  0  0  0  0  # atno 6909 bound_to 6896
  145.4513  140.9560  143.2021 H   0  0  0  0  0  0  0  0  0  0  0  0  # atno 7974 bound_to 7965
  154.4002  140.1489  156.3254 H   0  0  0  0  0  0  0  0  0  0  0  0  # atno 8008 bound_to 7997
  155.8491  140.3458  155.5660 H   0  0  0  0  0  0  0  0  0  0  0  0  # atno 8009 bound_to 7997
  155.8003  140.0869  157.1951 H   0  0  0  0  0  0  0  0  0  0  0  0  # atno 8010 bound_to 7997
  140.0442  143.5123  152.2115 H   0  0  0  0  0  0  0  0  0  0  0  0  # atno 10167 bound_to 10162
  157.1394  130.6626  149.5976 H   0  0  0  0  0  0  0  0  0  0  0  0  # atno 10718 bound_to 10713
  152.9977  135.6229  154.2419 H   0  0  0  0  0  0  0  0  0  0  0  0  # atno 10763 bound_to 10752
  154.2159  135.2798  155.2943 H   0  0  0  0  0  0  0  0  0  0  0  0  # atno 10764 bound_to 10752
  154.5568  135.5717  153.7030 H   0  0  0  0  0  0  0  0  0  0  0  0  # atno 10765 bound_to 10752
  141.1293  133.6623  156.5245 H   0  0  0  0  0  0  0  0  0  0  0  0  # atno 11005 bound_to 11000
  144.8060  139.6051  143.7050 LP  0  0  0  0  0  0  0  0  0  0  0  0  # atno 17320 bound_to 7965
  146.2503  139.6185  142.9432 LP  0  0  0  0  0  0  0  0  0  0  0  0  # atno 17321 bound_to 7965
  139.5994  144.7578  151.3207 LP  0  0  0  0  0  0  0  0  0  0  0  0  # atno 17342 bound_to 10162
  140.7246  143.7039  150.7823 LP  0  0  0  0  0  0  0  0  0  0  0  0  # atno 17343 bound_to 10162
  155.9791  130.4783  150.6698 LP  0  0  0  0  0  0  0  0  0  0  0  0  # atno 17370 bound_to 10713
  157.4321  131.0850  151.1028 LP  0  0  0  0  0  0  0  0  0  0  0  0  # atno 17371 bound_to 10713
  140.4265  134.7140  157.4919 LP  0  0  0  0  0  0  0  0  0  0  0  0  # atno 17394 bound_to 11000
  140.0323  134.6388  155.9090 LP  0  0  0  0  0  0  0  0  0  0  0  0  # atno 17395 bound_to 11000

$$$$
