AV-unprocessed.smi:1762|AV-procd|sdf|7101|dock8
  -GOLD-   22720 8323D 1   1.00000     0.00000
 Structure written by MMmdl.
 52 53  0  0  0  0  0  0  0  0  1 V2000
  151.8204  138.0700  154.3695 C   0  0  0  0  0  0  0  0  0  0  0  0
  150.7818  138.9983  155.0092 C   0  0  2  0  0  0  0  0  0  0  0  0
  149.4735  139.0530  154.1995 C   0  0  0  0  0  0  0  0  0  0  0  0
  148.5016  140.0082  154.7570 N   0  0  0  0  0  0  0  0  0  0  0  0
  147.1964  140.0531  154.0397 C   0  0  1  0  0  0  0  0  0  0  0  0
  146.4655  138.6898  154.0052 C   0  0  0  0  0  0  0  0  0  0  0  0
  146.1503  138.1242  155.0530 O   0  0  0  0  0  0  0  0  0  0  0  0
  146.2146  138.1725  152.7920 N   0  0  0  0  0  0  0  0  0  0  0  0
  145.5264  136.9113  152.5454 C   0  0  0  0  0  0  0  0  0  0  0  0
  145.8646  136.3461  151.1556 C   0  0  0  0  0  0  0  0  0  0  0  0
  145.4800  134.8849  151.0217 C   0  0  0  0  0  0  0  0  0  0  0  0
  146.4717  133.8839  150.9472 C   0  0  0  0  0  0  0  0  0  0  0  0
  146.0629  132.5427  150.8144 C   0  0  0  0  0  0  0  0  0  0  0  0
  144.6853  132.2559  150.7604 C   0  0  0  0  0  0  0  0  0  0  0  0
  143.7740  133.3278  150.8408 C   0  0  0  0  0  0  0  0  0  0  0  0
  144.1556  134.6173  150.9670 N   0  0  0  0  0  0  0  0  0  0  0  0
  146.2230  141.1851  154.5138 C   0  0  0  0  0  0  0  0  0  0  0  0
  146.5723  142.5783  153.9541 C   0  0  0  0  0  0  0  0  0  0  0  0
  146.0502  141.2524  156.0454 C   0  0  0  0  0  0  0  0  0  0  0  0
  149.1479  141.3234  154.8520 C   0  0  0  0  0  0  0  0  0  0  0  0
  150.4807  141.2985  155.6270 C   0  0  1  0  0  0  0  0  0  0  0  0
  150.2987  141.1474  157.1478 C   0  0  0  0  0  0  0  0  0  0  0  0
  151.3484  140.3014  155.0923 O   0  0  0  0  0  0  0  0  0  0  0  0
  151.4422  137.0502  154.2953 H   0  0  0  0  0  0  0  0  0  0  0  0
  152.7351  138.0421  154.9620 H   0  0  0  0  0  0  0  0  0  0  0  0
  152.0840  138.4037  153.3655 H   0  0  0  0  0  0  0  0  0  0  0  0
  150.5711  138.6291  156.0133 H   0  0  0  0  0  0  0  0  0  0  0  0
  149.6919  139.3144  153.1626 H   0  0  0  0  0  0  0  0  0  0  0  0
  149.0766  138.0389  154.1866 H   0  0  0  0  0  0  0  0  0  0  0  0
  147.4261  140.2830  152.9970 H   0  0  0  0  0  0  0  0  0  0  0  0
  146.5116  138.6968  151.9818 H   0  0  0  0  0  0  0  0  0  0  0  0
  145.8295  136.2052  153.3190 H   0  0  0  0  0  0  0  0  0  0  0  0
  144.4487  137.0465  152.6526 H   0  0  0  0  0  0  0  0  0  0  0  0
  145.3550  136.9189  150.3795 H   0  0  0  0  0  0  0  0  0  0  0  0
  146.9328  136.4515  150.9596 H   0  0  0  0  0  0  0  0  0  0  0  0
  147.5211  134.1366  150.9882 H   0  0  0  0  0  0  0  0  0  0  0  0
  146.7925  131.7489  150.7534 H   0  0  0  0  0  0  0  0  0  0  0  0
  144.3350  131.2393  150.6594 H   0  0  0  0  0  0  0  0  0  0  0  0
  142.7105  133.1446  150.8012 H   0  0  0  0  0  0  0  0  0  0  0  0
  145.2266  140.9388  154.1508 H   0  0  0  0  0  0  0  0  0  0  0  0
  147.5265  142.9424  154.3342 H   0  0  0  0  0  0  0  0  0  0  0  0
  145.8126  143.3093  154.2319 H   0  0  0  0  0  0  0  0  0  0  0  0
  146.6289  142.5709  152.8655 H   0  0  0  0  0  0  0  0  0  0  0  0
  146.9501  141.6120  156.5453 H   0  0  0  0  0  0  0  0  0  0  0  0
  145.8054  140.2735  156.4580 H   0  0  0  0  0  0  0  0  0  0  0  0
  145.2406  141.9311  156.3150 H   0  0  0  0  0  0  0  0  0  0  0  0
  149.3304  141.7122  153.8487 H   0  0  0  0  0  0  0  0  0  0  0  0
  148.5027  142.0453  155.3482 H   0  0  0  0  0  0  0  0  0  0  0  0
  150.9803  142.2536  155.4628 H   0  0  0  0  0  0  0  0  0  0  0  0
  149.7398  141.9896  157.5562 H   0  0  0  0  0  0  0  0  0  0  0  0
  151.2635  141.1155  157.6540 H   0  0  0  0  0  0  0  0  0  0  0  0
  149.7529  140.2407  157.4082 H   0  0  0  0  0  0  0  0  0  0  0  0
  1  2  1  0  0  0  0
  1 24  1  0  0  0  0
  1 25  1  0  0  0  0
  1 26  1  0  0  0  0
  2 23  1  0  0  0  0
  2  3  1  0  0  0  0
  2 27  1  0  0  0  0
  3  4  1  0  0  0  0
  3 28  1  0  0  0  0
  3 29  1  0  0  0  0
  4  5  1  0  0  0  0
  4 20  1  0  0  0  0
  5  6  1  0  0  0  0
  5 17  1  0  0  0  0
  5 30  1  0  0  0  0
  6  7  2  0  0  0  0
  6  8  1  0  0  0  0
  8  9  1  0  0  0  0
  8 31  1  0  0  0  0
  9 10  1  0  0  0  0
  9 32  1  0  0  0  0
  9 33  1  0  0  0  0
 10 11  1  0  0  0  0
 10 34  1  0  0  0  0
 10 35  1  0  0  0  0
 11 16  1  0  0  0  0
 11 12  2  0  0  0  0
 12 13  1  0  0  0  0
 12 36  1  0  0  0  0
 13 14  2  0  0  0  0
 13 37  1  0  0  0  0
 14 15  1  0  0  0  0
 14 38  1  0  0  0  0
 15 16  2  0  0  0  0
 15 39  1  0  0  0  0
 17 18  1  0  0  0  0
 17 19  1  0  0  0  0
 17 40  1  0  0  0  0
 18 41  1  0  0  0  0
 18 42  1  0  0  0  0
 18 43  1  0  0  0  0
 19 44  1  0  0  0  0
 19 45  1  0  0  0  0
 19 46  1  0  0  0  0
 20 21  1  0  0  0  0
 20 47  1  0  0  0  0
 20 48  1  0  0  0  0
 21 22  1  0  0  0  0
 21 23  1  0  0  0  0
 21 49  1  0  0  0  0
 22 50  1  0  0  0  0
 22 51  1  0  0  0  0
 22 52  1  0  0  0  0
M  END
> <s_m_source_file>
AV-unprocessed.smi

> <i_m_source_file_index>
1762

> <i_lp_mmshare_version>
43012

> <i_f3d_flags>
0

> <s_epik_input>
W0NIM11bQ0BASF0xW0NIMl1OKFtDSDJdW0NASF0oTzEpW0NIM10pW0NAQEhdKFtDSF0oW0NIM10pW0NIM10pQyg9TylbTkhdW0NIMl1bQ0gyXWMyW2NIXVtjSF1bY0hdW2NIXW4y

> <s_epik_cmdline>
J2VwaWtfcHl0aG9uJywgJy1waCcsICc3LjAnLCAnLXRuJywgJzgnLCAnLW1hJywgJzIwMCcsICctbWV0YWxfYmluZGluZycsICctaW1hZScsICc8aW5maWxlLm1hZT4nLCAnLW9tYWUnLCAnPG91dGZpbGUubWFlPic=

> <r_epik_Ionization_Penalty>
0.0399736

> <r_epik_Ionization_Penalty_Charging>
0

> <r_epik_Ionization_Penalty_Neutral>
0.0399736

> <r_epik_State_Penalty>
0.0317634

> <r_epik_Charging_Adjusted_Penalty>
0.0317634

> <i_epik_Tot_Q>
0

> <i_epik_Tot_abs_Q>
0

> <r_epik_Metal_State_Penalty>
0.0307795

> <b_epik_Metal_Only>
0

> <s_lp_Force_Field>
OPLS_2005

> <r_lp_Energy>
29.8059

> <b_lp_Chiralities_Consistent>
1

> <s_lp_Variant>
AV-unprocessed.smi:1762-3

> <Gold.Version>
5.8.1

> <Gold.Id.Protein>
6NUR|6NUR_protein|mol2

> <Gold.PLP.Fitness>
46.1643

> <Gold.PLP.PLP>
-41.6453

> <Gold.PLP.part.hbond>
-1.0000

> <Gold.PLP.part.metal>
0.0000

> <Gold.PLP.part.buried>
-5.1363

> <Gold.PLP.part.nonpolar>
-34.7211

> <Gold.PLP.part.repulsive>
0.4023

> <Gold.PLP.ligand.clash>
0.0000

> <Gold.PLP.ligand.torsion>
0.8614

> <Gold.PLP.Chemscore.Hbond>
1.0000

> <Gold.PLP.Chemscore.CHOScore>
0.9979

> <Gold.PLP.Chemscore.Metal>
0.0000

> <Gold.Chemscore.Hbonds>
donor molecule, donor type, donor heavy atom, donor atom, acceptor molecule, acceptor atom, score
      P1  H  7989  7998       L1    23  1.00
      L1  C    15    39       P1 10186  0.96

> <Gold.PLP.Chemscore.Internal.Correction>
0.2483

> <Gold.Rescore>
     Score         DG    S(hbond)    S(metal)    S(lipo)     H(rot)  DE(clash)    DE(int)     intcor
     14.09     -15.21       0.24        0.00     111.39       1.60       0.18       0.94       ----

> <Gold.Chemscore.Fitness>
14.0937

> <Gold.Chemscore.DG>
-15.2092

> <Gold.Chemscore.ZeroCoef>
-5.4800

> <Gold.Chemscore.Hbond>
0.2366

> <Gold.Chemscore.Metal>
0.0000

> <Gold.Chemscore.Lipo>
111.3933

> <Gold.Chemscore.Internal_Hbond>
0.0000

> <Gold.Chemscore.DEClash>
0.1752

> <Gold.Chemscore.DEInternal>
0.9403

> <Gold.Chemscore.Rot>
1.5993

> <Gold.Chemscore.Internal.Correction>
   9.000000E+99

> <Gold.Chemscore.Hbonds>
donor molecule, donor type, donor heavy atom, donor atom, acceptor molecule, acceptor atom, score
      P1  H  7989  7998       L1    23  0.27

> <Gold.Chemscore.Hbond.Weighted>
-0.7903

> <Gold.Chemscore.Metal.Weighted>
-0.0000

> <Gold.Chemscore.Lipo.Weighted>
-13.0330

> <Gold.Chemscore.Internal_Hbond.Weighted>
0.0000

> <Gold.Chemscore.DEClash.Weighted>
0.1752

> <Gold.Chemscore.DEInternal.Weighted>
0.9403

> <Gold.Chemscore.Rot.Weighted>
4.0941

> <Gold.Chemscore.Internal.Correction.Weighted>
   9.000000E+99

> <Gold.Protein.RotatedTorsions>
[ 6907 6896 6895 6894 ] final  -25.13 input  -60.11 | X-H torsion
[ 7974 7965 7964 7962 ] final   11.21 input  175.53 | X-H torsion
[ 8008 7997 7996 7995 ] final  141.83 input   59.86 | X-H torsion
[ 10167 10162 10161 10158 ] final -123.20 input  -65.29 | X-H torsion
[ 10718 10713 10712 10709 ] final  -69.01 input   66.30 | X-H torsion
[ 10763 10752 10751 10750 ] final  177.75 input  -60.55 | X-H torsion
[ 11005 11000 10999 10996 ] final -139.60 input  -57.11 | X-H torsion

> <Gold.Protein.ActiveResidues>
 VAL166  LYS551  ARG553  GLY616  TRP617  ASP618  TYR619  PRO620  LYS621  CYS622 
 ASP623  PHE694  ASN695  SER759  ASP760  ASP761  ALA762  ILE779  LEU786  VAL792 
 PHE793  MET794  SER795  GLU796  ALA797  LYS798  CYS799  TRP800  GLU811  SER814 

> <Gold.Protein.RotatedAtoms>
  151.1796  135.0355  159.8786 H   0  0  0  0  0  0  0  0  0  0  0  0  # atno 6907 bound_to 6896
  152.5445  134.1078  159.8355 H   0  0  0  0  0  0  0  0  0  0  0  0  # atno 6908 bound_to 6896
  151.1193  133.5069  159.2635 H   0  0  0  0  0  0  0  0  0  0  0  0  # atno 6909 bound_to 6896
  146.2375  139.9519  142.8469 H   0  0  0  0  0  0  0  0  0  0  0  0  # atno 7974 bound_to 7965
  156.2959  140.2305  156.4629 H   0  0  0  0  0  0  0  0  0  0  0  0  # atno 8008 bound_to 7997
  154.8002  140.0449  157.1288 H   0  0  0  0  0  0  0  0  0  0  0  0  # atno 8009 bound_to 7997
  154.9542  140.3046  155.5064 H   0  0  0  0  0  0  0  0  0  0  0  0  # atno 8010 bound_to 7997
  140.0060  143.5491  152.2283 H   0  0  0  0  0  0  0  0  0  0  0  0  # atno 10167 bound_to 10162
  156.0476  130.4305  150.2085 H   0  0  0  0  0  0  0  0  0  0  0  0  # atno 10718 bound_to 10713
  154.4985  135.2782  155.1439 H   0  0  0  0  0  0  0  0  0  0  0  0  # atno 10763 bound_to 10752
  154.3082  135.6234  153.5458 H   0  0  0  0  0  0  0  0  0  0  0  0  # atno 10764 bound_to 10752
  152.9899  135.5713  154.5423 H   0  0  0  0  0  0  0  0  0  0  0  0  # atno 10765 bound_to 10752
  140.8504  134.2293  157.4763 H   0  0  0  0  0  0  0  0  0  0  0  0  # atno 11005 bound_to 11000
  145.1854  140.9786  143.4242 LP  0  0  0  0  0  0  0  0  0  0  0  0  # atno 17320 bound_to 7965
  144.9905  139.3694  143.6217 LP  0  0  0  0  0  0  0  0  0  0  0  0  # atno 17321 bound_to 7965
  139.6238  144.7634  151.2683 LP  0  0  0  0  0  0  0  0  0  0  0  0  # atno 17342 bound_to 10162
  140.7400  143.6601  150.8172 LP  0  0  0  0  0  0  0  0  0  0  0  0  # atno 17343 bound_to 10162
  157.0172  130.9968  151.3349 LP  0  0  0  0  0  0  0  0  0  0  0  0  # atno 17370 bound_to 10713
  157.5369  130.8094  149.7982 LP  0  0  0  0  0  0  0  0  0  0  0  0  # atno 17371 bound_to 10713
  139.8704  134.9680  156.4617 LP  0  0  0  0  0  0  0  0  0  0  0  0  # atno 17394 bound_to 11000
  140.8796  133.7927  155.9452 LP  0  0  0  0  0  0  0  0  0  0  0  0  # atno 17395 bound_to 11000

$$$$
