AV-unprocessed.smi:2886|AV-procd|sdf|11092|dock1
  -GOLD-   2272015563D 1   1.00000     0.00000
 Structure written by MMmdl.
 28 30  0  0  0  0  0  0  0  0  3 V2000
  153.4466  138.4520  156.4258 O   0  0  0  0  0  0  0  0  0  0  0  0
  152.5089  138.5043  155.6324 C   0  0  0  0  0  0  0  0  0  0  0  0
  152.3122  137.5821  154.6436 N   0  5  0  0  0  0  0  0  0  0  0  0
  151.2992  137.6622  153.8098 N   0  3  0  0  0  0  0  0  0  0  0  0
  150.3874  138.6287  153.8494 C   0  0  0  0  0  0  0  0  0  0  0  0
  150.4796  139.6579  154.8279 C   0  0  0  0  0  0  0  0  0  0  0  0
  149.5536  140.6900  154.9138 N   0  0  0  0  0  0  0  0  0  0  0  0
  148.3735  140.9430  154.0968 C   0  0  1  0  0  0  0  0  0  0  0  0
  147.4003  139.7644  154.0536 C   0  0  0  0  0  0  0  0  0  0  0  0
  146.0872  140.4314  154.4878 C   0  0  1  0  0  0  0  0  0  0  0  0
  146.0713  140.7124  155.9958 C   0  0  0  0  0  0  0  0  0  0  0  0
  147.0541  141.8767  156.1047 C   0  0  0  0  0  0  0  0  0  0  0  0
  147.4815  142.0726  154.6396 C   0  0  2  0  0  0  0  0  0  0  0  0
  146.2679  141.7451  153.9834 O   0  0  0  0  0  0  0  0  0  0  0  0
  151.5199  139.5953  155.7086 C   0  0  0  0  0  0  0  0  0  0  0  0
  151.7130  140.7991  156.9405 Cl  0  0  0  0  0  0  0  0  0  0  0  0
  151.1693  136.9517  153.0725 H   0  0  0  0  0  0  0  0  0  0  0  0
  149.5935  138.5829  153.1153 H   0  0  0  0  0  0  0  0  0  0  0  0
  149.7748  141.4320  155.5633 H   0  0  0  0  0  0  0  0  0  0  0  0
  148.6610  141.2059  153.0795 H   0  0  0  0  0  0  0  0  0  0  0  0
  147.3252  139.3739  153.0382 H   0  0  0  0  0  0  0  0  0  0  0  0
  147.6790  138.9415  154.7134 H   0  0  0  0  0  0  0  0  0  0  0  0
  145.1920  139.9269  154.1231 H   0  0  0  0  0  0  0  0  0  0  0  0
  145.0775  141.0190  156.3241 H   0  0  0  0  0  0  0  0  0  0  0  0
  146.3735  139.8454  156.5842 H   0  0  0  0  0  0  0  0  0  0  0  0
  146.5449  142.7667  156.4762 H   0  0  0  0  0  0  0  0  0  0  0  0
  147.8904  141.6674  156.7719 H   0  0  0  0  0  0  0  0  0  0  0  0
  147.8541  143.0732  154.4185 H   0  0  0  0  0  0  0  0  0  0  0  0
  1  2  2  0  0  0  0
  2  3  1  0  0  0  0
  2 15  1  0  0  0  0
  3  4  1  0  0  0  0
  4  5  2  0  0  0  0
  4 17  1  0  0  0  0
  5  6  1  0  0  0  0
  5 18  1  0  0  0  0
  6 15  2  0  0  0  0
  6  7  1  0  0  0  0
  7  8  1  0  0  0  0
  7 19  1  0  0  0  0
  8 13  1  0  0  0  0
  8  9  1  0  0  0  0
  8 20  1  0  0  0  0
  9 10  1  0  0  0  0
  9 21  1  0  0  0  0
  9 22  1  0  0  0  0
 10 14  1  0  0  0  0
 10 11  1  0  0  0  0
 10 23  1  0  0  0  0
 11 12  1  0  0  0  0
 11 24  1  0  0  0  0
 11 25  1  0  0  0  0
 12 13  1  0  0  0  0
 12 26  1  0  0  0  0
 12 27  1  0  0  0  0
 13 14  1  0  0  0  0
 13 28  1  0  0  0  0
 15 16  1  0  0  0  0
M  CHG  1   3  -1
M  CHG  1   4   1
M  END
> <s_m_source_file>
AV-unprocessed.smi

> <i_m_source_file_index>
2886

> <i_lp_mmshare_version>
43012

> <i_f3d_flags>
0

> <s_epik_input>
Tz1jMVtuSF1uW2NIXWMoYzFDbClbTkhdW0NASF0oW0NIMl1bQ0BASF0yMylbQ0BASF0oTzMpW0NIMl1bQ0gyXTI=

> <s_epik_cmdline>
J2VwaWtfcHl0aG9uJywgJy1waCcsICc3LjAnLCAnLXRuJywgJzgnLCAnLW1hJywgJzIwMCcsICctbWV0YWxfYmluZGluZycsICctaW1hZScsICc8aW5maWxlLm1hZT4nLCAnLW9tYWUnLCAnPG91dGZpbGUubWFlPic=

> <r_lp_tautomer_probability>
0.0138196

> <r_epik_Ionization_Penalty>
2.43027

> <r_epik_Ionization_Penalty_Charging>
2.43027

> <r_epik_Ionization_Penalty_Neutral>
1.33267e-06

> <r_epik_State_Penalty>
2.7044

> <r_epik_Charging_Adjusted_Penalty>
5.13467

> <i_epik_Tot_Q>
0

> <i_epik_Tot_abs_Q>
2

> <r_epik_Metal_State_Penalty>
2.98589

> <b_epik_Metal_Only>
0

> <s_lp_Force_Field>
OPLS_2005

> <r_lp_Energy>
57.8077

> <b_lp_Chiralities_Consistent>
1

> <s_lp_Variant>
AV-unprocessed.smi:2886-6

> <Gold.Version>
5.8.1

> <Gold.Id.Protein>
6NUR|6NUR_protein|mol2

> <Gold.PLP.Fitness>
37.2555

> <Gold.PLP.PLP>
-24.0919

> <Gold.PLP.part.hbond>
-3.3267

> <Gold.PLP.part.metal>
0.0000

> <Gold.PLP.part.buried>
-2.4713

> <Gold.PLP.part.nonpolar>
-19.4749

> <Gold.PLP.part.repulsive>
0.5455

> <Gold.PLP.ligand.clash>
0.0000

> <Gold.PLP.ligand.torsion>
0.0469

> <Gold.PLP.Chemscore.Hbond>
4.4160

> <Gold.PLP.Chemscore.CHOScore>
0.0000

> <Gold.PLP.Chemscore.Metal>
0.0000

> <Gold.Chemscore.Hbonds>
donor molecule, donor type, donor heavy atom, donor atom, acceptor molecule, acceptor atom, score
      L1  H     4    17       P1  7949  2.00
      P1  H  7997  8010       L1     1  0.86
      P1  H 10752 10765       L1     3  1.31

> <Gold.PLP.Chemscore.Internal.Correction>
0.0093

> <Gold.Rescore>
     Score         DG    S(hbond)    S(metal)    S(lipo)     H(rot)  DE(clash)    DE(int)     intcor
     14.71     -15.26       1.64        0.00      58.50       1.00       0.51       0.03       ----

> <Gold.Chemscore.Fitness>
14.7108

> <Gold.Chemscore.DG>
-15.2554

> <Gold.Chemscore.ZeroCoef>
-5.4800

> <Gold.Chemscore.Hbond>
1.6438

> <Gold.Chemscore.Metal>
0.0000

> <Gold.Chemscore.Lipo>
58.5039

> <Gold.Chemscore.Internal_Hbond>
0.0000

> <Gold.Chemscore.DEClash>
0.5133

> <Gold.Chemscore.DEInternal>
0.0313

> <Gold.Chemscore.Rot>
1.0000

> <Gold.Chemscore.Internal.Correction>
   9.000000E+99

> <Gold.Chemscore.Hbonds>
donor molecule, donor type, donor heavy atom, donor atom, acceptor molecule, acceptor atom, score
      L1  H     4    17       P1  7949  0.50
      P1  H  7997  8010       L1     1  0.70
      P1  H 10752 10765       L1     3  0.28

> <Gold.Chemscore.Hbond.Weighted>
-5.4904

> <Gold.Chemscore.Metal.Weighted>
-0.0000

> <Gold.Chemscore.Lipo.Weighted>
-6.8450

> <Gold.Chemscore.Internal_Hbond.Weighted>
0.0000

> <Gold.Chemscore.DEClash.Weighted>
0.5133

> <Gold.Chemscore.DEInternal.Weighted>
0.0313

> <Gold.Chemscore.Rot.Weighted>
2.5600

> <Gold.Chemscore.Internal.Correction.Weighted>
   9.000000E+99

> <Gold.Protein.RotatedTorsions>
[ 6907 6896 6895 6894 ] final  -26.77 input  -60.11 | X-H torsion
[ 7974 7965 7964 7962 ] final -111.52 input  175.53 | X-H torsion
[ 8008 7997 7996 7995 ] final   67.29 input   59.86 | X-H torsion
[ 10167 10162 10161 10158 ] final   95.21 input  -65.29 | X-H torsion
[ 10718 10713 10712 10709 ] final -130.35 input   66.30 | X-H torsion
[ 10763 10752 10751 10750 ] final  172.82 input  -60.55 | X-H torsion
[ 11005 11000 10999 10996 ] final  -68.57 input  -57.11 | X-H torsion

> <Gold.Protein.ActiveResidues>
 VAL166  LYS551  ARG553  GLY616  TRP617  ASP618  TYR619  PRO620  LYS621  CYS622 
 ASP623  PHE694  ASN695  SER759  ASP760  ASP761  ALA762  ILE779  LEU786  VAL792 
 PHE793  MET794  SER795  GLU796  ALA797  LYS798  CYS799  TRP800  GLU811  SER814 

> <Gold.Protein.RotatedAtoms>
  151.1563  135.0251  159.8690 H   0  0  0  0  0  0  0  0  0  0  0  0  # atno 6907 bound_to 6896
  152.5452  134.1331  159.8457 H   0  0  0  0  0  0  0  0  0  0  0  0  # atno 6908 bound_to 6896
  151.1421  133.4918  159.2629 H   0  0  0  0  0  0  0  0  0  0  0  0  # atno 6909 bound_to 6896
  145.1551  140.8849  143.3624 H   0  0  0  0  0  0  0  0  0  0  0  0  # atno 7974 bound_to 7965
  155.6906  140.3496  155.4892 H   0  0  0  0  0  0  0  0  0  0  0  0  # atno 8008 bound_to 7997
  155.9528  140.1122  157.0985 H   0  0  0  0  0  0  0  0  0  0  0  0  # atno 8009 bound_to 7997
  154.4125  140.1191  156.5061 H   0  0  0  0  0  0  0  0  0  0  0  0  # atno 8010 bound_to 7997
  139.8010  144.6813  150.9764 H   0  0  0  0  0  0  0  0  0  0  0  0  # atno 10167 bound_to 10162
  156.2136  130.6934  151.0677 H   0  0  0  0  0  0  0  0  0  0  0  0  # atno 10718 bound_to 10713
  154.4314  135.2760  155.1909 H   0  0  0  0  0  0  0  0  0  0  0  0  # atno 10763 bound_to 10752
  154.3814  135.6087  153.5796 H   0  0  0  0  0  0  0  0  0  0  0  0  # atno 10764 bound_to 10752
  152.9836  135.5881  154.4627 H   0  0  0  0  0  0  0  0  0  0  0  0  # atno 10765 bound_to 10752
  141.1535  133.6744  156.6466 H   0  0  0  0  0  0  0  0  0  0  0  0  # atno 11005 bound_to 11000
  145.0390  139.3276  143.5986 LP  0  0  0  0  0  0  0  0  0  0  0  0  # atno 17320 bound_to 7965
  146.3490  139.9756  142.8701 LP  0  0  0  0  0  0  0  0  0  0  0  0  # atno 17321 bound_to 7965
  140.7820  143.4281  151.0736 LP  0  0  0  0  0  0  0  0  0  0  0  0  # atno 17342 bound_to 10162
  139.7953  143.8160  152.3157 LP  0  0  0  0  0  0  0  0  0  0  0  0  # atno 17343 bound_to 10162
  157.7051  131.0760  150.6693 LP  0  0  0  0  0  0  0  0  0  0  0  0  # atno 17370 bound_to 10713
  156.6753  130.4551  149.5644 LP  0  0  0  0  0  0  0  0  0  0  0  0  # atno 17371 bound_to 10713
  140.3352  134.7895  157.4357 LP  0  0  0  0  0  0  0  0  0  0  0  0  # atno 17394 bound_to 11000
  140.0983  134.5507  155.8377 LP  0  0  0  0  0  0  0  0  0  0  0  0  # atno 17395 bound_to 11000

$$$$
