AV-unprocessed.smi:55|AV-procd|sdf|563|dock2
  -GOLD-   2262016463D 1   1.00000     0.00000
 Structure written by MMmdl.
 31 32  0  0  0  0  0  0  0  0  1 V2000
  151.5877  144.6584  158.4891 C   0  0  0  0  0  0  0  0  0  0  0  0
  151.5992  143.1419  158.3899 C   0  0  0  0  0  0  0  0  0  0  0  0
  150.6303  142.4473  157.7403 C   0  0  0  0  0  0  0  0  0  0  0  0
  150.6086  141.0625  157.6297 N   0  0  0  0  0  0  0  0  0  0  0  0
  149.4441  140.3438  156.9782 C   0  0  2  0  0  0  0  0  0  0  0  0
  149.8542  139.3145  155.9079 C   0  0  0  0  0  0  0  0  0  0  0  0
  149.1849  139.8378  154.6444 C   0  0  2  0  0  0  0  0  0  0  0  0
  150.1123  140.5225  153.8241 O   0  0  0  0  0  0  0  0  0  0  0  0
  148.0845  140.7638  155.1874 C   0  0  2  0  0  0  0  0  0  0  0  0
  147.5855  141.8803  154.2537 C   0  0  0  0  0  0  0  0  0  0  0  0
  148.5699  142.8828  154.1169 O   0  0  0  0  0  0  0  0  0  0  0  0
  148.6415  141.3082  156.3748 O   0  0  0  0  0  0  0  0  0  0  0  0
  151.5858  140.3108  158.3197 C   0  0  0  0  0  0  0  0  0  0  0  0
  151.5875  139.0810  158.3595 O   0  0  0  0  0  0  0  0  0  0  0  0
  152.5903  141.0224  158.9737 N   0  0  0  0  0  0  0  0  0  0  0  0
  152.6863  142.4133  159.0472 C   0  0  0  0  0  0  0  0  0  0  0  0
  153.6307  142.9270  159.6446 O   0  0  0  0  0  0  0  0  0  0  0  0
  148.8837  139.8463  157.7709 H   0  0  0  0  0  0  0  0  0  0  0  0
  148.7587  139.0252  154.0554 H   0  0  0  0  0  0  0  0  0  0  0  0
  147.2354  140.1499  155.4945 H   0  0  0  0  0  0  0  0  0  0  0  0
  153.3030  140.4856  159.4462 H   0  0  0  0  0  0  0  0  0  0  0  0
  150.7340  145.0919  157.9674 H   0  0  0  0  0  0  0  0  0  0  0  0
  152.4948  145.0760  158.0505 H   0  0  0  0  0  0  0  0  0  0  0  0
  151.5356  144.9714  159.5324 H   0  0  0  0  0  0  0  0  0  0  0  0
  149.8252  143.0140  157.3004 H   0  0  0  0  0  0  0  0  0  0  0  0
  150.9325  139.1771  155.8259 H   0  0  0  0  0  0  0  0  0  0  0  0
  149.4243  138.3513  156.1866 H   0  0  0  0  0  0  0  0  0  0  0  0
  149.8223  140.4567  152.9269 H   0  0  0  0  0  0  0  0  0  0  0  0
  147.3752  141.4697  153.2659 H   0  0  0  0  0  0  0  0  0  0  0  0
  146.6569  142.3218  154.6164 H   0  0  0  0  0  0  0  0  0  0  0  0
  148.9407  143.0573  154.9687 H   0  0  0  0  0  0  0  0  0  0  0  0
  1  2  1  0  0  0  0
  1 22  1  0  0  0  0
  1 23  1  0  0  0  0
  1 24  1  0  0  0  0
  2 16  1  0  0  0  0
  2  3  2  0  0  0  0
  3  4  1  0  0  0  0
  3 25  1  0  0  0  0
  4  5  1  0  0  0  0
  4 13  1  0  0  0  0
  5 18  1  0  0  0  0
  5 12  1  0  0  0  0
  5  6  1  0  0  0  0
  6  7  1  0  0  0  0
  6 26  1  0  0  0  0
  6 27  1  0  0  0  0
  7 19  1  0  0  0  0
  7  8  1  0  0  0  0
  7  9  1  0  0  0  0
  8 28  1  0  0  0  0
  9 20  1  0  0  0  0
  9 10  1  0  0  0  0
  9 12  1  0  0  0  0
 10 11  1  0  0  0  0
 10 29  1  0  0  0  0
 10 30  1  0  0  0  0
 11 31  1  0  0  0  0
 13 14  2  0  0  0  0
 13 15  1  0  0  0  0
 15 21  1  0  0  0  0
 15 16  1  0  0  0  0
 16 17  2  0  0  0  0
M  END
> <s_m_source_file>
AV-unprocessed.smi

> <i_m_source_file_index>
55

> <i_lp_mmshare_version>
43012

> <i_f3d_flags>
0

> <s_epik_input>
Tz1jMVtuSF1jKD1PKW4oW2NIXWMxW0NIM10pW0NAQEhdMltDSDJdW0NAQEhdKFtPSF0pW0NAQEhdKE8yKVtDSDJdW09IXQ==

> <s_epik_cmdline>
J2VwaWtfcHl0aG9uJywgJy1waCcsICc3LjAnLCAnLXRuJywgJzgnLCAnLW1hJywgJzIwMCcsICctbWV0YWxfYmluZGluZycsICctaW1hZScsICc8aW5maWxlLm1hZT4nLCAnLW9tYWUnLCAnPG91dGZpbGUubWFlPic=

> <r_lp_tautomer_probability>
0.999537

> <r_epik_Ionization_Penalty>
0.00121888

> <r_epik_Ionization_Penalty_Charging>
0.00121876

> <r_epik_Ionization_Penalty_Neutral>
1.19946e-07

> <r_epik_State_Penalty>
0.000805124

> <r_epik_Charging_Adjusted_Penalty>
0.00202389

> <i_epik_Tot_Q>
0

> <i_epik_Tot_abs_Q>
0

> <r_epik_Metal_State_Penalty>
0.662472

> <b_epik_Metal_Only>
0

> <s_epik_Chemistry_Notes>
This compound contains an acetal/aminal-like group ( X-CH(R)-Y where X, Y are N, S, or O) that may be acid/base labile, releasing an aldehyde.

> <s_lp_Force_Field>
OPLS_2005

> <r_lp_Energy>
26.1821

> <b_lp_Chiralities_Consistent>
1

> <s_lp_Variant>
AV-unprocessed.smi:55-3

> <Gold.Version>
5.8.1

> <Gold.Id.Protein>
6NUR|6NUR_protein|mol2

> <Gold.PLP.Fitness>
40.4274

> <Gold.PLP.PLP>
-29.8873

> <Gold.PLP.part.hbond>
-4.0865

> <Gold.PLP.part.metal>
0.0000

> <Gold.PLP.part.buried>
-2.5579

> <Gold.PLP.part.nonpolar>
-21.2119

> <Gold.PLP.part.repulsive>
0.1958

> <Gold.PLP.ligand.clash>
0.0000

> <Gold.PLP.ligand.torsion>
0.1675

> <Gold.PLP.Chemscore.Hbond>
2.5916

> <Gold.PLP.Chemscore.CHOScore>
1.0000

> <Gold.PLP.Chemscore.Metal>
0.0000

> <Gold.Chemscore.Hbonds>
donor molecule, donor type, donor heavy atom, donor atom, acceptor molecule, acceptor atom, score
      L1  H     8    28       P1  7957  1.00
      L1  H    11    31       P1  8028  0.38
      P1  H  7989  7998       L1     8  0.49
      P1  H  8022  8030       L1    11  0.65
      L1  C     3    25       P1  8028  0.98

> <Gold.PLP.Chemscore.Internal.Correction>
0.1003

> <Gold.Rescore>
     Score         DG    S(hbond)    S(metal)    S(lipo)     H(rot)  DE(clash)    DE(int)     intcor
      8.91     -10.16       1.71        0.00      50.68       2.73       0.03       1.22       ----

> <Gold.Chemscore.Fitness>
8.9108

> <Gold.Chemscore.DG>
-10.1606

> <Gold.Chemscore.ZeroCoef>
-5.4800

> <Gold.Chemscore.Hbond>
1.7150

> <Gold.Chemscore.Metal>
0.0000

> <Gold.Chemscore.Lipo>
50.6784

> <Gold.Chemscore.Internal_Hbond>
0.0000

> <Gold.Chemscore.DEClash>
0.0274

> <Gold.Chemscore.DEInternal>
1.2224

> <Gold.Chemscore.Rot>
2.7253

> <Gold.Chemscore.Internal.Correction>
   9.000000E+99

> <Gold.Chemscore.Hbonds>
donor molecule, donor type, donor heavy atom, donor atom, acceptor molecule, acceptor atom, score
      L1  H     8    28       P1  7957  1.00
      L1  H    11    31       P1  8028  0.38
      P1  H  7989  7998       L1     8  0.06
      P1  H  8011  8017       L1    11  0.01
      P1  H  8022  8030       L1    11  0.05

> <Gold.Chemscore.Hbond.Weighted>
-5.7281

> <Gold.Chemscore.Metal.Weighted>
-0.0000

> <Gold.Chemscore.Lipo.Weighted>
-5.9294

> <Gold.Chemscore.Internal_Hbond.Weighted>
0.0000

> <Gold.Chemscore.DEClash.Weighted>
0.0274

> <Gold.Chemscore.DEInternal.Weighted>
1.2224

> <Gold.Chemscore.Rot.Weighted>
6.9769

> <Gold.Chemscore.Internal.Correction.Weighted>
   9.000000E+99

> <Gold.Protein.RotatedTorsions>
[ 6907 6896 6895 6894 ] final  -88.69 input  -60.11 | X-H torsion
[ 7974 7965 7964 7962 ] final -168.14 input  175.53 | X-H torsion
[ 8008 7997 7996 7995 ] final   53.73 input   59.86 | X-H torsion
[ 10167 10162 10161 10158 ] final  -19.85 input  -65.29 | X-H torsion
[ 10718 10713 10712 10709 ] final   72.82 input   66.30 | X-H torsion
[ 10763 10752 10751 10750 ] final   24.89 input  -60.55 | X-H torsion
[ 11005 11000 10999 10996 ] final  -70.47 input  -57.11 | X-H torsion

> <Gold.Protein.ActiveResidues>
 VAL166  LYS551  ARG553  GLY616  TRP617  ASP618  TYR619  PRO620  LYS621  CYS622 
 ASP623  PHE694  ASN695  SER759  ASP760  ASP761  ALA762  ILE779  LEU786  VAL792 
 PHE793  MET794  SER795  GLU796  ALA797  LYS798  CYS799  TRP800  GLU811  SER814 

> <Gold.Protein.RotatedAtoms>
  150.6870  134.2703  159.4585 H   0  0  0  0  0  0  0  0  0  0  0  0  # atno 6907 bound_to 6896
  152.0626  134.9582  160.0584 H   0  0  0  0  0  0  0  0  0  0  0  0  # atno 6908 bound_to 6896
  152.1003  133.4211  159.4621 H   0  0  0  0  0  0  0  0  0  0  0  0  # atno 6909 bound_to 6896
  144.7209  140.2414  143.6291 H   0  0  0  0  0  0  0  0  0  0  0  0  # atno 7974 bound_to 7965
  155.4730  140.3466  155.4328 H   0  0  0  0  0  0  0  0  0  0  0  0  # atno 8008 bound_to 7997
  156.1088  140.1455  156.9396 H   0  0  0  0  0  0  0  0  0  0  0  0  # atno 8009 bound_to 7997
  154.4742  140.0890  156.7199 H   0  0  0  0  0  0  0  0  0  0  0  0  # atno 8010 bound_to 7997
  140.7272  143.4779  151.0158 H   0  0  0  0  0  0  0  0  0  0  0  0  # atno 10167 bound_to 10162
  157.6519  130.9598  150.0982 H   0  0  0  0  0  0  0  0  0  0  0  0  # atno 10718 bound_to 10713
  153.0731  135.6595  154.0204 H   0  0  0  0  0  0  0  0  0  0  0  0  # atno 10763 bound_to 10752
  153.9844  135.2952  155.3419 H   0  0  0  0  0  0  0  0  0  0  0  0  # atno 10764 bound_to 10752
  154.7112  135.5204  153.8739 H   0  0  0  0  0  0  0  0  0  0  0  0  # atno 10765 bound_to 10752
  141.1574  133.6791  156.6758 H   0  0  0  0  0  0  0  0  0  0  0  0  # atno 11005 bound_to 11000
  145.8316  139.2088  143.1879 LP  0  0  0  0  0  0  0  0  0  0  0  0  # atno 17320 bound_to 7965
  146.0426  140.8150  142.9821 LP  0  0  0  0  0  0  0  0  0  0  0  0  # atno 17321 bound_to 7965
  139.8475  143.7482  152.3179 LP  0  0  0  0  0  0  0  0  0  0  0  0  # atno 17342 bound_to 10162
  139.7652  144.7494  151.0305 LP  0  0  0  0  0  0  0  0  0  0  0  0  # atno 17343 bound_to 10162
  156.1912  130.3655  149.8907 LP  0  0  0  0  0  0  0  0  0  0  0  0  # atno 17370 bound_to 10713
  156.6835  130.8867  151.3579 LP  0  0  0  0  0  0  0  0  0  0  0  0  # atno 17371 bound_to 10713
  140.3140  134.8062  157.4199 LP  0  0  0  0  0  0  0  0  0  0  0  0  # atno 17394 bound_to 11000
  140.1154  134.5290  155.8229 LP  0  0  0  0  0  0  0  0  0  0  0  0  # atno 17395 bound_to 11000

$$$$
