AV-unprocessed.smi:3278|AV-procd|sdf|12546|dock4
  -GOLD-   2272018463D 1   1.00000     0.00000
 Structure written by MMmdl.
 38 39  0  0  0  0  0  0  0  0  1 V2000
  145.6002  143.2166  154.4415 C   0  0  0  0  0  0  0  0  0  0  0  0
  146.6134  142.1942  154.2934 N   0  0  0  0  0  0  0  0  0  0  0  0
  147.7603  142.0057  155.0337 C   0  0  0  0  0  0  0  0  0  0  0  0
  148.4053  140.9108  154.5274 C   0  0  0  0  0  0  0  0  0  0  0  0
  149.7035  140.2718  154.9739 C   0  0  1  0  0  0  0  0  0  0  0  0
  149.4060  138.9454  155.6935 C   0  0  0  0  0  0  0  0  0  0  0  0
  150.5380  139.9323  153.8816 O   0  0  0  0  0  0  0  0  0  0  0  0
  150.5165  141.2040  155.8999 C   0  0  0  0  0  0  0  0  0  0  0  0
  149.9236  141.3078  157.2366 N   0  0  0  0  0  0  0  0  0  0  0  0
  150.6825  142.0890  158.2176 C   0  0  1  0  0  0  0  0  0  0  0  0
  151.7803  141.2438  158.9059 C   0  0  0  0  0  0  0  0  0  0  0  0
  152.5643  142.0314  159.9687 C   0  0  0  0  0  0  0  0  0  0  0  0
  153.2892  143.2511  159.3863 C   0  0  0  0  0  0  0  0  0  0  0  0
  152.1094  144.4309  158.6820 S   0  0  0  0  0  0  0  0  0  0  0  0
  151.2903  143.3148  157.5112 C   0  0  0  0  0  0  0  0  0  0  0  0
  147.5532  140.4993  153.4608 C   0  0  0  0  0  0  0  0  0  0  0  0
  146.4844  141.2666  153.3238 N   0  0  0  0  0  0  0  0  0  0  0  0
  145.9171  143.9526  155.1808 H   0  0  0  0  0  0  0  0  0  0  0  0
  144.6647  142.7628  154.7700 H   0  0  0  0  0  0  0  0  0  0  0  0
  145.4392  143.7204  153.4878 H   0  0  0  0  0  0  0  0  0  0  0  0
  148.0210  142.6585  155.8537 H   0  0  0  0  0  0  0  0  0  0  0  0
  148.7900  139.1042  156.5793 H   0  0  0  0  0  0  0  0  0  0  0  0
  150.3227  138.4520  156.0184 H   0  0  0  0  0  0  0  0  0  0  0  0
  148.8712  138.2524  155.0428 H   0  0  0  0  0  0  0  0  0  0  0  0
  149.9982  139.8306  153.1127 H   0  0  0  0  0  0  0  0  0  0  0  0
  151.5332  140.8197  155.9917 H   0  0  0  0  0  0  0  0  0  0  0  0
  150.6001  142.1847  155.4325 H   0  0  0  0  0  0  0  0  0  0  0  0
  148.9783  141.6700  157.1607 H   0  0  0  0  0  0  0  0  0  0  0  0
  149.9935  142.4504  158.9822 H   0  0  0  0  0  0  0  0  0  0  0  0
  151.3421  140.3780  159.4002 H   0  0  0  0  0  0  0  0  0  0  0  0
  152.4708  140.8519  158.1578 H   0  0  0  0  0  0  0  0  0  0  0  0
  151.8891  142.3498  160.7636 H   0  0  0  0  0  0  0  0  0  0  0  0
  153.2949  141.3712  160.4366 H   0  0  0  0  0  0  0  0  0  0  0  0
  153.8661  143.7547  160.1622 H   0  0  0  0  0  0  0  0  0  0  0  0
  153.9923  142.9433  158.6120 H   0  0  0  0  0  0  0  0  0  0  0  0
  152.0127  143.0049  156.7548 H   0  0  0  0  0  0  0  0  0  0  0  0
  150.5129  143.8794  156.9957 H   0  0  0  0  0  0  0  0  0  0  0  0
  147.6809  139.6658  152.7858 H   0  0  0  0  0  0  0  0  0  0  0  0
  1  2  1  0  0  0  0
  1 18  1  0  0  0  0
  1 19  1  0  0  0  0
  1 20  1  0  0  0  0
  2 17  1  0  0  0  0
  2  3  1  0  0  0  0
  3  4  2  0  0  0  0
  3 21  1  0  0  0  0
  4  5  1  0  0  0  0
  4 16  1  0  0  0  0
  5  6  1  0  0  0  0
  5  7  1  0  0  0  0
  5  8  1  0  0  0  0
  6 22  1  0  0  0  0
  6 23  1  0  0  0  0
  6 24  1  0  0  0  0
  7 25  1  0  0  0  0
  8  9  1  0  0  0  0
  8 26  1  0  0  0  0
  8 27  1  0  0  0  0
  9 10  1  0  0  0  0
  9 28  1  0  0  0  0
 10 15  1  0  0  0  0
 10 11  1  0  0  0  0
 10 29  1  0  0  0  0
 11 12  1  0  0  0  0
 11 30  1  0  0  0  0
 11 31  1  0  0  0  0
 12 13  1  0  0  0  0
 12 32  1  0  0  0  0
 12 33  1  0  0  0  0
 13 14  1  0  0  0  0
 13 34  1  0  0  0  0
 13 35  1  0  0  0  0
 14 15  1  0  0  0  0
 15 36  1  0  0  0  0
 15 37  1  0  0  0  0
 16 17  2  0  0  0  0
 16 38  1  0  0  0  0
M  END
> <s_m_source_file>
AV-unprocessed.smi

> <i_m_source_file_index>
3278

> <i_lp_mmshare_version>
43012

> <i_f3d_flags>
0

> <s_epik_input>
W0NIM11uMVtjSF1jKFtjSF1uMSlbQ0BAXShbQ0gzXSkoW09IXSlbQ0gyXVtOSF1bQ0BASF0yW0NIMl1bQ0gyXVtDSDJdU1tDSDJdMg==

> <s_epik_cmdline>
J2VwaWtfcHl0aG9uJywgJy1waCcsICc3LjAnLCAnLXRuJywgJzgnLCAnLW1hJywgJzIwMCcsICctbWV0YWxfYmluZGluZycsICctaW1hZScsICc8aW5maWxlLm1hZT4nLCAnLW9tYWUnLCAnPG91dGZpbGUubWFlPic=

> <r_lp_tautomer_probability>
1

> <r_epik_Ionization_Penalty>
2.06123

> <r_epik_Ionization_Penalty_Charging>
0

> <r_epik_Ionization_Penalty_Neutral>
2.06123

> <r_epik_State_Penalty>
2.1944

> <r_epik_Charging_Adjusted_Penalty>
2.1944

> <i_epik_Tot_Q>
0

> <i_epik_Tot_abs_Q>
0

> <r_epik_Metal_State_Penalty>
2.19434

> <b_epik_Metal_Only>
0

> <s_lp_Force_Field>
OPLS_2005

> <r_lp_Energy>
12.2085

> <b_lp_Chiralities_Consistent>
1

> <s_lp_Variant>
AV-unprocessed.smi:3278-7

> <Gold.Version>
5.8.1

> <Gold.Id.Protein>
6NUR|6NUR_protein|mol2

> <Gold.PLP.Fitness>
46.6392

> <Gold.PLP.PLP>
-37.6245

> <Gold.PLP.part.hbond>
-1.8105

> <Gold.PLP.part.metal>
0.0000

> <Gold.PLP.part.buried>
0.8097

> <Gold.PLP.part.nonpolar>
-37.3905

> <Gold.PLP.part.repulsive>
0.7327

> <Gold.PLP.ligand.clash>
0.0000

> <Gold.PLP.ligand.torsion>
0.9236

> <Gold.PLP.Chemscore.Hbond>
2.0000

> <Gold.PLP.Chemscore.CHOScore>
1.6097

> <Gold.PLP.Chemscore.Metal>
0.0000

> <Gold.Chemscore.Hbonds>
donor molecule, donor type, donor heavy atom, donor atom, acceptor molecule, acceptor atom, score
      L1  H     7    25       P1  7957  1.00
      P1  H  7989  7998       L1     7  0.88
      L1  C     3    21       P1  8028  0.91
      L1  C    16    38       P1  7957  0.64

> <Gold.PLP.Chemscore.Internal.Correction>
0.0328

> <Gold.Rescore>
     Score         DG    S(hbond)    S(metal)    S(lipo)     H(rot)  DE(clash)    DE(int)     intcor
     15.40     -17.54       1.35        0.00     106.77       1.93       1.17       0.97       ----

> <Gold.Chemscore.Fitness>
15.4037

> <Gold.Chemscore.DG>
-17.5359

> <Gold.Chemscore.ZeroCoef>
-5.4800

> <Gold.Chemscore.Hbond>
1.3508

> <Gold.Chemscore.Metal>
0.0000

> <Gold.Chemscore.Lipo>
106.7730

> <Gold.Chemscore.Internal_Hbond>
0.0000

> <Gold.Chemscore.DEClash>
1.1668

> <Gold.Chemscore.DEInternal>
0.9653

> <Gold.Chemscore.Rot>
1.9329

> <Gold.Chemscore.Internal.Correction>
   9.000000E+99

> <Gold.Chemscore.Hbonds>
donor molecule, donor type, donor heavy atom, donor atom, acceptor molecule, acceptor atom, score
      L1  H     7    25       P1  7957  0.94
      P1  H  7989  7998       L1     7  0.40

> <Gold.Chemscore.Hbond.Weighted>
-4.5117

> <Gold.Chemscore.Metal.Weighted>
-0.0000

> <Gold.Chemscore.Lipo.Weighted>
-12.4924

> <Gold.Chemscore.Internal_Hbond.Weighted>
0.0000

> <Gold.Chemscore.DEClash.Weighted>
1.1668

> <Gold.Chemscore.DEInternal.Weighted>
0.9653

> <Gold.Chemscore.Rot.Weighted>
4.9483

> <Gold.Chemscore.Internal.Correction.Weighted>
   9.000000E+99

> <Gold.Protein.RotatedTorsions>
[ 6907 6896 6895 6894 ] final   24.52 input  -60.11 | X-H torsion
[ 7974 7965 7964 7962 ] final   61.11 input  175.53 | X-H torsion
[ 8008 7997 7996 7995 ] final  -67.72 input   59.86 | X-H torsion
[ 10167 10162 10161 10158 ] final  172.07 input  -65.29 | X-H torsion
[ 10718 10713 10712 10709 ] final  127.73 input   66.30 | X-H torsion
[ 10763 10752 10751 10750 ] final -123.67 input  -60.55 | X-H torsion
[ 11005 11000 10999 10996 ] final   85.66 input  -57.11 | X-H torsion

> <Gold.Protein.ActiveResidues>
 VAL166  LYS551  ARG553  GLY616  TRP617  ASP618  TYR619  PRO620  LYS621  CYS622 
 ASP623  PHE694  ASN695  SER759  ASP760  ASP761  ALA762  ILE779  LEU786  VAL792 
 PHE793  MET794  SER795  GLU796  ALA797  LYS798  CYS799  TRP800  GLU811  SER814 

> <Gold.Protein.RotatedAtoms>
  151.9587  135.0134  160.0546 H   0  0  0  0  0  0  0  0  0  0  0  0  # atno 6907 bound_to 6896
  152.1888  133.4754  159.5005 H   0  0  0  0  0  0  0  0  0  0  0  0  # atno 6908 bound_to 6896
  150.6931  134.1656  159.4235 H   0  0  0  0  0  0  0  0  0  0  0  0  # atno 6909 bound_to 6896
  145.8885  139.3493  143.0664 H   0  0  0  0  0  0  0  0  0  0  0  0  # atno 7974 bound_to 7965
  154.4819  140.0887  156.7397 H   0  0  0  0  0  0  0  0  0  0  0  0  # atno 8008 bound_to 7997
  155.4449  140.3455  155.4276 H   0  0  0  0  0  0  0  0  0  0  0  0  # atno 8009 bound_to 7997
  156.1204  140.1472  156.9201 H   0  0  0  0  0  0  0  0  0  0  0  0  # atno 8010 bound_to 7997
  139.5065  144.3415  152.0013 H   0  0  0  0  0  0  0  0  0  0  0  0  # atno 10167 bound_to 10162
  157.5307  131.1098  150.9013 H   0  0  0  0  0  0  0  0  0  0  0  0  # atno 10718 bound_to 10713
  154.8711  135.4090  154.2980 H   0  0  0  0  0  0  0  0  0  0  0  0  # atno 10763 bound_to 10752
  153.3845  135.7012  153.6546 H   0  0  0  0  0  0  0  0  0  0  0  0  # atno 10764 bound_to 10752
  153.5355  135.3659  155.2666 H   0  0  0  0  0  0  0  0  0  0  0  0  # atno 10765 bound_to 10752
  139.8965  134.8302  156.2613 H   0  0  0  0  0  0  0  0  0  0  0  0  # atno 11005 bound_to 11000
  145.8938  140.9287  143.0538 LP  0  0  0  0  0  0  0  0  0  0  0  0  # atno 17320 bound_to 7965
  144.6729  140.0941  143.7464 LP  0  0  0  0  0  0  0  0  0  0  0  0  # atno 17321 bound_to 7965
  140.2853  144.3814  150.6106 LP  0  0  0  0  0  0  0  0  0  0  0  0  # atno 17342 bound_to 10162
  140.5987  143.2167  151.7113 LP  0  0  0  0  0  0  0  0  0  0  0  0  # atno 17343 bound_to 10162
  156.9596  130.5450  149.5285 LP  0  0  0  0  0  0  0  0  0  0  0  0  # atno 17370 bound_to 10713
  156.0420  130.5501  150.8793 LP  0  0  0  0  0  0  0  0  0  0  0  0  # atno 17371 bound_to 10713
  141.0160  133.7068  156.1190 LP  0  0  0  0  0  0  0  0  0  0  0  0  # atno 17394 bound_to 11000
  140.7300  134.4265  157.5567 LP  0  0  0  0  0  0  0  0  0  0  0  0  # atno 17395 bound_to 11000

$$$$
