AV-unprocessed.smi:148|AV-procd|sdf|1208|dock10
  -GOLD-   2262018383D 1   1.00000     0.00000
 Structure written by MMmdl.
 63 67  0  0  0  0  0  0  0  0  1 V2000
  147.5678  134.6283  153.9327 O   0  0  0  0  0  0  0  0  0  0  0  0
  148.8617  135.1707  153.7708 C   0  0  0  0  0  0  0  0  0  0  0  0
  149.9522  134.1412  154.1451 C   0  0  2  0  0  0  0  0  0  0  0  0
  151.3072  134.8364  154.4373 C   0  0  0  0  0  0  0  0  0  0  0  0
  151.1565  136.0704  155.1880 N   0  0  0  0  0  0  0  0  0  0  0  0
  150.5756  136.2205  156.4281 C   0  0  0  0  0  0  0  0  0  0  0  0
  150.5518  137.4421  156.8879 N   0  0  0  0  0  0  0  0  0  0  0  0
  151.1581  138.1883  155.8859 C   0  0  0  0  0  0  0  0  0  0  0  0
  151.4484  139.5674  155.7214 C   0  0  0  0  0  0  0  0  0  0  0  0
  151.1259  140.4816  156.6620 N   0  0  0  0  0  0  0  0  0  0  0  0
  152.3356  140.9214  157.3609 C   0  0  0  0  0  0  0  0  0  0  0  0
  151.9948  141.7317  158.6149 C   0  0  0  0  0  0  0  0  0  0  0  0
  151.1024  142.9148  158.2384 C   0  0  0  0  0  0  0  0  0  0  0  0
  149.8501  142.4111  157.5096 C   0  0  0  0  0  0  0  0  0  0  0  0
  150.1837  141.5480  156.2617 C   0  0  2  0  0  0  0  0  0  0  0  0
  148.8644  141.0114  155.6015 C   0  0  1  0  0  0  0  0  0  0  0  0
  147.7771  142.0740  155.3490 C   0  0  0  0  0  0  0  0  0  0  0  0
  146.8016  141.4674  154.3338 C   0  0  0  0  0  0  0  0  0  0  0  0
  147.5339  140.2837  153.6925 C   0  0  0  0  0  0  0  0  0  0  0  0
  148.9747  140.3451  154.2101 C   0  0  1  0  0  0  0  0  0  0  0  0
  149.7435  141.1339  153.3208 O   0  0  0  0  0  0  0  0  0  0  0  0
  152.0746  139.9575  154.5795 N   0  0  0  0  0  0  0  0  0  0  0  0
  152.3783  139.0515  153.6450 C   0  0  0  0  0  0  0  0  0  0  0  0
  152.1555  137.7348  153.6543 N   0  0  0  0  0  0  0  0  0  0  0  0
  151.5413  137.3437  154.8081 C   0  0  0  0  0  0  0  0  0  0  0  0
  150.0603  132.9996  153.0970 C   0  0  2  0  0  0  0  0  0  0  0  0
  148.8447  132.0745  153.0070 C   0  0  0  0  0  0  0  0  0  0  0  0
  149.4357  130.6689  153.1102 C   0  0  0  0  0  0  0  0  0  0  0  0
  150.7770  130.8312  152.6792 O   0  0  0  0  0  0  0  0  0  0  0  0
  151.2442  132.0359  153.2625 C   0  0  0  0  0  0  0  0  0  0  0  0
  147.6384  133.8199  154.4174 H   0  0  0  0  0  0  0  0  0  0  0  0
  148.9852  135.5136  152.7433 H   0  0  0  0  0  0  0  0  0  0  0  0
  148.9209  136.0528  154.4081 H   0  0  0  0  0  0  0  0  0  0  0  0
  149.6311  133.6680  155.0744 H   0  0  0  0  0  0  0  0  0  0  0  0
  151.9714  134.1894  155.0087 H   0  0  0  0  0  0  0  0  0  0  0  0
  151.8291  135.0678  153.5090 H   0  0  0  0  0  0  0  0  0  0  0  0
  150.1695  135.3895  156.9866 H   0  0  0  0  0  0  0  0  0  0  0  0
  152.9388  140.0566  157.6430 H   0  0  0  0  0  0  0  0  0  0  0  0
  152.9450  141.5286  156.6896 H   0  0  0  0  0  0  0  0  0  0  0  0
  151.4850  141.0958  159.3398 H   0  0  0  0  0  0  0  0  0  0  0  0
  152.9083  142.0855  159.0934 H   0  0  0  0  0  0  0  0  0  0  0  0
  150.8202  143.4734  159.1311 H   0  0  0  0  0  0  0  0  0  0  0  0
  151.6517  143.6044  157.5963 H   0  0  0  0  0  0  0  0  0  0  0  0
  149.2419  141.8291  158.2036 H   0  0  0  0  0  0  0  0  0  0  0  0
  149.2565  143.2819  157.2326 H   0  0  0  0  0  0  0  0  0  0  0  0
  150.6989  142.1953  155.5507 H   0  0  0  0  0  0  0  0  0  0  0  0
  148.4277  140.2790  156.2833 H   0  0  0  0  0  0  0  0  0  0  0  0
  147.2647  142.3727  156.2642 H   0  0  0  0  0  0  0  0  0  0  0  0
  148.2270  142.9696  154.9179 H   0  0  0  0  0  0  0  0  0  0  0  0
  145.8920  141.1233  154.8275 H   0  0  0  0  0  0  0  0  0  0  0  0
  146.5087  142.2079  153.5889 H   0  0  0  0  0  0  0  0  0  0  0  0
  147.0710  139.3558  154.0308 H   0  0  0  0  0  0  0  0  0  0  0  0
  147.4730  140.2917  152.6035 H   0  0  0  0  0  0  0  0  0  0  0  0
  149.3962  139.3427  154.2437 H   0  0  0  0  0  0  0  0  0  0  0  0
  149.7000  140.7439  152.4612 H   0  0  0  0  0  0  0  0  0  0  0  0
  152.8663  139.4377  152.7624 H   0  0  0  0  0  0  0  0  0  0  0  0
  150.1583  133.4527  152.1095 H   0  0  0  0  0  0  0  0  0  0  0  0
  148.0906  132.2525  153.7734 H   0  0  0  0  0  0  0  0  0  0  0  0
  148.3543  132.2049  152.0414 H   0  0  0  0  0  0  0  0  0  0  0  0
  149.4282  130.3222  154.1451 H   0  0  0  0  0  0  0  0  0  0  0  0
  148.9005  129.9401  152.5009 H   0  0  0  0  0  0  0  0  0  0  0  0
  152.1472  132.3939  152.7673 H   0  0  0  0  0  0  0  0  0  0  0  0
  151.4858  131.8426  154.3071 H   0  0  0  0  0  0  0  0  0  0  0  0
  1  2  1  0  0  0  0
  1 31  1  0  0  0  0
  2  3  1  0  0  0  0
  2 32  1  0  0  0  0
  2 33  1  0  0  0  0
  3  4  1  0  0  0  0
  3 26  1  0  0  0  0
  3 34  1  0  0  0  0
  4  5  1  0  0  0  0
  4 35  1  0  0  0  0
  4 36  1  0  0  0  0
  5 25  1  0  0  0  0
  5  6  1  0  0  0  0
  6  7  2  0  0  0  0
  6 37  1  0  0  0  0
  7  8  1  0  0  0  0
  8 25  2  0  0  0  0
  8  9  1  0  0  0  0
  9 10  1  0  0  0  0
  9 22  2  0  0  0  0
 10 15  1  0  0  0  0
 10 11  1  0  0  0  0
 11 12  1  0  0  0  0
 11 38  1  0  0  0  0
 11 39  1  0  0  0  0
 12 13  1  0  0  0  0
 12 40  1  0  0  0  0
 12 41  1  0  0  0  0
 13 14  1  0  0  0  0
 13 42  1  0  0  0  0
 13 43  1  0  0  0  0
 14 15  1  0  0  0  0
 14 44  1  0  0  0  0
 14 45  1  0  0  0  0
 15 16  1  0  0  0  0
 15 46  1  0  0  0  0
 16 20  1  0  0  0  0
 16 17  1  0  0  0  0
 16 47  1  0  0  0  0
 17 18  1  0  0  0  0
 17 48  1  0  0  0  0
 17 49  1  0  0  0  0
 18 19  1  0  0  0  0
 18 50  1  0  0  0  0
 18 51  1  0  0  0  0
 19 20  1  0  0  0  0
 19 52  1  0  0  0  0
 19 53  1  0  0  0  0
 20 21  1  0  0  0  0
 20 54  1  0  0  0  0
 21 55  1  0  0  0  0
 22 23  1  0  0  0  0
 23 24  2  0  0  0  0
 23 56  1  0  0  0  0
 24 25  1  0  0  0  0
 26 30  1  0  0  0  0
 26 27  1  0  0  0  0
 26 57  1  0  0  0  0
 27 28  1  0  0  0  0
 27 58  1  0  0  0  0
 27 59  1  0  0  0  0
 28 29  1  0  0  0  0
 28 60  1  0  0  0  0
 28 61  1  0  0  0  0
 29 30  1  0  0  0  0
 30 62  1  0  0  0  0
 30 63  1  0  0  0  0
M  END
> <s_m_source_file>
AV-unprocessed.smi

> <i_m_source_file_index>
148

> <i_lp_mmshare_version>
43012

> <i_f3d_flags>
0

> <s_epik_input>
W0NIMl0xT1tDSDJdW0NIMl1bQ0BIXTFbQ0BIXShbQ0gyXVtPSF0pW0NIMl1uKFtjSF1uMiljKGMyMyluW2NIXW5jM040W0NIMl1bQ0gyXVtDSDJdW0NIMl1bQ0BIXTRbQ0BASF01W0NIMl1bQ0gyXVtDSDJdW0NASF01W09IXQ==

> <s_epik_cmdline>
J2VwaWtfcHl0aG9uJywgJy1waCcsICc3LjAnLCAnLXRuJywgJzgnLCAnLW1hJywgJzIwMCcsICctbWV0YWxfYmluZGluZycsICctaW1hZScsICc8aW5maWxlLm1hZT4nLCAnLW9tYWUnLCAnPG91dGZpbGUubWFlPic=

> <r_lp_tautomer_probability>
1

> <r_epik_Ionization_Penalty>
0.00556303

> <r_epik_Ionization_Penalty_Charging>
0

> <r_epik_Ionization_Penalty_Neutral>
0.00556303

> <r_epik_State_Penalty>
0.00401767

> <r_epik_Charging_Adjusted_Penalty>
0.00401767

> <i_epik_Tot_Q>
0

> <i_epik_Tot_abs_Q>
0

> <r_epik_Metal_State_Penalty>
-0

> <b_epik_Metal_Only>
0

> <s_lp_Force_Field>
OPLS_2005

> <r_lp_Energy>
70.8238

> <b_lp_Chiralities_Consistent>
1

> <s_lp_Variant>
AV-unprocessed.smi:148-7

> <Gold.Version>
5.8.1

> <Gold.Id.Protein>
6NUR|6NUR_protein|mol2

> <Gold.PLP.Fitness>
48.8129

> <Gold.PLP.PLP>
-40.2906

> <Gold.PLP.part.hbond>
-4.2583

> <Gold.PLP.part.metal>
0.0000

> <Gold.PLP.part.buried>
-4.0345

> <Gold.PLP.part.nonpolar>
-31.7443

> <Gold.PLP.part.repulsive>
0.2695

> <Gold.PLP.ligand.clash>
0.0000

> <Gold.PLP.ligand.torsion>
0.6318

> <Gold.PLP.Chemscore.Hbond>
3.0274

> <Gold.PLP.Chemscore.CHOScore>
0.0000

> <Gold.PLP.Chemscore.Metal>
0.0000

> <Gold.Chemscore.Hbonds>
donor molecule, donor type, donor heavy atom, donor atom, acceptor molecule, acceptor atom, score
      L1  H    21    55       P1  7957  0.84
      P1  H  7989  7998       L1    22  0.27

> <Gold.PLP.Chemscore.Internal.Correction>
0.7037

> <Gold.Rescore>
     Score         DG    S(hbond)    S(metal)    S(lipo)     H(rot)  DE(clash)    DE(int)     intcor
     13.32     -14.67       1.93        0.00      95.98       3.32       0.19       1.15       ----

> <Gold.Chemscore.Fitness>
13.3245

> <Gold.Chemscore.DG>
-14.6668

> <Gold.Chemscore.ZeroCoef>
-5.4800

> <Gold.Chemscore.Hbond>
1.9333

> <Gold.Chemscore.Metal>
0.0000

> <Gold.Chemscore.Lipo>
95.9784

> <Gold.Chemscore.Internal_Hbond>
0.0000

> <Gold.Chemscore.DEClash>
0.1930

> <Gold.Chemscore.DEInternal>
1.1493

> <Gold.Chemscore.Rot>
3.3203

> <Gold.Chemscore.Internal.Correction>
   9.000000E+99

> <Gold.Chemscore.Hbonds>
donor molecule, donor type, donor heavy atom, donor atom, acceptor molecule, acceptor atom, score
      L1  H    21    55       P1  7957  0.84
      P1  H  7989  7998       L1    21  0.01

> <Gold.Chemscore.Hbond.Weighted>
-6.4573

> <Gold.Chemscore.Metal.Weighted>
-0.0000

> <Gold.Chemscore.Lipo.Weighted>
-11.2295

> <Gold.Chemscore.Internal_Hbond.Weighted>
0.0000

> <Gold.Chemscore.DEClash.Weighted>
0.1930

> <Gold.Chemscore.DEInternal.Weighted>
1.1493

> <Gold.Chemscore.Rot.Weighted>
8.5000

> <Gold.Chemscore.Internal.Correction.Weighted>
   9.000000E+99

> <Gold.Protein.RotatedTorsions>
[ 6907 6896 6895 6894 ] final -134.06 input  -60.11 | X-H torsion
[ 7974 7965 7964 7962 ] final    0.89 input  175.53 | X-H torsion
[ 8008 7997 7996 7995 ] final  -45.82 input   59.86 | X-H torsion
[ 10167 10162 10161 10158 ] final  113.92 input  -65.29 | X-H torsion
[ 10718 10713 10712 10709 ] final   87.45 input   66.30 | X-H torsion
[ 10763 10752 10751 10750 ] final  169.28 input  -60.55 | X-H torsion
[ 11005 11000 10999 10996 ] final  -54.24 input  -57.11 | X-H torsion

> <Gold.Protein.ActiveResidues>
 VAL166  LYS551  ARG553  GLY616  TRP617  ASP618  TYR619  PRO620  LYS621  CYS622 
 ASP623  PHE694  ASN695  SER759  ASP760  ASP761  ALA762  ILE779  LEU786  VAL792 
 PHE793  MET794  SER795  GLU796  ALA797  LYS798  CYS799  TRP800  GLU811  SER814 

> <Gold.Protein.RotatedAtoms>
  150.9814  133.6242  159.2721 H   0  0  0  0  0  0  0  0  0  0  0  0  # atno 6907 bound_to 6896
  151.3495  135.0880  159.9408 H   0  0  0  0  0  0  0  0  0  0  0  0  # atno 6908 bound_to 6896
  152.5217  133.9409  159.7680 H   0  0  0  0  0  0  0  0  0  0  0  0  # atno 6909 bound_to 6896
  146.2437  140.1070  142.8345 H   0  0  0  0  0  0  0  0  0  0  0  0  # atno 7974 bound_to 7965
  154.4003  140.1387  156.3909 H   0  0  0  0  0  0  0  0  0  0  0  0  # atno 8008 bound_to 7997
  155.7915  140.3478  155.5331 H   0  0  0  0  0  0  0  0  0  0  0  0  # atno 8009 bound_to 7997
  155.8575  140.0951  157.1625 H   0  0  0  0  0  0  0  0  0  0  0  0  # atno 8010 bound_to 7997
  139.6426  144.7125  151.2207 H   0  0  0  0  0  0  0  0  0  0  0  0  # atno 10167 bound_to 10162
  157.6940  131.0256  150.3126 H   0  0  0  0  0  0  0  0  0  0  0  0  # atno 10718 bound_to 10713
  154.3808  135.2753  155.2212 H   0  0  0  0  0  0  0  0  0  0  0  0  # atno 10763 bound_to 10752
  154.4319  135.5975  153.6078 H   0  0  0  0  0  0  0  0  0  0  0  0  # atno 10764 bound_to 10752
  152.9834  135.5998  154.4051 H   0  0  0  0  0  0  0  0  0  0  0  0  # atno 10765 bound_to 10752
  141.1016  133.6617  156.4292 H   0  0  0  0  0  0  0  0  0  0  0  0  # atno 11005 bound_to 11000
  145.0519  140.9024  143.4990 LP  0  0  0  0  0  0  0  0  0  0  0  0  # atno 17320 bound_to 7965
  145.1170  139.2719  143.5608 LP  0  0  0  0  0  0  0  0  0  0  0  0  # atno 17321 bound_to 7965
  140.7498  143.6286  150.8445 LP  0  0  0  0  0  0  0  0  0  0  0  0  # atno 17342 bound_to 10162
  139.9925  143.5831  152.2905 LP  0  0  0  0  0  0  0  0  0  0  0  0  # atno 17343 bound_to 10162
  156.3625  130.3849  149.7240 LP  0  0  0  0  0  0  0  0  0  0  0  0  # atno 17370 bound_to 10713
  156.4681  130.7984  151.3002 LP  0  0  0  0  0  0  0  0  0  0  0  0  # atno 17371 bound_to 10713
  140.5007  134.6488  157.5247 LP  0  0  0  0  0  0  0  0  0  0  0  0  # atno 17394 bound_to 11000
  139.9870  134.7046  155.9757 LP  0  0  0  0  0  0  0  0  0  0  0  0  # atno 17395 bound_to 11000

$$$$
