AV-unprocessed.smi:287|AV-procd|sdf|2192|dock3
  -GOLD-   2262021583D 1   1.00000     0.00000
 Structure written by MMmdl.
 55 58  0  0  0  0  0  0  0  0  1 V2000
  152.0076  145.6519  160.2494 C   0  0  0  0  0  0  0  0  0  0  0  0
  151.7771  144.3792  159.5092 C   0  0  0  0  0  0  0  0  0  0  0  0
  151.0114  144.0382  158.4328 C   0  0  0  0  0  0  0  0  0  0  0  0
  151.2209  142.6489  158.1832 C   0  0  0  0  0  0  0  0  0  0  0  0
  150.5730  141.8306  157.0743 C   0  0  2  0  0  0  0  0  0  0  0  0
  151.3327  140.5062  156.8938 C   0  0  0  0  0  0  0  0  0  0  0  0
  150.6293  142.4712  155.8144 O   0  0  0  0  0  0  0  0  0  0  0  0
  149.0759  141.5541  157.3428 C   0  0  0  0  0  0  0  0  0  0  0  0
  148.3190  141.3023  156.1208 N   0  0  0  0  0  0  0  0  0  0  0  0
  147.2358  140.4989  156.1464 C   0  0  0  0  0  0  0  0  0  0  0  0
  146.3565  140.5422  157.1810 N   0  0  0  0  0  0  0  0  0  0  0  0
  145.2878  139.7401  157.1805 C   0  0  0  0  0  0  0  0  0  0  0  0
  144.9194  138.8423  156.2646 N   0  0  0  0  0  0  0  0  0  0  0  0
  145.8014  138.7942  155.2237 C   0  0  0  0  0  0  0  0  0  0  0  0
  146.9760  139.5854  155.0928 C   0  0  0  0  0  0  0  0  0  0  0  0
  147.6270  139.2712  153.9070 N   0  0  0  0  0  0  0  0  0  0  0  0
  146.8753  138.3482  153.3696 C   0  0  0  0  0  0  0  0  0  0  0  0
  145.7545  138.0039  154.0919 N   0  0  0  0  0  0  0  0  0  0  0  0
  144.7113  136.9953  153.7263 C   0  0  1  0  0  0  0  0  0  0  0  0
  144.6267  136.8982  152.3427 O   0  0  0  0  0  0  0  0  0  0  0  0
  144.1616  135.5992  151.9917 C   0  0  1  0  0  0  0  0  0  0  0  0
  144.9109  135.1136  150.7372 C   0  0  0  0  0  0  0  0  0  0  0  0
  144.7799  136.0163  149.6584 O   0  0  0  0  0  0  0  0  0  0  0  0
  144.2940  134.7070  153.2451 C   0  0  2  0  0  0  0  0  0  0  0  0
  143.0038  134.3820  153.7279 O   0  0  0  0  0  0  0  0  0  0  0  0
  145.0176  135.5879  154.2573 C   0  0  1  0  0  0  0  0  0  0  0  0
  146.4006  135.2876  154.2976 O   0  0  0  0  0  0  0  0  0  0  0  0
  152.1024  142.2471  159.1582 C   0  0  0  0  0  0  0  0  0  0  0  0
  152.7382  140.9422  159.5080 C   0  0  0  0  0  0  0  0  0  0  0  0
  152.4481  143.2909  159.9625 O   0  0  0  0  0  0  0  0  0  0  0  0
  143.7750  137.3963  154.1172 H   0  0  0  0  0  0  0  0  0  0  0  0
  143.1095  135.7145  151.7253 H   0  0  0  0  0  0  0  0  0  0  0  0
  144.8241  133.7730  153.0540 H   0  0  0  0  0  0  0  0  0  0  0  0
  144.6242  135.4866  155.2698 H   0  0  0  0  0  0  0  0  0  0  0  0
  151.5028  146.4843  159.7588 H   0  0  0  0  0  0  0  0  0  0  0  0
  153.0715  145.8839  160.2982 H   0  0  0  0  0  0  0  0  0  0  0  0
  151.6286  145.5797  161.2689 H   0  0  0  0  0  0  0  0  0  0  0  0
  150.3751  144.7124  157.8788 H   0  0  0  0  0  0  0  0  0  0  0  0
  151.3159  139.9132  157.8089 H   0  0  0  0  0  0  0  0  0  0  0  0
  152.3782  140.6813  156.6361 H   0  0  0  0  0  0  0  0  0  0  0  0
  150.8945  139.8978  156.1018 H   0  0  0  0  0  0  0  0  0  0  0  0
  149.9139  143.0862  155.7588 H   0  0  0  0  0  0  0  0  0  0  0  0
  148.9500  140.7286  158.0451 H   0  0  0  0  0  0  0  0  0  0  0  0
  148.6402  142.4354  157.8162 H   0  0  0  0  0  0  0  0  0  0  0  0
  148.6184  141.8108  155.3008 H   0  0  0  0  0  0  0  0  0  0  0  0
  144.6334  139.8308  158.0348 H   0  0  0  0  0  0  0  0  0  0  0  0
  147.1177  137.8925  152.4206 H   0  0  0  0  0  0  0  0  0  0  0  0
  145.9733  135.0139  150.9604 H   0  0  0  0  0  0  0  0  0  0  0  0
  144.5546  134.1289  150.4340 H   0  0  0  0  0  0  0  0  0  0  0  0
  145.3479  135.7339  148.9580 H   0  0  0  0  0  0  0  0  0  0  0  0
  142.9784  133.4573  153.9200 H   0  0  0  0  0  0  0  0  0  0  0  0
  146.5072  134.4137  154.6411 H   0  0  0  0  0  0  0  0  0  0  0  0
  151.9840  140.1635  159.6233 H   0  0  0  0  0  0  0  0  0  0  0  0
  153.2931  141.0113  160.4440 H   0  0  0  0  0  0  0  0  0  0  0  0
  153.4327  140.6300  158.7281 H   0  0  0  0  0  0  0  0  0  0  0  0
  1  2  1  0  0  0  0
  1 35  1  0  0  0  0
  1 36  1  0  0  0  0
  1 37  1  0  0  0  0
  2 30  1  0  0  0  0
  2  3  2  0  0  0  0
  3  4  1  0  0  0  0
  3 38  1  0  0  0  0
  4  5  1  0  0  0  0
  4 28  2  0  0  0  0
  5  6  1  0  0  0  0
  5  7  1  0  0  0  0
  5  8  1  0  0  0  0
  6 39  1  0  0  0  0
  6 40  1  0  0  0  0
  6 41  1  0  0  0  0
  7 42  1  0  0  0  0
  8  9  1  0  0  0  0
  8 43  1  0  0  0  0
  8 44  1  0  0  0  0
  9 10  1  0  0  0  0
  9 45  1  0  0  0  0
 10 15  1  0  0  0  0
 10 11  2  0  0  0  0
 11 12  1  0  0  0  0
 12 13  2  0  0  0  0
 12 46  1  0  0  0  0
 13 14  1  0  0  0  0
 14 18  1  0  0  0  0
 14 15  2  0  0  0  0
 15 16  1  0  0  0  0
 16 17  2  0  0  0  0
 17 18  1  0  0  0  0
 17 47  1  0  0  0  0
 18 19  1  0  0  0  0
 19 31  1  0  0  0  0
 19 26  1  0  0  0  0
 19 20  1  0  0  0  0
 20 21  1  0  0  0  0
 21 32  1  0  0  0  0
 21 22  1  0  0  0  0
 21 24  1  0  0  0  0
 22 23  1  0  0  0  0
 22 48  1  0  0  0  0
 22 49  1  0  0  0  0
 23 50  1  0  0  0  0
 24 33  1  0  0  0  0
 24 25  1  0  0  0  0
 24 26  1  0  0  0  0
 25 51  1  0  0  0  0
 26 34  1  0  0  0  0
 26 27  1  0  0  0  0
 27 52  1  0  0  0  0
 28 29  1  0  0  0  0
 28 30  1  0  0  0  0
 29 53  1  0  0  0  0
 29 54  1  0  0  0  0
 29 55  1  0  0  0  0
M  END
> <s_m_source_file>
AV-unprocessed.smi

> <i_m_source_file_index>
287

> <i_lp_mmshare_version>
43012

> <i_f3d_flags>
0

> <s_epik_input>
W0NIM11jMVtjSF1jKGMobzEpW0NIM10pW0NAQF0oW0NIM10pKFtPSF0pW0NIMl1bTkhdYyhuW2NIXW4yKWMoYzIzKW5bY0hdbjNbQ0BASF00T1tDQEhdKFtDSDJdW09IXSlbQ0BASF0oW09IXSlbQ0BIXTRbT0hd

> <s_epik_cmdline>
J2VwaWtfcHl0aG9uJywgJy1waCcsICc3LjAnLCAnLXRuJywgJzgnLCAnLW1hJywgJzIwMCcsICctbWV0YWxfYmluZGluZycsICctaW1hZScsICc8aW5maWxlLm1hZT4nLCAnLW9tYWUnLCAnPG91dGZpbGUubWFlPic=

> <r_lp_tautomer_probability>
1

> <r_epik_Ionization_Penalty>
0.000992612

> <r_epik_Ionization_Penalty_Charging>
0

> <r_epik_Ionization_Penalty_Neutral>
0.000992612

> <r_epik_State_Penalty>
-0

> <r_epik_Charging_Adjusted_Penalty>
0

> <i_epik_Tot_Q>
0

> <i_epik_Tot_abs_Q>
0

> <r_epik_Metal_State_Penalty>
-0

> <b_epik_Metal_Only>
0

> <s_epik_Chemistry_Notes>
This compound contains an acetal/aminal-like group ( X-CH(R)-Y where X, Y are N, S, or O) that may be acid/base labile, releasing an aldehyde.

> <s_lp_Force_Field>
OPLS_2005

> <r_lp_Energy>
44.6889

> <b_lp_Chiralities_Consistent>
1

> <s_lp_Variant>
AV-unprocessed.smi:287-16

> <Gold.Version>
5.8.1

> <Gold.Id.Protein>
6NUR|6NUR_protein|mol2

> <Gold.PLP.Fitness>
46.7042

> <Gold.PLP.PLP>
-38.9472

> <Gold.PLP.part.hbond>
-4.0000

> <Gold.PLP.part.metal>
0.0000

> <Gold.PLP.part.buried>
-7.0456

> <Gold.PLP.part.nonpolar>
-29.1825

> <Gold.PLP.part.repulsive>
0.8096

> <Gold.PLP.ligand.clash>
0.0013

> <Gold.PLP.ligand.torsion>
2.1737

> <Gold.PLP.Chemscore.Hbond>
3.0000

> <Gold.PLP.Chemscore.CHOScore>
1.0000

> <Gold.PLP.Chemscore.Metal>
0.0000

> <Gold.Chemscore.Hbonds>
donor molecule, donor type, donor heavy atom, donor atom, acceptor molecule, acceptor atom, score
      L1  H     7    42       P1  8028  1.00
      L1  H    23    50       P1  7921  1.00
      L1  H    25    51       P1 10957  1.00
      L1  C    17    47       P1  7948  1.00

> <Gold.PLP.Chemscore.Internal.Correction>
0.1057

> <Gold.Rescore>
     Score         DG    S(hbond)    S(metal)    S(lipo)     H(rot)  DE(clash)    DE(int)     intcor
      9.53     -12.76       2.99        0.00      92.18       5.27       0.22       3.01       ----

> <Gold.Chemscore.Fitness>
9.5308

> <Gold.Chemscore.DG>
-12.7648

> <Gold.Chemscore.ZeroCoef>
-5.4800

> <Gold.Chemscore.Hbond>
2.9892

> <Gold.Chemscore.Metal>
0.0000

> <Gold.Chemscore.Lipo>
92.1785

> <Gold.Chemscore.Internal_Hbond>
0.0000

> <Gold.Chemscore.DEClash>
0.2242

> <Gold.Chemscore.DEInternal>
3.0097

> <Gold.Chemscore.Rot>
5.2672

> <Gold.Chemscore.Internal.Correction>
   9.000000E+99

> <Gold.Chemscore.Hbonds>
donor molecule, donor type, donor heavy atom, donor atom, acceptor molecule, acceptor atom, score
      L1  H     7    42       P1  8028  0.99
      L1  H    23    50       P1  7921  1.00
      L1  H    25    51       P1 10957  0.99

> <Gold.Chemscore.Hbond.Weighted>
-9.9838

> <Gold.Chemscore.Metal.Weighted>
-0.0000

> <Gold.Chemscore.Lipo.Weighted>
-10.7849

> <Gold.Chemscore.Internal_Hbond.Weighted>
0.0000

> <Gold.Chemscore.DEClash.Weighted>
0.2242

> <Gold.Chemscore.DEInternal.Weighted>
3.0097

> <Gold.Chemscore.Rot.Weighted>
13.4839

> <Gold.Chemscore.Internal.Correction.Weighted>
   9.000000E+99

> <Gold.Protein.RotatedTorsions>
[ 6907 6896 6895 6894 ] final -126.35 input  -60.11 | X-H torsion
[ 7974 7965 7964 7962 ] final   67.44 input  175.53 | X-H torsion
[ 8008 7997 7996 7995 ] final   43.52 input   59.86 | X-H torsion
[ 10167 10162 10161 10158 ] final   19.01 input  -65.29 | X-H torsion
[ 10718 10713 10712 10709 ] final  110.71 input   66.30 | X-H torsion
[ 10763 10752 10751 10750 ] final  -68.83 input  -60.55 | X-H torsion
[ 11005 11000 10999 10996 ] final  107.99 input  -57.11 | X-H torsion

> <Gold.Protein.ActiveResidues>
 VAL166  LYS551  ARG553  GLY616  TRP617  ASP618  TYR619  PRO620  LYS621  CYS622 
 ASP623  PHE694  ASN695  SER759  ASP760  ASP761  ALA762  ILE779  LEU786  VAL792 
 PHE793  MET794  SER795  GLU796  ALA797  LYS798  CYS799  TRP800  GLU811  SER814 

> <Gold.Protein.RotatedAtoms>
  150.8960  133.7180  159.2891 H   0  0  0  0  0  0  0  0  0  0  0  0  # atno 6907 bound_to 6896
  151.4714  135.1044  159.9762 H   0  0  0  0  0  0  0  0  0  0  0  0  # atno 6908 bound_to 6896
  152.4849  133.8299  159.7153 H   0  0  0  0  0  0  0  0  0  0  0  0  # atno 6909 bound_to 6896
  145.8146  139.3051  143.1079 H   0  0  0  0  0  0  0  0  0  0  0  0  # atno 7974 bound_to 7965
  155.3041  140.3387  155.4246 H   0  0  0  0  0  0  0  0  0  0  0  0  # atno 8008 bound_to 7997
  156.1987  140.1724  156.7983 H   0  0  0  0  0  0  0  0  0  0  0  0  # atno 8009 bound_to 7997
  154.5531  140.0701  156.8684 H   0  0  0  0  0  0  0  0  0  0  0  0  # atno 8010 bound_to 7997
  140.5611  143.9335  150.6643 H   0  0  0  0  0  0  0  0  0  0  0  0  # atno 10167 bound_to 10162
  157.6481  131.0937  150.6642 H   0  0  0  0  0  0  0  0  0  0  0  0  # atno 10718 bound_to 10713
  154.3946  135.6045  153.5862 H   0  0  0  0  0  0  0  0  0  0  0  0  # atno 10763 bound_to 10752
  152.9787  135.5892  154.4257 H   0  0  0  0  0  0  0  0  0  0  0  0  # atno 10764 bound_to 10752
  154.4046  135.2843  155.2053 H   0  0  0  0  0  0  0  0  0  0  0  0  # atno 10765 bound_to 10752
  139.8837  134.9417  156.5904 H   0  0  0  0  0  0  0  0  0  0  0  0  # atno 11005 bound_to 11000
  145.9741  140.8737  143.0148 LP  0  0  0  0  0  0  0  0  0  0  0  0  # atno 17320 bound_to 7965
  144.6754  140.1987  143.7389 LP  0  0  0  0  0  0  0  0  0  0  0  0  # atno 17321 bound_to 7965
  140.2786  143.3405  152.1172 LP  0  0  0  0  0  0  0  0  0  0  0  0  # atno 17342 bound_to 10162
  139.5070  144.6825  151.5972 LP  0  0  0  0  0  0  0  0  0  0  0  0  # atno 17343 bound_to 10162
  156.6956  130.4608  149.5587 LP  0  0  0  0  0  0  0  0  0  0  0  0  # atno 17370 bound_to 10713
  156.1831  130.6511  151.0974 LP  0  0  0  0  0  0  0  0  0  0  0  0  # atno 17371 bound_to 10713
  140.7960  133.8544  155.8686 LP  0  0  0  0  0  0  0  0  0  0  0  0  # atno 17394 bound_to 11000
  140.9635  134.1624  157.4634 LP  0  0  0  0  0  0  0  0  0  0  0  0  # atno 17395 bound_to 11000

$$$$
