AV-unprocessed.smi:536|AV-procd|sdf|2863|dock8
  -GOLD-   2262023353D 1   1.00000     0.00000
 Structure written by MMmdl.
 45 47  0  0  0  0  0  0  0  0  2 V2000
  147.4585  141.6022  153.7903 C   0  0  0  0  0  0  0  0  0  0  0  0
  148.8232  141.8884  154.0355 O   0  0  0  0  0  0  0  0  0  0  0  0
  149.3484  141.1596  155.1322 C   0  0  0  0  0  0  0  0  0  0  0  0
  150.6505  141.7986  155.6467 C   0  0  0  0  0  0  0  0  0  0  0  0
  151.3496  140.9867  156.6420 N   0  0  0  0  0  0  0  0  0  0  0  0
  151.7650  141.3578  157.8829 C   0  0  0  0  0  0  0  0  0  0  0  0
  151.5272  142.6344  158.3936 N   0  0  0  0  0  0  0  0  0  0  0  0
  151.6121  143.8588  157.6042 C   0  0  0  0  0  0  0  0  0  0  0  0
  152.5321  144.9410  158.2010 C   0  0  0  0  0  0  0  0  0  0  0  0
  151.9133  145.6543  159.4126 C   0  0  0  0  0  0  0  0  0  0  0  0
  152.0703  144.9179  160.7553 C   0  0  0  0  0  0  0  0  0  0  0  0
  151.8910  143.3882  160.7278 C   0  0  0  0  0  0  0  0  0  0  0  0
  150.8904  142.8595  159.6880 C   0  0  0  0  0  0  0  0  0  0  0  0
  152.4398  140.4206  158.5505 N   0  0  0  0  0  0  0  0  0  0  0  0
  152.4394  139.3512  157.6685 C   0  0  0  0  0  0  0  0  0  0  0  0
  151.7993  139.6671  156.5105 C   0  0  0  0  0  0  0  0  0  0  0  0
  151.6657  138.7357  155.3665 C   0  0  0  0  0  0  0  0  0  0  0  0
  151.0974  139.0751  154.3307 O   0  0  0  0  0  0  0  0  0  0  0  0
  152.2396  137.5172  155.6213 N   0  5  0  0  0  0  0  0  0  0  0  0
  152.8901  137.1542  156.7805 C   0  0  0  0  0  0  0  0  0  0  0  0
  153.3798  136.0335  156.9277 O   0  0  0  0  0  0  0  0  0  0  0  0
  153.0048  138.0541  157.8070 N   0  0  0  0  0  0  0  0  0  0  0  0
  153.6974  137.6977  159.0486 C   0  0  0  0  0  0  0  0  0  0  0  0
  147.1088  142.1899  152.9415 H   0  0  0  0  0  0  0  0  0  0  0  0
  146.8411  141.8558  154.6530 H   0  0  0  0  0  0  0  0  0  0  0  0
  147.3136  140.5475  153.5524 H   0  0  0  0  0  0  0  0  0  0  0  0
  148.6180  141.1288  155.9418 H   0  0  0  0  0  0  0  0  0  0  0  0
  149.5230  140.1288  154.8299 H   0  0  0  0  0  0  0  0  0  0  0  0
  151.3258  141.9894  154.8144 H   0  0  0  0  0  0  0  0  0  0  0  0
  150.4469  142.7826  156.0659 H   0  0  0  0  0  0  0  0  0  0  0  0
  151.9571  143.5969  156.6048 H   0  0  0  0  0  0  0  0  0  0  0  0
  150.6081  144.2600  157.4608 H   0  0  0  0  0  0  0  0  0  0  0  0
  153.5180  144.5460  158.4433 H   0  0  0  0  0  0  0  0  0  0  0  0
  152.6971  145.6891  157.4252 H   0  0  0  0  0  0  0  0  0  0  0  0
  152.3665  146.6410  159.5144 H   0  0  0  0  0  0  0  0  0  0  0  0
  150.8567  145.8416  159.2178 H   0  0  0  0  0  0  0  0  0  0  0  0
  153.0537  145.1373  161.1723 H   0  0  0  0  0  0  0  0  0  0  0  0
  151.3551  145.3469  161.4580 H   0  0  0  0  0  0  0  0  0  0  0  0
  152.8577  142.9057  160.5765 H   0  0  0  0  0  0  0  0  0  0  0  0
  151.5677  143.0722  161.7200 H   0  0  0  0  0  0  0  0  0  0  0  0
  150.0287  143.5215  159.5955 H   0  0  0  0  0  0  0  0  0  0  0  0
  150.4962  141.9053  160.0393 H   0  0  0  0  0  0  0  0  0  0  0  0
  154.7274  137.4043  158.8414 H   0  0  0  0  0  0  0  0  0  0  0  0
  153.1957  136.8618  159.5385 H   0  0  0  0  0  0  0  0  0  0  0  0
  153.7326  138.5203  159.7627 H   0  0  0  0  0  0  0  0  0  0  0  0
  1  2  1  0  0  0  0
  1 24  1  0  0  0  0
  1 25  1  0  0  0  0
  1 26  1  0  0  0  0
  2  3  1  0  0  0  0
  3  4  1  0  0  0  0
  3 27  1  0  0  0  0
  3 28  1  0  0  0  0
  4  5  1  0  0  0  0
  4 29  1  0  0  0  0
  4 30  1  0  0  0  0
  5 16  1  0  0  0  0
  5  6  1  0  0  0  0
  6  7  1  0  0  0  0
  6 14  2  0  0  0  0
  7 13  1  0  0  0  0
  7  8  1  0  0  0  0
  8  9  1  0  0  0  0
  8 31  1  0  0  0  0
  8 32  1  0  0  0  0
  9 10  1  0  0  0  0
  9 33  1  0  0  0  0
  9 34  1  0  0  0  0
 10 11  1  0  0  0  0
 10 35  1  0  0  0  0
 10 36  1  0  0  0  0
 11 12  1  0  0  0  0
 11 37  1  0  0  0  0
 11 38  1  0  0  0  0
 12 13  1  0  0  0  0
 12 39  1  0  0  0  0
 12 40  1  0  0  0  0
 13 41  1  0  0  0  0
 13 42  1  0  0  0  0
 14 15  1  0  0  0  0
 15 22  1  0  0  0  0
 15 16  2  0  0  0  0
 16 17  1  0  0  0  0
 17 18  2  0  0  0  0
 17 19  1  0  0  0  0
 19 20  1  0  0  0  0
 20 21  2  0  0  0  0
 20 22  1  0  0  0  0
 22 23  1  0  0  0  0
 23 43  1  0  0  0  0
 23 44  1  0  0  0  0
 23 45  1  0  0  0  0
M  CHG  1  19  -1
M  END
> <s_m_source_file>
AV-unprocessed.smi

> <i_m_source_file_index>
536

> <i_lp_mmshare_version>
43012

> <i_f3d_flags>
0

> <s_epik_input>
W0NIM11uMWMoPU8pW25IXWMoPU8pYyhjMTIpbihbQ0gyXVtDSDJdT1tDSDNdKWMobjIpTjNbQ0gyXVtDSDJdW0NIMl1bQ0gyXVtDSDJdW0NIMl0z

> <s_epik_cmdline>
J2VwaWtfcHl0aG9uJywgJy1waCcsICc3LjAnLCAnLXRuJywgJzgnLCAnLW1hJywgJzIwMCcsICctbWV0YWxfYmluZGluZycsICctaW1hZScsICc8aW5maWxlLm1hZT4nLCAnLW9tYWUnLCAnPG91dGZpbGUubWFlPic=

> <r_lp_tautomer_probability>
1

> <r_epik_Ionization_Penalty>
6.16859

> <r_epik_Ionization_Penalty_Charging>
0.0798692

> <r_epik_Ionization_Penalty_Neutral>
6.08873

> <r_epik_State_Penalty>
6.08498

> <r_epik_Charging_Adjusted_Penalty>
6.16485

> <i_epik_Tot_Q>
-1

> <i_epik_Tot_abs_Q>
1

> <r_epik_Metal_State_Penalty>
2.03194

> <b_epik_Metal_Only>
1

> <s_lp_Force_Field>
OPLS_2005

> <r_lp_Energy>
48.7455

> <b_lp_Chiralities_Consistent>
1

> <s_lp_Variant>
AV-unprocessed.smi:536-2

> <Gold.Version>
5.8.1

> <Gold.Id.Protein>
6NUR|6NUR_protein|mol2

> <Gold.PLP.Fitness>
48.8946

> <Gold.PLP.PLP>
-42.4438

> <Gold.PLP.part.hbond>
-3.9488

> <Gold.PLP.part.metal>
0.0000

> <Gold.PLP.part.buried>
-1.9616

> <Gold.PLP.part.nonpolar>
-36.1301

> <Gold.PLP.part.repulsive>
0.3740

> <Gold.PLP.ligand.clash>
0.0000

> <Gold.PLP.ligand.torsion>
0.9209

> <Gold.PLP.Chemscore.Hbond>
2.4960

> <Gold.PLP.Chemscore.CHOScore>
0.0000

> <Gold.PLP.Chemscore.Metal>
0.0000

> <Gold.Chemscore.Hbonds>
donor molecule, donor type, donor heavy atom, donor atom, acceptor molecule, acceptor atom, score
      P1  H  7989  7998       L1    18  0.98
      P1  H  8011  8017       L1     2  0.48
      P1  H 10752 10763       L1    21  1.00

> <Gold.PLP.Chemscore.Internal.Correction>
0.8046

> <Gold.Rescore>
     Score         DG    S(hbond)    S(metal)    S(lipo)     H(rot)  DE(clash)    DE(int)     intcor
     17.05     -21.10       2.08        0.00     105.62       1.44       1.68       2.37       ----

> <Gold.Chemscore.Fitness>
17.0529

> <Gold.Chemscore.DG>
-21.1000

> <Gold.Chemscore.ZeroCoef>
-5.4800

> <Gold.Chemscore.Hbond>
2.0783

> <Gold.Chemscore.Metal>
0.0000

> <Gold.Chemscore.Lipo>
105.6233

> <Gold.Chemscore.Internal_Hbond>
0.0000

> <Gold.Chemscore.DEClash>
1.6758

> <Gold.Chemscore.DEInternal>
2.3713

> <Gold.Chemscore.Rot>
1.4372

> <Gold.Chemscore.Internal.Correction>
   9.000000E+99

> <Gold.Chemscore.Hbonds>
donor molecule, donor type, donor heavy atom, donor atom, acceptor molecule, acceptor atom, score
      P1  H  7989  7998       L1    18  0.88
      P1  H  8011  8017       L1     2  0.37
      P1  H 10752 10763       L1    21  0.80

> <Gold.Chemscore.Hbond.Weighted>
-6.9414

> <Gold.Chemscore.Metal.Weighted>
-0.0000

> <Gold.Chemscore.Lipo.Weighted>
-12.3579

> <Gold.Chemscore.Internal_Hbond.Weighted>
0.0000

> <Gold.Chemscore.DEClash.Weighted>
1.6758

> <Gold.Chemscore.DEInternal.Weighted>
2.3713

> <Gold.Chemscore.Rot.Weighted>
3.6793

> <Gold.Chemscore.Internal.Correction.Weighted>
   9.000000E+99

> <Gold.Protein.RotatedTorsions>
[ 6907 6896 6895 6894 ] final   97.05 input  -60.11 | X-H torsion
[ 7974 7965 7964 7962 ] final   13.56 input  175.53 | X-H torsion
[ 8008 7997 7996 7995 ] final  171.72 input   59.86 | X-H torsion
[ 10167 10162 10161 10158 ] final -171.16 input  -65.29 | X-H torsion
[ 10718 10713 10712 10709 ] final  132.78 input   66.30 | X-H torsion
[ 10763 10752 10751 10750 ] final  140.59 input  -60.55 | X-H torsion
[ 11005 11000 10999 10996 ] final  104.39 input  -57.11 | X-H torsion

> <Gold.Protein.ActiveResidues>
 VAL166  LYS551  ARG553  GLY616  TRP617  ASP618  TYR619  PRO620  LYS621  CYS622 
 ASP623  PHE694  ASN695  SER759  ASP760  ASP761  ALA762  ILE779  LEU786  VAL792 
 PHE793  MET794  SER795  GLU796  ALA797  LYS798  CYS799  TRP800  GLU811  SER814 

> <Gold.Protein.RotatedAtoms>
  152.5428  134.0793  159.8227 H   0  0  0  0  0  0  0  0  0  0  0  0  # atno 6907 bound_to 6896
  151.0897  133.5318  159.2623 H   0  0  0  0  0  0  0  0  0  0  0  0  # atno 6908 bound_to 6896
  151.2114  135.0491  159.8967 H   0  0  0  0  0  0  0  0  0  0  0  0  # atno 6909 bound_to 6896
  146.2326  139.9171  142.8515 H   0  0  0  0  0  0  0  0  0  0  0  0  # atno 7974 bound_to 7965
  156.1244  140.1504  156.9158 H   0  0  0  0  0  0  0  0  0  0  0  0  # atno 8008 bound_to 7997
  154.4860  140.0865  156.7528 H   0  0  0  0  0  0  0  0  0  0  0  0  # atno 8009 bound_to 7997
  155.4371  140.3429  155.4288 H   0  0  0  0  0  0  0  0  0  0  0  0  # atno 8010 bound_to 7997
  139.5819  144.1405  152.1525 H   0  0  0  0  0  0  0  0  0  0  0  0  # atno 10167 bound_to 10162
  157.4838  131.1087  150.9647 H   0  0  0  0  0  0  0  0  0  0  0  0  # atno 10718 bound_to 10713
  153.9252  135.2996  155.3447 H   0  0  0  0  0  0  0  0  0  0  0  0  # atno 10763 bound_to 10752
  154.7555  135.4959  153.9370 H   0  0  0  0  0  0  0  0  0  0  0  0  # atno 10764 bound_to 10752
  153.1121  135.6761  153.9587 H   0  0  0  0  0  0  0  0  0  0  0  0  # atno 10765 bound_to 10752
  139.8791  134.9298  156.5354 H   0  0  0  0  0  0  0  0  0  0  0  0  # atno 11005 bound_to 11000
  145.2173  140.9920  143.4066 LP  0  0  0  0  0  0  0  0  0  0  0  0  # atno 17320 bound_to 7965
  144.9640  139.3949  143.6341 LP  0  0  0  0  0  0  0  0  0  0  0  0  # atno 17321 bound_to 7965
  140.0960  144.5580  150.7021 LP  0  0  0  0  0  0  0  0  0  0  0  0  # atno 17342 bound_to 10162
  140.7096  143.2494  151.4623 LP  0  0  0  0  0  0  0  0  0  0  0  0  # atno 17343 bound_to 10162
  157.0372  130.5734  149.5351 LP  0  0  0  0  0  0  0  0  0  0  0  0  # atno 17370 bound_to 10713
  156.0135  130.5228  150.8064 LP  0  0  0  0  0  0  0  0  0  0  0  0  # atno 17371 bound_to 10713
  140.8350  133.8250  155.9020 LP  0  0  0  0  0  0  0  0  0  0  0  0  # atno 17394 bound_to 11000
  140.9293  134.2043  157.4875 LP  0  0  0  0  0  0  0  0  0  0  0  0  # atno 17395 bound_to 11000

$$$$
