AV-unprocessed.smi:271|AV-procd|sdf|2052|dock10
  -GOLD-   2262021293D 1   1.00000     0.00000
 Structure written by MMmdl.
 58 60  0  0  0  0  0  0  0  0  1 V2000
  152.0255  144.1459  161.4589 C   0  0  0  0  0  0  0  0  0  0  0  0
  152.6593  143.5807  160.1765 C   0  0  0  0  0  0  0  0  0  0  0  0
  152.1630  144.3569  158.9470 C   0  0  0  0  0  0  0  0  0  0  0  0
  152.3964  142.0710  160.0101 C   0  0  0  0  0  0  0  0  0  0  0  0
  152.7386  141.5330  158.6063 C   0  0  0  0  0  0  0  0  0  0  0  0
  151.6372  140.7927  157.9917 N   0  0  0  0  0  0  0  0  0  0  0  0
  151.3293  141.1029  156.5944 C   0  0  0  0  0  0  0  0  0  0  0  0
  149.9066  140.6870  156.1896 C   0  0  0  0  0  0  0  0  0  0  0  0
  149.6107  141.0039  154.7848 C   0  0  0  0  0  0  0  0  0  0  0  0
  149.3784  141.2536  153.6792 N   0  0  0  0  0  0  0  0  0  0  0  0
  151.5290  139.5020  158.4037 C   0  0  0  0  0  0  0  0  0  0  0  0
  152.6495  138.7916  158.7036 N   0  0  0  0  0  0  0  0  0  0  0  0
  152.5557  137.5287  159.1292 C   0  0  0  0  0  0  0  0  0  0  0  0
  151.4596  136.7940  159.3247 N   0  0  0  0  0  0  0  0  0  0  0  0
  150.3315  137.4995  159.0271 C   0  0  0  0  0  0  0  0  0  0  0  0
  150.2760  138.8451  158.5649 C   0  0  0  0  0  0  0  0  0  0  0  0
  148.9529  139.2187  158.3590 N   0  0  0  0  0  0  0  0  0  0  0  0
  148.2661  138.1593  158.6895 C   0  0  0  0  0  0  0  0  0  0  0  0
  149.0142  137.0832  159.1089 N   0  0  0  0  0  0  0  0  0  0  0  0
  148.5063  135.7881  159.5285 C   0  0  0  0  0  0  0  0  0  0  0  0
  146.9791  135.7820  159.7850 C   0  0  1  0  0  0  0  0  0  0  0  0
  146.2294  135.1872  158.5693 C   0  0  0  0  0  0  0  0  0  0  0  0
  146.5311  135.9122  157.3950 O   0  0  0  0  0  0  0  0  0  0  0  0
  146.6023  135.1083  161.1346 C   0  0  1  0  0  0  0  0  0  0  0  0
  146.9371  133.6192  161.2415 C   0  0  0  0  0  0  0  0  0  0  0  0
  147.6949  133.4981  162.5634 C   0  0  0  0  0  0  0  0  0  0  0  0
  147.2801  134.6346  163.3030 O   0  0  0  0  0  0  0  0  0  0  0  0
  147.2422  135.7181  162.3894 C   0  0  0  0  0  0  0  0  0  0  0  0
  150.9456  143.9955  161.4664 H   0  0  0  0  0  0  0  0  0  0  0  0
  152.2110  145.2167  161.5477 H   0  0  0  0  0  0  0  0  0  0  0  0
  152.4342  143.6755  162.3527 H   0  0  0  0  0  0  0  0  0  0  0  0
  153.7377  143.7317  160.2394 H   0  0  0  0  0  0  0  0  0  0  0  0
  151.0879  144.2366  158.8098 H   0  0  0  0  0  0  0  0  0  0  0  0
  152.6554  144.0108  158.0379 H   0  0  0  0  0  0  0  0  0  0  0  0
  152.3693  145.4234  159.0436 H   0  0  0  0  0  0  0  0  0  0  0  0
  152.9521  141.5196  160.7694 H   0  0  0  0  0  0  0  0  0  0  0  0
  151.3417  141.8770  160.2088 H   0  0  0  0  0  0  0  0  0  0  0  0
  153.0509  142.3548  157.9630 H   0  0  0  0  0  0  0  0  0  0  0  0
  153.5963  140.8635  158.6627 H   0  0  0  0  0  0  0  0  0  0  0  0
  151.4384  142.1773  156.4423 H   0  0  0  0  0  0  0  0  0  0  0  0
  152.0606  140.6289  155.9384 H   0  0  0  0  0  0  0  0  0  0  0  0
  149.7473  139.6176  156.3232 H   0  0  0  0  0  0  0  0  0  0  0  0
  149.1713  141.2026  156.8075 H   0  0  0  0  0  0  0  0  0  0  0  0
  153.4929  137.0374  159.3456 H   0  0  0  0  0  0  0  0  0  0  0  0
  147.1871  138.1334  158.6395 H   0  0  0  0  0  0  0  0  0  0  0  0
  148.7651  135.0679  158.7517 H   0  0  0  0  0  0  0  0  0  0  0  0
  149.0401  135.4741  160.4260 H   0  0  0  0  0  0  0  0  0  0  0  0
  146.6642  136.8231  159.8744 H   0  0  0  0  0  0  0  0  0  0  0  0
  146.4987  134.1426  158.4125 H   0  0  0  0  0  0  0  0  0  0  0  0
  145.1496  135.2192  158.7070 H   0  0  0  0  0  0  0  0  0  0  0  0
  145.8602  135.7372  156.7526 H   0  0  0  0  0  0  0  0  0  0  0  0
  145.5218  135.1710  161.2670 H   0  0  0  0  0  0  0  0  0  0  0  0
  146.0155  133.0370  161.2814 H   0  0  0  0  0  0  0  0  0  0  0  0
  147.5213  133.2330  160.4066 H   0  0  0  0  0  0  0  0  0  0  0  0
  147.4752  132.5707  163.0926 H   0  0  0  0  0  0  0  0  0  0  0  0
  148.7721  133.5499  162.3968 H   0  0  0  0  0  0  0  0  0  0  0  0
  148.2614  136.0615  162.2129 H   0  0  0  0  0  0  0  0  0  0  0  0
  146.6685  136.5538  162.7893 H   0  0  0  0  0  0  0  0  0  0  0  0
  1  2  1  0  0  0  0
  1 29  1  0  0  0  0
  1 30  1  0  0  0  0
  1 31  1  0  0  0  0
  2  3  1  0  0  0  0
  2  4  1  0  0  0  0
  2 32  1  0  0  0  0
  3 33  1  0  0  0  0
  3 34  1  0  0  0  0
  3 35  1  0  0  0  0
  4  5  1  0  0  0  0
  4 36  1  0  0  0  0
  4 37  1  0  0  0  0
  5  6  1  0  0  0  0
  5 38  1  0  0  0  0
  5 39  1  0  0  0  0
  6  7  1  0  0  0  0
  6 11  1  0  0  0  0
  7  8  1  0  0  0  0
  7 40  1  0  0  0  0
  7 41  1  0  0  0  0
  8  9  1  0  0  0  0
  8 42  1  0  0  0  0
  8 43  1  0  0  0  0
  9 10  3  0  0  0  0
 11 16  1  0  0  0  0
 11 12  2  0  0  0  0
 12 13  1  0  0  0  0
 13 14  2  0  0  0  0
 13 44  1  0  0  0  0
 14 15  1  0  0  0  0
 15 19  1  0  0  0  0
 15 16  2  0  0  0  0
 16 17  1  0  0  0  0
 17 18  2  0  0  0  0
 18 19  1  0  0  0  0
 18 45  1  0  0  0  0
 19 20  1  0  0  0  0
 20 21  1  0  0  0  0
 20 46  1  0  0  0  0
 20 47  1  0  0  0  0
 21 22  1  0  0  0  0
 21 24  1  0  0  0  0
 21 48  1  0  0  0  0
 22 23  1  0  0  0  0
 22 49  1  0  0  0  0
 22 50  1  0  0  0  0
 23 51  1  0  0  0  0
 24 28  1  0  0  0  0
 24 25  1  0  0  0  0
 24 52  1  0  0  0  0
 25 26  1  0  0  0  0
 25 53  1  0  0  0  0
 25 54  1  0  0  0  0
 26 27  1  0  0  0  0
 26 55  1  0  0  0  0
 26 56  1  0  0  0  0
 27 28  1  0  0  0  0
 28 57  1  0  0  0  0
 28 58  1  0  0  0  0
M  END
> <s_m_source_file>
AV-unprocessed.smi

> <i_m_source_file_index>
271

> <i_lp_mmshare_version>
43012

> <i_f3d_flags>
0

> <s_epik_input>
W0NIM11bQ0hdKFtDSDNdKVtDSDJdW0NIMl1OKFtDSDJdW0NIMl1DI04pYyhuW2NIXW4xKWMoYzEyKW5bY0hdbjJbQ0gyXVtDQEhdKFtDSDJdW09IXSlbQ0BASF0zW0NIMl1bQ0gyXU9bQ0gyXTM=

> <s_epik_cmdline>
J2VwaWtfcHl0aG9uJywgJy1waCcsICc3LjAnLCAnLXRuJywgJzgnLCAnLW1hJywgJzIwMCcsICctbWV0YWxfYmluZGluZycsICctaW1hZScsICc8aW5maWxlLm1hZT4nLCAnLW9tYWUnLCAnPG91dGZpbGUubWFlPic=

> <r_lp_tautomer_probability>
1

> <r_epik_Ionization_Penalty>
0.000825874

> <r_epik_Ionization_Penalty_Charging>
0

> <r_epik_Ionization_Penalty_Neutral>
0.000825874

> <r_epik_State_Penalty>
0.000396768

> <r_epik_Charging_Adjusted_Penalty>
0.000396768

> <i_epik_Tot_Q>
0

> <i_epik_Tot_abs_Q>
0

> <r_epik_Metal_State_Penalty>
-0

> <b_epik_Metal_Only>
0

> <s_lp_Force_Field>
OPLS_2005

> <r_lp_Energy>
37.4576

> <b_lp_Chiralities_Consistent>
1

> <s_lp_Variant>
AV-unprocessed.smi:271-4

> <Gold.Version>
5.8.1

> <Gold.Id.Protein>
6NUR|6NUR_protein|mol2

> <Gold.PLP.Fitness>
50.4033

> <Gold.PLP.PLP>
-48.5630

> <Gold.PLP.part.hbond>
-4.5866

> <Gold.PLP.part.metal>
0.0000

> <Gold.PLP.part.buried>
-5.9276

> <Gold.PLP.part.nonpolar>
-37.5350

> <Gold.PLP.part.repulsive>
0.6301

> <Gold.PLP.ligand.clash>
0.0000

> <Gold.PLP.ligand.torsion>
2.2433

> <Gold.PLP.Chemscore.Hbond>
1.7200

> <Gold.PLP.Chemscore.CHOScore>
0.0000

> <Gold.PLP.Chemscore.Metal>
0.0000

> <Gold.Chemscore.Hbonds>
donor molecule, donor type, donor heavy atom, donor atom, acceptor molecule, acceptor atom, score
      P1  H  6896  6907       L1    14  1.00
      P1  H  7989  7998       L1    10  0.01
      P1  H  8011  8017       L1    10  0.91

> <Gold.PLP.Chemscore.Internal.Correction>
1.1668

> <Gold.Rescore>
     Score         DG    S(hbond)    S(metal)    S(lipo)     H(rot)  DE(clash)    DE(int)     intcor
      9.69     -15.08       1.88        0.00     110.77       3.77       1.62       3.77       ----

> <Gold.Chemscore.Fitness>
9.6864

> <Gold.Chemscore.DG>
-15.0765

> <Gold.Chemscore.ZeroCoef>
-5.4800

> <Gold.Chemscore.Hbond>
1.8812

> <Gold.Chemscore.Metal>
0.0000

> <Gold.Chemscore.Lipo>
110.7683

> <Gold.Chemscore.Internal_Hbond>
0.0000

> <Gold.Chemscore.DEClash>
1.6185

> <Gold.Chemscore.DEInternal>
3.7716

> <Gold.Chemscore.Rot>
3.7683

> <Gold.Chemscore.Internal.Correction>
   9.000000E+99

> <Gold.Chemscore.Hbonds>
donor molecule, donor type, donor heavy atom, donor atom, acceptor molecule, acceptor atom, score
      P1  H  6896  6907       L1    14  0.95
      P1  H  8011  8017       L1    10  0.88

> <Gold.Chemscore.Hbond.Weighted>
-6.2834

> <Gold.Chemscore.Metal.Weighted>
-0.0000

> <Gold.Chemscore.Lipo.Weighted>
-12.9599

> <Gold.Chemscore.Internal_Hbond.Weighted>
0.0000

> <Gold.Chemscore.DEClash.Weighted>
1.6185

> <Gold.Chemscore.DEInternal.Weighted>
3.7716

> <Gold.Chemscore.Rot.Weighted>
9.6468

> <Gold.Chemscore.Internal.Correction.Weighted>
   9.000000E+99

> <Gold.Protein.RotatedTorsions>
[ 6907 6896 6895 6894 ] final  -16.32 input  -60.11 | X-H torsion
[ 7974 7965 7964 7962 ] final   22.03 input  175.53 | X-H torsion
[ 8008 7997 7996 7995 ] final   17.34 input   59.86 | X-H torsion
[ 10167 10162 10161 10158 ] final   13.70 input  -65.29 | X-H torsion
[ 10718 10713 10712 10709 ] final -105.46 input   66.30 | X-H torsion
[ 10763 10752 10751 10750 ] final   92.18 input  -60.55 | X-H torsion
[ 11005 11000 10999 10996 ] final  145.35 input  -57.11 | X-H torsion

> <Gold.Protein.ActiveResidues>
 VAL166  LYS551  ARG553  GLY616  TRP617  ASP618  TYR619  PRO620  LYS621  CYS622 
 ASP623  PHE694  ASN695  SER759  ASP760  ASP761  ALA762  ILE779  LEU786  VAL792 
 PHE793  MET794  SER795  GLU796  ALA797  LYS798  CYS799  TRP800  GLU811  SER814 

> <Gold.Protein.RotatedAtoms>
  151.3105  135.0793  159.9270 H   0  0  0  0  0  0  0  0  0  0  0  0  # atno 6907 bound_to 6896
  152.5279  133.9741  159.7786 H   0  0  0  0  0  0  0  0  0  0  0  0  # atno 6908 bound_to 6896
  151.0044  133.5973  159.2721 H   0  0  0  0  0  0  0  0  0  0  0  0  # atno 6909 bound_to 6896
  146.2046  139.7943  142.8735 H   0  0  0  0  0  0  0  0  0  0  0  0  # atno 7974 bound_to 7965
  154.8901  140.2985  155.5376 H   0  0  0  0  0  0  0  0  0  0  0  0  # atno 8008 bound_to 7997
  156.3021  140.2426  156.3849 H   0  0  0  0  0  0  0  0  0  0  0  0  # atno 8009 bound_to 7997
  154.8628  140.0404  157.1664 H   0  0  0  0  0  0  0  0  0  0  0  0  # atno 8010 bound_to 7997
  140.5985  143.8653  150.6941 H   0  0  0  0  0  0  0  0  0  0  0  0  # atno 10167 bound_to 10162
  156.0347  130.5565  150.7543 H   0  0  0  0  0  0  0  0  0  0  0  0  # atno 10718 bound_to 10713
  153.2164  135.4370  155.0439 H   0  0  0  0  0  0  0  0  0  0  0  0  # atno 10763 bound_to 10752
  154.8227  135.3345  154.6992 H   0  0  0  0  0  0  0  0  0  0  0  0  # atno 10764 bound_to 10752
  153.7427  135.7003  153.5019 H   0  0  0  0  0  0  0  0  0  0  0  0  # atno 10765 bound_to 10752
  140.0705  134.9154  157.1337 H   0  0  0  0  0  0  0  0  0  0  0  0  # atno 11005 bound_to 11000
  145.3364  141.0278  143.3417 LP  0  0  0  0  0  0  0  0  0  0  0  0  # atno 17320 bound_to 7965
  144.8762  139.4967  143.6744 LP  0  0  0  0  0  0  0  0  0  0  0  0  # atno 17321 bound_to 7965
  140.2193  143.3822  152.1656 LP  0  0  0  0  0  0  0  0  0  0  0  0  # atno 17342 bound_to 10162
  139.5274  144.7119  151.5177 LP  0  0  0  0  0  0  0  0  0  0  0  0  # atno 17343 bound_to 10162
  157.5079  131.0923  151.0234 LP  0  0  0  0  0  0  0  0  0  0  0  0  # atno 17370 bound_to 10713
  157.0598  130.5821  149.5384 LP  0  0  0  0  0  0  0  0  0  0  0  0  # atno 17371 bound_to 10713
  140.3634  134.2469  155.7185 LP  0  0  0  0  0  0  0  0  0  0  0  0  # atno 17394 bound_to 11000
  141.2010  133.7974  157.0463 LP  0  0  0  0  0  0  0  0  0  0  0  0  # atno 17395 bound_to 11000

$$$$
