AV-unprocessed.smi:290|AV-procd|sdf|2229|dock9
  -GOLD-   2262022 83D 1   1.00000     0.00000
 Structure written by MMmdl.
 59 62  0  0  0  0  0  0  0  0  2 V2000
  149.6243  139.7750  155.5736 C   0  0  0  0  0  0  0  0  0  0  0  0
  149.8575  139.5893  157.0832 C   0  0  2  0  0  0  0  0  0  0  0  0
  149.4563  140.7611  157.7918 O   0  0  0  0  0  0  0  0  0  0  0  0
  150.5572  141.2968  158.5097 C   0  0  0  0  0  0  0  0  0  0  0  0
  151.4276  140.0843  158.8106 C   0  0  0  0  0  0  0  0  0  0  0  0
  151.3046  139.2647  157.5346 C   0  0  2  0  0  0  0  0  0  0  0  0
  152.2530  139.7598  156.6021 O   0  0  0  0  0  0  0  0  0  0  0  0
  151.5862  137.7607  157.7669 C   0  0  0  0  0  0  0  0  0  0  0  0
  150.8248  136.8877  156.8869 N   0  0  0  0  0  0  0  0  0  0  0  0
  150.7444  136.9660  155.5151 C   0  0  0  0  0  0  0  0  0  0  0  0
  149.9824  136.0697  154.9506 N   0  0  0  0  0  0  0  0  0  0  0  0
  149.5028  135.3112  156.0124 C   0  0  0  0  0  0  0  0  0  0  0  0
  148.6327  134.1879  156.1170 C   0  0  0  0  0  0  0  0  0  0  0  0
  148.0343  133.6133  155.0398 N   0  0  0  0  0  0  0  0  0  0  0  0
  148.7775  132.5562  154.3573 C   0  0  0  0  0  0  0  0  0  0  0  0
  148.4681  132.6986  152.8634 C   0  0  0  0  0  0  0  0  0  0  0  0
  147.1415  133.4656  152.8605 C   0  0  2  0  0  0  0  0  0  0  0  0
  146.7854  134.1454  151.5821 N   0  3  2  0  0  0  0  0  0  0  0  0
  145.4562  134.7973  151.6526 C   0  0  0  0  0  0  0  0  0  0  0  0
  146.9595  133.3310  150.3483 C   0  0  0  0  0  0  0  0  0  0  0  0
  145.7833  132.3659  150.1315 C   0  0  0  0  0  0  0  0  0  0  0  0
  144.8774  132.9112  149.1953 O   0  0  0  0  0  0  0  0  0  0  0  0
  147.2826  134.4050  154.0663 C   0  0  1  0  0  0  0  0  0  0  0  0
  145.9262  134.8849  154.6136 C   0  0  0  0  0  0  0  0  0  0  0  0
  148.4031  133.6937  157.3627 N   0  0  0  0  0  0  0  0  0  0  0  0
  148.9754  134.2553  158.4313 C   0  0  0  0  0  0  0  0  0  0  0  0
  149.7975  135.3041  158.4817 N   0  0  0  0  0  0  0  0  0  0  0  0
  150.0361  135.8055  157.2366 C   0  0  0  0  0  0  0  0  0  0  0  0
  146.3484  132.7536  153.0987 H   0  0  0  0  0  0  0  0  0  0  0  0
  147.8838  135.2728  153.7985 H   0  0  0  0  0  0  0  0  0  0  0  0
  149.9267  138.8912  155.0125 H   0  0  0  0  0  0  0  0  0  0  0  0
  150.1793  140.6285  155.1838 H   0  0  0  0  0  0  0  0  0  0  0  0
  148.5688  139.9508  155.3663 H   0  0  0  0  0  0  0  0  0  0  0  0
  149.1919  138.8019  157.4374 H   0  0  0  0  0  0  0  0  0  0  0  0
  151.0883  142.0068  157.8742 H   0  0  0  0  0  0  0  0  0  0  0  0
  150.2331  141.8188  159.4101 H   0  0  0  0  0  0  0  0  0  0  0  0
  152.4544  140.3466  159.0692 H   0  0  0  0  0  0  0  0  0  0  0  0
  151.0004  139.5398  159.6540 H   0  0  0  0  0  0  0  0  0  0  0  0
  151.8889  139.6816  155.7338 H   0  0  0  0  0  0  0  0  0  0  0  0
  152.6470  137.5467  157.6293 H   0  0  0  0  0  0  0  0  0  0  0  0
  151.3541  137.4898  158.7976 H   0  0  0  0  0  0  0  0  0  0  0  0
  151.2660  137.7190  154.9424 H   0  0  0  0  0  0  0  0  0  0  0  0
  149.8515  132.6152  154.5409 H   0  0  0  0  0  0  0  0  0  0  0  0
  148.4256  131.5925  154.7268 H   0  0  0  0  0  0  0  0  0  0  0  0
  149.2674  133.2711  152.3933 H   0  0  0  0  0  0  0  0  0  0  0  0
  148.4045  131.7358  152.3558 H   0  0  0  0  0  0  0  0  0  0  0  0
  144.6641  134.0577  151.7754 H   0  0  0  0  0  0  0  0  0  0  0  0
  145.2464  135.3711  150.7507 H   0  0  0  0  0  0  0  0  0  0  0  0
  145.4084  135.4895  152.4937 H   0  0  0  0  0  0  0  0  0  0  0  0
  147.0514  133.9572  149.4618 H   0  0  0  0  0  0  0  0  0  0  0  0
  147.8943  132.7721  150.4133 H   0  0  0  0  0  0  0  0  0  0  0  0
  146.1474  131.4151  149.7418 H   0  0  0  0  0  0  0  0  0  0  0  0
  145.2603  132.1475  151.0621 H   0  0  0  0  0  0  0  0  0  0  0  0
  145.2763  133.6664  148.7899 H   0  0  0  0  0  0  0  0  0  0  0  0
  145.3762  135.4414  153.8546 H   0  0  0  0  0  0  0  0  0  0  0  0
  146.0462  135.5431  155.4740 H   0  0  0  0  0  0  0  0  0  0  0  0
  145.3047  134.0450  154.9257 H   0  0  0  0  0  0  0  0  0  0  0  0
  148.7394  133.8001  159.3821 H   0  0  0  0  0  0  0  0  0  0  0  0
  147.4534  134.8989  151.4993 H   0  0  0  0  0  0  0  0  0  0  0  0
  1  2  1  0  0  0  0
  1 31  1  0  0  0  0
  1 32  1  0  0  0  0
  1 33  1  0  0  0  0
  2  6  1  0  0  0  0
  2  3  1  0  0  0  0
  2 34  1  0  0  0  0
  3  4  1  0  0  0  0
  4  5  1  0  0  0  0
  4 35  1  0  0  0  0
  4 36  1  0  0  0  0
  5  6  1  0  0  0  0
  5 37  1  0  0  0  0
  5 38  1  0  0  0  0
  6  7  1  0  0  0  0
  6  8  1  0  0  0  0
  7 39  1  0  0  0  0
  8  9  1  0  0  0  0
  8 40  1  0  0  0  0
  8 41  1  0  0  0  0
  9 28  1  0  0  0  0
  9 10  1  0  0  0  0
 10 11  2  0  0  0  0
 10 42  1  0  0  0  0
 11 12  1  0  0  0  0
 12 28  2  0  0  0  0
 12 13  1  0  0  0  0
 13 14  1  0  0  0  0
 13 25  2  0  0  0  0
 14 23  1  0  0  0  0
 14 15  1  0  0  0  0
 15 16  1  0  0  0  0
 15 43  1  0  0  0  0
 15 44  1  0  0  0  0
 16 17  1  0  0  0  0
 16 45  1  0  0  0  0
 16 46  1  0  0  0  0
 17 29  1  0  0  0  0
 17 18  1  0  0  0  0
 17 23  1  0  0  0  0
 18 19  1  0  0  0  0
 18 20  1  0  0  0  0
 18 59  1  0  0  0  0
 19 47  1  0  0  0  0
 19 48  1  0  0  0  0
 19 49  1  0  0  0  0
 20 21  1  0  0  0  0
 20 50  1  0  0  0  0
 20 51  1  0  0  0  0
 21 22  1  0  0  0  0
 21 52  1  0  0  0  0
 21 53  1  0  0  0  0
 22 54  1  0  0  0  0
 23 30  1  0  0  0  0
 23 24  1  0  0  0  0
 24 55  1  0  0  0  0
 24 56  1  0  0  0  0
 24 57  1  0  0  0  0
 25 26  1  0  0  0  0
 26 27  2  0  0  0  0
 26 58  1  0  0  0  0
 27 28  1  0  0  0  0
M  CHG  1  18   1
M  END
> <s_m_source_file>
AV-unprocessed.smi

> <i_m_source_file_index>
290

> <i_lp_mmshare_version>
43012

> <i_f3d_flags>
0

> <s_epik_input>
W0NIMl0xW0NIMl1PW0NAQEhdKFtDSDNdKVtDQEBdMShbT0hdKVtDSDJdbihbY0hdbjIpYyhjMjMpbltjSF1uYzNONFtDSDJdW0NIMl1bQ0BIXShbQ0BIXTRbQ0gzXSlOKFtDSDNdKVtDSDJdW0NIMl1bT0hd

> <s_epik_cmdline>
J2VwaWtfcHl0aG9uJywgJy1waCcsICc3LjAnLCAnLXRuJywgJzgnLCAnLW1hJywgJzIwMCcsICctbWV0YWxfYmluZGluZycsICctaW1hZScsICc8aW5maWxlLm1hZT4nLCAnLW9tYWUnLCAnPG91dGZpbGUubWFlPic=

> <r_lp_tautomer_probability>
1

> <r_epik_Ionization_Penalty>
0.0036983

> <r_epik_Ionization_Penalty_Charging>
0.0032725

> <r_epik_Ionization_Penalty_Neutral>
0.000425798

> <r_epik_State_Penalty>
-0

> <r_epik_Charging_Adjusted_Penalty>
0.0032725

> <i_epik_Tot_Q>
1

> <i_epik_Tot_abs_Q>
1

> <r_epik_Metal_State_Penalty>
-0

> <b_epik_Metal_Only>
0

> <s_lp_Force_Field>
OPLS_2005

> <r_lp_Energy>
60.087

> <b_lp_Chiralities_Consistent>
1

> <s_lp_Variant>
AV-unprocessed.smi:290-15

> <Gold.Version>
5.8.1

> <Gold.Id.Protein>
6NUR|6NUR_protein|mol2

> <Gold.PLP.Fitness>
43.7835

> <Gold.PLP.PLP>
-31.4401

> <Gold.PLP.part.hbond>
-4.0000

> <Gold.PLP.part.metal>
0.0000

> <Gold.PLP.part.buried>
-4.9553

> <Gold.PLP.part.nonpolar>
-22.0366

> <Gold.PLP.part.repulsive>
0.2943

> <Gold.PLP.ligand.clash>
0.0213

> <Gold.PLP.ligand.torsion>
1.5766

> <Gold.PLP.Chemscore.Hbond>
5.0000

> <Gold.PLP.Chemscore.CHOScore>
0.0000

> <Gold.PLP.Chemscore.Metal>
0.0000

> <Gold.Chemscore.Hbonds>
donor molecule, donor type, donor heavy atom, donor atom, acceptor molecule, acceptor atom, score
      L1  H    18    59       P1  7948  2.00
      L1  H    22    54       P1  7921  1.00
      P1  H  6896  6909       L1    27  0.88
      P1  H  7997  8008       L1     7  0.73

> <Gold.PLP.Chemscore.Internal.Correction>
0.5180

> <Gold.Rescore>
     Score         DG    S(hbond)    S(metal)    S(lipo)     H(rot)  DE(clash)    DE(int)     intcor
     14.52     -15.86       3.64        0.00      65.09       3.67       0.00       1.34       ----

> <Gold.Chemscore.Fitness>
14.5189

> <Gold.Chemscore.DG>
-15.8554

> <Gold.Chemscore.ZeroCoef>
-5.4800

> <Gold.Chemscore.Hbond>
3.6362

> <Gold.Chemscore.Metal>
0.0000

> <Gold.Chemscore.Lipo>
65.0852

> <Gold.Chemscore.Internal_Hbond>
0.0000

> <Gold.Chemscore.DEClash>
0.0000

> <Gold.Chemscore.DEInternal>
1.3366

> <Gold.Chemscore.Rot>
3.6658

> <Gold.Chemscore.Internal.Correction>
   9.000000E+99

> <Gold.Chemscore.Hbonds>
donor molecule, donor type, donor heavy atom, donor atom, acceptor molecule, acceptor atom, score
      L1  H    18    59       P1  7948  0.54
      L1  H    22    54       P1  7921  0.70
      P1  H  6896  6909       L1    27  0.22
      P1  H  7997  8008       L1     7  0.36

> <Gold.Chemscore.Hbond.Weighted>
-12.1449

> <Gold.Chemscore.Metal.Weighted>
-0.0000

> <Gold.Chemscore.Lipo.Weighted>
-7.6150

> <Gold.Chemscore.Internal_Hbond.Weighted>
0.0000

> <Gold.Chemscore.DEClash.Weighted>
0.0000

> <Gold.Chemscore.DEInternal.Weighted>
1.3366

> <Gold.Chemscore.Rot.Weighted>
9.3844

> <Gold.Chemscore.Internal.Correction.Weighted>
   9.000000E+99

> <Gold.Protein.RotatedTorsions>
[ 6907 6896 6895 6894 ] final   68.14 input  -60.11 | X-H torsion
[ 7974 7965 7964 7962 ] final  157.84 input  175.53 | X-H torsion
[ 8008 7997 7996 7995 ] final  -40.24 input   59.86 | X-H torsion
[ 10167 10162 10161 10158 ] final  -50.56 input  -65.29 | X-H torsion
[ 10718 10713 10712 10709 ] final   88.05 input   66.30 | X-H torsion
[ 10763 10752 10751 10750 ] final  -22.78 input  -60.55 | X-H torsion
[ 11005 11000 10999 10996 ] final  111.39 input  -57.11 | X-H torsion

> <Gold.Protein.ActiveResidues>
 VAL166  LYS551  ARG553  GLY616  TRP617  ASP618  TYR619  PRO620  LYS621  CYS622 
 ASP623  PHE694  ASN695  SER759  ASP760  ASP761  ALA762  ILE779  LEU786  VAL792 
 PHE793  MET794  SER795  GLU796  ALA797  LYS798  CYS799  TRP800  GLU811  SER814 

> <Gold.Protein.RotatedAtoms>
  152.4600  134.5205  159.9780 H   0  0  0  0  0  0  0  0  0  0  0  0  # atno 6907 bound_to 6896
  151.5256  133.3452  159.2917 H   0  0  0  0  0  0  0  0  0  0  0  0  # atno 6908 bound_to 6896
  150.8559  134.7928  159.7108 H   0  0  0  0  0  0  0  0  0  0  0  0  # atno 6909 bound_to 6896
  144.7880  139.7395  143.6233 H   0  0  0  0  0  0  0  0  0  0  0  0  # atno 7974 bound_to 7965
  154.4014  140.1530  156.2994 H   0  0  0  0  0  0  0  0  0  0  0  0  # atno 8008 bound_to 7997
  155.8714  140.3448  155.5802 H   0  0  0  0  0  0  0  0  0  0  0  0  # atno 8009 bound_to 7997
  155.7770  140.0838  157.2069 H   0  0  0  0  0  0  0  0  0  0  0  0  # atno 8010 bound_to 7997
  140.6632  143.2653  151.4376 H   0  0  0  0  0  0  0  0  0  0  0  0  # atno 10167 bound_to 10162
  157.6946  131.0280  150.3216 H   0  0  0  0  0  0  0  0  0  0  0  0  # atno 10718 bound_to 10713
  153.6574  135.6978  153.5188 H   0  0  0  0  0  0  0  0  0  0  0  0  # atno 10763 bound_to 10752
  153.2658  135.4230  155.0939 H   0  0  0  0  0  0  0  0  0  0  0  0  # atno 10764 bound_to 10752
  154.8461  135.3566  154.6119 H   0  0  0  0  0  0  0  0  0  0  0  0  # atno 10765 bound_to 10752
  139.8902  134.9507  156.6425 H   0  0  0  0  0  0  0  0  0  0  0  0  # atno 11005 bound_to 11000
  146.2120  139.5483  142.9674 LP  0  0  0  0  0  0  0  0  0  0  0  0  # atno 17320 bound_to 7965
  145.5870  141.0375  143.2091 LP  0  0  0  0  0  0  0  0  0  0  0  0  # atno 17321 bound_to 7965
  139.5872  144.1579  152.2043 LP  0  0  0  0  0  0  0  0  0  0  0  0  # atno 17342 bound_to 10162
  140.0922  144.5611  150.7047 LP  0  0  0  0  0  0  0  0  0  0  0  0  # atno 17343 bound_to 10162
  156.3703  130.3862  149.7181 LP  0  0  0  0  0  0  0  0  0  0  0  0  # atno 17370 bound_to 10713
  156.4597  130.7946  151.2966 LP  0  0  0  0  0  0  0  0  0  0  0  0  # atno 17371 bound_to 10713
  140.7582  133.8839  155.8398 LP  0  0  0  0  0  0  0  0  0  0  0  0  # atno 17394 bound_to 11000
  140.9944  134.1235  157.4378 LP  0  0  0  0  0  0  0  0  0  0  0  0  # atno 17395 bound_to 11000

$$$$
