AV-unprocessed.smi:1466|AV-procd|sdf|5953|dock5
  -GOLD-   22720 6 33D 1   1.00000     0.00000
 Structure written by MMmdl.
 49 50  0  0  0  0  0  0  0  0  2 V2000
  147.7038  127.8296  152.2666 C   0  0  0  0  0  0  0  0  0  0  0  0
  146.7074  128.8923  152.2763 N   0  0  0  0  0  0  0  0  0  0  0  0
  145.3067  128.5912  152.0023 C   0  0  0  0  0  0  0  0  0  0  0  0
  147.0980  130.2189  152.5597 C   0  0  0  0  0  0  0  0  0  0  0  0
  146.3209  131.3486  152.2038 C   0  0  0  0  0  0  0  0  0  0  0  0
  146.7770  132.6454  152.5185 C   0  0  0  0  0  0  0  0  0  0  0  0
  148.0176  132.8084  153.1817 C   0  0  0  0  0  0  0  0  0  0  0  0
  148.5608  134.0673  153.5556 N   0  0  0  0  0  0  0  0  0  0  0  0
  149.2454  134.3830  154.6685 C   0  0  0  0  0  0  0  0  0  0  0  0
  149.5132  133.6036  155.5827 O   0  0  0  0  0  0  0  0  0  0  0  0
  149.5911  135.6782  154.6766 N   0  0  0  0  0  0  0  0  0  0  0  0
  150.3207  136.3391  155.7523 C   0  0  0  0  0  0  0  0  0  0  0  0
  150.8677  137.7073  155.3046 C   0  0  0  0  0  0  0  0  0  0  0  0
  150.6105  138.7435  156.3113 N   0  0  0  0  0  0  0  0  0  0  0  0
  150.5062  138.2798  157.7036 C   0  0  0  0  0  0  0  0  0  0  0  0
  151.7015  138.6979  158.5905 C   0  0  0  0  0  0  0  0  0  0  0  0
  152.3900  140.0272  158.2221 C   0  0  0  0  0  0  0  0  0  0  0  0
  151.4423  141.2367  158.0765 C   0  0  0  0  0  0  0  0  0  0  0  0
  150.2553  141.0733  157.0969 C   0  0  0  0  0  0  0  0  0  0  0  0
  150.4913  140.0508  155.9730 C   0  0  0  0  0  0  0  0  0  0  0  0
  150.5634  140.4523  154.8112 O   0  0  0  0  0  0  0  0  0  0  0  0
  148.7442  131.6518  153.5282 C   0  0  0  0  0  0  0  0  0  0  0  0
  148.2702  130.4288  153.2074 N   0  3  0  0  0  0  0  0  0  0  0  0
  148.2128  127.7710  153.2291 H   0  0  0  0  0  0  0  0  0  0  0  0
  148.4465  128.0090  151.4887 H   0  0  0  0  0  0  0  0  0  0  0  0
  147.2464  126.8592  152.0734 H   0  0  0  0  0  0  0  0  0  0  0  0
  144.6891  128.8223  152.8707 H   0  0  0  0  0  0  0  0  0  0  0  0
  145.1669  127.5367  151.7637 H   0  0  0  0  0  0  0  0  0  0  0  0
  144.9469  129.1746  151.1541 H   0  0  0  0  0  0  0  0  0  0  0  0
  145.3740  131.2441  151.6961 H   0  0  0  0  0  0  0  0  0  0  0  0
  146.1565  133.4879  152.2549 H   0  0  0  0  0  0  0  0  0  0  0  0
  148.3489  134.8338  152.9338 H   0  0  0  0  0  0  0  0  0  0  0  0
  149.3282  136.2499  153.8869 H   0  0  0  0  0  0  0  0  0  0  0  0
  149.6777  136.4429  156.6281 H   0  0  0  0  0  0  0  0  0  0  0  0
  151.1447  135.6901  156.0497 H   0  0  0  0  0  0  0  0  0  0  0  0
  151.9374  137.6326  155.1039 H   0  0  0  0  0  0  0  0  0  0  0  0
  150.4207  138.0003  154.3527 H   0  0  0  0  0  0  0  0  0  0  0  0
  149.5787  138.6552  158.1363 H   0  0  0  0  0  0  0  0  0  0  0  0
  150.3926  137.1957  157.7444 H   0  0  0  0  0  0  0  0  0  0  0  0
  151.3727  138.7325  159.6297 H   0  0  0  0  0  0  0  0  0  0  0  0
  152.4560  137.9117  158.5475 H   0  0  0  0  0  0  0  0  0  0  0  0
  153.1382  140.2564  158.9814 H   0  0  0  0  0  0  0  0  0  0  0  0
  152.9569  139.8966  157.2994 H   0  0  0  0  0  0  0  0  0  0  0  0
  151.0475  141.4957  159.0593 H   0  0  0  0  0  0  0  0  0  0  0  0
  152.0355  142.0974  157.7657 H   0  0  0  0  0  0  0  0  0  0  0  0
  149.3548  140.7943  157.6430 H   0  0  0  0  0  0  0  0  0  0  0  0
  150.0218  142.0424  156.6540 H   0  0  0  0  0  0  0  0  0  0  0  0
  149.6928  131.6655  154.0457 H   0  0  0  0  0  0  0  0  0  0  0  0
  148.8281  129.6154  153.4677 H   0  0  0  0  0  0  0  0  0  0  0  0
  1  2  1  0  0  0  0
  1 24  1  0  0  0  0
  1 25  1  0  0  0  0
  1 26  1  0  0  0  0
  2  3  1  0  0  0  0
  2  4  1  0  0  0  0
  3 27  1  0  0  0  0
  3 28  1  0  0  0  0
  3 29  1  0  0  0  0
  4 23  1  0  0  0  0
  4  5  2  0  0  0  0
  5  6  1  0  0  0  0
  5 30  1  0  0  0  0
  6  7  2  0  0  0  0
  6 31  1  0  0  0  0
  7  8  1  0  0  0  0
  7 22  1  0  0  0  0
  8  9  1  0  0  0  0
  8 32  1  0  0  0  0
  9 10  2  0  0  0  0
  9 11  1  0  0  0  0
 11 12  1  0  0  0  0
 11 33  1  0  0  0  0
 12 13  1  0  0  0  0
 12 34  1  0  0  0  0
 12 35  1  0  0  0  0
 13 14  1  0  0  0  0
 13 36  1  0  0  0  0
 13 37  1  0  0  0  0
 14 20  1  0  0  0  0
 14 15  1  0  0  0  0
 15 16  1  0  0  0  0
 15 38  1  0  0  0  0
 15 39  1  0  0  0  0
 16 17  1  0  0  0  0
 16 40  1  0  0  0  0
 16 41  1  0  0  0  0
 17 18  1  0  0  0  0
 17 42  1  0  0  0  0
 17 43  1  0  0  0  0
 18 19  1  0  0  0  0
 18 44  1  0  0  0  0
 18 45  1  0  0  0  0
 19 20  1  0  0  0  0
 19 46  1  0  0  0  0
 19 47  1  0  0  0  0
 20 21  2  0  0  0  0
 22 23  2  0  0  0  0
 22 48  1  0  0  0  0
 23 49  1  0  0  0  0
M  CHG  1  23   1
M  END
> <s_m_source_file>
AV-unprocessed.smi

> <i_m_source_file_index>
1466

> <i_lp_mmshare_version>
43012

> <i_f3d_flags>
0

> <s_epik_input>
W0NIM11OKFtDSDNdKWMxW2NIXVtjSF1jKFtjSF1uMSlbTkhdQyg9TylbTkhdW0NIMl1bQ0gyXU4yW0NIMl1bQ0gyXVtDSDJdW0NIMl1bQ0gyXUMyPU8=

> <s_epik_cmdline>
J2VwaWtfcHl0aG9uJywgJy1waCcsICc3LjAnLCAnLXRuJywgJzgnLCAnLW1hJywgJzIwMCcsICctbWV0YWxfYmluZGluZycsICctaW1hZScsICc8aW5maWxlLm1hZT4nLCAnLW9tYWUnLCAnPG91dGZpbGUubWFlPic=

> <r_lp_tautomer_probability>
0.999994

> <r_epik_Ionization_Penalty>
0.269687

> <r_epik_Ionization_Penalty_Charging>
0.269668

> <r_epik_Ionization_Penalty_Neutral>
1.89217e-05

> <r_epik_State_Penalty>
0.261755

> <r_epik_Charging_Adjusted_Penalty>
0.531423

> <i_epik_Tot_Q>
1

> <i_epik_Tot_abs_Q>
1

> <r_epik_Metal_State_Penalty>
0.546954

> <b_epik_Metal_Only>
0

> <s_lp_Force_Field>
OPLS_2005

> <r_lp_Energy>
31.5815

> <b_lp_Chiralities_Consistent>
1

> <s_lp_Variant>
AV-unprocessed.smi:1466-1

> <Gold.Version>
5.8.1

> <Gold.Id.Protein>
6NUR|6NUR_protein|mol2

> <Gold.PLP.Fitness>
43.7980

> <Gold.PLP.PLP>
-37.4838

> <Gold.PLP.part.hbond>
-3.8605

> <Gold.PLP.part.metal>
0.0000

> <Gold.PLP.part.buried>
-2.3406

> <Gold.PLP.part.nonpolar>
-31.1277

> <Gold.PLP.part.repulsive>
0.1650

> <Gold.PLP.ligand.clash>
0.0000

> <Gold.PLP.ligand.torsion>
1.2284

> <Gold.PLP.Chemscore.Hbond>
2.9120

> <Gold.PLP.Chemscore.CHOScore>
0.0000

> <Gold.PLP.Chemscore.Metal>
0.0000

> <Gold.Chemscore.Hbonds>
donor molecule, donor type, donor heavy atom, donor atom, acceptor molecule, acceptor atom, score
      L1  H     8    32       P1  7948  0.96
      L1  H    11    33       P1  7948  0.86
      P1  H  7989  7998       L1    21  1.00

> <Gold.PLP.Chemscore.Internal.Correction>
0.0350

> <Gold.Rescore>
     Score         DG    S(hbond)    S(metal)    S(lipo)     H(rot)  DE(clash)    DE(int)     intcor
     15.86     -18.48       2.38        0.00      76.09       1.50       0.26       2.36       ----

> <Gold.Chemscore.Fitness>
15.8600

> <Gold.Chemscore.DG>
-18.4833

> <Gold.Chemscore.ZeroCoef>
-5.4800

> <Gold.Chemscore.Hbond>
2.3812

> <Gold.Chemscore.Metal>
0.0000

> <Gold.Chemscore.Lipo>
76.0887

> <Gold.Chemscore.Internal_Hbond>
0.0000

> <Gold.Chemscore.DEClash>
0.2613

> <Gold.Chemscore.DEInternal>
2.3620

> <Gold.Chemscore.Rot>
1.5047

> <Gold.Chemscore.Internal.Correction>
   9.000000E+99

> <Gold.Chemscore.Hbonds>
donor molecule, donor type, donor heavy atom, donor atom, acceptor molecule, acceptor atom, score
      L1  H     8    32       P1  7948  0.60
      L1  H    11    33       P1  7948  0.68
      P1  H  7989  7998       L1    21  0.97

> <Gold.Chemscore.Hbond.Weighted>
-7.9531

> <Gold.Chemscore.Metal.Weighted>
-0.0000

> <Gold.Chemscore.Lipo.Weighted>
-8.9024

> <Gold.Chemscore.Internal_Hbond.Weighted>
0.0000

> <Gold.Chemscore.DEClash.Weighted>
0.2613

> <Gold.Chemscore.DEInternal.Weighted>
2.3620

> <Gold.Chemscore.Rot.Weighted>
3.8522

> <Gold.Chemscore.Internal.Correction.Weighted>
   9.000000E+99

> <Gold.Protein.RotatedTorsions>
[ 6907 6896 6895 6894 ] final   14.39 input  -60.11 | X-H torsion
[ 7974 7965 7964 7962 ] final -117.40 input  175.53 | X-H torsion
[ 8008 7997 7996 7995 ] final  -18.63 input   59.86 | X-H torsion
[ 10167 10162 10161 10158 ] final  -55.05 input  -65.29 | X-H torsion
[ 10718 10713 10712 10709 ] final  100.90 input   66.30 | X-H torsion
[ 10763 10752 10751 10750 ] final   66.07 input  -60.55 | X-H torsion
[ 11005 11000 10999 10996 ] final  109.16 input  -57.11 | X-H torsion

> <Gold.Protein.ActiveResidues>
 VAL166  LYS551  ARG553  GLY616  TRP617  ASP618  TYR619  PRO620  LYS621  CYS622 
 ASP623  PHE694  ASN695  SER759  ASP760  ASP761  ALA762  ILE779  LEU786  VAL792 
 PHE793  MET794  SER795  GLU796  ALA797  LYS798  CYS799  TRP800  GLU811  SER814 

> <Gold.Protein.RotatedAtoms>
  151.8014  135.0707  160.0400 H   0  0  0  0  0  0  0  0  0  0  0  0  # atno 6907 bound_to 6896
  152.3086  133.5725  159.5674 H   0  0  0  0  0  0  0  0  0  0  0  0  # atno 6908 bound_to 6896
  150.7308  134.0102  159.3709 H   0  0  0  0  0  0  0  0  0  0  0  0  # atno 6909 bound_to 6896
  145.0857  140.8456  143.4012 H   0  0  0  0  0  0  0  0  0  0  0  0  # atno 7974 bound_to 7965
  154.4893  140.2110  155.9585 H   0  0  0  0  0  0  0  0  0  0  0  0  # atno 8008 bound_to 7997
  156.1282  140.3201  155.8277 H   0  0  0  0  0  0  0  0  0  0  0  0  # atno 8009 bound_to 7997
  155.4345  140.0506  157.3006 H   0  0  0  0  0  0  0  0  0  0  0  0  # atno 8010 bound_to 7997
  140.6396  143.2500  151.5025 H   0  0  0  0  0  0  0  0  0  0  0  0  # atno 10167 bound_to 10162
  157.6843  131.0711  150.5170 H   0  0  0  0  0  0  0  0  0  0  0  0  # atno 10718 bound_to 10713
  153.0124  135.5334  154.6766 H   0  0  0  0  0  0  0  0  0  0  0  0  # atno 10763 bound_to 10752
  154.5937  135.2861  155.0611 H   0  0  0  0  0  0  0  0  0  0  0  0  # atno 10764 bound_to 10752
  154.1694  135.6534  153.5058 H   0  0  0  0  0  0  0  0  0  0  0  0  # atno 10765 bound_to 10752
  139.8857  134.9450  156.6083 H   0  0  0  0  0  0  0  0  0  0  0  0  # atno 11005 bound_to 11000
  145.1125  139.2747  143.5630 LP  0  0  0  0  0  0  0  0  0  0  0  0  # atno 17320 bound_to 7965
  146.3531  140.0726  142.8622 LP  0  0  0  0  0  0  0  0  0  0  0  0  # atno 17321 bound_to 7965
  139.5605  144.2167  152.1684 LP  0  0  0  0  0  0  0  0  0  0  0  0  # atno 17342 bound_to 10162
  140.1434  144.5181  150.6730 LP  0  0  0  0  0  0  0  0  0  0  0  0  # atno 17343 bound_to 10162
  156.5485  130.4225  149.6119 LP  0  0  0  0  0  0  0  0  0  0  0  0  # atno 17370 bound_to 10713
  156.2923  130.7131  151.1983 LP  0  0  0  0  0  0  0  0  0  0  0  0  # atno 17371 bound_to 10713
  140.7831  133.8644  155.8584 LP  0  0  0  0  0  0  0  0  0  0  0  0  # atno 17394 bound_to 11000
  140.9743  134.1490  157.4549 LP  0  0  0  0  0  0  0  0  0  0  0  0  # atno 17395 bound_to 11000

$$$$
