AV-unprocessed.smi:2966|AV-procd|sdf|11324|dock1
  -GOLD-   2272016233D 1   1.00000     0.00000
 Structure written by MMmdl.
 40 42  0  0  0  0  0  0  0  0  1 V2000
  157.1251  139.9412  159.8706 C   0  0  0  0  0  0  0  0  0  0  0  0
  155.8101  139.8950  159.3467 O   0  0  0  0  0  0  0  0  0  0  0  0
  154.8624  139.4273  160.2923 C   0  0  0  0  0  0  0  0  0  0  0  0
  153.4586  139.4340  159.6711 C   0  0  0  0  0  0  0  0  0  0  0  0
  152.8957  140.7748  159.6043 N   0  0  0  0  0  0  0  0  0  0  0  0
  152.2565  141.3677  158.5656 C   0  0  0  0  0  0  0  0  0  0  0  0
  151.9877  140.5469  157.0320 S   0  0  0  0  0  0  0  0  0  0  0  0
  150.8122  141.7402  156.3282 C   0  0  0  0  0  0  0  0  0  0  0  0
  149.9770  141.1925  155.1688 C   0  0  0  0  0  0  0  0  0  0  0  0
  150.2496  140.1115  154.6452 O   0  0  0  0  0  0  0  0  0  0  0  0
  148.9532  141.9635  154.7740 N   0  0  0  0  0  0  0  0  0  0  0  0
  148.0473  141.6587  153.7136 C   0  0  0  0  0  0  0  0  0  0  0  0
  146.5711  141.6045  154.0431 C   0  0  0  0  0  0  0  0  0  0  0  0
  147.3220  140.3313  153.7667 C   0  0  0  0  0  0  0  0  0  0  0  0
  151.8399  142.6156  158.7782 N   0  0  0  0  0  0  0  0  0  0  0  0
  152.2379  142.8521  160.0794 C   0  0  0  0  0  0  0  0  0  0  0  0
  152.0844  143.9971  160.8939 C   0  0  0  0  0  0  0  0  0  0  0  0
  152.5787  144.0049  162.2148 C   0  0  0  0  0  0  0  0  0  0  0  0
  153.2334  142.8712  162.7388 C   0  0  0  0  0  0  0  0  0  0  0  0
  153.3984  141.7208  161.9438 C   0  0  0  0  0  0  0  0  0  0  0  0
  152.9024  141.7182  160.6263 C   0  0  0  0  0  0  0  0  0  0  0  0
  157.8111  140.3017  159.1042 H   0  0  0  0  0  0  0  0  0  0  0  0
  157.4598  138.9516  160.1839 H   0  0  0  0  0  0  0  0  0  0  0  0
  157.1864  140.6189  160.7231 H   0  0  0  0  0  0  0  0  0  0  0  0
  155.1230  138.4169  160.6118 H   0  0  0  0  0  0  0  0  0  0  0  0
  154.8748  140.0627  161.1788 H   0  0  0  0  0  0  0  0  0  0  0  0
  153.4984  139.0255  158.6608 H   0  0  0  0  0  0  0  0  0  0  0  0
  152.7900  138.7832  160.2343 H   0  0  0  0  0  0  0  0  0  0  0  0
  150.1450  142.0809  157.1207 H   0  0  0  0  0  0  0  0  0  0  0  0
  151.3665  142.6114  155.9773 H   0  0  0  0  0  0  0  0  0  0  0  0
  148.8042  142.8350  155.2617 H   0  0  0  0  0  0  0  0  0  0  0  0
  148.3009  142.0227  152.7188 H   0  0  0  0  0  0  0  0  0  0  0  0
  146.2710  141.7969  155.0715 H   0  0  0  0  0  0  0  0  0  0  0  0
  145.8754  141.9532  153.2827 H   0  0  0  0  0  0  0  0  0  0  0  0
  147.1280  139.8285  152.8213 H   0  0  0  0  0  0  0  0  0  0  0  0
  147.5230  139.6738  154.6103 H   0  0  0  0  0  0  0  0  0  0  0  0
  151.5836  144.8702  160.5024 H   0  0  0  0  0  0  0  0  0  0  0  0
  152.4537  144.8844  162.8293 H   0  0  0  0  0  0  0  0  0  0  0  0
  153.6079  142.8851  163.7519 H   0  0  0  0  0  0  0  0  0  0  0  0
  153.8982  140.8505  162.3426 H   0  0  0  0  0  0  0  0  0  0  0  0
  1  2  1  0  0  0  0
  1 22  1  0  0  0  0
  1 23  1  0  0  0  0
  1 24  1  0  0  0  0
  2  3  1  0  0  0  0
  3  4  1  0  0  0  0
  3 25  1  0  0  0  0
  3 26  1  0  0  0  0
  4  5  1  0  0  0  0
  4 27  1  0  0  0  0
  4 28  1  0  0  0  0
  5 21  1  0  0  0  0
  5  6  1  0  0  0  0
  6  7  1  0  0  0  0
  6 15  2  0  0  0  0
  7  8  1  0  0  0  0
  8  9  1  0  0  0  0
  8 29  1  0  0  0  0
  8 30  1  0  0  0  0
  9 10  2  0  0  0  0
  9 11  1  0  0  0  0
 11 12  1  0  0  0  0
 11 31  1  0  0  0  0
 12 14  1  0  0  0  0
 12 13  1  0  0  0  0
 12 32  1  0  0  0  0
 13 14  1  0  0  0  0
 13 33  1  0  0  0  0
 13 34  1  0  0  0  0
 14 35  1  0  0  0  0
 14 36  1  0  0  0  0
 15 16  1  0  0  0  0
 16 21  2  0  0  0  0
 16 17  1  0  0  0  0
 17 18  2  0  0  0  0
 17 37  1  0  0  0  0
 18 19  1  0  0  0  0
 18 38  1  0  0  0  0
 19 20  2  0  0  0  0
 19 39  1  0  0  0  0
 20 21  1  0  0  0  0
 20 40  1  0  0  0  0
M  END
> <s_m_source_file>
AV-unprocessed.smi

> <i_m_source_file_index>
2966

> <i_lp_mmshare_version>
43012

> <i_f3d_flags>
0

> <s_epik_input>
W2NIXTFbY0hdW2NIXVtjSF1jKGMxMiluKFtDSDJdW0NIMl1PW0NIM10pYyhuMilTW0NIMl1DKD1PKVtOSF1bQ0hdM1tDSDJdW0NIMl0z

> <s_epik_cmdline>
J2VwaWtfcHl0aG9uJywgJy1waCcsICc3LjAnLCAnLXRuJywgJzgnLCAnLW1hJywgJzIwMCcsICctbWV0YWxfYmluZGluZycsICctaW1hZScsICc8aW5maWxlLm1hZT4nLCAnLW9tYWUnLCAnPG91dGZpbGUubWFlPic=

> <r_epik_Ionization_Penalty>
0.0369383

> <r_epik_Ionization_Penalty_Charging>
0

> <r_epik_Ionization_Penalty_Neutral>
0.0369383

> <r_epik_State_Penalty>
0.0308874

> <r_epik_Charging_Adjusted_Penalty>
0.0308874

> <i_epik_Tot_Q>
0

> <i_epik_Tot_abs_Q>
0

> <r_epik_Metal_State_Penalty>
0.0290633

> <b_epik_Metal_Only>
0

> <s_lp_Force_Field>
OPLS_2005

> <r_lp_Energy>
20.8616

> <b_lp_Chiralities_Consistent>
1

> <s_lp_Variant>
AV-unprocessed.smi:2966-1

> <Gold.Version>
5.8.1

> <Gold.Id.Protein>
6NUR|6NUR_protein|mol2

> <Gold.PLP.Fitness>
57.6592

> <Gold.PLP.PLP>
-49.5813

> <Gold.PLP.part.hbond>
-3.0000

> <Gold.PLP.part.metal>
0.0000

> <Gold.PLP.part.buried>
-6.4153

> <Gold.PLP.part.nonpolar>
-38.9224

> <Gold.PLP.part.repulsive>
0.3198

> <Gold.PLP.ligand.clash>
0.0000

> <Gold.PLP.ligand.torsion>
0.5760

> <Gold.PLP.Chemscore.Hbond>
2.9920

> <Gold.PLP.Chemscore.CHOScore>
0.0000

> <Gold.PLP.Chemscore.Metal>
0.0000

> <Gold.Chemscore.Hbonds>
donor molecule, donor type, donor heavy atom, donor atom, acceptor molecule, acceptor atom, score
      L1  H    11    31       P1  8028  1.00
      P1  H  7989  7998       L1    10  0.70
      P1  H  7997  8010       L1     2  0.99

> <Gold.PLP.Chemscore.Internal.Correction>
0.2540

> <Gold.Rescore>
     Score         DG    S(hbond)    S(metal)    S(lipo)     H(rot)  DE(clash)    DE(int)     intcor
     20.31     -22.25       2.37        0.00     122.36       2.13       0.19       1.74       ----

> <Gold.Chemscore.Fitness>
20.3127

> <Gold.Chemscore.DG>
-22.2478

> <Gold.Chemscore.ZeroCoef>
-5.4800

> <Gold.Chemscore.Hbond>
2.3696

> <Gold.Chemscore.Metal>
0.0000

> <Gold.Chemscore.Lipo>
122.3581

> <Gold.Chemscore.Internal_Hbond>
0.0000

> <Gold.Chemscore.DEClash>
0.1925

> <Gold.Chemscore.DEInternal>
1.7426

> <Gold.Chemscore.Rot>
2.1338

> <Gold.Chemscore.Internal.Correction>
   9.000000E+99

> <Gold.Chemscore.Hbonds>
donor molecule, donor type, donor heavy atom, donor atom, acceptor molecule, acceptor atom, score
      L1  H    11    31       P1  8028  0.99
      P1  H  7989  7998       L1    10  0.07
      P1  H  7997  8010       L1     2  0.81

> <Gold.Chemscore.Hbond.Weighted>
-7.9145

> <Gold.Chemscore.Metal.Weighted>
-0.0000

> <Gold.Chemscore.Lipo.Weighted>
-14.3159

> <Gold.Chemscore.Internal_Hbond.Weighted>
0.0000

> <Gold.Chemscore.DEClash.Weighted>
0.1925

> <Gold.Chemscore.DEInternal.Weighted>
1.7426

> <Gold.Chemscore.Rot.Weighted>
5.4626

> <Gold.Chemscore.Internal.Correction.Weighted>
   9.000000E+99

> <Gold.Protein.RotatedTorsions>
[ 6907 6896 6895 6894 ] final -173.47 input  -60.11 | X-H torsion
[ 7974 7965 7964 7962 ] final  -54.21 input  175.53 | X-H torsion
[ 8008 7997 7996 7995 ] final  -32.87 input   59.86 | X-H torsion
[ 10167 10162 10161 10158 ] final  -75.47 input  -65.29 | X-H torsion
[ 10718 10713 10712 10709 ] final   -1.11 input   66.30 | X-H torsion
[ 10763 10752 10751 10750 ] final  116.04 input  -60.55 | X-H torsion
[ 11005 11000 10999 10996 ] final  -60.58 input  -57.11 | X-H torsion

> <Gold.Protein.ActiveResidues>
 VAL166  LYS551  ARG553  GLY616  TRP617  ASP618  TYR619  PRO620  LYS621  CYS622 
 ASP623  PHE694  ASN695  SER759  ASP760  ASP761  ALA762  ILE779  LEU786  VAL792 
 PHE793  MET794  SER795  GLU796  ALA797  LYS798  CYS799  TRP800  GLU811  SER814 

> <Gold.Protein.RotatedAtoms>
  151.5567  133.3409  159.2963 H   0  0  0  0  0  0  0  0  0  0  0  0  # atno 6907 bound_to 6896
  150.8447  134.7754  159.6971 H   0  0  0  0  0  0  0  0  0  0  0  0  # atno 6908 bound_to 6896
  152.4507  134.5407  159.9890 H   0  0  0  0  0  0  0  0  0  0  0  0  # atno 6909 bound_to 6896
  145.8881  140.8092  142.9805 H   0  0  0  0  0  0  0  0  0  0  0  0  # atno 7974 bound_to 7965
  154.4166  140.1726  156.1797 H   0  0  0  0  0  0  0  0  0  0  0  0  # atno 8008 bound_to 7997
  155.9692  140.3387  155.6537 H   0  0  0  0  0  0  0  0  0  0  0  0  # atno 8009 bound_to 7997
  155.6647  140.0705  157.2532 H   0  0  0  0  0  0  0  0  0  0  0  0  # atno 8010 bound_to 7997
  140.4940  143.2374  151.7861 H   0  0  0  0  0  0  0  0  0  0  0  0  # atno 10167 bound_to 10162
  156.8105  130.5423  149.5709 H   0  0  0  0  0  0  0  0  0  0  0  0  # atno 10718 bound_to 10713
  153.5313  135.3578  155.2677 H   0  0  0  0  0  0  0  0  0  0  0  0  # atno 10763 bound_to 10752
  154.8726  135.4069  154.3149 H   0  0  0  0  0  0  0  0  0  0  0  0  # atno 10764 bound_to 10752
  153.3838  135.7069  153.6613 H   0  0  0  0  0  0  0  0  0  0  0  0  # atno 10765 bound_to 10752
  141.1292  133.6623  156.5244 H   0  0  0  0  0  0  0  0  0  0  0  0  # atno 11005 bound_to 11000
  144.6729  140.1487  143.7431 LP  0  0  0  0  0  0  0  0  0  0  0  0  # atno 17320 bound_to 7965
  145.8942  139.2393  143.1532 LP  0  0  0  0  0  0  0  0  0  0  0  0  # atno 17321 bound_to 7965
  139.4857  144.4612  151.9539 LP  0  0  0  0  0  0  0  0  0  0  0  0  # atno 17342 bound_to 10162
  140.3699  144.2868  150.5921 LP  0  0  0  0  0  0  0  0  0  0  0  0  # atno 17343 bound_to 10162
  156.1047  130.5996  150.9952 LP  0  0  0  0  0  0  0  0  0  0  0  0  # atno 17370 bound_to 10713
  157.6508  131.0897  150.8054 LP  0  0  0  0  0  0  0  0  0  0  0  0  # atno 17371 bound_to 10713
  140.4266  134.7139  157.4919 LP  0  0  0  0  0  0  0  0  0  0  0  0  # atno 17394 bound_to 11000
  140.0323  134.6388  155.9090 LP  0  0  0  0  0  0  0  0  0  0  0  0  # atno 17395 bound_to 11000

$$$$
