AV-unprocessed.smi:104|AV-procd|sdf|994|dock7
  -GOLD-   2262017573D 1   1.00000     0.00000
 Structure written by MMmdl.
 47 49  0  0  0  0  0  0  0  0  1 V2000
  145.5724  130.7678  161.5516 C   0  0  0  0  0  0  0  0  0  0  0  0
  145.6555  131.8483  160.4808 C   0  0  0  0  0  0  0  0  0  0  0  0
  144.8634  131.8789  159.5391 O   0  0  0  0  0  0  0  0  0  0  0  0
  146.6543  132.7163  160.7023 O   0  0  0  0  0  0  0  0  0  0  0  0
  146.9353  133.7306  159.7508 C   0  0  0  0  0  0  0  0  0  0  0  0
  148.0926  134.6128  160.2530 C   0  0  1  0  0  0  0  0  0  0  0  0
  148.9165  134.9176  159.1266 O   0  0  0  0  0  0  0  0  0  0  0  0
  148.9557  136.2952  158.9078 C   0  0  1  0  0  0  0  0  0  0  0  0
  148.9484  136.5725  157.4357 N   0  0  0  0  0  0  0  0  0  0  0  0
  148.7993  135.6773  156.4021 C   0  0  0  0  0  0  0  0  0  0  0  0
  148.5606  133.8133  156.7075 Br  0  0  0  0  0  0  0  0  0  0  0  0
  148.8543  136.1500  155.1889 N   0  0  0  0  0  0  0  0  0  0  0  0
  149.0771  137.5048  155.4001 C   0  0  0  0  0  0  0  0  0  0  0  0
  149.2569  138.6173  154.5399 C   0  0  0  0  0  0  0  0  0  0  0  0
  149.2270  138.5207  153.2033 N   0  0  0  0  0  0  0  0  0  0  0  0
  149.4740  139.8335  155.0923 N   0  0  0  0  0  0  0  0  0  0  0  0
  149.5128  139.9563  156.4229 C   0  0  0  0  0  0  0  0  0  0  0  0
  149.3601  139.0111  157.3538 N   0  0  0  0  0  0  0  0  0  0  0  0
  149.1380  137.7838  156.7976 C   0  0  0  0  0  0  0  0  0  0  0  0
  147.7536  136.9067  159.6383 C   0  0  1  0  0  0  0  0  0  0  0  0
  146.5670  136.8406  158.8466 O   0  0  0  0  0  0  0  0  0  0  0  0
  145.5347  137.6708  159.0790 C   0  0  0  0  0  0  0  0  0  0  0  0
  144.3668  137.4176  158.1357 C   0  0  0  0  0  0  0  0  0  0  0  0
  145.4960  138.5628  159.9262 O   0  0  0  0  0  0  0  0  0  0  0  0
  147.6795  135.9781  160.8351 C   0  0  1  0  0  0  0  0  0  0  0  0
  146.4005  136.0247  161.4595 O   0  0  0  0  0  0  0  0  0  0  0  0
  146.0461  137.0871  162.2021 C   0  0  0  0  0  0  0  0  0  0  0  0
  144.5567  137.1017  162.5182 C   0  0  0  0  0  0  0  0  0  0  0  0
  146.8016  137.9649  162.6190 O   0  0  0  0  0  0  0  0  0  0  0  0
  146.4493  130.7913  162.1994 H   0  0  0  0  0  0  0  0  0  0  0  0
  145.5125  129.7825  161.0892 H   0  0  0  0  0  0  0  0  0  0  0  0
  144.6849  130.9163  162.1668 H   0  0  0  0  0  0  0  0  0  0  0  0
  147.2200  133.2439  158.8174 H   0  0  0  0  0  0  0  0  0  0  0  0
  146.0540  134.3374  159.5400 H   0  0  0  0  0  0  0  0  0  0  0  0
  148.6874  134.0550  160.9772 H   0  0  0  0  0  0  0  0  0  0  0  0
  149.9087  136.6806  159.2710 H   0  0  0  0  0  0  0  0  0  0  0  0
  149.0705  137.6234  152.7668 H   0  0  0  0  0  0  0  0  0  0  0  0
  149.3613  139.3444  152.6350 H   0  0  0  0  0  0  0  0  0  0  0  0
  149.6915  140.9541  156.7956 H   0  0  0  0  0  0  0  0  0  0  0  0
  147.9824  137.9283  159.9446 H   0  0  0  0  0  0  0  0  0  0  0  0
  144.7293  137.1985  157.1309 H   0  0  0  0  0  0  0  0  0  0  0  0
  143.7214  138.2949  158.0844 H   0  0  0  0  0  0  0  0  0  0  0  0
  143.7755  136.5710  158.4845 H   0  0  0  0  0  0  0  0  0  0  0  0
  148.4504  136.3011  161.5372 H   0  0  0  0  0  0  0  0  0  0  0  0
  143.9742  136.8890  161.6217 H   0  0  0  0  0  0  0  0  0  0  0  0
  144.2564  138.0770  162.9017 H   0  0  0  0  0  0  0  0  0  0  0  0
  144.3244  136.3476  163.2700 H   0  0  0  0  0  0  0  0  0  0  0  0
  1  2  1  0  0  0  0
  1 30  1  0  0  0  0
  1 31  1  0  0  0  0
  1 32  1  0  0  0  0
  2  3  2  0  0  0  0
  2  4  1  0  0  0  0
  4  5  1  0  0  0  0
  5  6  1  0  0  0  0
  5 33  1  0  0  0  0
  5 34  1  0  0  0  0
  6 25  1  0  0  0  0
  6  7  1  0  0  0  0
  6 35  1  0  0  0  0
  7  8  1  0  0  0  0
  8  9  1  0  0  0  0
  8 20  1  0  0  0  0
  8 36  1  0  0  0  0
  9 19  1  0  0  0  0
  9 10  1  0  0  0  0
 10 11  1  0  0  0  0
 10 12  2  0  0  0  0
 12 13  1  0  0  0  0
 13 19  2  0  0  0  0
 13 14  1  0  0  0  0
 14 15  1  0  0  0  0
 14 16  2  0  0  0  0
 15 37  1  0  0  0  0
 15 38  1  0  0  0  0
 16 17  1  0  0  0  0
 17 18  2  0  0  0  0
 17 39  1  0  0  0  0
 18 19  1  0  0  0  0
 20 21  1  0  0  0  0
 20 25  1  0  0  0  0
 20 40  1  0  0  0  0
 21 22  1  0  0  0  0
 22 23  1  0  0  0  0
 22 24  2  0  0  0  0
 23 41  1  0  0  0  0
 23 42  1  0  0  0  0
 23 43  1  0  0  0  0
 25 26  1  0  0  0  0
 25 44  1  0  0  0  0
 26 27  1  0  0  0  0
 27 28  1  0  0  0  0
 27 29  2  0  0  0  0
 28 45  1  0  0  0  0
 28 46  1  0  0  0  0
 28 47  1  0  0  0  0
M  END
> <s_m_source_file>
AV-unprocessed.smi

> <i_m_source_file_index>
104

> <i_lp_mmshare_version>
43012

> <i_f3d_flags>
0

> <s_epik_input>
W0NIM11DKD1PKU9bQ0gyXVtDQEBIXTFPW0NASF0oW0NAQEhdKE9DKD1PKVtDSDNdKVtDQEhdMU9DKD1PKVtDSDNdKW4oYyhCciluMiljKGMyMyluW2NIXW5jM1tOSDJd

> <s_epik_cmdline>
J2VwaWtfcHl0aG9uJywgJy1waCcsICc3LjAnLCAnLXRuJywgJzgnLCAnLW1hJywgJzIwMCcsICctbWV0YWxfYmluZGluZycsICctaW1hZScsICc8aW5maWxlLm1hZT4nLCAnLW9tYWUnLCAnPG91dGZpbGUubWFlPic=

> <r_lp_tautomer_probability>
1

> <r_epik_Ionization_Penalty>
7.36622e-05

> <r_epik_Ionization_Penalty_Charging>
0

> <r_epik_Ionization_Penalty_Neutral>
7.36622e-05

> <r_epik_State_Penalty>
-0

> <r_epik_Charging_Adjusted_Penalty>
0

> <i_epik_Tot_Q>
0

> <i_epik_Tot_abs_Q>
0

> <r_epik_Metal_State_Penalty>
-0

> <b_epik_Metal_Only>
0

> <s_epik_Chemistry_Notes>
This compound has an ester and may undergo hydrolysis at high or low pH. This compound contains an acetal/aminal-like group ( X-CH(R)-Y where X, Y are N, S, or O) that may be acid/base labile, releasing an aldehyde.

> <s_lp_Force_Field>
OPLS_2005

> <r_lp_Energy>
22.6214

> <b_lp_Chiralities_Consistent>
1

> <s_lp_Variant>
AV-unprocessed.smi:104-2

> <Gold.Version>
5.8.1

> <Gold.Id.Protein>
6NUR|6NUR_protein|mol2

> <Gold.PLP.Fitness>
33.2357

> <Gold.PLP.PLP>
-24.5442

> <Gold.PLP.part.hbond>
-6.0000

> <Gold.PLP.part.metal>
0.0000

> <Gold.PLP.part.buried>
-5.2744

> <Gold.PLP.part.nonpolar>
-14.0087

> <Gold.PLP.part.repulsive>
0.2703

> <Gold.PLP.ligand.clash>
0.0000

> <Gold.PLP.ligand.torsion>
1.2529

> <Gold.PLP.Chemscore.Hbond>
3.5955

> <Gold.PLP.Chemscore.CHOScore>
0.0000

> <Gold.PLP.Chemscore.Metal>
0.0000

> <Gold.Chemscore.Hbonds>
donor molecule, donor type, donor heavy atom, donor atom, acceptor molecule, acceptor atom, score
      L1  H    15    37       P1  7948  1.00
      L1  H    15    38       P1  7957  0.99
      P1  H  6896  6908       L1     7  1.00
      P1  H  6931  6943       L1    29  0.09
      P1  H  6934  6947       L1    24  0.51

> <Gold.PLP.Chemscore.Internal.Correction>
0.4108

> <Gold.Rescore>
     Score         DG    S(hbond)    S(metal)    S(lipo)     H(rot)  DE(clash)    DE(int)     intcor
      5.98      -9.04       3.11        0.00      35.94       4.31       0.13       2.94       ----

> <Gold.Chemscore.Fitness>
5.9766

> <Gold.Chemscore.DG>
-9.0441

> <Gold.Chemscore.ZeroCoef>
-5.4800

> <Gold.Chemscore.Hbond>
3.1094

> <Gold.Chemscore.Metal>
0.0000

> <Gold.Chemscore.Lipo>
35.9371

> <Gold.Chemscore.Internal_Hbond>
0.0000

> <Gold.Chemscore.DEClash>
0.1295

> <Gold.Chemscore.DEInternal>
2.9380

> <Gold.Chemscore.Rot>
4.3070

> <Gold.Chemscore.Internal.Correction>
   9.000000E+99

> <Gold.Chemscore.Hbonds>
donor molecule, donor type, donor heavy atom, donor atom, acceptor molecule, acceptor atom, score
      L1  H    15    37       P1  7948  0.99
      L1  H    15    38       P1  7957  0.93
      P1  H  6896  6908       L1     7  0.55
      P1  H  6931  6943       L1    29  0.08
      P1  H  6934  6947       L1    24  0.48

> <Gold.Chemscore.Hbond.Weighted>
-10.3853

> <Gold.Chemscore.Metal.Weighted>
-0.0000

> <Gold.Chemscore.Lipo.Weighted>
-4.2046

> <Gold.Chemscore.Internal_Hbond.Weighted>
0.0000

> <Gold.Chemscore.DEClash.Weighted>
0.1295

> <Gold.Chemscore.DEInternal.Weighted>
2.9380

> <Gold.Chemscore.Rot.Weighted>
11.0259

> <Gold.Chemscore.Internal.Correction.Weighted>
   9.000000E+99

> <Gold.Protein.RotatedTorsions>
[ 6907 6896 6895 6894 ] final  144.23 input  -60.11 | X-H torsion
[ 7974 7965 7964 7962 ] final  -22.46 input  175.53 | X-H torsion
[ 8008 7997 7996 7995 ] final   96.80 input   59.86 | X-H torsion
[ 10167 10162 10161 10158 ] final   25.09 input  -65.29 | X-H torsion
[ 10718 10713 10712 10709 ] final   56.63 input   66.30 | X-H torsion
[ 10763 10752 10751 10750 ] final  -41.52 input  -60.55 | X-H torsion
[ 11005 11000 10999 10996 ] final  -52.95 input  -57.11 | X-H torsion

> <Gold.Protein.ActiveResidues>
 VAL166  LYS551  ARG553  GLY616  TRP617  ASP618  TYR619  PRO620  LYS621  CYS622 
 ASP623  PHE694  ASN695  SER759  ASP760  ASP761  ALA762  ILE779  LEU786  VAL792 
 PHE793  MET794  SER795  GLU796  ALA797  LYS798  CYS799  TRP800  GLU811  SER814 

> <Gold.Protein.RotatedAtoms>
  152.1962  133.4808  159.5034 H   0  0  0  0  0  0  0  0  0  0  0  0  # atno 6907 bound_to 6896
  150.6960  134.1649  159.4199 H   0  0  0  0  0  0  0  0  0  0  0  0  # atno 6908 bound_to 6896
  151.9565  135.0144  160.0596 H   0  0  0  0  0  0  0  0  0  0  0  0  # atno 6909 bound_to 6896
  146.1674  140.4482  142.8546 H   0  0  0  0  0  0  0  0  0  0  0  0  # atno 7974 bound_to 7965
  156.0835  140.3267  155.7723 H   0  0  0  0  0  0  0  0  0  0  0  0  # atno 8008 bound_to 7997
  155.5114  140.0577  157.2940 H   0  0  0  0  0  0  0  0  0  0  0  0  # atno 8009 bound_to 7997
  154.4595  140.1960  156.0300 H   0  0  0  0  0  0  0  0  0  0  0  0  # atno 8010 bound_to 7997
  140.5135  144.0122  150.6383 H   0  0  0  0  0  0  0  0  0  0  0  0  # atno 10167 bound_to 10162
  157.5447  130.8722  149.8873 H   0  0  0  0  0  0  0  0  0  0  0  0  # atno 10718 bound_to 10713
  153.9638  135.6736  153.4745 H   0  0  0  0  0  0  0  0  0  0  0  0  # atno 10763 bound_to 10752
  153.0825  135.4916  154.8529 H   0  0  0  0  0  0  0  0  0  0  0  0  # atno 10764 bound_to 10752
  154.7258  135.3127  154.8934 H   0  0  0  0  0  0  0  0  0  0  0  0  # atno 10765 bound_to 10752
  141.0951  133.6626  156.4100 H   0  0  0  0  0  0  0  0  0  0  0  0  # atno 11005 bound_to 11000
  144.8113  140.6390  143.6414 LP  0  0  0  0  0  0  0  0  0  0  0  0  # atno 17320 bound_to 7965
  145.4431  139.1533  143.3960 LP  0  0  0  0  0  0  0  0  0  0  0  0  # atno 17321 bound_to 7965
  140.3451  143.2996  152.0547 LP  0  0  0  0  0  0  0  0  0  0  0  0  # atno 17342 bound_to 10162
  139.4902  144.6415  151.6868 LP  0  0  0  0  0  0  0  0  0  0  0  0  # atno 17343 bound_to 10162
  156.0525  130.3714  150.1167 LP  0  0  0  0  0  0  0  0  0  0  0  0  # atno 17370 bound_to 10713
  156.9344  130.9724  151.3527 LP  0  0  0  0  0  0  0  0  0  0  0  0  # atno 17371 bound_to 10713
  140.5159  134.6350  157.5301 LP  0  0  0  0  0  0  0  0  0  0  0  0  # atno 17394 bound_to 11000
  139.9786  134.7175  155.9903 LP  0  0  0  0  0  0  0  0  0  0  0  0  # atno 17395 bound_to 11000

$$$$
