AV-unprocessed.smi:3349|AV-procd|sdf|12932|dock9
  -GOLD-   2272019363D 1   1.00000     0.00000
 Structure written by MMmdl.
 40 41  0  0  0  0  0  0  0  0  1 V2000
  144.3131  137.1001  152.5520 C   0  0  0  0  0  0  0  0  0  0  0  0
  145.5426  136.1657  152.4180 C   0  0  1  0  0  0  0  0  0  0  0  0
  146.0933  135.8585  153.8410 C   0  0  0  0  0  0  0  0  0  0  0  0
  147.5523  135.8560  153.9067 N   0  0  0  0  0  0  0  0  0  0  0  0
  148.2743  136.1658  154.9958 C   0  0  0  0  0  0  0  0  0  0  0  0
  147.7624  136.4916  156.0678 O   0  0  0  0  0  0  0  0  0  0  0  0
  149.8026  136.0866  154.8455 C   0  0  2  0  0  0  0  0  0  0  0  0
  150.4595  135.1510  155.8809 C   0  0  0  0  0  0  0  0  0  0  0  0
  150.3859  137.4225  154.8695 N   0  0  0  0  0  0  0  0  0  0  0  0
  150.2974  138.4140  153.9803 C   0  0  0  0  0  0  0  0  0  0  0  0
  150.9259  139.5227  154.3449 N   0  0  0  0  0  0  0  0  0  0  0  0
  151.4069  139.1229  155.5595 C   0  0  0  0  0  0  0  0  0  0  0  0
  151.1056  137.8774  155.9256 N   0  0  0  0  0  0  0  0  0  0  0  0
  145.2535  134.9496  151.6225 N   0  0  0  0  0  0  0  0  0  0  0  0
  146.3833  134.0128  151.6036 C   0  0  0  0  0  0  0  0  0  0  0  0
  146.0853  132.7292  150.8097 C   0  0  0  0  0  0  0  0  0  0  0  0
  144.9350  132.0917  151.3469 O   0  0  0  0  0  0  0  0  0  0  0  0
  143.7934  132.9362  151.3102 C   0  0  0  0  0  0  0  0  0  0  0  0
  144.0731  134.2232  152.1061 C   0  0  0  0  0  0  0  0  0  0  0  0
  144.5135  137.9649  153.1835 H   0  0  0  0  0  0  0  0  0  0  0  0
  143.4616  136.5715  152.9817 H   0  0  0  0  0  0  0  0  0  0  0  0
  144.0039  137.5157  151.5940 H   0  0  0  0  0  0  0  0  0  0  0  0
  146.3133  136.7298  151.8907 H   0  0  0  0  0  0  0  0  0  0  0  0
  145.7224  136.5988  154.5504 H   0  0  0  0  0  0  0  0  0  0  0  0
  145.7632  134.8886  154.2099 H   0  0  0  0  0  0  0  0  0  0  0  0
  148.0458  135.5980  153.0647 H   0  0  0  0  0  0  0  0  0  0  0  0
  150.0049  135.6666  153.8587 H   0  0  0  0  0  0  0  0  0  0  0  0
  150.0531  134.1414  155.8128 H   0  0  0  0  0  0  0  0  0  0  0  0
  150.3075  135.4999  156.9031 H   0  0  0  0  0  0  0  0  0  0  0  0
  151.5346  135.0813  155.7136 H   0  0  0  0  0  0  0  0  0  0  0  0
  149.7594  138.3241  153.0480 H   0  0  0  0  0  0  0  0  0  0  0  0
  151.9925  139.7707  156.1952 H   0  0  0  0  0  0  0  0  0  0  0  0
  147.2563  134.4737  151.1453 H   0  0  0  0  0  0  0  0  0  0  0  0
  146.6621  133.7491  152.6249 H   0  0  0  0  0  0  0  0  0  0  0  0
  145.9278  132.9548  149.7538 H   0  0  0  0  0  0  0  0  0  0  0  0
  146.9310  132.0440  150.8678 H   0  0  0  0  0  0  0  0  0  0  0  0
  143.5367  133.1699  150.2756 H   0  0  0  0  0  0  0  0  0  0  0  0
  142.9437  132.4039  151.7379 H   0  0  0  0  0  0  0  0  0  0  0  0
  144.1967  133.9768  153.1618 H   0  0  0  0  0  0  0  0  0  0  0  0
  143.1807  134.8398  152.0260 H   0  0  0  0  0  0  0  0  0  0  0  0
  1  2  1  0  0  0  0
  1 20  1  0  0  0  0
  1 21  1  0  0  0  0
  1 22  1  0  0  0  0
  2  3  1  0  0  0  0
  2 14  1  0  0  0  0
  2 23  1  0  0  0  0
  3  4  1  0  0  0  0
  3 24  1  0  0  0  0
  3 25  1  0  0  0  0
  4  5  1  0  0  0  0
  4 26  1  0  0  0  0
  5  6  2  0  0  0  0
  5  7  1  0  0  0  0
  7  8  1  0  0  0  0
  7  9  1  0  0  0  0
  7 27  1  0  0  0  0
  8 28  1  0  0  0  0
  8 29  1  0  0  0  0
  8 30  1  0  0  0  0
  9 13  1  0  0  0  0
  9 10  1  0  0  0  0
 10 11  2  0  0  0  0
 10 31  1  0  0  0  0
 11 12  1  0  0  0  0
 12 13  2  0  0  0  0
 12 32  1  0  0  0  0
 14 19  1  0  0  0  0
 14 15  1  0  0  0  0
 15 16  1  0  0  0  0
 15 33  1  0  0  0  0
 15 34  1  0  0  0  0
 16 17  1  0  0  0  0
 16 35  1  0  0  0  0
 16 36  1  0  0  0  0
 17 18  1  0  0  0  0
 18 19  1  0  0  0  0
 18 37  1  0  0  0  0
 18 38  1  0  0  0  0
 19 39  1  0  0  0  0
 19 40  1  0  0  0  0
M  END
> <s_m_source_file>
AV-unprocessed.smi

> <i_m_source_file_index>
3349

> <i_lp_mmshare_version>
43012

> <i_f3d_flags>
0

> <s_epik_input>
W0NIMl0xW0NIMl1PW0NIMl1bQ0gyXU4xW0NASF0oW0NIM10pW0NIMl1bTkhdQyg9TylbQ0BIXShbQ0gzXSluMltjSF1uW2NIXW4y

> <s_epik_cmdline>
J2VwaWtfcHl0aG9uJywgJy1waCcsICc3LjAnLCAnLXRuJywgJzgnLCAnLW1hJywgJzIwMCcsICctbWV0YWxfYmluZGluZycsICctaW1hZScsICc8aW5maWxlLm1hZT4nLCAnLW9tYWUnLCAnPG91dGZpbGUubWFlPic=

> <r_lp_tautomer_probability>
1

> <r_epik_Ionization_Penalty>
0.211373

> <r_epik_Ionization_Penalty_Charging>
0

> <r_epik_Ionization_Penalty_Neutral>
0.211373

> <r_epik_State_Penalty>
0.201459

> <r_epik_Charging_Adjusted_Penalty>
0.201459

> <i_epik_Tot_Q>
0

> <i_epik_Tot_abs_Q>
0

> <r_epik_Metal_State_Penalty>
0.201458

> <b_epik_Metal_Only>
0

> <s_lp_Force_Field>
OPLS_2005

> <r_lp_Energy>
34.2526

> <b_lp_Chiralities_Consistent>
1

> <s_lp_Variant>
AV-unprocessed.smi:3349-2

> <Gold.Version>
5.8.1

> <Gold.Id.Protein>
6NUR|6NUR_protein|mol2

> <Gold.PLP.Fitness>
34.4909

> <Gold.PLP.PLP>
-25.3717

> <Gold.PLP.part.hbond>
-1.8270

> <Gold.PLP.part.metal>
0.0000

> <Gold.PLP.part.buried>
-2.5763

> <Gold.PLP.part.nonpolar>
-21.0487

> <Gold.PLP.part.repulsive>
0.4284

> <Gold.PLP.ligand.clash>
0.0000

> <Gold.PLP.ligand.torsion>
1.2151

> <Gold.PLP.Chemscore.Hbond>
1.8960

> <Gold.PLP.Chemscore.CHOScore>
1.9055

> <Gold.PLP.Chemscore.Metal>
0.0000

> <Gold.Chemscore.Hbonds>
donor molecule, donor type, donor heavy atom, donor atom, acceptor molecule, acceptor atom, score
      L1  H     4    26       P1  7948  0.86
      P1  H  7989  7998       L1    11  1.00
      L1  C    10    31       P1  7948  0.99
      L1  C    10    31       P1  7957  0.95

> <Gold.PLP.Chemscore.Internal.Correction>
0.1450

> <Gold.Rescore>
     Score         DG    S(hbond)    S(metal)    S(lipo)     H(rot)  DE(clash)    DE(int)     intcor
      9.31     -10.40       1.91        0.00      43.51       2.56       0.00       1.09       ----

> <Gold.Chemscore.Fitness>
9.3101

> <Gold.Chemscore.DG>
-10.4033

> <Gold.Chemscore.ZeroCoef>
-5.4800

> <Gold.Chemscore.Hbond>
1.9097

> <Gold.Chemscore.Metal>
0.0000

> <Gold.Chemscore.Lipo>
43.5116

> <Gold.Chemscore.Internal_Hbond>
0.0000

> <Gold.Chemscore.DEClash>
0.0024

> <Gold.Chemscore.DEInternal>
1.0909

> <Gold.Chemscore.Rot>
2.5570

> <Gold.Chemscore.Internal.Correction>
   9.000000E+99

> <Gold.Chemscore.Hbonds>
donor molecule, donor type, donor heavy atom, donor atom, acceptor molecule, acceptor atom, score
      L1  H     4    26       P1  7948  0.84
      P1  H  7989  7998       L1    11  0.98

> <Gold.Chemscore.Hbond.Weighted>
-6.3784

> <Gold.Chemscore.Metal.Weighted>
-0.0000

> <Gold.Chemscore.Lipo.Weighted>
-5.0909

> <Gold.Chemscore.Internal_Hbond.Weighted>
0.0000

> <Gold.Chemscore.DEClash.Weighted>
0.0024

> <Gold.Chemscore.DEInternal.Weighted>
1.0909

> <Gold.Chemscore.Rot.Weighted>
6.5459

> <Gold.Chemscore.Internal.Correction.Weighted>
   9.000000E+99

> <Gold.Protein.RotatedTorsions>
[ 6907 6896 6895 6894 ] final  -50.37 input  -60.11 | X-H torsion
[ 7974 7965 7964 7962 ] final -105.21 input  175.53 | X-H torsion
[ 8008 7997 7996 7995 ] final  160.97 input   59.86 | X-H torsion
[ 10167 10162 10161 10158 ] final   24.11 input  -65.29 | X-H torsion
[ 10718 10713 10712 10709 ] final -123.27 input   66.30 | X-H torsion
[ 10763 10752 10751 10750 ] final -130.09 input  -60.55 | X-H torsion
[ 11005 11000 10999 10996 ] final  -39.32 input  -57.11 | X-H torsion

> <Gold.Protein.ActiveResidues>
 VAL166  LYS551  ARG553  GLY616  TRP617  ASP618  TYR619  PRO620  LYS621  CYS622 
 ASP623  PHE694  ASN695  SER759  ASP760  ASP761  ALA762  ILE779  LEU786  VAL792 
 PHE793  MET794  SER795  GLU796  ALA797  LYS798  CYS799  TRP800  GLU811  SER814 

> <Gold.Protein.RotatedAtoms>
  150.8713  134.8088  159.7156 H   0  0  0  0  0  0  0  0  0  0  0  0  # atno 6907 bound_to 6896
  152.4717  134.4942  159.9714 H   0  0  0  0  0  0  0  0  0  0  0  0  # atno 6908 bound_to 6896
  151.5030  133.3462  159.2907 H   0  0  0  0  0  0  0  0  0  0  0  0  # atno 6909 bound_to 6896
  145.2334  140.9179  143.3192 H   0  0  0  0  0  0  0  0  0  0  0  0  # atno 7974 bound_to 7965
  156.2136  140.1790  156.7641 H   0  0  0  0  0  0  0  0  0  0  0  0  # atno 8008 bound_to 7997
  154.5758  140.0674  156.9061 H   0  0  0  0  0  0  0  0  0  0  0  0  # atno 8009 bound_to 7997
  155.2591  140.3334  155.4277 H   0  0  0  0  0  0  0  0  0  0  0  0  # atno 8010 bound_to 7997
  140.5215  143.9995  150.6419 H   0  0  0  0  0  0  0  0  0  0  0  0  # atno 10167 bound_to 10162
  156.1488  130.6519  150.9882 H   0  0  0  0  0  0  0  0  0  0  0  0  # atno 10718 bound_to 10713
  154.8756  135.3874  154.4027 H   0  0  0  0  0  0  0  0  0  0  0  0  # atno 10763 bound_to 10752
  153.4750  135.7030  153.5976 H   0  0  0  0  0  0  0  0  0  0  0  0  # atno 10764 bound_to 10752
  153.4417  135.3854  155.2200 H   0  0  0  0  0  0  0  0  0  0  0  0  # atno 10765 bound_to 10752
  141.0093  133.6916  156.2171 H   0  0  0  0  0  0  0  0  0  0  0  0  # atno 11005 bound_to 11000
  144.9656  139.3934  143.6334 LP  0  0  0  0  0  0  0  0  0  0  0  0  # atno 17320 bound_to 7965
  146.3347  139.8729  142.8837 LP  0  0  0  0  0  0  0  0  0  0  0  0  # atno 17321 bound_to 7965
  140.3345  143.3057  152.0653 LP  0  0  0  0  0  0  0  0  0  0  0  0  # atno 17342 bound_to 10162
  139.4925  144.6486  151.6725 LP  0  0  0  0  0  0  0  0  0  0  0  0  # atno 17343 bound_to 10162
  157.6639  131.0875  150.7774 LP  0  0  0  0  0  0  0  0  0  0  0  0  # atno 17370 bound_to 10713
  156.7844  130.4869  149.5395 LP  0  0  0  0  0  0  0  0  0  0  0  0  # atno 17371 bound_to 10713
  140.6760  134.4817  157.5588 LP  0  0  0  0  0  0  0  0  0  0  0  0  # atno 17394 bound_to 11000
  139.9081  134.8405  156.1630 LP  0  0  0  0  0  0  0  0  0  0  0  0  # atno 17395 bound_to 11000

$$$$
