AV-unprocessed.smi:1703|AV-procd|sdf|6860|dock4
  -GOLD-   22720 8 43D 1   1.00000     0.00000
 Structure written by MMmdl.
 49 51  0  0  0  0  0  0  0  0  2 V2000
  150.9943  132.9733  156.1159 C   0  0  0  0  0  0  0  0  0  0  0  0
  150.3409  134.3538  155.9918 C   0  0  1  0  0  0  0  0  0  0  0  0
  150.0530  134.7283  154.5229 C   0  0  0  0  0  0  0  0  0  0  0  0
  149.3451  136.0277  154.4259 N   0  3  2  0  0  0  0  0  0  0  0  0
  150.2340  137.2044  154.6174 C   0  0  0  0  0  0  0  0  0  0  0  0
  149.4620  138.5422  154.5525 C   0  0  2  0  0  0  0  0  0  0  0  0
  148.5726  138.5056  153.4554 O   0  0  0  0  0  0  0  0  0  0  0  0
  150.3695  139.7798  154.4011 C   0  0  0  0  0  0  0  0  0  0  0  0
  151.1461  140.0460  155.6062 N   0  0  0  0  0  0  0  0  0  0  0  0
  152.3062  139.4680  156.0118 C   0  0  0  0  0  0  0  0  0  0  0  0
  153.0013  138.4100  155.2103 C   0  0  0  0  0  0  0  0  0  0  0  0
  153.1833  137.2107  155.9317 O   0  0  0  0  0  0  0  0  0  0  0  0
  152.7852  139.8893  157.1822 N   0  0  0  0  0  0  0  0  0  0  0  0
  151.8579  140.8365  157.5687 C   0  0  0  0  0  0  0  0  0  0  0  0
  151.7973  141.6426  158.7277 C   0  0  0  0  0  0  0  0  0  0  0  0
  150.7350  142.5519  158.9101 C   0  0  0  0  0  0  0  0  0  0  0  0
  149.7213  142.6694  157.9375 C   0  0  0  0  0  0  0  0  0  0  0  0
  149.7620  141.8745  156.7759 C   0  0  0  0  0  0  0  0  0  0  0  0
  150.8224  140.9651  156.6003 C   0  0  0  0  0  0  0  0  0  0  0  0
  148.1330  136.0205  155.2871 C   0  0  0  0  0  0  0  0  0  0  0  0
  148.4605  135.5941  156.7349 C   0  0  1  0  0  0  0  0  0  0  0  0
  147.1985  135.4698  157.5952 C   0  0  0  0  0  0  0  0  0  0  0  0
  149.1128  134.3289  156.7120 O   0  0  0  0  0  0  0  0  0  0  0  0
  151.9476  132.9413  155.5879 H   0  0  0  0  0  0  0  0  0  0  0  0
  150.3548  132.1940  155.6999 H   0  0  0  0  0  0  0  0  0  0  0  0
  151.1852  132.7248  157.1603 H   0  0  0  0  0  0  0  0  0  0  0  0
  151.0081  135.0901  156.4430 H   0  0  0  0  0  0  0  0  0  0  0  0
  150.9729  134.7506  153.9371 H   0  0  0  0  0  0  0  0  0  0  0  0
  149.4219  133.9627  154.0692 H   0  0  0  0  0  0  0  0  0  0  0  0
  150.7568  137.0945  155.5653 H   0  0  0  0  0  0  0  0  0  0  0  0
  151.0150  137.2169  153.8558 H   0  0  0  0  0  0  0  0  0  0  0  0
  148.8589  138.6766  155.4483 H   0  0  0  0  0  0  0  0  0  0  0  0
  148.8780  137.8591  152.8370 H   0  0  0  0  0  0  0  0  0  0  0  0
  151.0374  139.6570  153.5494 H   0  0  0  0  0  0  0  0  0  0  0  0
  149.7658  140.6631  154.1876 H   0  0  0  0  0  0  0  0  0  0  0  0
  152.4165  138.1913  154.3160 H   0  0  0  0  0  0  0  0  0  0  0  0
  153.9671  138.7830  154.8689 H   0  0  0  0  0  0  0  0  0  0  0  0
  152.9015  137.3493  156.8229 H   0  0  0  0  0  0  0  0  0  0  0  0
  152.5702  141.5618  159.4778 H   0  0  0  0  0  0  0  0  0  0  0  0
  150.6995  143.1644  159.7992 H   0  0  0  0  0  0  0  0  0  0  0  0
  148.9132  143.3714  158.0830 H   0  0  0  0  0  0  0  0  0  0  0  0
  148.9872  141.9659  156.0296 H   0  0  0  0  0  0  0  0  0  0  0  0
  147.6352  136.9893  155.2821 H   0  0  0  0  0  0  0  0  0  0  0  0
  147.4219  135.3144  154.8559 H   0  0  0  0  0  0  0  0  0  0  0  0
  149.1159  136.3257  157.2092 H   0  0  0  0  0  0  0  0  0  0  0  0
  146.6697  136.4215  157.6542 H   0  0  0  0  0  0  0  0  0  0  0  0
  147.4486  135.1665  158.6120 H   0  0  0  0  0  0  0  0  0  0  0  0
  146.5110  134.7289  157.1860 H   0  0  0  0  0  0  0  0  0  0  0  0
  149.0236  136.0973  153.4705 H   0  0  0  0  0  0  0  0  0  0  0  0
  1  2  1  0  0  0  0
  1 24  1  0  0  0  0
  1 25  1  0  0  0  0
  1 26  1  0  0  0  0
  2 23  1  0  0  0  0
  2  3  1  0  0  0  0
  2 27  1  0  0  0  0
  3  4  1  0  0  0  0
  3 28  1  0  0  0  0
  3 29  1  0  0  0  0
  4  5  1  0  0  0  0
  4 20  1  0  0  0  0
  4 49  1  0  0  0  0
  5  6  1  0  0  0  0
  5 30  1  0  0  0  0
  5 31  1  0  0  0  0
  6  7  1  0  0  0  0
  6  8  1  0  0  0  0
  6 32  1  0  0  0  0
  7 33  1  0  0  0  0
  8  9  1  0  0  0  0
  8 34  1  0  0  0  0
  8 35  1  0  0  0  0
  9 19  1  0  0  0  0
  9 10  1  0  0  0  0
 10 11  1  0  0  0  0
 10 13  2  0  0  0  0
 11 12  1  0  0  0  0
 11 36  1  0  0  0  0
 11 37  1  0  0  0  0
 12 38  1  0  0  0  0
 13 14  1  0  0  0  0
 14 19  2  0  0  0  0
 14 15  1  0  0  0  0
 15 16  2  0  0  0  0
 15 39  1  0  0  0  0
 16 17  1  0  0  0  0
 16 40  1  0  0  0  0
 17 18  2  0  0  0  0
 17 41  1  0  0  0  0
 18 19  1  0  0  0  0
 18 42  1  0  0  0  0
 20 21  1  0  0  0  0
 20 43  1  0  0  0  0
 20 44  1  0  0  0  0
 21 22  1  0  0  0  0
 21 23  1  0  0  0  0
 21 45  1  0  0  0  0
 22 46  1  0  0  0  0
 22 47  1  0  0  0  0
 22 48  1  0  0  0  0
M  CHG  1   4   1
M  END
> <s_m_source_file>
AV-unprocessed.smi

> <i_m_source_file_index>
1703

> <i_lp_mmshare_version>
43012

> <i_f3d_flags>
0

> <s_epik_input>
W0NIM11bQ0BASF0xW0NIMl1OKFtDSDJdW0NASF0oTzEpW0NIM10pW0NIMl1bQ0BIXShbT0hdKVtDSDJdbihjKG4yKVtDSDJdW09IXSljKGMyMylbY0hdW2NIXVtjSF1bY0hdMw==

> <s_epik_cmdline>
J2VwaWtfcHl0aG9uJywgJy1waCcsICc3LjAnLCAnLXRuJywgJzgnLCAnLW1hJywgJzIwMCcsICctbWV0YWxfYmluZGluZycsICctaW1hZScsICc8aW5maWxlLm1hZT4nLCAnLW9tYWUnLCAnPG91dGZpbGUubWFlPic=

> <r_epik_Ionization_Penalty>
0.655661

> <r_epik_Ionization_Penalty_Charging>
0.608065

> <r_epik_Ionization_Penalty_Neutral>
0.0475963

> <r_epik_State_Penalty>
0.695267

> <r_epik_Charging_Adjusted_Penalty>
1.30333

> <i_epik_Tot_Q>
1

> <i_epik_Tot_abs_Q>
1

> <r_epik_Metal_State_Penalty>
0.653591

> <b_epik_Metal_Only>
0

> <s_lp_Force_Field>
OPLS_2005

> <r_lp_Energy>
23.3655

> <b_lp_Chiralities_Consistent>
1

> <s_lp_Variant>
AV-unprocessed.smi:1703-8

> <Gold.Version>
5.8.1

> <Gold.Id.Protein>
6NUR|6NUR_protein|mol2

> <Gold.PLP.Fitness>
46.5853

> <Gold.PLP.PLP>
-34.1611

> <Gold.PLP.part.hbond>
-4.0000

> <Gold.PLP.part.metal>
0.0000

> <Gold.PLP.part.buried>
-1.2741

> <Gold.PLP.part.nonpolar>
-28.1440

> <Gold.PLP.part.repulsive>
0.0150

> <Gold.PLP.ligand.clash>
0.0000

> <Gold.PLP.ligand.torsion>
0.5036

> <Gold.PLP.Chemscore.Hbond>
4.4480

> <Gold.PLP.Chemscore.CHOScore>
0.0000

> <Gold.PLP.Chemscore.Metal>
0.0000

> <Gold.Chemscore.Hbonds>
donor molecule, donor type, donor heavy atom, donor atom, acceptor molecule, acceptor atom, score
      L1  H     4    49       P1  7948  2.00
      L1  H     7    33       P1  7948  1.00
      P1  H  7997  8009       L1    13  0.50
      P1  H 10752 10765       L1    12  0.51

> <Gold.PLP.Chemscore.Internal.Correction>
0.0875

> <Gold.Rescore>
     Score         DG    S(hbond)    S(metal)    S(lipo)     H(rot)  DE(clash)    DE(int)     intcor
     15.80     -17.03       2.63        0.00      88.39       2.96       0.64       0.58       ----

> <Gold.Chemscore.Fitness>
15.8001

> <Gold.Chemscore.DG>
-17.0279

> <Gold.Chemscore.ZeroCoef>
-5.4800

> <Gold.Chemscore.Hbond>
2.6307

> <Gold.Chemscore.Metal>
0.0000

> <Gold.Chemscore.Lipo>
88.3896

> <Gold.Chemscore.Internal_Hbond>
0.0000

> <Gold.Chemscore.DEClash>
0.6430

> <Gold.Chemscore.DEInternal>
0.5848

> <Gold.Chemscore.Rot>
2.9611

> <Gold.Chemscore.Internal.Correction>
   9.000000E+99

> <Gold.Chemscore.Hbonds>
donor molecule, donor type, donor heavy atom, donor atom, acceptor molecule, acceptor atom, score
      L1  H     4    49       P1  7948  0.95
      L1  H     7    33       P1  7948  1.00
      P1  H  7997  8009       L1    13  0.02
      P1  H 10752 10765       L1    12  0.51

> <Gold.Chemscore.Hbond.Weighted>
-8.7866

> <Gold.Chemscore.Metal.Weighted>
-0.0000

> <Gold.Chemscore.Lipo.Weighted>
-10.3416

> <Gold.Chemscore.Internal_Hbond.Weighted>
0.0000

> <Gold.Chemscore.DEClash.Weighted>
0.6430

> <Gold.Chemscore.DEInternal.Weighted>
0.5848

> <Gold.Chemscore.Rot.Weighted>
7.5803

> <Gold.Chemscore.Internal.Correction.Weighted>
   9.000000E+99

> <Gold.Protein.RotatedTorsions>
[ 6907 6896 6895 6894 ] final  174.73 input  -60.11 | X-H torsion
[ 7974 7965 7964 7962 ] final  171.71 input  175.53 | X-H torsion
[ 8008 7997 7996 7995 ] final -169.08 input   59.86 | X-H torsion
[ 10167 10162 10161 10158 ] final -150.34 input  -65.29 | X-H torsion
[ 10718 10713 10712 10709 ] final   77.88 input   66.30 | X-H torsion
[ 10763 10752 10751 10750 ] final -135.29 input  -60.55 | X-H torsion
[ 11005 11000 10999 10996 ] final -105.06 input  -57.11 | X-H torsion

> <Gold.Protein.ActiveResidues>
 VAL166  LYS551  ARG553  GLY616  TRP617  ASP618  TYR619  PRO620  LYS621  CYS622 
 ASP623  PHE694  ASN695  SER759  ASP760  ASP761  ALA762  ILE779  LEU786  VAL792 
 PHE793  MET794  SER795  GLU796  ALA797  LYS798  CYS799  TRP800  GLU811  SER814 

> <Gold.Protein.RotatedAtoms>
  151.7476  133.3325  159.3382 H   0  0  0  0  0  0  0  0  0  0  0  0  # atno 6907 bound_to 6896
  150.7548  134.6222  159.6151 H   0  0  0  0  0  0  0  0  0  0  0  0  # atno 6908 bound_to 6896
  152.3490  134.7034  160.0293 H   0  0  0  0  0  0  0  0  0  0  0  0  # atno 6909 bound_to 6896
  144.7287  139.9391  143.6428 H   0  0  0  0  0  0  0  0  0  0  0  0  # atno 7974 bound_to 7965
  155.9001  140.1039  157.1356 H   0  0  0  0  0  0  0  0  0  0  0  0  # atno 8008 bound_to 7997
  154.4025  140.1294  156.4489 H   0  0  0  0  0  0  0  0  0  0  0  0  # atno 8009 bound_to 7997
  155.7433  140.3466  155.5117 H   0  0  0  0  0  0  0  0  0  0  0  0  # atno 8010 bound_to 7997
  139.7363  143.8731  152.2549 H   0  0  0  0  0  0  0  0  0  0  0  0  # atno 10167 bound_to 10162
  157.6726  130.9842  150.1705 H   0  0  0  0  0  0  0  0  0  0  0  0  # atno 10718 bound_to 10713
  154.8705  135.3708  154.4874 H   0  0  0  0  0  0  0  0  0  0  0  0  # atno 10763 bound_to 10752
  153.5523  135.7024  153.5590 H   0  0  0  0  0  0  0  0  0  0  0  0  # atno 10764 bound_to 10752
  153.3704  135.4023  155.1748 H   0  0  0  0  0  0  0  0  0  0  0  0  # atno 10765 bound_to 10752
  141.1071  133.8775  157.1687 H   0  0  0  0  0  0  0  0  0  0  0  0  # atno 11005 bound_to 11000
  146.0799  139.3786  143.0471 LP  0  0  0  0  0  0  0  0  0  0  0  0  # atno 17320 bound_to 7965
  145.7855  140.9837  143.1076 LP  0  0  0  0  0  0  0  0  0  0  0  0  # atno 17321 bound_to 7965
  139.8668  144.7089  150.9034 LP  0  0  0  0  0  0  0  0  0  0  0  0  # atno 17342 bound_to 10162
  140.7779  143.3771  151.1544 LP  0  0  0  0  0  0  0  0  0  0  0  0  # atno 17343 bound_to 10162
  156.2460  130.3695  149.8284 LP  0  0  0  0  0  0  0  0  0  0  0  0  # atno 17370 bound_to 10713
  156.6070  130.8571  151.3445 LP  0  0  0  0  0  0  0  0  0  0  0  0  # atno 17371 bound_to 10713
  139.9947  135.0051  157.0055 LP  0  0  0  0  0  0  0  0  0  0  0  0  # atno 17394 bound_to 11000
  140.4872  134.1229  155.7226 LP  0  0  0  0  0  0  0  0  0  0  0  0  # atno 17395 bound_to 11000

$$$$
