AV-unprocessed.smi:3017|AV-procd|sdf|11478|dock1
  -GOLD-   2272016413D 1   1.00000     0.00000
 Structure written by MMmdl.
 37 38  0  0  0  0  0  0  0  0  1 V2000
  151.7034  144.5758  157.8287 C   0  0  0  0  0  0  0  0  0  0  0  0
  152.3819  143.9536  159.0572 C   0  0  1  0  0  0  0  0  0  0  0  0
  151.8175  144.5335  160.3685 C   0  0  0  0  0  0  0  0  0  0  0  0
  152.4945  143.9085  161.5983 C   0  0  0  0  0  0  0  0  0  0  0  0
  152.3797  142.3753  161.5818 C   0  0  0  0  0  0  0  0  0  0  0  0
  152.9367  141.7740  160.2794 C   0  0  2  0  0  0  0  0  0  0  0  0
  154.3412  141.9989  160.2660 O   0  0  0  0  0  0  0  0  0  0  0  0
  155.1331  140.8215  160.1660 C   0  0  0  0  0  0  0  0  0  0  0  0
  155.1701  140.1042  161.5177 C   0  0  0  0  0  0  0  0  0  0  0  0
  155.5577  140.7219  162.5090 O   0  0  0  0  0  0  0  0  0  0  0  0
  154.7803  138.8150  161.5284 N   0  0  0  0  0  0  0  0  0  0  0  0
  154.6961  137.9311  162.6354 C   0  0  0  0  0  0  0  0  0  0  0  0
  154.3911  136.5851  162.3237 C   0  0  0  0  0  0  0  0  0  0  0  0
  154.2716  135.6265  163.2692 N   0  0  0  0  0  0  0  0  0  0  0  0
  154.4585  136.0143  164.5488 C   0  0  0  0  0  0  0  0  0  0  0  0
  154.7632  137.3502  164.8780 C   0  0  0  0  0  0  0  0  0  0  0  0
  154.8821  138.3030  163.9278 N   0  0  0  0  0  0  0  0  0  0  0  0
  152.2573  142.4166  159.0509 C   0  0  0  0  0  0  0  0  0  0  0  0
  150.6339  144.3629  157.8150 H   0  0  0  0  0  0  0  0  0  0  0  0
  152.1322  144.1857  156.9051 H   0  0  0  0  0  0  0  0  0  0  0  0
  151.8284  145.6588  157.8173 H   0  0  0  0  0  0  0  0  0  0  0  0
  153.4420  144.2070  159.0061 H   0  0  0  0  0  0  0  0  0  0  0  0
  151.9530  145.6155  160.3878 H   0  0  0  0  0  0  0  0  0  0  0  0
  150.7423  144.3565  160.4177 H   0  0  0  0  0  0  0  0  0  0  0  0
  153.5459  144.1987  161.6234 H   0  0  0  0  0  0  0  0  0  0  0  0
  152.0454  144.3034  162.5097 H   0  0  0  0  0  0  0  0  0  0  0  0
  152.9011  141.9528  162.4412 H   0  0  0  0  0  0  0  0  0  0  0  0
  151.3317  142.0923  161.6897 H   0  0  0  0  0  0  0  0  0  0  0  0
  152.7412  140.7002  160.2890 H   0  0  0  0  0  0  0  0  0  0  0  0
  154.7154  140.1468  159.4177 H   0  0  0  0  0  0  0  0  0  0  0  0
  156.1540  141.0599  159.8679 H   0  0  0  0  0  0  0  0  0  0  0  0
  154.4950  138.4312  160.6388 H   0  0  0  0  0  0  0  0  0  0  0  0
  154.2385  136.2711  161.3012 H   0  0  0  0  0  0  0  0  0  0  0  0
  154.3643  135.2570  165.3129 H   0  0  0  0  0  0  0  0  0  0  0  0
  154.9111  137.6545  165.9034 H   0  0  0  0  0  0  0  0  0  0  0  0
  151.2014  142.1426  159.0487 H   0  0  0  0  0  0  0  0  0  0  0  0
  152.6692  142.0114  158.1272 H   0  0  0  0  0  0  0  0  0  0  0  0
  1  2  1  0  0  0  0
  1 19  1  0  0  0  0
  1 20  1  0  0  0  0
  1 21  1  0  0  0  0
  2 18  1  0  0  0  0
  2  3  1  0  0  0  0
  2 22  1  0  0  0  0
  3  4  1  0  0  0  0
  3 23  1  0  0  0  0
  3 24  1  0  0  0  0
  4  5  1  0  0  0  0
  4 25  1  0  0  0  0
  4 26  1  0  0  0  0
  5  6  1  0  0  0  0
  5 27  1  0  0  0  0
  5 28  1  0  0  0  0
  6  7  1  0  0  0  0
  6 18  1  0  0  0  0
  6 29  1  0  0  0  0
  7  8  1  0  0  0  0
  8  9  1  0  0  0  0
  8 30  1  0  0  0  0
  8 31  1  0  0  0  0
  9 10  2  0  0  0  0
  9 11  1  0  0  0  0
 11 12  1  0  0  0  0
 11 32  1  0  0  0  0
 12 17  1  0  0  0  0
 12 13  2  0  0  0  0
 13 14  1  0  0  0  0
 13 33  1  0  0  0  0
 14 15  2  0  0  0  0
 15 16  1  0  0  0  0
 15 34  1  0  0  0  0
 16 17  2  0  0  0  0
 16 35  1  0  0  0  0
 18 36  1  0  0  0  0
 18 37  1  0  0  0  0
M  END
> <s_m_source_file>
AV-unprocessed.smi

> <i_m_source_file_index>
3017

> <i_lp_mmshare_version>
43012

> <i_f3d_flags>
0

> <s_epik_input>
W0NIM11bQ0BASF0xW0NIMl1bQ0gyXVtDSDJdW0NASF0oW0NIMl0xKU9bQ0gyXUMoPU8pW05IXWMyW2NIXW5bY0hdW2NIXW4y

> <s_epik_cmdline>
J2VwaWtfcHl0aG9uJywgJy1waCcsICc3LjAnLCAnLXRuJywgJzgnLCAnLW1hJywgJzIwMCcsICctbWV0YWxfYmluZGluZycsICctaW1hZScsICc8aW5maWxlLm1hZT4nLCAnLW9tYWUnLCAnPG91dGZpbGUubWFlPic=

> <r_lp_tautomer_probability>
1

> <r_epik_Ionization_Penalty>
2.89243e-06

> <r_epik_Ionization_Penalty_Charging>
0

> <r_epik_Ionization_Penalty_Neutral>
2.89243e-06

> <r_epik_State_Penalty>
-0

> <r_epik_Charging_Adjusted_Penalty>
0

> <i_epik_Tot_Q>
0

> <i_epik_Tot_abs_Q>
0

> <r_epik_Metal_State_Penalty>
-0

> <b_epik_Metal_Only>
0

> <s_lp_Force_Field>
OPLS_2005

> <r_lp_Energy>
20.5114

> <b_lp_Chiralities_Consistent>
1

> <s_lp_Variant>
AV-unprocessed.smi:3017-4

> <Gold.Version>
5.8.1

> <Gold.Id.Protein>
6NUR|6NUR_protein|mol2

> <Gold.PLP.Fitness>
40.2197

> <Gold.PLP.PLP>
-41.8704

> <Gold.PLP.part.hbond>
-1.3175

> <Gold.PLP.part.metal>
0.0000

> <Gold.PLP.part.buried>
-3.1799

> <Gold.PLP.part.nonpolar>
-37.1050

> <Gold.PLP.part.repulsive>
0.0241

> <Gold.PLP.ligand.clash>
0.0000

> <Gold.PLP.ligand.torsion>
0.8407

> <Gold.PLP.Chemscore.Hbond>
0.0000

> <Gold.PLP.Chemscore.CHOScore>
0.0000

> <Gold.PLP.Chemscore.Metal>
0.0000

> <Gold.PLP.Chemscore.Internal.Correction>
0.0307

> <Gold.Rescore>
     Score         DG    S(hbond)    S(metal)    S(lipo)     H(rot)  DE(clash)    DE(int)     intcor
     12.49     -14.74       0.00        0.00     112.22       1.51       0.18       2.07       ----

> <Gold.Chemscore.Fitness>
12.4928

> <Gold.Chemscore.DG>
-14.7394

> <Gold.Chemscore.ZeroCoef>
-5.4800

> <Gold.Chemscore.Hbond>
0.0000

> <Gold.Chemscore.Metal>
0.0000

> <Gold.Chemscore.Lipo>
112.2218

> <Gold.Chemscore.Internal_Hbond>
0.0000

> <Gold.Chemscore.DEClash>
0.1799

> <Gold.Chemscore.DEInternal>
2.0667

> <Gold.Chemscore.Rot>
1.5119

> <Gold.Chemscore.Internal.Correction>
   9.000000E+99

> <Gold.Chemscore.Hbond.Weighted>
-0.0000

> <Gold.Chemscore.Metal.Weighted>
-0.0000

> <Gold.Chemscore.Lipo.Weighted>
-13.1300

> <Gold.Chemscore.Internal_Hbond.Weighted>
0.0000

> <Gold.Chemscore.DEClash.Weighted>
0.1799

> <Gold.Chemscore.DEInternal.Weighted>
2.0667

> <Gold.Chemscore.Rot.Weighted>
3.8706

> <Gold.Chemscore.Internal.Correction.Weighted>
   9.000000E+99

> <Gold.Protein.RotatedTorsions>
[ 6907 6896 6895 6894 ] final  -85.66 input  -60.11 | X-H torsion
[ 7974 7965 7964 7962 ] final  128.05 input  175.53 | X-H torsion
[ 8008 7997 7996 7995 ] final  174.38 input   59.86 | X-H torsion
[ 10167 10162 10161 10158 ] final   59.37 input  -65.29 | X-H torsion
[ 10718 10713 10712 10709 ] final   73.77 input   66.30 | X-H torsion
[ 10763 10752 10751 10750 ] final  -77.46 input  -60.55 | X-H torsion
[ 11005 11000 10999 10996 ] final -169.73 input  -57.11 | X-H torsion

> <Gold.Protein.ActiveResidues>
 VAL166  LYS551  ARG553  GLY616  TRP617  ASP618  TYR619  PRO620  LYS621  CYS622 
 ASP623  PHE694  ASN695  SER759  ASP760  ASP761  ALA762  ILE779  LEU786  VAL792 
 PHE793  MET794  SER795  GLU796  ALA797  LYS798  CYS799  TRP800  GLU811  SER814 

> <Gold.Protein.RotatedAtoms>
  150.6869  134.3170  159.4770 H   0  0  0  0  0  0  0  0  0  0  0  0  # atno 6907 bound_to 6896
  152.1050  134.9312  160.0577 H   0  0  0  0  0  0  0  0  0  0  0  0  # atno 6908 bound_to 6896
  152.0577  133.4013  159.4441 H   0  0  0  0  0  0  0  0  0  0  0  0  # atno 6909 bound_to 6896
  145.0438  139.3940  143.5088 H   0  0  0  0  0  0  0  0  0  0  0  0  # atno 7974 bound_to 7965
  156.0979  140.1436  156.9506 H   0  0  0  0  0  0  0  0  0  0  0  0  # atno 8008 bound_to 7997
  154.4683  140.0918  156.7125 H   0  0  0  0  0  0  0  0  0  0  0  0  # atno 8009 bound_to 7997
  155.4809  140.3445  155.4342 H   0  0  0  0  0  0  0  0  0  0  0  0  # atno 8010 bound_to 7997
  140.1772  144.4218  150.6633 H   0  0  0  0  0  0  0  0  0  0  0  0  # atno 10167 bound_to 10162
  157.6563  130.9645  150.1117 H   0  0  0  0  0  0  0  0  0  0  0  0  # atno 10718 bound_to 10713
  154.5132  135.5763  153.6622 H   0  0  0  0  0  0  0  0  0  0  0  0  # atno 10763 bound_to 10752
  152.9901  135.6164  154.2851 H   0  0  0  0  0  0  0  0  0  0  0  0  # atno 10764 bound_to 10752
  154.2767  135.2852  155.2694 H   0  0  0  0  0  0  0  0  0  0  0  0  # atno 10765 bound_to 10752
  140.5274  134.5649  157.5065 H   0  0  0  0  0  0  0  0  0  0  0  0  # atno 11005 bound_to 11000
  146.3512  140.0053  142.8672 LP  0  0  0  0  0  0  0  0  0  0  0  0  # atno 17320 bound_to 7965
  145.1613  140.9674  143.4375 LP  0  0  0  0  0  0  0  0  0  0  0  0  # atno 17321 bound_to 7965
  140.6544  143.2233  151.6004 LP  0  0  0  0  0  0  0  0  0  0  0  0  # atno 17342 bound_to 10162
  139.5312  144.2911  152.1151 LP  0  0  0  0  0  0  0  0  0  0  0  0  # atno 17343 bound_to 10162
  156.2012  130.3660  149.8786 LP  0  0  0  0  0  0  0  0  0  0  0  0  # atno 17370 bound_to 10713
  156.6689  130.8812  151.3559 LP  0  0  0  0  0  0  0  0  0  0  0  0  # atno 17371 bound_to 10713
  139.9572  134.7514  156.0315 LP  0  0  0  0  0  0  0  0  0  0  0  0  # atno 17394 bound_to 11000
  141.1300  133.6589  156.3439 LP  0  0  0  0  0  0  0  0  0  0  0  0  # atno 17395 bound_to 11000

$$$$
