AV-unprocessed.smi:2908|AV-procd|sdf|11170|dock10
  -GOLD-   2272016 63D 1   1.00000     0.00000
 Structure written by MMmdl.
 44 45  0  0  0  0  0  0  0  0  2 V2000
  150.7670  137.2287  157.6060 O   0  0  0  0  0  0  0  0  0  0  0  0
  151.1696  137.8174  156.6013 C   0  0  0  0  0  0  0  0  0  0  0  0
  150.9546  137.3425  155.3617 N   0  0  0  0  0  0  0  0  0  0  0  0
  150.2341  136.1160  155.0276 C   0  0  0  0  0  0  0  0  0  0  0  0
  150.9117  134.8575  155.6047 C   0  0  0  0  0  0  0  0  0  0  0  0
  150.5124  133.5718  154.9018 C   0  0  0  0  0  0  0  0  0  0  0  0
  150.7521  132.2995  155.4659 C   0  0  0  0  0  0  0  0  0  0  0  0
  150.3292  131.1475  154.7708 C   0  0  0  0  0  0  0  0  0  0  0  0
  149.6793  131.2907  153.5275 C   0  0  0  0  0  0  0  0  0  0  0  0
  149.4690  132.5847  153.0092 C   0  0  0  0  0  0  0  0  0  0  0  0
  149.8886  133.6641  153.7050 N   0  3  0  0  0  0  0  0  0  0  0  0
  151.9055  138.9562  156.6531 N   0  0  0  0  0  0  0  0  0  0  0  0
  151.9733  139.9986  155.6163 C   0  0  0  0  0  0  0  0  0  0  0  0
  151.1634  141.2182  156.0899 C   0  0  0  0  0  0  0  0  0  0  0  0
  151.6724  141.7457  157.4533 C   0  0  0  0  0  0  0  0  0  0  0  0
  150.8309  142.9538  157.9433 C   0  0  1  0  0  0  0  0  0  0  0  0
  149.7028  142.5040  158.6700 O   0  0  0  0  0  0  0  0  0  0  0  0
  151.5947  143.9999  158.7849 C   0  0  0  0  0  0  0  0  0  0  0  0
  152.2571  143.3854  159.7651 F   0  0  0  0  0  0  0  0  0  0  0  0
  152.4597  144.6975  158.0494 F   0  0  0  0  0  0  0  0  0  0  0  0
  150.7295  144.8451  159.3448 F   0  0  0  0  0  0  0  0  0  0  0  0
  151.7994  140.5889  158.4767 C   0  0  0  0  0  0  0  0  0  0  0  0
  152.5714  139.3955  157.8844 C   0  0  0  0  0  0  0  0  0  0  0  0
  151.3231  137.8761  154.5876 H   0  0  0  0  0  0  0  0  0  0  0  0
  149.1975  136.1752  155.3639 H   0  0  0  0  0  0  0  0  0  0  0  0
  150.1934  136.0385  153.9410 H   0  0  0  0  0  0  0  0  0  0  0  0
  151.9954  134.9662  155.5444 H   0  0  0  0  0  0  0  0  0  0  0  0
  150.6769  134.7691  156.6663 H   0  0  0  0  0  0  0  0  0  0  0  0
  151.2435  132.2063  156.4236 H   0  0  0  0  0  0  0  0  0  0  0  0
  150.4988  130.1657  155.1881 H   0  0  0  0  0  0  0  0  0  0  0  0
  149.3453  130.4211  152.9804 H   0  0  0  0  0  0  0  0  0  0  0  0
  148.9786  132.7878  152.0685 H   0  0  0  0  0  0  0  0  0  0  0  0
  153.0153  140.2822  155.4599 H   0  0  0  0  0  0  0  0  0  0  0  0
  151.6139  139.6765  154.6390 H   0  0  0  0  0  0  0  0  0  0  0  0
  151.2198  142.0080  155.3402 H   0  0  0  0  0  0  0  0  0  0  0  0
  150.1113  140.9396  156.1649 H   0  0  0  0  0  0  0  0  0  0  0  0
  152.6827  142.1156  157.2734 H   0  0  0  0  0  0  0  0  0  0  0  0
  150.4499  143.4689  157.0601 H   0  0  0  0  0  0  0  0  0  0  0  0
  148.9236  142.8090  158.2306 H   0  0  0  0  0  0  0  0  0  0  0  0
  152.3174  140.9259  159.3733 H   0  0  0  0  0  0  0  0  0  0  0  0
  150.8110  140.2536  158.7934 H   0  0  0  0  0  0  0  0  0  0  0  0
  152.6535  138.5994  158.6257 H   0  0  0  0  0  0  0  0  0  0  0  0
  153.5970  139.6896  157.6560 H   0  0  0  0  0  0  0  0  0  0  0  0
  149.7191  134.5912  153.3143 H   0  0  0  0  0  0  0  0  0  0  0  0
  1  2  2  0  0  0  0
  2  3  1  0  0  0  0
  2 12  1  0  0  0  0
  3  4  1  0  0  0  0
  3 24  1  0  0  0  0
  4  5  1  0  0  0  0
  4 25  1  0  0  0  0
  4 26  1  0  0  0  0
  5  6  1  0  0  0  0
  5 27  1  0  0  0  0
  5 28  1  0  0  0  0
  6 11  1  0  0  0  0
  6  7  2  0  0  0  0
  7  8  1  0  0  0  0
  7 29  1  0  0  0  0
  8  9  2  0  0  0  0
  8 30  1  0  0  0  0
  9 10  1  0  0  0  0
  9 31  1  0  0  0  0
 10 11  2  0  0  0  0
 10 32  1  0  0  0  0
 11 44  1  0  0  0  0
 12 23  1  0  0  0  0
 12 13  1  0  0  0  0
 13 14  1  0  0  0  0
 13 33  1  0  0  0  0
 13 34  1  0  0  0  0
 14 15  1  0  0  0  0
 14 35  1  0  0  0  0
 14 36  1  0  0  0  0
 15 16  1  0  0  0  0
 15 22  1  0  0  0  0
 15 37  1  0  0  0  0
 16 17  1  0  0  0  0
 16 18  1  0  0  0  0
 16 38  1  0  0  0  0
 17 39  1  0  0  0  0
 18 19  1  0  0  0  0
 18 20  1  0  0  0  0
 18 21  1  0  0  0  0
 22 23  1  0  0  0  0
 22 40  1  0  0  0  0
 22 41  1  0  0  0  0
 23 42  1  0  0  0  0
 23 43  1  0  0  0  0
M  CHG  1  11   1
M  END
> <s_m_source_file>
AV-unprocessed.smi

> <i_m_source_file_index>
2908

> <i_lp_mmshare_version>
43012

> <i_f3d_flags>
0

> <s_epik_input>
RkMoRikoRilbQ0BASF0oW09IXSlbQ0hdKFtDSDJdW0NIMl0xKVtDSDJdW0NIMl1OMUMoPU8pW05IXVtDSDJdW0NIMl1jMltjSF1bY0hdW2NIXVtjSF1uMg==

> <s_epik_cmdline>
J2VwaWtfcHl0aG9uJywgJy1waCcsICc3LjAnLCAnLXRuJywgJzgnLCAnLW1hJywgJzIwMCcsICctbWV0YWxfYmluZGluZycsICctaW1hZScsICc8aW5maWxlLm1hZT4nLCAnLW9tYWUnLCAnPG91dGZpbGUubWFlPic=

> <r_epik_Ionization_Penalty>
1.55054

> <r_epik_Ionization_Penalty_Charging>
1.55036

> <r_epik_Ionization_Penalty_Neutral>
0.00017404

> <r_epik_State_Penalty>
1.64453

> <r_epik_Charging_Adjusted_Penalty>
3.19489

> <i_epik_Tot_Q>
1

> <i_epik_Tot_abs_Q>
1

> <r_epik_Metal_State_Penalty>
1.68672

> <b_epik_Metal_Only>
0

> <s_lp_Force_Field>
OPLS_2005

> <r_lp_Energy>
43.524

> <b_lp_Chiralities_Consistent>
1

> <s_lp_Variant>
AV-unprocessed.smi:2908-4

> <Gold.Version>
5.8.1

> <Gold.Id.Protein>
6NUR|6NUR_protein|mol2

> <Gold.PLP.Fitness>
51.6307

> <Gold.PLP.PLP>
-48.2254

> <Gold.PLP.part.hbond>
-1.8455

> <Gold.PLP.part.metal>
0.0000

> <Gold.PLP.part.buried>
-4.0911

> <Gold.PLP.part.nonpolar>
-41.5581

> <Gold.PLP.part.repulsive>
0.0459

> <Gold.PLP.ligand.clash>
0.0000

> <Gold.PLP.ligand.torsion>
1.3702

> <Gold.PLP.Chemscore.Hbond>
1.9840

> <Gold.PLP.Chemscore.CHOScore>
0.0000

> <Gold.PLP.Chemscore.Metal>
0.0000

> <Gold.Chemscore.Hbonds>
donor molecule, donor type, donor heavy atom, donor atom, acceptor molecule, acceptor atom, score
      L1  H    11    44       P1  7948  0.04

> <Gold.PLP.Chemscore.Internal.Correction>
0.1936

> <Gold.Rescore>
     Score         DG    S(hbond)    S(metal)    S(lipo)     H(rot)  DE(clash)    DE(int)     intcor
      9.98     -12.33       0.78        0.00      88.76       2.40       0.18       2.18       ----

> <Gold.Chemscore.Fitness>
9.9800

> <Gold.Chemscore.DG>
-12.3329

> <Gold.Chemscore.ZeroCoef>
-5.4800

> <Gold.Chemscore.Hbond>
0.7839

> <Gold.Chemscore.Metal>
0.0000

> <Gold.Chemscore.Lipo>
88.7637

> <Gold.Chemscore.Internal_Hbond>
0.0000

> <Gold.Chemscore.DEClash>
0.1779

> <Gold.Chemscore.DEInternal>
2.1750

> <Gold.Chemscore.Rot>
2.4026

> <Gold.Chemscore.Internal.Correction>
   9.000000E+99

> <Gold.Chemscore.Hbond.Weighted>
-2.6183

> <Gold.Chemscore.Metal.Weighted>
-0.0000

> <Gold.Chemscore.Lipo.Weighted>
-10.3853

> <Gold.Chemscore.Internal_Hbond.Weighted>
0.0000

> <Gold.Chemscore.DEClash.Weighted>
0.1779

> <Gold.Chemscore.DEInternal.Weighted>
2.1750

> <Gold.Chemscore.Rot.Weighted>
6.1508

> <Gold.Chemscore.Internal.Correction.Weighted>
   9.000000E+99

> <Gold.Protein.RotatedTorsions>
[ 6907 6896 6895 6894 ] final -117.71 input  -60.11 | X-H torsion
[ 7974 7965 7964 7962 ] final -103.04 input  175.53 | X-H torsion
[ 8008 7997 7996 7995 ] final -168.33 input   59.86 | X-H torsion
[ 10167 10162 10161 10158 ] final  133.65 input  -65.29 | X-H torsion
[ 10718 10713 10712 10709 ] final -106.33 input   66.30 | X-H torsion
[ 10763 10752 10751 10750 ] final  -92.44 input  -60.55 | X-H torsion
[ 11005 11000 10999 10996 ] final  -30.86 input  -57.11 | X-H torsion

> <Gold.Protein.ActiveResidues>
 VAL166  LYS551  ARG553  GLY616  TRP617  ASP618  TYR619  PRO620  LYS621  CYS622 
 ASP623  PHE694  ASN695  SER759  ASP760  ASP761  ALA762  ILE779  LEU786  VAL792 
 PHE793  MET794  SER795  GLU796  ALA797  LYS798  CYS799  TRP800  GLU811  SER814 

> <Gold.Protein.RotatedAtoms>
  150.8159  133.8338  159.3160 H   0  0  0  0  0  0  0  0  0  0  0  0  # atno 6907 bound_to 6896
  151.6110  135.1038  160.0090 H   0  0  0  0  0  0  0  0  0  0  0  0  # atno 6908 bound_to 6896
  152.4250  133.7140  159.6551 H   0  0  0  0  0  0  0  0  0  0  0  0  # atno 6909 bound_to 6896
  145.2610  140.9269  143.3041 H   0  0  0  0  0  0  0  0  0  0  0  0  # atno 7974 bound_to 7965
  155.8900  140.1023  157.1425 H   0  0  0  0  0  0  0  0  0  0  0  0  # atno 8008 bound_to 7997
  154.4014  140.1312  156.4367 H   0  0  0  0  0  0  0  0  0  0  0  0  # atno 8009 bound_to 7997
  155.7545  140.3464  155.5169 H   0  0  0  0  0  0  0  0  0  0  0  0  # atno 8010 bound_to 7997
  139.5288  144.6605  151.5027 H   0  0  0  0  0  0  0  0  0  0  0  0  # atno 10167 bound_to 10162
  156.0385  130.5607  150.7665 H   0  0  0  0  0  0  0  0  0  0  0  0  # atno 10718 bound_to 10713
  154.6861  135.5231  153.8329 H   0  0  0  0  0  0  0  0  0  0  0  0  # atno 10763 bound_to 10752
  153.0599  135.6564  154.0498 H   0  0  0  0  0  0  0  0  0  0  0  0  # atno 10764 bound_to 10752
  154.0378  135.2980  155.3339 H   0  0  0  0  0  0  0  0  0  0  0  0  # atno 10765 bound_to 10752
  140.9419  133.7273  156.1088 H   0  0  0  0  0  0  0  0  0  0  0  0  # atno 11005 bound_to 11000
  144.9418  139.4180  143.6445 LP  0  0  0  0  0  0  0  0  0  0  0  0  # atno 17320 bound_to 7965
  146.3275  139.8382  142.8895 LP  0  0  0  0  0  0  0  0  0  0  0  0  # atno 17321 bound_to 7965
  140.6451  143.8810  150.6730 LP  0  0  0  0  0  0  0  0  0  0  0  0  # atno 17342 bound_to 10162
  140.2157  143.3848  152.1683 LP  0  0  0  0  0  0  0  0  0  0  0  0  # atno 17343 bound_to 10162
  157.5171  131.0929  151.0126 LP  0  0  0  0  0  0  0  0  0  0  0  0  # atno 17370 bound_to 10713
  157.0466  130.5770  149.5364 LP  0  0  0  0  0  0  0  0  0  0  0  0  # atno 17371 bound_to 10713
  140.7722  134.3819  157.5505 LP  0  0  0  0  0  0  0  0  0  0  0  0  # atno 17394 bound_to 11000
  139.8822  134.9029  156.2844 LP  0  0  0  0  0  0  0  0  0  0  0  0  # atno 17395 bound_to 11000

$$$$
