AV-unprocessed.smi:2881|AV-procd|sdf|11057|dock6
  -GOLD-   2272015523D 1   1.00000     0.00000
 Structure written by MMmdl.
 40 42  0  0  0  0  0  0  0  0  1 V2000
  155.0668  136.9864  163.8879 C   0  0  0  0  0  0  0  0  0  0  0  0
  154.4521  136.8809  162.5338 C   0  0  0  0  0  0  0  0  0  0  0  0
  153.6274  137.7264  161.8474 C   0  0  0  0  0  0  0  0  0  0  0  0
  153.3936  137.0627  160.6067 C   0  0  0  0  0  0  0  0  0  0  0  0
  152.5577  137.5352  159.4473 C   0  0  0  0  0  0  0  0  0  0  0  0
  153.0639  138.8899  158.9504 C   0  0  0  0  0  0  0  0  0  0  0  0
  154.1082  138.9592  158.3023 O   0  0  0  0  0  0  0  0  0  0  0  0
  152.3148  139.9580  159.2625 N   0  0  0  0  0  0  0  0  0  0  0  0
  152.5995  141.3308  158.8539 C   0  0  2  0  0  0  0  0  0  0  0  0
  153.7052  142.0168  159.6960 C   0  0  2  0  0  0  0  0  0  0  0  0
  153.4222  141.8951  161.2088 C   0  0  0  0  0  0  0  0  0  0  0  0
  152.2056  142.8198  161.3987 C   0  0  0  0  0  0  0  0  0  0  0  0
  151.9687  143.3687  159.9779 C   0  0  1  0  0  0  0  0  0  0  0  0
  153.3970  143.4896  159.4587 C   0  0  0  0  0  0  0  0  0  0  0  0
  151.3735  142.2526  159.0878 C   0  0  1  0  0  0  0  0  0  0  0  0
  150.7549  142.7910  157.7833 C   0  0  0  0  0  0  0  0  0  0  0  0
  149.7841  143.7742  158.0753 O   0  0  0  0  0  0  0  0  0  0  0  0
  154.0175  135.8946  160.5343 N   0  0  0  0  0  0  0  0  0  0  0  0
  154.6597  135.7964  161.7131 N   0  0  0  0  0  0  0  0  0  0  0  0
  155.2292  134.9939  161.9411 H   0  0  0  0  0  0  0  0  0  0  0  0
  154.9480  137.9919  164.2922 H   0  0  0  0  0  0  0  0  0  0  0  0
  156.1332  136.7635  163.8492 H   0  0  0  0  0  0  0  0  0  0  0  0
  154.5983  136.2872  164.5805 H   0  0  0  0  0  0  0  0  0  0  0  0
  153.2491  138.6825  162.1782 H   0  0  0  0  0  0  0  0  0  0  0  0
  152.5811  136.8173  158.6259 H   0  0  0  0  0  0  0  0  0  0  0  0
  151.5134  137.6272  159.7484 H   0  0  0  0  0  0  0  0  0  0  0  0
  151.4696  139.8056  159.7939 H   0  0  0  0  0  0  0  0  0  0  0  0
  152.8855  141.3413  157.8002 H   0  0  0  0  0  0  0  0  0  0  0  0
  154.7151  141.7135  159.4178 H   0  0  0  0  0  0  0  0  0  0  0  0
  153.2293  140.8732  161.5353 H   0  0  0  0  0  0  0  0  0  0  0  0
  154.2711  142.2644  161.7855 H   0  0  0  0  0  0  0  0  0  0  0  0
  151.3369  142.2905  161.7915 H   0  0  0  0  0  0  0  0  0  0  0  0
  152.4447  143.6270  162.0924 H   0  0  0  0  0  0  0  0  0  0  0  0
  151.3948  144.2959  159.9668 H   0  0  0  0  0  0  0  0  0  0  0  0
  154.0178  144.1639  160.0515 H   0  0  0  0  0  0  0  0  0  0  0  0
  153.4598  143.7816  158.4095 H   0  0  0  0  0  0  0  0  0  0  0  0
  150.5883  141.7368  159.6442 H   0  0  0  0  0  0  0  0  0  0  0  0
  151.5247  143.2454  157.1588 H   0  0  0  0  0  0  0  0  0  0  0  0
  150.2952  141.9938  157.1990 H   0  0  0  0  0  0  0  0  0  0  0  0
  149.2746  143.9353  157.2958 H   0  0  0  0  0  0  0  0  0  0  0  0
  1  2  1  0  0  0  0
  1 21  1  0  0  0  0
  1 22  1  0  0  0  0
  1 23  1  0  0  0  0
  2 19  1  0  0  0  0
  2  3  2  0  0  0  0
  3  4  1  0  0  0  0
  3 24  1  0  0  0  0
  4  5  1  0  0  0  0
  4 18  2  0  0  0  0
  5  6  1  0  0  0  0
  5 25  1  0  0  0  0
  5 26  1  0  0  0  0
  6  7  2  0  0  0  0
  6  8  1  0  0  0  0
  8  9  1  0  0  0  0
  8 27  1  0  0  0  0
  9 15  1  0  0  0  0
  9 10  1  0  0  0  0
  9 28  1  0  0  0  0
 10 14  1  0  0  0  0
 10 11  1  0  0  0  0
 10 29  1  0  0  0  0
 11 12  1  0  0  0  0
 11 30  1  0  0  0  0
 11 31  1  0  0  0  0
 12 13  1  0  0  0  0
 12 32  1  0  0  0  0
 12 33  1  0  0  0  0
 13 14  1  0  0  0  0
 13 15  1  0  0  0  0
 13 34  1  0  0  0  0
 14 35  1  0  0  0  0
 14 36  1  0  0  0  0
 15 16  1  0  0  0  0
 15 37  1  0  0  0  0
 16 17  1  0  0  0  0
 16 38  1  0  0  0  0
 16 39  1  0  0  0  0
 17 40  1  0  0  0  0
 18 19  1  0  0  0  0
 19 20  1  0  0  0  0
M  END
> <s_m_source_file>
AV-unprocessed.smi

> <i_m_source_file_index>
2881

> <i_lp_mmshare_version>
43012

> <i_f3d_flags>
0

> <s_epik_input>
W0NIM11jMVtjSF1jKG5bbkhdMSlbQ0gyXUMoPU8pW05IXVtDQEhdKFtDQEBIXTIzKVtDQEhdKFtDSDJdW09IXSlbQ0BASF0oW0NIMl0zKVtDSDJdW0NIMl0y

> <s_epik_cmdline>
J2VwaWtfcHl0aG9uJywgJy1waCcsICc3LjAnLCAnLXRuJywgJzgnLCAnLW1hJywgJzIwMCcsICctbWV0YWxfYmluZGluZycsICctaW1hZScsICc8aW5maWxlLm1hZT4nLCAnLW9tYWUnLCAnPG91dGZpbGUubWFlPic=

> <r_lp_tautomer_probability>
0.5

> <r_epik_Ionization_Penalty>
9.4349e-05

> <r_epik_Ionization_Penalty_Charging>
0

> <r_epik_Ionization_Penalty_Neutral>
9.4349e-05

> <r_epik_State_Penalty>
0.41068

> <r_epik_Charging_Adjusted_Penalty>
0.41068

> <i_epik_Tot_Q>
0

> <i_epik_Tot_abs_Q>
0

> <r_epik_Metal_State_Penalty>
0.4107

> <b_epik_Metal_Only>
0

> <s_lp_Force_Field>
OPLS_2005

> <r_lp_Energy>
47.2373

> <b_lp_Chiralities_Consistent>
1

> <s_lp_Variant>
AV-unprocessed.smi:2881-3

> <Gold.Version>
5.8.1

> <Gold.Id.Protein>
6NUR|6NUR_protein|mol2

> <Gold.PLP.Fitness>
46.6930

> <Gold.PLP.PLP>
-38.5101

> <Gold.PLP.part.hbond>
-3.9999

> <Gold.PLP.part.metal>
0.0000

> <Gold.PLP.part.buried>
-4.2429

> <Gold.PLP.part.nonpolar>
-30.7770

> <Gold.PLP.part.repulsive>
0.1919

> <Gold.PLP.ligand.clash>
0.0000

> <Gold.PLP.ligand.torsion>
0.4084

> <Gold.PLP.Chemscore.Hbond>
2.9913

> <Gold.PLP.Chemscore.CHOScore>
0.0000

> <Gold.PLP.Chemscore.Metal>
0.0000

> <Gold.Chemscore.Hbonds>
donor molecule, donor type, donor heavy atom, donor atom, acceptor molecule, acceptor atom, score
      L1  H    17    40       P1  8028  1.00
      P1  H  6896  6907       L1    18  0.91
      P1  H  7997  8010       L1     7  1.00

> <Gold.PLP.Chemscore.Internal.Correction>
0.0260

> <Gold.Rescore>
     Score         DG    S(hbond)    S(metal)    S(lipo)     H(rot)  DE(clash)    DE(int)     intcor
     22.53     -23.06       2.82        0.00     119.53       2.28       0.05       0.48       ----

> <Gold.Chemscore.Fitness>
22.5335

> <Gold.Chemscore.DG>
-23.0563

> <Gold.Chemscore.ZeroCoef>
-5.4800

> <Gold.Chemscore.Hbond>
2.8194

> <Gold.Chemscore.Metal>
0.0000

> <Gold.Chemscore.Lipo>
119.5284

> <Gold.Chemscore.Internal_Hbond>
0.0000

> <Gold.Chemscore.DEClash>
0.0476

> <Gold.Chemscore.DEInternal>
0.4752

> <Gold.Chemscore.Rot>
2.2755

> <Gold.Chemscore.Internal.Correction>
   9.000000E+99

> <Gold.Chemscore.Hbonds>
donor molecule, donor type, donor heavy atom, donor atom, acceptor molecule, acceptor atom, score
      L1  H    17    40       P1  8028  0.25
      P1  H  6896  6907       L1    18  0.20
      P1  H  7997  8010       L1     7  1.00

> <Gold.Chemscore.Hbond.Weighted>
-9.4167

> <Gold.Chemscore.Metal.Weighted>
-0.0000

> <Gold.Chemscore.Lipo.Weighted>
-13.9848

> <Gold.Chemscore.Internal_Hbond.Weighted>
0.0000

> <Gold.Chemscore.DEClash.Weighted>
0.0476

> <Gold.Chemscore.DEInternal.Weighted>
0.4752

> <Gold.Chemscore.Rot.Weighted>
5.8252

> <Gold.Chemscore.Internal.Correction.Weighted>
   9.000000E+99

> <Gold.Protein.RotatedTorsions>
[ 6907 6896 6895 6894 ] final   57.61 input  -60.11 | X-H torsion
[ 7974 7965 7964 7962 ] final   96.86 input  175.53 | X-H torsion
[ 8008 7997 7996 7995 ] final   12.02 input   59.86 | X-H torsion
[ 10167 10162 10161 10158 ] final -175.02 input  -65.29 | X-H torsion
[ 10718 10713 10712 10709 ] final    6.17 input   66.30 | X-H torsion
[ 10763 10752 10751 10750 ] final   29.00 input  -60.55 | X-H torsion
[ 11005 11000 10999 10996 ] final  100.82 input  -57.11 | X-H torsion

> <Gold.Protein.ActiveResidues>
 VAL166  LYS551  ARG553  GLY616  TRP617  ASP618  TYR619  PRO620  LYS621  CYS622 
 ASP623  PHE694  ASN695  SER759  ASP760  ASP761  ALA762  ILE779  LEU786  VAL792 
 PHE793  MET794  SER795  GLU796  ALA797  LYS798  CYS799  TRP800  GLU811  SER814 

> <Gold.Protein.RotatedAtoms>
  152.3747  134.6680  160.0163 H   0  0  0  0  0  0  0  0  0  0  0  0  # atno 6907 bound_to 6896
  151.6962  133.3305  159.3263 H   0  0  0  0  0  0  0  0  0  0  0  0  # atno 6908 bound_to 6896
  150.7701  134.6591  159.6374 H   0  0  0  0  0  0  0  0  0  0  0  0  # atno 6909 bound_to 6896
  145.4333  139.2308  143.3132 H   0  0  0  0  0  0  0  0  0  0  0  0  # atno 7974 bound_to 7965
  154.8149  140.2874  155.5827 H   0  0  0  0  0  0  0  0  0  0  0  0  # atno 8008 bound_to 7997
  156.2992  140.2561  156.2975 H   0  0  0  0  0  0  0  0  0  0  0  0  # atno 8009 bound_to 7997
  154.9405  140.0381  157.2083 H   0  0  0  0  0  0  0  0  0  0  0  0  # atno 8010 bound_to 7997
  139.5603  144.1887  152.1227 H   0  0  0  0  0  0  0  0  0  0  0  0  # atno 10167 bound_to 10162
  156.9182  130.5781  149.5647 H   0  0  0  0  0  0  0  0  0  0  0  0  # atno 10718 bound_to 10713
  153.0457  135.6499  154.0824 H   0  0  0  0  0  0  0  0  0  0  0  0  # atno 10763 bound_to 10752
  154.0523  135.2894  155.3340 H   0  0  0  0  0  0  0  0  0  0  0  0  # atno 10764 bound_to 10752
  154.6712  135.5355  153.8206 H   0  0  0  0  0  0  0  0  0  0  0  0  # atno 10765 bound_to 10752
  139.8772  134.9157  156.4813 H   0  0  0  0  0  0  0  0  0  0  0  0  # atno 11005 bound_to 11000
  146.2596  140.5072  142.8859 LP  0  0  0  0  0  0  0  0  0  0  0  0  # atno 17320 bound_to 7965
  144.8169  140.6483  143.6378 LP  0  0  0  0  0  0  0  0  0  0  0  0  # atno 17321 bound_to 7965
  140.1399  144.5211  150.6750 LP  0  0  0  0  0  0  0  0  0  0  0  0  # atno 17342 bound_to 10162
  140.6881  143.2361  151.5205 LP  0  0  0  0  0  0  0  0  0  0  0  0  # atno 17343 bound_to 10162
  156.0504  130.5574  150.8975 LP  0  0  0  0  0  0  0  0  0  0  0  0  # atno 17370 bound_to 10713
  157.5925  131.0944  150.9096 LP  0  0  0  0  0  0  0  0  0  0  0  0  # atno 17371 bound_to 10713
  140.8725  133.7978  155.9379 LP  0  0  0  0  0  0  0  0  0  0  0  0  # atno 17394 bound_to 11000
  140.8938  134.2462  157.5080 LP  0  0  0  0  0  0  0  0  0  0  0  0  # atno 17395 bound_to 11000

$$$$
