AV-unprocessed.smi:266|AV-procd|sdf|2031|dock10
  -GOLD-   2262021243D 1   1.00000     0.00000
 Structure written by MMmdl.
 52 55  0  0  0  0  0  0  0  0  1 V2000
  145.2764  134.5811  151.7153 C   0  0  0  0  0  0  0  0  0  0  0  0
  146.0942  133.2833  151.6260 C   0  0  2  0  0  0  0  0  0  0  0  0
  145.1900  132.2200  151.3382 O   0  0  0  0  0  0  0  0  0  0  0  0
  145.6965  131.0237  151.9032 C   0  0  0  0  0  0  0  0  0  0  0  0
  146.2325  131.4986  153.2447 C   0  0  0  0  0  0  0  0  0  0  0  0
  146.8635  132.8473  152.9057 C   0  0  1  0  0  0  0  0  0  0  0  0
  148.2122  132.6114  152.5356 O   0  0  0  0  0  0  0  0  0  0  0  0
  146.8634  133.8495  154.0905 C   0  0  0  0  0  0  0  0  0  0  0  0
  146.9717  133.2014  155.3889 N   0  0  0  0  0  0  0  0  0  0  0  0
  145.9539  132.6204  156.1092 C   0  0  0  0  0  0  0  0  0  0  0  0
  146.3055  132.1203  157.2613 N   0  0  0  0  0  0  0  0  0  0  0  0
  147.6705  132.3723  157.3467 C   0  0  0  0  0  0  0  0  0  0  0  0
  148.6752  132.1183  158.3274 C   0  0  0  0  0  0  0  0  0  0  0  0
  148.4290  131.5555  159.5423 N   0  0  0  0  0  0  0  0  0  0  0  0
  149.5629  131.0256  160.2958 C   0  0  0  0  0  0  0  0  0  0  0  0
  147.2821  132.0412  160.3121 C   0  0  0  0  0  0  0  0  0  0  0  0
  147.6290  133.1870  161.2879 C   0  0  2  0  0  0  0  0  0  0  0  0
  146.5216  133.3902  162.3405 C   0  0  0  0  0  0  0  0  0  0  0  0
  146.7916  134.6952  163.0948 C   0  0  0  0  0  0  0  0  0  0  0  0
  147.5082  135.8342  161.8550 S   0  0  0  0  0  0  0  0  0  0  0  0
  146.4563  136.7239  161.3405 O   0  0  0  0  0  0  0  0  0  0  0  0
  148.7725  136.3766  162.3751 O   0  0  0  0  0  0  0  0  0  0  0  0
  147.8608  134.5462  160.6005 C   0  0  0  0  0  0  0  0  0  0  0  0
  149.9468  132.4934  158.0206 N   0  0  0  0  0  0  0  0  0  0  0  0
  150.2188  133.0952  156.8599 C   0  0  0  0  0  0  0  0  0  0  0  0
  149.3825  133.4169  155.8730 N   0  0  0  0  0  0  0  0  0  0  0  0
  148.1073  133.0310  156.1612 C   0  0  0  0  0  0  0  0  0  0  0  0
  145.9131  135.4395  151.9298 H   0  0  0  0  0  0  0  0  0  0  0  0
  144.5109  134.5202  152.4891 H   0  0  0  0  0  0  0  0  0  0  0  0
  144.7683  134.7802  150.7714 H   0  0  0  0  0  0  0  0  0  0  0  0
  146.7796  133.3680  150.7805 H   0  0  0  0  0  0  0  0  0  0  0  0
  144.9211  130.2639  152.0020 H   0  0  0  0  0  0  0  0  0  0  0  0
  146.4963  130.6260  151.2765 H   0  0  0  0  0  0  0  0  0  0  0  0
  145.3911  131.6381  153.9243 H   0  0  0  0  0  0  0  0  0  0  0  0
  146.9212  130.7910  153.7093 H   0  0  0  0  0  0  0  0  0  0  0  0
  148.2275  131.9410  151.8698 H   0  0  0  0  0  0  0  0  0  0  0  0
  147.6853  134.5602  153.9928 H   0  0  0  0  0  0  0  0  0  0  0  0
  145.9458  134.4377  154.0932 H   0  0  0  0  0  0  0  0  0  0  0  0
  144.9335  132.5880  155.7558 H   0  0  0  0  0  0  0  0  0  0  0  0
  150.1714  130.3689  159.6729 H   0  0  0  0  0  0  0  0  0  0  0  0
  149.2181  130.4433  161.1505 H   0  0  0  0  0  0  0  0  0  0  0  0
  150.1939  131.8329  160.6692 H   0  0  0  0  0  0  0  0  0  0  0  0
  146.4558  132.3326  159.6681 H   0  0  0  0  0  0  0  0  0  0  0  0
  146.9017  131.1966  160.8875 H   0  0  0  0  0  0  0  0  0  0  0  0
  148.5377  132.9281  161.8330 H   0  0  0  0  0  0  0  0  0  0  0  0
  145.5577  133.4690  161.8355 H   0  0  0  0  0  0  0  0  0  0  0  0
  146.4546  132.5439  163.0247 H   0  0  0  0  0  0  0  0  0  0  0  0
  145.8948  135.1305  163.5362 H   0  0  0  0  0  0  0  0  0  0  0  0
  147.5313  134.5420  163.8806 H   0  0  0  0  0  0  0  0  0  0  0  0
  148.8767  134.6653  160.2239 H   0  0  0  0  0  0  0  0  0  0  0  0
  147.1655  134.6939  159.7739 H   0  0  0  0  0  0  0  0  0  0  0  0
  151.2530  133.3637  156.7032 H   0  0  0  0  0  0  0  0  0  0  0  0
  1  2  1  0  0  0  0
  1 28  1  0  0  0  0
  1 29  1  0  0  0  0
  1 30  1  0  0  0  0
  2  6  1  0  0  0  0
  2  3  1  0  0  0  0
  2 31  1  0  0  0  0
  3  4  1  0  0  0  0
  4  5  1  0  0  0  0
  4 32  1  0  0  0  0
  4 33  1  0  0  0  0
  5  6  1  0  0  0  0
  5 34  1  0  0  0  0
  5 35  1  0  0  0  0
  6  7  1  0  0  0  0
  6  8  1  0  0  0  0
  7 36  1  0  0  0  0
  8  9  1  0  0  0  0
  8 37  1  0  0  0  0
  8 38  1  0  0  0  0
  9 27  1  0  0  0  0
  9 10  1  0  0  0  0
 10 11  2  0  0  0  0
 10 39  1  0  0  0  0
 11 12  1  0  0  0  0
 12 27  2  0  0  0  0
 12 13  1  0  0  0  0
 13 14  1  0  0  0  0
 13 24  2  0  0  0  0
 14 15  1  0  0  0  0
 14 16  1  0  0  0  0
 15 40  1  0  0  0  0
 15 41  1  0  0  0  0
 15 42  1  0  0  0  0
 16 17  1  0  0  0  0
 16 43  1  0  0  0  0
 16 44  1  0  0  0  0
 17 23  1  0  0  0  0
 17 18  1  0  0  0  0
 17 45  1  0  0  0  0
 18 19  1  0  0  0  0
 18 46  1  0  0  0  0
 18 47  1  0  0  0  0
 19 20  1  0  0  0  0
 19 48  1  0  0  0  0
 19 49  1  0  0  0  0
 20 21  2  0  0  0  0
 20 22  2  0  0  0  0
 20 23  1  0  0  0  0
 23 50  1  0  0  0  0
 23 51  1  0  0  0  0
 24 25  1  0  0  0  0
 25 26  2  0  0  0  0
 25 52  1  0  0  0  0
 26 27  1  0  0  0  0
M  END
> <s_m_source_file>
AV-unprocessed.smi

> <i_m_source_file_index>
266

> <i_lp_mmshare_version>
43012

> <i_f3d_flags>
0

> <s_epik_input>
W0NIMl0xW0NIMl1PW0NAQEhdKFtDSDNdKVtDQEBdMShbT0hdKVtDSDJdbihbY0hdbjIpYyhjMjMpbltjSF1uYzNOKFtDSDNdKVtDSDJdW0NAQEhdKFtDSDJdNClbQ0gyXVtDSDJdUzQoPU8pPU8=

> <s_epik_cmdline>
J2VwaWtfcHl0aG9uJywgJy1waCcsICc3LjAnLCAnLXRuJywgJzgnLCAnLW1hJywgJzIwMCcsICctbWV0YWxfYmluZGluZycsICctaW1hZScsICc8aW5maWxlLm1hZT4nLCAnLW9tYWUnLCAnPG91dGZpbGUubWFlPic=

> <r_lp_tautomer_probability>
1

> <r_epik_Ionization_Penalty>
0.00155497

> <r_epik_Ionization_Penalty_Charging>
0

> <r_epik_Ionization_Penalty_Neutral>
0.00155497

> <r_epik_State_Penalty>
-0

> <r_epik_Charging_Adjusted_Penalty>
0

> <i_epik_Tot_Q>
0

> <i_epik_Tot_abs_Q>
0

> <r_epik_Metal_State_Penalty>
-0

> <b_epik_Metal_Only>
0

> <s_lp_Force_Field>
OPLS_2005

> <r_lp_Energy>
29.5809

> <b_lp_Chiralities_Consistent>
1

> <s_lp_Variant>
AV-unprocessed.smi:266-1

> <Gold.Version>
5.8.1

> <Gold.Id.Protein>
6NUR|6NUR_protein|mol2

> <Gold.PLP.Fitness>
45.4126

> <Gold.PLP.PLP>
-32.9526

> <Gold.PLP.part.hbond>
-3.9960

> <Gold.PLP.part.metal>
0.0000

> <Gold.PLP.part.buried>
-5.7166

> <Gold.PLP.part.nonpolar>
-24.1184

> <Gold.PLP.part.repulsive>
0.1730

> <Gold.PLP.ligand.clash>
0.0000

> <Gold.PLP.ligand.torsion>
1.5719

> <Gold.PLP.Chemscore.Hbond>
4.0000

> <Gold.PLP.Chemscore.CHOScore>
0.9992

> <Gold.PLP.Chemscore.Metal>
0.0000

> <Gold.Chemscore.Hbonds>
donor molecule, donor type, donor heavy atom, donor atom, acceptor molecule, acceptor atom, score
      L1  H     7    36       P1 10747  0.93
      P1  H  6896  6909       L1    24  1.00
      P1  H  6931  6943       L1    22  1.00
      L1  C    10    39       P1 10957  0.90

> <Gold.PLP.Chemscore.Internal.Correction>
0.6063

> <Gold.Rescore>
     Score         DG    S(hbond)    S(metal)    S(lipo)     H(rot)  DE(clash)    DE(int)     intcor
     17.13     -18.90       3.40        0.00      71.20       2.45       0.21       1.56       ----

> <Gold.Chemscore.Fitness>
17.1275

> <Gold.Chemscore.DG>
-18.9001

> <Gold.Chemscore.ZeroCoef>
-5.4800

> <Gold.Chemscore.Hbond>
3.3996

> <Gold.Chemscore.Metal>
0.0000

> <Gold.Chemscore.Lipo>
71.1967

> <Gold.Chemscore.Internal_Hbond>
0.0000

> <Gold.Chemscore.DEClash>
0.2141

> <Gold.Chemscore.DEInternal>
1.5585

> <Gold.Chemscore.Rot>
2.4471

> <Gold.Chemscore.Internal.Correction>
   9.000000E+99

> <Gold.Chemscore.Hbonds>
donor molecule, donor type, donor heavy atom, donor atom, acceptor molecule, acceptor atom, score
      L1  H     7    36       P1 10747  0.87
      P1  H  6896  6909       L1    24  0.30
      P1  H  6931  6943       L1    22  0.87
      P1  H  6934  6947       L1    21  0.05

> <Gold.Chemscore.Hbond.Weighted>
-11.3547

> <Gold.Chemscore.Metal.Weighted>
-0.0000

> <Gold.Chemscore.Lipo.Weighted>
-8.3300

> <Gold.Chemscore.Internal_Hbond.Weighted>
0.0000

> <Gold.Chemscore.DEClash.Weighted>
0.2141

> <Gold.Chemscore.DEInternal.Weighted>
1.5585

> <Gold.Chemscore.Rot.Weighted>
6.2645

> <Gold.Chemscore.Internal.Correction.Weighted>
   9.000000E+99

> <Gold.Protein.RotatedTorsions>
[ 6907 6896 6895 6894 ] final  -28.68 input  -60.11 | X-H torsion
[ 7974 7965 7964 7962 ] final -131.68 input  175.53 | X-H torsion
[ 8008 7997 7996 7995 ] final  142.53 input   59.86 | X-H torsion
[ 10167 10162 10161 10158 ] final -173.47 input  -65.29 | X-H torsion
[ 10718 10713 10712 10709 ] final  -47.84 input   66.30 | X-H torsion
[ 10763 10752 10751 10750 ] final -123.23 input  -60.55 | X-H torsion
[ 11005 11000 10999 10996 ] final   99.55 input  -57.11 | X-H torsion

> <Gold.Protein.ActiveResidues>
 VAL166  LYS551  ARG553  GLY616  TRP617  ASP618  TYR619  PRO620  LYS621  CYS622 
 ASP623  PHE694  ASN695  SER759  ASP760  ASP761  ALA762  ILE779  LEU786  VAL792 
 PHE793  MET794  SER795  GLU796  ALA797  LYS798  CYS799  TRP800  GLU811  SER814 

> <Gold.Protein.RotatedAtoms>
  151.1296  135.0123  159.8576 H   0  0  0  0  0  0  0  0  0  0  0  0  # atno 6907 bound_to 6896
  152.5450  134.1626  159.8574 H   0  0  0  0  0  0  0  0  0  0  0  0  # atno 6908 bound_to 6896
  151.1691  133.4750  159.2627 H   0  0  0  0  0  0  0  0  0  0  0  0  # atno 6909 bound_to 6896
  144.9356  140.7180  143.4878 H   0  0  0  0  0  0  0  0  0  0  0  0  # atno 7974 bound_to 7965
  156.2947  140.2286  156.4743 H   0  0  0  0  0  0  0  0  0  0  0  0  # atno 8008 bound_to 7997
  154.7908  140.0454  157.1220 H   0  0  0  0  0  0  0  0  0  0  0  0  # atno 8009 bound_to 7997
  154.9648  140.3059  155.5018 H   0  0  0  0  0  0  0  0  0  0  0  0  # atno 8010 bound_to 7997
  139.5687  144.1694  152.1351 H   0  0  0  0  0  0  0  0  0  0  0  0  # atno 10167 bound_to 10162
  156.2046  130.4158  149.9195 H   0  0  0  0  0  0  0  0  0  0  0  0  # atno 10718 bound_to 10713
  154.8704  135.4105  154.2910 H   0  0  0  0  0  0  0  0  0  0  0  0  # atno 10763 bound_to 10752
  153.3786  135.7010  153.6588 H   0  0  0  0  0  0  0  0  0  0  0  0  # atno 10764 bound_to 10752
  153.5420  135.3646  155.2694 H   0  0  0  0  0  0  0  0  0  0  0  0  # atno 10765 bound_to 10752
  139.8771  134.9101  156.4623 H   0  0  0  0  0  0  0  0  0  0  0  0  # atno 11005 bound_to 11000
  145.3072  139.1831  143.4658 LP  0  0  0  0  0  0  0  0  0  0  0  0  # atno 17320 bound_to 7965
  146.3265  140.3071  142.8624 LP  0  0  0  0  0  0  0  0  0  0  0  0  # atno 17321 bound_to 7965
  140.1223  144.5363  150.6855 LP  0  0  0  0  0  0  0  0  0  0  0  0  # atno 17342 bound_to 10162
  140.6971  143.2410  151.4971 LP  0  0  0  0  0  0  0  0  0  0  0  0  # atno 17343 bound_to 10162
  156.6894  130.8889  151.3586 LP  0  0  0  0  0  0  0  0  0  0  0  0  # atno 17370 bound_to 10713
  157.7005  130.9328  150.0771 LP  0  0  0  0  0  0  0  0  0  0  0  0  # atno 17371 bound_to 10713
  140.8855  133.7886  155.9513 LP  0  0  0  0  0  0  0  0  0  0  0  0  # atno 17394 bound_to 11000
  140.8809  134.2612  157.5144 LP  0  0  0  0  0  0  0  0  0  0  0  0  # atno 17395 bound_to 11000

$$$$
