AV-unprocessed.smi:3262|AV-procd|sdf|12484|dock8
  -GOLD-   2272018383D 1   1.00000     0.00000
 Structure written by MMmdl.
 39 40  0  0  0  0  0  0  0  0  1 V2000
  150.1390  143.2837  158.1880 O   0  0  0  0  0  0  0  0  0  0  0  0
  150.9015  142.3909  158.5631 C   0  0  0  0  0  0  0  0  0  0  0  0
  150.6337  141.0933  158.3411 N   0  0  0  0  0  0  0  0  0  0  0  0
  149.4396  140.5950  157.6722 C   0  0  0  0  0  0  0  0  0  0  0  0
  149.4836  140.9230  156.1734 C   0  0  0  0  0  0  0  0  0  0  0  0
  150.5058  140.0839  155.4302 C   0  0  0  0  0  0  0  0  0  0  0  0
  151.8822  140.2032  155.7179 C   0  0  0  0  0  0  0  0  0  0  0  0
  152.7892  139.3961  155.0042 C   0  0  0  0  0  0  0  0  0  0  0  0
  152.2876  138.5048  154.0362 C   0  0  0  0  0  0  0  0  0  0  0  0
  150.8951  138.4592  153.8249 C   0  0  0  0  0  0  0  0  0  0  0  0
  150.0169  139.2286  154.5037 N   0  0  0  0  0  0  0  0  0  0  0  0
  152.0905  142.6360  159.1768 N   0  0  0  0  0  0  0  0  0  0  0  0
  153.1344  141.6153  159.4144 C   0  0  0  0  0  0  0  0  0  0  0  0
  153.8671  141.7370  160.7680 C   0  0  0  0  0  0  0  0  0  0  0  0
  152.9554  142.0385  161.9721 C   0  0  0  0  0  0  0  0  0  0  0  0
  152.7067  143.5428  162.1775 C   0  0  0  0  0  0  0  0  0  0  0  0
  151.8571  144.2117  161.0849 C   0  0  0  0  0  0  0  0  0  0  0  0
  152.3954  143.9917  159.6593 C   0  0  0  0  0  0  0  0  0  0  0  0
  151.3066  140.4085  158.6533 H   0  0  0  0  0  0  0  0  0  0  0  0
  149.3639  139.5156  157.8146 H   0  0  0  0  0  0  0  0  0  0  0  0
  148.5581  141.0448  158.1318 H   0  0  0  0  0  0  0  0  0  0  0  0
  148.5016  140.7613  155.7262 H   0  0  0  0  0  0  0  0  0  0  0  0
  149.7153  141.9794  156.0296 H   0  0  0  0  0  0  0  0  0  0  0  0
  152.2361  140.8943  156.4688 H   0  0  0  0  0  0  0  0  0  0  0  0
  153.8501  139.4591  155.1960 H   0  0  0  0  0  0  0  0  0  0  0  0
  152.9536  137.8707  153.4699 H   0  0  0  0  0  0  0  0  0  0  0  0
  150.4755  137.7867  153.0914 H   0  0  0  0  0  0  0  0  0  0  0  0
  152.7132  140.6095  159.3978 H   0  0  0  0  0  0  0  0  0  0  0  0
  153.8565  141.6529  158.5980 H   0  0  0  0  0  0  0  0  0  0  0  0
  154.3871  140.7957  160.9494 H   0  0  0  0  0  0  0  0  0  0  0  0
  154.6563  142.4869  160.7058 H   0  0  0  0  0  0  0  0  0  0  0  0
  152.0129  141.4957  161.8898 H   0  0  0  0  0  0  0  0  0  0  0  0
  153.4421  141.6578  162.8706 H   0  0  0  0  0  0  0  0  0  0  0  0
  152.2131  143.6910  163.1384 H   0  0  0  0  0  0  0  0  0  0  0  0
  153.6649  144.0580  162.2553 H   0  0  0  0  0  0  0  0  0  0  0  0
  150.8248  143.8662  161.1549 H   0  0  0  0  0  0  0  0  0  0  0  0
  151.8239  145.2826  161.2867 H   0  0  0  0  0  0  0  0  0  0  0  0
  153.4673  144.1872  159.6175 H   0  0  0  0  0  0  0  0  0  0  0  0
  151.9575  144.7345  158.9901 H   0  0  0  0  0  0  0  0  0  0  0  0
  1  2  2  0  0  0  0
  2  3  1  0  0  0  0
  2 12  1  0  0  0  0
  3  4  1  0  0  0  0
  3 19  1  0  0  0  0
  4  5  1  0  0  0  0
  4 20  1  0  0  0  0
  4 21  1  0  0  0  0
  5  6  1  0  0  0  0
  5 22  1  0  0  0  0
  5 23  1  0  0  0  0
  6 11  1  0  0  0  0
  6  7  2  0  0  0  0
  7  8  1  0  0  0  0
  7 24  1  0  0  0  0
  8  9  2  0  0  0  0
  8 25  1  0  0  0  0
  9 10  1  0  0  0  0
  9 26  1  0  0  0  0
 10 11  2  0  0  0  0
 10 27  1  0  0  0  0
 12 18  1  0  0  0  0
 12 13  1  0  0  0  0
 13 14  1  0  0  0  0
 13 28  1  0  0  0  0
 13 29  1  0  0  0  0
 14 15  1  0  0  0  0
 14 30  1  0  0  0  0
 14 31  1  0  0  0  0
 15 16  1  0  0  0  0
 15 32  1  0  0  0  0
 15 33  1  0  0  0  0
 16 17  1  0  0  0  0
 16 34  1  0  0  0  0
 16 35  1  0  0  0  0
 17 18  1  0  0  0  0
 17 36  1  0  0  0  0
 17 37  1  0  0  0  0
 18 38  1  0  0  0  0
 18 39  1  0  0  0  0
M  END
> <s_m_source_file>
AV-unprocessed.smi

> <i_m_source_file_index>
3262

> <i_lp_mmshare_version>
43012

> <i_f3d_flags>
0

> <s_epik_input>
W0NIMl0xW0NIMl1bQ0gyXVtDSDJdW0NIMl1bQ0gyXU4xQyg9TylbTkhdW0NIMl1bQ0gyXWMyW2NIXVtjSF1bY0hdW2NIXW4y

> <s_epik_cmdline>
J2VwaWtfcHl0aG9uJywgJy1waCcsICc3LjAnLCAnLXRuJywgJzgnLCAnLW1hJywgJzIwMCcsICctbWV0YWxfYmluZGluZycsICctaW1hZScsICc8aW5maWxlLm1hZT4nLCAnLW9tYWUnLCAnPG91dGZpbGUubWFlPic=

> <r_epik_Ionization_Penalty>
0.0449498

> <r_epik_Ionization_Penalty_Charging>
0

> <r_epik_Ionization_Penalty_Neutral>
0.0449498

> <r_epik_State_Penalty>
0.0380669

> <r_epik_Charging_Adjusted_Penalty>
0.0380669

> <i_epik_Tot_Q>
0

> <i_epik_Tot_abs_Q>
0

> <r_epik_Metal_State_Penalty>
0.0353734

> <b_epik_Metal_Only>
0

> <s_lp_Force_Field>
OPLS_2005

> <r_lp_Energy>
31.2799

> <b_lp_Chiralities_Consistent>
1

> <s_lp_Variant>
AV-unprocessed.smi:3262-1

> <Gold.Version>
5.8.1

> <Gold.Id.Protein>
6NUR|6NUR_protein|mol2

> <Gold.PLP.Fitness>
46.3781

> <Gold.PLP.PLP>
-43.3187

> <Gold.PLP.part.hbond>
0.0000

> <Gold.PLP.part.metal>
0.0000

> <Gold.PLP.part.buried>
-5.5138

> <Gold.PLP.part.nonpolar>
-39.2823

> <Gold.PLP.part.repulsive>
1.1856

> <Gold.PLP.ligand.clash>
0.0000

> <Gold.PLP.ligand.torsion>
0.1593

> <Gold.PLP.Chemscore.Hbond>
0.0000

> <Gold.PLP.Chemscore.CHOScore>
1.1223

> <Gold.PLP.Chemscore.Metal>
0.0000

> <Gold.Chemscore.Hbonds>
donor molecule, donor type, donor heavy atom, donor atom, acceptor molecule, acceptor atom, score
      L1  C    10    27       P1  7948  0.61
      L1  C    10    27       P1  7949  0.47

> <Gold.PLP.Chemscore.Internal.Correction>
0.0111

> <Gold.Rescore>
     Score         DG    S(hbond)    S(metal)    S(lipo)     H(rot)  DE(clash)    DE(int)     intcor
     15.46     -15.81       0.00        0.00     116.18       1.27       0.04       0.31       ----

> <Gold.Chemscore.Fitness>
15.4564

> <Gold.Chemscore.DG>
-15.8121

> <Gold.Chemscore.ZeroCoef>
-5.4800

> <Gold.Chemscore.Hbond>
0.0000

> <Gold.Chemscore.Metal>
0.0000

> <Gold.Chemscore.Lipo>
116.1809

> <Gold.Chemscore.Internal_Hbond>
0.0000

> <Gold.Chemscore.DEClash>
0.0426

> <Gold.Chemscore.DEInternal>
0.3131

> <Gold.Chemscore.Rot>
1.2738

> <Gold.Chemscore.Internal.Correction>
   9.000000E+99

> <Gold.Chemscore.Hbond.Weighted>
-0.0000

> <Gold.Chemscore.Metal.Weighted>
-0.0000

> <Gold.Chemscore.Lipo.Weighted>
-13.5932

> <Gold.Chemscore.Internal_Hbond.Weighted>
0.0000

> <Gold.Chemscore.DEClash.Weighted>
0.0426

> <Gold.Chemscore.DEInternal.Weighted>
0.3131

> <Gold.Chemscore.Rot.Weighted>
3.2610

> <Gold.Chemscore.Internal.Correction.Weighted>
   9.000000E+99

> <Gold.Protein.RotatedTorsions>
[ 6907 6896 6895 6894 ] final    7.86 input  -60.11 | X-H torsion
[ 7974 7965 7964 7962 ] final    6.25 input  175.53 | X-H torsion
[ 8008 7997 7996 7995 ] final  -49.58 input   59.86 | X-H torsion
[ 10167 10162 10161 10158 ] final -176.76 input  -65.29 | X-H torsion
[ 10718 10713 10712 10709 ] final   20.04 input   66.30 | X-H torsion
[ 10763 10752 10751 10750 ] final    6.12 input  -60.55 | X-H torsion
[ 11005 11000 10999 10996 ] final  -78.16 input  -57.11 | X-H torsion

> <Gold.Protein.ActiveResidues>
 VAL166  LYS551  ARG553  GLY616  TRP617  ASP618  TYR619  PRO620  LYS621  CYS622 
 ASP623  PHE694  ASN695  SER759  ASP760  ASP761  ALA762  ILE779  LEU786  VAL792 
 PHE793  MET794  SER795  GLU796  ALA797  LYS798  CYS799  TRP800  GLU811  SER814 

> <Gold.Protein.RotatedAtoms>
  151.6966  135.0937  160.0243 H   0  0  0  0  0  0  0  0  0  0  0  0  # atno 6907 bound_to 6896
  152.3746  133.6460  159.6122 H   0  0  0  0  0  0  0  0  0  0  0  0  # atno 6908 bound_to 6896
  150.7699  133.9131  159.3417 H   0  0  0  0  0  0  0  0  0  0  0  0  # atno 6909 bound_to 6896
  146.2436  140.0262  142.8393 H   0  0  0  0  0  0  0  0  0  0  0  0  # atno 7974 bound_to 7965
  154.4046  140.1293  156.4525 H   0  0  0  0  0  0  0  0  0  0  0  0  # atno 8008 bound_to 7997
  155.7352  140.3490  155.5058 H   0  0  0  0  0  0  0  0  0  0  0  0  # atno 8009 bound_to 7997
  155.9090  140.1032  157.1283 H   0  0  0  0  0  0  0  0  0  0  0  0  # atno 8010 bound_to 7997
  139.5513  144.2101  152.1082 H   0  0  0  0  0  0  0  0  0  0  0  0  # atno 10167 bound_to 10162
  157.1189  130.6541  149.5918 H   0  0  0  0  0  0  0  0  0  0  0  0  # atno 10718 bound_to 10713
  153.2515  135.6914  153.7674 H   0  0  0  0  0  0  0  0  0  0  0  0  # atno 10763 bound_to 10752
  153.6767  135.3335  155.3168 H   0  0  0  0  0  0  0  0  0  0  0  0  # atno 10764 bound_to 10752
  154.8396  135.4513  154.1473 H   0  0  0  0  0  0  0  0  0  0  0  0  # atno 10765 bound_to 10752
  141.1663  133.7052  156.7930 H   0  0  0  0  0  0  0  0  0  0  0  0  # atno 11005 bound_to 11000
  145.1196  140.9455  143.4608 LP  0  0  0  0  0  0  0  0  0  0  0  0  # atno 17320 bound_to 7965
  145.0494  139.3194  143.5936 LP  0  0  0  0  0  0  0  0  0  0  0  0  # atno 17321 bound_to 7965
  140.1597  144.5037  150.6639 LP  0  0  0  0  0  0  0  0  0  0  0  0  # atno 17342 bound_to 10162
  140.6777  143.2312  151.5466 LP  0  0  0  0  0  0  0  0  0  0  0  0  # atno 17343 bound_to 10162
  155.9833  130.4851  150.6926 LP  0  0  0  0  0  0  0  0  0  0  0  0  # atno 17370 bound_to 10713
  157.4494  131.0870  151.0862 LP  0  0  0  0  0  0  0  0  0  0  0  0  # atno 17371 bound_to 10713
  140.2311  134.8685  157.3478 LP  0  0  0  0  0  0  0  0  0  0  0  0  # atno 17394 bound_to 11000
  140.1890  134.4395  155.7727 LP  0  0  0  0  0  0  0  0  0  0  0  0  # atno 17395 bound_to 11000

$$$$
