AV-unprocessed.smi:767|AV-procd|sdf|3660|dock5
  -GOLD-   22720 1 73D 1   1.00000     0.00000
 Structure written by MMmdl.
 47 49  0  0  0  0  0  0  0  0  1 V2000
  152.7963  143.6602  162.8334 C   0  0  0  0  0  0  0  0  0  0  0  0
  152.3627  143.3306  161.4204 C   0  0  0  0  0  0  0  0  0  0  0  0
  152.6836  142.0860  160.8389 C   0  0  0  0  0  0  0  0  0  0  0  0
  152.2589  141.8326  159.5206 C   0  0  0  0  0  0  0  0  0  0  0  0
  151.5349  142.8302  158.8355 C   0  0  0  0  0  0  0  0  0  0  0  0
  151.0834  142.6235  157.4001 C   0  0  0  0  0  0  0  0  0  0  0  0
  149.5652  142.4009  157.2571 C   0  0  0  0  0  0  0  0  0  0  0  0
  148.8097  143.6460  157.3731 N   0  0  0  0  0  0  0  0  0  0  0  0
  147.5950  143.7676  157.9279 C   0  0  0  0  0  0  0  0  0  0  0  0
  146.9450  142.8277  158.3858 O   0  0  0  0  0  0  0  0  0  0  0  0
  147.1778  145.0400  157.9386 N   0  0  0  0  0  0  0  0  0  0  0  0
  145.9192  145.4831  158.5288 C   0  0  1  0  0  0  0  0  0  0  0  0
  146.1109  146.6259  159.5376 C   0  0  2  0  0  0  0  0  0  0  0  0
  145.8076  146.3979  160.9933 C   0  0  0  0  0  0  0  0  0  0  0  0
  144.3658  146.8973  161.1240 C   0  0  0  0  0  0  0  0  0  0  0  0
  143.8434  146.8495  159.7981 O   0  0  0  0  0  0  0  0  0  0  0  0
  144.8802  147.2649  158.9121 C   0  0  2  0  0  0  0  0  0  0  0  0
  145.0752  146.4243  157.6323 C   0  0  0  0  0  0  0  0  0  0  0  0
  145.7996  147.1630  156.4976 C   0  0  0  0  0  0  0  0  0  0  0  0
  143.8073  145.8207  157.0262 C   0  0  0  0  0  0  0  0  0  0  0  0
  151.2620  144.0388  159.5103 C   0  0  0  0  0  0  0  0  0  0  0  0
  151.6621  144.2892  160.7755 N   0  0  0  0  0  0  0  0  0  0  0  0
  153.5791  142.9810  163.1721 H   0  0  0  0  0  0  0  0  0  0  0  0
  151.9507  143.5759  163.5162 H   0  0  0  0  0  0  0  0  0  0  0  0
  153.1853  144.6776  162.8899 H   0  0  0  0  0  0  0  0  0  0  0  0
  153.2445  141.3432  161.3865 H   0  0  0  0  0  0  0  0  0  0  0  0
  152.4966  140.8939  159.0425 H   0  0  0  0  0  0  0  0  0  0  0  0
  151.3853  143.4858  156.8041 H   0  0  0  0  0  0  0  0  0  0  0  0
  151.6184  141.7678  156.9867 H   0  0  0  0  0  0  0  0  0  0  0  0
  149.3515  141.9654  156.2809 H   0  0  0  0  0  0  0  0  0  0  0  0
  149.2211  141.6732  157.9942 H   0  0  0  0  0  0  0  0  0  0  0  0
  149.2582  144.4817  157.0278 H   0  0  0  0  0  0  0  0  0  0  0  0
  147.7764  145.7489  157.5412 H   0  0  0  0  0  0  0  0  0  0  0  0
  145.3234  144.6697  158.9500 H   0  0  0  0  0  0  0  0  0  0  0  0
  147.0106  147.2133  159.3443 H   0  0  0  0  0  0  0  0  0  0  0  0
  145.8770  145.3390  161.2443 H   0  0  0  0  0  0  0  0  0  0  0  0
  146.4822  146.9443  161.6530 H   0  0  0  0  0  0  0  0  0  0  0  0
  143.7724  146.2932  161.8106 H   0  0  0  0  0  0  0  0  0  0  0  0
  144.3484  147.9305  161.4739 H   0  0  0  0  0  0  0  0  0  0  0  0
  144.9498  148.3475  158.7951 H   0  0  0  0  0  0  0  0  0  0  0  0
  145.1785  147.9554  156.0793 H   0  0  0  0  0  0  0  0  0  0  0  0
  146.0623  146.4899  155.6807 H   0  0  0  0  0  0  0  0  0  0  0  0
  146.7222  147.6305  156.8426 H   0  0  0  0  0  0  0  0  0  0  0  0
  143.1404  146.5932  156.6428 H   0  0  0  0  0  0  0  0  0  0  0  0
  143.2450  145.2442  157.7608 H   0  0  0  0  0  0  0  0  0  0  0  0
  144.0409  145.1449  156.2029 H   0  0  0  0  0  0  0  0  0  0  0  0
  150.7161  144.8306  159.0188 H   0  0  0  0  0  0  0  0  0  0  0  0
  1  2  1  0  0  0  0
  1 23  1  0  0  0  0
  1 24  1  0  0  0  0
  1 25  1  0  0  0  0
  2 22  1  0  0  0  0
  2  3  2  0  0  0  0
  3  4  1  0  0  0  0
  3 26  1  0  0  0  0
  4  5  2  0  0  0  0
  4 27  1  0  0  0  0
  5  6  1  0  0  0  0
  5 21  1  0  0  0  0
  6  7  1  0  0  0  0
  6 28  1  0  0  0  0
  6 29  1  0  0  0  0
  7  8  1  0  0  0  0
  7 30  1  0  0  0  0
  7 31  1  0  0  0  0
  8  9  1  0  0  0  0
  8 32  1  0  0  0  0
  9 10  2  0  0  0  0
  9 11  1  0  0  0  0
 11 12  1  0  0  0  0
 11 33  1  0  0  0  0
 12 18  1  0  0  0  0
 12 13  1  0  0  0  0
 12 34  1  0  0  0  0
 13 17  1  0  0  0  0
 13 14  1  0  0  0  0
 13 35  1  0  0  0  0
 14 15  1  0  0  0  0
 14 36  1  0  0  0  0
 14 37  1  0  0  0  0
 15 16  1  0  0  0  0
 15 38  1  0  0  0  0
 15 39  1  0  0  0  0
 16 17  1  0  0  0  0
 17 18  1  0  0  0  0
 17 40  1  0  0  0  0
 18 19  1  0  0  0  0
 18 20  1  0  0  0  0
 19 41  1  0  0  0  0
 19 42  1  0  0  0  0
 19 43  1  0  0  0  0
 20 44  1  0  0  0  0
 20 45  1  0  0  0  0
 20 46  1  0  0  0  0
 21 22  2  0  0  0  0
 21 47  1  0  0  0  0
M  END
> <s_m_source_file>
AV-unprocessed.smi

> <i_m_source_file_index>
767

> <i_lp_mmshare_version>
43012

> <i_f3d_flags>
0

> <s_epik_input>
W0NIM11jMVtjSF1bY0hdYyhbY0hdbjEpW0NIMl1bQ0gyXVtOSF1DKD1PKVtOSF1bQ0BIXTJDKFtDSDNdKShbQ0gzXSlbQ0BIXShbQ0BASF0yMylPW0NIMl1bQ0gyXTM=

> <s_epik_cmdline>
J2VwaWtfcHl0aG9uJywgJy1waCcsICc3LjAnLCAnLXRuJywgJzgnLCAnLW1hJywgJzIwMCcsICctbWV0YWxfYmluZGluZycsICctaW1hZScsICc8aW5maWxlLm1hZT4nLCAnLW9tYWUnLCAnPG91dGZpbGUubWFlPic=

> <r_epik_Ionization_Penalty>
0.0567523

> <r_epik_Ionization_Penalty_Charging>
0

> <r_epik_Ionization_Penalty_Neutral>
0.0567523

> <r_epik_State_Penalty>
0.0489186

> <r_epik_Charging_Adjusted_Penalty>
0.0489186

> <i_epik_Tot_Q>
0

> <i_epik_Tot_abs_Q>
0

> <r_epik_Metal_State_Penalty>
0.044622

> <b_epik_Metal_Only>
0

> <s_lp_Force_Field>
OPLS_2005

> <r_lp_Energy>
33.1778

> <b_lp_Chiralities_Consistent>
1

> <s_lp_Variant>
AV-unprocessed.smi:767-4

> <Gold.Version>
5.8.1

> <Gold.Id.Protein>
6NUR|6NUR_protein|mol2

> <Gold.PLP.Fitness>
45.5962

> <Gold.PLP.PLP>
-42.0212

> <Gold.PLP.part.hbond>
-3.8243

> <Gold.PLP.part.metal>
0.0000

> <Gold.PLP.part.buried>
-5.2991

> <Gold.PLP.part.nonpolar>
-33.1843

> <Gold.PLP.part.repulsive>
0.3481

> <Gold.PLP.ligand.clash>
0.0000

> <Gold.PLP.ligand.torsion>
0.4792

> <Gold.PLP.Chemscore.Hbond>
1.4472

> <Gold.PLP.Chemscore.CHOScore>
0.0000

> <Gold.PLP.Chemscore.Metal>
0.0000

> <Gold.Chemscore.Hbonds>
donor molecule, donor type, donor heavy atom, donor atom, acceptor molecule, acceptor atom, score
      L1  H     8    32       P1  8028  0.09

> <Gold.PLP.Chemscore.Internal.Correction>
0.1919

> <Gold.Rescore>
     Score         DG    S(hbond)    S(metal)    S(lipo)     H(rot)  DE(clash)    DE(int)     intcor
     18.37     -19.38       1.13        0.00     118.38       1.45       0.36       0.65       ----

> <Gold.Chemscore.Fitness>
18.3690

> <Gold.Chemscore.DG>
-19.3814

> <Gold.Chemscore.ZeroCoef>
-5.4800

> <Gold.Chemscore.Hbond>
1.1265

> <Gold.Chemscore.Metal>
0.0000

> <Gold.Chemscore.Lipo>
118.3768

> <Gold.Chemscore.Internal_Hbond>
0.0000

> <Gold.Chemscore.DEClash>
0.3577

> <Gold.Chemscore.DEInternal>
0.6548

> <Gold.Chemscore.Rot>
1.4497

> <Gold.Chemscore.Internal.Correction>
   9.000000E+99

> <Gold.Chemscore.Hbonds>
donor molecule, donor type, donor heavy atom, donor atom, acceptor molecule, acceptor atom, score
      L1  H     8    32       P1  8028  0.01

> <Gold.Chemscore.Hbond.Weighted>
-3.7626

> <Gold.Chemscore.Metal.Weighted>
-0.0000

> <Gold.Chemscore.Lipo.Weighted>
-13.8501

> <Gold.Chemscore.Internal_Hbond.Weighted>
0.0000

> <Gold.Chemscore.DEClash.Weighted>
0.3577

> <Gold.Chemscore.DEInternal.Weighted>
0.6548

> <Gold.Chemscore.Rot.Weighted>
3.7112

> <Gold.Chemscore.Internal.Correction.Weighted>
   9.000000E+99

> <Gold.Protein.RotatedTorsions>
[ 6907 6896 6895 6894 ] final   40.83 input  -60.11 | X-H torsion
[ 7974 7965 7964 7962 ] final  169.07 input  175.53 | X-H torsion
[ 8008 7997 7996 7995 ] final  138.91 input   59.86 | X-H torsion
[ 10167 10162 10161 10158 ] final  164.94 input  -65.29 | X-H torsion
[ 10718 10713 10712 10709 ] final  176.31 input   66.30 | X-H torsion
[ 10763 10752 10751 10750 ] final   31.12 input  -60.55 | X-H torsion
[ 11005 11000 10999 10996 ] final  -42.15 input  -57.11 | X-H torsion

> <Gold.Protein.ActiveResidues>
 VAL166  LYS551  ARG553  GLY616  TRP617  ASP618  TYR619  PRO620  LYS621  CYS622 
 ASP623  PHE694  ASN695  SER759  ASP760  ASP761  ALA762  ILE779  LEU786  VAL792 
 PHE793  MET794  SER795  GLU796  ALA797  LYS798  CYS799  TRP800  GLU811  SER814 

> <Gold.Protein.RotatedAtoms>
  152.1875  134.8701  160.0520 H   0  0  0  0  0  0  0  0  0  0  0  0  # atno 6907 bound_to 6896
  151.9602  133.3688  159.4040 H   0  0  0  0  0  0  0  0  0  0  0  0  # atno 6908 bound_to 6896
  150.6929  134.4172  159.5232 H   0  0  0  0  0  0  0  0  0  0  0  0  # atno 6909 bound_to 6896
  144.7367  139.9001  143.6409 H   0  0  0  0  0  0  0  0  0  0  0  0  # atno 7974 bound_to 7965
  156.2994  140.2381  156.4151 H   0  0  0  0  0  0  0  0  0  0  0  0  # atno 8008 bound_to 7997
  154.8406  140.0428  157.1559 H   0  0  0  0  0  0  0  0  0  0  0  0  # atno 8009 bound_to 7997
  154.9107  140.2990  155.5272 H   0  0  0  0  0  0  0  0  0  0  0  0  # atno 8010 bound_to 7997
  139.4897  144.4183  151.9217 H   0  0  0  0  0  0  0  0  0  0  0  0  # atno 10167 bound_to 10162
  156.9220  130.9943  151.3003 H   0  0  0  0  0  0  0  0  0  0  0  0  # atno 10718 bound_to 10713
  153.0333  135.6447  154.1149 H   0  0  0  0  0  0  0  0  0  0  0  0  # atno 10763 bound_to 10752
  154.0868  135.2869  155.3281 H   0  0  0  0  0  0  0  0  0  0  0  0  # atno 10764 bound_to 10752
  154.6492  135.5432  153.7945 H   0  0  0  0  0  0  0  0  0  0  0  0  # atno 10765 bound_to 10752
  141.0296  133.6826  156.2555 H   0  0  0  0  0  0  0  0  0  0  0  0  # atno 11005 bound_to 11000
  146.1078  139.4079  143.0306 LP  0  0  0  0  0  0  0  0  0  0  0  0  # atno 17320 bound_to 7965
  145.7487  140.9981  143.1262 LP  0  0  0  0  0  0  0  0  0  0  0  0  # atno 17321 bound_to 7965
  140.3627  144.2953  150.5931 LP  0  0  0  0  0  0  0  0  0  0  0  0  # atno 17342 bound_to 10162
  140.5389  143.2227  151.8117 LP  0  0  0  0  0  0  0  0  0  0  0  0  # atno 17343 bound_to 10162
  157.5902  130.8438  149.8647 LP  0  0  0  0  0  0  0  0  0  0  0  0  # atno 17370 bound_to 10713
  156.0487  130.3722  150.1255 LP  0  0  0  0  0  0  0  0  0  0  0  0  # atno 17371 bound_to 10713
  140.6431  134.5145  157.5571 LP  0  0  0  0  0  0  0  0  0  0  0  0  # atno 17394 bound_to 11000
  139.9199  134.8171  156.1246 LP  0  0  0  0  0  0  0  0  0  0  0  0  # atno 17395 bound_to 11000

$$$$
