AV-unprocessed.smi:2245|AV-procd|sdf|9078|dock6
  -GOLD-   2272012283D 1   1.00000     0.00000
 Structure written by MMmdl.
 45 46  0  0  0  0  0  0  0  0  2 V2000
  151.8911  145.8925  160.1137 C   0  0  0  0  0  0  0  0  0  0  0  0
  151.9024  144.5221  159.4696 C   0  0  0  0  0  0  0  0  0  0  0  0
  152.7068  143.4889  159.9871 C   0  0  0  0  0  0  0  0  0  0  0  0
  152.6712  142.2346  159.3469 C   0  0  0  0  0  0  0  0  0  0  0  0
  153.5102  141.0785  159.8498 C   0  0  0  0  0  0  0  0  0  0  0  0
  151.9029  141.9809  158.2661 N   0  0  0  0  0  0  0  0  0  0  0  0
  151.1242  142.9686  157.7587 C   0  0  0  0  0  0  0  0  0  0  0  0
  150.2803  142.8038  156.6283 N   0  0  0  0  0  0  0  0  0  0  0  0
  150.1169  141.7074  155.8670 C   0  0  0  0  0  0  0  0  0  0  0  0
  150.7094  140.6385  156.0176 O   0  0  0  0  0  0  0  0  0  0  0  0
  149.2053  141.9147  154.9055 N   0  0  0  0  0  0  0  0  0  0  0  0
  148.7883  140.9250  153.9171 C   0  0  0  0  0  0  0  0  0  0  0  0
  147.2724  140.6471  153.9681 C   0  0  2  0  0  0  0  0  0  0  0  0
  146.6330  140.9240  155.3276 C   0  0  0  0  0  0  0  0  0  0  0  0
  145.3647  140.0595  155.3415 C   0  0  0  0  0  0  0  0  0  0  0  0
  145.4998  139.0793  154.2368 N   0  3  2  0  0  0  0  0  0  0  0  0
  145.0837  137.6926  154.5571 C   0  0  0  0  0  0  0  0  0  0  0  0
  144.5037  136.9532  153.3387 C   0  0  0  0  0  0  0  0  0  0  0  0
  143.3248  137.4889  153.0260 F   0  0  0  0  0  0  0  0  0  0  0  0
  145.3092  137.0568  152.2821 F   0  0  0  0  0  0  0  0  0  0  0  0
  144.3245  135.6648  153.6298 F   0  0  0  0  0  0  0  0  0  0  0  0
  146.8764  139.1925  153.7160 C   0  0  0  0  0  0  0  0  0  0  0  0
  151.1011  144.2559  158.3408 C   0  0  0  0  0  0  0  0  0  0  0  0
  152.7625  146.0330  160.7541 H   0  0  0  0  0  0  0  0  0  0  0  0
  150.9946  146.0145  160.7219 H   0  0  0  0  0  0  0  0  0  0  0  0
  151.9002  146.6732  159.3527 H   0  0  0  0  0  0  0  0  0  0  0  0
  153.3334  143.6532  160.8518 H   0  0  0  0  0  0  0  0  0  0  0  0
  154.1257  141.3757  160.6992 H   0  0  0  0  0  0  0  0  0  0  0  0
  154.1708  140.7174  159.0609 H   0  0  0  0  0  0  0  0  0  0  0  0
  152.8692  140.2548  160.1655 H   0  0  0  0  0  0  0  0  0  0  0  0
  149.7298  143.6117  156.3785 H   0  0  0  0  0  0  0  0  0  0  0  0
  148.7736  142.8256  154.8484 H   0  0  0  0  0  0  0  0  0  0  0  0
  149.0688  141.2981  152.9316 H   0  0  0  0  0  0  0  0  0  0  0  0
  149.3472  139.9996  154.0665 H   0  0  0  0  0  0  0  0  0  0  0  0
  146.7663  141.2703  153.2288 H   0  0  0  0  0  0  0  0  0  0  0  0
  147.3000  140.6008  156.1282 H   0  0  0  0  0  0  0  0  0  0  0  0
  146.4201  141.9823  155.4816 H   0  0  0  0  0  0  0  0  0  0  0  0
  145.2493  139.5749  156.3119 H   0  0  0  0  0  0  0  0  0  0  0  0
  144.4748  140.6645  155.1655 H   0  0  0  0  0  0  0  0  0  0  0  0
  145.9618  137.1448  154.9025 H   0  0  0  0  0  0  0  0  0  0  0  0
  144.3746  137.6940  155.3864 H   0  0  0  0  0  0  0  0  0  0  0  0
  146.9264  138.9202  152.6611 H   0  0  0  0  0  0  0  0  0  0  0  0
  147.5371  138.5239  154.2711 H   0  0  0  0  0  0  0  0  0  0  0  0
  150.4751  145.0341  157.9281 H   0  0  0  0  0  0  0  0  0  0  0  0
  144.8982  139.4059  153.4937 H   0  0  0  0  0  0  0  0  0  0  0  0
  1  2  1  0  0  0  0
  1 24  1  0  0  0  0
  1 25  1  0  0  0  0
  1 26  1  0  0  0  0
  2 23  1  0  0  0  0
  2  3  2  0  0  0  0
  3  4  1  0  0  0  0
  3 27  1  0  0  0  0
  4  5  1  0  0  0  0
  4  6  2  0  0  0  0
  5 28  1  0  0  0  0
  5 29  1  0  0  0  0
  5 30  1  0  0  0  0
  6  7  1  0  0  0  0
  7  8  1  0  0  0  0
  7 23  2  0  0  0  0
  8  9  1  0  0  0  0
  8 31  1  0  0  0  0
  9 10  2  0  0  0  0
  9 11  1  0  0  0  0
 11 12  1  0  0  0  0
 11 32  1  0  0  0  0
 12 13  1  0  0  0  0
 12 33  1  0  0  0  0
 12 34  1  0  0  0  0
 13 22  1  0  0  0  0
 13 14  1  0  0  0  0
 13 35  1  0  0  0  0
 14 15  1  0  0  0  0
 14 36  1  0  0  0  0
 14 37  1  0  0  0  0
 15 16  1  0  0  0  0
 15 38  1  0  0  0  0
 15 39  1  0  0  0  0
 16 17  1  0  0  0  0
 16 22  1  0  0  0  0
 16 45  1  0  0  0  0
 17 18  1  0  0  0  0
 17 40  1  0  0  0  0
 17 41  1  0  0  0  0
 18 19  1  0  0  0  0
 18 20  1  0  0  0  0
 18 21  1  0  0  0  0
 22 42  1  0  0  0  0
 22 43  1  0  0  0  0
 23 44  1  0  0  0  0
M  CHG  1  16   1
M  END
> <s_m_source_file>
AV-unprocessed.smi

> <i_m_source_file_index>
2245

> <i_lp_mmshare_version>
43012

> <i_f3d_flags>
0

> <s_epik_input>
W0NIM11jMVtjSF1jKFtDSDNdKW5jKFtjSF0xKVtOSF1DKD1PKVtOSF1bQ0gyXVtDQEBIXTJbQ0gyXVtDSDJdTihbQ0gyXTIpW0NIMl1DKEYpKEYpRg==

> <s_epik_cmdline>
J2VwaWtfcHl0aG9uJywgJy1waCcsICc3LjAnLCAnLXRuJywgJzgnLCAnLW1hJywgJzIwMCcsICctbWV0YWxfYmluZGluZycsICctaW1hZScsICc8aW5maWxlLm1hZT4nLCAnLW9tYWUnLCAnPG91dGZpbGUubWFlPic=

> <r_epik_Ionization_Penalty>
0.628315

> <r_epik_Ionization_Penalty_Charging>
0.628113

> <r_epik_Ionization_Penalty_Neutral>
0.000202271

> <r_epik_State_Penalty>
0.644725

> <r_epik_Charging_Adjusted_Penalty>
1.27284

> <i_epik_Tot_Q>
1

> <i_epik_Tot_abs_Q>
1

> <r_epik_Metal_State_Penalty>
0.644752

> <b_epik_Metal_Only>
0

> <s_lp_Force_Field>
OPLS_2005

> <r_lp_Energy>
28.9213

> <b_lp_Chiralities_Consistent>
1

> <s_lp_Variant>
AV-unprocessed.smi:2245-3

> <Gold.Version>
5.8.1

> <Gold.Id.Protein>
6NUR|6NUR_protein|mol2

> <Gold.PLP.Fitness>
53.2966

> <Gold.PLP.PLP>
-43.0667

> <Gold.PLP.part.hbond>
-3.0000

> <Gold.PLP.part.metal>
0.0000

> <Gold.PLP.part.buried>
-2.9396

> <Gold.PLP.part.nonpolar>
-37.2962

> <Gold.PLP.part.repulsive>
0.2983

> <Gold.PLP.ligand.clash>
0.0000

> <Gold.PLP.ligand.torsion>
0.9156

> <Gold.PLP.Chemscore.Hbond>
3.8564

> <Gold.PLP.Chemscore.CHOScore>
0.0000

> <Gold.PLP.Chemscore.Metal>
0.0000

> <Gold.Chemscore.Hbonds>
donor molecule, donor type, donor heavy atom, donor atom, acceptor molecule, acceptor atom, score
      L1  H     8    31       P1  8028  1.00
      L1  H    11    32       P1  8028  0.81
      L1  H    16    45       P1 10175  2.00

> <Gold.PLP.Chemscore.Internal.Correction>
0.4919

> <Gold.Rescore>
     Score         DG    S(hbond)    S(metal)    S(lipo)     H(rot)  DE(clash)    DE(int)     intcor
     19.14     -22.04       2.87        0.00      94.88       1.61       0.41       2.49       ----

> <Gold.Chemscore.Fitness>
19.1440

> <Gold.Chemscore.DG>
-22.0417

> <Gold.Chemscore.ZeroCoef>
-5.4800

> <Gold.Chemscore.Hbond>
2.8724

> <Gold.Chemscore.Metal>
0.0000

> <Gold.Chemscore.Lipo>
94.8757

> <Gold.Chemscore.Internal_Hbond>
0.0000

> <Gold.Chemscore.DEClash>
0.4075

> <Gold.Chemscore.DEInternal>
2.4903

> <Gold.Chemscore.Rot>
1.6143

> <Gold.Chemscore.Internal.Correction>
   9.000000E+99

> <Gold.Chemscore.Hbonds>
donor molecule, donor type, donor heavy atom, donor atom, acceptor molecule, acceptor atom, score
      L1  H     8    31       P1  8028  0.96
      L1  H    11    32       P1  8028  0.77
      L1  H    16    45       P1 10175  1.00

> <Gold.Chemscore.Hbond.Weighted>
-9.5938

> <Gold.Chemscore.Metal.Weighted>
-0.0000

> <Gold.Chemscore.Lipo.Weighted>
-11.1005

> <Gold.Chemscore.Internal_Hbond.Weighted>
0.0000

> <Gold.Chemscore.DEClash.Weighted>
0.4075

> <Gold.Chemscore.DEInternal.Weighted>
2.4903

> <Gold.Chemscore.Rot.Weighted>
4.1325

> <Gold.Chemscore.Internal.Correction.Weighted>
   9.000000E+99

> <Gold.Protein.RotatedTorsions>
[ 6907 6896 6895 6894 ] final  -84.99 input  -60.11 | X-H torsion
[ 7974 7965 7964 7962 ] final   77.38 input  175.53 | X-H torsion
[ 8008 7997 7996 7995 ] final  -77.27 input   59.86 | X-H torsion
[ 10167 10162 10161 10158 ] final -143.34 input  -65.29 | X-H torsion
[ 10718 10713 10712 10709 ] final  -12.98 input   66.30 | X-H torsion
[ 10763 10752 10751 10750 ] final  151.82 input  -60.55 | X-H torsion
[ 11005 11000 10999 10996 ] final  -48.20 input  -57.11 | X-H torsion

> <Gold.Protein.ActiveResidues>
 VAL166  LYS551  ARG553  GLY616  TRP617  ASP618  TYR619  PRO620  LYS621  CYS622 
 ASP623  PHE694  ASN695  SER759  ASP760  ASP761  ALA762  ILE779  LEU786  VAL792 
 PHE793  MET794  SER795  GLU796  ALA797  LYS798  CYS799  TRP800  GLU811  SER814 

> <Gold.Protein.RotatedAtoms>
  150.6873  134.3274  159.4812 H   0  0  0  0  0  0  0  0  0  0  0  0  # atno 6907 bound_to 6896
  152.1142  134.9249  160.0575 H   0  0  0  0  0  0  0  0  0  0  0  0  # atno 6908 bound_to 6896
  152.0480  133.3972  159.4402 H   0  0  0  0  0  0  0  0  0  0  0  0  # atno 6909 bound_to 6896
  145.6908  139.2552  143.1761 H   0  0  0  0  0  0  0  0  0  0  0  0  # atno 7974 bound_to 7965
  154.5580  140.0713  156.8774 H   0  0  0  0  0  0  0  0  0  0  0  0  # atno 8008 bound_to 7997
  155.2865  140.3375  155.4237 H   0  0  0  0  0  0  0  0  0  0  0  0  # atno 8009 bound_to 7997
  156.2019  140.1725  156.7868 H   0  0  0  0  0  0  0  0  0  0  0  0  # atno 8010 bound_to 7997
  139.8002  143.7844  152.2657 H   0  0  0  0  0  0  0  0  0  0  0  0  # atno 10167 bound_to 10162
  156.6369  130.4917  149.6109 H   0  0  0  0  0  0  0  0  0  0  0  0  # atno 10718 bound_to 10713
  154.1099  135.2840  155.3233 H   0  0  0  0  0  0  0  0  0  0  0  0  # atno 10763 bound_to 10752
  154.6497  135.5373  153.7890 H   0  0  0  0  0  0  0  0  0  0  0  0  # atno 10764 bound_to 10752
  153.0349  135.6507  154.1259 H   0  0  0  0  0  0  0  0  0  0  0  0  # atno 10765 bound_to 10752
  141.0687  133.6686  156.3407 H   0  0  0  0  0  0  0  0  0  0  0  0  # atno 11005 bound_to 11000
  146.0883  140.7685  142.9607 LP  0  0  0  0  0  0  0  0  0  0  0  0  # atno 17320 bound_to 7965
  144.6997  140.3597  143.7166 LP  0  0  0  0  0  0  0  0  0  0  0  0  # atno 17321 bound_to 7965
  139.7961  144.7392  150.9888 LP  0  0  0  0  0  0  0  0  0  0  0  0  # atno 17342 bound_to 10162
  140.7820  143.4392  151.0577 LP  0  0  0  0  0  0  0  0  0  0  0  0  # atno 17343 bound_to 10162
  156.2190  130.6725  151.1349 LP  0  0  0  0  0  0  0  0  0  0  0  0  # atno 17370 bound_to 10713
  157.7183  131.0697  150.6239 LP  0  0  0  0  0  0  0  0  0  0  0  0  # atno 17371 bound_to 10713
  140.5720  134.5831  157.5460 LP  0  0  0  0  0  0  0  0  0  0  0  0  # atno 17394 bound_to 11000
  139.9501  134.7632  156.0468 LP  0  0  0  0  0  0  0  0  0  0  0  0  # atno 17395 bound_to 11000

$$$$
