AV-unprocessed.smi:3245|AV-procd|sdf|12406|dock5
  -GOLD-   2272018283D 1   1.00000     0.00000
 Structure written by MMmdl.
 35 36  0  0  0  0  0  0  0  0  3 V2000
  144.0693  135.0871  152.7661 C   0  0  0  0  0  0  0  0  0  0  0  0
  145.4159  135.5294  152.1779 C   0  0  2  0  0  0  0  0  0  0  0  0
  145.6051  134.9560  150.7562 C   0  0  0  0  0  0  0  0  0  0  0  0
  145.1624  133.5781  150.6373 N   0  0  0  0  0  0  0  0  0  0  0  0
  145.9279  132.4329  150.5724 C   0  0  0  0  0  0  0  0  0  0  0  0
  145.0683  131.3747  150.4950 C   0  0  0  0  0  0  0  0  0  0  0  0
  143.7812  131.9809  150.5156 C   0  0  0  0  0  0  0  0  0  0  0  0
  143.8409  133.3005  150.5975 N   0  0  0  0  0  0  0  0  0  0  0  0
  146.5107  135.1019  153.0787 N   0  3  0  0  0  0  0  0  0  0  0  0
  146.4507  135.6692  154.4407 C   0  0  0  0  0  0  0  0  0  0  0  0
  147.4649  134.9832  155.3655 C   0  0  0  0  0  0  0  0  0  0  0  0
  148.8012  135.5555  155.1872 N   0  0  0  0  0  0  0  0  0  0  0  0
  149.0881  136.8520  155.3375 C   0  0  0  0  0  0  0  0  0  0  0  0
  148.3172  137.7671  155.6284 O   0  0  0  0  0  0  0  0  0  0  0  0
  150.5715  137.0189  155.1049 C   0  0  0  0  0  0  0  0  0  0  0  0
  150.9963  135.6621  154.8417 N   0  5  0  0  0  0  0  0  0  0  0  0
  149.9145  134.8522  154.9081 C   0  0  0  0  0  0  0  0  0  0  0  0
  149.8968  133.6316  154.7535 O   0  0  0  0  0  0  0  0  0  0  0  0
  143.2398  135.4162  152.1393 H   0  0  0  0  0  0  0  0  0  0  0  0
  143.9166  135.5099  153.7597 H   0  0  0  0  0  0  0  0  0  0  0  0
  144.0097  134.0016  152.8529 H   0  0  0  0  0  0  0  0  0  0  0  0
  145.4027  136.6194  152.1234 H   0  0  0  0  0  0  0  0  0  0  0  0
  145.0714  135.5641  150.0236 H   0  0  0  0  0  0  0  0  0  0  0  0
  146.6588  134.9923  150.4769 H   0  0  0  0  0  0  0  0  0  0  0  0
  147.0074  132.4649  150.5937 H   0  0  0  0  0  0  0  0  0  0  0  0
  145.3199  130.3262  150.4355 H   0  0  0  0  0  0  0  0  0  0  0  0
  142.8123  131.5046  150.4762 H   0  0  0  0  0  0  0  0  0  0  0  0
  146.4828  134.0962  153.1665 H   0  0  0  0  0  0  0  0  0  0  0  0
  146.6549  136.7392  154.4099 H   0  0  0  0  0  0  0  0  0  0  0  0
  145.4383  135.5522  154.8293 H   0  0  0  0  0  0  0  0  0  0  0  0
  147.1508  135.0761  156.4065 H   0  0  0  0  0  0  0  0  0  0  0  0
  147.4917  133.9117  155.1583 H   0  0  0  0  0  0  0  0  0  0  0  0
  150.7422  137.6944  154.2659 H   0  0  0  0  0  0  0  0  0  0  0  0
  151.0397  137.4530  155.9888 H   0  0  0  0  0  0  0  0  0  0  0  0
  147.3893  135.3638  152.6543 H   0  0  0  0  0  0  0  0  0  0  0  0
  1  2  1  0  0  0  0
  1 19  1  0  0  0  0
  1 20  1  0  0  0  0
  1 21  1  0  0  0  0
  2  3  1  0  0  0  0
  2  9  1  0  0  0  0
  2 22  1  0  0  0  0
  3  4  1  0  0  0  0
  3 23  1  0  0  0  0
  3 24  1  0  0  0  0
  4  8  1  0  0  0  0
  4  5  1  0  0  0  0
  5  6  2  0  0  0  0
  5 25  1  0  0  0  0
  6  7  1  0  0  0  0
  6 26  1  0  0  0  0
  7  8  2  0  0  0  0
  7 27  1  0  0  0  0
  9 10  1  0  0  0  0
  9 28  1  0  0  0  0
  9 35  1  0  0  0  0
 10 11  1  0  0  0  0
 10 29  1  0  0  0  0
 10 30  1  0  0  0  0
 11 12  1  0  0  0  0
 11 31  1  0  0  0  0
 11 32  1  0  0  0  0
 12 17  1  0  0  0  0
 12 13  1  0  0  0  0
 13 14  2  0  0  0  0
 13 15  1  0  0  0  0
 15 16  1  0  0  0  0
 15 33  1  0  0  0  0
 15 34  1  0  0  0  0
 16 17  1  0  0  0  0
 17 18  2  0  0  0  0
M  CHG  1   9   1
M  CHG  1  16  -1
M  END
> <s_m_source_file>
AV-unprocessed.smi

> <i_m_source_file_index>
3245

> <i_lp_mmshare_version>
43012

> <i_f3d_flags>
0

> <s_epik_input>
bjFbY0hdW2NIXVtjSF1uMVtDSDJdW0NAQEhdKFtDSDNdKVtOSF1bQ0gyXVtDSDJdTjJDKD1PKVtDSDJdW05IXUMyPU8=

> <s_epik_cmdline>
J2VwaWtfcHl0aG9uJywgJy1waCcsICc3LjAnLCAnLXRuJywgJzgnLCAnLW1hJywgJzIwMCcsICctbWV0YWxfYmluZGluZycsICctaW1hZScsICc8aW5maWxlLm1hZT4nLCAnLW9tYWUnLCAnPG91dGZpbGUubWFlPic=

> <r_lp_tautomer_probability>
1

> <r_epik_Ionization_Penalty>
5.1873

> <r_epik_Ionization_Penalty_Charging>
5.18729

> <r_epik_Ionization_Penalty_Neutral>
3.83745e-06

> <r_epik_State_Penalty>
5.18822

> <r_epik_Charging_Adjusted_Penalty>
10.3755

> <i_epik_Tot_Q>
0

> <i_epik_Tot_abs_Q>
2

> <r_epik_Metal_State_Penalty>
1.25934

> <b_epik_Metal_Only>
1

> <s_lp_Force_Field>
OPLS_2005

> <r_lp_Energy>
10.3219

> <b_lp_Chiralities_Consistent>
1

> <s_lp_Variant>
AV-unprocessed.smi:3245-5

> <Gold.Version>
5.8.1

> <Gold.Id.Protein>
6NUR|6NUR_protein|mol2

> <Gold.PLP.Fitness>
41.6391

> <Gold.PLP.PLP>
-24.6399

> <Gold.PLP.part.hbond>
-2.0000

> <Gold.PLP.part.metal>
0.0000

> <Gold.PLP.part.buried>
-5.4624

> <Gold.PLP.part.nonpolar>
-18.5772

> <Gold.PLP.part.repulsive>
0.4967

> <Gold.PLP.ligand.clash>
0.0000

> <Gold.PLP.ligand.torsion>
0.5338

> <Gold.PLP.Chemscore.Hbond>
4.0000

> <Gold.PLP.Chemscore.CHOScore>
1.9996

> <Gold.PLP.Chemscore.Metal>
0.0000

> <Gold.Chemscore.Hbonds>
donor molecule, donor type, donor heavy atom, donor atom, acceptor molecule, acceptor atom, score
      L1  H     9    35       P1  7948  2.00
      P1  H 10752 10765       L1    16  2.00
      L1  C     5    25       P1 10747  0.94
      L1  C     7    27       P1 10952  1.00

> <Gold.PLP.Chemscore.Internal.Correction>
0.0680

> <Gold.Rescore>
     Score         DG    S(hbond)    S(metal)    S(lipo)     H(rot)  DE(clash)    DE(int)     intcor
      9.48     -11.47       1.99        0.00      52.64       2.66       0.05       1.94       ----

> <Gold.Chemscore.Fitness>
9.4780

> <Gold.Chemscore.DG>
-11.4717

> <Gold.Chemscore.ZeroCoef>
-5.4800

> <Gold.Chemscore.Hbond>
1.9887

> <Gold.Chemscore.Metal>
0.0000

> <Gold.Chemscore.Lipo>
52.6426

> <Gold.Chemscore.Internal_Hbond>
0.0000

> <Gold.Chemscore.DEClash>
0.0525

> <Gold.Chemscore.DEInternal>
1.9413

> <Gold.Chemscore.Rot>
2.6601

> <Gold.Chemscore.Internal.Correction>
   9.000000E+99

> <Gold.Chemscore.Hbonds>
donor molecule, donor type, donor heavy atom, donor atom, acceptor molecule, acceptor atom, score
      L1  H     9    35       P1  7948  0.99
      P1  H 10752 10765       L1    16  0.76

> <Gold.Chemscore.Hbond.Weighted>
-6.6423

> <Gold.Chemscore.Metal.Weighted>
-0.0000

> <Gold.Chemscore.Lipo.Weighted>
-6.1592

> <Gold.Chemscore.Internal_Hbond.Weighted>
0.0000

> <Gold.Chemscore.DEClash.Weighted>
0.0525

> <Gold.Chemscore.DEInternal.Weighted>
1.9413

> <Gold.Chemscore.Rot.Weighted>
6.8098

> <Gold.Chemscore.Internal.Correction.Weighted>
   9.000000E+99

> <Gold.Protein.RotatedTorsions>
[ 6907 6896 6895 6894 ] final  123.93 input  -60.11 | X-H torsion
[ 7974 7965 7964 7962 ] final   13.21 input  175.53 | X-H torsion
[ 8008 7997 7996 7995 ] final   63.37 input   59.86 | X-H torsion
[ 10167 10162 10161 10158 ] final  179.61 input  -65.29 | X-H torsion
[ 10718 10713 10712 10709 ] final  -37.95 input   66.30 | X-H torsion
[ 10763 10752 10751 10750 ] final -175.32 input  -60.55 | X-H torsion
[ 11005 11000 10999 10996 ] final  138.82 input  -57.11 | X-H torsion

> <Gold.Protein.ActiveResidues>
 VAL166  LYS551  ARG553  GLY616  TRP617  ASP618  TYR619  PRO620  LYS621  CYS622 
 ASP623  PHE694  ASN695  SER759  ASP760  ASP761  ALA762  ILE779  LEU786  VAL792 
 PHE793  MET794  SER795  GLU796  ALA797  LYS798  CYS799  TRP800  GLU811  SER814 

> <Gold.Protein.RotatedAtoms>
  152.4120  133.6979  159.6406 H   0  0  0  0  0  0  0  0  0  0  0  0  # atno 6907 bound_to 6896
  150.8000  133.8607  159.3239 H   0  0  0  0  0  0  0  0  0  0  0  0  # atno 6908 bound_to 6896
  151.6346  135.1021  160.0180 H   0  0  0  0  0  0  0  0  0  0  0  0  # atno 6909 bound_to 6896
  146.2334  139.9222  142.8508 H   0  0  0  0  0  0  0  0  0  0  0  0  # atno 7974 bound_to 7965
  155.6291  140.3496  155.4677 H   0  0  0  0  0  0  0  0  0  0  0  0  # atno 8008 bound_to 7997
  156.0017  140.1214  157.0564 H   0  0  0  0  0  0  0  0  0  0  0  0  # atno 8009 bound_to 7997
  154.4251  140.1099  156.5693 H   0  0  0  0  0  0  0  0  0  0  0  0  # atno 8010 bound_to 7997
  139.5344  144.2541  152.0761 H   0  0  0  0  0  0  0  0  0  0  0  0  # atno 10167 bound_to 10162
  156.3094  130.4250  149.8065 H   0  0  0  0  0  0  0  0  0  0  0  0  # atno 10718 bound_to 10713
  154.5858  135.2840  155.0686 H   0  0  0  0  0  0  0  0  0  0  0  0  # atno 10763 bound_to 10752
  154.2005  135.6425  153.5089 H   0  0  0  0  0  0  0  0  0  0  0  0  # atno 10764 bound_to 10752
  153.0104  135.5468  154.6527 H   0  0  0  0  0  0  0  0  0  0  0  0  # atno 10765 bound_to 10752
  140.0210  134.9396  157.0475 H   0  0  0  0  0  0  0  0  0  0  0  0  # atno 11005 bound_to 11000
  145.2126  140.9902  143.4092 LP  0  0  0  0  0  0  0  0  0  0  0  0  # atno 17320 bound_to 7965
  144.9678  139.3911  143.6324 LP  0  0  0  0  0  0  0  0  0  0  0  0  # atno 17321 bound_to 7965
  140.2009  144.4659  150.6432 LP  0  0  0  0  0  0  0  0  0  0  0  0  # atno 17342 bound_to 10162
  140.6541  143.2233  151.6009 LP  0  0  0  0  0  0  0  0  0  0  0  0  # atno 17343 bound_to 10162
  156.5414  130.8301  151.3270 LP  0  0  0  0  0  0  0  0  0  0  0  0  # atno 17370 bound_to 10713
  157.7387  130.9818  150.2270 LP  0  0  0  0  0  0  0  0  0  0  0  0  # atno 17371 bound_to 10713
  140.4387  134.1704  155.7172 LP  0  0  0  0  0  0  0  0  0  0  0  0  # atno 17394 bound_to 11000
  141.1774  133.8486  157.1375 LP  0  0  0  0  0  0  0  0  0  0  0  0  # atno 17395 bound_to 11000

$$$$
