AV-unprocessed.smi:861|AV-procd|sdf|3975|dock7
  -GOLD-   22720 1453D 1   1.00000     0.00000
 Structure written by MMmdl.
 45 46  0  0  0  0  0  0  0  0  3 V2000
  147.9596  142.0759  156.8825 C   0  0  0  0  0  0  0  0  0  0  0  0
  148.2604  141.2711  155.6068 C   0  0  0  0  0  0  0  0  0  0  0  0
  149.7295  141.4519  155.1951 C   0  0  0  0  0  0  0  0  0  0  0  0
  147.3185  141.6400  154.4422 C   0  0  0  0  0  0  0  0  0  0  0  0
  147.4765  140.7377  153.2028 C   0  0  0  0  0  0  0  0  0  0  0  0
  146.5039  139.6161  153.1896 N   0  3  2  0  0  0  0  0  0  0  0  0
  146.5220  138.8032  154.4307 C   0  0  0  0  0  0  0  0  0  0  0  0
  145.4761  137.6799  154.3516 C   0  0  0  0  0  0  0  0  0  0  0  0
  145.7231  136.8819  153.2010 O   0  0  0  0  0  0  0  0  0  0  0  0
  145.6055  137.6240  151.9916 C   0  0  2  0  0  0  0  0  0  0  0  0
  145.8142  136.6552  150.8177 C   0  0  0  0  0  0  0  0  0  0  0  0
  144.6312  135.8435  150.5734 N   0  0  0  0  0  0  0  0  0  0  0  0
  144.6634  134.4575  150.7768 C   0  0  0  0  0  0  0  0  0  0  0  0
  145.8019  133.7475  151.2236 C   0  0  0  0  0  0  0  0  0  0  0  0
  145.6962  132.3563  151.3910 C   0  0  0  0  0  0  0  0  0  0  0  0
  144.4572  131.7576  151.1016 C   0  0  0  0  0  0  0  0  0  0  0  0
  143.3804  132.4539  150.6740 N   0  0  0  0  0  0  0  0  0  0  0  0
  143.5135  133.7836  150.5232 N   0  3  0  0  0  0  0  0  0  0  0  0
  146.6646  138.7450  152.0002 C   0  0  0  0  0  0  0  0  0  0  0  0
  148.0542  143.1481  156.7067 H   0  0  0  0  0  0  0  0  0  0  0  0
  148.6499  141.8108  157.6839 H   0  0  0  0  0  0  0  0  0  0  0  0
  146.9529  141.8852  157.2530 H   0  0  0  0  0  0  0  0  0  0  0  0
  148.1191  140.2143  155.8368 H   0  0  0  0  0  0  0  0  0  0  0  0
  149.9471  142.4917  154.9484 H   0  0  0  0  0  0  0  0  0  0  0  0
  149.9729  140.8447  154.3228 H   0  0  0  0  0  0  0  0  0  0  0  0
  150.4031  141.1526  155.9987 H   0  0  0  0  0  0  0  0  0  0  0  0
  146.2892  141.6236  154.8005 H   0  0  0  0  0  0  0  0  0  0  0  0
  147.5180  142.6697  154.1424 H   0  0  0  0  0  0  0  0  0  0  0  0
  147.3178  141.3516  152.3150 H   0  0  0  0  0  0  0  0  0  0  0  0
  148.4893  140.3405  153.1281 H   0  0  0  0  0  0  0  0  0  0  0  0
  147.5155  138.3757  154.5743 H   0  0  0  0  0  0  0  0  0  0  0  0
  146.3131  139.4259  155.2999 H   0  0  0  0  0  0  0  0  0  0  0  0
  145.5355  137.0482  155.2378 H   0  0  0  0  0  0  0  0  0  0  0  0
  144.4646  138.0880  154.3184 H   0  0  0  0  0  0  0  0  0  0  0  0
  144.6090  138.0654  151.9227 H   0  0  0  0  0  0  0  0  0  0  0  0
  146.0335  137.2206  149.9112 H   0  0  0  0  0  0  0  0  0  0  0  0
  146.6732  136.0121  151.0140 H   0  0  0  0  0  0  0  0  0  0  0  0
  143.7466  136.3062  150.4183 H   0  0  0  0  0  0  0  0  0  0  0  0
  146.7379  134.2425  151.4356 H   0  0  0  0  0  0  0  0  0  0  0  0
  146.5352  131.7667  151.7300 H   0  0  0  0  0  0  0  0  0  0  0  0
  144.3244  130.6916  151.2150 H   0  0  0  0  0  0  0  0  0  0  0  0
  146.5696  139.3445  151.0936 H   0  0  0  0  0  0  0  0  0  0  0  0
  147.6687  138.3170  151.9975 H   0  0  0  0  0  0  0  0  0  0  0  0
  145.5850  140.0299  153.1181 H   0  0  0  0  0  0  0  0  0  0  0  0
  142.7044  134.3148  150.2007 H   0  0  0  0  0  0  0  0  0  0  0  0
  1  2  1  0  0  0  0
  1 20  1  0  0  0  0
  1 21  1  0  0  0  0
  1 22  1  0  0  0  0
  2  3  1  0  0  0  0
  2  4  1  0  0  0  0
  2 23  1  0  0  0  0
  3 24  1  0  0  0  0
  3 25  1  0  0  0  0
  3 26  1  0  0  0  0
  4  5  1  0  0  0  0
  4 27  1  0  0  0  0
  4 28  1  0  0  0  0
  5  6  1  0  0  0  0
  5 29  1  0  0  0  0
  5 30  1  0  0  0  0
  6 19  1  0  0  0  0
  6  7  1  0  0  0  0
  6 44  1  0  0  0  0
  7  8  1  0  0  0  0
  7 31  1  0  0  0  0
  7 32  1  0  0  0  0
  8  9  1  0  0  0  0
  8 33  1  0  0  0  0
  8 34  1  0  0  0  0
  9 10  1  0  0  0  0
 10 11  1  0  0  0  0
 10 19  1  0  0  0  0
 10 35  1  0  0  0  0
 11 12  1  0  0  0  0
 11 36  1  0  0  0  0
 11 37  1  0  0  0  0
 12 13  1  0  0  0  0
 12 38  1  0  0  0  0
 13 18  1  0  0  0  0
 13 14  2  0  0  0  0
 14 15  1  0  0  0  0
 14 39  1  0  0  0  0
 15 16  2  0  0  0  0
 15 40  1  0  0  0  0
 16 17  1  0  0  0  0
 16 41  1  0  0  0  0
 17 18  2  0  0  0  0
 18 45  1  0  0  0  0
 19 42  1  0  0  0  0
 19 43  1  0  0  0  0
M  CHG  1   6   1
M  CHG  1  18   1
M  END
> <s_m_source_file>
AV-unprocessed.smi

> <i_m_source_file_index>
861

> <i_lp_mmshare_version>
43012

> <i_f3d_flags>
0

> <s_epik_input>
W0NIM11bQ0hdKFtDSDNdKVtDSDJdW0NIMl1OMVtDSDJdW0NIMl1PW0NASF0oW0NIMl0xKVtDSDJdW05IXWMyW2NIXVtjSF1bY0hdbm4y

> <s_epik_cmdline>
J2VwaWtfcHl0aG9uJywgJy1waCcsICc3LjAnLCAnLXRuJywgJzgnLCAnLW1hJywgJzIwMCcsICctbWV0YWxfYmluZGluZycsICctaW1hZScsICc8aW5maWxlLm1hZT4nLCAnLW9tYWUnLCAnPG91dGZpbGUubWFlPic=

> <r_lp_tautomer_probability>
0.966961

> <r_epik_Ionization_Penalty>
2.478

> <r_epik_Ionization_Penalty_Charging>
2.47799

> <r_epik_Ionization_Penalty_Neutral>
3.15286e-06

> <r_epik_State_Penalty>
2.10794

> <r_epik_Charging_Adjusted_Penalty>
4.58594

> <i_epik_Tot_Q>
2

> <i_epik_Tot_abs_Q>
2

> <r_epik_Metal_State_Penalty>
2.11378

> <b_epik_Metal_Only>
0

> <s_lp_Force_Field>
OPLS_2005

> <r_lp_Energy>
32.9485

> <b_lp_Chiralities_Consistent>
1

> <s_lp_Variant>
AV-unprocessed.smi:861-10

> <Gold.Version>
5.8.1

> <Gold.Id.Protein>
6NUR|6NUR_protein|mol2

> <Gold.PLP.Fitness>
43.7966

> <Gold.PLP.PLP>
-32.0581

> <Gold.PLP.part.hbond>
-3.2535

> <Gold.PLP.part.metal>
0.0000

> <Gold.PLP.part.buried>
0.1360

> <Gold.PLP.part.nonpolar>
-30.3985

> <Gold.PLP.part.repulsive>
0.4778

> <Gold.PLP.ligand.clash>
0.0000

> <Gold.PLP.ligand.torsion>
0.4129

> <Gold.PLP.Chemscore.Hbond>
4.1659

> <Gold.PLP.Chemscore.CHOScore>
0.0000

> <Gold.PLP.Chemscore.Metal>
0.0000

> <Gold.Chemscore.Hbonds>
donor molecule, donor type, donor heavy atom, donor atom, acceptor molecule, acceptor atom, score
      L1  H     6    44       P1 10175  1.89
      L1  H    12    38       P1 10171  0.08
      L1  H    18    45       P1 10186  2.00

> <Gold.PLP.Chemscore.Internal.Correction>
0.0667

> <Gold.Rescore>
     Score         DG    S(hbond)    S(metal)    S(lipo)     H(rot)  DE(clash)    DE(int)     intcor
     15.49     -16.64       1.94        0.00      78.95       1.78       0.69       0.46       ----

> <Gold.Chemscore.Fitness>
15.4858

> <Gold.Chemscore.DG>
-16.6389

> <Gold.Chemscore.ZeroCoef>
-5.4800

> <Gold.Chemscore.Hbond>
1.9364

> <Gold.Chemscore.Metal>
0.0000

> <Gold.Chemscore.Lipo>
78.9524

> <Gold.Chemscore.Internal_Hbond>
0.0000

> <Gold.Chemscore.DEClash>
0.6948

> <Gold.Chemscore.DEInternal>
0.4583

> <Gold.Chemscore.Rot>
1.7759

> <Gold.Chemscore.Internal.Correction>
   9.000000E+99

> <Gold.Chemscore.Hbonds>
donor molecule, donor type, donor heavy atom, donor atom, acceptor molecule, acceptor atom, score
      L1  H     6    44       P1 10175  0.90
      L1  H    12    38       P1 10171  0.08
      L1  H    18    45       P1 10186  0.83

> <Gold.Chemscore.Hbond.Weighted>
-6.4677

> <Gold.Chemscore.Metal.Weighted>
-0.0000

> <Gold.Chemscore.Lipo.Weighted>
-9.2374

> <Gold.Chemscore.Internal_Hbond.Weighted>
0.0000

> <Gold.Chemscore.DEClash.Weighted>
0.6948

> <Gold.Chemscore.DEInternal.Weighted>
0.4583

> <Gold.Chemscore.Rot.Weighted>
4.5462

> <Gold.Chemscore.Internal.Correction.Weighted>
   9.000000E+99

> <Gold.Protein.RotatedTorsions>
[ 6907 6896 6895 6894 ] final -132.01 input  -60.11 | X-H torsion
[ 7974 7965 7964 7962 ] final  -86.90 input  175.53 | X-H torsion
[ 8008 7997 7996 7995 ] final  -13.99 input   59.86 | X-H torsion
[ 10167 10162 10161 10158 ] final  126.98 input  -65.29 | X-H torsion
[ 10718 10713 10712 10709 ] final  135.02 input   66.30 | X-H torsion
[ 10763 10752 10751 10750 ] final  -73.97 input  -60.55 | X-H torsion
[ 11005 11000 10999 10996 ] final  129.95 input  -57.11 | X-H torsion

> <Gold.Protein.ActiveResidues>
 VAL166  LYS551  ARG553  GLY616  TRP617  ASP618  TYR619  PRO620  LYS621  CYS622 
 ASP623  PHE694  ASN695  SER759  ASP760  ASP761  ALA762  ILE779  LEU786  VAL792 
 PHE793  MET794  SER795  GLU796  ALA797  LYS798  CYS799  TRP800  GLU811  SER814 

> <Gold.Protein.RotatedAtoms>
  150.9575  133.6481  159.2760 H   0  0  0  0  0  0  0  0  0  0  0  0  # atno 6907 bound_to 6896
  151.3815  135.0939  159.9507 H   0  0  0  0  0  0  0  0  0  0  0  0  # atno 6908 bound_to 6896
  152.5135  133.9108  159.7542 H   0  0  0  0  0  0  0  0  0  0  0  0  # atno 6909 bound_to 6896
  145.4737  140.9559  143.1903 H   0  0  0  0  0  0  0  0  0  0  0  0  # atno 7974 bound_to 7965
  154.5246  140.2235  155.8913 H   0  0  0  0  0  0  0  0  0  0  0  0  # atno 8008 bound_to 7997
  156.1699  140.3124  155.8920 H   0  0  0  0  0  0  0  0  0  0  0  0  # atno 8009 bound_to 7997
  155.3578  140.0459  157.3037 H   0  0  0  0  0  0  0  0  0  0  0  0  # atno 8010 bound_to 7997
  139.5602  144.6876  151.4065 H   0  0  0  0  0  0  0  0  0  0  0  0  # atno 10167 bound_to 10162
  157.4613  131.1073  150.9916 H   0  0  0  0  0  0  0  0  0  0  0  0  # atno 10718 bound_to 10713
  154.4667  135.5880  153.6293 H   0  0  0  0  0  0  0  0  0  0  0  0  # atno 10763 bound_to 10752
  152.9829  135.6057  154.3418 H   0  0  0  0  0  0  0  0  0  0  0  0  # atno 10764 bound_to 10752
  154.3296  135.2842  155.2457 H   0  0  0  0  0  0  0  0  0  0  0  0  # atno 10765 bound_to 10752
  139.9644  134.9594  156.9223 H   0  0  0  0  0  0  0  0  0  0  0  0  # atno 11005 bound_to 11000
  144.7930  139.6290  143.7105 LP  0  0  0  0  0  0  0  0  0  0  0  0  # atno 17320 bound_to 7965
  146.2382  139.5947  142.9509 LP  0  0  0  0  0  0  0  0  0  0  0  0  # atno 17321 bound_to 7965
  140.6881  143.7927  150.7215 LP  0  0  0  0  0  0  0  0  0  0  0  0  # atno 17342 bound_to 10162
  140.1401  143.4449  152.2199 LP  0  0  0  0  0  0  0  0  0  0  0  0  # atno 17343 bound_to 10162
  157.0713  130.5865  149.5403 LP  0  0  0  0  0  0  0  0  0  0  0  0  # atno 17370 bound_to 10713
  156.0030  130.5112  150.7730 LP  0  0  0  0  0  0  0  0  0  0  0  0  # atno 17371 bound_to 10713
  140.5428  134.0703  155.7346 LP  0  0  0  0  0  0  0  0  0  0  0  0  # atno 17394 bound_to 11000
  141.1323  133.9280  157.2508 LP  0  0  0  0  0  0  0  0  0  0  0  0  # atno 17395 bound_to 11000

$$$$
