AV-unprocessed.smi:107|AV-procd|sdf|1026|dock1
  -GOLD-   2262018 23D 1   1.00000     0.00000
 Structure written by MMmdl.
 30 31  0  0  0  0  0  0  0  0  2 V2000
  151.3530  137.0142  155.2091 C   0  0  0  0  0  0  0  0  0  0  0  0
  150.6513  138.3332  154.9367 C   0  0  0  0  0  0  0  0  0  0  0  0
  149.4207  138.3945  154.3817 C   0  0  0  0  0  0  0  0  0  0  0  0
  148.7859  139.5982  154.1326 N   0  0  0  0  0  0  0  0  0  0  0  0
  147.4113  139.6207  153.5031 C   0  0  1  0  0  0  0  0  0  0  0  0
  147.4933  139.3053  152.0078 C   0  0  0  0  0  0  0  0  0  0  0  0
  146.2584  138.4512  151.8095 C   0  0  1  0  0  0  0  0  0  0  0  0
  146.4121  137.5954  150.6958 O   0  0  0  0  0  0  0  0  0  0  0  0
  146.1891  137.6852  153.1341 C   0  0  2  0  0  0  0  0  0  0  0  0
  144.7898  137.1754  153.5122 C   0  0  0  0  0  0  0  0  0  0  0  0
  143.9213  138.2558  153.7807 O   0  0  0  0  0  0  0  0  0  0  0  0
  146.6184  138.6376  154.1043 O   0  0  0  0  0  0  0  0  0  0  0  0
  149.4457  140.8168  154.4419 C   0  0  0  0  0  0  0  0  0  0  0  0
  148.8746  141.8742  154.1750 O   0  0  0  0  0  0  0  0  0  0  0  0
  150.6839  140.7646  155.0109 N   0  5  0  0  0  0  0  0  0  0  0  0
  151.3250  139.5911  155.2805 C   0  0  0  0  0  0  0  0  0  0  0  0
  152.4414  139.5594  155.7971 O   0  0  0  0  0  0  0  0  0  0  0  0
  150.7361  136.1675  154.9071 H   0  0  0  0  0  0  0  0  0  0  0  0
  151.5708  136.9111  156.2725 H   0  0  0  0  0  0  0  0  0  0  0  0
  152.2926  136.9615  154.6582 H   0  0  0  0  0  0  0  0  0  0  0  0
  148.9229  137.4733  154.1207 H   0  0  0  0  0  0  0  0  0  0  0  0
  146.9565  140.5873  153.7214 H   0  0  0  0  0  0  0  0  0  0  0  0
  147.5046  140.2171  151.4100 H   0  0  0  0  0  0  0  0  0  0  0  0
  148.3991  138.7323  151.8009 H   0  0  0  0  0  0  0  0  0  0  0  0
  145.3806  139.0863  151.6822 H   0  0  0  0  0  0  0  0  0  0  0  0
  145.7583  137.8247  150.0525 H   0  0  0  0  0  0  0  0  0  0  0  0
  146.9082  136.8641  153.1352 H   0  0  0  0  0  0  0  0  0  0  0  0
  144.3696  136.5975  152.6888 H   0  0  0  0  0  0  0  0  0  0  0  0
  144.8345  136.5152  154.3786 H   0  0  0  0  0  0  0  0  0  0  0  0
  144.0153  138.8948  153.0906 H   0  0  0  0  0  0  0  0  0  0  0  0
  1  2  1  0  0  0  0
  1 18  1  0  0  0  0
  1 19  1  0  0  0  0
  1 20  1  0  0  0  0
  2 16  1  0  0  0  0
  2  3  2  0  0  0  0
  3  4  1  0  0  0  0
  3 21  1  0  0  0  0
  4  5  1  0  0  0  0
  4 13  1  0  0  0  0
  5 12  1  0  0  0  0
  5  6  1  0  0  0  0
  5 22  1  0  0  0  0
  6  7  1  0  0  0  0
  6 23  1  0  0  0  0
  6 24  1  0  0  0  0
  7  8  1  0  0  0  0
  7  9  1  0  0  0  0
  7 25  1  0  0  0  0
  8 26  1  0  0  0  0
  9 10  1  0  0  0  0
  9 12  1  0  0  0  0
  9 27  1  0  0  0  0
 10 11  1  0  0  0  0
 10 28  1  0  0  0  0
 10 29  1  0  0  0  0
 11 30  1  0  0  0  0
 13 14  2  0  0  0  0
 13 15  1  0  0  0  0
 15 16  1  0  0  0  0
 16 17  2  0  0  0  0
M  CHG  1  15  -1
M  END
> <s_m_source_file>
AV-unprocessed.smi

> <i_m_source_file_index>
107

> <i_lp_mmshare_version>
43012

> <i_f3d_flags>
0

> <s_epik_input>
Tz1jMVtuSF1jKD1PKW4oW2NIXWMxW0NIM10pW0NAQEhdMltDSDJdW0NAQEhdKFtPSF0pW0NASF0oTzIpW0NIMl1bT0hd

> <s_epik_cmdline>
J2VwaWtfcHl0aG9uJywgJy1waCcsICc3LjAnLCAnLXRuJywgJzgnLCAnLW1hJywgJzIwMCcsICctbWV0YWxfYmluZGluZycsICctaW1hZScsICc8aW5maWxlLm1hZT4nLCAnLW9tYWUnLCAnPG91dGZpbGUubWFlPic=

> <r_lp_tautomer_probability>
0.999537

> <r_epik_Ionization_Penalty>
3.66603

> <r_epik_Ionization_Penalty_Charging>
1.09773e-07

> <r_epik_Ionization_Penalty_Neutral>
3.66603

> <r_epik_State_Penalty>
3.66562

> <r_epik_Charging_Adjusted_Penalty>
3.66562

> <i_epik_Tot_Q>
-1

> <i_epik_Tot_abs_Q>
1

> <r_epik_Metal_State_Penalty>
0.234536

> <b_epik_Metal_Only>
1

> <s_epik_Chemistry_Notes>
This compound contains an acetal/aminal-like group ( X-CH(R)-Y where X, Y are N, S, or O) that may be acid/base labile, releasing an aldehyde.

> <s_lp_Force_Field>
OPLS_2005

> <r_lp_Energy>
34.2111

> <b_lp_Chiralities_Consistent>
1

> <s_lp_Variant>
AV-unprocessed.smi:107-14

> <Gold.Version>
5.8.1

> <Gold.Id.Protein>
6NUR|6NUR_protein|mol2

> <Gold.PLP.Fitness>
42.6429

> <Gold.PLP.PLP>
-26.9364

> <Gold.PLP.part.hbond>
-6.8614

> <Gold.PLP.part.metal>
0.0000

> <Gold.PLP.part.buried>
6.3688

> <Gold.PLP.part.nonpolar>
-26.1052

> <Gold.PLP.part.repulsive>
0.4197

> <Gold.PLP.ligand.clash>
0.0000

> <Gold.PLP.ligand.torsion>
0.4740

> <Gold.PLP.Chemscore.Hbond>
4.6385

> <Gold.PLP.Chemscore.CHOScore>
0.9100

> <Gold.PLP.Chemscore.Metal>
0.0000

> <Gold.Chemscore.Hbonds>
donor molecule, donor type, donor heavy atom, donor atom, acceptor molecule, acceptor atom, score
      L1  H     8    26       P1 10171  0.90
      L1  H    11    30       P1 10175  0.98
      P1  H  7954  7966       L1     8  1.00
      P1  H  7989  7998       L1    15  0.33
      P1  H  7997  8009       L1    17  0.99
      P1  H  8011  8017       L1    14  0.35
      L1  C     3    21       P1  7948  0.87

> <Gold.PLP.Chemscore.Internal.Correction>
0.0091

> <Gold.Rescore>
     Score         DG    S(hbond)    S(metal)    S(lipo)     H(rot)  DE(clash)    DE(int)     intcor
     13.75     -16.39       3.63        0.00      48.29       2.69       2.31       0.33       ----

> <Gold.Chemscore.Fitness>
13.7495

> <Gold.Chemscore.DG>
-16.3911

> <Gold.Chemscore.ZeroCoef>
-5.4800

> <Gold.Chemscore.Hbond>
3.6350

> <Gold.Chemscore.Metal>
0.0000

> <Gold.Chemscore.Lipo>
48.2857

> <Gold.Chemscore.Internal_Hbond>
0.0000

> <Gold.Chemscore.DEClash>
2.3130

> <Gold.Chemscore.DEInternal>
0.3286

> <Gold.Chemscore.Rot>
2.6871

> <Gold.Chemscore.Internal.Correction>
   9.000000E+99

> <Gold.Chemscore.Hbonds>
donor molecule, donor type, donor heavy atom, donor atom, acceptor molecule, acceptor atom, score
      L1  H     8    26       P1 10171  0.82
      L1  H    11    30       P1 10175  0.93
      P1  H  7954  7966       L1     8  0.43
      P1  H  7997  8009       L1    17  0.92
      P1  H  8011  8017       L1    14  0.14

> <Gold.Chemscore.Hbond.Weighted>
-12.1407

> <Gold.Chemscore.Metal.Weighted>
-0.0000

> <Gold.Chemscore.Lipo.Weighted>
-5.6494

> <Gold.Chemscore.Internal_Hbond.Weighted>
0.0000

> <Gold.Chemscore.DEClash.Weighted>
2.3130

> <Gold.Chemscore.DEInternal.Weighted>
0.3286

> <Gold.Chemscore.Rot.Weighted>
6.8791

> <Gold.Chemscore.Internal.Correction.Weighted>
   9.000000E+99

> <Gold.Protein.RotatedTorsions>
[ 6907 6896 6895 6894 ] final   59.77 input  -60.11 | X-H torsion
[ 7974 7965 7964 7962 ] final  144.45 input  175.53 | X-H torsion
[ 8008 7997 7996 7995 ] final -149.43 input   59.86 | X-H torsion
[ 10167 10162 10161 10158 ] final    5.36 input  -65.29 | X-H torsion
[ 10718 10713 10712 10709 ] final   69.15 input   66.30 | X-H torsion
[ 10763 10752 10751 10750 ] final   88.82 input  -60.55 | X-H torsion
[ 11005 11000 10999 10996 ] final  165.22 input  -57.11 | X-H torsion

> <Gold.Protein.ActiveResidues>
 VAL166  LYS551  ARG553  GLY616  TRP617  ASP618  TYR619  PRO620  LYS621  CYS622 
 ASP623  PHE694  ASN695  SER759  ASP760  ASP761  ALA762  ILE779  LEU786  VAL792 
 PHE793  MET794  SER795  GLU796  ALA797  LYS798  CYS799  TRP800  GLU811  SER814 

> <Gold.Protein.RotatedAtoms>
  152.3945  134.6388  160.0094 H   0  0  0  0  0  0  0  0  0  0  0  0  # atno 6907 bound_to 6896
  151.6612  133.3311  159.3182 H   0  0  0  0  0  0  0  0  0  0  0  0  # atno 6908 bound_to 6896
  150.7855  134.6879  159.6525 H   0  0  0  0  0  0  0  0  0  0  0  0  # atno 6909 bound_to 6896
  144.8835  139.5663  143.5832 H   0  0  0  0  0  0  0  0  0  0  0  0  # atno 7974 bound_to 7965
  155.6075  140.0668  157.2715 H   0  0  0  0  0  0  0  0  0  0  0  0  # atno 8008 bound_to 7997
  154.4262  140.1807  156.1285 H   0  0  0  0  0  0  0  0  0  0  0  0  # atno 8009 bound_to 7997
  156.0111  140.3326  155.6945 H   0  0  0  0  0  0  0  0  0  0  0  0  # atno 8010 bound_to 7997
  140.6486  143.7601  150.7538 H   0  0  0  0  0  0  0  0  0  0  0  0  # atno 10167 bound_to 10162
  157.6330  130.9411  150.0474 H   0  0  0  0  0  0  0  0  0  0  0  0  # atno 10718 bound_to 10713
  153.1807  135.4493  155.0024 H   0  0  0  0  0  0  0  0  0  0  0  0  # atno 10763 bound_to 10752
  154.8028  135.3262  154.7510 H   0  0  0  0  0  0  0  0  0  0  0  0  # atno 10764 bound_to 10752
  153.7974  135.6965  153.4916 H   0  0  0  0  0  0  0  0  0  0  0  0  # atno 10765 bound_to 10752
  140.2539  134.7955  157.3527 H   0  0  0  0  0  0  0  0  0  0  0  0  # atno 11005 bound_to 11000
  146.3010  139.7425  142.9091 LP  0  0  0  0  0  0  0  0  0  0  0  0  # atno 17320 bound_to 7965
  145.3911  141.0372  143.3123 LP  0  0  0  0  0  0  0  0  0  0  0  0  # atno 17321 bound_to 7965
  140.1247  143.4580  152.2291 LP  0  0  0  0  0  0  0  0  0  0  0  0  # atno 17342 bound_to 10162
  139.5699  144.7456  151.3920 LP  0  0  0  0  0  0  0  0  0  0  0  0  # atno 17343 bound_to 10162
  156.1547  130.3643  149.9387 LP  0  0  0  0  0  0  0  0  0  0  0  0  # atno 17370 bound_to 10713
  156.7398  130.9075  151.3631 LP  0  0  0  0  0  0  0  0  0  0  0  0  # atno 17371 bound_to 10713
  140.1531  134.4824  155.7947 LP  0  0  0  0  0  0  0  0  0  0  0  0  # atno 17394 bound_to 11000
  141.2198  133.6870  156.7413 LP  0  0  0  0  0  0  0  0  0  0  0  0  # atno 17395 bound_to 11000

$$$$
