AV-unprocessed.smi:1627|AV-procd|sdf|6517|dock4
  -GOLD-   22720 7193D 1   1.00000     0.00000
 Structure written by MMmdl.
 43 44  0  0  0  0  0  0  0  0  1 V2000
  156.7046  135.0899  161.7424 C   0  0  0  0  0  0  0  0  0  0  0  0
  155.1886  134.8765  161.6200 C   0  0  1  0  0  0  0  0  0  0  0  0
  154.6702  134.7236  162.9392 O   0  0  0  0  0  0  0  0  0  0  0  0
  154.6572  133.3920  163.4442 C   0  0  0  0  0  0  0  0  0  0  0  0
  154.7219  133.4302  164.9758 C   0  0  0  0  0  0  0  0  0  0  0  0
  153.5617  133.8791  165.4532 F   0  0  0  0  0  0  0  0  0  0  0  0
  154.9382  132.2072  165.4589 F   0  0  0  0  0  0  0  0  0  0  0  0
  155.6948  134.2486  165.3755 F   0  0  0  0  0  0  0  0  0  0  0  0
  154.5135  136.0625  160.9114 C   0  0  0  0  0  0  0  0  0  0  0  0
  153.7993  135.8582  159.9301 O   0  0  0  0  0  0  0  0  0  0  0  0
  154.7947  137.2793  161.4133 N   0  0  0  0  0  0  0  0  0  0  0  0
  154.3284  138.5498  160.9796 C   0  0  0  0  0  0  0  0  0  0  0  0
  154.8960  139.7851  161.3671 C   0  0  0  0  0  0  0  0  0  0  0  0
  154.3534  140.9783  160.8525 C   0  0  0  0  0  0  0  0  0  0  0  0
  153.2579  140.9139  159.9546 C   0  0  0  0  0  0  0  0  0  0  0  0
  152.6723  142.0731  159.3959 N   0  0  0  0  0  0  0  0  0  0  0  0
  151.3785  141.8897  158.7303 C   0  0  0  0  0  0  0  0  0  0  0  0
  151.0596  143.0643  157.7897 C   0  0  0  0  0  0  0  0  0  0  0  0
  151.1636  144.4068  158.5264 C   0  0  0  0  0  0  0  0  0  0  0  0
  152.5505  144.5415  159.1698 C   0  0  0  0  0  0  0  0  0  0  0  0
  152.8541  143.3485  160.0921 C   0  0  0  0  0  0  0  0  0  0  0  0
  152.7281  139.7251  159.5778 N   0  0  0  0  0  0  0  0  0  0  0  0
  153.2517  138.5846  160.0725 C   0  0  0  0  0  0  0  0  0  0  0  0
  157.1663  135.2276  160.7640 H   0  0  0  0  0  0  0  0  0  0  0  0
  157.1790  134.2275  162.2112 H   0  0  0  0  0  0  0  0  0  0  0  0
  156.9397  135.9642  162.3508 H   0  0  0  0  0  0  0  0  0  0  0  0
  155.0174  133.9581  161.0549 H   0  0  0  0  0  0  0  0  0  0  0  0
  153.7553  132.8641  163.1320 H   0  0  0  0  0  0  0  0  0  0  0  0
  155.5117  132.8376  163.0533 H   0  0  0  0  0  0  0  0  0  0  0  0
  155.4667  137.3005  162.1668 H   0  0  0  0  0  0  0  0  0  0  0  0
  155.7405  139.8444  162.0356 H   0  0  0  0  0  0  0  0  0  0  0  0
  154.7868  141.9167  161.1631 H   0  0  0  0  0  0  0  0  0  0  0  0
  151.3467  140.9663  158.1524 H   0  0  0  0  0  0  0  0  0  0  0  0
  150.6051  141.8059  159.4947 H   0  0  0  0  0  0  0  0  0  0  0  0
  151.7531  143.0547  156.9476 H   0  0  0  0  0  0  0  0  0  0  0  0
  150.0608  142.9442  157.3697 H   0  0  0  0  0  0  0  0  0  0  0  0
  150.9859  145.2316  157.8358 H   0  0  0  0  0  0  0  0  0  0  0  0
  150.3920  144.4680  159.2949 H   0  0  0  0  0  0  0  0  0  0  0  0
  153.3098  144.5998  158.3887 H   0  0  0  0  0  0  0  0  0  0  0  0
  152.6136  145.4727  159.7329 H   0  0  0  0  0  0  0  0  0  0  0  0
  152.2005  143.3745  160.9653 H   0  0  0  0  0  0  0  0  0  0  0  0
  153.8803  143.4410  160.4488 H   0  0  0  0  0  0  0  0  0  0  0  0
  152.7893  137.6686  159.7344 H   0  0  0  0  0  0  0  0  0  0  0  0
  1  2  1  0  0  0  0
  1 24  1  0  0  0  0
  1 25  1  0  0  0  0
  1 26  1  0  0  0  0
  2  3  1  0  0  0  0
  2  9  1  0  0  0  0
  2 27  1  0  0  0  0
  3  4  1  0  0  0  0
  4  5  1  0  0  0  0
  4 28  1  0  0  0  0
  4 29  1  0  0  0  0
  5  6  1  0  0  0  0
  5  7  1  0  0  0  0
  5  8  1  0  0  0  0
  9 10  2  0  0  0  0
  9 11  1  0  0  0  0
 11 12  1  0  0  0  0
 11 30  1  0  0  0  0
 12 23  1  0  0  0  0
 12 13  2  0  0  0  0
 13 14  1  0  0  0  0
 13 31  1  0  0  0  0
 14 15  2  0  0  0  0
 14 32  1  0  0  0  0
 15 16  1  0  0  0  0
 15 22  1  0  0  0  0
 16 21  1  0  0  0  0
 16 17  1  0  0  0  0
 17 18  1  0  0  0  0
 17 33  1  0  0  0  0
 17 34  1  0  0  0  0
 18 19  1  0  0  0  0
 18 35  1  0  0  0  0
 18 36  1  0  0  0  0
 19 20  1  0  0  0  0
 19 37  1  0  0  0  0
 19 38  1  0  0  0  0
 20 21  1  0  0  0  0
 20 39  1  0  0  0  0
 20 40  1  0  0  0  0
 21 41  1  0  0  0  0
 21 42  1  0  0  0  0
 22 23  2  0  0  0  0
 23 43  1  0  0  0  0
M  END
> <s_m_source_file>
AV-unprocessed.smi

> <i_m_source_file_index>
1627

> <i_lp_mmshare_version>
43012

> <i_f3d_flags>
0

> <s_epik_input>
RkMoRikoRilbQ0gyXU9bQ0BASF0oW0NIM10pQyg9TylbTkhdYzFbY0hdW2NIXWMobltjSF0xKU4yW0NIMl1bQ0gyXVtDSDJdW0NIMl1bQ0gyXTI=

> <s_epik_cmdline>
J2VwaWtfcHl0aG9uJywgJy1waCcsICc3LjAnLCAnLXRuJywgJzgnLCAnLW1hJywgJzIwMCcsICctbWV0YWxfYmluZGluZycsICctaW1hZScsICc8aW5maWxlLm1hZT4nLCAnLW9tYWUnLCAnPG91dGZpbGUubWFlPic=

> <r_lp_tautomer_probability>
1

> <r_epik_Ionization_Penalty>
0.0254771

> <r_epik_Ionization_Penalty_Charging>
0

> <r_epik_Ionization_Penalty_Neutral>
0.0254771

> <r_epik_State_Penalty>
0.0187406

> <r_epik_Charging_Adjusted_Penalty>
0.0187406

> <i_epik_Tot_Q>
0

> <i_epik_Tot_abs_Q>
0

> <r_epik_Metal_State_Penalty>
0.017939

> <b_epik_Metal_Only>
0

> <s_lp_Force_Field>
OPLS_2005

> <r_lp_Energy>
25.1621

> <b_lp_Chiralities_Consistent>
1

> <s_lp_Variant>
AV-unprocessed.smi:1627-2

> <Gold.Version>
5.8.1

> <Gold.Id.Protein>
6NUR|6NUR_protein|mol2

> <Gold.PLP.Fitness>
44.3195

> <Gold.PLP.PLP>
-42.7918

> <Gold.PLP.part.hbond>
-1.0000

> <Gold.PLP.part.metal>
0.0000

> <Gold.PLP.part.buried>
-5.1221

> <Gold.PLP.part.nonpolar>
-37.0194

> <Gold.PLP.part.repulsive>
0.0125

> <Gold.PLP.ligand.clash>
0.0000

> <Gold.PLP.ligand.torsion>
0.8956

> <Gold.PLP.Chemscore.Hbond>
1.0000

> <Gold.PLP.Chemscore.CHOScore>
0.0000

> <Gold.PLP.Chemscore.Metal>
0.0000

> <Gold.Chemscore.Hbonds>
donor molecule, donor type, donor heavy atom, donor atom, acceptor molecule, acceptor atom, score
      P1  H  6896  6909       L1    10  1.00

> <Gold.PLP.Chemscore.Internal.Correction>
0.3189

> <Gold.Rescore>
     Score         DG    S(hbond)    S(metal)    S(lipo)     H(rot)  DE(clash)    DE(int)     intcor
     13.97     -16.31       0.99        0.00      99.81       1.63       0.02       2.32       ----

> <Gold.Chemscore.Fitness>
13.9692

> <Gold.Chemscore.DG>
-16.3107

> <Gold.Chemscore.ZeroCoef>
-5.4800

> <Gold.Chemscore.Hbond>
0.9928

> <Gold.Chemscore.Metal>
0.0000

> <Gold.Chemscore.Lipo>
99.8059

> <Gold.Chemscore.Internal_Hbond>
0.0000

> <Gold.Chemscore.DEClash>
0.0228

> <Gold.Chemscore.DEInternal>
2.3188

> <Gold.Chemscore.Rot>
1.6260

> <Gold.Chemscore.Internal.Correction>
   9.000000E+99

> <Gold.Chemscore.Hbonds>
donor molecule, donor type, donor heavy atom, donor atom, acceptor molecule, acceptor atom, score
      P1  H  6896  6909       L1    10  0.98

> <Gold.Chemscore.Hbond.Weighted>
-3.3159

> <Gold.Chemscore.Metal.Weighted>
-0.0000

> <Gold.Chemscore.Lipo.Weighted>
-11.6773

> <Gold.Chemscore.Internal_Hbond.Weighted>
0.0000

> <Gold.Chemscore.DEClash.Weighted>
0.0228

> <Gold.Chemscore.DEInternal.Weighted>
2.3188

> <Gold.Chemscore.Rot.Weighted>
4.1625

> <Gold.Chemscore.Internal.Correction.Weighted>
   9.000000E+99

> <Gold.Protein.RotatedTorsions>
[ 6907 6896 6895 6894 ] final  173.48 input  -60.11 | X-H torsion
[ 7974 7965 7964 7962 ] final   30.76 input  175.53 | X-H torsion
[ 8008 7997 7996 7995 ] final   -3.34 input   59.86 | X-H torsion
[ 10167 10162 10161 10158 ] final  -49.97 input  -65.29 | X-H torsion
[ 10718 10713 10712 10709 ] final  149.39 input   66.30 | X-H torsion
[ 10763 10752 10751 10750 ] final  168.43 input  -60.55 | X-H torsion
[ 11005 11000 10999 10996 ] final -128.57 input  -57.11 | X-H torsion

> <Gold.Protein.ActiveResidues>
 VAL166  LYS551  ARG553  GLY616  TRP617  ASP618  TYR619  PRO620  LYS621  CYS622 
 ASP623  PHE694  ASN695  SER759  ASP760  ASP761  ALA762  ILE779  LEU786  VAL792 
 PHE793  MET794  SER795  GLU796  ALA797  LYS798  CYS799  TRP800  GLU811  SER814 

> <Gold.Protein.RotatedAtoms>
  151.7676  133.3338  159.3435 H   0  0  0  0  0  0  0  0  0  0  0  0  # atno 6907 bound_to 6896
  150.7474  134.6048  159.6065 H   0  0  0  0  0  0  0  0  0  0  0  0  # atno 6908 bound_to 6896
  152.3363  134.7195  160.0327 H   0  0  0  0  0  0  0  0  0  0  0  0  # atno 6909 bound_to 6896
  146.1592  139.6746  142.9045 H   0  0  0  0  0  0  0  0  0  0  0  0  # atno 7974 bound_to 7965
  154.6259  140.2511  155.7492 H   0  0  0  0  0  0  0  0  0  0  0  0  # atno 8008 bound_to 7997
  156.2453  140.2917  156.0508 H   0  0  0  0  0  0  0  0  0  0  0  0  # atno 8009 bound_to 7997
  155.1822  140.0389  157.2874 H   0  0  0  0  0  0  0  0  0  0  0  0  # atno 8010 bound_to 7997
  140.6660  143.2676  151.4292 H   0  0  0  0  0  0  0  0  0  0  0  0  # atno 10167 bound_to 10162
  157.2967  131.0863  151.1421 H   0  0  0  0  0  0  0  0  0  0  0  0  # atno 10718 bound_to 10713
  154.3684  135.2753  155.2280 H   0  0  0  0  0  0  0  0  0  0  0  0  # atno 10763 bound_to 10752
  154.4438  135.5947  153.6150 H   0  0  0  0  0  0  0  0  0  0  0  0  # atno 10764 bound_to 10752
  152.9839  135.6025  154.3912 H   0  0  0  0  0  0  0  0  0  0  0  0  # atno 10765 bound_to 10752
  140.9505  134.1072  157.4066 H   0  0  0  0  0  0  0  0  0  0  0  0  # atno 11005 bound_to 11000
  145.4631  141.0433  143.2740 LP  0  0  0  0  0  0  0  0  0  0  0  0  # atno 17320 bound_to 7965
  144.8004  139.6151  143.7074 LP  0  0  0  0  0  0  0  0  0  0  0  0  # atno 17321 bound_to 7965
  139.5909  144.1502  152.2086 LP  0  0  0  0  0  0  0  0  0  0  0  0  # atno 17342 bound_to 10162
  140.0856  144.5664  150.7091 LP  0  0  0  0  0  0  0  0  0  0  0  0  # atno 17343 bound_to 10162
  157.2796  130.6743  149.6059 LP  0  0  0  0  0  0  0  0  0  0  0  0  # atno 17370 bound_to 10713
  155.9669  130.4454  150.5499 LP  0  0  0  0  0  0  0  0  0  0  0  0  # atno 17371 bound_to 10713
  139.8846  135.0064  156.6380 LP  0  0  0  0  0  0  0  0  0  0  0  0  # atno 17394 bound_to 11000
  140.7609  133.8818  155.8417 LP  0  0  0  0  0  0  0  0  0  0  0  0  # atno 17395 bound_to 11000

$$$$
