AV-unprocessed.smi:2592|AV-procd|sdf|10160|dock1
  -GOLD-   2272014173D 1   1.00000     0.00000
 Structure written by MMmdl.
 42 43  0  0  0  0  0  0  0  0  1 V2000
  152.0534  144.1277  160.9791 C   0  0  0  0  0  0  0  0  0  0  0  0
  151.7836  143.1652  159.8634 C   0  0  0  0  0  0  0  0  0  0  0  0
  150.8618  143.5031  158.8680 N   0  0  0  0  0  0  0  0  0  0  0  0
  150.7336  142.5411  157.9489 C   0  0  0  0  0  0  0  0  0  0  0  0
  149.8662  142.6137  156.8276 N   0  0  0  0  0  0  0  0  0  0  0  0
  149.5257  141.6315  155.9750 C   0  0  0  0  0  0  0  0  0  0  0  0
  149.9246  140.4678  156.0332 O   0  0  0  0  0  0  0  0  0  0  0  0
  148.6798  142.0767  155.0346 N   0  0  0  0  0  0  0  0  0  0  0  0
  148.1148  141.2637  153.9636 C   0  0  0  0  0  0  0  0  0  0  0  0
  146.5781  141.2899  153.9836 C   0  0  0  0  0  0  0  0  0  0  0  0
  146.0153  142.6440  153.5193 C   0  0  0  0  0  0  0  0  0  0  0  0
  144.9965  143.2240  154.3934 N   0  0  0  0  0  0  0  0  0  0  0  0
  145.4245  143.2922  155.7892 C   0  0  0  0  0  0  0  0  0  0  0  0
  144.3534  143.9346  156.6884 C   0  0  0  0  0  0  0  0  0  0  0  0
  144.0238  145.2282  156.1933 O   0  0  0  0  0  0  0  0  0  0  0  0
  143.5547  145.1971  154.8496 C   0  0  0  0  0  0  0  0  0  0  0  0
  144.6263  144.5627  153.9460 C   0  0  0  0  0  0  0  0  0  0  0  0
  151.7485  141.1409  158.2490 S   0  0  0  0  0  0  0  0  0  0  0  0
  152.3581  141.9280  159.6837 C   0  0  0  0  0  0  0  0  0  0  0  0
  153.3743  141.2607  160.5496 C   0  0  0  0  0  0  0  0  0  0  0  0
  151.9508  143.6424  161.9499 H   0  0  0  0  0  0  0  0  0  0  0  0
  151.3633  144.9721  160.9606 H   0  0  0  0  0  0  0  0  0  0  0  0
  153.0653  144.5278  160.9145 H   0  0  0  0  0  0  0  0  0  0  0  0
  149.4554  143.5194  156.6562 H   0  0  0  0  0  0  0  0  0  0  0  0
  148.4048  143.0475  155.0619 H   0  0  0  0  0  0  0  0  0  0  0  0
  148.4795  141.6565  153.0144 H   0  0  0  0  0  0  0  0  0  0  0  0
  148.4820  140.2385  154.0365 H   0  0  0  0  0  0  0  0  0  0  0  0
  146.1897  140.5001  153.3391 H   0  0  0  0  0  0  0  0  0  0  0  0
  146.2358  141.0646  154.9935 H   0  0  0  0  0  0  0  0  0  0  0  0
  146.8335  143.3531  153.3848 H   0  0  0  0  0  0  0  0  0  0  0  0
  145.5814  142.4975  152.5291 H   0  0  0  0  0  0  0  0  0  0  0  0
  145.6417  142.2945  156.1688 H   0  0  0  0  0  0  0  0  0  0  0  0
  146.3499  143.8654  155.8653 H   0  0  0  0  0  0  0  0  0  0  0  0
  143.4573  143.3128  156.7262 H   0  0  0  0  0  0  0  0  0  0  0  0
  144.7224  144.0274  157.7099 H   0  0  0  0  0  0  0  0  0  0  0  0
  142.6204  144.6360  154.7950 H   0  0  0  0  0  0  0  0  0  0  0  0
  143.3376  146.2144  154.5240 H   0  0  0  0  0  0  0  0  0  0  0  0
  145.5088  145.2045  153.9302 H   0  0  0  0  0  0  0  0  0  0  0  0
  144.2531  144.5212  152.9221 H   0  0  0  0  0  0  0  0  0  0  0  0
  154.2005  141.9371  160.7700 H   0  0  0  0  0  0  0  0  0  0  0  0
  153.7869  140.3760  160.0644 H   0  0  0  0  0  0  0  0  0  0  0  0
  152.9297  140.9499  161.4951 H   0  0  0  0  0  0  0  0  0  0  0  0
  1  2  1  0  0  0  0
  1 21  1  0  0  0  0
  1 22  1  0  0  0  0
  1 23  1  0  0  0  0
  2 19  2  0  0  0  0
  2  3  1  0  0  0  0
  3  4  2  0  0  0  0
  4  5  1  0  0  0  0
  4 18  1  0  0  0  0
  5  6  1  0  0  0  0
  5 24  1  0  0  0  0
  6  7  2  0  0  0  0
  6  8  1  0  0  0  0
  8  9  1  0  0  0  0
  8 25  1  0  0  0  0
  9 10  1  0  0  0  0
  9 26  1  0  0  0  0
  9 27  1  0  0  0  0
 10 11  1  0  0  0  0
 10 28  1  0  0  0  0
 10 29  1  0  0  0  0
 11 12  1  0  0  0  0
 11 30  1  0  0  0  0
 11 31  1  0  0  0  0
 12 17  1  0  0  0  0
 12 13  1  0  0  0  0
 13 14  1  0  0  0  0
 13 32  1  0  0  0  0
 13 33  1  0  0  0  0
 14 15  1  0  0  0  0
 14 34  1  0  0  0  0
 14 35  1  0  0  0  0
 15 16  1  0  0  0  0
 16 17  1  0  0  0  0
 16 36  1  0  0  0  0
 16 37  1  0  0  0  0
 17 38  1  0  0  0  0
 17 39  1  0  0  0  0
 18 19  1  0  0  0  0
 19 20  1  0  0  0  0
 20 40  1  0  0  0  0
 20 41  1  0  0  0  0
 20 42  1  0  0  0  0
M  END
> <s_m_source_file>
AV-unprocessed.smi

> <i_m_source_file_index>
2592

> <i_lp_mmshare_version>
43012

> <i_f3d_flags>
0

> <s_epik_input>
W0NIM11jMW5jKHNjMVtDSDNdKVtOSF1DKD1PKVtOSF1bQ0gyXVtDSDJdW0NIMl1OMltDSDJdW0NIMl1PW0NIMl1bQ0gyXTI=

> <s_epik_cmdline>
J2VwaWtfcHl0aG9uJywgJy1waCcsICc3LjAnLCAnLXRuJywgJzgnLCAnLW1hJywgJzIwMCcsICctbWV0YWxfYmluZGluZycsICctaW1hZScsICc8aW5maWxlLm1hZT4nLCAnLW9tYWUnLCAnPG91dGZpbGUubWFlPic=

> <r_lp_tautomer_probability>
0.999

> <r_epik_Ionization_Penalty>
0.575986

> <r_epik_Ionization_Penalty_Charging>
0

> <r_epik_Ionization_Penalty_Neutral>
0.575986

> <r_epik_State_Penalty>
0.588115

> <r_epik_Charging_Adjusted_Penalty>
0.588115

> <i_epik_Tot_Q>
0

> <i_epik_Tot_abs_Q>
0

> <r_epik_Metal_State_Penalty>
0.606929

> <b_epik_Metal_Only>
0

> <s_lp_Force_Field>
OPLS_2005

> <r_lp_Energy>
19.7719

> <b_lp_Chiralities_Consistent>
1

> <s_lp_Variant>
AV-unprocessed.smi:2592-2

> <Gold.Version>
5.8.1

> <Gold.Id.Protein>
6NUR|6NUR_protein|mol2

> <Gold.PLP.Fitness>
46.0344

> <Gold.PLP.PLP>
-40.9381

> <Gold.PLP.part.hbond>
-2.0000

> <Gold.PLP.part.metal>
0.0000

> <Gold.PLP.part.buried>
-7.4448

> <Gold.PLP.part.nonpolar>
-31.7610

> <Gold.PLP.part.repulsive>
0.5668

> <Gold.PLP.ligand.clash>
0.0000

> <Gold.PLP.ligand.torsion>
0.4375

> <Gold.PLP.Chemscore.Hbond>
1.9760

> <Gold.PLP.Chemscore.CHOScore>
0.0000

> <Gold.PLP.Chemscore.Metal>
0.0000

> <Gold.Chemscore.Hbonds>
donor molecule, donor type, donor heavy atom, donor atom, acceptor molecule, acceptor atom, score
      L1  H     5    24       P1  8028  1.00
      L1  H     8    25       P1  8028  0.91

> <Gold.PLP.Chemscore.Internal.Correction>
0.0434

> <Gold.Rescore>
     Score         DG    S(hbond)    S(metal)    S(lipo)     H(rot)  DE(clash)    DE(int)     intcor
     17.02     -18.77       1.97        0.00      94.31       1.69       0.12       1.63       ----

> <Gold.Chemscore.Fitness>
17.0236

> <Gold.Chemscore.DG>
-18.7673

> <Gold.Chemscore.ZeroCoef>
-5.4800

> <Gold.Chemscore.Hbond>
1.9694

> <Gold.Chemscore.Metal>
0.0000

> <Gold.Chemscore.Lipo>
94.3065

> <Gold.Chemscore.Internal_Hbond>
0.0000

> <Gold.Chemscore.DEClash>
0.1171

> <Gold.Chemscore.DEInternal>
1.6266

> <Gold.Chemscore.Rot>
1.6892

> <Gold.Chemscore.Internal.Correction>
   9.000000E+99

> <Gold.Chemscore.Hbonds>
donor molecule, donor type, donor heavy atom, donor atom, acceptor molecule, acceptor atom, score
      L1  H     5    24       P1  8028  0.97
      L1  H     8    25       P1  8028  0.89

> <Gold.Chemscore.Hbond.Weighted>
-6.5778

> <Gold.Chemscore.Metal.Weighted>
-0.0000

> <Gold.Chemscore.Lipo.Weighted>
-11.0339

> <Gold.Chemscore.Internal_Hbond.Weighted>
0.0000

> <Gold.Chemscore.DEClash.Weighted>
0.1171

> <Gold.Chemscore.DEInternal.Weighted>
1.6266

> <Gold.Chemscore.Rot.Weighted>
4.3243

> <Gold.Chemscore.Internal.Correction.Weighted>
   9.000000E+99

> <Gold.Protein.RotatedTorsions>
[ 6907 6896 6895 6894 ] final   11.74 input  -60.11 | X-H torsion
[ 7974 7965 7964 7962 ] final   31.20 input  175.53 | X-H torsion
[ 8008 7997 7996 7995 ] final -176.41 input   59.86 | X-H torsion
[ 10167 10162 10161 10158 ] final  134.09 input  -65.29 | X-H torsion
[ 10718 10713 10712 10709 ] final  167.82 input   66.30 | X-H torsion
[ 10763 10752 10751 10750 ] final  -22.54 input  -60.55 | X-H torsion
[ 11005 11000 10999 10996 ] final  -65.07 input  -57.11 | X-H torsion

> <Gold.Protein.ActiveResidues>
 VAL166  LYS551  ARG553  GLY616  TRP617  ASP618  TYR619  PRO620  LYS621  CYS622 
 ASP623  PHE694  ASN695  SER759  ASP760  ASP761  ALA762  ILE779  LEU786  VAL792 
 PHE793  MET794  SER795  GLU796  ALA797  LYS798  CYS799  TRP800  GLU811  SER814 

> <Gold.Protein.RotatedAtoms>
  151.7592  135.0814  160.0342 H   0  0  0  0  0  0  0  0  0  0  0  0  # atno 6907 bound_to 6896
  152.3364  133.6013  159.5854 H   0  0  0  0  0  0  0  0  0  0  0  0  # atno 6908 bound_to 6896
  150.7453  133.9705  159.3586 H   0  0  0  0  0  0  0  0  0  0  0  0  # atno 6909 bound_to 6896
  146.1565  139.6688  142.9063 H   0  0  0  0  0  0  0  0  0  0  0  0  # atno 7974 bound_to 7965
  155.9946  140.1208  157.0606 H   0  0  0  0  0  0  0  0  0  0  0  0  # atno 8008 bound_to 7997
  154.4222  140.1119  156.5681 H   0  0  0  0  0  0  0  0  0  0  0  0  # atno 8009 bound_to 7997
  155.6296  140.3473  155.4681 H   0  0  0  0  0  0  0  0  0  0  0  0  # atno 8010 bound_to 7997
  139.5270  144.6584  151.5089 H   0  0  0  0  0  0  0  0  0  0  0  0  # atno 10167 bound_to 10162
  157.0461  131.0300  151.2697 H   0  0  0  0  0  0  0  0  0  0  0  0  # atno 10718 bound_to 10713
  153.6535  135.6980  153.5201 H   0  0  0  0  0  0  0  0  0  0  0  0  # atno 10763 bound_to 10752
  153.2688  135.4221  155.0966 H   0  0  0  0  0  0  0  0  0  0  0  0  # atno 10764 bound_to 10752
  154.8470  135.3573  154.6080 H   0  0  0  0  0  0  0  0  0  0  0  0  # atno 10765 bound_to 10752
  141.1444  133.6675  156.5930 H   0  0  0  0  0  0  0  0  0  0  0  0  # atno 11005 bound_to 11000
  145.4696  141.0435  143.2706 LP  0  0  0  0  0  0  0  0  0  0  0  0  # atno 17320 bound_to 7965
  144.7970  139.6215  143.7088 LP  0  0  0  0  0  0  0  0  0  0  0  0  # atno 17321 bound_to 7965
  140.6421  143.8868  150.6702 LP  0  0  0  0  0  0  0  0  0  0  0  0  # atno 17342 bound_to 10162
  140.2206  143.3812  152.1646 LP  0  0  0  0  0  0  0  0  0  0  0  0  # atno 17343 bound_to 10162
  157.5067  130.7913  149.7661 LP  0  0  0  0  0  0  0  0  0  0  0  0  # atno 17370 bound_to 10713
  156.0022  130.3874  150.2561 LP  0  0  0  0  0  0  0  0  0  0  0  0  # atno 17371 bound_to 10713
  140.3748  134.7574  157.4622 LP  0  0  0  0  0  0  0  0  0  0  0  0  # atno 17394 bound_to 11000
  140.0683  134.5899  155.8671 LP  0  0  0  0  0  0  0  0  0  0  0  0  # atno 17395 bound_to 11000

$$$$
