AV-unprocessed.smi:877|AV-procd|sdf|4029|dock9
  -GOLD-   22720 1523D 1   1.00000     0.00000
 Structure written by MMmdl.
 44 46  0  0  0  0  0  0  0  0  2 V2000
  143.2565  142.8940  156.2486 C   0  0  0  0  0  0  0  0  0  0  0  0
  144.0229  143.0279  155.0605 O   0  0  0  0  0  0  0  0  0  0  0  0
  145.3163  142.5516  155.0657 C   0  0  0  0  0  0  0  0  0  0  0  0
  146.0567  142.6961  153.8746 C   0  0  0  0  0  0  0  0  0  0  0  0
  147.3830  142.2319  153.7879 C   0  0  0  0  0  0  0  0  0  0  0  0
  147.9898  141.6147  154.8997 C   0  0  0  0  0  0  0  0  0  0  0  0
  149.4141  141.0983  154.8091 C   0  0  0  0  0  0  0  0  0  0  0  0
  150.2742  141.5639  155.9436 C   0  0  0  0  0  0  0  0  0  0  0  0
  150.4615  142.8600  156.3269 N   0  3  0  0  0  0  0  0  0  0  0  0
  151.3366  142.9129  157.4115 C   0  0  0  0  0  0  0  0  0  0  0  0
  151.8302  143.9956  158.1326 C   0  0  0  0  0  0  0  0  0  0  0  0
  152.7156  143.7005  159.1900 C   0  0  0  0  0  0  0  0  0  0  0  0
  153.0769  142.3723  159.4961 C   0  0  0  0  0  0  0  0  0  0  0  0
  152.5694  141.2828  158.7573 C   0  0  0  0  0  0  0  0  0  0  0  0
  151.6957  141.5838  157.7129 C   0  0  0  0  0  0  0  0  0  0  0  0
  151.0154  140.7861  156.7859 N   0  0  0  0  0  0  0  0  0  0  0  0
  151.1882  139.3253  156.8396 C   0  0  0  0  0  0  0  0  0  0  0  0
  152.0598  138.7825  155.6892 C   0  0  2  0  0  0  0  0  0  0  0  0
  152.6805  139.8685  155.0278 O   0  0  0  0  0  0  0  0  0  0  0  0
  151.2272  137.9872  154.6689 C   0  0  0  0  0  0  0  0  0  0  0  0
  152.0676  137.1800  153.8717 O   0  0  0  0  0  0  0  0  0  0  0  0
  147.2612  141.4708  156.0977 C   0  0  0  0  0  0  0  0  0  0  0  0
  145.9336  141.9335  156.1825 C   0  0  0  0  0  0  0  0  0  0  0  0
  142.2600  143.3022  156.0813 H   0  0  0  0  0  0  0  0  0  0  0  0
  143.7041  143.4452  157.0766 H   0  0  0  0  0  0  0  0  0  0  0  0
  143.1402  141.8469  156.5318 H   0  0  0  0  0  0  0  0  0  0  0  0
  145.6009  143.1664  153.0156 H   0  0  0  0  0  0  0  0  0  0  0  0
  147.9296  142.3495  152.8636 H   0  0  0  0  0  0  0  0  0  0  0  0
  149.4189  140.0081  154.7885 H   0  0  0  0  0  0  0  0  0  0  0  0
  149.8400  141.4298  153.8622 H   0  0  0  0  0  0  0  0  0  0  0  0
  151.5555  145.0139  157.8990 H   0  0  0  0  0  0  0  0  0  0  0  0
  153.1264  144.5088  159.7777 H   0  0  0  0  0  0  0  0  0  0  0  0
  153.7581  142.1847  160.3135 H   0  0  0  0  0  0  0  0  0  0  0  0
  152.8552  140.2695  158.9976 H   0  0  0  0  0  0  0  0  0  0  0  0
  151.6182  139.0666  157.8078 H   0  0  0  0  0  0  0  0  0  0  0  0
  150.1983  138.8687  156.8185 H   0  0  0  0  0  0  0  0  0  0  0  0
  152.8377  138.1414  156.1063 H   0  0  0  0  0  0  0  0  0  0  0  0
  152.5276  139.7821  154.0992 H   0  0  0  0  0  0  0  0  0  0  0  0
  150.5344  137.3220  155.1857 H   0  0  0  0  0  0  0  0  0  0  0  0
  150.6293  138.6466  154.0386 H   0  0  0  0  0  0  0  0  0  0  0  0
  151.6198  136.9860  153.0624 H   0  0  0  0  0  0  0  0  0  0  0  0
  147.7176  140.9978  156.9553 H   0  0  0  0  0  0  0  0  0  0  0  0
  145.4091  141.8011  157.1165 H   0  0  0  0  0  0  0  0  0  0  0  0
  150.0266  143.6501  155.8678 H   0  0  0  0  0  0  0  0  0  0  0  0
  1  2  1  0  0  0  0
  1 24  1  0  0  0  0
  1 25  1  0  0  0  0
  1 26  1  0  0  0  0
  2  3  1  0  0  0  0
  3 23  1  0  0  0  0
  3  4  2  0  0  0  0
  4  5  1  0  0  0  0
  4 27  1  0  0  0  0
  5  6  2  0  0  0  0
  5 28  1  0  0  0  0
  6  7  1  0  0  0  0
  6 22  1  0  0  0  0
  7  8  1  0  0  0  0
  7 29  1  0  0  0  0
  7 30  1  0  0  0  0
  8 16  1  0  0  0  0
  8  9  2  0  0  0  0
  9 10  1  0  0  0  0
  9 44  1  0  0  0  0
 10 15  2  0  0  0  0
 10 11  1  0  0  0  0
 11 12  2  0  0  0  0
 11 31  1  0  0  0  0
 12 13  1  0  0  0  0
 12 32  1  0  0  0  0
 13 14  2  0  0  0  0
 13 33  1  0  0  0  0
 14 15  1  0  0  0  0
 14 34  1  0  0  0  0
 15 16  1  0  0  0  0
 16 17  1  0  0  0  0
 17 18  1  0  0  0  0
 17 35  1  0  0  0  0
 17 36  1  0  0  0  0
 18 19  1  0  0  0  0
 18 20  1  0  0  0  0
 18 37  1  0  0  0  0
 19 38  1  0  0  0  0
 20 21  1  0  0  0  0
 20 39  1  0  0  0  0
 20 40  1  0  0  0  0
 21 41  1  0  0  0  0
 22 23  2  0  0  0  0
 22 42  1  0  0  0  0
 23 43  1  0  0  0  0
M  CHG  1   9   1
M  END
> <s_m_source_file>
AV-unprocessed.smi

> <i_m_source_file_index>
877

> <i_lp_mmshare_version>
43012

> <i_f3d_flags>
0

> <s_epik_input>
W0NIM11PYzFbY0hdW2NIXWMoW2NIXVtjSF0xKVtDSDJdYyhuMiluKFtDSDJdW0NASF0oW09IXSlbQ0gyXVtPSF0pYyhjMjMpW2NIXVtjSF1bY0hdW2NIXTM=

> <s_epik_cmdline>
J2VwaWtfcHl0aG9uJywgJy1waCcsICc3LjAnLCAnLXRuJywgJzgnLCAnLW1hJywgJzIwMCcsICctbWV0YWxfYmluZGluZycsICctaW1hZScsICc8aW5maWxlLm1hZT4nLCAnLW9tYWUnLCAnPG91dGZpbGUubWFlPic=

> <r_lp_tautomer_probability>
1

> <r_epik_Ionization_Penalty>
1.37112

> <r_epik_Ionization_Penalty_Charging>
1.37111

> <r_epik_Ionization_Penalty_Neutral>
4.48252e-07

> <r_epik_State_Penalty>
1.45083

> <r_epik_Charging_Adjusted_Penalty>
2.82194

> <i_epik_Tot_Q>
1

> <i_epik_Tot_abs_Q>
1

> <r_epik_Metal_State_Penalty>
5.49009

> <b_epik_Metal_Only>
0

> <s_lp_Force_Field>
OPLS_2005

> <r_lp_Energy>
22.2712

> <b_lp_Chiralities_Consistent>
1

> <s_lp_Variant>
AV-unprocessed.smi:877-3

> <Gold.Version>
5.8.1

> <Gold.Id.Protein>
6NUR|6NUR_protein|mol2

> <Gold.PLP.Fitness>
64.9772

> <Gold.PLP.PLP>
-52.1582

> <Gold.PLP.part.hbond>
-4.8672

> <Gold.PLP.part.metal>
0.0000

> <Gold.PLP.part.buried>
-6.8677

> <Gold.PLP.part.nonpolar>
-40.5080

> <Gold.PLP.part.repulsive>
0.2671

> <Gold.PLP.ligand.clash>
0.0000

> <Gold.PLP.ligand.torsion>
1.1115

> <Gold.PLP.Chemscore.Hbond>
5.0000

> <Gold.PLP.Chemscore.CHOScore>
0.0000

> <Gold.PLP.Chemscore.Metal>
0.0000

> <Gold.Chemscore.Hbonds>
donor molecule, donor type, donor heavy atom, donor atom, acceptor molecule, acceptor atom, score
      L1  H     9    44       P1  8028  2.00
      L1  H    21    41       P1  7949  1.00
      P1  H  7997  8010       L1    19  1.00
      P1  H 10752 10765       L1    21  1.00

> <Gold.PLP.Chemscore.Internal.Correction>
0.0420

> <Gold.Rescore>
     Score         DG    S(hbond)    S(metal)    S(lipo)     H(rot)  DE(clash)    DE(int)     intcor
     21.57     -22.83       3.64        0.00     115.17       3.23       0.18       1.08       ----

> <Gold.Chemscore.Fitness>
21.5749

> <Gold.Chemscore.DG>
-22.8339

> <Gold.Chemscore.ZeroCoef>
-5.4800

> <Gold.Chemscore.Hbond>
3.6382

> <Gold.Chemscore.Metal>
0.0000

> <Gold.Chemscore.Lipo>
115.1704

> <Gold.Chemscore.Internal_Hbond>
0.0000

> <Gold.Chemscore.DEClash>
0.1751

> <Gold.Chemscore.DEInternal>
1.0838

> <Gold.Chemscore.Rot>
3.2315

> <Gold.Chemscore.Internal.Correction>
   9.000000E+99

> <Gold.Chemscore.Hbonds>
donor molecule, donor type, donor heavy atom, donor atom, acceptor molecule, acceptor atom, score
      L1  H     9    44       P1  8028  0.95
      L1  H    21    41       P1  7949  0.94
      P1  H  7997  8010       L1    19  0.68
      P1  H 10752 10765       L1    21  0.29

> <Gold.Chemscore.Hbond.Weighted>
-12.1516

> <Gold.Chemscore.Metal.Weighted>
-0.0000

> <Gold.Chemscore.Lipo.Weighted>
-13.4749

> <Gold.Chemscore.Internal_Hbond.Weighted>
0.0000

> <Gold.Chemscore.DEClash.Weighted>
0.1751

> <Gold.Chemscore.DEInternal.Weighted>
1.0838

> <Gold.Chemscore.Rot.Weighted>
8.2727

> <Gold.Chemscore.Internal.Correction.Weighted>
   9.000000E+99

> <Gold.Protein.RotatedTorsions>
[ 6907 6896 6895 6894 ] final  124.14 input  -60.11 | X-H torsion
[ 7974 7965 7964 7962 ] final   56.33 input  175.53 | X-H torsion
[ 8008 7997 7996 7995 ] final  104.61 input   59.86 | X-H torsion
[ 10167 10162 10161 10158 ] final -145.77 input  -65.29 | X-H torsion
[ 10718 10713 10712 10709 ] final -102.77 input   66.30 | X-H torsion
[ 10763 10752 10751 10750 ] final  150.49 input  -60.55 | X-H torsion
[ 11005 11000 10999 10996 ] final   82.69 input  -57.11 | X-H torsion

> <Gold.Protein.ActiveResidues>
 VAL166  LYS551  ARG553  GLY616  TRP617  ASP618  TYR619  PRO620  LYS621  CYS622 
 ASP623  PHE694  ASN695  SER759  ASP760  ASP761  ALA762  ILE779  LEU786  VAL792 
 PHE793  MET794  SER795  GLU796  ALA797  LYS798  CYS799  TRP800  GLU811  SER814 

> <Gold.Protein.RotatedAtoms>
  152.4103  133.6953  159.6391 H   0  0  0  0  0  0  0  0  0  0  0  0  # atno 6907 bound_to 6896
  150.7984  133.8636  159.3247 H   0  0  0  0  0  0  0  0  0  0  0  0  # atno 6908 bound_to 6896
  151.6380  135.1017  160.0187 H   0  0  0  0  0  0  0  0  0  0  0  0  # atno 6909 bound_to 6896
  145.9409  139.3888  143.0364 H   0  0  0  0  0  0  0  0  0  0  0  0  # atno 7974 bound_to 7965
  156.1588  140.3145  155.8771 H   0  0  0  0  0  0  0  0  0  0  0  0  # atno 8008 bound_to 7997
  155.3825  140.0488  157.3060 H   0  0  0  0  0  0  0  0  0  0  0  0  # atno 8009 bound_to 7997
  154.5126  140.2170  155.9137 H   0  0  0  0  0  0  0  0  0  0  0  0  # atno 8010 bound_to 7997
  139.7775  143.8149  152.2634 H   0  0  0  0  0  0  0  0  0  0  0  0  # atno 10167 bound_to 10162
  156.0241  130.5436  150.7157 H   0  0  0  0  0  0  0  0  0  0  0  0  # atno 10718 bound_to 10713
  154.0883  135.2854  155.3277 H   0  0  0  0  0  0  0  0  0  0  0  0  # atno 10763 bound_to 10752
  154.6637  135.5325  153.8054 H   0  0  0  0  0  0  0  0  0  0  0  0  # atno 10764 bound_to 10752
  153.0423  135.6540  154.1053 H   0  0  0  0  0  0  0  0  0  0  0  0  # atno 10765 bound_to 10752
  139.9055  134.8089  156.2208 H   0  0  0  0  0  0  0  0  0  0  0  0  # atno 11005 bound_to 11000
  145.8300  140.9635  143.0854 LP  0  0  0  0  0  0  0  0  0  0  0  0  # atno 17320 bound_to 7965
  144.6779  140.0151  143.7484 LP  0  0  0  0  0  0  0  0  0  0  0  0  # atno 17321 bound_to 7965
  139.8202  144.7299  150.9583 LP  0  0  0  0  0  0  0  0  0  0  0  0  # atno 17342 bound_to 10162
  140.7817  143.4166  151.0907 LP  0  0  0  0  0  0  0  0  0  0  0  0  # atno 17343 bound_to 10162
  157.4785  131.0900  151.0563 LP  0  0  0  0  0  0  0  0  0  0  0  0  # atno 17370 bound_to 10713
  157.1003  130.5979  149.5459 LP  0  0  0  0  0  0  0  0  0  0  0  0  # atno 17371 bound_to 10713
  141.0407  133.6939  156.1592 LP  0  0  0  0  0  0  0  0  0  0  0  0  # atno 17394 bound_to 11000
  140.6960  134.4615  157.5587 LP  0  0  0  0  0  0  0  0  0  0  0  0  # atno 17395 bound_to 11000

$$$$
