AV-unprocessed.smi:1373|AV-procd|sdf|5586|dock1
  -GOLD-   22720 5183D 1   1.00000     0.00000
 Structure written by MMmdl.
 42 43  0  0  0  0  0  0  0  0  1 V2000
  151.8978  145.0345  159.2448 C   0  0  0  0  0  0  0  0  0  0  0  0
  151.6787  144.4046  157.8648 C   0  0  0  0  0  0  0  0  0  0  0  0
  150.9451  143.0585  157.9413 C   0  0  0  0  0  0  0  0  0  0  0  0
  151.0640  142.2498  156.6400 C   0  0  0  0  0  0  0  0  0  0  0  0
  149.8369  142.3194  155.8561 N   0  0  0  0  0  0  0  0  0  0  0  0
  149.4876  141.4595  154.8850 C   0  0  0  0  0  0  0  0  0  0  0  0
  150.1776  140.4940  154.5581 O   0  0  0  0  0  0  0  0  0  0  0  0
  148.1479  141.7107  154.1855 C   0  0  0  0  0  0  0  0  0  0  0  0
  147.0235  141.7747  155.1710 C   0  0  0  0  0  0  0  0  0  0  0  0
  145.7567  141.8283  154.7750 N   0  0  0  0  0  0  0  0  0  0  0  0
  145.0434  141.9098  155.9797 O   0  0  0  0  0  0  0  0  0  0  0  0
  145.9754  141.8884  156.9623 C   0  0  0  0  0  0  0  0  0  0  0  0
  145.5315  141.9964  158.3851 C   0  0  0  0  0  0  0  0  0  0  0  0
  146.2104  143.0560  159.1290 N   0  0  0  0  0  0  0  0  0  0  0  0
  145.8814  142.9960  160.5484 C   0  0  0  0  0  0  0  0  0  0  0  0
  146.5852  144.1065  161.3474 C   0  0  0  0  0  0  0  0  0  0  0  0
  147.9927  144.0168  161.1502 O   0  0  0  0  0  0  0  0  0  0  0  0
  148.3624  144.1174  159.7787 C   0  0  0  0  0  0  0  0  0  0  0  0
  147.6634  143.0092  158.9722 C   0  0  0  0  0  0  0  0  0  0  0  0
  147.2256  141.7908  156.5182 N   0  0  0  0  0  0  0  0  0  0  0  0
  152.4258  145.9846  159.1592 H   0  0  0  0  0  0  0  0  0  0  0  0
  152.4905  144.3816  159.8862 H   0  0  0  0  0  0  0  0  0  0  0  0
  150.9483  145.2254  159.7456 H   0  0  0  0  0  0  0  0  0  0  0  0
  151.1124  145.0964  157.2404 H   0  0  0  0  0  0  0  0  0  0  0  0
  152.6437  144.2666  157.3758 H   0  0  0  0  0  0  0  0  0  0  0  0
  151.3465  142.4772  158.7725 H   0  0  0  0  0  0  0  0  0  0  0  0
  149.8917  143.2314  158.1657 H   0  0  0  0  0  0  0  0  0  0  0  0
  151.8767  142.6451  156.0297 H   0  0  0  0  0  0  0  0  0  0  0  0
  151.3163  141.2100  156.8557 H   0  0  0  0  0  0  0  0  0  0  0  0
  149.2077  143.0823  156.0617 H   0  0  0  0  0  0  0  0  0  0  0  0
  148.1932  142.6432  153.6208 H   0  0  0  0  0  0  0  0  0  0  0  0
  147.9618  140.9126  153.4657 H   0  0  0  0  0  0  0  0  0  0  0  0
  144.4567  142.1815  158.3808 H   0  0  0  0  0  0  0  0  0  0  0  0
  145.6798  141.0335  158.8765 H   0  0  0  0  0  0  0  0  0  0  0  0
  144.8028  143.0837  160.6825 H   0  0  0  0  0  0  0  0  0  0  0  0
  146.1682  142.0243  160.9543 H   0  0  0  0  0  0  0  0  0  0  0  0
  146.2290  145.0902  161.0375 H   0  0  0  0  0  0  0  0  0  0  0  0
  146.3663  144.0060  162.4106 H   0  0  0  0  0  0  0  0  0  0  0  0
  148.0939  145.1024  159.3935 H   0  0  0  0  0  0  0  0  0  0  0  0
  149.4449  144.0234  159.6921 H   0  0  0  0  0  0  0  0  0  0  0  0
  148.0391  142.0366  159.2938 H   0  0  0  0  0  0  0  0  0  0  0  0
  147.9346  143.1165  157.9218 H   0  0  0  0  0  0  0  0  0  0  0  0
  1  2  1  0  0  0  0
  1 21  1  0  0  0  0
  1 22  1  0  0  0  0
  1 23  1  0  0  0  0
  2  3  1  0  0  0  0
  2 24  1  0  0  0  0
  2 25  1  0  0  0  0
  3  4  1  0  0  0  0
  3 26  1  0  0  0  0
  3 27  1  0  0  0  0
  4  5  1  0  0  0  0
  4 28  1  0  0  0  0
  4 29  1  0  0  0  0
  5  6  1  0  0  0  0
  5 30  1  0  0  0  0
  6  7  2  0  0  0  0
  6  8  1  0  0  0  0
  8  9  1  0  0  0  0
  8 31  1  0  0  0  0
  8 32  1  0  0  0  0
  9 20  1  0  0  0  0
  9 10  2  0  0  0  0
 10 11  1  0  0  0  0
 11 12  1  0  0  0  0
 12 13  1  0  0  0  0
 12 20  2  0  0  0  0
 13 14  1  0  0  0  0
 13 33  1  0  0  0  0
 13 34  1  0  0  0  0
 14 19  1  0  0  0  0
 14 15  1  0  0  0  0
 15 16  1  0  0  0  0
 15 35  1  0  0  0  0
 15 36  1  0  0  0  0
 16 17  1  0  0  0  0
 16 37  1  0  0  0  0
 16 38  1  0  0  0  0
 17 18  1  0  0  0  0
 18 19  1  0  0  0  0
 18 39  1  0  0  0  0
 18 40  1  0  0  0  0
 19 41  1  0  0  0  0
 19 42  1  0  0  0  0
M  END
> <s_m_source_file>
AV-unprocessed.smi

> <i_m_source_file_index>
1373

> <i_lp_mmshare_version>
43012

> <i_f3d_flags>
0

> <s_epik_input>
W0NIM11bQ0gyXVtDSDJdW0NIMl1bTkhdQyg9TylbQ0gyXWMxbm9jKG4xKVtDSDJdTjJbQ0gyXVtDSDJdT1tDSDJdW0NIMl0y

> <s_epik_cmdline>
J2VwaWtfcHl0aG9uJywgJy1waCcsICc3LjAnLCAnLXRuJywgJzgnLCAnLW1hJywgJzIwMCcsICctbWV0YWxfYmluZGluZycsICctaW1hZScsICc8aW5maWxlLm1hZT4nLCAnLW9tYWUnLCAnPG91dGZpbGUubWFlPic=

> <r_lp_tautomer_probability>
1

> <r_epik_Ionization_Penalty>
0.0010147

> <r_epik_Ionization_Penalty_Charging>
0

> <r_epik_Ionization_Penalty_Neutral>
0.0010147

> <r_epik_State_Penalty>
0.00066205

> <r_epik_Charging_Adjusted_Penalty>
0.00066205

> <i_epik_Tot_Q>
0

> <i_epik_Tot_abs_Q>
0

> <r_epik_Metal_State_Penalty>
-0

> <b_epik_Metal_Only>
0

> <s_lp_Force_Field>
OPLS_2005

> <r_lp_Energy>
19.0751

> <b_lp_Chiralities_Consistent>
1

> <s_lp_Variant>
AV-unprocessed.smi:1373-1

> <Gold.Version>
5.8.1

> <Gold.Id.Protein>
6NUR|6NUR_protein|mol2

> <Gold.PLP.Fitness>
44.0141

> <Gold.PLP.PLP>
-36.2632

> <Gold.PLP.part.hbond>
-3.0000

> <Gold.PLP.part.metal>
0.0000

> <Gold.PLP.part.buried>
-5.4043

> <Gold.PLP.part.nonpolar>
-27.8172

> <Gold.PLP.part.repulsive>
0.9034

> <Gold.PLP.ligand.clash>
0.0000

> <Gold.PLP.ligand.torsion>
0.6868

> <Gold.PLP.Chemscore.Hbond>
2.9520

> <Gold.PLP.Chemscore.CHOScore>
0.0000

> <Gold.PLP.Chemscore.Metal>
0.0000

> <Gold.Chemscore.Hbonds>
donor molecule, donor type, donor heavy atom, donor atom, acceptor molecule, acceptor atom, score
      L1  H     5    30       P1  8028  0.85
      P1  H  6933  6944       L1    17  0.95
      P1  H  7989  7998       L1     7  0.93

> <Gold.PLP.Chemscore.Internal.Correction>
0.2684

> <Gold.Rescore>
     Score         DG    S(hbond)    S(metal)    S(lipo)     H(rot)  DE(clash)    DE(int)     intcor
     10.44     -14.05       1.76        0.00      73.11       2.29       0.17       3.44       ----

> <Gold.Chemscore.Fitness>
10.4394

> <Gold.Chemscore.DG>
-14.0495

> <Gold.Chemscore.ZeroCoef>
-5.4800

> <Gold.Chemscore.Hbond>
1.7609

> <Gold.Chemscore.Metal>
0.0000

> <Gold.Chemscore.Lipo>
73.1068

> <Gold.Chemscore.Internal_Hbond>
0.0000

> <Gold.Chemscore.DEClash>
0.1721

> <Gold.Chemscore.DEInternal>
3.4380

> <Gold.Chemscore.Rot>
2.2912

> <Gold.Chemscore.Internal.Correction>
   9.000000E+99

> <Gold.Chemscore.Hbonds>
donor molecule, donor type, donor heavy atom, donor atom, acceptor molecule, acceptor atom, score
      L1  H     5    30       P1  8028  0.83
      P1  H  6933  6944       L1    17  0.15
      P1  H  7989  7998       L1     7  0.81

> <Gold.Chemscore.Hbond.Weighted>
-5.8815

> <Gold.Chemscore.Metal.Weighted>
-0.0000

> <Gold.Chemscore.Lipo.Weighted>
-8.5535

> <Gold.Chemscore.Internal_Hbond.Weighted>
0.0000

> <Gold.Chemscore.DEClash.Weighted>
0.1721

> <Gold.Chemscore.DEInternal.Weighted>
3.4380

> <Gold.Chemscore.Rot.Weighted>
5.8654

> <Gold.Chemscore.Internal.Correction.Weighted>
   9.000000E+99

> <Gold.Protein.RotatedTorsions>
[ 6907 6896 6895 6894 ] final -112.99 input  -60.11 | X-H torsion
[ 7974 7965 7964 7962 ] final -102.63 input  175.53 | X-H torsion
[ 8008 7997 7996 7995 ] final  -19.65 input   59.86 | X-H torsion
[ 10167 10162 10161 10158 ] final  -14.25 input  -65.29 | X-H torsion
[ 10718 10713 10712 10709 ] final  -57.98 input   66.30 | X-H torsion
[ 10763 10752 10751 10750 ] final  149.06 input  -60.55 | X-H torsion
[ 11005 11000 10999 10996 ] final -139.57 input  -57.11 | X-H torsion

> <Gold.Protein.ActiveResidues>
 VAL166  LYS551  ARG553  GLY616  TRP617  ASP618  TYR619  PRO620  LYS621  CYS622 
 ASP623  PHE694  ASN695  SER759  ASP760  ASP761  ALA762  ILE779  LEU786  VAL792 
 PHE793  MET794  SER795  GLU796  ALA797  LYS798  CYS799  TRP800  GLU811  SER814 

> <Gold.Protein.RotatedAtoms>
  150.7797  133.9010  159.3340 H   0  0  0  0  0  0  0  0  0  0  0  0  # atno 6907 bound_to 6896
  151.6876  135.0950  160.0237 H   0  0  0  0  0  0  0  0  0  0  0  0  # atno 6908 bound_to 6896
  152.3844  133.6553  159.6223 H   0  0  0  0  0  0  0  0  0  0  0  0  # atno 6909 bound_to 6896
  145.2663  140.9285  143.3012 H   0  0  0  0  0  0  0  0  0  0  0  0  # atno 7974 bound_to 7965
  154.4822  140.2083  155.9737 H   0  0  0  0  0  0  0  0  0  0  0  0  # atno 8008 bound_to 7997
  156.1182  140.3218  155.8139 H   0  0  0  0  0  0  0  0  0  0  0  0  # atno 8009 bound_to 7997
  155.4515  140.0517  157.2991 H   0  0  0  0  0  0  0  0  0  0  0  0  # atno 8010 bound_to 7997
  140.7197  143.5342  150.9485 H   0  0  0  0  0  0  0  0  0  0  0  0  # atno 10167 bound_to 10162
  156.1169  130.4169  150.0515 H   0  0  0  0  0  0  0  0  0  0  0  0  # atno 10718 bound_to 10713
  154.0650  135.2871  155.3318 H   0  0  0  0  0  0  0  0  0  0  0  0  # atno 10763 bound_to 10752
  154.6783  135.5273  153.8232 H   0  0  0  0  0  0  0  0  0  0  0  0  # atno 10764 bound_to 10752
  153.0507  135.6575  154.0836 H   0  0  0  0  0  0  0  0  0  0  0  0  # atno 10765 bound_to 10752
  140.8507  134.2289  157.4762 H   0  0  0  0  0  0  0  0  0  0  0  0  # atno 11005 bound_to 11000
  144.9374  139.4228  143.6465 LP  0  0  0  0  0  0  0  0  0  0  0  0  # atno 17320 bound_to 7965
  146.3260  139.8316  142.8907 LP  0  0  0  0  0  0  0  0  0  0  0  0  # atno 17321 bound_to 7965
  139.9063  143.6775  152.3123 LP  0  0  0  0  0  0  0  0  0  0  0  0  # atno 17342 bound_to 10162
  139.7142  144.7615  151.1062 LP  0  0  0  0  0  0  0  0  0  0  0  0  # atno 17343 bound_to 10162
  156.8463  130.9443  151.3628 LP  0  0  0  0  0  0  0  0  0  0  0  0  # atno 17370 bound_to 10713
  157.6353  130.8761  149.9347 LP  0  0  0  0  0  0  0  0  0  0  0  0  # atno 17371 bound_to 10713
  139.8704  134.9682  156.4622 LP  0  0  0  0  0  0  0  0  0  0  0  0  # atno 17394 bound_to 11000
  140.8793  133.7929  155.9449 LP  0  0  0  0  0  0  0  0  0  0  0  0  # atno 17395 bound_to 11000

$$$$
