AV-unprocessed.smi:2155|AV-procd|sdf|8778|dock2
  -GOLD-   2272011553D 1   1.00000     0.00000
 Structure written by MMmdl.
 42 43  0  0  0  0  0  0  0  0  1 V2000
  160.0725  145.0216  168.2557 C   0  0  0  0  0  0  0  0  0  0  0  0
  158.6333  145.1827  168.2387 N   0  0  0  0  0  0  0  0  0  0  0  0
  158.0451  146.2010  169.0278 C   0  0  0  0  0  0  0  0  0  0  0  0
  158.7082  146.9622  169.7331 O   0  0  0  0  0  0  0  0  0  0  0  0
  156.5924  146.2766  168.9286 C   0  0  0  0  0  0  0  0  0  0  0  0
  155.9057  145.4298  168.1310 C   0  0  0  0  0  0  0  0  0  0  0  0
  156.5066  144.4497  167.3623 N   0  0  0  0  0  0  0  0  0  0  0  0
  155.6774  143.5680  166.5300 C   0  0  0  0  0  0  0  0  0  0  0  0
  154.8391  144.3258  165.4909 C   0  0  0  0  0  0  0  0  0  0  0  0
  154.8292  145.5573  165.4592 O   0  0  0  0  0  0  0  0  0  0  0  0
  154.1496  143.5663  164.6287 N   0  0  0  0  0  0  0  0  0  0  0  0
  153.3002  144.0895  163.5658 C   0  0  0  0  0  0  0  0  0  0  0  0
  152.4004  142.9921  162.9719 C   0  0  0  0  0  0  0  0  0  0  0  0
  152.1740  143.1307  161.4736 C   0  0  0  0  0  0  0  0  0  0  0  0
  152.6346  142.2192  160.5946 C   0  0  0  0  0  0  0  0  0  0  0  0
  152.4211  142.2978  159.0932 C   0  0  0  0  0  0  0  0  0  0  0  0
  151.3438  143.3252  158.7075 C   0  0  0  0  0  0  0  0  0  0  0  0
  151.5017  144.6214  159.5120 C   0  0  0  0  0  0  0  0  0  0  0  0
  151.3909  144.3591  161.0246 C   0  0  0  0  0  0  0  0  0  0  0  0
  157.9100  144.3061  167.4001 C   0  0  0  0  0  0  0  0  0  0  0  0
  158.4737  143.4447  166.7200 O   0  0  0  0  0  0  0  0  0  0  0  0
  160.5269  145.6180  169.0463 H   0  0  0  0  0  0  0  0  0  0  0  0
  160.4398  145.3374  167.2781 H   0  0  0  0  0  0  0  0  0  0  0  0
  160.2868  143.9674  168.4410 H   0  0  0  0  0  0  0  0  0  0  0  0
  156.0593  147.0212  169.5018 H   0  0  0  0  0  0  0  0  0  0  0  0
  154.8301  145.5249  168.0953 H   0  0  0  0  0  0  0  0  0  0  0  0
  156.3115  142.8552  166.0009 H   0  0  0  0  0  0  0  0  0  0  0  0
  155.0204  142.9653  167.1599 H   0  0  0  0  0  0  0  0  0  0  0  0
  154.2094  142.5624  164.7181 H   0  0  0  0  0  0  0  0  0  0  0  0
  152.6921  144.9049  163.9602 H   0  0  0  0  0  0  0  0  0  0  0  0
  153.9240  144.5149  162.7783 H   0  0  0  0  0  0  0  0  0  0  0  0
  152.8377  142.0126  163.1676 H   0  0  0  0  0  0  0  0  0  0  0  0
  151.4382  143.0016  163.4858 H   0  0  0  0  0  0  0  0  0  0  0  0
  153.2022  141.3706  160.9477 H   0  0  0  0  0  0  0  0  0  0  0  0
  153.3737  142.5599  158.6320 H   0  0  0  0  0  0  0  0  0  0  0  0
  152.1456  141.3125  158.7162 H   0  0  0  0  0  0  0  0  0  0  0  0
  151.3924  143.5325  157.6381 H   0  0  0  0  0  0  0  0  0  0  0  0
  150.3549  142.9058  158.8968 H   0  0  0  0  0  0  0  0  0  0  0  0
  152.4736  145.0641  159.2897 H   0  0  0  0  0  0  0  0  0  0  0  0
  150.7526  145.3520  159.2059 H   0  0  0  0  0  0  0  0  0  0  0  0
  150.3449  144.2132  161.2963 H   0  0  0  0  0  0  0  0  0  0  0  0
  151.7407  145.2351  161.5717 H   0  0  0  0  0  0  0  0  0  0  0  0
  1  2  1  0  0  0  0
  1 22  1  0  0  0  0
  1 23  1  0  0  0  0
  1 24  1  0  0  0  0
  2 20  1  0  0  0  0
  2  3  1  0  0  0  0
  3  4  2  0  0  0  0
  3  5  1  0  0  0  0
  5  6  2  0  0  0  0
  5 25  1  0  0  0  0
  6  7  1  0  0  0  0
  6 26  1  0  0  0  0
  7  8  1  0  0  0  0
  7 20  1  0  0  0  0
  8  9  1  0  0  0  0
  8 27  1  0  0  0  0
  8 28  1  0  0  0  0
  9 10  2  0  0  0  0
  9 11  1  0  0  0  0
 11 12  1  0  0  0  0
 11 29  1  0  0  0  0
 12 13  1  0  0  0  0
 12 30  1  0  0  0  0
 12 31  1  0  0  0  0
 13 14  1  0  0  0  0
 13 32  1  0  0  0  0
 13 33  1  0  0  0  0
 14 19  1  0  0  0  0
 14 15  2  0  0  0  0
 15 16  1  0  0  0  0
 15 34  1  0  0  0  0
 16 17  1  0  0  0  0
 16 35  1  0  0  0  0
 16 36  1  0  0  0  0
 17 18  1  0  0  0  0
 17 37  1  0  0  0  0
 17 38  1  0  0  0  0
 18 19  1  0  0  0  0
 18 39  1  0  0  0  0
 18 40  1  0  0  0  0
 19 41  1  0  0  0  0
 19 42  1  0  0  0  0
 20 21  2  0  0  0  0
M  END
> <s_m_source_file>
AV-unprocessed.smi

> <i_m_source_file_index>
2155

> <i_lp_mmshare_version>
43012

> <i_f3d_flags>
0

> <s_epik_input>
W0NIM11uMWMoPU8pW2NIXVtjSF1uKGMxPU8pW0NIMl1DKD1PKVtOSF1bQ0gyXVtDSDJdQzI9W0NIXVtDSDJdW0NIMl1bQ0gyXVtDSDJdMg==

> <s_epik_cmdline>
J2VwaWtfcHl0aG9uJywgJy1waCcsICc3LjAnLCAnLXRuJywgJzgnLCAnLW1hJywgJzIwMCcsICctbWV0YWxfYmluZGluZycsICctaW1hZScsICc8aW5maWxlLm1hZT4nLCAnLW9tYWUnLCAnPG91dGZpbGUubWFlPic=

> <r_lp_tautomer_probability>
1

> <r_epik_Ionization_Penalty>
3.01725e-08

> <r_epik_Ionization_Penalty_Charging>
1.20689e-08

> <r_epik_Ionization_Penalty_Neutral>
1.81035e-08

> <r_epik_State_Penalty>
-0

> <r_epik_Charging_Adjusted_Penalty>
1.20689e-08

> <i_epik_Tot_Q>
0

> <i_epik_Tot_abs_Q>
0

> <r_epik_Metal_State_Penalty>
-0

> <b_epik_Metal_Only>
0

> <s_lp_Force_Field>
OPLS_2005

> <r_lp_Energy>
16.2907

> <b_lp_Chiralities_Consistent>
1

> <s_lp_Variant>
AV-unprocessed.smi:2155-1

> <Gold.Version>
5.8.1

> <Gold.Id.Protein>
6NUR|6NUR_protein|mol2

> <Gold.PLP.Fitness>
47.5529

> <Gold.PLP.PLP>
-48.2475

> <Gold.PLP.part.hbond>
-2.0000

> <Gold.PLP.part.metal>
0.0000

> <Gold.PLP.part.buried>
-6.3334

> <Gold.PLP.part.nonpolar>
-40.1408

> <Gold.PLP.part.repulsive>
0.4180

> <Gold.PLP.ligand.clash>
0.0000

> <Gold.PLP.ligand.torsion>
0.3797

> <Gold.PLP.Chemscore.Hbond>
0.0000

> <Gold.PLP.Chemscore.CHOScore>
0.0000

> <Gold.PLP.Chemscore.Metal>
0.0000

> <Gold.PLP.Chemscore.Internal.Correction>
0.0647

> <Gold.Rescore>
     Score         DG    S(hbond)    S(metal)    S(lipo)     H(rot)  DE(clash)    DE(int)     intcor
     10.28     -13.72       0.00        0.00     112.83       1.94       1.77       1.67       ----

> <Gold.Chemscore.Fitness>
10.2835

> <Gold.Chemscore.DG>
-13.7169

> <Gold.Chemscore.ZeroCoef>
-5.4800

> <Gold.Chemscore.Hbond>
0.0000

> <Gold.Chemscore.Metal>
0.0000

> <Gold.Chemscore.Lipo>
112.8278

> <Gold.Chemscore.Internal_Hbond>
0.0000

> <Gold.Chemscore.DEClash>
1.7672

> <Gold.Chemscore.DEInternal>
1.6661

> <Gold.Chemscore.Rot>
1.9390

> <Gold.Chemscore.Internal.Correction>
   9.000000E+99

> <Gold.Chemscore.Hbond.Weighted>
-0.0000

> <Gold.Chemscore.Metal.Weighted>
-0.0000

> <Gold.Chemscore.Lipo.Weighted>
-13.2009

> <Gold.Chemscore.Internal_Hbond.Weighted>
0.0000

> <Gold.Chemscore.DEClash.Weighted>
1.7672

> <Gold.Chemscore.DEInternal.Weighted>
1.6661

> <Gold.Chemscore.Rot.Weighted>
4.9639

> <Gold.Chemscore.Internal.Correction.Weighted>
   9.000000E+99

> <Gold.Protein.RotatedTorsions>
[ 6907 6896 6895 6894 ] final   89.28 input  -60.11 | X-H torsion
[ 7974 7965 7964 7962 ] final  164.85 input  175.53 | X-H torsion
[ 8008 7997 7996 7995 ] final  178.73 input   59.86 | X-H torsion
[ 10167 10162 10161 10158 ] final -174.54 input  -65.29 | X-H torsion
[ 10718 10713 10712 10709 ] final  115.04 input   66.30 | X-H torsion
[ 10763 10752 10751 10750 ] final -163.50 input  -60.55 | X-H torsion
[ 11005 11000 10999 10996 ] final   76.76 input  -57.11 | X-H torsion

> <Gold.Protein.ActiveResidues>
 VAL166  LYS551  ARG553  GLY616  TRP617  ASP618  TYR619  PRO620  LYS621  CYS622 
 ASP623  PHE694  ASN695  SER759  ASP760  ASP761  ALA762  ILE779  LEU786  VAL792 
 PHE793  MET794  SER795  GLU796  ALA797  LYS798  CYS799  TRP800  GLU811  SER814 

> <Gold.Protein.RotatedAtoms>
  152.5434  134.1991  159.8704 H   0  0  0  0  0  0  0  0  0  0  0  0  # atno 6907 bound_to 6896
  151.1981  133.4620  159.2603 H   0  0  0  0  0  0  0  0  0  0  0  0  # atno 6908 bound_to 6896
  151.1016  134.9988  159.8507 H   0  0  0  0  0  0  0  0  0  0  0  0  # atno 6909 bound_to 6896
  144.7527  139.8386  143.6360 H   0  0  0  0  0  0  0  0  0  0  0  0  # atno 7974 bound_to 7965
  156.0513  140.1326  157.0046 H   0  0  0  0  0  0  0  0  0  0  0  0  # atno 8008 bound_to 7997
  154.4436  140.1010  156.6451 H   0  0  0  0  0  0  0  0  0  0  0  0  # atno 8009 bound_to 7997
  155.5519  140.3463  155.4472 H   0  0  0  0  0  0  0  0  0  0  0  0  # atno 8010 bound_to 7997
  139.5628  144.1827  152.1266 H   0  0  0  0  0  0  0  0  0  0  0  0  # atno 10167 bound_to 10162
  157.6246  131.1007  150.7273 H   0  0  0  0  0  0  0  0  0  0  0  0  # atno 10718 bound_to 10713
  154.7116  135.3007  154.9187 H   0  0  0  0  0  0  0  0  0  0  0  0  # atno 10763 bound_to 10752
  154.0087  135.6697  153.4768 H   0  0  0  0  0  0  0  0  0  0  0  0  # atno 10764 bound_to 10752
  153.0760  135.5035  154.8318 H   0  0  0  0  0  0  0  0  0  0  0  0  # atno 10765 bound_to 10752
  139.9284  134.7627  156.1436 H   0  0  0  0  0  0  0  0  0  0  0  0  # atno 11005 bound_to 11000
  146.1499  139.4578  143.0055 LP  0  0  0  0  0  0  0  0  0  0  0  0  # atno 17320 bound_to 7965
  145.6887  141.0170  143.1567 LP  0  0  0  0  0  0  0  0  0  0  0  0  # atno 17321 bound_to 7965
  140.1344  144.5259  150.6782 LP  0  0  0  0  0  0  0  0  0  0  0  0  # atno 17342 bound_to 10162
  140.6910  143.2376  151.5132 LP  0  0  0  0  0  0  0  0  0  0  0  0  # atno 17343 bound_to 10162
  156.7623  130.4802  149.5434 LP  0  0  0  0  0  0  0  0  0  0  0  0  # atno 17370 bound_to 10713
  156.1410  130.6244  151.0467 LP  0  0  0  0  0  0  0  0  0  0  0  0  # atno 17371 bound_to 10713
  141.0857  133.6735  156.2431 LP  0  0  0  0  0  0  0  0  0  0  0  0  # atno 17394 bound_to 11000
  140.6271  134.5302  157.5555 LP  0  0  0  0  0  0  0  0  0  0  0  0  # atno 17395 bound_to 11000

$$$$
