AV-unprocessed.smi:1404|AV-procd|sdf|5706|dock7
  -GOLD-   22720 5343D 1   1.00000     0.00000
 Structure written by MMmdl.
 48 49  0  0  0  0  0  0  0  0  2 V2000
  153.7771  138.2080  157.0556 C   0  0  0  0  0  0  0  0  0  0  0  0
  152.6235  137.8651  156.2500 N   0  0  0  0  0  0  0  0  0  0  0  0
  152.3475  138.6189  155.0834 C   0  0  0  0  0  0  0  0  0  0  0  0
  153.0540  139.5580  154.7157 O   0  0  0  0  0  0  0  0  0  0  0  0
  151.1554  138.1939  154.3592 C   0  0  0  0  0  0  0  0  0  0  0  0
  150.4022  137.1644  154.8039 C   0  0  0  0  0  0  0  0  0  0  0  0
  150.6910  136.4489  155.9516 N   0  0  0  0  0  0  0  0  0  0  0  0
  149.8087  135.3531  156.3709 C   0  0  0  0  0  0  0  0  0  0  0  0
  149.1445  134.6534  155.1793 C   0  0  0  0  0  0  0  0  0  0  0  0
  149.8210  134.0029  154.3820 O   0  0  0  0  0  0  0  0  0  0  0  0
  147.8146  134.7963  155.0743 N   0  0  0  0  0  0  0  0  0  0  0  0
  146.9816  134.2646  153.9962 C   0  0  0  0  0  0  0  0  0  0  0  0
  145.8253  133.3359  154.4841 C   0  0  0  0  0  0  0  0  0  0  0  0
  146.4701  132.1184  155.1985 C   0  0  0  0  0  0  0  0  0  0  0  0
  144.9267  134.0625  155.5158 C   0  0  0  0  0  0  0  0  0  0  0  0
  145.0242  132.9001  153.2802 N   0  3  0  0  0  0  0  0  0  0  0  0
  144.4358  133.9884  152.4470 C   0  0  0  0  0  0  0  0  0  0  0  0
  143.5295  133.4095  151.3457 C   0  0  0  0  0  0  0  0  0  0  0  0
  144.2546  132.4855  150.5479 O   0  0  0  0  0  0  0  0  0  0  0  0
  144.7285  131.3911  151.3181 C   0  0  0  0  0  0  0  0  0  0  0  0
  145.6980  131.9098  152.3911 C   0  0  0  0  0  0  0  0  0  0  0  0
  151.8283  136.7941  156.7133 C   0  0  0  0  0  0  0  0  0  0  0  0
  152.1049  136.1792  157.7469 O   0  0  0  0  0  0  0  0  0  0  0  0
  154.4040  138.9452  156.5550 H   0  0  0  0  0  0  0  0  0  0  0  0
  154.3556  137.2953  157.2102 H   0  0  0  0  0  0  0  0  0  0  0  0
  153.4001  138.6060  157.9992 H   0  0  0  0  0  0  0  0  0  0  0  0
  150.8703  138.7126  153.4555 H   0  0  0  0  0  0  0  0  0  0  0  0
  149.5264  136.8916  154.2329 H   0  0  0  0  0  0  0  0  0  0  0  0
  150.3733  134.6075  156.9325 H   0  0  0  0  0  0  0  0  0  0  0  0
  149.0506  135.7313  157.0598 H   0  0  0  0  0  0  0  0  0  0  0  0
  147.3454  135.3433  155.7819 H   0  0  0  0  0  0  0  0  0  0  0  0
  146.6106  135.0993  153.4037 H   0  0  0  0  0  0  0  0  0  0  0  0
  147.6386  133.7049  153.3294 H   0  0  0  0  0  0  0  0  0  0  0  0
  147.1297  132.4224  156.0114 H   0  0  0  0  0  0  0  0  0  0  0  0
  147.0634  131.5172  154.5088 H   0  0  0  0  0  0  0  0  0  0  0  0
  145.7258  131.4702  155.6613 H   0  0  0  0  0  0  0  0  0  0  0  0
  145.4615  134.2555  156.4461 H   0  0  0  0  0  0  0  0  0  0  0  0
  144.0506  133.4694  155.7777 H   0  0  0  0  0  0  0  0  0  0  0  0
  144.5786  135.0281  155.1489 H   0  0  0  0  0  0  0  0  0  0  0  0
  143.8166  134.6586  153.0403 H   0  0  0  0  0  0  0  0  0  0  0  0
  145.2300  134.5875  152.0002 H   0  0  0  0  0  0  0  0  0  0  0  0
  142.6549  132.9224  151.7801 H   0  0  0  0  0  0  0  0  0  0  0  0
  143.1594  134.2108  150.7058 H   0  0  0  0  0  0  0  0  0  0  0  0
  143.8943  130.8512  151.7689 H   0  0  0  0  0  0  0  0  0  0  0  0
  145.2406  130.6922  150.6563 H   0  0  0  0  0  0  0  0  0  0  0  0
  146.5535  132.3700  151.8955 H   0  0  0  0  0  0  0  0  0  0  0  0
  146.0765  131.0568  152.9495 H   0  0  0  0  0  0  0  0  0  0  0  0
  144.2264  132.4171  153.6677 H   0  0  0  0  0  0  0  0  0  0  0  0
  1  2  1  0  0  0  0
  1 24  1  0  0  0  0
  1 25  1  0  0  0  0
  1 26  1  0  0  0  0
  2 22  1  0  0  0  0
  2  3  1  0  0  0  0
  3  4  2  0  0  0  0
  3  5  1  0  0  0  0
  5  6  2  0  0  0  0
  5 27  1  0  0  0  0
  6  7  1  0  0  0  0
  6 28  1  0  0  0  0
  7  8  1  0  0  0  0
  7 22  1  0  0  0  0
  8  9  1  0  0  0  0
  8 29  1  0  0  0  0
  8 30  1  0  0  0  0
  9 10  2  0  0  0  0
  9 11  1  0  0  0  0
 11 12  1  0  0  0  0
 11 31  1  0  0  0  0
 12 13  1  0  0  0  0
 12 32  1  0  0  0  0
 12 33  1  0  0  0  0
 13 14  1  0  0  0  0
 13 15  1  0  0  0  0
 13 16  1  0  0  0  0
 14 34  1  0  0  0  0
 14 35  1  0  0  0  0
 14 36  1  0  0  0  0
 15 37  1  0  0  0  0
 15 38  1  0  0  0  0
 15 39  1  0  0  0  0
 16 21  1  0  0  0  0
 16 17  1  0  0  0  0
 16 48  1  0  0  0  0
 17 18  1  0  0  0  0
 17 40  1  0  0  0  0
 17 41  1  0  0  0  0
 18 19  1  0  0  0  0
 18 42  1  0  0  0  0
 18 43  1  0  0  0  0
 19 20  1  0  0  0  0
 20 21  1  0  0  0  0
 20 44  1  0  0  0  0
 20 45  1  0  0  0  0
 21 46  1  0  0  0  0
 21 47  1  0  0  0  0
 22 23  2  0  0  0  0
M  CHG  1  16   1
M  END
> <s_m_source_file>
AV-unprocessed.smi

> <i_m_source_file_index>
1404

> <i_lp_mmshare_version>
43012

> <i_f3d_flags>
0

> <s_epik_input>
W0NIM11uMWMoPU8pW2NIXVtjSF1uKGMxPU8pW0NIMl1DKD1PKVtOSF1bQ0gyXUMoW0NIM10pKFtDSDNdKU4yW0NIMl1bQ0gyXU9bQ0gyXVtDSDJdMg==

> <s_epik_cmdline>
J2VwaWtfcHl0aG9uJywgJy1waCcsICc3LjAnLCAnLXRuJywgJzgnLCAnLW1hJywgJzIwMCcsICctbWV0YWxfYmluZGluZycsICctaW1hZScsICc8aW5maWxlLm1hZT4nLCAnLW9tYWUnLCAnPG91dGZpbGUubWFlPic=

> <r_lp_tautomer_probability>
1

> <r_epik_Ionization_Penalty>
0.656654

> <r_epik_Ionization_Penalty_Charging>
0.656653

> <r_epik_Ionization_Penalty_Neutral>
9.12373e-08

> <r_epik_State_Penalty>
0.675641

> <r_epik_Charging_Adjusted_Penalty>
1.33229

> <i_epik_Tot_Q>
1

> <i_epik_Tot_abs_Q>
1

> <r_epik_Metal_State_Penalty>
0.675694

> <b_epik_Metal_Only>
0

> <s_lp_Force_Field>
OPLS_2005

> <r_lp_Energy>
33.2005

> <b_lp_Chiralities_Consistent>
1

> <s_lp_Variant>
AV-unprocessed.smi:1404-2

> <Gold.Version>
5.8.1

> <Gold.Id.Protein>
6NUR|6NUR_protein|mol2

> <Gold.PLP.Fitness>
39.4229

> <Gold.PLP.PLP>
-27.8090

> <Gold.PLP.part.hbond>
-3.9095

> <Gold.PLP.part.metal>
0.0000

> <Gold.PLP.part.buried>
-2.7084

> <Gold.PLP.part.nonpolar>
-22.1142

> <Gold.PLP.part.repulsive>
0.3502

> <Gold.PLP.ligand.clash>
0.0000

> <Gold.PLP.ligand.torsion>
0.5824

> <Gold.PLP.Chemscore.Hbond>
3.2122

> <Gold.PLP.Chemscore.CHOScore>
1.0000

> <Gold.PLP.Chemscore.Metal>
0.0000

> <Gold.Chemscore.Hbonds>
donor molecule, donor type, donor heavy atom, donor atom, acceptor molecule, acceptor atom, score
      L1  H    16    48       P1 10957  2.00
      P1  H  7989  7998       L1     4  0.18
      P1  H  7997  8009       L1     4  1.00
      L1  C     6    28       P1  7948  1.00

> <Gold.PLP.Chemscore.Internal.Correction>
0.1422

> <Gold.Rescore>
     Score         DG    S(hbond)    S(metal)    S(lipo)     H(rot)  DE(clash)    DE(int)     intcor
     11.62     -12.26       1.90        0.00      50.49       2.14       0.04       0.60       ----

> <Gold.Chemscore.Fitness>
11.6185

> <Gold.Chemscore.DG>
-12.2561

> <Gold.Chemscore.ZeroCoef>
-5.4800

> <Gold.Chemscore.Hbond>
1.8989

> <Gold.Chemscore.Metal>
0.0000

> <Gold.Chemscore.Lipo>
50.4902

> <Gold.Chemscore.Internal_Hbond>
0.0000

> <Gold.Chemscore.DEClash>
0.0358

> <Gold.Chemscore.DEInternal>
0.6018

> <Gold.Chemscore.Rot>
2.1381

> <Gold.Chemscore.Internal.Correction>
   9.000000E+99

> <Gold.Chemscore.Hbonds>
donor molecule, donor type, donor heavy atom, donor atom, acceptor molecule, acceptor atom, score
      L1  H    16    48       P1 10957  0.24
      P1  H  7989  7998       L1     4  0.09
      P1  H  7997  8009       L1     4  0.98

> <Gold.Chemscore.Hbond.Weighted>
-6.3422

> <Gold.Chemscore.Metal.Weighted>
-0.0000

> <Gold.Chemscore.Lipo.Weighted>
-5.9074

> <Gold.Chemscore.Internal_Hbond.Weighted>
0.0000

> <Gold.Chemscore.DEClash.Weighted>
0.0358

> <Gold.Chemscore.DEInternal.Weighted>
0.6018

> <Gold.Chemscore.Rot.Weighted>
5.4735

> <Gold.Chemscore.Internal.Correction.Weighted>
   9.000000E+99

> <Gold.Protein.RotatedTorsions>
[ 6907 6896 6895 6894 ] final   52.25 input  -60.11 | X-H torsion
[ 7974 7965 7964 7962 ] final -153.62 input  175.53 | X-H torsion
[ 8008 7997 7996 7995 ] final -130.43 input   59.86 | X-H torsion
[ 10167 10162 10161 10158 ] final  132.48 input  -65.29 | X-H torsion
[ 10718 10713 10712 10709 ] final  161.34 input   66.30 | X-H torsion
[ 10763 10752 10751 10750 ] final   23.74 input  -60.55 | X-H torsion
[ 11005 11000 10999 10996 ] final  124.19 input  -57.11 | X-H torsion

> <Gold.Protein.ActiveResidues>
 VAL166  LYS551  ARG553  GLY616  TRP617  ASP618  TYR619  PRO620  LYS621  CYS622 
 ASP623  PHE694  ASN695  SER759  ASP760  ASP761  ALA762  ILE779  LEU786  VAL792 
 PHE793  MET794  SER795  GLU796  ALA797  LYS798  CYS799  TRP800  GLU811  SER814 

> <Gold.Protein.RotatedAtoms>
  152.3213  134.7377  160.0312 H   0  0  0  0  0  0  0  0  0  0  0  0  # atno 6907 bound_to 6896
  151.7824  133.3345  159.3483 H   0  0  0  0  0  0  0  0  0  0  0  0  # atno 6908 bound_to 6896
  150.7371  134.5849  159.6002 H   0  0  0  0  0  0  0  0  0  0  0  0  # atno 6909 bound_to 6896
  144.7731  140.4500  143.5893 H   0  0  0  0  0  0  0  0  0  0  0  0  # atno 7974 bound_to 7965
  155.2957  140.0450  157.3026 H   0  0  0  0  0  0  0  0  0  0  0  0  # atno 8008 bound_to 7997
  154.5515  140.2319  155.8444 H   0  0  0  0  0  0  0  0  0  0  0  0  # atno 8009 bound_to 7997
  156.1971  140.3035  155.9457 H   0  0  0  0  0  0  0  0  0  0  0  0  # atno 8010 bound_to 7997
  139.5338  144.6660  151.4858 H   0  0  0  0  0  0  0  0  0  0  0  0  # atno 10167 bound_to 10162
  157.1379  131.0533  151.2341 H   0  0  0  0  0  0  0  0  0  0  0  0  # atno 10718 bound_to 10713
  153.0815  135.6620  154.0034 H   0  0  0  0  0  0  0  0  0  0  0  0  # atno 10763 bound_to 10752
  153.9655  135.2970  155.3432 H   0  0  0  0  0  0  0  0  0  0  0  0  # atno 10764 bound_to 10752
  154.7216  135.5162  153.8892 H   0  0  0  0  0  0  0  0  0  0  0  0  # atno 10765 bound_to 10752
  139.9347  134.9640  156.8371 H   0  0  0  0  0  0  0  0  0  0  0  0  # atno 11005 bound_to 11000
  145.6265  139.1530  143.2993 LP  0  0  0  0  0  0  0  0  0  0  0  0  # atno 17320 bound_to 7965
  146.1892  140.6372  142.9153 LP  0  0  0  0  0  0  0  0  0  0  0  0  # atno 17321 bound_to 7965
  140.6532  143.8654  150.6807 LP  0  0  0  0  0  0  0  0  0  0  0  0  # atno 17342 bound_to 10162
  140.2025  143.3948  152.1781 LP  0  0  0  0  0  0  0  0  0  0  0  0  # atno 17343 bound_to 10162
  157.4334  130.7503  149.7009 LP  0  0  0  0  0  0  0  0  0  0  0  0  # atno 17370 bound_to 10713
  155.9794  130.4040  150.3587 LP  0  0  0  0  0  0  0  0  0  0  0  0  # atno 17371 bound_to 10713
  140.6108  134.0084  155.7576 LP  0  0  0  0  0  0  0  0  0  0  0  0  # atno 17394 bound_to 11000
  141.0954  133.9851  157.3168 LP  0  0  0  0  0  0  0  0  0  0  0  0  # atno 17395 bound_to 11000

$$$$
