AV-unprocessed.smi:1922|AV-procd|sdf|7788|dock1
  -GOLD-   22720 9533D 1   1.00000     0.00000
 Structure written by MMmdl.
 35 36  0  0  0  0  0  0  0  0  1 V2000
  151.9759  138.5896  159.3107 O   0  0  0  0  0  0  0  0  0  0  0  0
  152.4238  139.3213  158.4288 C   0  0  0  0  0  0  0  0  0  0  0  0
  152.6310  138.7540  157.0131 C   0  0  0  0  0  0  0  0  0  0  0  0
  151.5780  139.1078  156.0462 N   0  0  0  0  0  0  0  0  0  0  0  0
  151.0793  140.3931  156.1970 N   0  0  0  0  0  0  0  0  0  0  0  0
  150.1369  140.8143  155.4230 C   0  0  0  0  0  0  0  0  0  0  0  0
  149.6700  142.0923  155.6090 O   0  0  0  0  0  0  0  0  0  0  0  0
  149.5842  139.9684  154.3879 C   0  0  0  0  0  0  0  0  0  0  0  0
  150.0783  138.7191  154.2467 C   0  0  0  0  0  0  0  0  0  0  0  0
  151.1449  138.2085  155.1094 C   0  0  0  0  0  0  0  0  0  0  0  0
  151.6041  137.0710  155.0113 O   0  0  0  0  0  0  0  0  0  0  0  0
  152.7378  140.6083  158.6437 N   0  0  0  0  0  0  0  0  0  0  0  0
  152.5694  141.3141  159.9049 C   0  0  0  0  0  0  0  0  0  0  0  0
  151.9673  142.7085  159.6652 C   0  0  0  0  0  0  0  0  0  0  0  0
  152.6831  143.5111  158.5780 C   0  0  0  0  0  0  0  0  0  0  0  0
  152.2536  144.9616  158.8193 C   0  0  0  0  0  0  0  0  0  0  0  0
  151.8821  145.0576  160.3075 C   0  0  0  0  0  0  0  0  0  0  0  0
  152.0187  143.6415  160.8803 C   0  0  0  0  0  0  0  0  0  0  0  0
  149.7834  142.2710  156.5298 H   0  0  0  0  0  0  0  0  0  0  0  0
  153.5984  139.1066  156.6511 H   0  0  0  0  0  0  0  0  0  0  0  0
  152.7291  137.6691  157.0820 H   0  0  0  0  0  0  0  0  0  0  0  0
  148.7965  140.3352  153.7464 H   0  0  0  0  0  0  0  0  0  0  0  0
  149.6756  138.0765  153.4774 H   0  0  0  0  0  0  0  0  0  0  0  0
  153.1026  141.1416  157.8677 H   0  0  0  0  0  0  0  0  0  0  0  0
  151.9233  140.7278  160.5602 H   0  0  0  0  0  0  0  0  0  0  0  0
  153.5355  141.4062  160.4034 H   0  0  0  0  0  0  0  0  0  0  0  0
  150.9231  142.5947  159.3684 H   0  0  0  0  0  0  0  0  0  0  0  0
  153.7637  143.4269  158.7038 H   0  0  0  0  0  0  0  0  0  0  0  0
  152.4398  143.1658  157.5728 H   0  0  0  0  0  0  0  0  0  0  0  0
  153.0406  145.6647  158.5450 H   0  0  0  0  0  0  0  0  0  0  0  0
  151.3805  145.1961  158.2089 H   0  0  0  0  0  0  0  0  0  0  0  0
  152.5241  145.7601  160.8405 H   0  0  0  0  0  0  0  0  0  0  0  0
  150.8557  145.4124  160.4110 H   0  0  0  0  0  0  0  0  0  0  0  0
  151.2446  143.4155  161.6147 H   0  0  0  0  0  0  0  0  0  0  0  0
  152.9835  143.5447  161.3806 H   0  0  0  0  0  0  0  0  0  0  0  0
  1  2  2  0  0  0  0
  2  3  1  0  0  0  0
  2 12  1  0  0  0  0
  3 20  1  0  0  0  0
  3 21  1  0  0  0  0
  3  4  1  0  0  0  0
  4  5  1  0  0  0  0
  4 10  1  0  0  0  0
  5  6  2  0  0  0  0
  6  7  1  0  0  0  0
  6  8  1  0  0  0  0
  7 19  1  0  0  0  0
  8 22  1  0  0  0  0
  8  9  2  0  0  0  0
  9 23  1  0  0  0  0
  9 10  1  0  0  0  0
 10 11  2  0  0  0  0
 12 13  1  0  0  0  0
 12 24  1  0  0  0  0
 13 14  1  0  0  0  0
 13 25  1  0  0  0  0
 13 26  1  0  0  0  0
 14 18  1  0  0  0  0
 14 15  1  0  0  0  0
 14 27  1  0  0  0  0
 15 16  1  0  0  0  0
 15 28  1  0  0  0  0
 15 29  1  0  0  0  0
 16 17  1  0  0  0  0
 16 30  1  0  0  0  0
 16 31  1  0  0  0  0
 17 18  1  0  0  0  0
 17 32  1  0  0  0  0
 17 33  1  0  0  0  0
 18 34  1  0  0  0  0
 18 35  1  0  0  0  0
M  END
> <s_m_source_file>
AV-unprocessed.smi

> <i_m_source_file_index>
1922

> <i_lp_mmshare_version>
43012

> <i_f3d_flags>
0

> <s_epik_input>
W0NIMl0xW0NIMl1bQ0gyXVtDSDJdW0NIXTFbQ0gyXVtOSF1DKD1PKVtDSDJdbjJbbkhdYyg9TylbY0hdW2NIXWMyPU8=

> <s_epik_cmdline>
J2VwaWtfcHl0aG9uJywgJy1waCcsICc3LjAnLCAnLXRuJywgJzgnLCAnLW1hJywgJzIwMCcsICctbWV0YWxfYmluZGluZycsICctaW1hZScsICc8aW5maWxlLm1hZT4nLCAnLW9tYWUnLCAnPG91dGZpbGUubWFlPic=

> <r_lp_tautomer_probability>
0.9996

> <r_epik_Ionization_Penalty>
2.12182

> <r_epik_Ionization_Penalty_Charging>
3.68417e-08

> <r_epik_Ionization_Penalty_Neutral>
2.12182

> <r_epik_State_Penalty>
1.69868

> <r_epik_Charging_Adjusted_Penalty>
1.69868

> <i_epik_Tot_Q>
0

> <i_epik_Tot_abs_Q>
0

> <r_epik_Metal_State_Penalty>
1.69868

> <b_epik_Metal_Only>
0

> <s_lp_Force_Field>
OPLS_2005

> <r_lp_Energy>
31.2069

> <b_lp_Chiralities_Consistent>
1

> <s_lp_Variant>
AV-unprocessed.smi:1922-2

> <Gold.Version>
5.8.1

> <Gold.Id.Protein>
6NUR|6NUR_protein|mol2

> <Gold.PLP.Fitness>
42.6811

> <Gold.PLP.PLP>
-41.1822

> <Gold.PLP.part.hbond>
-2.0000

> <Gold.PLP.part.metal>
0.0000

> <Gold.PLP.part.buried>
-3.2973

> <Gold.PLP.part.nonpolar>
-36.0082

> <Gold.PLP.part.repulsive>
0.2137

> <Gold.PLP.ligand.clash>
0.0000

> <Gold.PLP.ligand.torsion>
0.7543

> <Gold.PLP.Chemscore.Hbond>
1.0000

> <Gold.PLP.Chemscore.CHOScore>
0.0000

> <Gold.PLP.Chemscore.Metal>
0.0000

> <Gold.Chemscore.Hbonds>
donor molecule, donor type, donor heavy atom, donor atom, acceptor molecule, acceptor atom, score
      P1  H 10752 10765       L1    11  1.00

> <Gold.PLP.Chemscore.Internal.Correction>
0.0076

> <Gold.Rescore>
     Score         DG    S(hbond)    S(metal)    S(lipo)     H(rot)  DE(clash)    DE(int)     intcor
     11.77     -12.83       0.99        0.00      90.62       2.56       0.38       0.68       ----

> <Gold.Chemscore.Fitness>
11.7725

> <Gold.Chemscore.DG>
-12.8284

> <Gold.Chemscore.ZeroCoef>
-5.4800

> <Gold.Chemscore.Hbond>
0.9881

> <Gold.Chemscore.Metal>
0.0000

> <Gold.Chemscore.Lipo>
90.6241

> <Gold.Chemscore.Internal_Hbond>
0.0000

> <Gold.Chemscore.DEClash>
0.3782

> <Gold.Chemscore.DEInternal>
0.6777

> <Gold.Chemscore.Rot>
2.5605

> <Gold.Chemscore.Internal.Correction>
   9.000000E+99

> <Gold.Chemscore.Hbonds>
donor molecule, donor type, donor heavy atom, donor atom, acceptor molecule, acceptor atom, score
      P1  H 10752 10765       L1    11  0.92

> <Gold.Chemscore.Hbond.Weighted>
-3.3001

> <Gold.Chemscore.Metal.Weighted>
-0.0000

> <Gold.Chemscore.Lipo.Weighted>
-10.6030

> <Gold.Chemscore.Internal_Hbond.Weighted>
0.0000

> <Gold.Chemscore.DEClash.Weighted>
0.3782

> <Gold.Chemscore.DEInternal.Weighted>
0.6777

> <Gold.Chemscore.Rot.Weighted>
6.5548

> <Gold.Chemscore.Internal.Correction.Weighted>
   9.000000E+99

> <Gold.Protein.RotatedTorsions>
[ 6907 6896 6895 6894 ] final   62.27 input  -60.11 | X-H torsion
[ 7974 7965 7964 7962 ] final    7.57 input  175.53 | X-H torsion
[ 8008 7997 7996 7995 ] final   15.73 input   59.86 | X-H torsion
[ 10167 10162 10161 10158 ] final  -98.12 input  -65.29 | X-H torsion
[ 10718 10713 10712 10709 ] final   96.42 input   66.30 | X-H torsion
[ 10763 10752 10751 10750 ] final  179.52 input  -60.55 | X-H torsion
[ 11005 11000 10999 10996 ] final -138.92 input  -57.11 | X-H torsion

> <Gold.Protein.ActiveResidues>
 VAL166  LYS551  ARG553  GLY616  TRP617  ASP618  TYR619  PRO620  LYS621  CYS622 
 ASP623  PHE694  ASN695  SER759  ASP760  ASP761  ALA762  ILE779  LEU786  VAL792 
 PHE793  MET794  SER795  GLU796  ALA797  LYS798  CYS799  TRP800  GLU811  SER814 

> <Gold.Protein.RotatedAtoms>
  152.4158  134.6044  160.0008 H   0  0  0  0  0  0  0  0  0  0  0  0  # atno 6907 bound_to 6896
  151.6207  133.3334  159.3095 H   0  0  0  0  0  0  0  0  0  0  0  0  # atno 6908 bound_to 6896
  150.8047  134.7203  159.6699 H   0  0  0  0  0  0  0  0  0  0  0  0  # atno 6909 bound_to 6896
  146.2425  140.0064  142.8411 H   0  0  0  0  0  0  0  0  0  0  0  0  # atno 7974 bound_to 7965
  154.8668  140.2952  155.5505 H   0  0  0  0  0  0  0  0  0  0  0  0  # atno 8008 bound_to 7997
  156.3021  140.2468  156.3583 H   0  0  0  0  0  0  0  0  0  0  0  0  # atno 8009 bound_to 7997
  154.8860  140.0396  157.1799 H   0  0  0  0  0  0  0  0  0  0  0  0  # atno 8010 bound_to 7997
  140.2763  143.3311  152.0486 H   0  0  0  0  0  0  0  0  0  0  0  0  # atno 10167 bound_to 10162
  157.6927  131.0577  150.4489 H   0  0  0  0  0  0  0  0  0  0  0  0  # atno 10718 bound_to 10713
  154.5217  135.2794  155.1257 H   0  0  0  0  0  0  0  0  0  0  0  0  # atno 10763 bound_to 10752
  154.2812  135.6285  153.5351 H   0  0  0  0  0  0  0  0  0  0  0  0  # atno 10764 bound_to 10752
  152.9938  135.5651  154.5707 H   0  0  0  0  0  0  0  0  0  0  0  0  # atno 10765 bound_to 10752
  140.8569  134.2217  157.4729 H   0  0  0  0  0  0  0  0  0  0  0  0  # atno 11005 bound_to 11000
  145.1368  140.9549  143.4512 LP  0  0  0  0  0  0  0  0  0  0  0  0  # atno 17320 bound_to 7965
  145.0334  139.3321  143.6013 LP  0  0  0  0  0  0  0  0  0  0  0  0  # atno 17321 bound_to 7965
  139.4975  144.6622  151.6437 LP  0  0  0  0  0  0  0  0  0  0  0  0  # atno 17342 bound_to 10162
  140.5849  143.9882  150.6289 LP  0  0  0  0  0  0  0  0  0  0  0  0  # atno 17343 bound_to 10162
  156.4841  130.4080  149.6444 LP  0  0  0  0  0  0  0  0  0  0  0  0  # atno 17370 bound_to 10713
  156.3479  130.7416  151.2371 LP  0  0  0  0  0  0  0  0  0  0  0  0  # atno 17371 bound_to 10713
  139.8705  134.9711  156.4724 LP  0  0  0  0  0  0  0  0  0  0  0  0  # atno 17394 bound_to 11000
  140.8727  133.7976  155.9381 LP  0  0  0  0  0  0  0  0  0  0  0  0  # atno 17395 bound_to 11000

$$$$
