AV-unprocessed.smi:2226|AV-procd|sdf|9014|dock8
  -GOLD-   2272012223D 1   1.00000     0.00000
 Structure written by MMmdl.
 40 42  0  0  0  0  0  0  0  0  2 V2000
  145.7799  143.2087  154.0706 C   0  0  0  0  0  0  0  0  0  0  0  0
  145.9619  141.7377  154.0987 N   0  3  2  0  0  0  0  0  0  0  0  0
  145.9569  141.1346  155.4538 C   0  0  1  0  0  0  0  0  0  0  0  0
  145.7164  139.6121  155.3235 C   0  0  0  0  0  0  0  0  0  0  0  0
  146.6941  138.9064  154.3619 C   0  0  0  0  0  0  0  0  0  0  0  0
  146.9455  139.7212  153.0767 C   0  0  0  0  0  0  0  0  0  0  0  0
  147.1229  141.2380  153.3226 C   0  0  2  0  0  0  0  0  0  0  0  0
  148.4616  141.6351  153.9936 C   0  0  0  0  0  0  0  0  0  0  0  0
  148.5578  141.2883  155.4974 C   0  0  1  0  0  0  0  0  0  0  0  0
  149.6049  142.1049  156.1099 N   0  0  0  0  0  0  0  0  0  0  0  0
  150.6714  141.6612  156.7932 C   0  0  0  0  0  0  0  0  0  0  0  0
  150.8739  140.4566  156.9753 O   0  0  0  0  0  0  0  0  0  0  0  0
  151.4361  142.7382  157.2181 N   0  0  0  0  0  0  0  0  0  0  0  0
  152.0399  142.6983  158.3665 C   0  0  0  0  0  0  0  0  0  0  0  0
  152.1092  141.7371  159.3717 N   0  0  0  0  0  0  0  0  0  0  0  0
  152.8971  142.2263  160.3757 C   0  0  0  0  0  0  0  0  0  0  0  0
  153.3075  143.4405  160.0225 C   0  0  0  0  0  0  0  0  0  0  0  0
  152.7992  143.7564  158.7984 O   0  0  0  0  0  0  0  0  0  0  0  0
  147.2275  141.5259  156.2488 C   0  0  0  0  0  0  0  0  0  0  0  0
  146.6050  143.7374  154.5471 H   0  0  0  0  0  0  0  0  0  0  0  0
  144.8595  143.4877  154.5841 H   0  0  0  0  0  0  0  0  0  0  0  0
  145.7025  143.5624  153.0421 H   0  0  0  0  0  0  0  0  0  0  0  0
  145.0990  141.5373  155.9943 H   0  0  0  0  0  0  0  0  0  0  0  0
  145.7466  139.1357  156.3041 H   0  0  0  0  0  0  0  0  0  0  0  0
  144.7031  139.4589  154.9499 H   0  0  0  0  0  0  0  0  0  0  0  0
  147.6329  138.6910  154.8649 H   0  0  0  0  0  0  0  0  0  0  0  0
  146.2977  137.9256  154.0974 H   0  0  0  0  0  0  0  0  0  0  0  0
  147.8052  139.3183  152.5402 H   0  0  0  0  0  0  0  0  0  0  0  0
  146.0901  139.5821  152.4140 H   0  0  0  0  0  0  0  0  0  0  0  0
  147.0975  141.7147  152.3416 H   0  0  0  0  0  0  0  0  0  0  0  0
  149.2973  141.1834  153.4578 H   0  0  0  0  0  0  0  0  0  0  0  0
  148.5926  142.7110  153.8701 H   0  0  0  0  0  0  0  0  0  0  0  0
  148.8232  140.2389  155.5919 H   0  0  0  0  0  0  0  0  0  0  0  0
  149.5123  143.1051  156.0057 H   0  0  0  0  0  0  0  0  0  0  0  0
  151.6723  140.8266  159.3987 H   0  0  0  0  0  0  0  0  0  0  0  0
  153.0853  141.6364  161.2607 H   0  0  0  0  0  0  0  0  0  0  0  0
  153.9348  144.1730  160.5086 H   0  0  0  0  0  0  0  0  0  0  0  0
  147.1506  142.5834  156.5051 H   0  0  0  0  0  0  0  0  0  0  0  0
  147.2468  141.0022  157.2053 H   0  0  0  0  0  0  0  0  0  0  0  0
  145.1443  141.3694  153.6335 H   0  0  0  0  0  0  0  0  0  0  0  0
  1  2  1  0  0  0  0
  1 20  1  0  0  0  0
  1 21  1  0  0  0  0
  1 22  1  0  0  0  0
  2  7  1  0  0  0  0
  2  3  1  0  0  0  0
  2 40  1  0  0  0  0
  3 19  1  0  0  0  0
  3  4  1  0  0  0  0
  3 23  1  0  0  0  0
  4  5  1  0  0  0  0
  4 24  1  0  0  0  0
  4 25  1  0  0  0  0
  5  6  1  0  0  0  0
  5 26  1  0  0  0  0
  5 27  1  0  0  0  0
  6  7  1  0  0  0  0
  6 28  1  0  0  0  0
  6 29  1  0  0  0  0
  7  8  1  0  0  0  0
  7 30  1  0  0  0  0
  8  9  1  0  0  0  0
  8 31  1  0  0  0  0
  8 32  1  0  0  0  0
  9 10  1  0  0  0  0
  9 19  1  0  0  0  0
  9 33  1  0  0  0  0
 10 34  1  0  0  0  0
 10 11  1  0  0  0  0
 11 13  1  0  0  0  0
 11 12  2  0  0  0  0
 13 14  2  0  0  0  0
 14 18  1  0  0  0  0
 14 15  1  0  0  0  0
 15 35  1  0  0  0  0
 15 16  1  0  0  0  0
 16 36  1  0  0  0  0
 16 17  2  0  0  0  0
 17 37  1  0  0  0  0
 17 18  1  0  0  0  0
 19 38  1  0  0  0  0
 19 39  1  0  0  0  0
M  CHG  1   2   1
M  END
> <s_m_source_file>
AV-unprocessed.smi

> <i_m_source_file_index>
2226

> <i_lp_mmshare_version>
43012

> <i_f3d_flags>
0

> <s_epik_input>
W0NIMl0xW0NIMl1bQ0gyXVtDQEhdKE4oW0NIM10pW0NIXTEyKVtDSDJdW0NASF0oW0NIMl0yKVtOSF1DKD1PKVtOSF1jM25bY0hdW2NIXW8z

> <s_epik_cmdline>
J2VwaWtfcHl0aG9uJywgJy1waCcsICc3LjAnLCAnLXRuJywgJzgnLCAnLW1hJywgJzIwMCcsICctbWV0YWxfYmluZGluZycsICctaW1hZScsICc8aW5maWxlLm1hZT4nLCAnLW9tYWUnLCAnPG91dGZpbGUubWFlPic=

> <r_lp_tautomer_probability>
0.107061

> <r_epik_Ionization_Penalty>
1.08307

> <r_epik_Ionization_Penalty_Charging>
1.08272

> <r_epik_Ionization_Penalty_Neutral>
0.000345913

> <r_epik_State_Penalty>
2.5744

> <r_epik_Charging_Adjusted_Penalty>
3.65713

> <i_epik_Tot_Q>
1

> <i_epik_Tot_abs_Q>
1

> <r_epik_Metal_State_Penalty>
3.72133

> <b_epik_Metal_Only>
0

> <s_lp_Force_Field>
OPLS_2005

> <r_lp_Energy>
58.9785

> <b_lp_Chiralities_Consistent>
1

> <s_lp_Variant>
AV-unprocessed.smi:2226-14

> <Gold.Version>
5.8.1

> <Gold.Id.Protein>
6NUR|6NUR_protein|mol2

> <Gold.PLP.Fitness>
39.6679

> <Gold.PLP.PLP>
-31.2441

> <Gold.PLP.part.hbond>
-2.0000

> <Gold.PLP.part.metal>
0.0000

> <Gold.PLP.part.buried>
-5.7468

> <Gold.PLP.part.nonpolar>
-23.5050

> <Gold.PLP.part.repulsive>
0.3267

> <Gold.PLP.ligand.clash>
0.0000

> <Gold.PLP.ligand.torsion>
0.2910

> <Gold.PLP.Chemscore.Hbond>
3.0000

> <Gold.PLP.Chemscore.CHOScore>
0.0000

> <Gold.PLP.Chemscore.Metal>
0.0000

> <Gold.Chemscore.Hbonds>
donor molecule, donor type, donor heavy atom, donor atom, acceptor molecule, acceptor atom, score
      L1  H     2    40       P1 10175  1.92
      L1  H    10    34       P1  8028  1.00

> <Gold.PLP.Chemscore.Internal.Correction>
0.0058

> <Gold.Rescore>
     Score         DG    S(hbond)    S(metal)    S(lipo)     H(rot)  DE(clash)    DE(int)     intcor
     16.69     -17.03       1.95        0.00      64.94       1.00       0.06       0.27       ----

> <Gold.Chemscore.Fitness>
16.6889

> <Gold.Chemscore.DG>
-17.0258

> <Gold.Chemscore.ZeroCoef>
-5.4800

> <Gold.Chemscore.Hbond>
1.9483

> <Gold.Chemscore.Metal>
0.0000

> <Gold.Chemscore.Lipo>
64.9432

> <Gold.Chemscore.Internal_Hbond>
0.0000

> <Gold.Chemscore.DEClash>
0.0623

> <Gold.Chemscore.DEInternal>
0.2746

> <Gold.Chemscore.Rot>
1.0000

> <Gold.Chemscore.Internal.Correction>
   9.000000E+99

> <Gold.Chemscore.Hbonds>
donor molecule, donor type, donor heavy atom, donor atom, acceptor molecule, acceptor atom, score
      L1  H     2    40       P1 10175  0.23
      L1  H    10    34       P1  8028  1.00

> <Gold.Chemscore.Hbond.Weighted>
-6.5074

> <Gold.Chemscore.Metal.Weighted>
-0.0000

> <Gold.Chemscore.Lipo.Weighted>
-7.5984

> <Gold.Chemscore.Internal_Hbond.Weighted>
0.0000

> <Gold.Chemscore.DEClash.Weighted>
0.0623

> <Gold.Chemscore.DEInternal.Weighted>
0.2746

> <Gold.Chemscore.Rot.Weighted>
2.5600

> <Gold.Chemscore.Internal.Correction.Weighted>
   9.000000E+99

> <Gold.Protein.RotatedTorsions>
[ 6907 6896 6895 6894 ] final   55.76 input  -60.11 | X-H torsion
[ 7974 7965 7964 7962 ] final -163.31 input  175.53 | X-H torsion
[ 8008 7997 7996 7995 ] final   67.13 input   59.86 | X-H torsion
[ 10167 10162 10161 10158 ] final   92.08 input  -65.29 | X-H torsion
[ 10718 10713 10712 10709 ] final  -17.52 input   66.30 | X-H torsion
[ 10763 10752 10751 10750 ] final   16.33 input  -60.55 | X-H torsion
[ 11005 11000 10999 10996 ] final  -52.35 input  -57.11 | X-H torsion

> <Gold.Protein.ActiveResidues>
 VAL166  LYS551  ARG553  GLY616  TRP617  ASP618  TYR619  PRO620  LYS621  CYS622 
 ASP623  PHE694  ASN695  SER759  ASP760  ASP761  ALA762  ILE779  LEU786  VAL792 
 PHE793  MET794  SER795  GLU796  ALA797  LYS798  CYS799  TRP800  GLU811  SER814 

> <Gold.Protein.RotatedAtoms>
  152.3570  134.6926  160.0218 H   0  0  0  0  0  0  0  0  0  0  0  0  # atno 6907 bound_to 6896
  151.7262  133.3310  159.3336 H   0  0  0  0  0  0  0  0  0  0  0  0  # atno 6908 bound_to 6896
  150.7578  134.6338  159.6245 H   0  0  0  0  0  0  0  0  0  0  0  0  # atno 6909 bound_to 6896
  144.7330  140.3126  143.6185 H   0  0  0  0  0  0  0  0  0  0  0  0  # atno 7974 bound_to 7965
  155.6881  140.3496  155.4882 H   0  0  0  0  0  0  0  0  0  0  0  0  # atno 8008 bound_to 7997
  155.9548  140.1126  157.0968 H   0  0  0  0  0  0  0  0  0  0  0  0  # atno 8009 bound_to 7997
  154.4130  140.1187  156.5087 H   0  0  0  0  0  0  0  0  0  0  0  0  # atno 8010 bound_to 7997
  139.8312  144.6686  150.9398 H   0  0  0  0  0  0  0  0  0  0  0  0  # atno 10167 bound_to 10162
  156.5724  130.4753  149.6356 H   0  0  0  0  0  0  0  0  0  0  0  0  # atno 10718 bound_to 10713
  153.1441  135.6765  153.8982 H   0  0  0  0  0  0  0  0  0  0  0  0  # atno 10763 bound_to 10752
  153.8430  135.3103  155.3428 H   0  0  0  0  0  0  0  0  0  0  0  0  # atno 10764 bound_to 10752
  154.7811  135.4888  153.9930 H   0  0  0  0  0  0  0  0  0  0  0  0  # atno 10765 bound_to 10752
  141.0919  133.6631  156.4011 H   0  0  0  0  0  0  0  0  0  0  0  0  # atno 11005 bound_to 11000
  145.7649  139.1837  143.2245 LP  0  0  0  0  0  0  0  0  0  0  0  0  # atno 17320 bound_to 7965
  146.0957  140.7604  142.9573 LP  0  0  0  0  0  0  0  0  0  0  0  0  # atno 17321 bound_to 7965
  140.7806  143.3999  151.1166 LP  0  0  0  0  0  0  0  0  0  0  0  0  # atno 17342 bound_to 10162
  139.7653  143.8575  152.3109 LP  0  0  0  0  0  0  0  0  0  0  0  0  # atno 17343 bound_to 10162
  156.2702  130.7013  151.1808 LP  0  0  0  0  0  0  0  0  0  0  0  0  # atno 17370 bound_to 10713
  157.7345  131.0581  150.5521 LP  0  0  0  0  0  0  0  0  0  0  0  0  # atno 17371 bound_to 10713
  140.5231  134.6285  157.5325 LP  0  0  0  0  0  0  0  0  0  0  0  0  # atno 17394 bound_to 11000
  139.9747  134.7235  155.9972 LP  0  0  0  0  0  0  0  0  0  0  0  0  # atno 17395 bound_to 11000

$$$$
