AV-unprocessed.smi:480|AV-procd|sdf|2676|dock4
  -GOLD-   2262023 93D 1   1.00000     0.00000
 Structure written by MMmdl.
 46 48  0  0  0  0  0  0  0  0  1 V2000
  152.1209  139.2402  154.7580 C   0  0  0  0  0  0  0  0  0  0  0  0
  152.2310  138.9301  156.2561 C   0  0  0  0  0  0  0  0  0  0  0  0
  152.0683  140.1494  157.1187 C   0  0  0  0  0  0  0  0  0  0  0  0
  152.9844  140.4528  158.0403 N   0  0  0  0  0  0  0  0  0  0  0  0
  152.4838  141.6068  158.6069 C   0  0  0  0  0  0  0  0  0  0  0  0
  152.9959  142.4176  159.6452 C   0  0  0  0  0  0  0  0  0  0  0  0
  152.2973  143.5698  160.0615 C   0  0  0  0  0  0  0  0  0  0  0  0
  151.0800  143.9270  159.4463 C   0  0  0  0  0  0  0  0  0  0  0  0
  150.5539  143.1331  158.4090 C   0  0  0  0  0  0  0  0  0  0  0  0
  151.2549  141.9832  157.9976 C   0  0  0  0  0  0  0  0  0  0  0  0
  151.0189  141.0120  157.0283 N   0  0  0  0  0  0  0  0  0  0  0  0
  149.8692  140.9981  156.1294 C   0  0  0  0  0  0  0  0  0  0  0  0
  148.5397  140.7162  156.8566 C   0  0  2  0  0  0  0  0  0  0  0  0
  148.7689  139.7912  157.8997 O   0  0  0  0  0  0  0  0  0  0  0  0
  147.4861  140.1277  155.9047 C   0  0  0  0  0  0  0  0  0  0  0  0
  146.1936  140.5413  156.3285 O   0  0  0  0  0  0  0  0  0  0  0  0
  145.6033  141.6037  155.6774 C   0  0  0  0  0  0  0  0  0  0  0  0
  146.0459  142.1232  154.4343 C   0  0  0  0  0  0  0  0  0  0  0  0
  145.3844  143.2159  153.8407 C   0  0  0  0  0  0  0  0  0  0  0  0
  144.2744  143.8046  154.4773 C   0  0  0  0  0  0  0  0  0  0  0  0
  143.5622  144.9776  153.8371 C   0  0  0  0  0  0  0  0  0  0  0  0
  142.4591  145.4735  154.6738 C   0  0  0  0  0  0  0  0  0  0  0  0
  141.5913  145.8640  155.3320 N   0  0  0  0  0  0  0  0  0  0  0  0
  143.8276  143.2928  155.7110 C   0  0  0  0  0  0  0  0  0  0  0  0
  144.4893  142.2001  156.3033 C   0  0  0  0  0  0  0  0  0  0  0  0
  152.2356  138.3329  154.1649 H   0  0  0  0  0  0  0  0  0  0  0  0
  152.8881  139.9443  154.4389 H   0  0  0  0  0  0  0  0  0  0  0  0
  151.1499  139.6733  154.5162 H   0  0  0  0  0  0  0  0  0  0  0  0
  151.4540  138.2160  156.5311 H   0  0  0  0  0  0  0  0  0  0  0  0
  153.1729  138.4253  156.4535 H   0  0  0  0  0  0  0  0  0  0  0  0
  153.9281  142.1523  160.1212 H   0  0  0  0  0  0  0  0  0  0  0  0
  152.6975  144.1825  160.8560 H   0  0  0  0  0  0  0  0  0  0  0  0
  150.5506  144.8110  159.7704 H   0  0  0  0  0  0  0  0  0  0  0  0
  149.6222  143.4048  157.9354 H   0  0  0  0  0  0  0  0  0  0  0  0
  149.8187  141.9782  155.6538 H   0  0  0  0  0  0  0  0  0  0  0  0
  150.0235  140.2943  155.3146 H   0  0  0  0  0  0  0  0  0  0  0  0
  148.1641  141.6463  157.2854 H   0  0  0  0  0  0  0  0  0  0  0  0
  149.3889  139.1458  157.5958 H   0  0  0  0  0  0  0  0  0  0  0  0
  147.6564  140.5165  154.8995 H   0  0  0  0  0  0  0  0  0  0  0  0
  147.5665  139.0399  155.8591 H   0  0  0  0  0  0  0  0  0  0  0  0
  146.8918  141.7011  153.9136 H   0  0  0  0  0  0  0  0  0  0  0  0
  145.7321  143.6009  152.8933 H   0  0  0  0  0  0  0  0  0  0  0  0
  144.2641  145.7950  153.6698 H   0  0  0  0  0  0  0  0  0  0  0  0
  143.1574  144.6890  152.8669 H   0  0  0  0  0  0  0  0  0  0  0  0
  142.9756  143.7363  156.2051 H   0  0  0  0  0  0  0  0  0  0  0  0
  144.1383  141.8162  157.2501 H   0  0  0  0  0  0  0  0  0  0  0  0
  1  2  1  0  0  0  0
  1 26  1  0  0  0  0
  1 27  1  0  0  0  0
  1 28  1  0  0  0  0
  2  3  1  0  0  0  0
  2 29  1  0  0  0  0
  2 30  1  0  0  0  0
  3 11  1  0  0  0  0
  3  4  2  0  0  0  0
  4  5  1  0  0  0  0
  5 10  2  0  0  0  0
  5  6  1  0  0  0  0
  6  7  2  0  0  0  0
  6 31  1  0  0  0  0
  7  8  1  0  0  0  0
  7 32  1  0  0  0  0
  8  9  2  0  0  0  0
  8 33  1  0  0  0  0
  9 10  1  0  0  0  0
  9 34  1  0  0  0  0
 10 11  1  0  0  0  0
 11 12  1  0  0  0  0
 12 13  1  0  0  0  0
 12 35  1  0  0  0  0
 12 36  1  0  0  0  0
 13 14  1  0  0  0  0
 13 15  1  0  0  0  0
 13 37  1  0  0  0  0
 14 38  1  0  0  0  0
 15 16  1  0  0  0  0
 15 39  1  0  0  0  0
 15 40  1  0  0  0  0
 16 17  1  0  0  0  0
 17 25  1  0  0  0  0
 17 18  2  0  0  0  0
 18 19  1  0  0  0  0
 18 41  1  0  0  0  0
 19 20  2  0  0  0  0
 19 42  1  0  0  0  0
 20 21  1  0  0  0  0
 20 24  1  0  0  0  0
 21 22  1  0  0  0  0
 21 43  1  0  0  0  0
 21 44  1  0  0  0  0
 22 23  3  0  0  0  0
 24 25  2  0  0  0  0
 24 45  1  0  0  0  0
 25 46  1  0  0  0  0
M  END
> <s_m_source_file>
AV-unprocessed.smi

> <i_m_source_file_index>
480

> <i_lp_mmshare_version>
43012

> <i_f3d_flags>
0

> <s_epik_input>
W2NIXTFbY0hdW2NIXVtjSF1jKGMxMiluKGMobjIpW0NIMl1bQ0gzXSlbQ0gyXVtDQEhdKFtPSF0pW0NIMl1PYzNbY0hdW2NIXWMoW0NIMl1DI04pW2NIXVtjSF0z

> <s_epik_cmdline>
J2VwaWtfcHl0aG9uJywgJy1waCcsICc3LjAnLCAnLXRuJywgJzgnLCAnLW1hJywgJzIwMCcsICctbWV0YWxfYmluZGluZycsICctaW1hZScsICc8aW5maWxlLm1hZT4nLCAnLW9tYWUnLCAnPG91dGZpbGUubWFlPic=

> <r_lp_tautomer_probability>
1

> <r_epik_Ionization_Penalty>
0.114213

> <r_epik_Ionization_Penalty_Charging>
0

> <r_epik_Ionization_Penalty_Neutral>
0.114213

> <r_epik_State_Penalty>
0.103875

> <r_epik_Charging_Adjusted_Penalty>
0.103875

> <i_epik_Tot_Q>
0

> <i_epik_Tot_abs_Q>
0

> <r_epik_Metal_State_Penalty>
0.000113526

> <b_epik_Metal_Only>
0

> <s_lp_Force_Field>
OPLS_2005

> <r_lp_Energy>
17.1637

> <b_lp_Chiralities_Consistent>
1

> <s_lp_Variant>
AV-unprocessed.smi:480-1

> <Gold.Version>
5.8.1

> <Gold.Id.Protein>
6NUR|6NUR_protein|mol2

> <Gold.PLP.Fitness>
49.2895

> <Gold.PLP.PLP>
-48.5207

> <Gold.PLP.part.hbond>
-1.4158

> <Gold.PLP.part.metal>
0.0000

> <Gold.PLP.part.buried>
-6.8265

> <Gold.PLP.part.nonpolar>
-41.2152

> <Gold.PLP.part.repulsive>
0.0342

> <Gold.PLP.ligand.clash>
0.0000

> <Gold.PLP.ligand.torsion>
1.2373

> <Gold.PLP.Chemscore.Hbond>
0.9920

> <Gold.PLP.Chemscore.CHOScore>
0.0000

> <Gold.PLP.Chemscore.Metal>
0.0000

> <Gold.Chemscore.Hbonds>
donor molecule, donor type, donor heavy atom, donor atom, acceptor molecule, acceptor atom, score
      P1  H  7997  8008       L1     4  0.62

> <Gold.PLP.Chemscore.Internal.Correction>
0.2674

> <Gold.Rescore>
     Score         DG    S(hbond)    S(metal)    S(lipo)     H(rot)  DE(clash)    DE(int)     intcor
     13.38     -15.70       0.79        0.00     121.08       2.58       0.21       2.11       ----

> <Gold.Chemscore.Fitness>
13.3792

> <Gold.Chemscore.DG>
-15.7015

> <Gold.Chemscore.ZeroCoef>
-5.4800

> <Gold.Chemscore.Hbond>
0.7931

> <Gold.Chemscore.Metal>
0.0000

> <Gold.Chemscore.Lipo>
121.0850

> <Gold.Chemscore.Internal_Hbond>
0.0000

> <Gold.Chemscore.DEClash>
0.2148

> <Gold.Chemscore.DEInternal>
2.1075

> <Gold.Chemscore.Rot>
2.5759

> <Gold.Chemscore.Internal.Correction>
   9.000000E+99

> <Gold.Chemscore.Hbonds>
donor molecule, donor type, donor heavy atom, donor atom, acceptor molecule, acceptor atom, score
      P1  H  7997  8008       L1     4  0.08

> <Gold.Chemscore.Hbond.Weighted>
-2.6489

> <Gold.Chemscore.Metal.Weighted>
-0.0000

> <Gold.Chemscore.Lipo.Weighted>
-14.1669

> <Gold.Chemscore.Internal_Hbond.Weighted>
0.0000

> <Gold.Chemscore.DEClash.Weighted>
0.2148

> <Gold.Chemscore.DEInternal.Weighted>
2.1075

> <Gold.Chemscore.Rot.Weighted>
6.5943

> <Gold.Chemscore.Internal.Correction.Weighted>
   9.000000E+99

> <Gold.Protein.RotatedTorsions>
[ 6907 6896 6895 6894 ] final -131.71 input  -60.11 | X-H torsion
[ 7974 7965 7964 7962 ] final  179.61 input  175.53 | X-H torsion
[ 8008 7997 7996 7995 ] final  -77.06 input   59.86 | X-H torsion
[ 10167 10162 10161 10158 ] final   16.22 input  -65.29 | X-H torsion
[ 10718 10713 10712 10709 ] final  157.31 input   66.30 | X-H torsion
[ 10763 10752 10751 10750 ] final   65.88 input  -60.55 | X-H torsion
[ 11005 11000 10999 10996 ] final  -23.26 input  -57.11 | X-H torsion

> <Gold.Protein.ActiveResidues>
 VAL166  LYS551  ARG553  GLY616  TRP617  ASP618  TYR619  PRO620  LYS621  CYS622 
 ASP623  PHE694  ASN695  SER759  ASP760  ASP761  ALA762  ILE779  LEU786  VAL792 
 PHE793  MET794  SER795  GLU796  ALA797  LYS798  CYS799  TRP800  GLU811  SER814 

> <Gold.Protein.RotatedAtoms>
  150.9541  133.6517  159.2766 H   0  0  0  0  0  0  0  0  0  0  0  0  # atno 6907 bound_to 6896
  151.3863  135.0947  159.9522 H   0  0  0  0  0  0  0  0  0  0  0  0  # atno 6908 bound_to 6896
  152.5121  133.9064  159.7521 H   0  0  0  0  0  0  0  0  0  0  0  0  # atno 6909 bound_to 6896
  144.7144  140.0574  143.6433 H   0  0  0  0  0  0  0  0  0  0  0  0  # atno 7974 bound_to 7965
  154.5561  140.0717  156.8746 H   0  0  0  0  0  0  0  0  0  0  0  0  # atno 8008 bound_to 7997
  155.2899  140.3377  155.4235 H   0  0  0  0  0  0  0  0  0  0  0  0  # atno 8009 bound_to 7997
  156.2003  140.1719  156.7898 H   0  0  0  0  0  0  0  0  0  0  0  0  # atno 8010 bound_to 7997
  140.5813  143.8976  150.6792 H   0  0  0  0  0  0  0  0  0  0  0  0  # atno 10167 bound_to 10162
  157.1932  131.0659  151.2068 H   0  0  0  0  0  0  0  0  0  0  0  0  # atno 10718 bound_to 10713
  153.0115  135.5340  154.6737 H   0  0  0  0  0  0  0  0  0  0  0  0  # atno 10763 bound_to 10752
  154.5915  135.2859  155.0633 H   0  0  0  0  0  0  0  0  0  0  0  0  # atno 10764 bound_to 10752
  154.1724  135.6530  153.5065 H   0  0  0  0  0  0  0  0  0  0  0  0  # atno 10765 bound_to 10752
  140.8735  133.7704  156.0215 H   0  0  0  0  0  0  0  0  0  0  0  0  # atno 11005 bound_to 11000
  145.9893  139.3002  143.0994 LP  0  0  0  0  0  0  0  0  0  0  0  0  # atno 17320 bound_to 7965
  145.8921  140.9297  143.0546 LP  0  0  0  0  0  0  0  0  0  0  0  0  # atno 17321 bound_to 7965
  140.2476  143.3617  152.1434 LP  0  0  0  0  0  0  0  0  0  0  0  0  # atno 17342 bound_to 10162
  139.5171  144.6987  151.5555 LP  0  0  0  0  0  0  0  0  0  0  0  0  # atno 17343 bound_to 10162
  157.3840  130.7246  149.6650 LP  0  0  0  0  0  0  0  0  0  0  0  0  # atno 17370 bound_to 10713
  155.9709  130.4164  150.4231 LP  0  0  0  0  0  0  0  0  0  0  0  0  # atno 17371 bound_to 10713
  140.8546  134.2913  157.5261 LP  0  0  0  0  0  0  0  0  0  0  0  0  # atno 17394 bound_to 11000
  139.8714  134.9486  156.4000 LP  0  0  0  0  0  0  0  0  0  0  0  0  # atno 17395 bound_to 11000

$$$$
