AV-unprocessed.smi:1795|AV-procd|sdf|7245|dock5
  -GOLD-   22720 8493D 1   1.00000     0.00000
 Structure written by MMmdl.
 48 49  0  0  0  0  0  0  0  0  2 V2000
  145.7388  132.3865  151.0448 C   0  0  0  0  0  0  0  0  0  0  0  0
  146.3157  133.6304  151.7297 C   0  0  2  0  0  0  0  0  0  0  0  0
  147.2942  133.2655  152.8590 C   0  0  0  0  0  0  0  0  0  0  0  0
  147.7887  134.4855  153.5501 N   0  3  2  0  0  0  0  0  0  0  0  0
  148.8744  134.1844  154.5404 C   0  0  1  0  0  0  0  0  0  0  0  0
  149.6528  135.4790  154.8685 C   0  0  0  0  0  0  0  0  0  0  0  0
  148.3679  133.4989  155.8402 C   0  0  0  0  0  0  0  0  0  0  0  0
  147.7018  134.4323  156.7452 N   0  0  0  0  0  0  0  0  0  0  0  0
  148.0143  134.6238  158.0364 C   0  0  0  0  0  0  0  0  0  0  0  0
  148.9444  134.0463  158.6002 O   0  0  0  0  0  0  0  0  0  0  0  0
  147.1368  135.6248  158.8004 C   0  0  0  0  0  0  0  0  0  0  0  0
  147.3071  135.5445  160.2610 N   0  0  0  0  0  0  0  0  0  0  0  0
  146.9124  134.3472  160.8907 C   0  0  0  0  0  0  0  0  0  0  0  0
  147.0312  134.1696  162.2160 C   0  0  0  0  0  0  0  0  0  0  0  0
  147.5807  135.2479  163.0033 C   0  0  0  0  0  0  0  0  0  0  0  0
  147.9590  136.3985  162.4117 C   0  0  0  0  0  0  0  0  0  0  0  0
  147.8313  136.5970  160.9634 C   0  0  0  0  0  0  0  0  0  0  0  0
  148.1741  137.6450  160.4142 O   0  0  0  0  0  0  0  0  0  0  0  0
  146.6278  135.2621  154.0653 C   0  0  0  0  0  0  0  0  0  0  0  0
  145.6088  135.5691  152.9490 C   0  0  1  0  0  0  0  0  0  0  0  0
  146.0785  136.6645  151.9746 C   0  0  0  0  0  0  0  0  0  0  0  0
  145.2295  134.3723  152.2736 O   0  0  0  0  0  0  0  0  0  0  0  0
  146.5281  131.7834  150.5953 H   0  0  0  0  0  0  0  0  0  0  0  0
  145.0433  132.6653  150.2527 H   0  0  0  0  0  0  0  0  0  0  0  0
  145.1998  131.7576  151.7538 H   0  0  0  0  0  0  0  0  0  0  0  0
  146.8305  134.2228  150.9731 H   0  0  0  0  0  0  0  0  0  0  0  0
  146.8031  132.6130  153.5832 H   0  0  0  0  0  0  0  0  0  0  0  0
  148.1180  132.6945  152.4343 H   0  0  0  0  0  0  0  0  0  0  0  0
  149.5646  133.4838  154.0669 H   0  0  0  0  0  0  0  0  0  0  0  0
  150.5168  135.2820  155.5024 H   0  0  0  0  0  0  0  0  0  0  0  0
  149.0181  136.1958  155.3906 H   0  0  0  0  0  0  0  0  0  0  0  0
  150.0442  135.9734  153.9816 H   0  0  0  0  0  0  0  0  0  0  0  0
  147.7156  132.6582  155.5978 H   0  0  0  0  0  0  0  0  0  0  0  0
  149.2040  133.0911  156.4083 H   0  0  0  0  0  0  0  0  0  0  0  0
  146.9272  134.9579  156.3662 H   0  0  0  0  0  0  0  0  0  0  0  0
  147.3702  136.6256  158.4346 H   0  0  0  0  0  0  0  0  0  0  0  0
  146.0870  135.4635  158.5464 H   0  0  0  0  0  0  0  0  0  0  0  0
  146.5064  133.5916  160.2340 H   0  0  0  0  0  0  0  0  0  0  0  0
  146.7218  133.2454  162.6818 H   0  0  0  0  0  0  0  0  0  0  0  0
  147.6880  135.1319  164.0717 H   0  0  0  0  0  0  0  0  0  0  0  0
  148.3674  137.1946  163.0167 H   0  0  0  0  0  0  0  0  0  0  0  0
  146.1435  134.6927  154.8605 H   0  0  0  0  0  0  0  0  0  0  0  0
  146.9430  136.2125  154.4949 H   0  0  0  0  0  0  0  0  0  0  0  0
  144.7020  135.9436  153.4247 H   0  0  0  0  0  0  0  0  0  0  0  0
  146.2320  137.6081  152.4991 H   0  0  0  0  0  0  0  0  0  0  0  0
  145.3338  136.8389  151.1977 H   0  0  0  0  0  0  0  0  0  0  0  0
  147.0191  136.4110  151.4865 H   0  0  0  0  0  0  0  0  0  0  0  0
  148.2140  135.0705  152.8448 H   0  0  0  0  0  0  0  0  0  0  0  0
  1  2  1  0  0  0  0
  1 23  1  0  0  0  0
  1 24  1  0  0  0  0
  1 25  1  0  0  0  0
  2 22  1  0  0  0  0
  2  3  1  0  0  0  0
  2 26  1  0  0  0  0
  3  4  1  0  0  0  0
  3 27  1  0  0  0  0
  3 28  1  0  0  0  0
  4  5  1  0  0  0  0
  4 19  1  0  0  0  0
  4 48  1  0  0  0  0
  5  6  1  0  0  0  0
  5  7  1  0  0  0  0
  5 29  1  0  0  0  0
  6 30  1  0  0  0  0
  6 31  1  0  0  0  0
  6 32  1  0  0  0  0
  7  8  1  0  0  0  0
  7 33  1  0  0  0  0
  7 34  1  0  0  0  0
  8  9  1  0  0  0  0
  8 35  1  0  0  0  0
  9 10  2  0  0  0  0
  9 11  1  0  0  0  0
 11 12  1  0  0  0  0
 11 36  1  0  0  0  0
 11 37  1  0  0  0  0
 12 17  1  0  0  0  0
 12 13  1  0  0  0  0
 13 14  2  0  0  0  0
 13 38  1  0  0  0  0
 14 15  1  0  0  0  0
 14 39  1  0  0  0  0
 15 16  2  0  0  0  0
 15 40  1  0  0  0  0
 16 17  1  0  0  0  0
 16 41  1  0  0  0  0
 17 18  2  0  0  0  0
 19 20  1  0  0  0  0
 19 42  1  0  0  0  0
 19 43  1  0  0  0  0
 20 21  1  0  0  0  0
 20 22  1  0  0  0  0
 20 44  1  0  0  0  0
 21 45  1  0  0  0  0
 21 46  1  0  0  0  0
 21 47  1  0  0  0  0
M  CHG  1   4   1
M  END
> <s_m_source_file>
AV-unprocessed.smi

> <i_m_source_file_index>
1795

> <i_lp_mmshare_version>
43012

> <i_f3d_flags>
0

> <s_epik_input>
W0NIM11bQ0BASF0xW0NIMl1OKFtDSDJdW0NASF0oTzEpW0NIM10pW0NASF0oW0NIM10pW0NIMl1bTkhdQyg9TylbQ0gyXW4yW2NIXVtjSF1bY0hdW2NIXWMyPU8=

> <s_epik_cmdline>
J2VwaWtfcHl0aG9uJywgJy1waCcsICc3LjAnLCAnLXRuJywgJzgnLCAnLW1hJywgJzIwMCcsICctbWV0YWxfYmluZGluZycsICctaW1hZScsICc8aW5maWxlLm1hZT4nLCAnLW9tYWUnLCAnPG91dGZpbGUubWFlPic=

> <r_lp_tautomer_probability>
1

> <r_epik_Ionization_Penalty>
0.656654

> <r_epik_Ionization_Penalty_Charging>
0.656654

> <r_epik_Ionization_Penalty_Neutral>
8.90321e-08

> <r_epik_State_Penalty>
0.675641

> <r_epik_Charging_Adjusted_Penalty>
1.33229

> <i_epik_Tot_Q>
1

> <i_epik_Tot_abs_Q>
1

> <r_epik_Metal_State_Penalty>
0.675691

> <b_epik_Metal_Only>
0

> <s_lp_Force_Field>
OPLS_2005

> <r_lp_Energy>
30.7176

> <b_lp_Chiralities_Consistent>
1

> <s_lp_Variant>
AV-unprocessed.smi:1795-9

> <Gold.Version>
5.8.1

> <Gold.Id.Protein>
6NUR|6NUR_protein|mol2

> <Gold.PLP.Fitness>
47.4418

> <Gold.PLP.PLP>
-34.4315

> <Gold.PLP.part.hbond>
-4.0000

> <Gold.PLP.part.metal>
0.0000

> <Gold.PLP.part.buried>
-2.0878

> <Gold.PLP.part.nonpolar>
-29.2649

> <Gold.PLP.part.repulsive>
0.0851

> <Gold.PLP.ligand.clash>
0.0000

> <Gold.PLP.ligand.torsion>
0.4848

> <Gold.PLP.Chemscore.Hbond>
4.6320

> <Gold.PLP.Chemscore.CHOScore>
0.0000

> <Gold.PLP.Chemscore.Metal>
0.0000

> <Gold.Chemscore.Hbonds>
donor molecule, donor type, donor heavy atom, donor atom, acceptor molecule, acceptor atom, score
      L1  H     4    48       P1  7948  2.00
      P1  H  6896  6907       L1    10  0.91
      P1  H  6931  6943       L1    18  0.36
      P1  H  6934  6947       L1    18  0.54

> <Gold.PLP.Chemscore.Internal.Correction>
0.0839

> <Gold.Rescore>
     Score         DG    S(hbond)    S(metal)    S(lipo)     H(rot)  DE(clash)    DE(int)     intcor
     18.85     -20.14       3.20        0.00      75.30       1.89       0.07       1.22       ----

> <Gold.Chemscore.Fitness>
18.8503

> <Gold.Chemscore.DG>
-20.1449

> <Gold.Chemscore.ZeroCoef>
-5.4800

> <Gold.Chemscore.Hbond>
3.1992

> <Gold.Chemscore.Metal>
0.0000

> <Gold.Chemscore.Lipo>
75.3020

> <Gold.Chemscore.Internal_Hbond>
0.0000

> <Gold.Chemscore.DEClash>
0.0742

> <Gold.Chemscore.DEInternal>
1.2205

> <Gold.Chemscore.Rot>
1.8870

> <Gold.Chemscore.Internal.Correction>
   9.000000E+99

> <Gold.Chemscore.Hbonds>
donor molecule, donor type, donor heavy atom, donor atom, acceptor molecule, acceptor atom, score
      L1  H     4    48       P1  7948  0.90
      P1  H  6896  6907       L1    10  0.86
      P1  H  6931  6943       L1    18  0.04
      P1  H  6934  6947       L1    18  0.46

> <Gold.Chemscore.Hbond.Weighted>
-10.6853

> <Gold.Chemscore.Metal.Weighted>
-0.0000

> <Gold.Chemscore.Lipo.Weighted>
-8.8103

> <Gold.Chemscore.Internal_Hbond.Weighted>
0.0000

> <Gold.Chemscore.DEClash.Weighted>
0.0742

> <Gold.Chemscore.DEInternal.Weighted>
1.2205

> <Gold.Chemscore.Rot.Weighted>
4.8308

> <Gold.Chemscore.Internal.Correction.Weighted>
   9.000000E+99

> <Gold.Protein.RotatedTorsions>
[ 6907 6896 6895 6894 ] final -121.67 input  -60.11 | X-H torsion
[ 7974 7965 7964 7962 ] final  -29.39 input  175.53 | X-H torsion
[ 8008 7997 7996 7995 ] final  -84.54 input   59.86 | X-H torsion
[ 10167 10162 10161 10158 ] final  -93.73 input  -65.29 | X-H torsion
[ 10718 10713 10712 10709 ] final   -7.41 input   66.30 | X-H torsion
[ 10763 10752 10751 10750 ] final -105.73 input  -60.55 | X-H torsion
[ 11005 11000 10999 10996 ] final -126.66 input  -57.11 | X-H torsion

> <Gold.Protein.ActiveResidues>
 VAL166  LYS551  ARG553  GLY616  TRP617  ASP618  TYR619  PRO620  LYS621  CYS622 
 ASP623  PHE694  ASN695  SER759  ASP760  ASP761  ALA762  ILE779  LEU786  VAL792 
 PHE793  MET794  SER795  GLU796  ALA797  LYS798  CYS799  TRP800  GLU811  SER814 

> <Gold.Protein.RotatedAtoms>
  150.8505  133.7794  159.3027 H   0  0  0  0  0  0  0  0  0  0  0  0  # atno 6907 bound_to 6896
  151.5468  135.1066  159.9949 H   0  0  0  0  0  0  0  0  0  0  0  0  # atno 6908 bound_to 6896
  152.4549  133.7659  159.6828 H   0  0  0  0  0  0  0  0  0  0  0  0  # atno 6909 bound_to 6896
  146.1220  140.5406  142.8731 H   0  0  0  0  0  0  0  0  0  0  0  0  # atno 7974 bound_to 7965
  154.6309  140.0603  156.9730 H   0  0  0  0  0  0  0  0  0  0  0  0  # atno 8008 bound_to 7997
  155.1668  140.3287  155.4382 H   0  0  0  0  0  0  0  0  0  0  0  0  # atno 8009 bound_to 7997
  156.2482  140.1921  156.6772 H   0  0  0  0  0  0  0  0  0  0  0  0  # atno 8010 bound_to 7997
  140.3216  143.3046  152.0040 H   0  0  0  0  0  0  0  0  0  0  0  0  # atno 10167 bound_to 10162
  156.7177  130.5141  149.5876 H   0  0  0  0  0  0  0  0  0  0  0  0  # atno 10718 bound_to 10713
  154.7966  135.4738  154.0175 H   0  0  0  0  0  0  0  0  0  0  0  0  # atno 10763 bound_to 10752
  153.1713  135.6825  153.8611 H   0  0  0  0  0  0  0  0  0  0  0  0  # atno 10764 bound_to 10752
  153.8193  135.3206  155.3386 H   0  0  0  0  0  0  0  0  0  0  0  0  # atno 10765 bound_to 10752
  140.9663  134.0867  157.3917 H   0  0  0  0  0  0  0  0  0  0  0  0  # atno 11005 bound_to 11000
  144.7606  140.5412  143.6738 LP  0  0  0  0  0  0  0  0  0  0  0  0  # atno 17320 bound_to 7965
  145.5446  139.1476  143.3428 LP  0  0  0  0  0  0  0  0  0  0  0  0  # atno 17321 bound_to 7965
  139.4873  144.6306  151.7077 LP  0  0  0  0  0  0  0  0  0  0  0  0  # atno 17342 bound_to 10162
  140.5478  144.0475  150.6114 LP  0  0  0  0  0  0  0  0  0  0  0  0  # atno 17343 bound_to 10162
  156.1616  130.6378  151.0726 LP  0  0  0  0  0  0  0  0  0  0  0  0  # atno 17370 bound_to 10713
  157.6911  131.0810  150.7105 LP  0  0  0  0  0  0  0  0  0  0  0  0  # atno 17371 bound_to 10713
  139.8896  135.0106  156.6686 LP  0  0  0  0  0  0  0  0  0  0  0  0  # atno 17394 bound_to 11000
  140.7395  133.8990  155.8267 LP  0  0  0  0  0  0  0  0  0  0  0  0  # atno 17395 bound_to 11000

$$$$
