AV-unprocessed.smi:177|AV-procd|sdf|1443|dock8
  -GOLD-   2262019233D 1   1.00000     0.00000
 Structure written by MMmdl.
 61 65  0  0  0  0  0  0  0  0  1 V2000
  152.5456  142.8376  162.0719 C   0  0  0  0  0  0  0  0  0  0  0  0
  152.1699  143.4912  160.8691 O   0  0  0  0  0  0  0  0  0  0  0  0
  153.1215  143.3952  159.8136 C   0  0  2  0  0  0  0  0  0  0  0  0
  152.8359  144.5349  158.8179 C   0  0  0  0  0  0  0  0  0  0  0  0
  151.5033  144.3319  158.0761 C   0  0  0  0  0  0  0  0  0  0  0  0
  151.4558  142.9591  157.3879 C   0  0  2  0  0  0  0  0  0  0  0  0
  150.1847  142.7923  156.7680 O   0  0  0  0  0  0  0  0  0  0  0  0
  150.1030  141.5681  156.0461 C   0  0  0  0  0  0  0  0  0  0  0  0
  150.2993  140.3880  157.0113 C   0  0  0  0  0  0  0  0  0  0  0  0
  151.5570  140.5279  157.7366 N   0  0  0  0  0  0  0  0  0  0  0  0
  151.8215  139.4218  158.4691 C   0  0  0  0  0  0  0  0  0  0  0  0
  150.7653  138.6352  158.7904 N   0  0  0  0  0  0  0  0  0  0  0  0
  150.9540  137.5192  159.5004 C   0  0  0  0  0  0  0  0  0  0  0  0
  152.0933  137.0208  159.9847 N   0  0  0  0  0  0  0  0  0  0  0  0
  153.1566  137.8197  159.6815 C   0  0  0  0  0  0  0  0  0  0  0  0
  153.1109  139.0297  158.9326 C   0  0  0  0  0  0  0  0  0  0  0  0
  154.3884  139.5642  158.8232 N   0  0  0  0  0  0  0  0  0  0  0  0
  155.1468  138.7128  159.4560 C   0  0  0  0  0  0  0  0  0  0  0  0
  154.4881  137.6438  160.0213 N   0  0  0  0  0  0  0  0  0  0  0  0
  155.0903  136.5531  160.7766 C   0  0  0  0  0  0  0  0  0  0  0  0
  155.7872  136.9741  162.1103 C   0  0  0  0  0  0  0  0  0  0  0  0
  157.0443  137.8368  161.8221 C   0  0  0  0  0  0  0  0  0  0  0  0
  157.6869  138.2590  163.0086 O   0  0  0  0  0  0  0  0  0  0  0  0
  154.8034  137.7773  162.9984 C   0  0  0  0  0  0  0  0  0  0  0  0
  153.6913  136.9016  163.6070 C   0  0  0  0  0  0  0  0  0  0  0  0
  154.2598  135.8237  164.3396 O   0  0  0  0  0  0  0  0  0  0  0  0
  155.0531  134.9633  163.5326 C   0  0  0  0  0  0  0  0  0  0  0  0
  156.2390  135.7500  162.9472 C   0  0  0  0  0  0  0  0  0  0  0  0
  151.6821  141.8230  158.4113 C   0  0  1  0  0  0  0  0  0  0  0  0
  153.0497  142.0251  159.1056 C   0  0  0  0  0  0  0  0  0  0  0  0
  151.7887  143.0245  162.8332 H   0  0  0  0  0  0  0  0  0  0  0  0
  153.4968  143.2151  162.4485 H   0  0  0  0  0  0  0  0  0  0  0  0
  152.6208  141.7579  161.9461 H   0  0  0  0  0  0  0  0  0  0  0  0
  154.1222  143.5442  160.2223 H   0  0  0  0  0  0  0  0  0  0  0  0
  152.8318  145.4935  159.3374 H   0  0  0  0  0  0  0  0  0  0  0  0
  153.6457  144.5860  158.0888 H   0  0  0  0  0  0  0  0  0  0  0  0
  150.6747  144.4194  158.7802 H   0  0  0  0  0  0  0  0  0  0  0  0
  151.3666  145.1230  157.3383 H   0  0  0  0  0  0  0  0  0  0  0  0
  152.2309  142.9271  156.6195 H   0  0  0  0  0  0  0  0  0  0  0  0
  149.1266  141.5032  155.5660 H   0  0  0  0  0  0  0  0  0  0  0  0
  150.8508  141.5492  155.2519 H   0  0  0  0  0  0  0  0  0  0  0  0
  149.4727  140.3486  157.7228 H   0  0  0  0  0  0  0  0  0  0  0  0
  150.2883  139.4503  156.4534 H   0  0  0  0  0  0  0  0  0  0  0  0
  150.0654  136.9423  159.7099 H   0  0  0  0  0  0  0  0  0  0  0  0
  156.2155  138.8484  159.5336 H   0  0  0  0  0  0  0  0  0  0  0  0
  154.3143  135.8129  160.9752 H   0  0  0  0  0  0  0  0  0  0  0  0
  155.7920  136.0541  160.1102 H   0  0  0  0  0  0  0  0  0  0  0  0
  157.7713  137.2738  161.2357 H   0  0  0  0  0  0  0  0  0  0  0  0
  156.7898  138.7148  161.2281 H   0  0  0  0  0  0  0  0  0  0  0  0
  158.2960  137.5880  163.2766 H   0  0  0  0  0  0  0  0  0  0  0  0
  155.3519  138.2446  163.8175 H   0  0  0  0  0  0  0  0  0  0  0  0
  154.3551  138.5943  162.4317 H   0  0  0  0  0  0  0  0  0  0  0  0
  153.0827  137.4985  164.2866 H   0  0  0  0  0  0  0  0  0  0  0  0
  153.0141  136.5206  162.8422 H   0  0  0  0  0  0  0  0  0  0  0  0
  155.4209  134.1470  164.1543 H   0  0  0  0  0  0  0  0  0  0  0  0
  154.4433  134.5101  162.7508 H   0  0  0  0  0  0  0  0  0  0  0  0
  156.8835  135.0895  162.3686 H   0  0  0  0  0  0  0  0  0  0  0  0
  156.8530  136.0900  163.7827 H   0  0  0  0  0  0  0  0  0  0  0  0
  150.8937  141.8944  159.1604 H   0  0  0  0  0  0  0  0  0  0  0  0
  153.8441  141.9638  158.3606 H   0  0  0  0  0  0  0  0  0  0  0  0
  153.2569  141.2285  159.8180 H   0  0  0  0  0  0  0  0  0  0  0  0
  1  2  1  0  0  0  0
  1 31  1  0  0  0  0
  1 32  1  0  0  0  0
  1 33  1  0  0  0  0
  2  3  1  0  0  0  0
  3 30  1  0  0  0  0
  3  4  1  0  0  0  0
  3 34  1  0  0  0  0
  4  5  1  0  0  0  0
  4 35  1  0  0  0  0
  4 36  1  0  0  0  0
  5  6  1  0  0  0  0
  5 37  1  0  0  0  0
  5 38  1  0  0  0  0
  6 29  1  0  0  0  0
  6  7  1  0  0  0  0
  6 39  1  0  0  0  0
  7  8  1  0  0  0  0
  8  9  1  0  0  0  0
  8 40  1  0  0  0  0
  8 41  1  0  0  0  0
  9 10  1  0  0  0  0
  9 42  1  0  0  0  0
  9 43  1  0  0  0  0
 10 11  1  0  0  0  0
 10 29  1  0  0  0  0
 11 16  1  0  0  0  0
 11 12  2  0  0  0  0
 12 13  1  0  0  0  0
 13 14  2  0  0  0  0
 13 44  1  0  0  0  0
 14 15  1  0  0  0  0
 15 19  1  0  0  0  0
 15 16  2  0  0  0  0
 16 17  1  0  0  0  0
 17 18  2  0  0  0  0
 18 19  1  0  0  0  0
 18 45  1  0  0  0  0
 19 20  1  0  0  0  0
 20 21  1  0  0  0  0
 20 46  1  0  0  0  0
 20 47  1  0  0  0  0
 21 28  1  0  0  0  0
 21 22  1  0  0  0  0
 21 24  1  0  0  0  0
 22 23  1  0  0  0  0
 22 48  1  0  0  0  0
 22 49  1  0  0  0  0
 23 50  1  0  0  0  0
 24 25  1  0  0  0  0
 24 51  1  0  0  0  0
 24 52  1  0  0  0  0
 25 26  1  0  0  0  0
 25 53  1  0  0  0  0
 25 54  1  0  0  0  0
 26 27  1  0  0  0  0
 27 28  1  0  0  0  0
 27 55  1  0  0  0  0
 27 56  1  0  0  0  0
 28 57  1  0  0  0  0
 28 58  1  0  0  0  0
 29 30  1  0  0  0  0
 29 59  1  0  0  0  0
 30 60  1  0  0  0  0
 30 61  1  0  0  0  0
M  END
> <s_m_source_file>
AV-unprocessed.smi

> <i_m_source_file_index>
177

> <i_lp_mmshare_version>
43012

> <i_f3d_flags>
0

> <s_epik_input>
W0NIM11PW0NASF0oW0NIMl1bQ0gyXTEpW0NIMl1bQ0BIXShbQ0BASF0xMilOKFtDSDJdW0NIMl1PMiljKG5bY0hdbjMpYyhjMzQpbltjSF1uNFtDSDJdQzUoW0NIMl1bT0hdKVtDSDJdW0NIMl1PW0NIMl1bQ0gyXTU=

> <s_epik_cmdline>
J2VwaWtfcHl0aG9uJywgJy1waCcsICc3LjAnLCAnLXRuJywgJzgnLCAnLW1hJywgJzIwMCcsICctbWV0YWxfYmluZGluZycsICctaW1hZScsICc8aW5maWxlLm1hZT4nLCAnLW9tYWUnLCAnPG91dGZpbGUubWFlPic=

> <r_lp_tautomer_probability>
1

> <r_epik_Ionization_Penalty>
0.0065899

> <r_epik_Ionization_Penalty_Charging>
0

> <r_epik_Ionization_Penalty_Neutral>
0.0065899

> <r_epik_State_Penalty>
0.00470042

> <r_epik_Charging_Adjusted_Penalty>
0.00470042

> <i_epik_Tot_Q>
0

> <i_epik_Tot_abs_Q>
0

> <r_epik_Metal_State_Penalty>
-0

> <b_epik_Metal_Only>
0

> <s_lp_Force_Field>
OPLS_2005

> <r_lp_Energy>
42.7066

> <b_lp_Chiralities_Consistent>
1

> <s_lp_Variant>
AV-unprocessed.smi:177-7

> <Gold.Version>
5.8.1

> <Gold.Id.Protein>
6NUR|6NUR_protein|mol2

> <Gold.PLP.Fitness>
49.7553

> <Gold.PLP.PLP>
-44.8688

> <Gold.PLP.part.hbond>
-2.0000

> <Gold.PLP.part.metal>
0.0000

> <Gold.PLP.part.buried>
-8.2404

> <Gold.PLP.part.nonpolar>
-37.4453

> <Gold.PLP.part.repulsive>
3.7311

> <Gold.PLP.ligand.clash>
0.0000

> <Gold.PLP.ligand.torsion>
0.6403

> <Gold.PLP.Chemscore.Hbond>
2.0000

> <Gold.PLP.Chemscore.CHOScore>
0.0000

> <Gold.PLP.Chemscore.Metal>
0.0000

> <Gold.Chemscore.Hbonds>
donor molecule, donor type, donor heavy atom, donor atom, acceptor molecule, acceptor atom, score
      P1  H  6896  6908       L1    14  1.00
      P1  H  7997  8010       L1    17  1.00

> <Gold.PLP.Chemscore.Internal.Correction>
0.1671

> <Gold.Rescore>
     Score         DG    S(hbond)    S(metal)    S(lipo)     H(rot)  DE(clash)    DE(int)     intcor
     15.95     -21.07       1.87        0.00     136.44       2.58       1.88       3.24       ----

> <Gold.Chemscore.Fitness>
15.9544

> <Gold.Chemscore.DG>
-21.0700

> <Gold.Chemscore.ZeroCoef>
-5.4800

> <Gold.Chemscore.Hbond>
1.8660

> <Gold.Chemscore.Metal>
0.0000

> <Gold.Chemscore.Lipo>
136.4412

> <Gold.Chemscore.Internal_Hbond>
0.0000

> <Gold.Chemscore.DEClash>
1.8763

> <Gold.Chemscore.DEInternal>
3.2393

> <Gold.Chemscore.Rot>
2.5806

> <Gold.Chemscore.Internal.Correction>
   9.000000E+99

> <Gold.Chemscore.Hbonds>
donor molecule, donor type, donor heavy atom, donor atom, acceptor molecule, acceptor atom, score
      P1  H  6896  6908       L1    14  0.35
      P1  H  7997  8010       L1    17  0.78

> <Gold.Chemscore.Hbond.Weighted>
-6.2326

> <Gold.Chemscore.Metal.Weighted>
-0.0000

> <Gold.Chemscore.Lipo.Weighted>
-15.9636

> <Gold.Chemscore.Internal_Hbond.Weighted>
0.0000

> <Gold.Chemscore.DEClash.Weighted>
1.8763

> <Gold.Chemscore.DEInternal.Weighted>
3.2393

> <Gold.Chemscore.Rot.Weighted>
6.6062

> <Gold.Chemscore.Internal.Correction.Weighted>
   9.000000E+99

> <Gold.Protein.RotatedTorsions>
[ 6907 6896 6895 6894 ] final -112.06 input  -60.11 | X-H torsion
[ 7974 7965 7964 7962 ] final -112.79 input  175.53 | X-H torsion
[ 8008 7997 7996 7995 ] final   23.11 input   59.86 | X-H torsion
[ 10167 10162 10161 10158 ] final  -62.82 input  -65.29 | X-H torsion
[ 10718 10713 10712 10709 ] final   91.75 input   66.30 | X-H torsion
[ 10763 10752 10751 10750 ] final  -50.12 input  -60.55 | X-H torsion
[ 11005 11000 10999 10996 ] final  163.74 input  -57.11 | X-H torsion

> <Gold.Protein.ActiveResidues>
 VAL166  LYS551  ARG553  GLY616  TRP617  ASP618  TYR619  PRO620  LYS621  CYS622 
 ASP623  PHE694  ASN695  SER759  ASP760  ASP761  ALA762  ILE779  LEU786  VAL792 
 PHE793  MET794  SER795  GLU796  ALA797  LYS798  CYS799  TRP800  GLU811  SER814 

> <Gold.Protein.RotatedAtoms>
  150.7733  133.9144  159.3378 H   0  0  0  0  0  0  0  0  0  0  0  0  # atno 6907 bound_to 6896
  151.7025  135.0925  160.0263 H   0  0  0  0  0  0  0  0  0  0  0  0  # atno 6908 bound_to 6896
  152.3759  133.6442  159.6158 H   0  0  0  0  0  0  0  0  0  0  0  0  # atno 6909 bound_to 6896
  145.1397  140.8771  143.3709 H   0  0  0  0  0  0  0  0  0  0  0  0  # atno 7974 bound_to 7965
  154.9759  140.3096  155.4967 H   0  0  0  0  0  0  0  0  0  0  0  0  # atno 8008 bound_to 7997
  156.2960  140.2275  156.4794 H   0  0  0  0  0  0  0  0  0  0  0  0  # atno 8009 bound_to 7997
  154.7834  140.0444  157.1133 H   0  0  0  0  0  0  0  0  0  0  0  0  # atno 8010 bound_to 7997
  140.5913  143.2342  151.6133 H   0  0  0  0  0  0  0  0  0  0  0  0  # atno 10167 bound_to 10162
  157.6960  131.0418  150.3776 H   0  0  0  0  0  0  0  0  0  0  0  0  # atno 10718 bound_to 10713
  154.1052  135.6557  153.4875 H   0  0  0  0  0  0  0  0  0  0  0  0  # atno 10763 bound_to 10752
  153.0275  135.5234  154.7246 H   0  0  0  0  0  0  0  0  0  0  0  0  # atno 10764 bound_to 10752
  154.6410  135.2988  155.0072 H   0  0  0  0  0  0  0  0  0  0  0  0  # atno 10765 bound_to 10752
  140.2389  134.8066  157.3391 H   0  0  0  0  0  0  0  0  0  0  0  0  # atno 11005 bound_to 11000
  145.0545  139.3154  143.5911 LP  0  0  0  0  0  0  0  0  0  0  0  0  # atno 17320 bound_to 7965
  146.3506  139.9965  142.8680 LP  0  0  0  0  0  0  0  0  0  0  0  0  # atno 17321 bound_to 7965
  139.5229  144.3148  152.0962 LP  0  0  0  0  0  0  0  0  0  0  0  0  # atno 17342 bound_to 10162
  140.2313  144.4365  150.6299 LP  0  0  0  0  0  0  0  0  0  0  0  0  # atno 17343 bound_to 10162
  156.4194  130.3950  149.6836 LP  0  0  0  0  0  0  0  0  0  0  0  0  # atno 17370 bound_to 10713
  156.4092  130.7713  151.2725 LP  0  0  0  0  0  0  0  0  0  0  0  0  # atno 17371 bound_to 10713
  140.1674  134.4652  155.7854 LP  0  0  0  0  0  0  0  0  0  0  0  0  # atno 17394 bound_to 11000
  141.2212  133.6927  156.7648 LP  0  0  0  0  0  0  0  0  0  0  0  0  # atno 17395 bound_to 11000

$$$$
