AV-unprocessed.smi:2354|AV-procd|sdf|9384|dock7
  -GOLD-   2272013 13D 1   1.00000     0.00000
 Structure written by MMmdl.
 44 45  0  0  0  0  0  0  0  0  2 V2000
  145.8606  143.2583  153.2188 C   0  0  0  0  0  0  0  0  0  0  0  0
  145.2806  142.3613  154.2426 N   0  3  0  0  0  0  0  0  0  0  0  0
  144.1931  143.0262  154.9958 C   0  0  0  0  0  0  0  0  0  0  0  0
  146.3142  141.7448  155.1178 C   0  0  0  0  0  0  0  0  0  0  0  0
  147.0781  140.5777  154.4344 C   0  0  0  0  0  0  0  0  0  0  0  0
  148.5531  140.9641  154.1130 C   0  0  0  0  0  0  0  0  0  0  0  0
  149.1078  141.9662  155.0218 N   0  0  0  0  0  0  0  0  0  0  0  0
  149.9290  141.7143  156.0518 C   0  0  0  0  0  0  0  0  0  0  0  0
  150.2972  140.5827  156.3663 O   0  0  0  0  0  0  0  0  0  0  0  0
  150.2690  142.8473  156.6900 N   0  0  0  0  0  0  0  0  0  0  0  0
  151.0638  142.9937  157.8573 C   0  0  0  0  0  0  0  0  0  0  0  0
  151.7388  144.2088  158.1326 C   0  0  0  0  0  0  0  0  0  0  0  0
  152.4885  144.2974  159.3178 C   0  0  0  0  0  0  0  0  0  0  0  0
  152.5059  143.1698  160.1559 C   0  0  0  0  0  0  0  0  0  0  0  0
  151.8319  142.0377  159.8603 N   0  0  0  0  0  0  0  0  0  0  0  0
  151.1185  141.9601  158.7319 N   0  0  0  0  0  0  0  0  0  0  0  0
  147.0044  139.3107  155.3112 C   0  0  0  0  0  0  0  0  0  0  0  0
  147.2194  138.1241  154.3667 C   0  0  0  0  0  0  0  0  0  0  0  0
  146.7829  138.6122  152.9802 C   0  0  0  0  0  0  0  0  0  0  0  0
  146.3735  140.0801  153.1579 C   0  0  0  0  0  0  0  0  0  0  0  0
  146.3618  144.1088  153.6826 H   0  0  0  0  0  0  0  0  0  0  0  0
  145.0841  143.6386  152.5543 H   0  0  0  0  0  0  0  0  0  0  0  0
  146.5860  142.7242  152.6043 H   0  0  0  0  0  0  0  0  0  0  0  0
  144.5753  143.8734  155.5669 H   0  0  0  0  0  0  0  0  0  0  0  0
  143.7094  142.3391  155.6886 H   0  0  0  0  0  0  0  0  0  0  0  0
  143.4256  143.3958  154.3148 H   0  0  0  0  0  0  0  0  0  0  0  0
  147.0419  142.5014  155.4156 H   0  0  0  0  0  0  0  0  0  0  0  0
  145.8585  141.4156  156.0533 H   0  0  0  0  0  0  0  0  0  0  0  0
  149.1912  140.0795  154.0918 H   0  0  0  0  0  0  0  0  0  0  0  0
  148.6166  141.3774  153.1062 H   0  0  0  0  0  0  0  0  0  0  0  0
  148.8604  142.9285  154.8436 H   0  0  0  0  0  0  0  0  0  0  0  0
  149.8163  143.6911  156.3715 H   0  0  0  0  0  0  0  0  0  0  0  0
  151.6842  145.0624  157.4742 H   0  0  0  0  0  0  0  0  0  0  0  0
  153.0259  145.1976  159.5769 H   0  0  0  0  0  0  0  0  0  0  0  0
  153.0625  143.1767  161.0811 H   0  0  0  0  0  0  0  0  0  0  0  0
  147.7046  139.3097  156.1456 H   0  0  0  0  0  0  0  0  0  0  0  0
  146.0077  139.2241  155.7469 H   0  0  0  0  0  0  0  0  0  0  0  0
  148.2743  137.8464  154.3470 H   0  0  0  0  0  0  0  0  0  0  0  0
  146.6575  137.2471  154.6901 H   0  0  0  0  0  0  0  0  0  0  0  0
  147.6148  138.5307  152.2796 H   0  0  0  0  0  0  0  0  0  0  0  0
  145.9612  138.0176  152.5793 H   0  0  0  0  0  0  0  0  0  0  0  0
  145.2918  140.1173  153.2943 H   0  0  0  0  0  0  0  0  0  0  0  0
  146.6081  140.6819  152.2789 H   0  0  0  0  0  0  0  0  0  0  0  0
  144.8556  141.6007  153.7315 H   0  0  0  0  0  0  0  0  0  0  0  0
  1  2  1  0  0  0  0
  1 21  1  0  0  0  0
  1 22  1  0  0  0  0
  1 23  1  0  0  0  0
  2  3  1  0  0  0  0
  2  4  1  0  0  0  0
  2 44  1  0  0  0  0
  3 24  1  0  0  0  0
  3 25  1  0  0  0  0
  3 26  1  0  0  0  0
  4  5  1  0  0  0  0
  4 27  1  0  0  0  0
  4 28  1  0  0  0  0
  5 20  1  0  0  0  0
  5  6  1  0  0  0  0
  5 17  1  0  0  0  0
  6  7  1  0  0  0  0
  6 29  1  0  0  0  0
  6 30  1  0  0  0  0
  7  8  1  0  0  0  0
  7 31  1  0  0  0  0
  8  9  2  0  0  0  0
  8 10  1  0  0  0  0
 10 11  1  0  0  0  0
 10 32  1  0  0  0  0
 11 16  1  0  0  0  0
 11 12  2  0  0  0  0
 12 13  1  0  0  0  0
 12 33  1  0  0  0  0
 13 14  2  0  0  0  0
 13 34  1  0  0  0  0
 14 15  1  0  0  0  0
 14 35  1  0  0  0  0
 15 16  2  0  0  0  0
 17 18  1  0  0  0  0
 17 36  1  0  0  0  0
 17 37  1  0  0  0  0
 18 19  1  0  0  0  0
 18 38  1  0  0  0  0
 18 39  1  0  0  0  0
 19 20  1  0  0  0  0
 19 40  1  0  0  0  0
 19 41  1  0  0  0  0
 20 42  1  0  0  0  0
 20 43  1  0  0  0  0
M  CHG  1   2   1
M  END
> <s_m_source_file>
AV-unprocessed.smi

> <i_m_source_file_index>
2354

> <i_lp_mmshare_version>
43012

> <i_f3d_flags>
0

> <s_epik_input>
W0NIMl0xW0NIMl1bQ0gyXVtDSDJdQzEoW0NIMl1OKFtDSDNdKVtDSDNdKVtDSDJdW05IXUMoPU8pW05IXWMyW2NIXVtjSF1bY0hdbm4y

> <s_epik_cmdline>
J2VwaWtfcHl0aG9uJywgJy1waCcsICc3LjAnLCAnLXRuJywgJzgnLCAnLW1hJywgJzIwMCcsICctbWV0YWxfYmluZGluZycsICctaW1hZScsICc8aW5maWxlLm1hZT4nLCAnLW9tYWUnLCAnPG91dGZpbGUubWFlPic=

> <r_lp_tautomer_probability>
1

> <r_epik_Ionization_Penalty>
0.0045793

> <r_epik_Ionization_Penalty_Charging>
0.000516438

> <r_epik_Ionization_Penalty_Neutral>
0.00406287

> <r_epik_State_Penalty>
-0

> <r_epik_Charging_Adjusted_Penalty>
0.000516438

> <i_epik_Tot_Q>
1

> <i_epik_Tot_abs_Q>
1

> <r_epik_Metal_State_Penalty>
-0

> <b_epik_Metal_Only>
0

> <s_lp_Force_Field>
OPLS_2005

> <r_lp_Energy>
45.7912

> <b_lp_Chiralities_Consistent>
1

> <s_lp_Variant>
AV-unprocessed.smi:2354-1

> <Gold.Version>
5.8.1

> <Gold.Id.Protein>
6NUR|6NUR_protein|mol2

> <Gold.PLP.Fitness>
42.7402

> <Gold.PLP.PLP>
-35.0980

> <Gold.PLP.part.hbond>
-2.9691

> <Gold.PLP.part.metal>
0.0000

> <Gold.PLP.part.buried>
-0.3745

> <Gold.PLP.part.nonpolar>
-32.5606

> <Gold.PLP.part.repulsive>
0.3233

> <Gold.PLP.ligand.clash>
0.0000

> <Gold.PLP.ligand.torsion>
2.1053

> <Gold.PLP.Chemscore.Hbond>
3.8120

> <Gold.PLP.Chemscore.CHOScore>
0.0000

> <Gold.PLP.Chemscore.Metal>
0.0000

> <Gold.Chemscore.Hbonds>
donor molecule, donor type, donor heavy atom, donor atom, acceptor molecule, acceptor atom, score
      L1  H     2    44       P1 10175  1.50
      L1  H     7    31       P1  8028  0.88
      L1  H    10    32       P1  8028  1.00

> <Gold.PLP.Chemscore.Internal.Correction>
0.4168

> <Gold.Rescore>
     Score         DG    S(hbond)    S(metal)    S(lipo)     H(rot)  DE(clash)    DE(int)     intcor
     14.21     -19.06       2.58        0.00      81.96       1.81       1.54       3.31       ----

> <Gold.Chemscore.Fitness>
14.2133

> <Gold.Chemscore.DG>
-19.0615

> <Gold.Chemscore.ZeroCoef>
-5.4800

> <Gold.Chemscore.Hbond>
2.5810

> <Gold.Chemscore.Metal>
0.0000

> <Gold.Chemscore.Lipo>
81.9631

> <Gold.Chemscore.Internal_Hbond>
0.0000

> <Gold.Chemscore.DEClash>
1.5388

> <Gold.Chemscore.DEInternal>
3.3094

> <Gold.Chemscore.Rot>
1.8080

> <Gold.Chemscore.Internal.Correction>
   9.000000E+99

> <Gold.Chemscore.Hbonds>
donor molecule, donor type, donor heavy atom, donor atom, acceptor molecule, acceptor atom, score
      L1  H     2    44       P1 10175  0.09
      L1  H     7    31       P1  8028  0.86
      L1  H    10    32       P1  8028  0.95

> <Gold.Chemscore.Hbond.Weighted>
-8.6204

> <Gold.Chemscore.Metal.Weighted>
-0.0000

> <Gold.Chemscore.Lipo.Weighted>
-9.5897

> <Gold.Chemscore.Internal_Hbond.Weighted>
0.0000

> <Gold.Chemscore.DEClash.Weighted>
1.5388

> <Gold.Chemscore.DEInternal.Weighted>
3.3094

> <Gold.Chemscore.Rot.Weighted>
4.6286

> <Gold.Chemscore.Internal.Correction.Weighted>
   9.000000E+99

> <Gold.Protein.RotatedTorsions>
[ 6907 6896 6895 6894 ] final   77.85 input  -60.11 | X-H torsion
[ 7974 7965 7964 7962 ] final   23.01 input  175.53 | X-H torsion
[ 8008 7997 7996 7995 ] final   57.07 input   59.86 | X-H torsion
[ 10167 10162 10161 10158 ] final  -88.25 input  -65.29 | X-H torsion
[ 10718 10713 10712 10709 ] final   69.17 input   66.30 | X-H torsion
[ 10763 10752 10751 10750 ] final  -94.89 input  -60.55 | X-H torsion
[ 11005 11000 10999 10996 ] final  -50.14 input  -57.11 | X-H torsion

> <Gold.Protein.ActiveResidues>
 VAL166  LYS551  ARG553  GLY616  TRP617  ASP618  TYR619  PRO620  LYS621  CYS622 
 ASP623  PHE694  ASN695  SER759  ASP760  ASP761  ALA762  ILE779  LEU786  VAL792 
 PHE793  MET794  SER795  GLU796  ALA797  LYS798  CYS799  TRP800  GLU811  SER814 

> <Gold.Protein.RotatedAtoms>
  152.5135  134.3754  159.9332 H   0  0  0  0  0  0  0  0  0  0  0  0  # atno 6907 bound_to 6896
  151.3710  133.3849  159.2707 H   0  0  0  0  0  0  0  0  0  0  0  0  # atno 6908 bound_to 6896
  150.9578  134.8990  159.7770 H   0  0  0  0  0  0  0  0  0  0  0  0  # atno 6909 bound_to 6896
  146.2004  139.7805  142.8766 H   0  0  0  0  0  0  0  0  0  0  0  0  # atno 7974 bound_to 7965
  155.5278  140.3481  155.4420 H   0  0  0  0  0  0  0  0  0  0  0  0  # atno 8008 bound_to 7997
  156.0739  140.1370  156.9821 H   0  0  0  0  0  0  0  0  0  0  0  0  # atno 8009 bound_to 7997
  154.4543  140.0960  156.6686 H   0  0  0  0  0  0  0  0  0  0  0  0  # atno 8010 bound_to 7997
  140.3765  143.2769  151.9437 H   0  0  0  0  0  0  0  0  0  0  0  0  # atno 10167 bound_to 10162
  157.6330  130.9411  150.0476 H   0  0  0  0  0  0  0  0  0  0  0  0  # atno 10718 bound_to 10713
  154.7097  135.5141  153.8648 H   0  0  0  0  0  0  0  0  0  0  0  0  # atno 10763 bound_to 10752
  153.0770  135.6619  154.0133 H   0  0  0  0  0  0  0  0  0  0  0  0  # atno 10764 bound_to 10752
  153.9977  135.3014  155.3385 H   0  0  0  0  0  0  0  0  0  0  0  0  # atno 10765 bound_to 10752
  141.0799  133.6656  156.3688 H   0  0  0  0  0  0  0  0  0  0  0  0  # atno 11005 bound_to 11000
  145.3504  141.0306  143.3341 LP  0  0  0  0  0  0  0  0  0  0  0  0  # atno 17320 bound_to 7965
  144.8670  139.5093  143.6785 LP  0  0  0  0  0  0  0  0  0  0  0  0  # atno 17321 bound_to 7965
  139.4799  144.5859  151.7855 LP  0  0  0  0  0  0  0  0  0  0  0  0  # atno 17342 bound_to 10162
  140.4981  144.1210  150.5965 LP  0  0  0  0  0  0  0  0  0  0  0  0  # atno 17343 bound_to 10162
  156.1548  130.3643  149.9384 LP  0  0  0  0  0  0  0  0  0  0  0  0  # atno 17370 bound_to 10713
  156.7396  130.9074  151.3631 LP  0  0  0  0  0  0  0  0  0  0  0  0  # atno 17371 bound_to 10713
  140.5491  134.6045  157.5402 LP  0  0  0  0  0  0  0  0  0  0  0  0  # atno 17394 bound_to 11000
  139.9612  134.7449  156.0232 LP  0  0  0  0  0  0  0  0  0  0  0  0  # atno 17395 bound_to 11000

$$$$
