AV-unprocessed.smi:103|AV-procd|sdf|980|dock3
  -GOLD-   2262017543D 1   1.00000     0.00000
 Structure written by MMmdl.
 53 55  0  0  0  0  0  0  0  0  1 V2000
  156.2610  135.7281  159.3083 C   0  0  0  0  0  0  0  0  0  0  0  0
  154.8188  135.9438  159.7479 C   0  0  0  0  0  0  0  0  0  0  0  0
  154.0073  135.0185  159.7684 O   0  0  0  0  0  0  0  0  0  0  0  0
  154.5727  137.2162  160.0942 O   0  0  0  0  0  0  0  0  0  0  0  0
  153.2639  137.5923  160.4896 C   0  0  0  0  0  0  0  0  0  0  0  0
  152.3021  137.4231  159.3058 C   0  0  1  0  0  0  0  0  0  0  0  0
  150.9546  137.2614  159.7490 O   0  0  0  0  0  0  0  0  0  0  0  0
  150.0755  137.8219  158.8193 C   0  0  2  0  0  0  0  0  0  0  0  0
  149.1056  136.7719  158.3693 N   0  0  0  0  0  0  0  0  0  0  0  0
  148.0485  136.1940  159.0478 C   0  0  0  0  0  0  0  0  0  0  0  0
  147.4956  136.5774  160.7081 S   0  0  0  0  0  0  0  0  0  0  0  0
  146.8831  134.9482  161.3007 C   0  0  0  0  0  0  0  0  0  0  0  0
  148.6900  136.9512  161.4821 O   0  0  0  0  0  0  0  0  0  0  0  0
  146.3650  137.5105  160.5870 O   0  0  0  0  0  0  0  0  0  0  0  0
  147.3322  135.3265  158.3857 N   0  0  0  0  0  0  0  0  0  0  0  0
  147.9842  135.2439  157.1649 C   0  0  0  0  0  0  0  0  0  0  0  0
  147.7718  134.4871  155.9850 C   0  0  0  0  0  0  0  0  0  0  0  0
  146.7655  133.6129  155.8483 N   0  0  0  0  0  0  0  0  0  0  0  0
  148.6254  134.6528  154.9481 N   0  0  0  0  0  0  0  0  0  0  0  0
  149.6382  135.5178  155.0609 C   0  0  0  0  0  0  0  0  0  0  0  0
  149.9602  136.2957  156.0975 N   0  0  0  0  0  0  0  0  0  0  0  0
  149.0991  136.1302  157.1446 C   0  0  0  0  0  0  0  0  0  0  0  0
  150.9157  138.3485  157.6536 C   0  0  1  0  0  0  0  0  0  0  0  0
  150.3241  139.5042  157.0754 O   0  0  0  0  0  0  0  0  0  0  0  0
  150.9324  140.1369  156.0597 C   0  0  0  0  0  0  0  0  0  0  0  0
  150.5689  141.6142  155.9991 C   0  0  0  0  0  0  0  0  0  0  0  0
  151.7073  139.6295  155.2492 O   0  0  0  0  0  0  0  0  0  0  0  0
  152.2445  138.6154  158.3458 C   0  0  1  0  0  0  0  0  0  0  0  0
  152.2168  139.8306  159.0948 O   0  0  0  0  0  0  0  0  0  0  0  0
  153.3592  140.4333  159.4703 C   0  0  0  0  0  0  0  0  0  0  0  0
  153.1128  141.7965  160.1016 C   0  0  0  0  0  0  0  0  0  0  0  0
  154.4970  139.9842  159.3340 O   0  0  0  0  0  0  0  0  0  0  0  0
  156.5759  136.5219  158.6306 H   0  0  0  0  0  0  0  0  0  0  0  0
  156.3639  134.7731  158.7923 H   0  0  0  0  0  0  0  0  0  0  0  0
  156.9235  135.7268  160.1737 H   0  0  0  0  0  0  0  0  0  0  0  0
  152.9338  136.9981  161.3430 H   0  0  0  0  0  0  0  0  0  0  0  0
  153.2793  138.6375  160.8025 H   0  0  0  0  0  0  0  0  0  0  0  0
  152.5865  136.5403  158.7318 H   0  0  0  0  0  0  0  0  0  0  0  0
  149.4937  138.6031  159.3009 H   0  0  0  0  0  0  0  0  0  0  0  0
  146.5544  135.0404  162.3356 H   0  0  0  0  0  0  0  0  0  0  0  0
  147.6861  134.2139  161.2387 H   0  0  0  0  0  0  0  0  0  0  0  0
  146.0460  134.6242  160.6855 H   0  0  0  0  0  0  0  0  0  0  0  0
  146.1163  133.4709  156.6088 H   0  0  0  0  0  0  0  0  0  0  0  0
  146.6607  133.0954  154.9875 H   0  0  0  0  0  0  0  0  0  0  0  0
  150.2809  135.5999  154.1968 H   0  0  0  0  0  0  0  0  0  0  0  0
  151.0389  137.5539  156.9174 H   0  0  0  0  0  0  0  0  0  0  0  0
  149.5200  141.7341  155.7281 H   0  0  0  0  0  0  0  0  0  0  0  0
  151.1800  142.1292  155.2576 H   0  0  0  0  0  0  0  0  0  0  0  0
  150.7341  142.0842  156.9687 H   0  0  0  0  0  0  0  0  0  0  0  0
  153.0814  138.5930  157.6464 H   0  0  0  0  0  0  0  0  0  0  0  0
  152.5833  142.4460  159.4043 H   0  0  0  0  0  0  0  0  0  0  0  0
  154.0570  142.2721  160.3682 H   0  0  0  0  0  0  0  0  0  0  0  0
  152.5108  141.6923  161.0044 H   0  0  0  0  0  0  0  0  0  0  0  0
  1  2  1  0  0  0  0
  1 33  1  0  0  0  0
  1 34  1  0  0  0  0
  1 35  1  0  0  0  0
  2  3  2  0  0  0  0
  2  4  1  0  0  0  0
  4  5  1  0  0  0  0
  5  6  1  0  0  0  0
  5 36  1  0  0  0  0
  5 37  1  0  0  0  0
  6 28  1  0  0  0  0
  6  7  1  0  0  0  0
  6 38  1  0  0  0  0
  7  8  1  0  0  0  0
  8  9  1  0  0  0  0
  8 23  1  0  0  0  0
  8 39  1  0  0  0  0
  9 22  1  0  0  0  0
  9 10  1  0  0  0  0
 10 11  1  0  0  0  0
 10 15  2  0  0  0  0
 11 12  1  0  0  0  0
 11 13  2  0  0  0  0
 11 14  2  0  0  0  0
 12 40  1  0  0  0  0
 12 41  1  0  0  0  0
 12 42  1  0  0  0  0
 15 16  1  0  0  0  0
 16 22  2  0  0  0  0
 16 17  1  0  0  0  0
 17 18  1  0  0  0  0
 17 19  2  0  0  0  0
 18 43  1  0  0  0  0
 18 44  1  0  0  0  0
 19 20  1  0  0  0  0
 20 21  2  0  0  0  0
 20 45  1  0  0  0  0
 21 22  1  0  0  0  0
 23 24  1  0  0  0  0
 23 28  1  0  0  0  0
 23 46  1  0  0  0  0
 24 25  1  0  0  0  0
 25 26  1  0  0  0  0
 25 27  2  0  0  0  0
 26 47  1  0  0  0  0
 26 48  1  0  0  0  0
 26 49  1  0  0  0  0
 28 29  1  0  0  0  0
 28 50  1  0  0  0  0
 29 30  1  0  0  0  0
 30 31  1  0  0  0  0
 30 32  2  0  0  0  0
 31 51  1  0  0  0  0
 31 52  1  0  0  0  0
 31 53  1  0  0  0  0
M  END
> <s_m_source_file>
AV-unprocessed.smi

> <i_m_source_file_index>
103

> <i_lp_mmshare_version>
43012

> <i_f3d_flags>
0

> <s_epik_input>
W0NIM11DKD1PKU9bQ0gyXVtDQEBIXTFPW0NASF0oW0NAQEhdKE9DKD1PKVtDSDNdKVtDQEhdMU9DKD1PKVtDSDNdKW4oYyhuMilTKD1PKSg9TylbQ0gzXSljKGMyMyluW2NIXW5jM1tOSDJd

> <s_epik_cmdline>
J2VwaWtfcHl0aG9uJywgJy1waCcsICc3LjAnLCAnLXRuJywgJzgnLCAnLW1hJywgJzIwMCcsICctbWV0YWxfYmluZGluZycsICctaW1hZScsICc8aW5maWxlLm1hZT4nLCAnLW9tYWUnLCAnPG91dGZpbGUubWFlPic=

> <r_lp_tautomer_probability>
1

> <r_epik_Ionization_Penalty>
1.51338e-05

> <r_epik_Ionization_Penalty_Charging>
0

> <r_epik_Ionization_Penalty_Neutral>
1.51338e-05

> <r_epik_State_Penalty>
-0

> <r_epik_Charging_Adjusted_Penalty>
0

> <i_epik_Tot_Q>
0

> <i_epik_Tot_abs_Q>
0

> <r_epik_Metal_State_Penalty>
-0

> <b_epik_Metal_Only>
0

> <s_epik_Chemistry_Notes>
This compound has an ester and may undergo hydrolysis at high or low pH. This compound contains an acetal/aminal-like group ( X-CH(R)-Y where X, Y are N, S, or O) that may be acid/base labile, releasing an aldehyde.

> <s_lp_Force_Field>
OPLS_2005

> <r_lp_Energy>
20.0914

> <b_lp_Chiralities_Consistent>
1

> <s_lp_Variant>
AV-unprocessed.smi:103-4

> <Gold.Version>
5.8.1

> <Gold.Id.Protein>
6NUR|6NUR_protein|mol2

> <Gold.PLP.Fitness>
49.9378

> <Gold.PLP.PLP>
-33.1227

> <Gold.PLP.part.hbond>
-5.6990

> <Gold.PLP.part.metal>
0.0000

> <Gold.PLP.part.buried>
-4.4175

> <Gold.PLP.part.nonpolar>
-23.1532

> <Gold.PLP.part.repulsive>
0.1824

> <Gold.PLP.ligand.clash>
0.0944

> <Gold.PLP.ligand.torsion>
2.3692

> <Gold.PLP.Chemscore.Hbond>
5.6203

> <Gold.PLP.Chemscore.CHOScore>
0.5691

> <Gold.PLP.Chemscore.Metal>
0.0000

> <Gold.Chemscore.Hbonds>
donor molecule, donor type, donor heavy atom, donor atom, acceptor molecule, acceptor atom, score
      P1  H  6896  6907       L1     3  0.96
      P1  H  6896  6909       L1     7  0.39
      P1  H  6931  6943       L1    13  0.68
      P1  H  6934  6947       L1    14  1.00
      P1  H  7989  7998       L1    27  0.73
      P1  H  7997  8008       L1    32  0.86
      L1  C    20    45       P1  7948  0.20
      L1  C    20    45       P1  7949  0.03

> <Gold.PLP.Chemscore.Internal.Correction>
3.0800

> <Gold.Rescore>
     Score         DG    S(hbond)    S(metal)    S(lipo)     H(rot)  DE(clash)    DE(int)     intcor
     11.13     -16.07       4.92        0.00      42.93       4.25       0.43       4.51       ----

> <Gold.Chemscore.Fitness>
11.1318

> <Gold.Chemscore.DG>
-16.0739

> <Gold.Chemscore.ZeroCoef>
-5.4800

> <Gold.Chemscore.Hbond>
4.9220

> <Gold.Chemscore.Metal>
0.0000

> <Gold.Chemscore.Lipo>
42.9318

> <Gold.Chemscore.Internal_Hbond>
0.0000

> <Gold.Chemscore.DEClash>
0.4280

> <Gold.Chemscore.DEInternal>
4.5142

> <Gold.Chemscore.Rot>
4.2456

> <Gold.Chemscore.Internal.Correction>
   9.000000E+99

> <Gold.Chemscore.Hbonds>
donor molecule, donor type, donor heavy atom, donor atom, acceptor molecule, acceptor atom, score
      P1  H  6896  6907       L1     3  0.92
      P1  H  6896  6909       L1     7  0.03
      P1  H  6931  6943       L1    13  0.69
      P1  H  6934  6947       L1    14  0.30
      P1  H  7989  7998       L1    27  0.43
      P1  H  7997  8008       L1    32  0.60

> <Gold.Chemscore.Hbond.Weighted>
-16.4396

> <Gold.Chemscore.Metal.Weighted>
-0.0000

> <Gold.Chemscore.Lipo.Weighted>
-5.0230

> <Gold.Chemscore.Internal_Hbond.Weighted>
0.0000

> <Gold.Chemscore.DEClash.Weighted>
0.4280

> <Gold.Chemscore.DEInternal.Weighted>
4.5142

> <Gold.Chemscore.Rot.Weighted>
10.8687

> <Gold.Chemscore.Internal.Correction.Weighted>
   9.000000E+99

> <Gold.Protein.RotatedTorsions>
[ 6907 6896 6895 6894 ] final   95.57 input  -60.11 | X-H torsion
[ 7974 7965 7964 7962 ] final -147.57 input  175.53 | X-H torsion
[ 8008 7997 7996 7995 ] final -115.16 input   59.86 | X-H torsion
[ 10167 10162 10161 10158 ] final  -48.35 input  -65.29 | X-H torsion
[ 10718 10713 10712 10709 ] final -114.92 input   66.30 | X-H torsion
[ 10763 10752 10751 10750 ] final  -99.83 input  -60.55 | X-H torsion
[ 11005 11000 10999 10996 ] final  122.17 input  -57.11 | X-H torsion

> <Gold.Protein.ActiveResidues>
 VAL166  LYS551  ARG553  GLY616  TRP617  ASP618  TYR619  PRO620  LYS621  CYS622 
 ASP623  PHE694  ASN695  SER759  ASP760  ASP761  ALA762  ILE779  LEU786  VAL792 
 PHE793  MET794  SER795  GLU796  ALA797  LYS798  CYS799  TRP800  GLU811  SER814 

> <Gold.Protein.RotatedAtoms>
  152.5442  134.1019  159.8321 H   0  0  0  0  0  0  0  0  0  0  0  0  # atno 6907 bound_to 6896
  151.1096  133.5175  159.2613 H   0  0  0  0  0  0  0  0  0  0  0  0  # atno 6908 bound_to 6896
  151.1899  135.0407  159.8883 H   0  0  0  0  0  0  0  0  0  0  0  0  # atno 6909 bound_to 6896
  144.8085  140.5309  143.5659 H   0  0  0  0  0  0  0  0  0  0  0  0  # atno 7974 bound_to 7965
  155.0477  140.0392  157.2532 H   0  0  0  0  0  0  0  0  0  0  0  0  # atno 8008 bound_to 7997
  154.7164  140.2703  155.6558 H   0  0  0  0  0  0  0  0  0  0  0  0  # atno 8009 bound_to 7997
  156.2804  140.2711  156.1821 H   0  0  0  0  0  0  0  0  0  0  0  0  # atno 8010 bound_to 7997
  140.6735  143.2744  151.4058 H   0  0  0  0  0  0  0  0  0  0  0  0  # atno 10167 bound_to 10162
  156.0861  130.6053  150.8838 H   0  0  0  0  0  0  0  0  0  0  0  0  # atno 10718 bound_to 10713
  154.7530  135.4957  153.9323 H   0  0  0  0  0  0  0  0  0  0  0  0  # atno 10763 bound_to 10752
  153.1164  135.6721  153.9418 H   0  0  0  0  0  0  0  0  0  0  0  0  # atno 10764 bound_to 10752
  153.9163  135.3093  155.3427 H   0  0  0  0  0  0  0  0  0  0  0  0  # atno 10765 bound_to 10752
  139.9257  134.9640  156.8069 H   0  0  0  0  0  0  0  0  0  0  0  0  # atno 11005 bound_to 11000
  145.5381  139.1475  143.3462 LP  0  0  0  0  0  0  0  0  0  0  0  0  # atno 17320 bound_to 7965
  146.2380  140.5521  142.8946 LP  0  0  0  0  0  0  0  0  0  0  0  0  # atno 17321 bound_to 7965
  139.6015  144.1286  152.2203 LP  0  0  0  0  0  0  0  0  0  0  0  0  # atno 17342 bound_to 10162
  140.0672  144.5809  150.7219 LP  0  0  0  0  0  0  0  0  0  0  0  0  # atno 17343 bound_to 10162
  157.5996  131.0942  150.8982 LP  0  0  0  0  0  0  0  0  0  0  0  0  # atno 17370 bound_to 10713
  156.9142  130.5292  149.5280 LP  0  0  0  0  0  0  0  0  0  0  0  0  # atno 17371 bound_to 10713
  140.6344  133.9876  155.7677 LP  0  0  0  0  0  0  0  0  0  0  0  0  # atno 17394 bound_to 11000
  141.0812  134.0059  157.3383 LP  0  0  0  0  0  0  0  0  0  0  0  0  # atno 17395 bound_to 11000

$$$$
