AV-unprocessed.smi:1517|AV-procd|sdf|6123|dock4
  -GOLD-   22720 6263D 1   1.00000     0.00000
 Structure written by MMmdl.
 41 43  0  0  0  0  0  0  0  0  1 V2000
  150.2322  138.0050  153.7604 O   0  0  0  0  0  0  0  0  0  0  0  0
  151.5921  137.7872  154.0653 C   0  0  0  0  0  0  0  0  0  0  0  0
  151.8254  138.0127  155.5641 C   0  0  0  0  0  0  0  0  0  0  0  0
  151.2988  139.2902  156.0059 N   0  0  0  0  0  0  0  0  0  0  0  0
  151.6848  140.1604  157.0187 C   0  0  0  0  0  0  0  0  0  0  0  0
  152.7129  139.9386  157.8359 N   0  0  0  0  0  0  0  0  0  0  0  0
  152.6957  141.0619  158.6409 C   0  0  0  0  0  0  0  0  0  0  0  0
  153.5362  141.4349  159.7143 C   0  0  0  0  0  0  0  0  0  0  0  0
  153.3232  142.6492  160.3994 C   0  0  0  0  0  0  0  0  0  0  0  0
  152.2699  143.5072  160.0216 C   0  0  0  0  0  0  0  0  0  0  0  0
  151.4202  143.1555  158.9551 C   0  0  0  0  0  0  0  0  0  0  0  0
  151.6355  141.9417  158.2754 C   0  0  0  0  0  0  0  0  0  0  0  0
  150.9966  141.3110  157.2122 N   0  0  0  0  0  0  0  0  0  0  0  0
  149.8348  141.8110  156.4877 C   0  0  0  0  0  0  0  0  0  0  0  0
  148.5694  140.9676  156.7367 C   0  0  1  0  0  0  0  0  0  0  0  0
  148.5123  140.5709  158.0941 O   0  0  0  0  0  0  0  0  0  0  0  0
  147.3181  141.7159  156.2954 C   0  0  0  0  0  0  0  0  0  0  0  0
  146.3580  142.1316  157.2458 C   0  0  0  0  0  0  0  0  0  0  0  0
  145.2072  142.8324  156.8363 C   0  0  0  0  0  0  0  0  0  0  0  0
  145.0098  143.1273  155.4743 C   0  0  0  0  0  0  0  0  0  0  0  0
  143.9039  143.8022  155.0805 F   0  0  0  0  0  0  0  0  0  0  0  0
  145.9652  142.7233  154.5227 C   0  0  0  0  0  0  0  0  0  0  0  0
  147.1175  142.0225  154.9302 C   0  0  0  0  0  0  0  0  0  0  0  0
  148.0325  141.6515  154.0024 F   0  0  0  0  0  0  0  0  0  0  0  0
  149.9347  137.3044  153.2004 H   0  0  0  0  0  0  0  0  0  0  0  0
  151.8605  136.7692  153.7814 H   0  0  0  0  0  0  0  0  0  0  0  0
  152.2029  138.4664  153.4698 H   0  0  0  0  0  0  0  0  0  0  0  0
  151.3552  137.2183  156.1447 H   0  0  0  0  0  0  0  0  0  0  0  0
  152.8919  137.9833  155.7884 H   0  0  0  0  0  0  0  0  0  0  0  0
  150.5038  139.6047  155.4685 H   0  0  0  0  0  0  0  0  0  0  0  0
  154.3463  140.7853  160.0112 H   0  0  0  0  0  0  0  0  0  0  0  0
  153.9714  142.9235  161.2187 H   0  0  0  0  0  0  0  0  0  0  0  0
  152.1146  144.4356  160.5516 H   0  0  0  0  0  0  0  0  0  0  0  0
  150.6127  143.8106  158.6633 H   0  0  0  0  0  0  0  0  0  0  0  0
  149.6622  142.8554  156.7498 H   0  0  0  0  0  0  0  0  0  0  0  0
  150.0775  141.8056  155.4242 H   0  0  0  0  0  0  0  0  0  0  0  0
  148.6427  140.0469  156.1568 H   0  0  0  0  0  0  0  0  0  0  0  0
  148.2694  139.6582  158.1301 H   0  0  0  0  0  0  0  0  0  0  0  0
  146.5008  141.9185  158.2953 H   0  0  0  0  0  0  0  0  0  0  0  0
  144.4772  143.1462  157.5683 H   0  0  0  0  0  0  0  0  0  0  0  0
  145.8159  142.9536  153.4781 H   0  0  0  0  0  0  0  0  0  0  0  0
  1  2  1  0  0  0  0
  1 25  1  0  0  0  0
  2  3  1  0  0  0  0
  2 26  1  0  0  0  0
  2 27  1  0  0  0  0
  3  4  1  0  0  0  0
  3 28  1  0  0  0  0
  3 29  1  0  0  0  0
  4  5  1  0  0  0  0
  4 30  1  0  0  0  0
  5 13  1  0  0  0  0
  5  6  2  0  0  0  0
  6  7  1  0  0  0  0
  7 12  2  0  0  0  0
  7  8  1  0  0  0  0
  8  9  2  0  0  0  0
  8 31  1  0  0  0  0
  9 10  1  0  0  0  0
  9 32  1  0  0  0  0
 10 11  2  0  0  0  0
 10 33  1  0  0  0  0
 11 12  1  0  0  0  0
 11 34  1  0  0  0  0
 12 13  1  0  0  0  0
 13 14  1  0  0  0  0
 14 15  1  0  0  0  0
 14 35  1  0  0  0  0
 14 36  1  0  0  0  0
 15 16  1  0  0  0  0
 15 17  1  0  0  0  0
 15 37  1  0  0  0  0
 16 38  1  0  0  0  0
 17 23  1  0  0  0  0
 17 18  2  0  0  0  0
 18 19  1  0  0  0  0
 18 39  1  0  0  0  0
 19 20  2  0  0  0  0
 19 40  1  0  0  0  0
 20 21  1  0  0  0  0
 20 22  1  0  0  0  0
 22 23  2  0  0  0  0
 22 41  1  0  0  0  0
 23 24  1  0  0  0  0
M  END
> <s_m_source_file>
AV-unprocessed.smi

> <i_m_source_file_index>
1517

> <i_lp_mmshare_version>
43012

> <i_f3d_flags>
0

> <s_epik_input>
W09IXVtDSDJdW0NIMl1bTkhdYyhuMSluKGMoYzEyKVtjSF1bY0hdW2NIXVtjSF0yKVtDSDJdW0NASF0oW09IXSljM1tjSF1bY0hdYyhGKVtjSF1jM0Y=

> <s_epik_cmdline>
J2VwaWtfcHl0aG9uJywgJy1waCcsICc3LjAnLCAnLXRuJywgJzgnLCAnLW1hJywgJzIwMCcsICctbWV0YWxfYmluZGluZycsICctaW1hZScsICc8aW5maWxlLm1hZT4nLCAnLW9tYWUnLCAnPG91dGZpbGUubWFlPic=

> <r_epik_Ionization_Penalty>
1.30972

> <r_epik_Ionization_Penalty_Charging>
0

> <r_epik_Ionization_Penalty_Neutral>
1.30972

> <r_epik_State_Penalty>
1.38438

> <r_epik_Charging_Adjusted_Penalty>
1.38438

> <i_epik_Tot_Q>
0

> <i_epik_Tot_abs_Q>
0

> <r_epik_Metal_State_Penalty>
0.00551145

> <b_epik_Metal_Only>
0

> <s_lp_Force_Field>
OPLS_2005

> <r_lp_Energy>
6.47828

> <b_lp_Chiralities_Consistent>
1

> <s_lp_Variant>
AV-unprocessed.smi:1517-4

> <Gold.Version>
5.8.1

> <Gold.Id.Protein>
6NUR|6NUR_protein|mol2

> <Gold.PLP.Fitness>
50.9699

> <Gold.PLP.PLP>
-45.9506

> <Gold.PLP.part.hbond>
-3.2337

> <Gold.PLP.part.metal>
0.0000

> <Gold.PLP.part.buried>
-5.2858

> <Gold.PLP.part.nonpolar>
-38.1013

> <Gold.PLP.part.repulsive>
0.0988

> <Gold.PLP.ligand.clash>
0.0000

> <Gold.PLP.ligand.torsion>
0.5526

> <Gold.PLP.Chemscore.Hbond>
2.0000

> <Gold.PLP.Chemscore.CHOScore>
0.0000

> <Gold.PLP.Chemscore.Metal>
0.0000

> <Gold.Chemscore.Hbonds>
donor molecule, donor type, donor heavy atom, donor atom, acceptor molecule, acceptor atom, score
      L1  H     1    25       P1  7948  1.00
      P1  H  7997  8008       L1     6  1.00

> <Gold.PLP.Chemscore.Internal.Correction>
0.1245

> <Gold.Rescore>
     Score         DG    S(hbond)    S(metal)    S(lipo)     H(rot)  DE(clash)    DE(int)     intcor
     12.92     -13.58       1.12        0.00     107.80       3.22       0.10       0.56       ----

> <Gold.Chemscore.Fitness>
12.9167

> <Gold.Chemscore.DG>
-13.5797

> <Gold.Chemscore.ZeroCoef>
-5.4800

> <Gold.Chemscore.Hbond>
1.1163

> <Gold.Chemscore.Metal>
0.0000

> <Gold.Chemscore.Lipo>
107.8015

> <Gold.Chemscore.Internal_Hbond>
0.0000

> <Gold.Chemscore.DEClash>
0.1036

> <Gold.Chemscore.DEInternal>
0.5595

> <Gold.Chemscore.Rot>
3.2194

> <Gold.Chemscore.Internal.Correction>
   9.000000E+99

> <Gold.Chemscore.Hbonds>
donor molecule, donor type, donor heavy atom, donor atom, acceptor molecule, acceptor atom, score
      L1  H     1    25       P1  7948  0.30
      P1  H  7997  8008       L1     6  0.29

> <Gold.Chemscore.Hbond.Weighted>
-3.7286

> <Gold.Chemscore.Metal.Weighted>
-0.0000

> <Gold.Chemscore.Lipo.Weighted>
-12.6128

> <Gold.Chemscore.Internal_Hbond.Weighted>
0.0000

> <Gold.Chemscore.DEClash.Weighted>
0.1036

> <Gold.Chemscore.DEInternal.Weighted>
0.5595

> <Gold.Chemscore.Rot.Weighted>
8.2416

> <Gold.Chemscore.Internal.Correction.Weighted>
   9.000000E+99

> <Gold.Protein.RotatedTorsions>
[ 6907 6896 6895 6894 ] final -122.89 input  -60.11 | X-H torsion
[ 7974 7965 7964 7962 ] final -154.06 input  175.53 | X-H torsion
[ 8008 7997 7996 7995 ] final  -81.35 input   59.86 | X-H torsion
[ 10167 10162 10161 10158 ] final   86.74 input  -65.29 | X-H torsion
[ 10718 10713 10712 10709 ] final  169.48 input   66.30 | X-H torsion
[ 10763 10752 10751 10750 ] final  -63.08 input  -60.55 | X-H torsion
[ 11005 11000 10999 10996 ] final -123.37 input  -57.11 | X-H torsion

> <Gold.Protein.ActiveResidues>
 VAL166  LYS551  ARG553  GLY616  TRP617  ASP618  TYR619  PRO620  LYS621  CYS622 
 ASP623  PHE694  ASN695  SER759  ASP760  ASP761  ALA762  ILE779  LEU786  VAL792 
 PHE793  MET794  SER795  GLU796  ALA797  LYS798  CYS799  TRP800  GLU811  SER814 

> <Gold.Protein.RotatedAtoms>
  150.8618  133.7632  159.2989 H   0  0  0  0  0  0  0  0  0  0  0  0  # atno 6907 bound_to 6896
  151.5272  135.1066  159.9903 H   0  0  0  0  0  0  0  0  0  0  0  0  # atno 6908 bound_to 6896
  152.4632  133.7822  159.6913 H   0  0  0  0  0  0  0  0  0  0  0  0  # atno 6909 bound_to 6896
  144.7708  140.4440  143.5908 H   0  0  0  0  0  0  0  0  0  0  0  0  # atno 7974 bound_to 7965
  154.5975  140.0649  156.9323 H   0  0  0  0  0  0  0  0  0  0  0  0  # atno 8008 bound_to 7997
  155.2189  140.3328  155.4300 H   0  0  0  0  0  0  0  0  0  0  0  0  # atno 8009 bound_to 7997
  156.2297  140.1835  156.7259 H   0  0  0  0  0  0  0  0  0  0  0  0  # atno 8010 bound_to 7997
  139.8844  144.6421  150.8807 H   0  0  0  0  0  0  0  0  0  0  0  0  # atno 10167 bound_to 10162
  157.0220  131.0235  151.2771 H   0  0  0  0  0  0  0  0  0  0  0  0  # atno 10718 bound_to 10713
  154.3097  135.6218  153.5460 H   0  0  0  0  0  0  0  0  0  0  0  0  # atno 10763 bound_to 10752
  152.9831  135.5698  154.5191 H   0  0  0  0  0  0  0  0  0  0  0  0  # atno 10764 bound_to 10752
  154.4838  135.2864  155.1526 H   0  0  0  0  0  0  0  0  0  0  0  0  # atno 10765 bound_to 10752
  140.9924  134.0520  157.3639 H   0  0  0  0  0  0  0  0  0  0  0  0  # atno 11005 bound_to 11000
  145.6329  139.1539  143.2959 LP  0  0  0  0  0  0  0  0  0  0  0  0  # atno 17320 bound_to 7965
  146.1853  140.6431  142.9170 LP  0  0  0  0  0  0  0  0  0  0  0  0  # atno 17321 bound_to 7965
  140.7738  143.3560  151.1921 LP  0  0  0  0  0  0  0  0  0  0  0  0  # atno 17342 bound_to 10162
  139.7166  143.9290  152.2969 LP  0  0  0  0  0  0  0  0  0  0  0  0  # atno 17343 bound_to 10162
  157.5242  130.8017  149.7843 LP  0  0  0  0  0  0  0  0  0  0  0  0  # atno 17370 bound_to 10713
  156.0099  130.3838  150.2301 LP  0  0  0  0  0  0  0  0  0  0  0  0  # atno 17371 bound_to 10713
  139.8998  135.0160  156.7214 LP  0  0  0  0  0  0  0  0  0  0  0  0  # atno 17394 bound_to 11000
  140.7019  133.9298  155.8030 LP  0  0  0  0  0  0  0  0  0  0  0  0  # atno 17395 bound_to 11000

$$$$
