AV-unprocessed.smi:89|AV-procd|sdf|827|dock6
  -GOLD-   2262017243D 1   1.00000     0.00000
 Structure written by MMmdl.
 54 56  0  0  0  0  0  0  0  0  1 V2000
  145.4911  137.5897  156.7271 C   0  0  0  0  0  0  0  0  0  0  0  0
  145.3361  138.9143  155.9617 C   0  0  0  0  0  0  0  0  0  0  0  0
  146.5100  139.2678  155.1609 N   0  0  0  0  0  0  0  0  0  0  0  0
  146.4950  138.8247  153.8794 C   0  0  0  0  0  0  0  0  0  0  0  0
  147.0020  139.6526  152.9318 N   0  0  0  0  0  0  0  0  0  0  0  0
  147.0074  139.2817  151.6488 C   0  0  0  0  0  0  0  0  0  0  0  0
  146.5546  138.1500  151.1059 N   0  0  0  0  0  0  0  0  0  0  0  0
  146.0290  137.3209  152.0526 C   0  0  0  0  0  0  0  0  0  0  0  0
  145.9612  137.5752  153.4518 C   0  0  0  0  0  0  0  0  0  0  0  0
  145.3680  136.4975  154.0984 N   0  0  0  0  0  0  0  0  0  0  0  0
  145.1011  135.6559  153.1381 C   0  0  0  0  0  0  0  0  0  0  0  0
  145.4483  136.0771  151.8741 N   0  0  0  0  0  0  0  0  0  0  0  0
  145.2517  135.3494  150.6295 C   0  0  0  0  0  0  0  0  0  0  0  0
  144.3821  134.0700  150.7568 C   0  0  1  0  0  0  0  0  0  0  0  0
  143.1093  134.4676  151.2282 O   0  0  0  0  0  0  0  0  0  0  0  0
  144.2221  133.2821  149.4581 C   0  0  0  0  0  0  0  0  0  0  0  0
  145.2779  132.1732  149.5420 C   0  0  0  0  0  0  0  0  0  0  0  0
  145.8374  132.2482  150.8483 O   0  0  0  0  0  0  0  0  0  0  0  0
  144.9671  132.9985  151.6814 C   0  0  0  0  0  0  0  0  0  0  0  0
  147.8114  139.2674  155.8491 C   0  0  1  0  0  0  0  0  0  0  0  0
  148.4114  137.8549  155.9837 C   0  0  0  0  0  0  0  0  0  0  0  0
  148.8494  140.2432  155.2441 C   0  0  0  0  0  0  0  0  0  0  0  0
  150.4603  140.2698  156.1622 S   0  0  0  0  0  0  0  0  0  0  0  0
  150.2636  139.5800  157.4461 O   0  0  0  0  0  0  0  0  0  0  0  0
  151.5446  139.8492  155.2613 O   0  0  0  0  0  0  0  0  0  0  0  0
  150.6793  142.0680  156.5242 C   0  0  0  0  0  0  0  0  0  0  0  0
  150.6742  142.3648  158.0281 C   0  0  0  0  0  0  0  0  0  0  0  0
  144.5633  137.3312  157.2370 H   0  0  0  0  0  0  0  0  0  0  0  0
  146.2735  137.6452  157.4844 H   0  0  0  0  0  0  0  0  0  0  0  0
  145.7353  136.7718  156.0485 H   0  0  0  0  0  0  0  0  0  0  0  0
  144.4784  138.8300  155.2939 H   0  0  0  0  0  0  0  0  0  0  0  0
  145.0989  139.7178  156.6583 H   0  0  0  0  0  0  0  0  0  0  0  0
  147.4337  139.9952  150.9591 H   0  0  0  0  0  0  0  0  0  0  0  0
  144.6301  134.7021  153.3261 H   0  0  0  0  0  0  0  0  0  0  0  0
  144.8090  136.0329  149.9035 H   0  0  0  0  0  0  0  0  0  0  0  0
  146.2361  135.0896  150.2371 H   0  0  0  0  0  0  0  0  0  0  0  0
  142.5707  134.6905  150.4844 H   0  0  0  0  0  0  0  0  0  0  0  0
  143.2358  132.8175  149.4101 H   0  0  0  0  0  0  0  0  0  0  0  0
  144.3255  133.9007  148.5666 H   0  0  0  0  0  0  0  0  0  0  0  0
  144.8276  131.1927  149.3842 H   0  0  0  0  0  0  0  0  0  0  0  0
  146.0657  132.3058  148.8002 H   0  0  0  0  0  0  0  0  0  0  0  0
  145.4798  133.4089  152.5512 H   0  0  0  0  0  0  0  0  0  0  0  0
  144.1855  132.3275  152.0429 H   0  0  0  0  0  0  0  0  0  0  0  0
  147.6095  139.6110  156.8634 H   0  0  0  0  0  0  0  0  0  0  0  0
  149.3093  137.8727  156.6019 H   0  0  0  0  0  0  0  0  0  0  0  0
  148.6935  137.4446  155.0142 H   0  0  0  0  0  0  0  0  0  0  0  0
  147.7132  137.1619  156.4529 H   0  0  0  0  0  0  0  0  0  0  0  0
  149.0741  139.9687  154.2140 H   0  0  0  0  0  0  0  0  0  0  0  0
  148.4631  141.2611  155.1986 H   0  0  0  0  0  0  0  0  0  0  0  0
  151.6092  142.4022  156.0642 H   0  0  0  0  0  0  0  0  0  0  0  0
  149.8648  142.6025  156.0352 H   0  0  0  0  0  0  0  0  0  0  0  0
  150.7337  143.4382  158.2077 H   0  0  0  0  0  0  0  0  0  0  0  0
  151.5246  141.9034  158.5287 H   0  0  0  0  0  0  0  0  0  0  0  0
  149.7620  141.9998  158.5007 H   0  0  0  0  0  0  0  0  0  0  0  0
  1  2  1  0  0  0  0
  1 28  1  0  0  0  0
  1 29  1  0  0  0  0
  1 30  1  0  0  0  0
  2  3  1  0  0  0  0
  2 31  1  0  0  0  0
  2 32  1  0  0  0  0
  3  4  1  0  0  0  0
  3 20  1  0  0  0  0
  4  9  1  0  0  0  0
  4  5  2  0  0  0  0
  5  6  1  0  0  0  0
  6  7  2  0  0  0  0
  6 33  1  0  0  0  0
  7  8  1  0  0  0  0
  8 12  1  0  0  0  0
  8  9  2  0  0  0  0
  9 10  1  0  0  0  0
 10 11  2  0  0  0  0
 11 12  1  0  0  0  0
 11 34  1  0  0  0  0
 12 13  1  0  0  0  0
 13 14  1  0  0  0  0
 13 35  1  0  0  0  0
 13 36  1  0  0  0  0
 14 19  1  0  0  0  0
 14 15  1  0  0  0  0
 14 16  1  0  0  0  0
 15 37  1  0  0  0  0
 16 17  1  0  0  0  0
 16 38  1  0  0  0  0
 16 39  1  0  0  0  0
 17 18  1  0  0  0  0
 17 40  1  0  0  0  0
 17 41  1  0  0  0  0
 18 19  1  0  0  0  0
 19 42  1  0  0  0  0
 19 43  1  0  0  0  0
 20 21  1  0  0  0  0
 20 22  1  0  0  0  0
 20 44  1  0  0  0  0
 21 45  1  0  0  0  0
 21 46  1  0  0  0  0
 21 47  1  0  0  0  0
 22 23  1  0  0  0  0
 22 48  1  0  0  0  0
 22 49  1  0  0  0  0
 23 24  2  0  0  0  0
 23 25  2  0  0  0  0
 23 26  1  0  0  0  0
 26 27  1  0  0  0  0
 26 50  1  0  0  0  0
 26 51  1  0  0  0  0
 27 52  1  0  0  0  0
 27 53  1  0  0  0  0
 27 54  1  0  0  0  0
M  END
> <s_m_source_file>
AV-unprocessed.smi

> <i_m_source_file_index>
89

> <i_lp_mmshare_version>
43012

> <i_f3d_flags>
0

> <s_epik_input>
W0NIM11bQ0gyXVMoPU8pKD1PKVtDSDJdW0NAQEhdKFtDSDNdKU4oW0NIMl1bQ0gzXSljKG5bY0hdbjEpYyhjMTIpbltjSF1uMltDSDJdW0NAQF0zKFtPSF0pW0NIMl1bQ0gyXU9bQ0gyXTM=

> <s_epik_cmdline>
J2VwaWtfcHl0aG9uJywgJy1waCcsICc3LjAnLCAnLXRuJywgJzgnLCAnLW1hJywgJzIwMCcsICctbWV0YWxfYmluZGluZycsICctaW1hZScsICc8aW5maWxlLm1hZT4nLCAnLW9tYWUnLCAnPG91dGZpbGUubWFlPic=

> <r_lp_tautomer_probability>
1

> <r_epik_Ionization_Penalty>
0.00103773

> <r_epik_Ionization_Penalty_Charging>
0

> <r_epik_Ionization_Penalty_Neutral>
0.00103773

> <r_epik_State_Penalty>
0.000558914

> <r_epik_Charging_Adjusted_Penalty>
0.000558914

> <i_epik_Tot_Q>
0

> <i_epik_Tot_abs_Q>
0

> <r_epik_Metal_State_Penalty>
-0

> <b_epik_Metal_Only>
0

> <s_lp_Force_Field>
OPLS_2005

> <r_lp_Energy>
30.4714

> <b_lp_Chiralities_Consistent>
1

> <s_lp_Variant>
AV-unprocessed.smi:89-3

> <Gold.Version>
5.8.1

> <Gold.Id.Protein>
6NUR|6NUR_protein|mol2

> <Gold.PLP.Fitness>
42.6058

> <Gold.PLP.PLP>
-34.4595

> <Gold.PLP.part.hbond>
-2.9860

> <Gold.PLP.part.metal>
0.0000

> <Gold.PLP.part.buried>
-2.8214

> <Gold.PLP.part.nonpolar>
-30.5587

> <Gold.PLP.part.repulsive>
2.1587

> <Gold.PLP.ligand.clash>
0.0000

> <Gold.PLP.ligand.torsion>
1.2065

> <Gold.PLP.Chemscore.Hbond>
2.6021

> <Gold.PLP.Chemscore.CHOScore>
0.5067

> <Gold.PLP.Chemscore.Metal>
0.0000

> <Gold.Chemscore.Hbonds>
donor molecule, donor type, donor heavy atom, donor atom, acceptor molecule, acceptor atom, score
      L1  H    15    37       P1 10186  0.88
      P1  H  7954  7966       L1     7  0.74
      P1  H  7989  7998       L1    25  0.99
      L1  C     6    33       P1  7957  0.63

> <Gold.PLP.Chemscore.Internal.Correction>
1.2329

> <Gold.Rescore>
     Score         DG    S(hbond)    S(metal)    S(lipo)     H(rot)  DE(clash)    DE(int)     intcor
      4.79     -10.74       1.91        0.00      65.96       3.45       1.52       4.42       ----

> <Gold.Chemscore.Fitness>
4.7945

> <Gold.Chemscore.DG>
-10.7391

> <Gold.Chemscore.ZeroCoef>
-5.4800

> <Gold.Chemscore.Hbond>
1.9101

> <Gold.Chemscore.Metal>
0.0000

> <Gold.Chemscore.Lipo>
65.9608

> <Gold.Chemscore.Internal_Hbond>
0.0000

> <Gold.Chemscore.DEClash>
1.5241

> <Gold.Chemscore.DEInternal>
4.4205

> <Gold.Chemscore.Rot>
3.4524

> <Gold.Chemscore.Internal.Correction>
   9.000000E+99

> <Gold.Chemscore.Hbonds>
donor molecule, donor type, donor heavy atom, donor atom, acceptor molecule, acceptor atom, score
      L1  H    15    37       P1 10186  0.16
      P1  H  7954  7966       L1     7  0.09
      P1  H  7989  7998       L1    25  0.82

> <Gold.Chemscore.Hbond.Weighted>
-6.3799

> <Gold.Chemscore.Metal.Weighted>
-0.0000

> <Gold.Chemscore.Lipo.Weighted>
-7.7174

> <Gold.Chemscore.Internal_Hbond.Weighted>
0.0000

> <Gold.Chemscore.DEClash.Weighted>
1.5241

> <Gold.Chemscore.DEInternal.Weighted>
4.4205

> <Gold.Chemscore.Rot.Weighted>
8.8382

> <Gold.Chemscore.Internal.Correction.Weighted>
   9.000000E+99

> <Gold.Protein.RotatedTorsions>
[ 6907 6896 6895 6894 ] final  -55.67 input  -60.11 | X-H torsion
[ 7974 7965 7964 7962 ] final  -60.28 input  175.53 | X-H torsion
[ 8008 7997 7996 7995 ] final   -6.65 input   59.86 | X-H torsion
[ 10167 10162 10161 10158 ] final    0.38 input  -65.29 | X-H torsion
[ 10718 10713 10712 10709 ] final  -85.76 input   66.30 | X-H torsion
[ 10763 10752 10751 10750 ] final  -65.18 input  -60.55 | X-H torsion
[ 11005 11000 10999 10996 ] final  139.86 input  -57.11 | X-H torsion

> <Gold.Protein.ActiveResidues>
 VAL166  LYS551  ARG553  GLY616  TRP617  ASP618  TYR619  PRO620  LYS621  CYS622 
 ASP623  PHE694  ASN695  SER759  ASP760  ASP761  ALA762  ILE779  LEU786  VAL792 
 PHE793  MET794  SER795  GLU796  ALA797  LYS798  CYS799  TRP800  GLU811  SER814 

> <Gold.Protein.RotatedAtoms>
  150.8231  134.7449  159.6789 H   0  0  0  0  0  0  0  0  0  0  0  0  # atno 6907 bound_to 6896
  152.4345  134.5710  159.9931 H   0  0  0  0  0  0  0  0  0  0  0  0  # atno 6908 bound_to 6896
  151.5889  133.3331  159.3059 H   0  0  0  0  0  0  0  0  0  0  0  0  # atno 6909 bound_to 6896
  145.8174  140.8561  143.0150 H   0  0  0  0  0  0  0  0  0  0  0  0  # atno 7974 bound_to 7965
  154.5916  140.2427  155.7913 H   0  0  0  0  0  0  0  0  0  0  0  0  # atno 8008 bound_to 7997
  156.2251  140.2985  156.0001 H   0  0  0  0  0  0  0  0  0  0  0  0  # atno 8009 bound_to 7997
  155.2364  140.0405  157.2959 H   0  0  0  0  0  0  0  0  0  0  0  0  # atno 8010 bound_to 7997
  140.6731  143.6992  150.7965 H   0  0  0  0  0  0  0  0  0  0  0  0  # atno 10167 bound_to 10162
  155.9994  130.4742  150.4611 H   0  0  0  0  0  0  0  0  0  0  0  0  # atno 10718 bound_to 10713
  154.3411  135.6156  153.5597 H   0  0  0  0  0  0  0  0  0  0  0  0  # atno 10763 bound_to 10752
  152.9804  135.5770  154.4851 H   0  0  0  0  0  0  0  0  0  0  0  0  # atno 10764 bound_to 10752
  154.4555  135.2854  155.1727 H   0  0  0  0  0  0  0  0  0  0  0  0  # atno 10765 bound_to 10752
  140.0285  134.9363  157.0616 H   0  0  0  0  0  0  0  0  0  0  0  0  # atno 11005 bound_to 11000
  144.6751  140.0483  143.7479 LP  0  0  0  0  0  0  0  0  0  0  0  0  # atno 17320 bound_to 7965
  145.9712  139.2871  143.1097 LP  0  0  0  0  0  0  0  0  0  0  0  0  # atno 17321 bound_to 7965
  140.0681  143.5088  152.2594 LP  0  0  0  0  0  0  0  0  0  0  0  0  # atno 17342 bound_to 10162
  139.6009  144.7582  151.3174 LP  0  0  0  0  0  0  0  0  0  0  0  0  # atno 17343 bound_to 10162
  157.2635  131.0572  151.2305 LP  0  0  0  0  0  0  0  0  0  0  0  0  # atno 17370 bound_to 10713
  157.3411  130.7034  149.6382 LP  0  0  0  0  0  0  0  0  0  0  0  0  # atno 17371 bound_to 10713
  140.4266  134.1825  155.7166 LP  0  0  0  0  0  0  0  0  0  0  0  0  # atno 17394 bound_to 11000
  141.1817  133.8400  157.1234 LP  0  0  0  0  0  0  0  0  0  0  0  0  # atno 17395 bound_to 11000

$$$$
