AV-unprocessed.smi:109|AV-procd|sdf|1036|dock9
  -GOLD-   2262018 53D 1   1.00000     0.00000
 Structure written by MMmdl.
 58 61  0  0  0  0  0  0  0  0  1 V2000
  151.4580  137.0699  159.3069 O   0  0  0  0  0  0  0  0  0  0  0  0
  151.9096  137.8957  158.2554 C   0  0  0  0  0  0  0  0  0  0  0  0
  152.1398  139.3240  158.7744 C   0  0  0  0  0  0  0  0  0  0  0  0
  151.6252  140.4092  157.8022 C   0  0  1  0  0  0  0  0  0  0  0  0
  150.1781  140.2778  157.6336 N   0  0  0  0  0  0  0  0  0  0  0  0
  149.6303  139.9302  156.4476 C   0  0  0  0  0  0  0  0  0  0  0  0
  150.3241  140.0500  155.2859 N   0  0  0  0  0  0  0  0  0  0  0  0
  149.7560  139.6975  154.1295 C   0  0  0  0  0  0  0  0  0  0  0  0
  148.5313  139.2122  153.9165 N   0  0  0  0  0  0  0  0  0  0  0  0
  147.8282  139.0857  155.0789 C   0  0  0  0  0  0  0  0  0  0  0  0
  148.3078  139.4215  156.3764 C   0  0  0  0  0  0  0  0  0  0  0  0
  147.3266  139.1631  157.3231 N   0  0  0  0  0  0  0  0  0  0  0  0
  146.3283  138.6980  156.6222 C   0  0  0  0  0  0  0  0  0  0  0  0
  146.5376  138.6255  155.2622 N   0  0  0  0  0  0  0  0  0  0  0  0
  145.5750  138.1189  154.2316 C   0  0  2  0  0  0  0  0  0  0  0  0
  145.2343  136.8043  154.5606 O   0  0  0  0  0  0  0  0  0  0  0  0
  145.6679  135.8991  153.5464 C   0  0  1  0  0  0  0  0  0  0  0  0
  144.7559  134.6611  153.4814 C   0  0  0  0  0  0  0  0  0  0  0  0
  144.9069  133.8849  154.6510 O   0  0  0  0  0  0  0  0  0  0  0  0
  145.7001  136.7670  152.2816 C   0  0  1  0  0  0  0  0  0  0  0  0
  144.4056  136.8569  151.7057 O   0  0  0  0  0  0  0  0  0  0  0  0
  146.1916  138.1054  152.8245 C   0  0  1  0  0  0  0  0  0  0  0  0
  145.7719  139.1871  152.0140 O   0  0  0  0  0  0  0  0  0  0  0  0
  152.0040  141.8594  158.2132 C   0  0  0  0  0  0  0  0  0  0  0  0
  152.0695  142.0515  159.7441 C   0  0  0  0  0  0  0  0  0  0  0  0
  152.5569  143.4627  160.1111 C   0  0  0  0  0  0  0  0  0  0  0  0
  151.6717  144.5412  159.4669 C   0  0  0  0  0  0  0  0  0  0  0  0
  151.5922  144.3570  157.9432 C   0  0  0  0  0  0  0  0  0  0  0  0
  151.1069  142.9448  157.5763 C   0  0  0  0  0  0  0  0  0  0  0  0
  144.6941  138.7562  154.3190 H   0  0  0  0  0  0  0  0  0  0  0  0
  146.6892  135.5857  153.7621 H   0  0  0  0  0  0  0  0  0  0  0  0
  146.3799  136.3631  151.5306 H   0  0  0  0  0  0  0  0  0  0  0  0
  147.2797  138.0977  152.8893 H   0  0  0  0  0  0  0  0  0  0  0  0
  150.5651  137.3039  159.5098 H   0  0  0  0  0  0  0  0  0  0  0  0
  152.8331  137.4804  157.8507 H   0  0  0  0  0  0  0  0  0  0  0  0
  151.1681  137.8833  157.4562 H   0  0  0  0  0  0  0  0  0  0  0  0
  151.6652  139.4372  159.7499 H   0  0  0  0  0  0  0  0  0  0  0  0
  153.2088  139.4499  158.9403 H   0  0  0  0  0  0  0  0  0  0  0  0
  152.0988  140.2087  156.8403 H   0  0  0  0  0  0  0  0  0  0  0  0
  149.6209  140.5521  158.4300 H   0  0  0  0  0  0  0  0  0  0  0  0
  150.3697  139.8221  153.2498 H   0  0  0  0  0  0  0  0  0  0  0  0
  145.4006  138.3929  157.0844 H   0  0  0  0  0  0  0  0  0  0  0  0
  143.7109  134.9416  153.3464 H   0  0  0  0  0  0  0  0  0  0  0  0
  145.0371  134.0322  152.6359 H   0  0  0  0  0  0  0  0  0  0  0  0
  144.4173  133.0836  154.5450 H   0  0  0  0  0  0  0  0  0  0  0  0
  144.4155  137.5499  151.0626 H   0  0  0  0  0  0  0  0  0  0  0  0
  145.1665  138.8579  151.3674 H   0  0  0  0  0  0  0  0  0  0  0  0
  153.0170  142.0378  157.8499 H   0  0  0  0  0  0  0  0  0  0  0  0
  151.0893  141.8932  160.1929 H   0  0  0  0  0  0  0  0  0  0  0  0
  152.7359  141.3099  160.1858 H   0  0  0  0  0  0  0  0  0  0  0  0
  152.5608  143.5843  161.1946 H   0  0  0  0  0  0  0  0  0  0  0  0
  153.5891  143.5909  159.7823 H   0  0  0  0  0  0  0  0  0  0  0  0
  150.6689  144.4933  159.8933 H   0  0  0  0  0  0  0  0  0  0  0  0
  152.0613  145.5319  159.7025 H   0  0  0  0  0  0  0  0  0  0  0  0
  150.9237  145.1032  157.5132 H   0  0  0  0  0  0  0  0  0  0  0  0
  152.5742  144.5316  157.5017 H   0  0  0  0  0  0  0  0  0  0  0  0
  151.0956  142.8396  156.4911 H   0  0  0  0  0  0  0  0  0  0  0  0
  150.0758  142.8258  157.9099 H   0  0  0  0  0  0  0  0  0  0  0  0
  1  2  1  0  0  0  0
  1 34  1  0  0  0  0
  2  3  1  0  0  0  0
  2 35  1  0  0  0  0
  2 36  1  0  0  0  0
  3  4  1  0  0  0  0
  3 37  1  0  0  0  0
  3 38  1  0  0  0  0
  4  5  1  0  0  0  0
  4 24  1  0  0  0  0
  4 39  1  0  0  0  0
  5  6  1  0  0  0  0
  5 40  1  0  0  0  0
  6 11  1  0  0  0  0
  6  7  2  0  0  0  0
  7  8  1  0  0  0  0
  8  9  2  0  0  0  0
  8 41  1  0  0  0  0
  9 10  1  0  0  0  0
 10 14  1  0  0  0  0
 10 11  2  0  0  0  0
 11 12  1  0  0  0  0
 12 13  2  0  0  0  0
 13 14  1  0  0  0  0
 13 42  1  0  0  0  0
 14 15  1  0  0  0  0
 15 30  1  0  0  0  0
 15 22  1  0  0  0  0
 15 16  1  0  0  0  0
 16 17  1  0  0  0  0
 17 31  1  0  0  0  0
 17 18  1  0  0  0  0
 17 20  1  0  0  0  0
 18 19  1  0  0  0  0
 18 43  1  0  0  0  0
 18 44  1  0  0  0  0
 19 45  1  0  0  0  0
 20 32  1  0  0  0  0
 20 21  1  0  0  0  0
 20 22  1  0  0  0  0
 21 46  1  0  0  0  0
 22 33  1  0  0  0  0
 22 23  1  0  0  0  0
 23 47  1  0  0  0  0
 24 29  1  0  0  0  0
 24 25  1  0  0  0  0
 24 48  1  0  0  0  0
 25 26  1  0  0  0  0
 25 49  1  0  0  0  0
 25 50  1  0  0  0  0
 26 27  1  0  0  0  0
 26 51  1  0  0  0  0
 26 52  1  0  0  0  0
 27 28  1  0  0  0  0
 27 53  1  0  0  0  0
 27 54  1  0  0  0  0
 28 29  1  0  0  0  0
 28 55  1  0  0  0  0
 28 56  1  0  0  0  0
 29 57  1  0  0  0  0
 29 58  1  0  0  0  0
M  END
> <s_m_source_file>
AV-unprocessed.smi

> <i_m_source_file_index>
109

> <i_lp_mmshare_version>
43012

> <i_f3d_flags>
0

> <s_epik_input>
W0NIMl0xW0NIMl1bQ0gyXVtDSDJdW0NIMl1bQ0hdMVtDQEhdKFtDSDJdW0NIMl1bT0hdKVtOSF1jKG5bY0hdbjIpYyhjMjMpbltjSF1uM1tDQEBIXTRPW0NASF0oW0NIMl1bT0hdKVtDQEBIXShbT0hdKVtDQEhdNFtPSF0=

> <s_epik_cmdline>
J2VwaWtfcHl0aG9uJywgJy1waCcsICc3LjAnLCAnLXRuJywgJzgnLCAnLW1hJywgJzIwMCcsICctbWV0YWxfYmluZGluZycsICctaW1hZScsICc8aW5maWxlLm1hZT4nLCAnLW9tYWUnLCAnPG91dGZpbGUubWFlPic=

> <r_lp_tautomer_probability>
1

> <r_epik_Ionization_Penalty>
0.000793976

> <r_epik_Ionization_Penalty_Charging>
0

> <r_epik_Ionization_Penalty_Neutral>
0.000793976

> <r_epik_State_Penalty>
-0

> <r_epik_Charging_Adjusted_Penalty>
0

> <i_epik_Tot_Q>
0

> <i_epik_Tot_abs_Q>
0

> <r_epik_Metal_State_Penalty>
-0

> <b_epik_Metal_Only>
0

> <s_epik_Chemistry_Notes>
This compound contains an acetal/aminal-like group ( X-CH(R)-Y where X, Y are N, S, or O) that may be acid/base labile, releasing an aldehyde.

> <s_lp_Force_Field>
OPLS_2005

> <r_lp_Energy>
57.9321

> <b_lp_Chiralities_Consistent>
1

> <s_lp_Variant>
AV-unprocessed.smi:109-6

> <Gold.Version>
5.8.1

> <Gold.Id.Protein>
6NUR|6NUR_protein|mol2

> <Gold.PLP.Fitness>
52.4071

> <Gold.PLP.PLP>
-39.9235

> <Gold.PLP.part.hbond>
-5.0000

> <Gold.PLP.part.metal>
0.0000

> <Gold.PLP.part.buried>
-7.2796

> <Gold.PLP.part.nonpolar>
-29.0849

> <Gold.PLP.part.repulsive>
0.4184

> <Gold.PLP.ligand.clash>
0.0000

> <Gold.PLP.ligand.torsion>
1.0564

> <Gold.PLP.Chemscore.Hbond>
4.0000

> <Gold.PLP.Chemscore.CHOScore>
0.8033

> <Gold.PLP.Chemscore.Metal>
0.0000

> <Gold.Chemscore.Hbonds>
donor molecule, donor type, donor heavy atom, donor atom, acceptor molecule, acceptor atom, score
      L1  H    19    45       P1 10957  0.59
      L1  H    21    46       P1 10171  1.00
      L1  H    23    47       P1 10171  1.00
      P1  H  6896  6909       L1     1  0.74
      L1  C     8    41       P1  7957  0.93

> <Gold.PLP.Chemscore.Internal.Correction>
0.1865

> <Gold.Rescore>
     Score         DG    S(hbond)    S(metal)    S(lipo)     H(rot)  DE(clash)    DE(int)     intcor
     13.30     -15.85       3.96        0.00      95.20       5.47       0.14       2.41       ----

> <Gold.Chemscore.Fitness>
13.2983

> <Gold.Chemscore.DG>
-15.8508

> <Gold.Chemscore.ZeroCoef>
-5.4800

> <Gold.Chemscore.Hbond>
3.9599

> <Gold.Chemscore.Metal>
0.0000

> <Gold.Chemscore.Lipo>
95.1976

> <Gold.Chemscore.Internal_Hbond>
0.0000

> <Gold.Chemscore.DEClash>
0.1436

> <Gold.Chemscore.DEInternal>
2.4089

> <Gold.Chemscore.Rot>
5.4662

> <Gold.Chemscore.Internal.Correction>
   9.000000E+99

> <Gold.Chemscore.Hbonds>
donor molecule, donor type, donor heavy atom, donor atom, acceptor molecule, acceptor atom, score
      L1  H    19    45       P1 10957  0.57
      L1  H    21    46       P1 10171  0.99
      L1  H    23    47       P1 10171  0.93
      P1  H  6896  6909       L1     1  0.08

> <Gold.Chemscore.Hbond.Weighted>
-13.2261

> <Gold.Chemscore.Metal.Weighted>
-0.0000

> <Gold.Chemscore.Lipo.Weighted>
-11.1381

> <Gold.Chemscore.Internal_Hbond.Weighted>
0.0000

> <Gold.Chemscore.DEClash.Weighted>
0.1436

> <Gold.Chemscore.DEInternal.Weighted>
2.4089

> <Gold.Chemscore.Rot.Weighted>
13.9935

> <Gold.Chemscore.Internal.Correction.Weighted>
   9.000000E+99

> <Gold.Protein.RotatedTorsions>
[ 6907 6896 6895 6894 ] final  100.25 input  -60.11 | X-H torsion
[ 7974 7965 7964 7962 ] final   79.28 input  175.53 | X-H torsion
[ 8008 7997 7996 7995 ] final  105.24 input   59.86 | X-H torsion
[ 10167 10162 10161 10158 ] final -114.80 input  -65.29 | X-H torsion
[ 10718 10713 10712 10709 ] final   74.30 input   66.30 | X-H torsion
[ 10763 10752 10751 10750 ] final  -14.44 input  -60.55 | X-H torsion
[ 11005 11000 10999 10996 ] final -165.39 input  -57.11 | X-H torsion

> <Gold.Protein.ActiveResidues>
 VAL166  LYS551  ARG553  GLY616  TRP617  ASP618  TYR619  PRO620  LYS621  CYS622 
 ASP623  PHE694  ASN695  SER759  ASP760  ASP761  ALA762  ILE779  LEU786  VAL792 
 PHE793  MET794  SER795  GLU796  ALA797  LYS798  CYS799  TRP800  GLU811  SER814 

> <Gold.Protein.RotatedAtoms>
  152.5376  134.0305  159.8022 H   0  0  0  0  0  0  0  0  0  0  0  0  # atno 6907 bound_to 6896
  151.0477  133.5644  159.2652 H   0  0  0  0  0  0  0  0  0  0  0  0  # atno 6908 bound_to 6896
  151.2590  135.0655  159.9144 H   0  0  0  0  0  0  0  0  0  0  0  0  # atno 6909 bound_to 6896
  145.6663  139.2484  143.1894 H   0  0  0  0  0  0  0  0  0  0  0  0  # atno 7974 bound_to 7965
  156.1642  140.3134  155.8860 H   0  0  0  0  0  0  0  0  0  0  0  0  # atno 8008 bound_to 7997
  155.3720  140.0482  157.3062 H   0  0  0  0  0  0  0  0  0  0  0  0  # atno 8009 bound_to 7997
  154.5176  140.2187  155.9047 H   0  0  0  0  0  0  0  0  0  0  0  0  # atno 8010 bound_to 7997
  140.0970  143.4647  152.1835 H   0  0  0  0  0  0  0  0  0  0  0  0  # atno 10167 bound_to 10162
  157.6586  130.9671  150.1192 H   0  0  0  0  0  0  0  0  0  0  0  0  # atno 10718 bound_to 10713
  153.5284  135.7015  153.5696 H   0  0  0  0  0  0  0  0  0  0  0  0  # atno 10763 bound_to 10752
  153.3714  135.3944  155.1791 H   0  0  0  0  0  0  0  0  0  0  0  0  # atno 10764 bound_to 10752
  154.8687  135.3813  154.4779 H   0  0  0  0  0  0  0  0  0  0  0  0  # atno 10765 bound_to 10752
  140.5762  134.5187  157.5170 H   0  0  0  0  0  0  0  0  0  0  0  0  # atno 11005 bound_to 11000
  146.1083  140.7460  142.9515 LP  0  0  0  0  0  0  0  0  0  0  0  0  # atno 17320 bound_to 7965
  144.7072  140.3898  143.7109 LP  0  0  0  0  0  0  0  0  0  0  0  0  # atno 17321 bound_to 7965
  139.5692  144.7453  151.3937 LP  0  0  0  0  0  0  0  0  0  0  0  0  # atno 17342 bound_to 10162
  140.6998  143.7660  150.7384 LP  0  0  0  0  0  0  0  0  0  0  0  0  # atno 17343 bound_to 10162
  156.2067  130.3664  149.8720 LP  0  0  0  0  0  0  0  0  0  0  0  0  # atno 17370 bound_to 10713
  156.6609  130.8782  151.3547 LP  0  0  0  0  0  0  0  0  0  0  0  0  # atno 17371 bound_to 10713
  139.9338  134.7913  156.0857 LP  0  0  0  0  0  0  0  0  0  0  0  0  # atno 17394 bound_to 11000
  141.1025  133.6672  156.2787 LP  0  0  0  0  0  0  0  0  0  0  0  0  # atno 17395 bound_to 11000

$$$$
