AV-unprocessed.smi:2849|AV-procd|sdf|10962|dock5
  -GOLD-   2272015413D 1   1.00000     0.00000
 Structure written by MMmdl.
 56 59  0  0  0  0  0  0  0  0  3 V2000
  145.7777  133.2290  155.3522 C   0  0  0  0  0  0  0  0  0  0  0  0
  144.8278  133.8292  154.3852 N   0  3  2  0  0  0  0  0  0  0  0  0
  145.3360  133.9385  152.9959 C   0  0  1  0  0  0  0  0  0  0  0  0
  144.1388  134.1543  152.0402 C   0  0  0  0  0  0  0  0  0  0  0  0
  143.2244  135.3312  152.4387 C   0  0  0  0  0  0  0  0  0  0  0  0
  142.9736  135.3950  153.9595 C   0  0  0  0  0  0  0  0  0  0  0  0
  144.2328  135.1183  154.8140 C   0  0  2  0  0  0  0  0  0  0  0  0
  145.2868  136.2547  154.8089 C   0  0  0  0  0  0  0  0  0  0  0  0
  146.0919  136.3812  153.4945 C   0  0  1  0  0  0  0  0  0  0  0  0
  147.3198  137.1341  153.7492 N   0  0  0  0  0  0  0  0  0  0  0  0
  147.4216  138.2458  154.4932 C   0  0  0  0  0  0  0  0  0  0  0  0
  146.4687  138.7759  155.0636 O   0  0  0  0  0  0  0  0  0  0  0  0
  148.6847  138.7054  154.5088 N   0  0  0  0  0  0  0  0  0  0  0  0
  149.2107  139.8125  155.2281 C   0  0  0  0  0  0  0  0  0  0  0  0
  150.4721  139.6611  155.8435 C   0  0  0  0  0  0  0  0  0  0  0  0
  151.0203  140.7262  156.5869 C   0  0  0  0  0  0  0  0  0  0  0  0
  150.2898  141.9302  156.7169 C   0  0  0  0  0  0  0  0  0  0  0  0
  150.7448  143.0472  157.4318 N   0  0  0  0  0  0  0  0  0  0  0  0
  151.0609  142.8090  158.8306 C   0  0  0  0  0  0  0  0  0  0  0  0
  151.9092  144.0058  159.2668 C   0  0  0  0  0  0  0  0  0  0  0  0
  152.4973  144.5663  157.9665 C   0  0  0  0  0  0  0  0  0  0  0  0
  151.9158  143.6864  156.8562 C   0  0  0  0  0  0  0  0  0  0  0  0
  149.0827  142.0334  156.1194 N   0  3  0  0  0  0  0  0  0  0  0  0
  148.5231  141.0394  155.3961 C   0  0  0  0  0  0  0  0  0  0  0  0
  146.4535  135.0058  152.8875 C   0  0  0  0  0  0  0  0  0  0  0  0
  146.6631  133.8465  155.5005 H   0  0  0  0  0  0  0  0  0  0  0  0
  146.1042  132.2484  155.0052 H   0  0  0  0  0  0  0  0  0  0  0  0
  145.2962  133.0914  156.3208 H   0  0  0  0  0  0  0  0  0  0  0  0
  145.7775  132.9780  152.7258 H   0  0  0  0  0  0  0  0  0  0  0  0
  144.4874  134.2821  151.0148 H   0  0  0  0  0  0  0  0  0  0  0  0
  143.5382  133.2437  152.0377 H   0  0  0  0  0  0  0  0  0  0  0  0
  143.6372  136.2711  152.0821 H   0  0  0  0  0  0  0  0  0  0  0  0
  142.2706  135.2407  151.9179 H   0  0  0  0  0  0  0  0  0  0  0  0
  142.5341  136.3568  154.2265 H   0  0  0  0  0  0  0  0  0  0  0  0
  142.2216  134.6458  154.2106 H   0  0  0  0  0  0  0  0  0  0  0  0
  143.8876  135.0008  155.8423 H   0  0  0  0  0  0  0  0  0  0  0  0
  144.8084  137.2070  155.0407 H   0  0  0  0  0  0  0  0  0  0  0  0
  145.9793  136.0753  155.6321 H   0  0  0  0  0  0  0  0  0  0  0  0
  145.4868  136.9289  152.7771 H   0  0  0  0  0  0  0  0  0  0  0  0
  148.1614  136.7816  153.3169 H   0  0  0  0  0  0  0  0  0  0  0  0
  149.3417  138.2231  153.9132 H   0  0  0  0  0  0  0  0  0  0  0  0
  151.0230  138.7371  155.7442 H   0  0  0  0  0  0  0  0  0  0  0  0
  151.9911  140.6134  157.0472 H   0  0  0  0  0  0  0  0  0  0  0  0
  150.1527  142.7249  159.4284 H   0  0  0  0  0  0  0  0  0  0  0  0
  151.6287  141.8859  158.9509 H   0  0  0  0  0  0  0  0  0  0  0  0
  151.2824  144.7600  159.7443 H   0  0  0  0  0  0  0  0  0  0  0  0
  152.6800  143.7146  159.9811 H   0  0  0  0  0  0  0  0  0  0  0  0
  152.1867  145.6034  157.8343 H   0  0  0  0  0  0  0  0  0  0  0  0
  153.5874  144.5434  157.9621 H   0  0  0  0  0  0  0  0  0  0  0  0
  152.6464  142.9372  156.5477 H   0  0  0  0  0  0  0  0  0  0  0  0
  151.6474  144.2754  155.9786 H   0  0  0  0  0  0  0  0  0  0  0  0
  147.5455  141.2645  154.9974 H   0  0  0  0  0  0  0  0  0  0  0  0
  147.3386  134.6181  153.3938 H   0  0  0  0  0  0  0  0  0  0  0  0
  146.7514  135.1294  151.8456 H   0  0  0  0  0  0  0  0  0  0  0  0
  144.0589  133.1754  154.3425 H   0  0  0  0  0  0  0  0  0  0  0  0
  148.5637  142.9056  156.2235 H   0  0  0  0  0  0  0  0  0  0  0  0
  1  2  1  0  0  0  0
  1 26  1  0  0  0  0
  1 27  1  0  0  0  0
  1 28  1  0  0  0  0
  2  7  1  0  0  0  0
  2  3  1  0  0  0  0
  2 55  1  0  0  0  0
  3 25  1  0  0  0  0
  3  4  1  0  0  0  0
  3 29  1  0  0  0  0
  4  5  1  0  0  0  0
  4 30  1  0  0  0  0
  4 31  1  0  0  0  0
  5  6  1  0  0  0  0
  5 32  1  0  0  0  0
  5 33  1  0  0  0  0
  6  7  1  0  0  0  0
  6 34  1  0  0  0  0
  6 35  1  0  0  0  0
  7  8  1  0  0  0  0
  7 36  1  0  0  0  0
  8  9  1  0  0  0  0
  8 37  1  0  0  0  0
  8 38  1  0  0  0  0
  9 10  1  0  0  0  0
  9 25  1  0  0  0  0
  9 39  1  0  0  0  0
 10 11  1  0  0  0  0
 10 40  1  0  0  0  0
 11 12  2  0  0  0  0
 11 13  1  0  0  0  0
 13 14  1  0  0  0  0
 13 41  1  0  0  0  0
 14 24  1  0  0  0  0
 14 15  2  0  0  0  0
 15 16  1  0  0  0  0
 15 42  1  0  0  0  0
 16 17  2  0  0  0  0
 16 43  1  0  0  0  0
 17 18  1  0  0  0  0
 17 23  1  0  0  0  0
 18 22  1  0  0  0  0
 18 19  1  0  0  0  0
 19 20  1  0  0  0  0
 19 44  1  0  0  0  0
 19 45  1  0  0  0  0
 20 21  1  0  0  0  0
 20 46  1  0  0  0  0
 20 47  1  0  0  0  0
 21 22  1  0  0  0  0
 21 48  1  0  0  0  0
 21 49  1  0  0  0  0
 22 50  1  0  0  0  0
 22 51  1  0  0  0  0
 23 24  2  0  0  0  0
 23 56  1  0  0  0  0
 24 52  1  0  0  0  0
 25 53  1  0  0  0  0
 25 54  1  0  0  0  0
M  CHG  1   2   1
M  CHG  1  23   1
M  END
> <s_m_source_file>
AV-unprocessed.smi

> <i_m_source_file_index>
2849

> <i_lp_mmshare_version>
43012

> <i_f3d_flags>
0

> <s_epik_input>
W0NIMl0xW0NIMl1bQ0gyXVtDQEhdKE4oW0NIM10pW0NIXTEyKVtDSDJdW0NASF0oW0NIMl0yKVtOSF1DKD1PKVtOSF1jM1tjSF1bY0hdYyhuW2NIXTMpTjRbQ0gyXVtDSDJdW0NIMl1bQ0gyXTQ=

> <s_epik_cmdline>
J2VwaWtfcHl0aG9uJywgJy1waCcsICc3LjAnLCAnLXRuJywgJzgnLCAnLW1hJywgJzIwMCcsICctbWV0YWxfYmluZGluZycsICctaW1hZScsICc8aW5maWxlLm1hZT4nLCAnLW9tYWUnLCAnPG91dGZpbGUubWFlPic=

> <r_lp_tautomer_probability>
0.999994

> <r_epik_Ionization_Penalty>
1.2404

> <r_epik_Ionization_Penalty_Charging>
1.24038

> <r_epik_Ionization_Penalty_Neutral>
1.86921e-05

> <r_epik_State_Penalty>
1.30821

> <r_epik_Charging_Adjusted_Penalty>
2.54859

> <i_epik_Tot_Q>
2

> <i_epik_Tot_abs_Q>
2

> <r_epik_Metal_State_Penalty>
1.37823

> <b_epik_Metal_Only>
0

> <s_lp_Force_Field>
OPLS_2005

> <r_lp_Energy>
73.3774

> <b_lp_Chiralities_Consistent>
1

> <s_lp_Variant>
AV-unprocessed.smi:2849-6

> <Gold.Version>
5.8.1

> <Gold.Id.Protein>
6NUR|6NUR_protein|mol2

> <Gold.PLP.Fitness>
43.0782

> <Gold.PLP.PLP>
-30.9713

> <Gold.PLP.part.hbond>
-3.0000

> <Gold.PLP.part.metal>
0.0000

> <Gold.PLP.part.buried>
-4.7591

> <Gold.PLP.part.nonpolar>
-24.9755

> <Gold.PLP.part.repulsive>
0.7801

> <Gold.PLP.ligand.clash>
0.0000

> <Gold.PLP.ligand.torsion>
0.5564

> <Gold.PLP.Chemscore.Hbond>
4.4000

> <Gold.PLP.Chemscore.CHOScore>
0.0000

> <Gold.PLP.Chemscore.Metal>
0.0000

> <Gold.Chemscore.Hbonds>
donor molecule, donor type, donor heavy atom, donor atom, acceptor molecule, acceptor atom, score
      L1  H     2    55       P1 10957  2.00
      L1  H    10    40       P1  7948  0.96
      L1  H    23    56       P1  8028  1.38

> <Gold.PLP.Chemscore.Internal.Correction>
0.0197

> <Gold.Rescore>
     Score         DG    S(hbond)    S(metal)    S(lipo)     H(rot)  DE(clash)    DE(int)     intcor
     17.55     -22.25       2.63        0.00      94.13       1.19       2.11       2.59       ----

> <Gold.Chemscore.Fitness>
17.5521

> <Gold.Chemscore.DG>
-22.2527

> <Gold.Chemscore.ZeroCoef>
-5.4800

> <Gold.Chemscore.Hbond>
2.6348

> <Gold.Chemscore.Metal>
0.0000

> <Gold.Chemscore.Lipo>
94.1323

> <Gold.Chemscore.Internal_Hbond>
0.0000

> <Gold.Chemscore.DEClash>
2.1070

> <Gold.Chemscore.DEInternal>
2.5936

> <Gold.Chemscore.Rot>
1.1879

> <Gold.Chemscore.Internal.Correction>
   9.000000E+99

> <Gold.Chemscore.Hbonds>
donor molecule, donor type, donor heavy atom, donor atom, acceptor molecule, acceptor atom, score
      L1  H     2    55       P1 10957  0.93
      L1  H    10    40       P1  7948  0.92
      L1  H    23    56       P1  8028  0.67

> <Gold.Chemscore.Hbond.Weighted>
-8.8003

> <Gold.Chemscore.Metal.Weighted>
-0.0000

> <Gold.Chemscore.Lipo.Weighted>
-11.0135

> <Gold.Chemscore.Internal_Hbond.Weighted>
0.0000

> <Gold.Chemscore.DEClash.Weighted>
2.1070

> <Gold.Chemscore.DEInternal.Weighted>
2.5936

> <Gold.Chemscore.Rot.Weighted>
3.0410

> <Gold.Chemscore.Internal.Correction.Weighted>
   9.000000E+99

> <Gold.Protein.RotatedTorsions>
[ 6907 6896 6895 6894 ] final -150.23 input  -60.11 | X-H torsion
[ 7974 7965 7964 7962 ] final -166.48 input  175.53 | X-H torsion
[ 8008 7997 7996 7995 ] final  127.15 input   59.86 | X-H torsion
[ 10167 10162 10161 10158 ] final   29.43 input  -65.29 | X-H torsion
[ 10718 10713 10712 10709 ] final   40.52 input   66.30 | X-H torsion
[ 10763 10752 10751 10750 ] final  145.61 input  -60.55 | X-H torsion
[ 11005 11000 10999 10996 ] final -112.85 input  -57.11 | X-H torsion

> <Gold.Protein.ActiveResidues>
 VAL166  LYS551  ARG553  GLY616  TRP617  ASP618  TYR619  PRO620  LYS621  CYS622 
 ASP623  PHE694  ASN695  SER759  ASP760  ASP761  ALA762  ILE779  LEU786  VAL792 
 PHE793  MET794  SER795  GLU796  ALA797  LYS798  CYS799  TRP800  GLU811  SER814 

> <Gold.Protein.RotatedAtoms>
  151.1956  133.4641  159.2595 H   0  0  0  0  0  0  0  0  0  0  0  0  # atno 6907 bound_to 6896
  151.1120  135.0032  159.8508 H   0  0  0  0  0  0  0  0  0  0  0  0  # atno 6908 bound_to 6896
  152.5451  134.1874  159.8713 H   0  0  0  0  0  0  0  0  0  0  0  0  # atno 6909 bound_to 6896
  144.7244  140.2660  143.6258 H   0  0  0  0  0  0  0  0  0  0  0  0  # atno 7974 bound_to 7965
  156.2883  140.2676  156.2226 H   0  0  0  0  0  0  0  0  0  0  0  0  # atno 8008 bound_to 7997
  155.0152  140.0387  157.2434 H   0  0  0  0  0  0  0  0  0  0  0  0  # atno 8009 bound_to 7997
  154.7483  140.2738  155.6319 H   0  0  0  0  0  0  0  0  0  0  0  0  # atno 8010 bound_to 7997
  140.4767  144.0680  150.6253 H   0  0  0  0  0  0  0  0  0  0  0  0  # atno 10167 bound_to 10162
  157.3831  130.7764  149.7208 H   0  0  0  0  0  0  0  0  0  0  0  0  # atno 10718 bound_to 10713
  154.0083  135.2917  155.3395 H   0  0  0  0  0  0  0  0  0  0  0  0  # atno 10763 bound_to 10752
  154.7118  135.5146  153.8681 H   0  0  0  0  0  0  0  0  0  0  0  0  # atno 10764 bound_to 10752
  153.0734  135.6655  154.0317 H   0  0  0  0  0  0  0  0  0  0  0  0  # atno 10765 bound_to 10752
  141.0650  133.9473  157.2595 H   0  0  0  0  0  0  0  0  0  0  0  0  # atno 11005 bound_to 11000
  145.8089  139.1995  143.2004 LP  0  0  0  0  0  0  0  0  0  0  0  0  # atno 17320 bound_to 7965
  146.0613  140.7968  142.9733 LP  0  0  0  0  0  0  0  0  0  0  0  0  # atno 17321 bound_to 7965
  140.3910  143.2752  152.0060 LP  0  0  0  0  0  0  0  0  0  0  0  0  # atno 17342 bound_to 10162
  139.4826  144.6077  151.7490 LP  0  0  0  0  0  0  0  0  0  0  0  0  # atno 17343 bound_to 10162
  155.9780  130.4056  150.3675 LP  0  0  0  0  0  0  0  0  0  0  0  0  # atno 17370 bound_to 10713
  157.1781  131.0385  151.2762 LP  0  0  0  0  0  0  0  0  0  0  0  0  # atno 17371 bound_to 10713
  139.9468  135.0182  156.8876 LP  0  0  0  0  0  0  0  0  0  0  0  0  # atno 17394 bound_to 11000
  140.5791  134.0369  155.7457 LP  0  0  0  0  0  0  0  0  0  0  0  0  # atno 17395 bound_to 11000

$$$$
