AV-unprocessed.smi:1108|AV-procd|sdf|4787|dock7
  -GOLD-   22720 3333D 1   1.00000     0.00000
 Structure written by MMmdl.
 31 32  0  0  0  0  0  0  0  0  1 V2000
  151.3101  144.9050  159.1225 C   0  0  0  0  0  0  0  0  0  0  0  0
  151.0301  143.4061  158.9490 C   0  0  2  0  0  0  0  0  0  0  0  0
  152.3317  142.5797  159.0294 C   0  0  0  0  0  0  0  0  0  0  0  0
  152.8547  142.4826  160.3806 N   0  0  0  0  0  0  0  0  0  0  0  0
  152.4986  143.2160  161.4929 C   0  0  0  0  0  0  0  0  0  0  0  0
  153.2708  142.7799  162.5311 C   0  0  0  0  0  0  0  0  0  0  0  0
  154.0756  141.7613  161.9484 C   0  0  0  0  0  0  0  0  0  0  0  0
  153.8213  141.5826  160.6623 N   0  0  0  0  0  0  0  0  0  0  0  0
  150.3578  143.1960  157.6672 N   0  0  0  0  0  0  0  0  0  0  0  0
  150.2694  142.0293  157.0112 C   0  0  0  0  0  0  0  0  0  0  0  0
  150.7498  140.9702  157.4153 O   0  0  0  0  0  0  0  0  0  0  0  0
  149.6032  142.1612  155.8567 N   0  0  0  0  0  0  0  0  0  0  0  0
  149.3516  141.1115  154.9236 C   0  0  0  0  0  0  0  0  0  0  0  0
  148.3406  141.3723  153.8281 C   0  0  0  0  0  0  0  0  0  0  0  0
  147.9917  140.4484  154.9623 C   0  0  0  0  0  0  0  0  0  0  0  0
  151.7829  145.1064  160.0842 H   0  0  0  0  0  0  0  0  0  0  0  0
  150.3870  145.4844  159.0838 H   0  0  0  0  0  0  0  0  0  0  0  0
  151.9728  145.2796  158.3416 H   0  0  0  0  0  0  0  0  0  0  0  0
  150.3713  143.1068  159.7664 H   0  0  0  0  0  0  0  0  0  0  0  0
  152.1712  141.5725  158.6424 H   0  0  0  0  0  0  0  0  0  0  0  0
  153.1024  143.0323  158.4037 H   0  0  0  0  0  0  0  0  0  0  0  0
  151.7393  143.9829  161.4512 H   0  0  0  0  0  0  0  0  0  0  0  0
  153.2635  143.1352  163.5506 H   0  0  0  0  0  0  0  0  0  0  0  0
  154.8313  141.1500  162.4189 H   0  0  0  0  0  0  0  0  0  0  0  0
  149.9284  144.0066  157.2458 H   0  0  0  0  0  0  0  0  0  0  0  0
  149.2499  143.0757  155.6153 H   0  0  0  0  0  0  0  0  0  0  0  0
  150.1888  140.4669  154.6584 H   0  0  0  0  0  0  0  0  0  0  0  0
  147.8535  142.3451  153.8051 H   0  0  0  0  0  0  0  0  0  0  0  0
  148.5301  140.9242  152.8548 H   0  0  0  0  0  0  0  0  0  0  0  0
  147.9472  139.3829  154.7465 H   0  0  0  0  0  0  0  0  0  0  0  0
  147.2719  140.8047  155.6968 H   0  0  0  0  0  0  0  0  0  0  0  0
  1  2  1  0  0  0  0
  1 16  1  0  0  0  0
  1 17  1  0  0  0  0
  1 18  1  0  0  0  0
  2  3  1  0  0  0  0
  2  9  1  0  0  0  0
  2 19  1  0  0  0  0
  3  4  1  0  0  0  0
  3 20  1  0  0  0  0
  3 21  1  0  0  0  0
  4  8  1  0  0  0  0
  4  5  1  0  0  0  0
  5  6  2  0  0  0  0
  5 22  1  0  0  0  0
  6  7  1  0  0  0  0
  6 23  1  0  0  0  0
  7  8  2  0  0  0  0
  7 24  1  0  0  0  0
  9 10  1  0  0  0  0
  9 25  1  0  0  0  0
 10 11  2  0  0  0  0
 10 12  1  0  0  0  0
 12 13  1  0  0  0  0
 12 26  1  0  0  0  0
 13 15  1  0  0  0  0
 13 14  1  0  0  0  0
 13 27  1  0  0  0  0
 14 15  1  0  0  0  0
 14 28  1  0  0  0  0
 14 29  1  0  0  0  0
 15 30  1  0  0  0  0
 15 31  1  0  0  0  0
M  END
> <s_m_source_file>
AV-unprocessed.smi

> <i_m_source_file_index>
1108

> <i_lp_mmshare_version>
43012

> <i_f3d_flags>
0

> <s_epik_input>
W0NIMl0xW0NIMl1bQ0hdMVtOSF1DKD1PKVtOSF1bQ0BIXShbQ0gzXSlbQ0gyXW4yW2NIXVtjSF1bY0hdbjI=

> <s_epik_cmdline>
J2VwaWtfcHl0aG9uJywgJy1waCcsICc3LjAnLCAnLXRuJywgJzgnLCAnLW1hJywgJzIwMCcsICctbWV0YWxfYmluZGluZycsICctaW1hZScsICc8aW5maWxlLm1hZT4nLCAnLW9tYWUnLCAnPG91dGZpbGUubWFlPic=

> <r_lp_tautomer_probability>
1

> <r_epik_Ionization_Penalty>
7.55353e-05

> <r_epik_Ionization_Penalty_Charging>
0

> <r_epik_Ionization_Penalty_Neutral>
7.55353e-05

> <r_epik_State_Penalty>
-0

> <r_epik_Charging_Adjusted_Penalty>
0

> <i_epik_Tot_Q>
0

> <i_epik_Tot_abs_Q>
0

> <r_epik_Metal_State_Penalty>
-0

> <b_epik_Metal_Only>
0

> <s_lp_Force_Field>
OPLS_2005

> <r_lp_Energy>
13.7116

> <b_lp_Chiralities_Consistent>
1

> <s_lp_Variant>
AV-unprocessed.smi:1108-1

> <Gold.Version>
5.8.1

> <Gold.Id.Protein>
6NUR|6NUR_protein|mol2

> <Gold.PLP.Fitness>
41.9771

> <Gold.PLP.PLP>
-37.6101

> <Gold.PLP.part.hbond>
-2.0000

> <Gold.PLP.part.metal>
0.0000

> <Gold.PLP.part.buried>
-3.6652

> <Gold.PLP.part.nonpolar>
-31.3942

> <Gold.PLP.part.repulsive>
0.1747

> <Gold.PLP.ligand.clash>
0.0000

> <Gold.PLP.ligand.torsion>
0.7560

> <Gold.PLP.Chemscore.Hbond>
1.9440

> <Gold.PLP.Chemscore.CHOScore>
0.0000

> <Gold.PLP.Chemscore.Metal>
0.0000

> <Gold.Chemscore.Hbonds>
donor molecule, donor type, donor heavy atom, donor atom, acceptor molecule, acceptor atom, score
      L1  H     9    25       P1  8028  0.94
      L1  H    12    26       P1  8028  1.00

> <Gold.PLP.Chemscore.Internal.Correction>
0.0469

> <Gold.Rescore>
     Score         DG    S(hbond)    S(metal)    S(lipo)     H(rot)  DE(clash)    DE(int)     intcor
     15.46     -17.36       1.90        0.00      84.58       1.71       0.01       1.89       ----

> <Gold.Chemscore.Fitness>
15.4561

> <Gold.Chemscore.DG>
-17.3582

> <Gold.Chemscore.ZeroCoef>
-5.4800

> <Gold.Chemscore.Hbond>
1.9021

> <Gold.Chemscore.Metal>
0.0000

> <Gold.Chemscore.Lipo>
84.5840

> <Gold.Chemscore.Internal_Hbond>
0.0000

> <Gold.Chemscore.DEClash>
0.0121

> <Gold.Chemscore.DEInternal>
1.8900

> <Gold.Chemscore.Rot>
1.7075

> <Gold.Chemscore.Internal.Correction>
   9.000000E+99

> <Gold.Chemscore.Hbonds>
donor molecule, donor type, donor heavy atom, donor atom, acceptor molecule, acceptor atom, score
      L1  H     9    25       P1  8028  0.68
      L1  H    12    26       P1  8028  1.00

> <Gold.Chemscore.Hbond.Weighted>
-6.3531

> <Gold.Chemscore.Metal.Weighted>
-0.0000

> <Gold.Chemscore.Lipo.Weighted>
-9.8963

> <Gold.Chemscore.Internal_Hbond.Weighted>
0.0000

> <Gold.Chemscore.DEClash.Weighted>
0.0121

> <Gold.Chemscore.DEInternal.Weighted>
1.8900

> <Gold.Chemscore.Rot.Weighted>
4.3713

> <Gold.Chemscore.Internal.Correction.Weighted>
   9.000000E+99

> <Gold.Protein.RotatedTorsions>
[ 6907 6896 6895 6894 ] final   -6.84 input  -60.11 | X-H torsion
[ 7974 7965 7964 7962 ] final   56.26 input  175.53 | X-H torsion
[ 8008 7997 7996 7995 ] final -147.28 input   59.86 | X-H torsion
[ 10167 10162 10161 10158 ] final  -60.62 input  -65.29 | X-H torsion
[ 10718 10713 10712 10709 ] final   67.21 input   66.30 | X-H torsion
[ 10763 10752 10751 10750 ] final   25.78 input  -60.55 | X-H torsion
[ 11005 11000 10999 10996 ] final -147.90 input  -57.11 | X-H torsion

> <Gold.Protein.ActiveResidues>
 VAL166  LYS551  ARG553  GLY616  TRP617  ASP618  TYR619  PRO620  LYS621  CYS622 
 ASP623  PHE694  ASN695  SER759  ASP760  ASP761  ALA762  ILE779  LEU786  VAL792 
 PHE793  MET794  SER795  GLU796  ALA797  LYS798  CYS799  TRP800  GLU811  SER814 

> <Gold.Protein.RotatedAtoms>
  151.4591  135.1037  159.9719 H   0  0  0  0  0  0  0  0  0  0  0  0  # atno 6907 bound_to 6896
  152.4859  133.8369  159.7143 H   0  0  0  0  0  0  0  0  0  0  0  0  # atno 6908 bound_to 6896
  150.8969  133.7109  159.2916 H   0  0  0  0  0  0  0  0  0  0  0  0  # atno 6909 bound_to 6896
  145.9417  139.3894  143.0359 H   0  0  0  0  0  0  0  0  0  0  0  0  # atno 7974 bound_to 7965
  155.5730  140.0636  157.2802 H   0  0  0  0  0  0  0  0  0  0  0  0  # atno 8008 bound_to 7997
  154.4355  140.1865  156.0945 H   0  0  0  0  0  0  0  0  0  0  0  0  # atno 8009 bound_to 7997
  156.0362  140.3301  155.7197 H   0  0  0  0  0  0  0  0  0  0  0  0  # atno 8010 bound_to 7997
  140.6059  143.2373  151.5821 H   0  0  0  0  0  0  0  0  0  0  0  0  # atno 10167 bound_to 10162
  157.6216  130.9309  150.0212 H   0  0  0  0  0  0  0  0  0  0  0  0  # atno 10718 bound_to 10713
  153.0668  135.6575  154.0337 H   0  0  0  0  0  0  0  0  0  0  0  0  # atno 10763 bound_to 10752
  153.9992  135.2938  155.3406 H   0  0  0  0  0  0  0  0  0  0  0  0  # atno 10764 bound_to 10752
  154.7028  135.5237  153.8620 H   0  0  0  0  0  0  0  0  0  0  0  0  # atno 10765 bound_to 10752
  140.7669  134.3234  157.5086 H   0  0  0  0  0  0  0  0  0  0  0  0  # atno 11005 bound_to 11000
  145.8291  140.9640  143.0858 LP  0  0  0  0  0  0  0  0  0  0  0  0  # atno 17320 bound_to 7965
  144.6780  140.0139  143.7484 LP  0  0  0  0  0  0  0  0  0  0  0  0  # atno 17321 bound_to 7965
  139.5325  144.2876  152.1179 LP  0  0  0  0  0  0  0  0  0  0  0  0  # atno 17342 bound_to 10162
  140.2065  144.4605  150.6406 LP  0  0  0  0  0  0  0  0  0  0  0  0  # atno 17343 bound_to 10162
  156.1365  130.3642  149.9649 LP  0  0  0  0  0  0  0  0  0  0  0  0  # atno 17370 bound_to 10713
  156.7699  130.9182  151.3644 LP  0  0  0  0  0  0  0  0  0  0  0  0  # atno 17371 bound_to 10713
  139.8762  134.9236  156.3330 LP  0  0  0  0  0  0  0  0  0  0  0  0  # atno 17394 bound_to 11000
  140.9611  133.7388  156.0402 LP  0  0  0  0  0  0  0  0  0  0  0  0  # atno 17395 bound_to 11000

$$$$
