AV-unprocessed.smi:1312|AV-procd|sdf|5448|dock10
  -GOLD-   22720 5 23D 1   1.00000     0.00000
 Structure written by MMmdl.
 50 51  0  0  0  0  0  0  0  0  2 V2000
  146.7914  139.6559  152.5078 C   0  0  0  0  0  0  0  0  0  0  0  0
  146.6290  138.2945  151.8137 C   0  0  0  0  0  0  0  0  0  0  0  0
  146.1142  137.1546  152.7347 C   0  0  2  0  0  0  0  0  0  0  0  0
  146.8209  137.1470  154.1145 C   0  0  0  0  0  0  0  0  0  0  0  0
  148.2337  137.4936  154.0073 N   0  0  0  0  0  0  0  0  0  0  0  0
  148.8233  138.5027  154.6639 C   0  0  0  0  0  0  0  0  0  0  0  0
  148.2128  139.2539  155.4259 O   0  0  0  0  0  0  0  0  0  0  0  0
  150.3286  138.6677  154.4237 C   0  0  0  0  0  0  0  0  0  0  0  0
  150.9840  139.4659  155.5250 C   0  0  0  0  0  0  0  0  0  0  0  0
  152.1035  139.0846  156.3215 C   0  0  0  0  0  0  0  0  0  0  0  0
  152.8876  137.8048  156.2651 C   0  0  0  0  0  0  0  0  0  0  0  0
  152.4376  140.0138  157.2018 N   0  0  0  0  0  0  0  0  0  0  0  0
  151.5509  141.0098  157.0036 N   0  0  0  0  0  0  0  0  0  0  0  0
  151.6323  142.2074  157.8173 C   0  0  0  0  0  0  0  0  0  0  0  0
  150.6548  140.7088  155.9963 C   0  0  0  0  0  0  0  0  0  0  0  0
  149.5683  141.6509  155.5894 C   0  0  0  0  0  0  0  0  0  0  0  0
  146.2062  135.8276  152.0564 N   0  3  0  0  0  0  0  0  0  0  0  0
  145.7999  134.6572  152.8650 C   0  0  0  0  0  0  0  0  0  0  0  0
  145.5094  133.5573  151.8509 C   0  0  0  0  0  0  0  0  0  0  0  0
  144.8646  134.3184  150.6993 C   0  0  0  0  0  0  0  0  0  0  0  0
  145.4818  135.7221  150.7635 C   0  0  0  0  0  0  0  0  0  0  0  0
  147.1875  140.3955  151.8115 H   0  0  0  0  0  0  0  0  0  0  0  0
  147.4810  139.5971  153.3499 H   0  0  0  0  0  0  0  0  0  0  0  0
  145.8388  140.0361  152.8766 H   0  0  0  0  0  0  0  0  0  0  0  0
  145.9541  138.4158  150.9662 H   0  0  0  0  0  0  0  0  0  0  0  0
  147.5817  138.0163  151.3639 H   0  0  0  0  0  0  0  0  0  0  0  0
  145.0547  137.3406  152.9192 H   0  0  0  0  0  0  0  0  0  0  0  0
  146.3673  137.8740  154.7885 H   0  0  0  0  0  0  0  0  0  0  0  0
  146.7067  136.1700  154.5868 H   0  0  0  0  0  0  0  0  0  0  0  0
  148.8049  136.9232  153.4005 H   0  0  0  0  0  0  0  0  0  0  0  0
  150.7687  137.6734  154.3441 H   0  0  0  0  0  0  0  0  0  0  0  0
  150.4852  139.1421  153.4542 H   0  0  0  0  0  0  0  0  0  0  0  0
  153.2436  137.6093  155.2537 H   0  0  0  0  0  0  0  0  0  0  0  0
  152.2704  136.9591  156.5689 H   0  0  0  0  0  0  0  0  0  0  0  0
  153.7586  137.8333  156.9210 H   0  0  0  0  0  0  0  0  0  0  0  0
  151.8036  143.0735  157.1777 H   0  0  0  0  0  0  0  0  0  0  0  0
  152.4498  142.1319  158.5355 H   0  0  0  0  0  0  0  0  0  0  0  0
  150.6979  142.3451  158.3615 H   0  0  0  0  0  0  0  0  0  0  0  0
  148.9079  141.1980  154.8503 H   0  0  0  0  0  0  0  0  0  0  0  0
  149.9867  142.5586  155.1546 H   0  0  0  0  0  0  0  0  0  0  0  0
  148.9595  141.9352  156.4477 H   0  0  0  0  0  0  0  0  0  0  0  0
  146.5732  134.3620  153.5748 H   0  0  0  0  0  0  0  0  0  0  0  0
  144.8918  134.8909  153.4236 H   0  0  0  0  0  0  0  0  0  0  0  0
  146.4432  133.1015  151.5191 H   0  0  0  0  0  0  0  0  0  0  0  0
  144.8710  132.7686  152.2500 H   0  0  0  0  0  0  0  0  0  0  0  0
  145.0238  133.8322  149.7366 H   0  0  0  0  0  0  0  0  0  0  0  0
  143.7883  134.3845  150.8624 H   0  0  0  0  0  0  0  0  0  0  0  0
  144.6935  136.4710  150.6759 H   0  0  0  0  0  0  0  0  0  0  0  0
  146.1859  135.8829  149.9467 H   0  0  0  0  0  0  0  0  0  0  0  0
  147.1812  135.6789  151.8381 H   0  0  0  0  0  0  0  0  0  0  0  0
  1  2  1  0  0  0  0
  1 22  1  0  0  0  0
  1 23  1  0  0  0  0
  1 24  1  0  0  0  0
  2  3  1  0  0  0  0
  2 25  1  0  0  0  0
  2 26  1  0  0  0  0
  3  4  1  0  0  0  0
  3 17  1  0  0  0  0
  3 27  1  0  0  0  0
  4  5  1  0  0  0  0
  4 28  1  0  0  0  0
  4 29  1  0  0  0  0
  5  6  1  0  0  0  0
  5 30  1  0  0  0  0
  6  7  2  0  0  0  0
  6  8  1  0  0  0  0
  8  9  1  0  0  0  0
  8 31  1  0  0  0  0
  8 32  1  0  0  0  0
  9 15  2  0  0  0  0
  9 10  1  0  0  0  0
 10 11  1  0  0  0  0
 10 12  2  0  0  0  0
 11 33  1  0  0  0  0
 11 34  1  0  0  0  0
 11 35  1  0  0  0  0
 12 13  1  0  0  0  0
 13 14  1  0  0  0  0
 13 15  1  0  0  0  0
 14 36  1  0  0  0  0
 14 37  1  0  0  0  0
 14 38  1  0  0  0  0
 15 16  1  0  0  0  0
 16 39  1  0  0  0  0
 16 40  1  0  0  0  0
 16 41  1  0  0  0  0
 17 21  1  0  0  0  0
 17 18  1  0  0  0  0
 17 50  1  0  0  0  0
 18 19  1  0  0  0  0
 18 42  1  0  0  0  0
 18 43  1  0  0  0  0
 19 20  1  0  0  0  0
 19 44  1  0  0  0  0
 19 45  1  0  0  0  0
 20 21  1  0  0  0  0
 20 46  1  0  0  0  0
 20 47  1  0  0  0  0
 21 48  1  0  0  0  0
 21 49  1  0  0  0  0
M  CHG  1  17   1
M  END
> <s_m_source_file>
AV-unprocessed.smi

> <i_m_source_file_index>
1312

> <i_lp_mmshare_version>
43012

> <i_f3d_flags>
0

> <s_epik_input>
W0NIMl0xW0NIMl1bQ0gyXVtDSDJdTjFbQ0BIXShbQ0gyXVtDSDNdKVtDSDJdW05IXUMoPU8pW0NIMl1jMmMoW0NIM10pbm4oW0NIM10pYzJbQ0gzXQ==

> <s_epik_cmdline>
J2VwaWtfcHl0aG9uJywgJy1waCcsICc3LjAnLCAnLXRuJywgJzgnLCAnLW1hJywgJzIwMCcsICctbWV0YWxfYmluZGluZycsICctaW1hZScsICc8aW5maWxlLm1hZT4nLCAnLW9tYWUnLCAnPG91dGZpbGUubWFlPic=

> <r_lp_tautomer_probability>
1

> <r_epik_Ionization_Penalty>
0.00585463

> <r_epik_Ionization_Penalty_Charging>
0.00366302

> <r_epik_Ionization_Penalty_Neutral>
0.00219161

> <r_epik_State_Penalty>
-0

> <r_epik_Charging_Adjusted_Penalty>
0.00366302

> <i_epik_Tot_Q>
1

> <i_epik_Tot_abs_Q>
1

> <r_epik_Metal_State_Penalty>
-0

> <b_epik_Metal_Only>
0

> <s_lp_Force_Field>
OPLS_2005

> <r_lp_Energy>
29.647

> <b_lp_Chiralities_Consistent>
1

> <s_lp_Variant>
AV-unprocessed.smi:1312-1

> <Gold.Version>
5.8.1

> <Gold.Id.Protein>
6NUR|6NUR_protein|mol2

> <Gold.PLP.Fitness>
45.6703

> <Gold.PLP.PLP>
-34.9770

> <Gold.PLP.part.hbond>
-3.0000

> <Gold.PLP.part.metal>
0.0000

> <Gold.PLP.part.buried>
1.4113

> <Gold.PLP.part.nonpolar>
-34.2918

> <Gold.PLP.part.repulsive>
0.0775

> <Gold.PLP.ligand.clash>
0.0000

> <Gold.PLP.ligand.torsion>
0.7208

> <Gold.PLP.Chemscore.Hbond>
4.0000

> <Gold.PLP.Chemscore.CHOScore>
0.0000

> <Gold.PLP.Chemscore.Metal>
0.0000

> <Gold.Chemscore.Hbonds>
donor molecule, donor type, donor heavy atom, donor atom, acceptor molecule, acceptor atom, score
      L1  H     5    30       P1  7948  0.93
      L1  H    17    50       P1  7948  2.00
      P1  H  7997  8008       L1    12  0.89

> <Gold.PLP.Chemscore.Internal.Correction>
0.1349

> <Gold.Rescore>
     Score         DG    S(hbond)    S(metal)    S(lipo)     H(rot)  DE(clash)    DE(int)     intcor
     16.81     -21.31       2.67        0.00      96.71       1.72       1.29       3.21       ----

> <Gold.Chemscore.Fitness>
16.8088

> <Gold.Chemscore.DG>
-21.3066

> <Gold.Chemscore.ZeroCoef>
-5.4800

> <Gold.Chemscore.Hbond>
2.6700

> <Gold.Chemscore.Metal>
0.0000

> <Gold.Chemscore.Lipo>
96.7117

> <Gold.Chemscore.Internal_Hbond>
0.0000

> <Gold.Chemscore.DEClash>
1.2861

> <Gold.Chemscore.DEInternal>
3.2118

> <Gold.Chemscore.Rot>
1.7213

> <Gold.Chemscore.Internal.Correction>
   9.000000E+99

> <Gold.Chemscore.Hbonds>
donor molecule, donor type, donor heavy atom, donor atom, acceptor molecule, acceptor atom, score
      L1  H     5    30       P1  7948  0.91
      L1  H    17    50       P1  7948  0.96
      P1  H  7997  8008       L1    12  0.16

> <Gold.Chemscore.Hbond.Weighted>
-8.9179

> <Gold.Chemscore.Metal.Weighted>
-0.0000

> <Gold.Chemscore.Lipo.Weighted>
-11.3153

> <Gold.Chemscore.Internal_Hbond.Weighted>
0.0000

> <Gold.Chemscore.DEClash.Weighted>
1.2861

> <Gold.Chemscore.DEInternal.Weighted>
3.2118

> <Gold.Chemscore.Rot.Weighted>
4.4065

> <Gold.Chemscore.Internal.Correction.Weighted>
   9.000000E+99

> <Gold.Protein.RotatedTorsions>
[ 6907 6896 6895 6894 ] final  -47.25 input  -60.11 | X-H torsion
[ 7974 7965 7964 7962 ] final  148.92 input  175.53 | X-H torsion
[ 8008 7997 7996 7995 ] final  -70.20 input   59.86 | X-H torsion
[ 10167 10162 10161 10158 ] final -115.32 input  -65.29 | X-H torsion
[ 10718 10713 10712 10709 ] final   17.95 input   66.30 | X-H torsion
[ 10763 10752 10751 10750 ] final  -94.10 input  -60.55 | X-H torsion
[ 11005 11000 10999 10996 ] final -145.86 input  -57.11 | X-H torsion

> <Gold.Protein.ActiveResidues>
 VAL166  LYS551  ARG553  GLY616  TRP617  ASP618  TYR619  PRO620  LYS621  CYS622 
 ASP623  PHE694  ASN695  SER759  ASP760  ASP761  ALA762  ILE779  LEU786  VAL792 
 PHE793  MET794  SER795  GLU796  ALA797  LYS798  CYS799  TRP800  GLU811  SER814 

> <Gold.Protein.RotatedAtoms>
  150.9027  134.8441  159.7371 H   0  0  0  0  0  0  0  0  0  0  0  0  # atno 6907 bound_to 6896
  152.4901  134.4477  159.9574 H   0  0  0  0  0  0  0  0  0  0  0  0  # atno 6908 bound_to 6896
  151.4528  133.3574  159.2833 H   0  0  0  0  0  0  0  0  0  0  0  0  # atno 6909 bound_to 6896
  144.8477  139.6215  143.5988 H   0  0  0  0  0  0  0  0  0  0  0  0  # atno 7974 bound_to 7965
  154.4994  140.0839  156.7766 H   0  0  0  0  0  0  0  0  0  0  0  0  # atno 8008 bound_to 7997
  155.4039  140.3438  155.4240 H   0  0  0  0  0  0  0  0  0  0  0  0  # atno 8009 bound_to 7997
  156.1437  140.1537  156.8869 H   0  0  0  0  0  0  0  0  0  0  0  0  # atno 8010 bound_to 7997
  140.0914  143.4696  152.1868 H   0  0  0  0  0  0  0  0  0  0  0  0  # atno 10167 bound_to 10162
  157.0894  130.6421  149.5845 H   0  0  0  0  0  0  0  0  0  0  0  0  # atno 10718 bound_to 10713
  154.7023  135.5170  153.8544 H   0  0  0  0  0  0  0  0  0  0  0  0  # atno 10763 bound_to 10752
  153.0713  135.6602  154.0250 H   0  0  0  0  0  0  0  0  0  0  0  0  # atno 10764 bound_to 10752
  154.0107  135.3002  155.3372 H   0  0  0  0  0  0  0  0  0  0  0  0  # atno 10765 bound_to 10752
  140.7879  134.3003  157.5023 H   0  0  0  0  0  0  0  0  0  0  0  0  # atno 11005 bound_to 11000
  146.2758  139.6750  142.9264 LP  0  0  0  0  0  0  0  0  0  0  0  0  # atno 17320 bound_to 7965
  145.4563  141.0431  143.2776 LP  0  0  0  0  0  0  0  0  0  0  0  0  # atno 17321 bound_to 7965
  139.5723  144.7469  151.3859 LP  0  0  0  0  0  0  0  0  0  0  0  0  # atno 17342 bound_to 10162
  140.7027  143.7592  150.7429 LP  0  0  0  0  0  0  0  0  0  0  0  0  # atno 17343 bound_to 10162
  155.9902  130.4952  150.7247 LP  0  0  0  0  0  0  0  0  0  0  0  0  # atno 17370 bound_to 10713
  157.4734  131.0895  151.0617 LP  0  0  0  0  0  0  0  0  0  0  0  0  # atno 17371 bound_to 10713
  139.8734  134.9357  156.3641 LP  0  0  0  0  0  0  0  0  0  0  0  0  # atno 17394 bound_to 11000
  140.9418  133.7509  156.0157 LP  0  0  0  0  0  0  0  0  0  0  0  0  # atno 17395 bound_to 11000

$$$$
