AV-unprocessed.smi:13|AV-procd|sdf|69|dock10
  -GOLD-   2262015193D 1   1.00000     0.00000
 Structure written by MMmdl.
 54 58  0  0  0  0  0  0  0  0  1 V2000
  146.4163  134.5562  158.7820 C   0  0  0  0  0  0  0  0  0  0  0  0
  147.9427  134.6781  158.6832 C   0  0  0  0  0  0  0  0  0  0  0  0
  148.4786  133.2714  158.4190 C   0  0  0  0  0  0  0  0  0  0  0  0
  148.4622  135.7772  157.7435 C   0  0  0  0  0  0  0  0  0  0  0  0
  148.5839  136.6260  158.9174 N   0  0  0  0  0  0  0  0  0  0  0  0
  149.7176  137.4813  158.9317 C   0  0  0  0  0  0  0  0  0  0  0  0
  150.8477  136.9752  159.4862 N   0  0  0  0  0  0  0  0  0  0  0  0
  151.9727  137.6931  159.5406 C   0  0  0  0  0  0  0  0  0  0  0  0
  152.1914  138.9326  159.1027 N   0  0  0  0  0  0  0  0  0  0  0  0
  151.0659  139.4587  158.5434 C   0  0  0  0  0  0  0  0  0  0  0  0
  149.8031  138.8108  158.4179 C   0  0  0  0  0  0  0  0  0  0  0  0
  148.9023  139.6649  157.7905 N   0  0  0  0  0  0  0  0  0  0  0  0
  149.5902  140.7489  157.5597 C   0  0  0  0  0  0  0  0  0  0  0  0
  150.8978  140.7141  157.9861 N   0  0  0  0  0  0  0  0  0  0  0  0
  151.8821  141.7784  157.8636 C   0  0  0  0  0  0  0  0  0  0  0  0
  151.7469  142.8626  158.9573 C   0  0  1  0  0  0  0  0  0  0  0  0
  151.9346  142.2590  160.2260 O   0  0  0  0  0  0  0  0  0  0  0  0
  152.7349  144.0168  158.8195 C   0  0  0  0  0  0  0  0  0  0  0  0
  151.9640  145.1917  159.4039 C   0  0  0  0  0  0  0  0  0  0  0  0
  150.6493  144.9715  158.9216 O   0  0  0  0  0  0  0  0  0  0  0  0
  150.3787  143.5731  158.9525 C   0  0  0  0  0  0  0  0  0  0  0  0
  148.6658  135.4659  159.7963 C   0  0  1  0  0  0  0  0  0  0  0  0
  148.0109  135.7409  161.1502 C   0  0  2  0  0  0  0  0  0  0  0  0
  147.6264  134.4800  161.9239 C   0  0  0  0  0  0  0  0  0  0  0  0
  146.4912  134.9462  162.8203 C   0  0  0  0  0  0  0  0  0  0  0  0
  146.0339  136.2625  162.1849 C   0  0  0  0  0  0  0  0  0  0  0  0
  146.7466  136.3546  160.9590 O   0  0  0  0  0  0  0  0  0  0  0  0
  145.9887  134.1414  157.8688 H   0  0  0  0  0  0  0  0  0  0  0  0
  145.9431  135.5255  158.9430 H   0  0  0  0  0  0  0  0  0  0  0  0
  146.1187  133.9092  159.6079 H   0  0  0  0  0  0  0  0  0  0  0  0
  149.5642  133.2706  158.3161 H   0  0  0  0  0  0  0  0  0  0  0  0
  148.0680  132.8513  157.5003 H   0  0  0  0  0  0  0  0  0  0  0  0
  148.2318  132.5911  159.2347 H   0  0  0  0  0  0  0  0  0  0  0  0
  149.4115  135.5303  157.2672 H   0  0  0  0  0  0  0  0  0  0  0  0
  147.7275  136.1361  157.0221 H   0  0  0  0  0  0  0  0  0  0  0  0
  152.8181  137.2037  160.0017 H   0  0  0  0  0  0  0  0  0  0  0  0
  149.1583  141.6121  157.0749 H   0  0  0  0  0  0  0  0  0  0  0  0
  152.8758  141.3300  157.9016 H   0  0  0  0  0  0  0  0  0  0  0  0
  151.7868  142.2236  156.8723 H   0  0  0  0  0  0  0  0  0  0  0  0
  151.2658  142.5801  160.8114 H   0  0  0  0  0  0  0  0  0  0  0  0
  153.6932  143.8398  159.3104 H   0  0  0  0  0  0  0  0  0  0  0  0
  152.9335  144.2200  157.7666 H   0  0  0  0  0  0  0  0  0  0  0  0
  151.9679  145.1617  160.4946 H   0  0  0  0  0  0  0  0  0  0  0  0
  152.3556  146.1565  159.0812 H   0  0  0  0  0  0  0  0  0  0  0  0
  149.7818  143.3128  158.0779 H   0  0  0  0  0  0  0  0  0  0  0  0
  149.7845  143.3305  159.8351 H   0  0  0  0  0  0  0  0  0  0  0  0
  149.6879  135.1011  159.8999 H   0  0  0  0  0  0  0  0  0  0  0  0
  148.6273  136.3921  161.7732 H   0  0  0  0  0  0  0  0  0  0  0  0
  147.2596  133.7143  161.2387 H   0  0  0  0  0  0  0  0  0  0  0  0
  148.4619  134.0566  162.4819 H   0  0  0  0  0  0  0  0  0  0  0  0
  145.6891  134.2082  162.8526 H   0  0  0  0  0  0  0  0  0  0  0  0
  146.8359  135.1141  163.8412 H   0  0  0  0  0  0  0  0  0  0  0  0
  144.9578  136.2929  162.0129 H   0  0  0  0  0  0  0  0  0  0  0  0
  146.3013  137.1080  162.8203 H   0  0  0  0  0  0  0  0  0  0  0  0
  1  2  1  0  0  0  0
  1 28  1  0  0  0  0
  1 29  1  0  0  0  0
  1 30  1  0  0  0  0
  2 22  1  0  0  0  0
  2  3  1  0  0  0  0
  2  4  1  0  0  0  0
  3 31  1  0  0  0  0
  3 32  1  0  0  0  0
  3 33  1  0  0  0  0
  4  5  1  0  0  0  0
  4 34  1  0  0  0  0
  4 35  1  0  0  0  0
  5  6  1  0  0  0  0
  5 22  1  0  0  0  0
  6 11  1  0  0  0  0
  6  7  2  0  0  0  0
  7  8  1  0  0  0  0
  8  9  2  0  0  0  0
  8 36  1  0  0  0  0
  9 10  1  0  0  0  0
 10 14  1  0  0  0  0
 10 11  2  0  0  0  0
 11 12  1  0  0  0  0
 12 13  2  0  0  0  0
 13 14  1  0  0  0  0
 13 37  1  0  0  0  0
 14 15  1  0  0  0  0
 15 16  1  0  0  0  0
 15 38  1  0  0  0  0
 15 39  1  0  0  0  0
 16 21  1  0  0  0  0
 16 17  1  0  0  0  0
 16 18  1  0  0  0  0
 17 40  1  0  0  0  0
 18 19  1  0  0  0  0
 18 41  1  0  0  0  0
 18 42  1  0  0  0  0
 19 20  1  0  0  0  0
 19 43  1  0  0  0  0
 19 44  1  0  0  0  0
 20 21  1  0  0  0  0
 21 45  1  0  0  0  0
 21 46  1  0  0  0  0
 22 23  1  0  0  0  0
 22 47  1  0  0  0  0
 23 27  1  0  0  0  0
 23 24  1  0  0  0  0
 23 48  1  0  0  0  0
 24 25  1  0  0  0  0
 24 49  1  0  0  0  0
 24 50  1  0  0  0  0
 25 26  1  0  0  0  0
 25 51  1  0  0  0  0
 25 52  1  0  0  0  0
 26 27  1  0  0  0  0
 26 53  1  0  0  0  0
 26 54  1  0  0  0  0
M  END
> <s_m_source_file>
AV-unprocessed.smi

> <i_m_source_file_index>
13

> <i_lp_mmshare_version>
43012

> <i_f3d_flags>
0

> <s_epik_input>
TzFbQ0gyXVtDSDJdW0NIMl1bQ0BIXTFbQ0BASF0yTihbQ0gyXUMyKFtDSDNdKVtDSDNdKWMobltjSF1uMyljKGMzNCluW2NIXW40W0NIMl1bQ0BAXTUoW09IXSlbQ0gyXVtDSDJdT1tDSDJdNQ==

> <s_epik_cmdline>
J2VwaWtfcHl0aG9uJywgJy1waCcsICc3LjAnLCAnLXRuJywgJzgnLCAnLW1hJywgJzIwMCcsICctbWV0YWxfYmluZGluZycsICctaW1hZScsICc8aW5maWxlLm1hZT4nLCAnLW9tYWUnLCAnPG91dGZpbGUubWFlPic=

> <r_lp_tautomer_probability>
1

> <r_epik_Ionization_Penalty>
0.00202764

> <r_epik_Ionization_Penalty_Charging>
0

> <r_epik_Ionization_Penalty_Neutral>
0.00202764

> <r_epik_State_Penalty>
0.00134017

> <r_epik_Charging_Adjusted_Penalty>
0.00134017

> <i_epik_Tot_Q>
0

> <i_epik_Tot_abs_Q>
0

> <r_epik_Metal_State_Penalty>
-0

> <b_epik_Metal_Only>
0

> <s_lp_Force_Field>
OPLS_2005

> <r_lp_Energy>
60.4132

> <b_lp_Chiralities_Consistent>
1

> <s_lp_Variant>
AV-unprocessed.smi:13-1

> <Gold.Version>
5.8.1

> <Gold.Id.Protein>
6NUR|6NUR_protein|mol2

> <Gold.PLP.Fitness>
42.8255

> <Gold.PLP.PLP>
-41.4152

> <Gold.PLP.part.hbond>
-1.2034

> <Gold.PLP.part.metal>
0.0000

> <Gold.PLP.part.buried>
-7.9794

> <Gold.PLP.part.nonpolar>
-32.7421

> <Gold.PLP.part.repulsive>
0.1755

> <Gold.PLP.ligand.clash>
0.0000

> <Gold.PLP.ligand.torsion>
1.0081

> <Gold.PLP.Chemscore.Hbond>
0.9913

> <Gold.PLP.Chemscore.CHOScore>
0.0000

> <Gold.PLP.Chemscore.Metal>
0.0000

> <Gold.Chemscore.Hbonds>
donor molecule, donor type, donor heavy atom, donor atom, acceptor molecule, acceptor atom, score
      P1  H  6896  6909       L1     7  1.00

> <Gold.PLP.Chemscore.Internal.Correction>
0.4527

> <Gold.Rescore>
     Score         DG    S(hbond)    S(metal)    S(lipo)     H(rot)  DE(clash)    DE(int)     intcor
     12.30     -14.66       0.87        0.00     103.85       2.30       0.06       2.30       ----

> <Gold.Chemscore.Fitness>
12.2978

> <Gold.Chemscore.DG>
-14.6608

> <Gold.Chemscore.ZeroCoef>
-5.4800

> <Gold.Chemscore.Hbond>
0.8733

> <Gold.Chemscore.Metal>
0.0000

> <Gold.Chemscore.Lipo>
103.8538

> <Gold.Chemscore.Internal_Hbond>
0.0000

> <Gold.Chemscore.DEClash>
0.0581

> <Gold.Chemscore.DEInternal>
2.3049

> <Gold.Chemscore.Rot>
2.2996

> <Gold.Chemscore.Internal.Correction>
   9.000000E+99

> <Gold.Chemscore.Hbonds>
donor molecule, donor type, donor heavy atom, donor atom, acceptor molecule, acceptor atom, score
      P1  H  6896  6909       L1     7  0.88

> <Gold.Chemscore.Hbond.Weighted>
-2.9168

> <Gold.Chemscore.Metal.Weighted>
-0.0000

> <Gold.Chemscore.Lipo.Weighted>
-12.1509

> <Gold.Chemscore.Internal_Hbond.Weighted>
0.0000

> <Gold.Chemscore.DEClash.Weighted>
0.0581

> <Gold.Chemscore.DEInternal.Weighted>
2.3049

> <Gold.Chemscore.Rot.Weighted>
5.8869

> <Gold.Chemscore.Internal.Correction.Weighted>
   9.000000E+99

> <Gold.Protein.RotatedTorsions>
[ 6907 6896 6895 6894 ] final   85.88 input  -60.11 | X-H torsion
[ 7974 7965 7964 7962 ] final   25.79 input  175.53 | X-H torsion
[ 8008 7997 7996 7995 ] final -172.00 input   59.86 | X-H torsion
[ 10167 10162 10161 10158 ] final  -59.10 input  -65.29 | X-H torsion
[ 10718 10713 10712 10709 ] final  -52.33 input   66.30 | X-H torsion
[ 10763 10752 10751 10750 ] final -143.70 input  -60.55 | X-H torsion
[ 11005 11000 10999 10996 ] final  -51.80 input  -57.11 | X-H torsion

> <Gold.Protein.ActiveResidues>
 VAL166  LYS551  ARG553  GLY616  TRP617  ASP618  TYR619  PRO620  LYS621  CYS622 
 ASP623  PHE694  ASN695  SER759  ASP760  ASP761  ALA762  ILE779  LEU786  VAL792 
 PHE793  MET794  SER795  GLU796  ALA797  LYS798  CYS799  TRP800  GLU811  SER814 

> <Gold.Protein.RotatedAtoms>
  152.5383  134.2517  159.8901 H   0  0  0  0  0  0  0  0  0  0  0  0  # atno 6907 bound_to 6896
  151.2481  133.4358  159.2618 H   0  0  0  0  0  0  0  0  0  0  0  0  # atno 6908 bound_to 6896
  151.0565  134.9722  159.8294 H   0  0  0  0  0  0  0  0  0  0  0  0  # atno 6909 bound_to 6896
  146.1870  139.7417  142.8859 H   0  0  0  0  0  0  0  0  0  0  0  0  # atno 7974 bound_to 7965
  155.9389  140.1105  157.1071 H   0  0  0  0  0  0  0  0  0  0  0  0  # atno 8008 bound_to 7997
  154.4085  140.1223  156.4967 H   0  0  0  0  0  0  0  0  0  0  0  0  # atno 8009 bound_to 7997
  155.6986  140.3472  155.4926 H   0  0  0  0  0  0  0  0  0  0  0  0  # atno 8010 bound_to 7997
  140.6156  143.2401  151.5606 H   0  0  0  0  0  0  0  0  0  0  0  0  # atno 10167 bound_to 10162
  156.1631  130.4149  149.9762 H   0  0  0  0  0  0  0  0  0  0  0  0  # atno 10718 bound_to 10713
  154.8459  135.3461  154.6228 H   0  0  0  0  0  0  0  0  0  0  0  0  # atno 10763 bound_to 10752
  153.6837  135.6978  153.5115 H   0  0  0  0  0  0  0  0  0  0  0  0  # atno 10764 bound_to 10752
  153.2648  135.4311  155.0886 H   0  0  0  0  0  0  0  0  0  0  0  0  # atno 10765 bound_to 10752
  141.0891  133.6636  156.3931 H   0  0  0  0  0  0  0  0  0  0  0  0  # atno 11005 bound_to 11000
  145.3907  141.0372  143.3125 LP  0  0  0  0  0  0  0  0  0  0  0  0  # atno 17320 bound_to 7965
  144.8416  139.5463  143.6897 LP  0  0  0  0  0  0  0  0  0  0  0  0  # atno 17321 bound_to 7965
  139.5396  144.2685  152.1323 LP  0  0  0  0  0  0  0  0  0  0  0  0  # atno 17342 bound_to 10162
  140.1894  144.4767  150.6487 LP  0  0  0  0  0  0  0  0  0  0  0  0  # atno 17343 bound_to 10162
  156.7586  130.9142  151.3640 LP  0  0  0  0  0  0  0  0  0  0  0  0  # atno 17370 bound_to 10713
  157.6747  130.9084  150.0123 LP  0  0  0  0  0  0  0  0  0  0  0  0  # atno 17371 bound_to 10713
  140.5295  134.6226  157.5345 LP  0  0  0  0  0  0  0  0  0  0  0  0  # atno 17394 bound_to 11000
  139.9713  134.7288  156.0036 LP  0  0  0  0  0  0  0  0  0  0  0  0  # atno 17395 bound_to 11000

$$$$
