AV-unprocessed.smi:3183|AV-procd|sdf|12153|dock5
  -GOLD-   2272017593D 1   1.00000     0.00000
 Structure written by MMmdl.
 43 44  0  0  0  0  0  0  0  0  2 V2000
  152.5661  144.0460  162.0928 C   0  0  0  0  0  0  0  0  0  0  0  0
  152.4738  143.8579  160.5682 C   0  0  2  0  0  0  0  0  0  0  0  0
  151.2644  144.6424  160.0188 C   0  0  0  0  0  0  0  0  0  0  0  0
  151.1264  144.4990  158.4969 C   0  0  0  0  0  0  0  0  0  0  0  0
  151.0189  143.0213  158.0926 C   0  0  1  0  0  0  0  0  0  0  0  0
  150.9197  142.8975  156.6222 N   0  3  0  0  0  0  0  0  0  0  0  0
  150.5115  141.5626  156.1402 C   0  0  0  0  0  0  0  0  0  0  0  0
  151.7348  140.6676  155.8923 C   0  0  0  0  0  0  0  0  0  0  0  0
  151.4163  139.3482  155.2562 C   0  0  0  0  0  0  0  0  0  0  0  0
  150.2192  138.7156  155.0558 C   0  0  0  0  0  0  0  0  0  0  0  0
  150.5698  137.5015  154.4046 C   0  0  0  0  0  0  0  0  0  0  0  0
  151.8719  137.3870  154.2152 N   0  0  0  0  0  0  0  0  0  0  0  0
  152.3945  138.5169  154.7359 N   0  0  0  0  0  0  0  0  0  0  0  0
  153.8331  138.6994  154.6831 C   0  0  0  0  0  0  0  0  0  0  0  0
  152.2361  142.2397  158.6150 C   0  0  0  0  0  0  0  0  0  0  0  0
  152.3981  142.3662  160.1449 C   0  0  1  0  0  0  0  0  0  0  0  0
  153.6165  141.5482  160.6099 C   0  0  0  0  0  0  0  0  0  0  0  0
  151.7242  143.5766  162.6026 H   0  0  0  0  0  0  0  0  0  0  0  0
  152.5636  145.1042  162.3560 H   0  0  0  0  0  0  0  0  0  0  0  0
  153.4842  143.6233  162.4996 H   0  0  0  0  0  0  0  0  0  0  0  0
  153.3748  144.2901  160.1299 H   0  0  0  0  0  0  0  0  0  0  0  0
  150.3499  144.2923  160.5000 H   0  0  0  0  0  0  0  0  0  0  0  0
  151.3587  145.6985  160.2739 H   0  0  0  0  0  0  0  0  0  0  0  0
  150.2458  145.0452  158.1571 H   0  0  0  0  0  0  0  0  0  0  0  0
  151.9859  144.9604  158.0082 H   0  0  0  0  0  0  0  0  0  0  0  0
  150.1209  142.6049  158.5529 H   0  0  0  0  0  0  0  0  0  0  0  0
  150.2472  143.5750  156.2919 H   0  0  0  0  0  0  0  0  0  0  0  0
  149.8544  141.1027  156.8801 H   0  0  0  0  0  0  0  0  0  0  0  0
  149.9384  141.6774  155.2189 H   0  0  0  0  0  0  0  0  0  0  0  0
  152.4451  141.2021  155.2602 H   0  0  0  0  0  0  0  0  0  0  0  0
  152.2438  140.4894  156.8405 H   0  0  0  0  0  0  0  0  0  0  0  0
  149.2349  139.0640  155.3313 H   0  0  0  0  0  0  0  0  0  0  0  0
  149.9216  136.7065  154.0664 H   0  0  0  0  0  0  0  0  0  0  0  0
  154.1245  139.6443  155.1404 H   0  0  0  0  0  0  0  0  0  0  0  0
  154.1654  138.6963  153.6445 H   0  0  0  0  0  0  0  0  0  0  0  0
  154.3258  137.8861  155.2168 H   0  0  0  0  0  0  0  0  0  0  0  0
  152.1352  141.1881  158.3432 H   0  0  0  0  0  0  0  0  0  0  0  0
  153.1416  142.5983  158.1228 H   0  0  0  0  0  0  0  0  0  0  0  0
  151.5135  141.9268  160.6086 H   0  0  0  0  0  0  0  0  0  0  0  0
  154.5487  141.9789  160.2430 H   0  0  0  0  0  0  0  0  0  0  0  0
  153.5605  140.5221  160.2456 H   0  0  0  0  0  0  0  0  0  0  0  0
  153.6770  141.4929  161.6965 H   0  0  0  0  0  0  0  0  0  0  0  0
  151.8203  143.1210  156.2231 H   0  0  0  0  0  0  0  0  0  0  0  0
  1  2  1  0  0  0  0
  1 18  1  0  0  0  0
  1 19  1  0  0  0  0
  1 20  1  0  0  0  0
  2 16  1  0  0  0  0
  2  3  1  0  0  0  0
  2 21  1  0  0  0  0
  3  4  1  0  0  0  0
  3 22  1  0  0  0  0
  3 23  1  0  0  0  0
  4  5  1  0  0  0  0
  4 24  1  0  0  0  0
  4 25  1  0  0  0  0
  5  6  1  0  0  0  0
  5 15  1  0  0  0  0
  5 26  1  0  0  0  0
  6  7  1  0  0  0  0
  6 27  1  0  0  0  0
  6 43  1  0  0  0  0
  7  8  1  0  0  0  0
  7 28  1  0  0  0  0
  7 29  1  0  0  0  0
  8  9  1  0  0  0  0
  8 30  1  0  0  0  0
  8 31  1  0  0  0  0
  9 13  1  0  0  0  0
  9 10  2  0  0  0  0
 10 11  1  0  0  0  0
 10 32  1  0  0  0  0
 11 12  2  0  0  0  0
 11 33  1  0  0  0  0
 12 13  1  0  0  0  0
 13 14  1  0  0  0  0
 14 34  1  0  0  0  0
 14 35  1  0  0  0  0
 14 36  1  0  0  0  0
 15 16  1  0  0  0  0
 15 37  1  0  0  0  0
 15 38  1  0  0  0  0
 16 17  1  0  0  0  0
 16 39  1  0  0  0  0
 17 40  1  0  0  0  0
 17 41  1  0  0  0  0
 17 42  1  0  0  0  0
M  CHG  1   6   1
M  END
> <s_m_source_file>
AV-unprocessed.smi

> <i_m_source_file_index>
3183

> <i_lp_mmshare_version>
43012

> <i_f3d_flags>
0

> <s_epik_input>
W0NIM11bQ0BASF0xW0NIMl1bQ0gyXVtDQEhdKFtDSDJdW0NASF0xW0NIM10pW05IXVtDSDJdW0NIMl1jMltjSF1bY0hdbm4yW0NIM10=

> <s_epik_cmdline>
J2VwaWtfcHl0aG9uJywgJy1waCcsICc3LjAnLCAnLXRuJywgJzgnLCAnLW1hJywgJzIwMCcsICctbWV0YWxfYmluZGluZycsICctaW1hZScsICc8aW5maWxlLm1hZT4nLCAnLW9tYWUnLCAnPG91dGZpbGUubWFlPic=

> <r_lp_tautomer_probability>
1

> <r_epik_Ionization_Penalty>
0.000327718

> <r_epik_Ionization_Penalty_Charging>
0.000294043

> <r_epik_Ionization_Penalty_Neutral>
3.36755e-05

> <r_epik_State_Penalty>
-0

> <r_epik_Charging_Adjusted_Penalty>
0.000294043

> <i_epik_Tot_Q>
1

> <i_epik_Tot_abs_Q>
1

> <r_epik_Metal_State_Penalty>
-0

> <b_epik_Metal_Only>
0

> <s_lp_Force_Field>
OPLS_2005

> <r_lp_Energy>
14.1595

> <b_lp_Chiralities_Consistent>
1

> <s_lp_Variant>
AV-unprocessed.smi:3183-1

> <Gold.Version>
5.8.1

> <Gold.Id.Protein>
6NUR|6NUR_protein|mol2

> <Gold.PLP.Fitness>
55.2701

> <Gold.PLP.PLP>
-44.0974

> <Gold.PLP.part.hbond>
-2.0000

> <Gold.PLP.part.metal>
0.0000

> <Gold.PLP.part.buried>
-2.7536

> <Gold.PLP.part.nonpolar>
-39.9000

> <Gold.PLP.part.repulsive>
0.2376

> <Gold.PLP.ligand.clash>
0.0000

> <Gold.PLP.ligand.torsion>
0.4054

> <Gold.PLP.Chemscore.Hbond>
2.9920

> <Gold.PLP.Chemscore.CHOScore>
1.0000

> <Gold.PLP.Chemscore.Metal>
0.0000

> <Gold.Chemscore.Hbonds>
donor molecule, donor type, donor heavy atom, donor atom, acceptor molecule, acceptor atom, score
      L1  H     6    27       P1  8028  2.00
      P1  H 10752 10764       L1    12  0.99
      L1  C    11    33       P1  7948  1.00

> <Gold.PLP.Chemscore.Internal.Correction>
0.0075

> <Gold.Rescore>
     Score         DG    S(hbond)    S(metal)    S(lipo)     H(rot)  DE(clash)    DE(int)     intcor
     21.24     -23.82       1.90        0.00     132.61       1.38       2.25       0.33       ----

> <Gold.Chemscore.Fitness>
21.2384

> <Gold.Chemscore.DG>
-23.8174

> <Gold.Chemscore.ZeroCoef>
-5.4800

> <Gold.Chemscore.Hbond>
1.9004

> <Gold.Chemscore.Metal>
0.0000

> <Gold.Chemscore.Lipo>
132.6061

> <Gold.Chemscore.Internal_Hbond>
0.0000

> <Gold.Chemscore.DEClash>
2.2481

> <Gold.Chemscore.DEInternal>
0.3308

> <Gold.Chemscore.Rot>
1.3768

> <Gold.Chemscore.Internal.Correction>
   9.000000E+99

> <Gold.Chemscore.Hbonds>
donor molecule, donor type, donor heavy atom, donor atom, acceptor molecule, acceptor atom, score
      L1  H     6    27       P1  8028  1.00
      P1  H 10752 10764       L1    12  0.87

> <Gold.Chemscore.Hbond.Weighted>
-6.3472

> <Gold.Chemscore.Metal.Weighted>
-0.0000

> <Gold.Chemscore.Lipo.Weighted>
-15.5149

> <Gold.Chemscore.Internal_Hbond.Weighted>
0.0000

> <Gold.Chemscore.DEClash.Weighted>
2.2481

> <Gold.Chemscore.DEInternal.Weighted>
0.3308

> <Gold.Chemscore.Rot.Weighted>
3.5247

> <Gold.Chemscore.Internal.Correction.Weighted>
   9.000000E+99

> <Gold.Protein.RotatedTorsions>
[ 6907 6896 6895 6894 ] final  -77.39 input  -60.11 | X-H torsion
[ 7974 7965 7964 7962 ] final -178.30 input  175.53 | X-H torsion
[ 8008 7997 7996 7995 ] final  178.23 input   59.86 | X-H torsion
[ 10167 10162 10161 10158 ] final   42.95 input  -65.29 | X-H torsion
[ 10718 10713 10712 10709 ] final   -6.87 input   66.30 | X-H torsion
[ 10763 10752 10751 10750 ] final  -81.91 input  -60.55 | X-H torsion
[ 11005 11000 10999 10996 ] final   96.02 input  -57.11 | X-H torsion

> <Gold.Protein.ActiveResidues>
 VAL166  LYS551  ARG553  GLY616  TRP617  ASP618  TYR619  PRO620  LYS621  CYS622 
 ASP623  PHE694  ASN695  SER759  ASP760  ASP761  ALA762  ILE779  LEU786  VAL792 
 PHE793  MET794  SER795  GLU796  ALA797  LYS798  CYS799  TRP800  GLU811  SER814 

> <Gold.Protein.RotatedAtoms>
  150.7000  134.4429  159.5300 H   0  0  0  0  0  0  0  0  0  0  0  0  # atno 6907 bound_to 6896
  152.2135  134.8476  160.0503 H   0  0  0  0  0  0  0  0  0  0  0  0  # atno 6908 bound_to 6896
  151.9353  133.3587  159.3982 H   0  0  0  0  0  0  0  0  0  0  0  0  # atno 6909 bound_to 6896
  144.7130  140.0890  143.6422 H   0  0  0  0  0  0  0  0  0  0  0  0  # atno 7974 bound_to 7965
  156.0570  140.1339  156.9985 H   0  0  0  0  0  0  0  0  0  0  0  0  # atno 8008 bound_to 7997
  154.4462  140.0999  156.6531 H   0  0  0  0  0  0  0  0  0  0  0  0  # atno 8009 bound_to 7997
  155.5436  140.3461  155.4454 H   0  0  0  0  0  0  0  0  0  0  0  0  # atno 8010 bound_to 7997
  140.3492  144.2372  150.6147 H   0  0  0  0  0  0  0  0  0  0  0  0  # atno 10167 bound_to 10162
  156.7256  130.5164  149.5857 H   0  0  0  0  0  0  0  0  0  0  0  0  # atno 10718 bound_to 10713
  154.5693  135.5610  153.7080 H   0  0  0  0  0  0  0  0  0  0  0  0  # atno 10763 bound_to 10752
  153.0043  135.6293  154.2136 H   0  0  0  0  0  0  0  0  0  0  0  0  # atno 10764 bound_to 10752
  154.2075  135.2875  155.2949 H   0  0  0  0  0  0  0  0  0  0  0  0  # atno 10765 bound_to 10752
  139.8784  134.8929  156.4098 H   0  0  0  0  0  0  0  0  0  0  0  0  # atno 11005 bound_to 11000
  145.9637  139.2819  143.1140 LP  0  0  0  0  0  0  0  0  0  0  0  0  # atno 17320 bound_to 7965
  145.9193  140.9126  143.0413 LP  0  0  0  0  0  0  0  0  0  0  0  0  # atno 17321 bound_to 7965
  140.5235  143.2260  151.8351 LP  0  0  0  0  0  0  0  0  0  0  0  0  # atno 17342 bound_to 10162
  139.4829  144.4808  151.9309 LP  0  0  0  0  0  0  0  0  0  0  0  0  # atno 17343 bound_to 10162
  156.1564  130.6345  151.0663 LP  0  0  0  0  0  0  0  0  0  0  0  0  # atno 17370 bound_to 10713
  157.6880  131.0819  150.7188 LP  0  0  0  0  0  0  0  0  0  0  0  0  # atno 17371 bound_to 10713
  140.9209  133.7646  155.9905 LP  0  0  0  0  0  0  0  0  0  0  0  0  # atno 17394 bound_to 11000
  140.8441  134.3032  157.5302 LP  0  0  0  0  0  0  0  0  0  0  0  0  # atno 17395 bound_to 11000

$$$$
