AV-unprocessed.smi:3244|AV-procd|sdf|12401|dock5
  -GOLD-   2272018273D 1   1.00000     0.00000
 Structure written by MMmdl.
 40 41  0  0  0  0  0  0  0  0  1 V2000
  152.3720  144.5157  158.5178 C   0  0  0  0  0  0  0  0  0  0  0  0
  151.6952  143.2129  158.9741 C   0  0  0  0  0  0  0  0  0  0  0  0
  152.6619  142.1172  159.1626 N   0  0  0  0  0  0  0  0  0  0  0  0
  152.5273  140.9587  158.4657 C   0  0  0  0  0  0  0  0  0  0  0  0
  153.2203  139.9674  158.6994 O   0  0  0  0  0  0  0  0  0  0  0  0
  151.4835  140.8431  157.3424 C   0  0  0  0  0  0  0  0  0  0  0  0
  151.7856  139.7636  156.3877 N   0  0  0  0  0  0  0  0  0  0  0  0
  150.8768  139.7054  155.2462 C   0  0  1  0  0  0  0  0  0  0  0  0
  151.2645  138.4778  154.4047 C   0  0  0  0  0  0  0  0  0  0  0  0
  149.3922  139.6931  155.6938 C   0  0  0  0  0  0  0  0  0  0  0  0
  148.5066  140.4550  154.8273 N   0  0  0  0  0  0  0  0  0  0  0  0
  148.5104  141.8117  154.5770 C   0  0  0  0  0  0  0  0  0  0  0  0
  147.4937  142.0675  153.7021 C   0  0  0  0  0  0  0  0  0  0  0  0
  146.9137  140.7884  153.4749 C   0  0  0  0  0  0  0  0  0  0  0  0
  147.5194  139.8279  154.1526 N   0  0  0  0  0  0  0  0  0  0  0  0
  153.5795  142.2973  160.2583 C   0  0  0  0  0  0  0  0  0  0  0  0
  153.6537  141.2717  161.3761 C   0  0  0  0  0  0  0  0  0  0  0  0
  153.0544  142.6244  161.6440 C   0  0  0  0  0  0  0  0  0  0  0  0
  151.6284  145.2892  158.3256 H   0  0  0  0  0  0  0  0  0  0  0  0
  152.9371  144.3634  157.5978 H   0  0  0  0  0  0  0  0  0  0  0  0
  153.0559  144.9025  159.2730 H   0  0  0  0  0  0  0  0  0  0  0  0
  151.1436  143.3861  159.8996 H   0  0  0  0  0  0  0  0  0  0  0  0
  150.9377  142.9493  158.2373 H   0  0  0  0  0  0  0  0  0  0  0  0
  150.5000  140.7002  157.7936 H   0  0  0  0  0  0  0  0  0  0  0  0
  151.4069  141.7853  156.8031 H   0  0  0  0  0  0  0  0  0  0  0  0
  152.7391  139.8233  156.0608 H   0  0  0  0  0  0  0  0  0  0  0  0
  151.0481  140.5870  154.6265 H   0  0  0  0  0  0  0  0  0  0  0  0
  150.6068  138.3739  153.5414 H   0  0  0  0  0  0  0  0  0  0  0  0
  151.2060  137.5533  154.9805 H   0  0  0  0  0  0  0  0  0  0  0  0
  152.2847  138.5655  154.0292 H   0  0  0  0  0  0  0  0  0  0  0  0
  149.0071  138.6768  155.7823 H   0  0  0  0  0  0  0  0  0  0  0  0
  149.3202  140.1220  156.6940 H   0  0  0  0  0  0  0  0  0  0  0  0
  149.2304  142.4738  155.0351 H   0  0  0  0  0  0  0  0  0  0  0  0
  147.2072  143.0230  153.2884 H   0  0  0  0  0  0  0  0  0  0  0  0
  146.0756  140.5307  152.8445 H   0  0  0  0  0  0  0  0  0  0  0  0
  154.5296  142.7554  159.9889 H   0  0  0  0  0  0  0  0  0  0  0  0
  152.9633  140.4308  161.3692 H   0  0  0  0  0  0  0  0  0  0  0  0
  154.6341  141.0638  161.7999 H   0  0  0  0  0  0  0  0  0  0  0  0
  153.6322  143.3231  162.2454 H   0  0  0  0  0  0  0  0  0  0  0  0
  151.9774  142.6583  161.7969 H   0  0  0  0  0  0  0  0  0  0  0  0
  1  2  1  0  0  0  0
  1 19  1  0  0  0  0
  1 20  1  0  0  0  0
  1 21  1  0  0  0  0
  2  3  1  0  0  0  0
  2 22  1  0  0  0  0
  2 23  1  0  0  0  0
  3  4  1  0  0  0  0
  3 16  1  0  0  0  0
  4  5  2  0  0  0  0
  4  6  1  0  0  0  0
  6  7  1  0  0  0  0
  6 24  1  0  0  0  0
  6 25  1  0  0  0  0
  7  8  1  0  0  0  0
  7 26  1  0  0  0  0
  8  9  1  0  0  0  0
  8 10  1  0  0  0  0
  8 27  1  0  0  0  0
  9 28  1  0  0  0  0
  9 29  1  0  0  0  0
  9 30  1  0  0  0  0
 10 11  1  0  0  0  0
 10 31  1  0  0  0  0
 10 32  1  0  0  0  0
 11 15  1  0  0  0  0
 11 12  1  0  0  0  0
 12 13  2  0  0  0  0
 12 33  1  0  0  0  0
 13 14  1  0  0  0  0
 13 34  1  0  0  0  0
 14 15  2  0  0  0  0
 14 35  1  0  0  0  0
 16 18  1  0  0  0  0
 16 17  1  0  0  0  0
 16 36  1  0  0  0  0
 17 18  1  0  0  0  0
 17 37  1  0  0  0  0
 17 38  1  0  0  0  0
 18 39  1  0  0  0  0
 18 40  1  0  0  0  0
M  END
> <s_m_source_file>
AV-unprocessed.smi

> <i_m_source_file_index>
3244

> <i_lp_mmshare_version>
43012

> <i_f3d_flags>
0

> <s_epik_input>
W0NIMl0xW0NIMl1bQ0hdMU4oW0NIMl1bQ0gzXSlDKD1PKVtDSDJdW05IXVtDQEhdKFtDSDNdKVtDSDJdbjJbY0hdW2NIXVtjSF1uMg==

> <s_epik_cmdline>
J2VwaWtfcHl0aG9uJywgJy1waCcsICc3LjAnLCAnLXRuJywgJzgnLCAnLW1hJywgJzIwMCcsICctbWV0YWxfYmluZGluZycsICctaW1hZScsICc8aW5maWxlLm1hZT4nLCAnLW9tYWUnLCAnPG91dGZpbGUubWFlPic=

> <r_lp_tautomer_probability>
1

> <r_epik_Ionization_Penalty>
1.02506

> <r_epik_Ionization_Penalty_Charging>
0

> <r_epik_Ionization_Penalty_Neutral>
1.02506

> <r_epik_State_Penalty>
1.07563

> <r_epik_Charging_Adjusted_Penalty>
1.07563

> <i_epik_Tot_Q>
0

> <i_epik_Tot_abs_Q>
0

> <r_epik_Metal_State_Penalty>
1.07558

> <b_epik_Metal_Only>
0

> <s_lp_Force_Field>
OPLS_2005

> <r_lp_Energy>
38.4793

> <b_lp_Chiralities_Consistent>
1

> <s_lp_Variant>
AV-unprocessed.smi:3244-4

> <Gold.Version>
5.8.1

> <Gold.Id.Protein>
6NUR|6NUR_protein|mol2

> <Gold.PLP.Fitness>
49.7523

> <Gold.PLP.PLP>
-42.3432

> <Gold.PLP.part.hbond>
-1.0000

> <Gold.PLP.part.metal>
0.0000

> <Gold.PLP.part.buried>
-5.1407

> <Gold.PLP.part.nonpolar>
-36.5410

> <Gold.PLP.part.repulsive>
0.1364

> <Gold.PLP.ligand.clash>
0.0000

> <Gold.PLP.ligand.torsion>
0.9926

> <Gold.PLP.Chemscore.Hbond>
1.0000

> <Gold.PLP.Chemscore.CHOScore>
1.9902

> <Gold.PLP.Chemscore.Metal>
0.0000

> <Gold.Chemscore.Hbonds>
donor molecule, donor type, donor heavy atom, donor atom, acceptor molecule, acceptor atom, score
      P1  H  7997  8009       L1     5  0.70
      L1  C    12    33       P1  8028  0.92
      L1  C    14    35       P1 10175  1.00

> <Gold.PLP.Chemscore.Internal.Correction>
0.4238

> <Gold.Rescore>
     Score         DG    S(hbond)    S(metal)    S(lipo)     H(rot)  DE(clash)    DE(int)     intcor
     14.07     -15.31       0.71        0.00     106.43       1.95       0.15       1.10       ----

> <Gold.Chemscore.Fitness>
14.0693

> <Gold.Chemscore.DG>
-15.3133

> <Gold.Chemscore.ZeroCoef>
-5.4800

> <Gold.Chemscore.Hbond>
0.7144

> <Gold.Chemscore.Metal>
0.0000

> <Gold.Chemscore.Lipo>
106.4282

> <Gold.Chemscore.Internal_Hbond>
0.0000

> <Gold.Chemscore.DEClash>
0.1489

> <Gold.Chemscore.DEInternal>
1.0951

> <Gold.Chemscore.Rot>
1.9550

> <Gold.Chemscore.Internal.Correction>
   9.000000E+99

> <Gold.Chemscore.Hbonds>
donor molecule, donor type, donor heavy atom, donor atom, acceptor molecule, acceptor atom, score
      P1  H  7997  8009       L1     5  0.24

> <Gold.Chemscore.Hbond.Weighted>
-2.3859

> <Gold.Chemscore.Metal.Weighted>
-0.0000

> <Gold.Chemscore.Lipo.Weighted>
-12.4521

> <Gold.Chemscore.Internal_Hbond.Weighted>
0.0000

> <Gold.Chemscore.DEClash.Weighted>
0.1489

> <Gold.Chemscore.DEInternal.Weighted>
1.0951

> <Gold.Chemscore.Rot.Weighted>
5.0047

> <Gold.Chemscore.Internal.Correction.Weighted>
   9.000000E+99

> <Gold.Protein.RotatedTorsions>
[ 6907 6896 6895 6894 ] final   48.08 input  -60.11 | X-H torsion
[ 7974 7965 7964 7962 ] final   37.53 input  175.53 | X-H torsion
[ 8008 7997 7996 7995 ] final  148.59 input   59.86 | X-H torsion
[ 10167 10162 10161 10158 ] final   85.61 input  -65.29 | X-H torsion
[ 10718 10713 10712 10709 ] final  -75.82 input   66.30 | X-H torsion
[ 10763 10752 10751 10750 ] final  120.36 input  -60.55 | X-H torsion
[ 11005 11000 10999 10996 ] final   94.84 input  -57.11 | X-H torsion

> <Gold.Protein.ActiveResidues>
 VAL166  LYS551  ARG553  GLY616  TRP617  ASP618  TYR619  PRO620  LYS621  CYS622 
 ASP623  PHE694  ASN695  SER759  ASP760  ASP761  ALA762  ILE779  LEU786  VAL792 
 PHE793  MET794  SER795  GLU796  ALA797  LYS798  CYS799  TRP800  GLU811  SER814 

> <Gold.Protein.RotatedAtoms>
  152.2754  134.7887  160.0406 H   0  0  0  0  0  0  0  0  0  0  0  0  # atno 6907 bound_to 6896
  151.8485  133.3430  159.3673 H   0  0  0  0  0  0  0  0  0  0  0  0  # atno 6908 bound_to 6896
  150.7168  134.5250  159.5717 H   0  0  0  0  0  0  0  0  0  0  0  0  # atno 6909 bound_to 6896
  146.1130  139.5882  142.9339 H   0  0  0  0  0  0  0  0  0  0  0  0  # atno 7974 bound_to 7965
  156.2786  140.2124  156.5722 H   0  0  0  0  0  0  0  0  0  0  0  0  # atno 8008 bound_to 7997
  154.7126  140.0510  157.0587 H   0  0  0  0  0  0  0  0  0  0  0  0  # atno 8009 bound_to 7997
  155.0585  140.3164  155.4671 H   0  0  0  0  0  0  0  0  0  0  0  0  # atno 8010 bound_to 7997
  139.8959  144.6358  150.8688 H   0  0  0  0  0  0  0  0  0  0  0  0  # atno 10167 bound_to 10162
  156.0195  130.4450  150.3100 H   0  0  0  0  0  0  0  0  0  0  0  0  # atno 10718 bound_to 10713
  153.5973  135.3454  155.2932 H   0  0  0  0  0  0  0  0  0  0  0  0  # atno 10763 bound_to 10752
  154.8642  135.4219  154.2451 H   0  0  0  0  0  0  0  0  0  0  0  0  # atno 10764 bound_to 10752
  153.3272  135.7042  153.7050 H   0  0  0  0  0  0  0  0  0  0  0  0  # atno 10765 bound_to 10752
  139.8794  134.8867  156.3923 H   0  0  0  0  0  0  0  0  0  0  0  0  # atno 11005 bound_to 11000
  145.5624  141.0403  143.2219 LP  0  0  0  0  0  0  0  0  0  0  0  0  # atno 17320 bound_to 7965
  144.7528  139.7150  143.7266 LP  0  0  0  0  0  0  0  0  0  0  0  0  # atno 17321 bound_to 7965
  140.7717  143.3473  151.2084 LP  0  0  0  0  0  0  0  0  0  0  0  0  # atno 17342 bound_to 10162
  139.7068  143.9442  152.2930 LP  0  0  0  0  0  0  0  0  0  0  0  0  # atno 17343 bound_to 10162
  157.1202  131.0244  151.3012 LP  0  0  0  0  0  0  0  0  0  0  0  0  # atno 17370 bound_to 10713
  157.4634  130.7666  149.7257 LP  0  0  0  0  0  0  0  0  0  0  0  0  # atno 17371 bound_to 10713
  140.9324  133.7570  156.0041 LP  0  0  0  0  0  0  0  0  0  0  0  0  # atno 17394 bound_to 11000
  140.8315  134.3173  157.5347 LP  0  0  0  0  0  0  0  0  0  0  0  0  # atno 17395 bound_to 11000

$$$$
