AV-unprocessed.smi:2710|AV-procd|sdf|10468|dock8
  -GOLD-   2272014503D 1   1.00000     0.00000
 Structure written by MMmdl.
 53 54  0  0  0  0  0  0  0  0  2 V2000
  147.2566  128.3935  151.8223 C   0  0  0  0  0  0  0  0  0  0  0  0
  146.3080  129.3207  151.0478 C   0  0  0  0  0  0  0  0  0  0  0  0
  146.5622  130.7649  151.2996 N   0  3  2  0  0  0  0  0  0  0  0  0
  146.5872  131.0833  152.7525 C   0  0  0  0  0  0  0  0  0  0  0  0
  147.0641  132.5228  153.0051 C   0  0  0  0  0  0  0  0  0  0  0  0
  146.1975  133.5367  152.2452 C   0  0  1  0  0  0  0  0  0  0  0  0
  146.7173  134.8865  152.4459 N   0  0  0  0  0  0  0  0  0  0  0  0
  146.0775  135.8682  153.0984 C   0  0  0  0  0  0  0  0  0  0  0  0
  144.9635  135.7300  153.6018 O   0  0  0  0  0  0  0  0  0  0  0  0
  146.8154  136.9911  153.1289 N   0  0  0  0  0  0  0  0  0  0  0  0
  146.5047  138.2477  153.7168 C   0  0  0  0  0  0  0  0  0  0  0  0
  147.4119  139.3138  153.5544 C   0  0  0  0  0  0  0  0  0  0  0  0
  147.1812  140.5371  154.0747 N   0  0  0  0  0  0  0  0  0  0  0  0
  146.0600  140.7081  154.7873 C   0  0  0  0  0  0  0  0  0  0  0  0
  145.7358  142.1377  155.2554 C   0  0  0  0  0  0  0  0  0  0  0  0
  144.3009  142.2241  155.8264 C   0  0  0  0  0  0  0  0  0  0  0  0
  145.8797  143.1118  154.0715 C   0  0  0  0  0  0  0  0  0  0  0  0
  146.6780  142.5753  156.4015 C   0  0  0  0  0  0  0  0  0  0  0  0
  145.1101  139.7795  154.9588 N   0  0  0  0  0  0  0  0  0  0  0  0
  145.3283  138.5505  154.4444 C   0  0  0  0  0  0  0  0  0  0  0  0
  146.1789  133.1702  150.7490 C   0  0  0  0  0  0  0  0  0  0  0  0
  145.7208  131.7163  150.5076 C   0  0  2  0  0  0  0  0  0  0  0  0
  144.2034  131.5398  150.7330 C   0  0  0  0  0  0  0  0  0  0  0  0
  146.9498  127.3532  151.7093 H   0  0  0  0  0  0  0  0  0  0  0  0
  147.2527  128.6241  152.8881 H   0  0  0  0  0  0  0  0  0  0  0  0
  148.2826  128.4640  151.4617 H   0  0  0  0  0  0  0  0  0  0  0  0
  146.3416  129.1016  149.9806 H   0  0  0  0  0  0  0  0  0  0  0  0
  145.2907  129.0905  151.3669 H   0  0  0  0  0  0  0  0  0  0  0  0
  145.5996  130.9273  153.1877 H   0  0  0  0  0  0  0  0  0  0  0  0
  147.2618  130.3964  153.2651 H   0  0  0  0  0  0  0  0  0  0  0  0
  147.0391  132.7363  154.0744 H   0  0  0  0  0  0  0  0  0  0  0  0
  148.1058  132.6181  152.6952 H   0  0  0  0  0  0  0  0  0  0  0  0
  145.1832  133.4896  152.6457 H   0  0  0  0  0  0  0  0  0  0  0  0
  147.6331  135.0849  152.0699 H   0  0  0  0  0  0  0  0  0  0  0  0
  147.7297  136.9305  152.7052 H   0  0  0  0  0  0  0  0  0  0  0  0
  148.3292  139.1884  152.9977 H   0  0  0  0  0  0  0  0  0  0  0  0
  144.0836  143.2239  156.2041 H   0  0  0  0  0  0  0  0  0  0  0  0
  144.1587  141.5246  156.6512 H   0  0  0  0  0  0  0  0  0  0  0  0
  143.5457  142.0029  155.0712 H   0  0  0  0  0  0  0  0  0  0  0  0
  145.1993  142.8520  153.2598 H   0  0  0  0  0  0  0  0  0  0  0  0
  146.8930  143.0977  153.6681 H   0  0  0  0  0  0  0  0  0  0  0  0
  145.6594  144.1370  154.3708 H   0  0  0  0  0  0  0  0  0  0  0  0
  146.4208  143.5692  156.7693 H   0  0  0  0  0  0  0  0  0  0  0  0
  147.7193  142.6193  156.0805 H   0  0  0  0  0  0  0  0  0  0  0  0
  146.6204  141.8886  157.2467 H   0  0  0  0  0  0  0  0  0  0  0  0
  144.5386  137.8355  154.6117 H   0  0  0  0  0  0  0  0  0  0  0  0
  145.5366  133.8580  150.1972 H   0  0  0  0  0  0  0  0  0  0  0  0
  147.1806  133.2991  150.3353 H   0  0  0  0  0  0  0  0  0  0  0  0
  145.9071  131.5207  149.4521 H   0  0  0  0  0  0  0  0  0  0  0  0
  143.6418  132.2726  150.1531 H   0  0  0  0  0  0  0  0  0  0  0  0
  143.9193  131.6692  151.7767 H   0  0  0  0  0  0  0  0  0  0  0  0
  143.8573  130.5576  150.4124 H   0  0  0  0  0  0  0  0  0  0  0  0
  147.5082  130.9224  150.9828 H   0  0  0  0  0  0  0  0  0  0  0  0
  1  2  1  0  0  0  0
  1 24  1  0  0  0  0
  1 25  1  0  0  0  0
  1 26  1  0  0  0  0
  2  3  1  0  0  0  0
  2 27  1  0  0  0  0
  2 28  1  0  0  0  0
  3 22  1  0  0  0  0
  3  4  1  0  0  0  0
  3 53  1  0  0  0  0
  4  5  1  0  0  0  0
  4 29  1  0  0  0  0
  4 30  1  0  0  0  0
  5  6  1  0  0  0  0
  5 31  1  0  0  0  0
  5 32  1  0  0  0  0
  6  7  1  0  0  0  0
  6 21  1  0  0  0  0
  6 33  1  0  0  0  0
  7  8  1  0  0  0  0
  7 34  1  0  0  0  0
  8  9  2  0  0  0  0
  8 10  1  0  0  0  0
 10 11  1  0  0  0  0
 10 35  1  0  0  0  0
 11 20  1  0  0  0  0
 11 12  2  0  0  0  0
 12 13  1  0  0  0  0
 12 36  1  0  0  0  0
 13 14  2  0  0  0  0
 14 15  1  0  0  0  0
 14 19  1  0  0  0  0
 15 16  1  0  0  0  0
 15 17  1  0  0  0  0
 15 18  1  0  0  0  0
 16 37  1  0  0  0  0
 16 38  1  0  0  0  0
 16 39  1  0  0  0  0
 17 40  1  0  0  0  0
 17 41  1  0  0  0  0
 17 42  1  0  0  0  0
 18 43  1  0  0  0  0
 18 44  1  0  0  0  0
 18 45  1  0  0  0  0
 19 20  2  0  0  0  0
 20 46  1  0  0  0  0
 21 22  1  0  0  0  0
 21 47  1  0  0  0  0
 21 48  1  0  0  0  0
 22 23  1  0  0  0  0
 22 49  1  0  0  0  0
 23 50  1  0  0  0  0
 23 51  1  0  0  0  0
 23 52  1  0  0  0  0
M  CHG  1   3   1
M  END
> <s_m_source_file>
AV-unprocessed.smi

> <i_m_source_file_index>
2710

> <i_lp_mmshare_version>
43012

> <i_f3d_flags>
0

> <s_epik_input>
W0NIM11bQ0gyXU4xW0NIMl1bQ0gyXVtDQEhdKFtDSDJdW0NASF0xW0NIM10pW05IXUMoPU8pW05IXWMyW2NIXW5jKEMoW0NIM10pKFtDSDNdKVtDSDNdKW5bY0hdMg==

> <s_epik_cmdline>
J2VwaWtfcHl0aG9uJywgJy1waCcsICc3LjAnLCAnLXRuJywgJzgnLCAnLW1hJywgJzIwMCcsICctbWV0YWxfYmluZGluZycsICctaW1hZScsICc8aW5maWxlLm1hZT4nLCAnLW9tYWUnLCAnPG91dGZpbGUubWFlPic=

> <r_lp_tautomer_probability>
1

> <r_epik_Ionization_Penalty>
0.00396003

> <r_epik_Ionization_Penalty_Charging>
0.0039379

> <r_epik_Ionization_Penalty_Neutral>
2.21316e-05

> <r_epik_State_Penalty>
0.00281651

> <r_epik_Charging_Adjusted_Penalty>
0.00675441

> <i_epik_Tot_Q>
1

> <i_epik_Tot_abs_Q>
1

> <r_epik_Metal_State_Penalty>
-0

> <b_epik_Metal_Only>
0

> <s_lp_Force_Field>
OPLS_2005

> <r_lp_Energy>
21.0502

> <b_lp_Chiralities_Consistent>
1

> <s_lp_Variant>
AV-unprocessed.smi:2710-5

> <Gold.Version>
5.8.1

> <Gold.Id.Protein>
6NUR|6NUR_protein|mol2

> <Gold.PLP.Fitness>
43.9346

> <Gold.PLP.PLP>
-32.2606

> <Gold.PLP.part.hbond>
-3.0000

> <Gold.PLP.part.metal>
0.0000

> <Gold.PLP.part.buried>
-4.0134

> <Gold.PLP.part.nonpolar>
-25.9312

> <Gold.PLP.part.repulsive>
0.3478

> <Gold.PLP.ligand.clash>
0.0000

> <Gold.PLP.ligand.torsion>
0.2505

> <Gold.PLP.Chemscore.Hbond>
3.0000

> <Gold.PLP.Chemscore.CHOScore>
1.0000

> <Gold.PLP.Chemscore.Metal>
0.0000

> <Gold.Chemscore.Hbonds>
donor molecule, donor type, donor heavy atom, donor atom, acceptor molecule, acceptor atom, score
      L1  H     3    53       P1 10747  1.00
      L1  H     7    34       P1  7948  1.00
      L1  H    10    35       P1  7948  1.00
      L1  C    12    36       P1  7957  1.00

> <Gold.PLP.Chemscore.Internal.Correction>
0.1749

> <Gold.Rescore>
     Score         DG    S(hbond)    S(metal)    S(lipo)     H(rot)  DE(clash)    DE(int)     intcor
     19.96     -22.26       2.93        0.00      88.31       1.31       0.86       1.43       ----

> <Gold.Chemscore.Fitness>
19.9650

> <Gold.Chemscore.DG>
-22.2558

> <Gold.Chemscore.ZeroCoef>
-5.4800

> <Gold.Chemscore.Hbond>
2.9317

> <Gold.Chemscore.Metal>
0.0000

> <Gold.Chemscore.Lipo>
88.3142

> <Gold.Chemscore.Internal_Hbond>
0.0000

> <Gold.Chemscore.DEClash>
0.8604

> <Gold.Chemscore.DEInternal>
1.4304

> <Gold.Chemscore.Rot>
1.3081

> <Gold.Chemscore.Internal.Correction>
   9.000000E+99

> <Gold.Chemscore.Hbonds>
donor molecule, donor type, donor heavy atom, donor atom, acceptor molecule, acceptor atom, score
      L1  H     3    53       P1 10747  0.99
      L1  H     7    34       P1  7948  0.88
      L1  H    10    35       P1  7948  0.98

> <Gold.Chemscore.Hbond.Weighted>
-9.7918

> <Gold.Chemscore.Metal.Weighted>
-0.0000

> <Gold.Chemscore.Lipo.Weighted>
-10.3328

> <Gold.Chemscore.Internal_Hbond.Weighted>
0.0000

> <Gold.Chemscore.DEClash.Weighted>
0.8604

> <Gold.Chemscore.DEInternal.Weighted>
1.4304

> <Gold.Chemscore.Rot.Weighted>
3.3488

> <Gold.Chemscore.Internal.Correction.Weighted>
   9.000000E+99

> <Gold.Protein.RotatedTorsions>
[ 6907 6896 6895 6894 ] final  107.77 input  -60.11 | X-H torsion
[ 7974 7965 7964 7962 ] final  -92.14 input  175.53 | X-H torsion
[ 8008 7997 7996 7995 ] final   36.78 input   59.86 | X-H torsion
[ 10167 10162 10161 10158 ] final -139.79 input  -65.29 | X-H torsion
[ 10718 10713 10712 10709 ] final -116.69 input   66.30 | X-H torsion
[ 10763 10752 10751 10750 ] final  -96.95 input  -60.55 | X-H torsion
[ 11005 11000 10999 10996 ] final  -53.17 input  -57.11 | X-H torsion

> <Gold.Protein.ActiveResidues>
 VAL166  LYS551  ARG553  GLY616  TRP617  ASP618  TYR619  PRO620  LYS621  CYS622 
 ASP623  PHE694  ASN695  SER759  ASP760  ASP761  ALA762  ILE779  LEU786  VAL792 
 PHE793  MET794  SER795  GLU796  ALA797  LYS798  CYS799  TRP800  GLU811  SER814 

> <Gold.Protein.RotatedAtoms>
  152.5141  133.9187  159.7523 H   0  0  0  0  0  0  0  0  0  0  0  0  # atno 6907 bound_to 6896
  150.9563  133.6485  159.2769 H   0  0  0  0  0  0  0  0  0  0  0  0  # atno 6908 bound_to 6896
  151.3746  135.0934  159.9529 H   0  0  0  0  0  0  0  0  0  0  0  0  # atno 6909 bound_to 6896
  145.4037  140.9539  143.2273 H   0  0  0  0  0  0  0  0  0  0  0  0  # atno 7974 bound_to 7965
  155.1931  140.3309  155.4355 H   0  0  0  0  0  0  0  0  0  0  0  0  # atno 8008 bound_to 7997
  156.2435  140.1907  156.6972 H   0  0  0  0  0  0  0  0  0  0  0  0  # atno 8009 bound_to 7997
  154.6192  140.0598  156.9580 H   0  0  0  0  0  0  0  0  0  0  0  0  # atno 8010 bound_to 7997
  139.8345  143.7403  152.2665 H   0  0  0  0  0  0  0  0  0  0  0  0  # atno 10167 bound_to 10162
  156.0981  130.6149  150.9067 H   0  0  0  0  0  0  0  0  0  0  0  0  # atno 10718 bound_to 10713
  154.7285  135.5064  153.8925 H   0  0  0  0  0  0  0  0  0  0  0  0  # atno 10763 bound_to 10752
  153.0927  135.6664  153.9831 H   0  0  0  0  0  0  0  0  0  0  0  0  # atno 10764 bound_to 10752
  153.9637  135.3045  155.3411 H   0  0  0  0  0  0  0  0  0  0  0  0  # atno 10765 bound_to 10752
  141.0962  133.6624  156.4132 H   0  0  0  0  0  0  0  0  0  0  0  0  # atno 11005 bound_to 11000
  144.8356  139.5556  143.6924 LP  0  0  0  0  0  0  0  0  0  0  0  0  # atno 17320 bound_to 7965
  146.2739  139.6704  142.9277 LP  0  0  0  0  0  0  0  0  0  0  0  0  # atno 17321 bound_to 7965
  139.7621  144.7503  151.0349 LP  0  0  0  0  0  0  0  0  0  0  0  0  # atno 17342 bound_to 10162
  140.7804  143.4739  151.0108 LP  0  0  0  0  0  0  0  0  0  0  0  0  # atno 17343 bound_to 10162
  157.6146  131.0934  150.8734 LP  0  0  0  0  0  0  0  0  0  0  0  0  # atno 17370 bound_to 10713
  156.8868  130.5198  149.5288 LP  0  0  0  0  0  0  0  0  0  0  0  0  # atno 17371 bound_to 10713
  140.5134  134.6373  157.5292 LP  0  0  0  0  0  0  0  0  0  0  0  0  # atno 17394 bound_to 11000
  139.9799  134.7153  155.9878 LP  0  0  0  0  0  0  0  0  0  0  0  0  # atno 17395 bound_to 11000

$$$$
