AV-unprocessed.smi:1804|AV-procd|sdf|7295|dock10
  -GOLD-   22720 8553D 1   1.00000     0.00000
 Structure written by MMmdl.
 44 45  0  0  0  0  0  0  0  0  2 V2000
  143.1308  135.0117  153.3264 C   0  0  0  0  0  0  0  0  0  0  0  0
  144.5133  134.5188  153.0861 N   0  3  0  0  0  0  0  0  0  0  0  0
  145.3742  134.8577  154.2501 C   0  0  0  0  0  0  0  0  0  0  0  0
  145.0875  134.8343  151.7271 C   0  0  0  0  0  0  0  0  0  0  0  0
  145.2141  136.3855  151.5577 C   0  0  0  0  0  0  0  0  0  0  0  0
  146.4973  136.9316  152.0034 N   0  0  0  0  0  0  0  0  0  0  0  0
  146.6662  138.0606  152.7077 C   0  0  0  0  0  0  0  0  0  0  0  0
  145.7354  138.7832  153.0643 O   0  0  0  0  0  0  0  0  0  0  0  0
  147.9677  138.2883  152.9568 N   0  0  0  0  0  0  0  0  0  0  0  0
  148.5528  139.3819  153.6485 C   0  0  0  0  0  0  0  0  0  0  0  0
  149.7734  139.3433  154.2053 N   0  0  0  0  0  0  0  0  0  0  0  0
  150.1021  140.5447  154.8197 N   0  0  0  0  0  0  0  0  0  0  0  0
  149.1180  141.4406  154.7024 C   0  0  0  0  0  0  0  0  0  0  0  0
  147.6924  140.9037  153.8313 S   0  0  0  0  0  0  0  0  0  0  0  0
  146.5172  134.2266  151.5399 C   0  0  0  0  0  0  0  0  0  0  0  0
  146.7099  132.7222  151.8082 C   0  0  0  0  0  0  0  0  0  0  0  0
  145.8799  131.7902  150.9168 C   0  0  0  0  0  0  0  0  0  0  0  0
  144.4050  131.7567  151.3296 C   0  0  0  0  0  0  0  0  0  0  0  0
  143.5379  132.8774  150.7374 C   0  0  0  0  0  0  0  0  0  0  0  0
  144.1677  134.2823  150.5911 C   0  0  0  0  0  0  0  0  0  0  0  0
  143.1127  136.0895  153.4890 H   0  0  0  0  0  0  0  0  0  0  0  0
  142.7221  134.5434  154.2223 H   0  0  0  0  0  0  0  0  0  0  0  0
  142.4445  134.7844  152.5136 H   0  0  0  0  0  0  0  0  0  0  0  0
  145.5045  135.9347  154.3542 H   0  0  0  0  0  0  0  0  0  0  0  0
  146.3593  134.3985  154.2032 H   0  0  0  0  0  0  0  0  0  0  0  0
  144.9134  134.4969  155.1700 H   0  0  0  0  0  0  0  0  0  0  0  0
  145.0350  136.6853  150.5250 H   0  0  0  0  0  0  0  0  0  0  0  0
  144.4509  136.8955  152.1444 H   0  0  0  0  0  0  0  0  0  0  0  0
  147.3219  136.4039  151.7559 H   0  0  0  0  0  0  0  0  0  0  0  0
  148.6192  137.6021  152.6059 H   0  0  0  0  0  0  0  0  0  0  0  0
  149.2320  142.4246  155.1323 H   0  0  0  0  0  0  0  0  0  0  0  0
  146.8598  134.4121  150.5213 H   0  0  0  0  0  0  0  0  0  0  0  0
  147.2292  134.7708  152.1612 H   0  0  0  0  0  0  0  0  0  0  0  0
  147.7632  132.4918  151.6448 H   0  0  0  0  0  0  0  0  0  0  0  0
  146.5274  132.4867  152.8561 H   0  0  0  0  0  0  0  0  0  0  0  0
  145.9910  132.0447  149.8620 H   0  0  0  0  0  0  0  0  0  0  0  0
  146.2823  130.7822  151.0259 H   0  0  0  0  0  0  0  0  0  0  0  0
  143.9748  130.8031  151.0214 H   0  0  0  0  0  0  0  0  0  0  0  0
  144.3282  131.7627  152.4172 H   0  0  0  0  0  0  0  0  0  0  0  0
  143.2065  132.5669  149.7458 H   0  0  0  0  0  0  0  0  0  0  0  0
  142.6235  132.9407  151.3265 H   0  0  0  0  0  0  0  0  0  0  0  0
  143.3443  134.9770  150.4213 H   0  0  0  0  0  0  0  0  0  0  0  0
  144.7221  134.2976  149.6520 H   0  0  0  0  0  0  0  0  0  0  0  0
  144.4395  133.5113  153.0969 H   0  0  0  0  0  0  0  0  0  0  0  0
  1  2  1  0  0  0  0
  1 21  1  0  0  0  0
  1 22  1  0  0  0  0
  1 23  1  0  0  0  0
  2  3  1  0  0  0  0
  2  4  1  0  0  0  0
  2 44  1  0  0  0  0
  3 24  1  0  0  0  0
  3 25  1  0  0  0  0
  3 26  1  0  0  0  0
  4 20  1  0  0  0  0
  4  5  1  0  0  0  0
  4 15  1  0  0  0  0
  5  6  1  0  0  0  0
  5 27  1  0  0  0  0
  5 28  1  0  0  0  0
  6  7  1  0  0  0  0
  6 29  1  0  0  0  0
  7  8  2  0  0  0  0
  7  9  1  0  0  0  0
  9 10  1  0  0  0  0
  9 30  1  0  0  0  0
 10 14  1  0  0  0  0
 10 11  2  0  0  0  0
 11 12  1  0  0  0  0
 12 13  2  0  0  0  0
 13 14  1  0  0  0  0
 13 31  1  0  0  0  0
 15 16  1  0  0  0  0
 15 32  1  0  0  0  0
 15 33  1  0  0  0  0
 16 17  1  0  0  0  0
 16 34  1  0  0  0  0
 16 35  1  0  0  0  0
 17 18  1  0  0  0  0
 17 36  1  0  0  0  0
 17 37  1  0  0  0  0
 18 19  1  0  0  0  0
 18 38  1  0  0  0  0
 18 39  1  0  0  0  0
 19 20  1  0  0  0  0
 19 40  1  0  0  0  0
 19 41  1  0  0  0  0
 20 42  1  0  0  0  0
 20 43  1  0  0  0  0
M  CHG  1   2   1
M  END
> <s_m_source_file>
AV-unprocessed.smi

> <i_m_source_file_index>
1804

> <i_lp_mmshare_version>
43012

> <i_f3d_flags>
0

> <s_epik_input>
W0NIMl0xW0NIMl1bQ0gyXVtDSDJdW0NIMl1bQ0gyXUMxKE4oW0NIM10pW0NIM10pW0NIMl1bTkhdQyg9TylbTkhdYzJubltjSF1zMg==

> <s_epik_cmdline>
J2VwaWtfcHl0aG9uJywgJy1waCcsICc3LjAnLCAnLXRuJywgJzgnLCAnLW1hJywgJzIwMCcsICctbWV0YWxfYmluZGluZycsICctaW1hZScsICc8aW5maWxlLm1hZT4nLCAnLW9tYWUnLCAnPG91dGZpbGUubWFlPic=

> <r_lp_tautomer_probability>
1

> <r_epik_Ionization_Penalty>
0.00320238

> <r_epik_Ionization_Penalty_Charging>
0.00244219

> <r_epik_Ionization_Penalty_Neutral>
0.000760187

> <r_epik_State_Penalty>
-0

> <r_epik_Charging_Adjusted_Penalty>
0.00244219

> <i_epik_Tot_Q>
1

> <i_epik_Tot_abs_Q>
1

> <r_epik_Metal_State_Penalty>
0.262153

> <b_epik_Metal_Only>
0

> <s_lp_Force_Field>
OPLS_2005

> <r_lp_Energy>
34.4391

> <b_lp_Chiralities_Consistent>
1

> <s_lp_Variant>
AV-unprocessed.smi:1804-1

> <Gold.Version>
5.8.1

> <Gold.Id.Protein>
6NUR|6NUR_protein|mol2

> <Gold.PLP.Fitness>
39.1269

> <Gold.PLP.PLP>
-30.0577

> <Gold.PLP.part.hbond>
-3.7899

> <Gold.PLP.part.metal>
0.0000

> <Gold.PLP.part.buried>
0.1520

> <Gold.PLP.part.nonpolar>
-29.9556

> <Gold.PLP.part.repulsive>
3.4814

> <Gold.PLP.ligand.clash>
0.1994

> <Gold.PLP.ligand.torsion>
0.8225

> <Gold.PLP.Chemscore.Hbond>
2.6096

> <Gold.PLP.Chemscore.CHOScore>
1.0000

> <Gold.PLP.Chemscore.Metal>
0.0000

> <Gold.Chemscore.Hbonds>
donor molecule, donor type, donor heavy atom, donor atom, acceptor molecule, acceptor atom, score
      L1  H     6    29       P1  7948  0.99
      L1  H     9    30       P1  7948  1.00
      P1  H  7989  7998       L1    12  0.53
      L1  C    13    31       P1  8028  1.00

> <Gold.PLP.Chemscore.Internal.Correction>
0.0847

> <Gold.Rescore>
     Score         DG    S(hbond)    S(metal)    S(lipo)     H(rot)  DE(clash)    DE(int)     intcor
     11.99     -16.24       1.89        0.00      74.05       1.65       2.39       1.86       ----

> <Gold.Chemscore.Fitness>
11.9891

> <Gold.Chemscore.DG>
-16.2436

> <Gold.Chemscore.ZeroCoef>
-5.4800

> <Gold.Chemscore.Hbond>
1.8922

> <Gold.Chemscore.Metal>
0.0000

> <Gold.Chemscore.Lipo>
74.0546

> <Gold.Chemscore.Internal_Hbond>
0.0000

> <Gold.Chemscore.DEClash>
2.3917

> <Gold.Chemscore.DEInternal>
1.8629

> <Gold.Chemscore.Rot>
1.6487

> <Gold.Chemscore.Internal.Correction>
   9.000000E+99

> <Gold.Chemscore.Hbonds>
donor molecule, donor type, donor heavy atom, donor atom, acceptor molecule, acceptor atom, score
      L1  H     6    29       P1  7948  0.94
      L1  H     9    30       P1  7948  0.94
      P1  H  7989  7998       L1    12  0.03

> <Gold.Chemscore.Hbond.Weighted>
-6.3200

> <Gold.Chemscore.Metal.Weighted>
-0.0000

> <Gold.Chemscore.Lipo.Weighted>
-8.6644

> <Gold.Chemscore.Internal_Hbond.Weighted>
0.0000

> <Gold.Chemscore.DEClash.Weighted>
2.3917

> <Gold.Chemscore.DEInternal.Weighted>
1.8629

> <Gold.Chemscore.Rot.Weighted>
4.2207

> <Gold.Chemscore.Internal.Correction.Weighted>
   9.000000E+99

> <Gold.Protein.RotatedTorsions>
[ 6907 6896 6895 6894 ] final -175.63 input  -60.11 | X-H torsion
[ 7974 7965 7964 7962 ] final -163.93 input  175.53 | X-H torsion
[ 8008 7997 7996 7995 ] final   10.08 input   59.86 | X-H torsion
[ 10167 10162 10161 10158 ] final   74.38 input  -65.29 | X-H torsion
[ 10718 10713 10712 10709 ] final  128.58 input   66.30 | X-H torsion
[ 10763 10752 10751 10750 ] final -179.52 input  -60.55 | X-H torsion
[ 11005 11000 10999 10996 ] final   64.99 input  -57.11 | X-H torsion

> <Gold.Protein.ActiveResidues>
 VAL166  LYS551  ARG553  GLY616  TRP617  ASP618  TYR619  PRO620  LYS621  CYS622 
 ASP623  PHE694  ASN695  SER759  ASP760  ASP761  ALA762  ILE779  LEU786  VAL792 
 PHE793  MET794  SER795  GLU796  ALA797  LYS798  CYS799  TRP800  GLU811  SER814 

> <Gold.Protein.RotatedAtoms>
  151.5917  133.3366  159.3028 H   0  0  0  0  0  0  0  0  0  0  0  0  # atno 6907 bound_to 6896
  150.8256  134.7489  159.6821 H   0  0  0  0  0  0  0  0  0  0  0  0  # atno 6908 bound_to 6896
  152.4346  134.5718  159.9975 H   0  0  0  0  0  0  0  0  0  0  0  0  # atno 6909 bound_to 6896
  144.7311  140.3036  143.6200 H   0  0  0  0  0  0  0  0  0  0  0  0  # atno 7974 bound_to 7965
  154.7886  140.2831  155.6009 H   0  0  0  0  0  0  0  0  0  0  0  0  # atno 8008 bound_to 7997
  156.2961  140.2609  156.2656 H   0  0  0  0  0  0  0  0  0  0  0  0  # atno 8009 bound_to 7997
  154.9698  140.0376  157.2218 H   0  0  0  0  0  0  0  0  0  0  0  0  # atno 8010 bound_to 7997
  140.0143  144.5590  150.7633 H   0  0  0  0  0  0  0  0  0  0  0  0  # atno 10167 bound_to 10162
  157.5232  131.1098  150.9122 H   0  0  0  0  0  0  0  0  0  0  0  0  # atno 10718 bound_to 10713
  154.5340  135.2801  155.1155 H   0  0  0  0  0  0  0  0  0  0  0  0  # atno 10763 bound_to 10752
  154.2664  135.6312  153.5297 H   0  0  0  0  0  0  0  0  0  0  0  0  # atno 10764 bound_to 10752
  152.9963  135.5618  154.5861 H   0  0  0  0  0  0  0  0  0  0  0  0  # atno 10765 bound_to 10752
  139.9923  134.6572  156.0070 H   0  0  0  0  0  0  0  0  0  0  0  0  # atno 11005 bound_to 11000
  145.7736  139.1866  143.2198 LP  0  0  0  0  0  0  0  0  0  0  0  0  # atno 17320 bound_to 7965
  146.0891  140.7676  142.9604 LP  0  0  0  0  0  0  0  0  0  0  0  0  # atno 17321 bound_to 7965
  140.7369  143.2758  151.3746 LP  0  0  0  0  0  0  0  0  0  0  0  0  # atno 17342 bound_to 10162
  139.6183  144.0957  152.2367 LP  0  0  0  0  0  0  0  0  0  0  0  0  # atno 17343 bound_to 10162
  156.9726  130.5497  149.5291 LP  0  0  0  0  0  0  0  0  0  0  0  0  # atno 17370 bound_to 10713
  156.0368  130.5455  150.8674 LP  0  0  0  0  0  0  0  0  0  0  0  0  # atno 17371 bound_to 10713
  141.1576  133.6541  156.4212 LP  0  0  0  0  0  0  0  0  0  0  0  0  # atno 17394 bound_to 11000
  140.4885  134.6598  157.5201 LP  0  0  0  0  0  0  0  0  0  0  0  0  # atno 17395 bound_to 11000

$$$$
