AV-unprocessed.smi:730|AV-procd|sdf|3523|dock6
  -GOLD-   22720 0513D 1   1.00000     0.00000
 Structure written by MMmdl.
 40 41  0  0  0  0  0  0  0  0  1 V2000
  149.9529  128.8218  154.4734 C   0  0  0  0  0  0  0  0  0  0  0  0
  150.5134  129.9602  155.3494 C   0  0  0  0  0  0  0  0  0  0  0  0
  150.1013  129.6968  156.8100 C   0  0  0  0  0  0  0  0  0  0  0  0
  152.0497  129.9416  155.2446 C   0  0  0  0  0  0  0  0  0  0  0  0
  149.9829  131.2924  154.8983 C   0  0  0  0  0  0  0  0  0  0  0  0
  149.0934  131.6732  153.9302 C   0  0  0  0  0  0  0  0  0  0  0  0
  149.0563  133.0866  154.0596 C   0  0  0  0  0  0  0  0  0  0  0  0
  148.2282  133.8719  153.2183 N   0  0  0  0  0  0  0  0  0  0  0  0
  147.0598  133.5176  152.6574 C   0  0  0  0  0  0  0  0  0  0  0  0
  146.5090  132.4246  152.7921 O   0  0  0  0  0  0  0  0  0  0  0  0
  146.5601  134.5101  151.9071 N   0  0  0  0  0  0  0  0  0  0  0  0
  145.3124  134.4423  151.1444 C   0  0  1  0  0  0  0  0  0  0  0  0
  145.2347  133.1117  150.3742 C   0  0  0  0  0  0  0  0  0  0  0  0
  144.1866  132.2696  151.0995 C   0  0  0  0  0  0  0  0  0  0  0  0
  143.1812  133.2952  151.6141 C   0  0  0  0  0  0  0  0  0  0  0  0
  144.0301  134.5065  152.0213 C   0  0  1  0  0  0  0  0  0  0  0  0
  144.2957  134.4296  153.4113 O   0  0  0  0  0  0  0  0  0  0  0  0
  149.8530  133.5353  155.0161 N   0  0  0  0  0  0  0  0  0  0  0  0
  150.4498  132.3909  155.5566 O   0  0  0  0  0  0  0  0  0  0  0  0
  150.3336  127.8504  154.7911 H   0  0  0  0  0  0  0  0  0  0  0  0
  150.2275  128.9523  153.4258 H   0  0  0  0  0  0  0  0  0  0  0  0
  148.8642  128.7781  154.5259 H   0  0  0  0  0  0  0  0  0  0  0  0
  149.0163  129.6980  156.9209 H   0  0  0  0  0  0  0  0  0  0  0  0
  150.4998  130.4581  157.4818 H   0  0  0  0  0  0  0  0  0  0  0  0
  150.4665  128.7306  157.1598 H   0  0  0  0  0  0  0  0  0  0  0  0
  152.4588  128.9806  155.5593 H   0  0  0  0  0  0  0  0  0  0  0  0
  152.5028  130.7098  155.8721 H   0  0  0  0  0  0  0  0  0  0  0  0
  152.3785  130.1193  154.2201 H   0  0  0  0  0  0  0  0  0  0  0  0
  148.5531  131.0403  153.2421 H   0  0  0  0  0  0  0  0  0  0  0  0
  148.5674  134.7998  153.0125 H   0  0  0  0  0  0  0  0  0  0  0  0
  147.0824  135.3717  151.8452 H   0  0  0  0  0  0  0  0  0  0  0  0
  145.2983  135.2547  150.4152 H   0  0  0  0  0  0  0  0  0  0  0  0
  144.8930  133.3054  149.3565 H   0  0  0  0  0  0  0  0  0  0  0  0
  146.1937  132.5974  150.2962 H   0  0  0  0  0  0  0  0  0  0  0  0
  143.7298  131.5189  150.4539 H   0  0  0  0  0  0  0  0  0  0  0  0
  144.6476  131.7513  151.9415 H   0  0  0  0  0  0  0  0  0  0  0  0
  142.5152  133.5798  150.7984 H   0  0  0  0  0  0  0  0  0  0  0  0
  142.5574  132.9092  152.4216 H   0  0  0  0  0  0  0  0  0  0  0  0
  143.4844  135.4336  151.8421 H   0  0  0  0  0  0  0  0  0  0  0  0
  143.9776  133.5981  153.7289 H   0  0  0  0  0  0  0  0  0  0  0  0
  1  2  1  0  0  0  0
  1 20  1  0  0  0  0
  1 21  1  0  0  0  0
  1 22  1  0  0  0  0
  2  3  1  0  0  0  0
  2  4  1  0  0  0  0
  2  5  1  0  0  0  0
  3 23  1  0  0  0  0
  3 24  1  0  0  0  0
  3 25  1  0  0  0  0
  4 26  1  0  0  0  0
  4 27  1  0  0  0  0
  4 28  1  0  0  0  0
  5 19  1  0  0  0  0
  5  6  2  0  0  0  0
  6  7  1  0  0  0  0
  6 29  1  0  0  0  0
  7  8  1  0  0  0  0
  7 18  2  0  0  0  0
  8  9  1  0  0  0  0
  8 30  1  0  0  0  0
  9 10  2  0  0  0  0
  9 11  1  0  0  0  0
 11 12  1  0  0  0  0
 11 31  1  0  0  0  0
 12 16  1  0  0  0  0
 12 13  1  0  0  0  0
 12 32  1  0  0  0  0
 13 14  1  0  0  0  0
 13 33  1  0  0  0  0
 13 34  1  0  0  0  0
 14 15  1  0  0  0  0
 14 35  1  0  0  0  0
 14 36  1  0  0  0  0
 15 16  1  0  0  0  0
 15 37  1  0  0  0  0
 15 38  1  0  0  0  0
 16 17  1  0  0  0  0
 16 39  1  0  0  0  0
 17 40  1  0  0  0  0
 18 19  1  0  0  0  0
M  END
> <s_m_source_file>
AV-unprocessed.smi

> <i_m_source_file_index>
730

> <i_lp_mmshare_version>
43012

> <i_f3d_flags>
0

> <s_epik_input>
W0NIM11DKFtDSDNdKShbQ0gzXSljMVtjSF1jKG5vMSlbTkhdQyg9TylbTkhdW0NAQEhdMltDSDJdW0NIMl1bQ0gyXVtDQEhdMltPSF0=

> <s_epik_cmdline>
J2VwaWtfcHl0aG9uJywgJy1waCcsICc3LjAnLCAnLXRuJywgJzgnLCAnLW1hJywgJzIwMCcsICctbWV0YWxfYmluZGluZycsICctaW1hZScsICc8aW5maWxlLm1hZT4nLCAnLW9tYWUnLCAnPG91dGZpbGUubWFlPic=

> <r_lp_tautomer_probability>
1

> <r_epik_Ionization_Penalty>
2.23071e-05

> <r_epik_Ionization_Penalty_Charging>
0

> <r_epik_Ionization_Penalty_Neutral>
2.23071e-05

> <r_epik_State_Penalty>
-0

> <r_epik_Charging_Adjusted_Penalty>
0

> <i_epik_Tot_Q>
0

> <i_epik_Tot_abs_Q>
0

> <r_epik_Metal_State_Penalty>
-0

> <b_epik_Metal_Only>
0

> <s_lp_Force_Field>
OPLS_2005

> <r_lp_Energy>
21.0344

> <b_lp_Chiralities_Consistent>
1

> <s_lp_Variant>
AV-unprocessed.smi:730-2

> <Gold.Version>
5.8.1

> <Gold.Id.Protein>
6NUR|6NUR_protein|mol2

> <Gold.PLP.Fitness>
37.0802

> <Gold.PLP.PLP>
-32.1468

> <Gold.PLP.part.hbond>
-2.0000

> <Gold.PLP.part.metal>
0.0000

> <Gold.PLP.part.buried>
-4.8213

> <Gold.PLP.part.nonpolar>
-24.6159

> <Gold.PLP.part.repulsive>
0.2268

> <Gold.PLP.ligand.clash>
0.0000

> <Gold.PLP.ligand.torsion>
0.3785

> <Gold.PLP.Chemscore.Hbond>
1.8960

> <Gold.PLP.Chemscore.CHOScore>
0.0000

> <Gold.PLP.Chemscore.Metal>
0.0000

> <Gold.Chemscore.Hbonds>
donor molecule, donor type, donor heavy atom, donor atom, acceptor molecule, acceptor atom, score
      L1  H     8    30       P1  7948  1.00
      L1  H    11    31       P1  7948  0.90

> <Gold.PLP.Chemscore.Internal.Correction>
0.0024

> <Gold.Rescore>
     Score         DG    S(hbond)    S(metal)    S(lipo)     H(rot)  DE(clash)    DE(int)     intcor
      9.55     -14.72       1.75        0.00      66.53       1.71       0.00       5.17       ----

> <Gold.Chemscore.Fitness>
9.5508

> <Gold.Chemscore.DG>
-14.7172

> <Gold.Chemscore.ZeroCoef>
-5.4800

> <Gold.Chemscore.Hbond>
1.7477

> <Gold.Chemscore.Metal>
0.0000

> <Gold.Chemscore.Lipo>
66.5295

> <Gold.Chemscore.Internal_Hbond>
0.0000

> <Gold.Chemscore.DEClash>
0.0004

> <Gold.Chemscore.DEInternal>
5.1660

> <Gold.Chemscore.Rot>
1.7125

> <Gold.Chemscore.Internal.Correction>
   9.000000E+99

> <Gold.Chemscore.Hbonds>
donor molecule, donor type, donor heavy atom, donor atom, acceptor molecule, acceptor atom, score
      L1  H     8    30       P1  7948  0.38
      L1  H    11    31       P1  7948  0.83
      L1  H    17    40       P1 10957  0.02

> <Gold.Chemscore.Hbond.Weighted>
-5.8373

> <Gold.Chemscore.Metal.Weighted>
-0.0000

> <Gold.Chemscore.Lipo.Weighted>
-7.7840

> <Gold.Chemscore.Internal_Hbond.Weighted>
0.0000

> <Gold.Chemscore.DEClash.Weighted>
0.0004

> <Gold.Chemscore.DEInternal.Weighted>
5.1660

> <Gold.Chemscore.Rot.Weighted>
4.3841

> <Gold.Chemscore.Internal.Correction.Weighted>
   9.000000E+99

> <Gold.Protein.RotatedTorsions>
[ 6907 6896 6895 6894 ] final  -73.00 input  -60.11 | X-H torsion
[ 7974 7965 7964 7962 ] final    6.93 input  175.53 | X-H torsion
[ 8008 7997 7996 7995 ] final  127.24 input   59.86 | X-H torsion
[ 10167 10162 10161 10158 ] final   74.49 input  -65.29 | X-H torsion
[ 10718 10713 10712 10709 ] final  -82.91 input   66.30 | X-H torsion
[ 10763 10752 10751 10750 ] final   -7.07 input  -60.55 | X-H torsion
[ 11005 11000 10999 10996 ] final -164.67 input  -57.11 | X-H torsion

> <Gold.Protein.ActiveResidues>
 VAL166  LYS551  ARG553  GLY616  TRP617  ASP618  TYR619  PRO620  LYS621  CYS622 
 ASP623  PHE694  ASN695  SER759  ASP760  ASP761  ALA762  ILE779  LEU786  VAL792 
 PHE793  MET794  SER795  GLU796  ALA797  LYS798  CYS799  TRP800  GLU811  SER814 

> <Gold.Protein.RotatedAtoms>
  150.7147  134.5081  159.5593 H   0  0  0  0  0  0  0  0  0  0  0  0  # atno 6907 bound_to 6896
  152.2664  134.7977  160.0431 H   0  0  0  0  0  0  0  0  0  0  0  0  # atno 6908 bound_to 6896
  151.8672  133.3433  159.3760 H   0  0  0  0  0  0  0  0  0  0  0  0  # atno 6909 bound_to 6896
  146.2431  140.0159  142.8402 H   0  0  0  0  0  0  0  0  0  0  0  0  # atno 7974 bound_to 7965
  156.2885  140.2673  156.2241 H   0  0  0  0  0  0  0  0  0  0  0  0  # atno 8008 bound_to 7997
  155.0138  140.0387  157.2428 H   0  0  0  0  0  0  0  0  0  0  0  0  # atno 8009 bound_to 7997
  154.7495  140.2740  155.6309 H   0  0  0  0  0  0  0  0  0  0  0  0  # atno 8010 bound_to 7997
  140.0131  144.5599  150.7642 H   0  0  0  0  0  0  0  0  0  0  0  0  # atno 10167 bound_to 10162
  156.0026  130.4649  150.4177 H   0  0  0  0  0  0  0  0  0  0  0  0  # atno 10718 bound_to 10713
  153.4212  135.7010  153.6293 H   0  0  0  0  0  0  0  0  0  0  0  0  # atno 10763 bound_to 10752
  153.4747  135.3707  155.2410 H   0  0  0  0  0  0  0  0  0  0  0  0  # atno 10764 bound_to 10752
  154.8722  135.4051  154.3580 H   0  0  0  0  0  0  0  0  0  0  0  0  # atno 10765 bound_to 10752
  140.5843  134.5109  157.5183 H   0  0  0  0  0  0  0  0  0  0  0  0  # atno 11005 bound_to 11000
  145.1285  140.9504  143.4558 LP  0  0  0  0  0  0  0  0  0  0  0  0  # atno 17320 bound_to 7965
  145.0411  139.3259  143.5976 LP  0  0  0  0  0  0  0  0  0  0  0  0  # atno 17321 bound_to 7965
  140.7373  143.2764  151.3729 LP  0  0  0  0  0  0  0  0  0  0  0  0  # atno 17342 bound_to 10162
  139.6191  144.0943  152.2374 LP  0  0  0  0  0  0  0  0  0  0  0  0  # atno 17343 bound_to 10162
  157.2235  131.0488  151.2533 LP  0  0  0  0  0  0  0  0  0  0  0  0  # atno 17370 bound_to 10713
  157.3778  130.7215  149.6609 LP  0  0  0  0  0  0  0  0  0  0  0  0  # atno 17371 bound_to 10713
  139.9303  134.7977  156.0951 LP  0  0  0  0  0  0  0  0  0  0  0  0  # atno 17394 bound_to 11000
  141.0976  133.6689  156.2680 LP  0  0  0  0  0  0  0  0  0  0  0  0  # atno 17395 bound_to 11000

$$$$
