AV-unprocessed.smi:2071|AV-procd|sdf|8440|dock10
  -GOLD-   2272011143D 1   1.00000     0.00000
 Structure written by MMmdl.
 45 47  0  0  0  0  0  0  0  0  1 V2000
  144.5793  137.0107  152.5710 O   0  0  0  0  0  0  0  0  0  0  0  0
  145.7245  136.7098  152.2353 C   0  0  0  0  0  0  0  0  0  0  0  0
  146.7842  137.5078  152.4291 N   0  0  0  0  0  0  0  0  0  0  0  0
  146.7373  138.8284  153.0461 C   0  0  0  0  0  0  0  0  0  0  0  0
  148.1017  139.2258  153.6308 C   0  0  0  0  0  0  0  0  0  0  0  0
  148.2647  140.7499  153.7550 C   0  0  0  0  0  0  0  0  0  0  0  0
  148.5820  141.1429  155.1307 N   0  0  0  0  0  0  0  0  0  0  0  0
  147.6975  141.6871  155.9862 C   0  0  0  0  0  0  0  0  0  0  0  0
  146.5191  141.9501  155.7510 O   0  0  0  0  0  0  0  0  0  0  0  0
  148.3138  141.8961  157.1567 N   0  0  0  0  0  0  0  0  0  0  0  0
  149.6986  141.4687  157.1439 C   0  0  0  0  0  0  0  0  0  0  0  0
  150.0172  140.3849  158.1817 C   0  0  0  0  0  0  0  0  0  0  0  0
  151.5363  140.4646  158.3854 C   0  0  0  0  0  0  0  0  0  0  0  0
  151.9647  141.8762  157.9449 C   0  0  0  0  0  0  0  0  0  0  0  0
  150.6948  142.5918  157.4609 C   0  0  0  0  0  0  0  0  0  0  0  0
  149.7798  140.9707  155.7053 C   0  0  0  0  0  0  0  0  0  0  0  0
  150.7895  140.4889  155.1903 O   0  0  0  0  0  0  0  0  0  0  0  0
  146.0885  135.5560  151.6495 N   0  0  0  0  0  0  0  0  0  0  0  0
  145.2769  134.4511  151.2725 C   0  0  0  0  0  0  0  0  0  0  0  0
  145.7111  133.3772  150.4576 C   0  0  0  0  0  0  0  0  0  0  0  0
  144.8096  132.3339  150.1703 C   0  0  0  0  0  0  0  0  0  0  0  0
  143.5116  132.3974  150.7126 C   0  0  0  0  0  0  0  0  0  0  0  0
  143.0880  133.4075  151.5007 N   0  0  0  0  0  0  0  0  0  0  0  0
  143.9576  134.4042  151.7714 C   0  0  0  0  0  0  0  0  0  0  0  0
  147.6897  137.1790  152.1271 H   0  0  0  0  0  0  0  0  0  0  0  0
  146.4000  139.5710  152.3210 H   0  0  0  0  0  0  0  0  0  0  0  0
  145.9877  138.8048  153.8373 H   0  0  0  0  0  0  0  0  0  0  0  0
  148.2230  138.7646  154.6120 H   0  0  0  0  0  0  0  0  0  0  0  0
  148.8991  138.8273  153.0019 H   0  0  0  0  0  0  0  0  0  0  0  0
  149.0490  141.0953  153.0792 H   0  0  0  0  0  0  0  0  0  0  0  0
  147.3520  141.2503  153.4268 H   0  0  0  0  0  0  0  0  0  0  0  0
  147.8710  142.2962  157.9711 H   0  0  0  0  0  0  0  0  0  0  0  0
  149.5098  140.6113  159.1206 H   0  0  0  0  0  0  0  0  0  0  0  0
  149.6988  139.3877  157.8739 H   0  0  0  0  0  0  0  0  0  0  0  0
  151.8093  140.2599  159.4209 H   0  0  0  0  0  0  0  0  0  0  0  0
  152.0366  139.7198  157.7652 H   0  0  0  0  0  0  0  0  0  0  0  0
  152.4412  142.4266  158.7569 H   0  0  0  0  0  0  0  0  0  0  0  0
  152.6897  141.8043  157.1332 H   0  0  0  0  0  0  0  0  0  0  0  0
  150.8941  143.2429  156.6084 H   0  0  0  0  0  0  0  0  0  0  0  0
  150.3018  143.2199  158.2618 H   0  0  0  0  0  0  0  0  0  0  0  0
  147.0788  135.4328  151.4975 H   0  0  0  0  0  0  0  0  0  0  0  0
  146.7119  133.3224  150.0593 H   0  0  0  0  0  0  0  0  0  0  0  0
  145.1087  131.5012  149.5509 H   0  0  0  0  0  0  0  0  0  0  0  0
  142.7966  131.6134  150.5121 H   0  0  0  0  0  0  0  0  0  0  0  0
  143.5838  135.1945  152.4066 H   0  0  0  0  0  0  0  0  0  0  0  0
  1  2  2  0  0  0  0
  2  3  1  0  0  0  0
  2 18  1  0  0  0  0
  3  4  1  0  0  0  0
  3 25  1  0  0  0  0
  4  5  1  0  0  0  0
  4 26  1  0  0  0  0
  4 27  1  0  0  0  0
  5  6  1  0  0  0  0
  5 28  1  0  0  0  0
  5 29  1  0  0  0  0
  6  7  1  0  0  0  0
  6 30  1  0  0  0  0
  6 31  1  0  0  0  0
  7 16  1  0  0  0  0
  7  8  1  0  0  0  0
  8  9  2  0  0  0  0
  8 10  1  0  0  0  0
 10 11  1  0  0  0  0
 10 32  1  0  0  0  0
 11 15  1  0  0  0  0
 11 12  1  0  0  0  0
 11 16  1  0  0  0  0
 12 13  1  0  0  0  0
 12 33  1  0  0  0  0
 12 34  1  0  0  0  0
 13 14  1  0  0  0  0
 13 35  1  0  0  0  0
 13 36  1  0  0  0  0
 14 15  1  0  0  0  0
 14 37  1  0  0  0  0
 14 38  1  0  0  0  0
 15 39  1  0  0  0  0
 15 40  1  0  0  0  0
 16 17  2  0  0  0  0
 18 19  1  0  0  0  0
 18 41  1  0  0  0  0
 19 24  1  0  0  0  0
 19 20  2  0  0  0  0
 20 21  1  0  0  0  0
 20 42  1  0  0  0  0
 21 22  2  0  0  0  0
 21 43  1  0  0  0  0
 22 23  1  0  0  0  0
 22 44  1  0  0  0  0
 23 24  2  0  0  0  0
 24 45  1  0  0  0  0
M  END
> <s_m_source_file>
AV-unprocessed.smi

> <i_m_source_file_index>
2071

> <i_lp_mmshare_version>
43012

> <i_f3d_flags>
0

> <s_epik_input>
W2NIXTFuW2NIXVtjSF1bY0hdYzFbTkhdQyg9TylbTkhdW0NIMl1bQ0gyXVtDSDJdTihDMj1PKUMoPU8pW05IXUMyM1tDSDJdW0NIMl1bQ0gyXVtDSDJdMw==

> <s_epik_cmdline>
J2VwaWtfcHl0aG9uJywgJy1waCcsICc3LjAnLCAnLXRuJywgJzgnLCAnLW1hJywgJzIwMCcsICctbWV0YWxfYmluZGluZycsICctaW1hZScsICc8aW5maWxlLm1hZT4nLCAnLW9tYWUnLCAnPG91dGZpbGUubWFlPic=

> <r_lp_tautomer_probability>
1

> <r_epik_Ionization_Penalty>
0.00482956

> <r_epik_Ionization_Penalty_Charging>
0

> <r_epik_Ionization_Penalty_Neutral>
0.00482956

> <r_epik_State_Penalty>
0.00344413

> <r_epik_Charging_Adjusted_Penalty>
0.00344413

> <i_epik_Tot_Q>
0

> <i_epik_Tot_abs_Q>
0

> <r_epik_Metal_State_Penalty>
0.0123255

> <b_epik_Metal_Only>
0

> <s_lp_Force_Field>
OPLS_2005

> <r_lp_Energy>
39.9018

> <b_lp_Chiralities_Consistent>
1

> <s_lp_Variant>
AV-unprocessed.smi:2071-1

> <Gold.Version>
5.8.1

> <Gold.Id.Protein>
6NUR|6NUR_protein|mol2

> <Gold.PLP.Fitness>
46.8844

> <Gold.PLP.PLP>
-36.8741

> <Gold.PLP.part.hbond>
-3.3946

> <Gold.PLP.part.metal>
0.0000

> <Gold.PLP.part.buried>
-4.9375

> <Gold.PLP.part.nonpolar>
-30.0138

> <Gold.PLP.part.repulsive>
1.3182

> <Gold.PLP.ligand.clash>
0.0000

> <Gold.PLP.ligand.torsion>
0.8930

> <Gold.PLP.Chemscore.Hbond>
2.9280

> <Gold.PLP.Chemscore.CHOScore>
0.9992

> <Gold.PLP.Chemscore.Metal>
0.0000

> <Gold.Chemscore.Hbonds>
donor molecule, donor type, donor heavy atom, donor atom, acceptor molecule, acceptor atom, score
      L1  H     3    25       P1  7948  1.00
      L1  H    18    41       P1  7948  0.93
      P1  H  7989  7998       L1    17  1.00
      L1  C    22    44       P1 10952  1.00

> <Gold.PLP.Chemscore.Internal.Correction>
0.0148

> <Gold.Rescore>
     Score         DG    S(hbond)    S(metal)    S(lipo)     H(rot)  DE(clash)    DE(int)     intcor
     17.24     -19.77       2.81        0.00      84.88       1.96       0.23       2.30       ----

> <Gold.Chemscore.Fitness>
17.2356

> <Gold.Chemscore.DG>
-19.7650

> <Gold.Chemscore.ZeroCoef>
-5.4800

> <Gold.Chemscore.Hbond>
2.8086

> <Gold.Chemscore.Metal>
0.0000

> <Gold.Chemscore.Lipo>
84.8779

> <Gold.Chemscore.Internal_Hbond>
0.0000

> <Gold.Chemscore.DEClash>
0.2311

> <Gold.Chemscore.DEInternal>
2.2983

> <Gold.Chemscore.Rot>
1.9634

> <Gold.Chemscore.Internal.Correction>
   9.000000E+99

> <Gold.Chemscore.Hbonds>
donor molecule, donor type, donor heavy atom, donor atom, acceptor molecule, acceptor atom, score
      L1  H     3    25       P1  7948  0.98
      L1  H    18    41       P1  7948  0.82
      P1  H  7989  7998       L1    17  0.94

> <Gold.Chemscore.Hbond.Weighted>
-9.3806

> <Gold.Chemscore.Metal.Weighted>
-0.0000

> <Gold.Chemscore.Lipo.Weighted>
-9.9307

> <Gold.Chemscore.Internal_Hbond.Weighted>
0.0000

> <Gold.Chemscore.DEClash.Weighted>
0.2311

> <Gold.Chemscore.DEInternal.Weighted>
2.2983

> <Gold.Chemscore.Rot.Weighted>
5.0263

> <Gold.Chemscore.Internal.Correction.Weighted>
   9.000000E+99

> <Gold.Protein.RotatedTorsions>
[ 6907 6896 6895 6894 ] final  -40.48 input  -60.11 | X-H torsion
[ 7974 7965 7964 7962 ] final  -63.47 input  175.53 | X-H torsion
[ 8008 7997 7996 7995 ] final -132.62 input   59.86 | X-H torsion
[ 10167 10162 10161 10158 ] final  105.63 input  -65.29 | X-H torsion
[ 10718 10713 10712 10709 ] final -142.84 input   66.30 | X-H torsion
[ 10763 10752 10751 10750 ] final -124.83 input  -60.55 | X-H torsion
[ 11005 11000 10999 10996 ] final -101.00 input  -57.11 | X-H torsion

> <Gold.Protein.ActiveResidues>
 VAL166  LYS551  ARG553  GLY616  TRP617  ASP618  TYR619  PRO620  LYS621  CYS622 
 ASP623  PHE694  ASN695  SER759  ASP760  ASP761  ALA762  ILE779  LEU786  VAL792 
 PHE793  MET794  SER795  GLU796  ALA797  LYS798  CYS799  TRP800  GLU811  SER814 

> <Gold.Protein.RotatedAtoms>
  150.9779  134.9140  159.7826 H   0  0  0  0  0  0  0  0  0  0  0  0  # atno 6907 bound_to 6896
  152.5212  134.3451  159.9241 H   0  0  0  0  0  0  0  0  0  0  0  0  # atno 6908 bound_to 6896
  151.3458  133.3903  159.2710 H   0  0  0  0  0  0  0  0  0  0  0  0  # atno 6909 bound_to 6896
  145.7787  140.8774  143.0342 H   0  0  0  0  0  0  0  0  0  0  0  0  # atno 7974 bound_to 7965
  155.3319  140.0467  157.3043 H   0  0  0  0  0  0  0  0  0  0  0  0  # atno 8008 bound_to 7997
  154.5323  140.2261  155.8748 H   0  0  0  0  0  0  0  0  0  0  0  0  # atno 8009 bound_to 7997
  156.1801  140.3076  155.9139 H   0  0  0  0  0  0  0  0  0  0  0  0  # atno 8010 bound_to 7997
  139.7076  144.7083  151.1080 H   0  0  0  0  0  0  0  0  0  0  0  0  # atno 10167 bound_to 10162
  156.3508  130.7687  151.1839 H   0  0  0  0  0  0  0  0  0  0  0  0  # atno 10718 bound_to 10713
  154.8728  135.4050  154.3169 H   0  0  0  0  0  0  0  0  0  0  0  0  # atno 10763 bound_to 10752
  153.4004  135.7018  153.6436 H   0  0  0  0  0  0  0  0  0  0  0  0  # atno 10764 bound_to 10752
  153.5181  135.3693  155.2590 H   0  0  0  0  0  0  0  0  0  0  0  0  # atno 10765 bound_to 10752
  141.1248  133.8444  157.1176 H   0  0  0  0  0  0  0  0  0  0  0  0  # atno 11005 bound_to 11000
  144.6800  139.9958  143.7484 LP  0  0  0  0  0  0  0  0  0  0  0  0  # atno 17320 bound_to 7965
  146.0096  139.3159  143.0878 LP  0  0  0  0  0  0  0  0  0  0  0  0  # atno 17321 bound_to 7965
  140.7725  143.5337  150.9393 LP  0  0  0  0  0  0  0  0  0  0  0  0  # atno 17342 bound_to 10162
  139.9021  143.6823  152.3129 LP  0  0  0  0  0  0  0  0  0  0  0  0  # atno 17343 bound_to 10162
  157.7461  131.0428  150.4713 LP  0  0  0  0  0  0  0  0  0  0  0  0  # atno 17370 bound_to 10713
  156.4908  130.4095  149.6408 LP  0  0  0  0  0  0  0  0  0  0  0  0  # atno 17371 bound_to 10713
  140.0237  134.9934  157.0642 LP  0  0  0  0  0  0  0  0  0  0  0  0  # atno 17394 bound_to 11000
  140.4398  134.1693  155.7173 LP  0  0  0  0  0  0  0  0  0  0  0  0  # atno 17395 bound_to 11000

$$$$
