AV-unprocessed.smi:2579|AV-procd|sdf|10125|dock2
  -GOLD-   2272014143D 1   1.00000     0.00000
 Structure written by MMmdl.
 38 40  0  0  0  0  0  0  0  0  1 V2000
  151.2629  136.4363  153.8772 O   0  0  0  0  0  0  0  0  0  0  0  0
  150.8316  137.5055  154.6918 C   0  0  0  0  0  0  0  0  0  0  0  0
  151.9144  138.5902  154.7557 C   0  0  0  0  0  0  0  0  0  0  0  0
  151.3748  139.8616  155.1987 N   0  0  0  0  0  0  0  0  0  0  0  0
  151.6157  140.6325  156.3286 C   0  0  0  0  0  0  0  0  0  0  0  0
  152.4702  140.2938  157.2923 N   0  0  0  0  0  0  0  0  0  0  0  0
  152.3494  141.3512  158.1748 C   0  0  0  0  0  0  0  0  0  0  0  0
  152.9926  141.5935  159.4098 C   0  0  0  0  0  0  0  0  0  0  0  0
  152.7033  142.7593  160.1491 C   0  0  0  0  0  0  0  0  0  0  0  0
  151.7680  143.6975  159.6664 C   0  0  0  0  0  0  0  0  0  0  0  0
  151.1156  143.4767  158.4383 C   0  0  0  0  0  0  0  0  0  0  0  0
  151.4088  142.3127  157.7025 C   0  0  0  0  0  0  0  0  0  0  0  0
  150.9557  141.8033  156.4893 N   0  0  0  0  0  0  0  0  0  0  0  0
  149.9721  142.4117  155.6056 C   0  0  0  0  0  0  0  0  0  0  0  0
  148.7281  141.5244  155.4415 C   0  0  2  0  0  0  0  0  0  0  0  0
  147.8814  141.8665  154.2155 C   0  0  0  0  0  0  0  0  0  0  0  0
  146.5053  141.4221  154.6558 C   0  0  0  0  0  0  0  0  0  0  0  0
  146.5108  141.8327  156.1237 C   0  0  0  0  0  0  0  0  0  0  0  0
  147.8541  141.6575  156.5622 O   0  0  0  0  0  0  0  0  0  0  0  0
  150.9759  136.5979  152.9914 H   0  0  0  0  0  0  0  0  0  0  0  0
  149.9275  137.9174  154.2428 H   0  0  0  0  0  0  0  0  0  0  0  0
  150.5614  137.1450  155.6852 H   0  0  0  0  0  0  0  0  0  0  0  0
  152.7408  138.2873  155.3995 H   0  0  0  0  0  0  0  0  0  0  0  0
  152.3304  138.7429  153.7594 H   0  0  0  0  0  0  0  0  0  0  0  0
  150.6754  140.2387  154.5760 H   0  0  0  0  0  0  0  0  0  0  0  0
  153.7090  140.8802  159.7894 H   0  0  0  0  0  0  0  0  0  0  0  0
  153.2003  142.9336  161.0921 H   0  0  0  0  0  0  0  0  0  0  0  0
  151.5503  144.5864  160.2404 H   0  0  0  0  0  0  0  0  0  0  0  0
  150.3960  144.1917  158.0677 H   0  0  0  0  0  0  0  0  0  0  0  0
  149.6924  143.3819  156.0173 H   0  0  0  0  0  0  0  0  0  0  0  0
  150.4318  142.6116  154.6371 H   0  0  0  0  0  0  0  0  0  0  0  0
  149.0241  140.4756  155.3853 H   0  0  0  0  0  0  0  0  0  0  0  0
  147.8808  142.9421  154.0331 H   0  0  0  0  0  0  0  0  0  0  0  0
  148.2239  141.3670  153.3089 H   0  0  0  0  0  0  0  0  0  0  0  0
  145.6996  141.8853  154.0856 H   0  0  0  0  0  0  0  0  0  0  0  0
  146.4124  140.3388  154.5674 H   0  0  0  0  0  0  0  0  0  0  0  0
  146.2486  142.8867  156.2241 H   0  0  0  0  0  0  0  0  0  0  0  0
  145.8138  141.2498  156.7260 H   0  0  0  0  0  0  0  0  0  0  0  0
  1  2  1  0  0  0  0
  1 20  1  0  0  0  0
  2  3  1  0  0  0  0
  2 21  1  0  0  0  0
  2 22  1  0  0  0  0
  3  4  1  0  0  0  0
  3 23  1  0  0  0  0
  3 24  1  0  0  0  0
  4  5  1  0  0  0  0
  4 25  1  0  0  0  0
  5 13  1  0  0  0  0
  5  6  2  0  0  0  0
  6  7  1  0  0  0  0
  7 12  2  0  0  0  0
  7  8  1  0  0  0  0
  8  9  2  0  0  0  0
  8 26  1  0  0  0  0
  9 10  1  0  0  0  0
  9 27  1  0  0  0  0
 10 11  2  0  0  0  0
 10 28  1  0  0  0  0
 11 12  1  0  0  0  0
 11 29  1  0  0  0  0
 12 13  1  0  0  0  0
 13 14  1  0  0  0  0
 14 15  1  0  0  0  0
 14 30  1  0  0  0  0
 14 31  1  0  0  0  0
 15 19  1  0  0  0  0
 15 16  1  0  0  0  0
 15 32  1  0  0  0  0
 16 17  1  0  0  0  0
 16 33  1  0  0  0  0
 16 34  1  0  0  0  0
 17 18  1  0  0  0  0
 17 35  1  0  0  0  0
 17 36  1  0  0  0  0
 18 19  1  0  0  0  0
 18 37  1  0  0  0  0
 18 38  1  0  0  0  0
M  END
> <s_m_source_file>
AV-unprocessed.smi

> <i_m_source_file_index>
2579

> <i_lp_mmshare_version>
43012

> <i_f3d_flags>
0

> <s_epik_input>
W09IXVtDSDJdW0NIMl1bTkhdYyhuMSluKGMoYzEyKVtjSF1bY0hdW2NIXVtjSF0yKVtDSDJdW0NAQEhdM1tDSDJdW0NIMl1bQ0gyXU8z

> <s_epik_cmdline>
J2VwaWtfcHl0aG9uJywgJy1waCcsICc3LjAnLCAnLXRuJywgJzgnLCAnLW1hJywgJzIwMCcsICctbWV0YWxfYmluZGluZycsICctaW1hZScsICc8aW5maWxlLm1hZT4nLCAnLW9tYWUnLCAnPG91dGZpbGUubWFlPic=

> <r_epik_Ionization_Penalty>
1.27244

> <r_epik_Ionization_Penalty_Charging>
0

> <r_epik_Ionization_Penalty_Neutral>
1.27244

> <r_epik_State_Penalty>
1.34401

> <r_epik_Charging_Adjusted_Penalty>
1.34401

> <i_epik_Tot_Q>
0

> <i_epik_Tot_abs_Q>
0

> <r_epik_Metal_State_Penalty>
0.00511131

> <b_epik_Metal_Only>
0

> <s_lp_Force_Field>
OPLS_2005

> <r_lp_Energy>
20.4938

> <b_lp_Chiralities_Consistent>
1

> <s_lp_Variant>
AV-unprocessed.smi:2579-3

> <Gold.Version>
5.8.1

> <Gold.Id.Protein>
6NUR|6NUR_protein|mol2

> <Gold.PLP.Fitness>
45.8458

> <Gold.PLP.PLP>
-37.4301

> <Gold.PLP.part.hbond>
-3.4797

> <Gold.PLP.part.metal>
0.0000

> <Gold.PLP.part.buried>
-1.4444

> <Gold.PLP.part.nonpolar>
-32.1576

> <Gold.PLP.part.repulsive>
0.5959

> <Gold.PLP.ligand.clash>
0.0000

> <Gold.PLP.ligand.torsion>
0.2667

> <Gold.PLP.Chemscore.Hbond>
2.9750

> <Gold.PLP.Chemscore.CHOScore>
0.0000

> <Gold.PLP.Chemscore.Metal>
0.0000

> <Gold.Chemscore.Hbonds>
donor molecule, donor type, donor heavy atom, donor atom, acceptor molecule, acceptor atom, score
      L1  H     1    20       P1  7949  0.72
      P1  H  7997  8009       L1     6  0.99
      P1  H 10752 10765       L1     1  1.00

> <Gold.PLP.Chemscore.Internal.Correction>
0.0239

> <Gold.Rescore>
     Score         DG    S(hbond)    S(metal)    S(lipo)     H(rot)  DE(clash)    DE(int)     intcor
     17.67     -19.89       2.20        0.00     107.73       2.17       1.77       0.45       ----

> <Gold.Chemscore.Fitness>
17.6713

> <Gold.Chemscore.DG>
-19.8886

> <Gold.Chemscore.ZeroCoef>
-5.4800

> <Gold.Chemscore.Hbond>
2.2024

> <Gold.Chemscore.Metal>
0.0000

> <Gold.Chemscore.Lipo>
107.7336

> <Gold.Chemscore.Internal_Hbond>
0.0000

> <Gold.Chemscore.DEClash>
1.7665

> <Gold.Chemscore.DEInternal>
0.4508

> <Gold.Chemscore.Rot>
2.1688

> <Gold.Chemscore.Internal.Correction>
   9.000000E+99

> <Gold.Chemscore.Hbonds>
donor molecule, donor type, donor heavy atom, donor atom, acceptor molecule, acceptor atom, score
      L1  H     1    20       P1  7949  0.14
      P1  H  7997  8009       L1     6  0.59
      P1  H 10752 10765       L1     1  0.95

> <Gold.Chemscore.Hbond.Weighted>
-7.3559

> <Gold.Chemscore.Metal.Weighted>
-0.0000

> <Gold.Chemscore.Lipo.Weighted>
-12.6048

> <Gold.Chemscore.Internal_Hbond.Weighted>
0.0000

> <Gold.Chemscore.DEClash.Weighted>
1.7665

> <Gold.Chemscore.DEInternal.Weighted>
0.4508

> <Gold.Chemscore.Rot.Weighted>
5.5522

> <Gold.Chemscore.Internal.Correction.Weighted>
   9.000000E+99

> <Gold.Protein.RotatedTorsions>
[ 6907 6896 6895 6894 ] final  127.65 input  -60.11 | X-H torsion
[ 7974 7965 7964 7962 ] final -173.31 input  175.53 | X-H torsion
[ 8008 7997 7996 7995 ] final  176.46 input   59.86 | X-H torsion
[ 10167 10162 10161 10158 ] final -138.75 input  -65.29 | X-H torsion
[ 10718 10713 10712 10709 ] final   -4.09 input   66.30 | X-H torsion
[ 10763 10752 10751 10750 ] final  154.23 input  -60.55 | X-H torsion
[ 11005 11000 10999 10996 ] final   56.91 input  -57.11 | X-H torsion

> <Gold.Protein.ActiveResidues>
 VAL166  LYS551  ARG553  GLY616  TRP617  ASP618  TYR619  PRO620  LYS621  CYS622 
 ASP623  PHE694  ASN695  SER759  ASP760  ASP761  ALA762  ILE779  LEU786  VAL792 
 PHE793  MET794  SER795  GLU796  ALA797  LYS798  CYS799  TRP800  GLU811  SER814 

> <Gold.Protein.RotatedAtoms>
  152.3793  133.6524  159.6147 H   0  0  0  0  0  0  0  0  0  0  0  0  # atno 6907 bound_to 6896
  150.7728  133.9141  159.3387 H   0  0  0  0  0  0  0  0  0  0  0  0  # atno 6908 bound_to 6896
  151.6950  135.0941  160.0292 H   0  0  0  0  0  0  0  0  0  0  0  0  # atno 6909 bound_to 6896
  144.7139  140.1642  143.6373 H   0  0  0  0  0  0  0  0  0  0  0  0  # atno 7974 bound_to 7965
  156.0762  140.1383  156.9769 H   0  0  0  0  0  0  0  0  0  0  0  0  # atno 8008 bound_to 7997
  154.4559  140.0961  156.6805 H   0  0  0  0  0  0  0  0  0  0  0  0  # atno 8009 bound_to 7997
  155.5149  140.3454  155.4398 H   0  0  0  0  0  0  0  0  0  0  0  0  # atno 8010 bound_to 7997
  139.8447  143.7276  152.2661 H   0  0  0  0  0  0  0  0  0  0  0  0  # atno 10167 bound_to 10162
  156.7664  130.5286  149.5775 H   0  0  0  0  0  0  0  0  0  0  0  0  # atno 10718 bound_to 10713
  154.1489  135.2816  155.3140 H   0  0  0  0  0  0  0  0  0  0  0  0  # atno 10763 bound_to 10752
  154.6232  135.5460  153.7601 H   0  0  0  0  0  0  0  0  0  0  0  0  # atno 10764 bound_to 10752
  153.0227  135.6444  154.1634 H   0  0  0  0  0  0  0  0  0  0  0  0  # atno 10765 bound_to 10752
  140.0493  134.5760  155.9284 H   0  0  0  0  0  0  0  0  0  0  0  0  # atno 11005 bound_to 11000
  145.9003  139.2426  143.1497 LP  0  0  0  0  0  0  0  0  0  0  0  0  # atno 17320 bound_to 7965
  145.9817  140.8677  143.0111 LP  0  0  0  0  0  0  0  0  0  0  0  0  # atno 17321 bound_to 7965
  139.7524  144.7530  151.0486 LP  0  0  0  0  0  0  0  0  0  0  0  0  # atno 17342 bound_to 10162
  140.7794  143.4845  150.9975 LP  0  0  0  0  0  0  0  0  0  0  0  0  # atno 17343 bound_to 10162
  156.1306  130.6175  151.0328 LP  0  0  0  0  0  0  0  0  0  0  0  0  # atno 17370 bound_to 10713
  157.6711  131.0861  150.7609 LP  0  0  0  0  0  0  0  0  0  0  0  0  # atno 17371 bound_to 10713
  141.1922  133.6574  156.5493 LP  0  0  0  0  0  0  0  0  0  0  0  0  # atno 17394 bound_to 11000
  140.3943  134.7412  157.4741 LP  0  0  0  0  0  0  0  0  0  0  0  0  # atno 17395 bound_to 11000

$$$$
