AV-unprocessed.smi:3241|AV-procd|sdf|12387|dock5
  -GOLD-   2272018253D 1   1.00000     0.00000
 Structure written by MMmdl.
 44 45  0  0  0  0  0  0  0  0  2 V2000
  150.9792  139.0097  154.6665 C   0  0  0  0  0  0  0  0  0  0  0  0
  150.1286  140.2521  154.9757 C   0  0  2  0  0  0  0  0  0  0  0  0
  149.6145  140.2493  156.4292 C   0  0  0  0  0  0  0  0  0  0  0  0
  148.7912  141.5103  156.7370 C   0  0  0  0  0  0  0  0  0  0  0  0
  147.6303  141.6756  155.7444 C   0  0  0  0  0  0  0  0  0  0  0  0
  148.1345  141.6793  154.2917 C   0  0  0  0  0  0  0  0  0  0  0  0
  148.9661  140.4199  153.9724 C   0  0  2  0  0  0  0  0  0  0  0  0
  148.1388  139.2643  154.0437 O   0  0  0  0  0  0  0  0  0  0  0  0
  147.1303  139.2005  153.0478 C   0  0  0  0  0  0  0  0  0  0  0  0
  146.3177  137.9205  153.2644 C   0  0  0  0  0  0  0  0  0  0  0  0
  146.2331  137.1383  152.0160 N   0  3  0  0  0  0  0  0  0  0  0  0
  145.4157  135.9131  152.1179 C   0  0  0  0  0  0  0  0  0  0  0  0
  145.0713  135.3458  150.7311 C   0  0  0  0  0  0  0  0  0  0  0  0
  145.1417  133.8958  150.6922 N   0  0  0  0  0  0  0  0  0  0  0  0
  144.1231  132.9928  150.4716 C   0  0  0  0  0  0  0  0  0  0  0  0
  144.6710  131.7430  150.5236 C   0  0  0  0  0  0  0  0  0  0  0  0
  146.0481  131.9869  150.7855 C   0  0  0  0  0  0  0  0  0  0  0  0
  146.3274  133.2767  150.8825 N   0  0  0  0  0  0  0  0  0  0  0  0
  150.4022  138.0909  154.7763 H   0  0  0  0  0  0  0  0  0  0  0  0
  151.8355  138.9446  155.3382 H   0  0  0  0  0  0  0  0  0  0  0  0
  151.3631  139.0412  153.6466 H   0  0  0  0  0  0  0  0  0  0  0  0
  150.7822  141.1185  154.8639 H   0  0  0  0  0  0  0  0  0  0  0  0
  149.0043  139.3626  156.6063 H   0  0  0  0  0  0  0  0  0  0  0  0
  150.4550  140.1862  157.1214 H   0  0  0  0  0  0  0  0  0  0  0  0
  148.4057  141.4626  157.7557 H   0  0  0  0  0  0  0  0  0  0  0  0
  149.4375  142.3876  156.6921 H   0  0  0  0  0  0  0  0  0  0  0  0
  146.9131  140.8654  155.8826 H   0  0  0  0  0  0  0  0  0  0  0  0
  147.0929  142.6011  155.9535 H   0  0  0  0  0  0  0  0  0  0  0  0
  147.2921  141.7689  153.6061 H   0  0  0  0  0  0  0  0  0  0  0  0
  148.7499  142.5652  154.1301 H   0  0  0  0  0  0  0  0  0  0  0  0
  149.3931  140.5141  152.9720 H   0  0  0  0  0  0  0  0  0  0  0  0
  146.4763  140.0705  153.1132 H   0  0  0  0  0  0  0  0  0  0  0  0
  147.5770  139.1975  152.0523 H   0  0  0  0  0  0  0  0  0  0  0  0
  146.7716  137.3127  154.0483 H   0  0  0  0  0  0  0  0  0  0  0  0
  145.3109  138.1780  153.5956 H   0  0  0  0  0  0  0  0  0  0  0  0
  145.8409  137.7225  151.2910 H   0  0  0  0  0  0  0  0  0  0  0  0
  145.9689  135.1649  152.6870 H   0  0  0  0  0  0  0  0  0  0  0  0
  144.5033  136.1294  152.6752 H   0  0  0  0  0  0  0  0  0  0  0  0
  144.0740  135.6636  150.4227 H   0  0  0  0  0  0  0  0  0  0  0  0
  145.7659  135.7396  149.9883 H   0  0  0  0  0  0  0  0  0  0  0  0
  143.1054  133.3099  150.2978 H   0  0  0  0  0  0  0  0  0  0  0  0
  144.1650  130.7974  150.3958 H   0  0  0  0  0  0  0  0  0  0  0  0
  146.8475  131.2707  150.9056 H   0  0  0  0  0  0  0  0  0  0  0  0
  147.1702  136.8782  151.7423 H   0  0  0  0  0  0  0  0  0  0  0  0
  1  2  1  0  0  0  0
  1 19  1  0  0  0  0
  1 20  1  0  0  0  0
  1 21  1  0  0  0  0
  2  7  1  0  0  0  0
  2  3  1  0  0  0  0
  2 22  1  0  0  0  0
  3  4  1  0  0  0  0
  3 23  1  0  0  0  0
  3 24  1  0  0  0  0
  4  5  1  0  0  0  0
  4 25  1  0  0  0  0
  4 26  1  0  0  0  0
  5  6  1  0  0  0  0
  5 27  1  0  0  0  0
  5 28  1  0  0  0  0
  6  7  1  0  0  0  0
  6 29  1  0  0  0  0
  6 30  1  0  0  0  0
  7  8  1  0  0  0  0
  7 31  1  0  0  0  0
  8  9  1  0  0  0  0
  9 10  1  0  0  0  0
  9 32  1  0  0  0  0
  9 33  1  0  0  0  0
 10 11  1  0  0  0  0
 10 34  1  0  0  0  0
 10 35  1  0  0  0  0
 11 12  1  0  0  0  0
 11 36  1  0  0  0  0
 11 44  1  0  0  0  0
 12 13  1  0  0  0  0
 12 37  1  0  0  0  0
 12 38  1  0  0  0  0
 13 14  1  0  0  0  0
 13 39  1  0  0  0  0
 13 40  1  0  0  0  0
 14 18  1  0  0  0  0
 14 15  1  0  0  0  0
 15 16  2  0  0  0  0
 15 41  1  0  0  0  0
 16 17  1  0  0  0  0
 16 42  1  0  0  0  0
 17 18  2  0  0  0  0
 17 43  1  0  0  0  0
M  CHG  1  11   1
M  END
> <s_m_source_file>
AV-unprocessed.smi

> <i_m_source_file_index>
3241

> <i_lp_mmshare_version>
43012

> <i_f3d_flags>
0

> <s_epik_input>
W0NIM11bQ0BASF0xW0NIMl1bQ0gyXVtDSDJdW0NIMl1bQ0BIXTFPW0NIMl1bQ0gyXVtOSF1bQ0gyXVtDSDJdbjJbY0hdW2NIXVtjSF1uMg==

> <s_epik_cmdline>
J2VwaWtfcHl0aG9uJywgJy1waCcsICc3LjAnLCAnLXRuJywgJzgnLCAnLW1hJywgJzIwMCcsICctbWV0YWxfYmluZGluZycsICctaW1hZScsICc8aW5maWxlLm1hZT4nLCAnLW9tYWUnLCAnPG91dGZpbGUubWFlPic=

> <r_lp_tautomer_probability>
1

> <r_epik_Ionization_Penalty>
0.00924946

> <r_epik_Ionization_Penalty_Charging>
0.00924645

> <r_epik_Ionization_Penalty_Neutral>
3.00629e-06

> <r_epik_State_Penalty>
0.0070118

> <r_epik_Charging_Adjusted_Penalty>
0.0162583

> <i_epik_Tot_Q>
1

> <i_epik_Tot_abs_Q>
1

> <r_epik_Metal_State_Penalty>
0.00702523

> <b_epik_Metal_Only>
0

> <s_lp_Force_Field>
OPLS_2005

> <r_lp_Energy>
14.6648

> <b_lp_Chiralities_Consistent>
1

> <s_lp_Variant>
AV-unprocessed.smi:3241-3

> <Gold.Version>
5.8.1

> <Gold.Id.Protein>
6NUR|6NUR_protein|mol2

> <Gold.PLP.Fitness>
45.2737

> <Gold.PLP.PLP>
-34.6102

> <Gold.PLP.part.hbond>
-1.0000

> <Gold.PLP.part.metal>
0.0000

> <Gold.PLP.part.buried>
-3.3456

> <Gold.PLP.part.nonpolar>
-31.0533

> <Gold.PLP.part.repulsive>
0.3969

> <Gold.PLP.ligand.clash>
0.0000

> <Gold.PLP.ligand.torsion>
0.7407

> <Gold.PLP.Chemscore.Hbond>
2.0000

> <Gold.PLP.Chemscore.CHOScore>
2.0000

> <Gold.PLP.Chemscore.Metal>
0.0000

> <Gold.Chemscore.Hbonds>
donor molecule, donor type, donor heavy atom, donor atom, acceptor molecule, acceptor atom, score
      L1  H    11    44       P1  7948  2.00
      L1  C    15    41       P1 10186  1.00
      L1  C    17    43       P1 10747  1.00

> <Gold.PLP.Chemscore.Internal.Correction>
0.1449

> <Gold.Rescore>
     Score         DG    S(hbond)    S(metal)    S(lipo)     H(rot)  DE(clash)    DE(int)     intcor
     13.88     -14.75       0.99        0.00      92.25       1.89       0.09       0.78       ----

> <Gold.Chemscore.Fitness>
13.8807

> <Gold.Chemscore.DG>
-14.7499

> <Gold.Chemscore.ZeroCoef>
-5.4800

> <Gold.Chemscore.Hbond>
0.9930

> <Gold.Chemscore.Metal>
0.0000

> <Gold.Chemscore.Lipo>
92.2515

> <Gold.Chemscore.Internal_Hbond>
0.0000

> <Gold.Chemscore.DEClash>
0.0939

> <Gold.Chemscore.DEInternal>
0.7754

> <Gold.Chemscore.Rot>
1.8906

> <Gold.Chemscore.Internal.Correction>
   9.000000E+99

> <Gold.Chemscore.Hbonds>
donor molecule, donor type, donor heavy atom, donor atom, acceptor molecule, acceptor atom, score
      L1  H    11    44       P1  7948  1.00

> <Gold.Chemscore.Hbond.Weighted>
-3.3166

> <Gold.Chemscore.Metal.Weighted>
-0.0000

> <Gold.Chemscore.Lipo.Weighted>
-10.7934

> <Gold.Chemscore.Internal_Hbond.Weighted>
0.0000

> <Gold.Chemscore.DEClash.Weighted>
0.0939

> <Gold.Chemscore.DEInternal.Weighted>
0.7754

> <Gold.Chemscore.Rot.Weighted>
4.8400

> <Gold.Chemscore.Internal.Correction.Weighted>
   9.000000E+99

> <Gold.Protein.RotatedTorsions>
[ 6907 6896 6895 6894 ] final  165.65 input  -60.11 | X-H torsion
[ 7974 7965 7964 7962 ] final  -64.75 input  175.53 | X-H torsion
[ 8008 7997 7996 7995 ] final  129.27 input   59.86 | X-H torsion
[ 10167 10162 10161 10158 ] final   51.84 input  -65.29 | X-H torsion
[ 10718 10713 10712 10709 ] final  117.90 input   66.30 | X-H torsion
[ 10763 10752 10751 10750 ] final  -72.16 input  -60.55 | X-H torsion
[ 11005 11000 10999 10996 ] final    0.38 input  -57.11 | X-H torsion

> <Gold.Protein.ActiveResidues>
 VAL166  LYS551  ARG553  GLY616  TRP617  ASP618  TYR619  PRO620  LYS621  CYS622 
 ASP623  PHE694  ASN695  SER759  ASP760  ASP761  ALA762  ILE779  LEU786  VAL792 
 PHE793  MET794  SER795  GLU796  ALA797  LYS798  CYS799  TRP800  GLU811  SER814 

> <Gold.Protein.RotatedAtoms>
  151.8911  133.3516  159.3798 H   0  0  0  0  0  0  0  0  0  0  0  0  # atno 6907 bound_to 6896
  150.7103  134.4923  159.5531 H   0  0  0  0  0  0  0  0  0  0  0  0  # atno 6908 bound_to 6896
  152.2493  134.8149  160.0499 H   0  0  0  0  0  0  0  0  0  0  0  0  # atno 6909 bound_to 6896
  145.7629  140.8852  143.0420 H   0  0  0  0  0  0  0  0  0  0  0  0  # atno 7974 bound_to 7965
  156.2932  140.2624  156.2571 H   0  0  0  0  0  0  0  0  0  0  0  0  # atno 8008 bound_to 7997
  154.9825  140.0389  157.2302 H   0  0  0  0  0  0  0  0  0  0  0  0  # atno 8009 bound_to 7997
  154.7759  140.2786  155.6106 H   0  0  0  0  0  0  0  0  0  0  0  0  # atno 8010 bound_to 7997
  140.2576  144.3409  150.6328 H   0  0  0  0  0  0  0  0  0  0  0  0  # atno 10167 bound_to 10162
  157.6066  131.1042  150.7680 H   0  0  0  0  0  0  0  0  0  0  0  0  # atno 10718 bound_to 10713
  154.4418  135.5939  153.6134 H   0  0  0  0  0  0  0  0  0  0  0  0  # atno 10763 bound_to 10752
  152.9806  135.6000  154.3713 H   0  0  0  0  0  0  0  0  0  0  0  0  # atno 10764 bound_to 10752
  154.3564  135.2841  155.2323 H   0  0  0  0  0  0  0  0  0  0  0  0  # atno 10765 bound_to 10752
  140.6272  133.9608  155.8255 H   0  0  0  0  0  0  0  0  0  0  0  0  # atno 11005 bound_to 11000
  144.6827  139.9748  143.7482 LP  0  0  0  0  0  0  0  0  0  0  0  0  # atno 17320 bound_to 7965
  146.0246  139.3281  143.0792 LP  0  0  0  0  0  0  0  0  0  0  0  0  # atno 17321 bound_to 7965
  140.5991  143.2167  151.7107 LP  0  0  0  0  0  0  0  0  0  0  0  0  # atno 17342 bound_to 10162
  139.5026  144.3821  152.0366 LP  0  0  0  0  0  0  0  0  0  0  0  0  # atno 17343 bound_to 10162
  156.8067  130.4939  149.5362 LP  0  0  0  0  0  0  0  0  0  0  0  0  # atno 17370 bound_to 10713
  156.1154  130.6071  151.0113 LP  0  0  0  0  0  0  0  0  0  0  0  0  # atno 17371 bound_to 10713
  141.0701  134.0218  157.3538 LP  0  0  0  0  0  0  0  0  0  0  0  0  # atno 17394 bound_to 11000
  139.9130  135.0193  156.7769 LP  0  0  0  0  0  0  0  0  0  0  0  0  # atno 17395 bound_to 11000

$$$$
