AV-unprocessed.smi:2706|AV-procd|sdf|10446|dock7
  -GOLD-   2272014493D 1   1.00000     0.00000
 Structure written by MMmdl.
 43 46  0  0  0  0  0  0  0  0  1 V2000
  153.2082  142.7552  162.3650 C   0  0  0  0  0  0  0  0  0  0  0  0
  153.2050  142.3787  160.9547 N   0  0  0  0  0  0  0  0  0  0  0  0
  153.9309  141.1938  160.5149 C   0  0  0  0  0  0  0  0  0  0  0  0
  152.4979  143.1683  160.0196 C   0  0  0  0  0  0  0  0  0  0  0  0
  152.4168  144.5757  160.1467 C   0  0  0  0  0  0  0  0  0  0  0  0
  151.7019  145.3058  159.1804 C   0  0  0  0  0  0  0  0  0  0  0  0
  151.0899  144.6161  158.1185 C   0  0  0  0  0  0  0  0  0  0  0  0
  151.2055  143.2118  158.0529 C   0  0  0  0  0  0  0  0  0  0  0  0
  150.5585  142.5999  156.9463 N   0  0  0  0  0  0  0  0  0  0  0  0
  150.8348  141.4123  156.3783 C   0  0  0  0  0  0  0  0  0  0  0  0
  151.7003  140.6245  156.7621 O   0  0  0  0  0  0  0  0  0  0  0  0
  150.0360  141.1807  155.3276 N   0  0  0  0  0  0  0  0  0  0  0  0
  150.0481  140.0037  154.5188 C   0  0  2  0  0  0  0  0  0  0  0  0
  149.0932  139.8477  153.3414 C   0  0  2  0  0  0  0  0  0  0  0  0
  147.7252  140.4978  153.1223 C   0  0  1  0  0  0  0  0  0  0  0  0
  146.7705  139.3935  152.6192 C   0  0  0  0  0  0  0  0  0  0  0  0
  146.5604  138.5314  153.8904 C   0  0  0  0  0  0  0  0  0  0  0  0
  147.4257  139.2675  154.9367 C   0  0  2  0  0  0  0  0  0  0  0  0
  147.1416  140.7104  154.5189 C   0  0  0  0  0  0  0  0  0  0  0  0
  148.8908  139.0129  154.5733 C   0  0  2  0  0  0  0  0  0  0  0  0
  151.8984  142.5219  158.9908 N   0  0  0  0  0  0  0  0  0  0  0  0
  153.6625  143.7376  162.4977 H   0  0  0  0  0  0  0  0  0  0  0  0
  153.7712  142.0424  162.9674 H   0  0  0  0  0  0  0  0  0  0  0  0
  152.1903  142.7904  162.7554 H   0  0  0  0  0  0  0  0  0  0  0  0
  154.6883  141.4602  159.7773 H   0  0  0  0  0  0  0  0  0  0  0  0
  153.2485  140.4690  160.0699 H   0  0  0  0  0  0  0  0  0  0  0  0
  154.4364  140.7063  161.3486 H   0  0  0  0  0  0  0  0  0  0  0  0
  152.8873  145.1069  160.9601 H   0  0  0  0  0  0  0  0  0  0  0  0
  151.6250  146.3806  159.2523 H   0  0  0  0  0  0  0  0  0  0  0  0
  150.5380  145.1627  157.3676 H   0  0  0  0  0  0  0  0  0  0  0  0
  149.8012  143.1283  156.5393 H   0  0  0  0  0  0  0  0  0  0  0  0
  149.3567  141.8866  155.0839 H   0  0  0  0  0  0  0  0  0  0  0  0
  151.0252  139.5439  154.3778 H   0  0  0  0  0  0  0  0  0  0  0  0
  149.5101  139.3600  152.4620 H   0  0  0  0  0  0  0  0  0  0  0  0
  147.7724  141.3847  152.4904 H   0  0  0  0  0  0  0  0  0  0  0  0
  145.8246  139.8169  152.2789 H   0  0  0  0  0  0  0  0  0  0  0  0
  147.1964  138.8211  151.7940 H   0  0  0  0  0  0  0  0  0  0  0  0
  145.5098  138.5252  154.1833 H   0  0  0  0  0  0  0  0  0  0  0  0
  146.8732  137.4962  153.7476 H   0  0  0  0  0  0  0  0  0  0  0  0
  147.1962  139.0231  155.9741 H   0  0  0  0  0  0  0  0  0  0  0  0
  147.6331  141.4731  155.1158 H   0  0  0  0  0  0  0  0  0  0  0  0
  146.0771  140.9549  154.5085 H   0  0  0  0  0  0  0  0  0  0  0  0
  149.1701  137.9619  154.5244 H   0  0  0  0  0  0  0  0  0  0  0  0
  1  2  1  0  0  0  0
  1 22  1  0  0  0  0
  1 23  1  0  0  0  0
  1 24  1  0  0  0  0
  2  3  1  0  0  0  0
  2  4  1  0  0  0  0
  3 25  1  0  0  0  0
  3 26  1  0  0  0  0
  3 27  1  0  0  0  0
  4 21  1  0  0  0  0
  4  5  2  0  0  0  0
  5  6  1  0  0  0  0
  5 28  1  0  0  0  0
  6  7  2  0  0  0  0
  6 29  1  0  0  0  0
  7  8  1  0  0  0  0
  7 30  1  0  0  0  0
  8  9  1  0  0  0  0
  8 21  2  0  0  0  0
  9 10  1  0  0  0  0
  9 31  1  0  0  0  0
 10 11  2  0  0  0  0
 10 12  1  0  0  0  0
 12 13  1  0  0  0  0
 12 32  1  0  0  0  0
 13 20  1  0  0  0  0
 13 14  1  0  0  0  0
 13 33  1  0  0  0  0
 14 20  1  0  0  0  0
 14 15  1  0  0  0  0
 14 34  1  0  0  0  0
 15 19  1  0  0  0  0
 15 16  1  0  0  0  0
 15 35  1  0  0  0  0
 16 17  1  0  0  0  0
 16 36  1  0  0  0  0
 16 37  1  0  0  0  0
 17 18  1  0  0  0  0
 17 38  1  0  0  0  0
 17 39  1  0  0  0  0
 18 19  1  0  0  0  0
 18 20  1  0  0  0  0
 18 40  1  0  0  0  0
 19 41  1  0  0  0  0
 19 42  1  0  0  0  0
 20 43  1  0  0  0  0
M  END
> <s_m_source_file>
AV-unprocessed.smi

> <i_m_source_file_index>
2706

> <i_lp_mmshare_version>
43012

> <i_f3d_flags>
0

> <s_epik_input>
W0NIM11OKFtDSDNdKWMxW2NIXVtjSF1bY0hdYyhuMSlbTkhdQyg9TylbTkhdW0NASF0yW0NAQEhdM1tDQEBIXShbQ0gyXTQpW0NIMl1bQ0gyXVtDQEBIXTRbQ0BIXTIz

> <s_epik_cmdline>
J2VwaWtfcHl0aG9uJywgJy1waCcsICc3LjAnLCAnLXRuJywgJzgnLCAnLW1hJywgJzIwMCcsICctbWV0YWxfYmluZGluZycsICctaW1hZScsICc8aW5maWxlLm1hZT4nLCAnLW9tYWUnLCAnPG91dGZpbGUubWFlPic=

> <r_lp_tautomer_probability>
1

> <r_epik_Ionization_Penalty>
0.0296788

> <r_epik_Ionization_Penalty_Charging>
0

> <r_epik_Ionization_Penalty_Neutral>
0.0296788

> <r_epik_State_Penalty>
0.0248512

> <r_epik_Charging_Adjusted_Penalty>
0.0248512

> <i_epik_Tot_Q>
0

> <i_epik_Tot_abs_Q>
0

> <r_epik_Metal_State_Penalty>
0.0237882

> <b_epik_Metal_Only>
0

> <s_lp_Force_Field>
OPLS_2005

> <r_lp_Energy>
83.6561

> <b_lp_Chiralities_Consistent>
1

> <s_lp_Variant>
AV-unprocessed.smi:2706-3

> <Gold.Version>
5.8.1

> <Gold.Id.Protein>
6NUR|6NUR_protein|mol2

> <Gold.PLP.Fitness>
44.3551

> <Gold.PLP.PLP>
-42.6656

> <Gold.PLP.part.hbond>
-1.0000

> <Gold.PLP.part.metal>
0.0000

> <Gold.PLP.part.buried>
3.4767

> <Gold.PLP.part.nonpolar>
-44.1510

> <Gold.PLP.part.repulsive>
0.1824

> <Gold.PLP.ligand.clash>
0.0000

> <Gold.PLP.ligand.torsion>
0.6675

> <Gold.PLP.Chemscore.Hbond>
0.9913

> <Gold.PLP.Chemscore.CHOScore>
0.0000

> <Gold.PLP.Chemscore.Metal>
0.0000

> <Gold.Chemscore.Hbonds>
donor molecule, donor type, donor heavy atom, donor atom, acceptor molecule, acceptor atom, score
      L1  H     9    31       P1  8028  0.99

> <Gold.PLP.Chemscore.Internal.Correction>
0.0508

> <Gold.Rescore>
     Score         DG    S(hbond)    S(metal)    S(lipo)     H(rot)  DE(clash)    DE(int)     intcor
     13.40     -18.79       0.88        0.00     110.63       1.00       3.58       1.81       ----

> <Gold.Chemscore.Fitness>
13.4036

> <Gold.Chemscore.DG>
-18.7947

> <Gold.Chemscore.ZeroCoef>
-5.4800

> <Gold.Chemscore.Hbond>
0.8774

> <Gold.Chemscore.Metal>
0.0000

> <Gold.Chemscore.Lipo>
110.6340

> <Gold.Chemscore.Internal_Hbond>
0.0000

> <Gold.Chemscore.DEClash>
3.5832

> <Gold.Chemscore.DEInternal>
1.8079

> <Gold.Chemscore.Rot>
1.0000

> <Gold.Chemscore.Internal.Correction>
   9.000000E+99

> <Gold.Chemscore.Hbonds>
donor molecule, donor type, donor heavy atom, donor atom, acceptor molecule, acceptor atom, score
      L1  H     9    31       P1  8028  0.91

> <Gold.Chemscore.Hbond.Weighted>
-2.9305

> <Gold.Chemscore.Metal.Weighted>
-0.0000

> <Gold.Chemscore.Lipo.Weighted>
-12.9442

> <Gold.Chemscore.Internal_Hbond.Weighted>
0.0000

> <Gold.Chemscore.DEClash.Weighted>
3.5832

> <Gold.Chemscore.DEInternal.Weighted>
1.8079

> <Gold.Chemscore.Rot.Weighted>
2.5600

> <Gold.Chemscore.Internal.Correction.Weighted>
   9.000000E+99

> <Gold.Protein.RotatedTorsions>
[ 6907 6896 6895 6894 ] final  156.63 input  -60.11 | X-H torsion
[ 7974 7965 7964 7962 ] final  -92.90 input  175.53 | X-H torsion
[ 8008 7997 7996 7995 ] final  -37.78 input   59.86 | X-H torsion
[ 10167 10162 10161 10158 ] final  -56.20 input  -65.29 | X-H torsion
[ 10718 10713 10712 10709 ] final   59.13 input   66.30 | X-H torsion
[ 10763 10752 10751 10750 ] final  -56.14 input  -60.55 | X-H torsion
[ 11005 11000 10999 10996 ] final   -9.47 input  -57.11 | X-H torsion

> <Gold.Protein.ActiveResidues>
 VAL166  LYS551  ARG553  GLY616  TRP617  ASP618  TYR619  PRO620  LYS621  CYS622 
 ASP623  PHE694  ASN695  SER759  ASP760  ASP761  ALA762  ILE779  LEU786  VAL792 
 PHE793  MET794  SER795  GLU796  ALA797  LYS798  CYS799  TRP800  GLU811  SER814 

> <Gold.Protein.RotatedAtoms>
  152.0269  133.3921  159.4280 H   0  0  0  0  0  0  0  0  0  0  0  0  # atno 6907 bound_to 6896
  150.6885  134.3564  159.4941 H   0  0  0  0  0  0  0  0  0  0  0  0  # atno 6908 bound_to 6896
  152.1345  134.9109  160.0607 H   0  0  0  0  0  0  0  0  0  0  0  0  # atno 6909 bound_to 6896
  145.3936  140.9530  143.2326 H   0  0  0  0  0  0  0  0  0  0  0  0  # atno 7974 bound_to 7965
  154.4047  140.1595  156.2593 H   0  0  0  0  0  0  0  0  0  0  0  0  # atno 8008 bound_to 7997
  155.9050  140.3431  155.6033 H   0  0  0  0  0  0  0  0  0  0  0  0  # atno 8009 bound_to 7997
  155.7403  140.0791  157.2239 H   0  0  0  0  0  0  0  0  0  0  0  0  # atno 8010 bound_to 7997
  140.6331  143.2469  151.5190 H   0  0  0  0  0  0  0  0  0  0  0  0  # atno 10167 bound_to 10162
  157.5651  130.8865  149.9174 H   0  0  0  0  0  0  0  0  0  0  0  0  # atno 10718 bound_to 10713
  154.2019  135.6409  153.5089 H   0  0  0  0  0  0  0  0  0  0  0  0  # atno 10763 bound_to 10752
  153.0010  135.5453  154.6306 H   0  0  0  0  0  0  0  0  0  0  0  0  # atno 10764 bound_to 10752
  154.5721  135.2918  155.0790 H   0  0  0  0  0  0  0  0  0  0  0  0  # atno 10765 bound_to 10752
  140.7344  133.8722  155.8918 H   0  0  0  0  0  0  0  0  0  0  0  0  # atno 11005 bound_to 11000
  144.8423  139.5453  143.6895 LP  0  0  0  0  0  0  0  0  0  0  0  0  # atno 17320 bound_to 7965
  146.2786  139.6816  142.9245 LP  0  0  0  0  0  0  0  0  0  0  0  0  # atno 17321 bound_to 7965
  139.5543  144.2315  152.1585 LP  0  0  0  0  0  0  0  0  0  0  0  0  # atno 17342 bound_to 10162
  140.1564  144.5067  150.6657 LP  0  0  0  0  0  0  0  0  0  0  0  0  # atno 17343 bound_to 10162
  156.0700  130.3686  150.0796 LP  0  0  0  0  0  0  0  0  0  0  0  0  # atno 17370 bound_to 10713
  156.8956  130.9603  151.3583 LP  0  0  0  0  0  0  0  0  0  0  0  0  # atno 17371 bound_to 10713
  140.9892  134.1301  157.4424 LP  0  0  0  0  0  0  0  0  0  0  0  0  # atno 17394 bound_to 11000
  139.8819  135.0035  156.6191 LP  0  0  0  0  0  0  0  0  0  0  0  0  # atno 17395 bound_to 11000

$$$$
