AV-unprocessed.smi:2265|AV-procd|sdf|9144|dock6
  -GOLD-   2272012353D 1   1.00000     0.00000
 Structure written by MMmdl.
 36 37  0  0  0  0  0  0  0  0  1 V2000
  147.4963  144.8758  160.7794 C   0  0  0  0  0  0  0  0  0  0  0  0
  148.9486  145.2533  161.0899 C   0  0  0  0  0  0  0  0  0  0  0  0
  149.9268  144.7625  160.0145 C   0  0  0  0  0  0  0  0  0  0  0  0
  151.3641  145.1393  160.3275 C   0  0  1  0  0  0  0  0  0  0  0  0
  152.1478  144.4025  161.3811 C   0  0  0  0  0  0  0  0  0  0  0  0
  152.5364  144.2675  159.9227 C   0  0  1  0  0  0  0  0  0  0  0  0
  152.2899  143.0021  159.2974 N   0  0  0  0  0  0  0  0  0  0  0  0
  151.6360  142.7691  158.1455 C   0  0  0  0  0  0  0  0  0  0  0  0
  151.1946  143.7004  157.4727 O   0  0  0  0  0  0  0  0  0  0  0  0
  151.5652  141.4611  157.8127 N   0  0  0  0  0  0  0  0  0  0  0  0
  150.9893  140.8826  156.6751 C   0  0  0  0  0  0  0  0  0  0  0  0
  149.9082  141.3406  156.1080 N   0  0  0  0  0  0  0  0  0  0  0  0
  149.3622  140.7371  154.9751 C   0  0  0  0  0  0  0  0  0  0  0  0
  149.9362  139.6506  154.4277 C   0  0  0  0  0  0  0  0  0  0  0  0
  151.0986  139.0985  154.9837 N   0  0  0  0  0  0  0  0  0  0  0  0
  151.6837  137.9186  154.3462 C   0  0  0  0  0  0  0  0  0  0  0  0
  151.6776  139.6483  156.0856 C   0  0  0  0  0  0  0  0  0  0  0  0
  152.7018  139.2023  156.6068 O   0  0  0  0  0  0  0  0  0  0  0  0
  146.8261  145.2347  161.5606 H   0  0  0  0  0  0  0  0  0  0  0  0
  147.3766  143.7945  160.7090 H   0  0  0  0  0  0  0  0  0  0  0  0
  147.1698  145.3117  159.8349 H   0  0  0  0  0  0  0  0  0  0  0  0
  149.0248  146.3367  161.1877 H   0  0  0  0  0  0  0  0  0  0  0  0
  149.2300  144.8356  162.0574 H   0  0  0  0  0  0  0  0  0  0  0  0
  149.8454  143.6797  159.9137 H   0  0  0  0  0  0  0  0  0  0  0  0
  149.6629  145.1895  159.0464 H   0  0  0  0  0  0  0  0  0  0  0  0
  151.5470  146.2104  160.2629 H   0  0  0  0  0  0  0  0  0  0  0  0
  152.7996  144.9919  162.0227 H   0  0  0  0  0  0  0  0  0  0  0  0
  151.6702  143.5512  161.8625 H   0  0  0  0  0  0  0  0  0  0  0  0
  153.4555  144.7835  159.6487 H   0  0  0  0  0  0  0  0  0  0  0  0
  152.7247  142.2038  159.7372 H   0  0  0  0  0  0  0  0  0  0  0  0
  151.9975  140.8256  158.4674 H   0  0  0  0  0  0  0  0  0  0  0  0
  148.4672  141.1849  154.5694 H   0  0  0  0  0  0  0  0  0  0  0  0
  149.5514  139.1501  153.5512 H   0  0  0  0  0  0  0  0  0  0  0  0
  152.6587  138.1615  153.9220 H   0  0  0  0  0  0  0  0  0  0  0  0
  151.0611  137.5285  153.5403 H   0  0  0  0  0  0  0  0  0  0  0  0
  151.8186  137.1139  155.0704 H   0  0  0  0  0  0  0  0  0  0  0  0
  1  2  1  0  0  0  0
  1 19  1  0  0  0  0
  1 20  1  0  0  0  0
  1 21  1  0  0  0  0
  2  3  1  0  0  0  0
  2 22  1  0  0  0  0
  2 23  1  0  0  0  0
  3  4  1  0  0  0  0
  3 24  1  0  0  0  0
  3 25  1  0  0  0  0
  4  6  1  0  0  0  0
  4  5  1  0  0  0  0
  4 26  1  0  0  0  0
  5  6  1  0  0  0  0
  5 27  1  0  0  0  0
  5 28  1  0  0  0  0
  6  7  1  0  0  0  0
  6 29  1  0  0  0  0
  7  8  1  0  0  0  0
  7 30  1  0  0  0  0
  8  9  2  0  0  0  0
  8 10  1  0  0  0  0
 10 11  1  0  0  0  0
 10 31  1  0  0  0  0
 11 17  1  0  0  0  0
 11 12  2  0  0  0  0
 12 13  1  0  0  0  0
 13 14  2  0  0  0  0
 13 32  1  0  0  0  0
 14 15  1  0  0  0  0
 14 33  1  0  0  0  0
 15 16  1  0  0  0  0
 15 17  1  0  0  0  0
 16 34  1  0  0  0  0
 16 35  1  0  0  0  0
 16 36  1  0  0  0  0
 17 18  2  0  0  0  0
M  END
> <s_m_source_file>
AV-unprocessed.smi

> <i_m_source_file_index>
2265

> <i_lp_mmshare_version>
43012

> <i_f3d_flags>
0

> <s_epik_input>
W0NIM11bQ0gyXVtDSDJdW0NAQEhdMVtDSDJdW0NASF0xW05IXUMoPU8pW05IXWMybltjSF1bY0hdbihbQ0gzXSljMj1P

> <s_epik_cmdline>
J2VwaWtfcHl0aG9uJywgJy1waCcsICc3LjAnLCAnLXRuJywgJzgnLCAnLW1hJywgJzIwMCcsICctbWV0YWxfYmluZGluZycsICctaW1hZScsICc8aW5maWxlLm1hZT4nLCAnLW9tYWUnLCAnPG91dGZpbGUubWFlPic=

> <r_lp_tautomer_probability>
1

> <r_epik_Ionization_Penalty>
0.000728552

> <r_epik_Ionization_Penalty_Charging>
1.67739e-07

> <r_epik_Ionization_Penalty_Neutral>
0.000728385

> <r_epik_State_Penalty>
-0

> <r_epik_Charging_Adjusted_Penalty>
1.67739e-07

> <i_epik_Tot_Q>
0

> <i_epik_Tot_abs_Q>
0

> <r_epik_Metal_State_Penalty>
-0

> <b_epik_Metal_Only>
0

> <s_lp_Force_Field>
OPLS_2005

> <r_lp_Energy>
43.9495

> <b_lp_Chiralities_Consistent>
1

> <s_lp_Variant>
AV-unprocessed.smi:2265-2

> <Gold.Version>
5.8.1

> <Gold.Id.Protein>
6NUR|6NUR_protein|mol2

> <Gold.PLP.Fitness>
44.5094

> <Gold.PLP.PLP>
-39.3123

> <Gold.PLP.part.hbond>
-1.0000

> <Gold.PLP.part.metal>
0.0000

> <Gold.PLP.part.buried>
-5.4329

> <Gold.PLP.part.nonpolar>
-33.6420

> <Gold.PLP.part.repulsive>
1.0850

> <Gold.PLP.ligand.clash>
0.0000

> <Gold.PLP.ligand.torsion>
0.5592

> <Gold.PLP.Chemscore.Hbond>
1.0000

> <Gold.PLP.Chemscore.CHOScore>
0.9192

> <Gold.PLP.Chemscore.Metal>
0.0000

> <Gold.Chemscore.Hbonds>
donor molecule, donor type, donor heavy atom, donor atom, acceptor molecule, acceptor atom, score
      P1  H  7997  8010       L1    18  1.00
      L1  C    14    33       P1  7957  0.89

> <Gold.PLP.Chemscore.Internal.Correction>
0.5578

> <Gold.Rescore>
     Score         DG    S(hbond)    S(metal)    S(lipo)     H(rot)  DE(clash)    DE(int)     intcor
     12.35     -14.30       1.00        0.00      78.93       1.46       0.32       1.63       ----

> <Gold.Chemscore.Fitness>
12.3492

> <Gold.Chemscore.DG>
-14.3004

> <Gold.Chemscore.ZeroCoef>
-5.4800

> <Gold.Chemscore.Hbond>
0.9954

> <Gold.Chemscore.Metal>
0.0000

> <Gold.Chemscore.Lipo>
78.9263

> <Gold.Chemscore.Internal_Hbond>
0.0000

> <Gold.Chemscore.DEClash>
0.3248

> <Gold.Chemscore.DEInternal>
1.6264

> <Gold.Chemscore.Rot>
1.4604

> <Gold.Chemscore.Internal.Correction>
   9.000000E+99

> <Gold.Chemscore.Hbonds>
donor molecule, donor type, donor heavy atom, donor atom, acceptor molecule, acceptor atom, score
      P1  H  7997  8010       L1    18  0.99

> <Gold.Chemscore.Hbond.Weighted>
-3.3247

> <Gold.Chemscore.Metal.Weighted>
-0.0000

> <Gold.Chemscore.Lipo.Weighted>
-9.2344

> <Gold.Chemscore.Internal_Hbond.Weighted>
0.0000

> <Gold.Chemscore.DEClash.Weighted>
0.3248

> <Gold.Chemscore.DEInternal.Weighted>
1.6264

> <Gold.Chemscore.Rot.Weighted>
3.7387

> <Gold.Chemscore.Internal.Correction.Weighted>
   9.000000E+99

> <Gold.Protein.RotatedTorsions>
[ 6907 6896 6895 6894 ] final  121.22 input  -60.11 | X-H torsion
[ 7974 7965 7964 7962 ] final   26.92 input  175.53 | X-H torsion
[ 8008 7997 7996 7995 ] final   64.93 input   59.86 | X-H torsion
[ 10167 10162 10161 10158 ] final -160.94 input  -65.29 | X-H torsion
[ 10718 10713 10712 10709 ] final -115.21 input   66.30 | X-H torsion
[ 10763 10752 10751 10750 ] final  -93.75 input  -60.55 | X-H torsion
[ 11005 11000 10999 10996 ] final  105.07 input  -57.11 | X-H torsion

> <Gold.Protein.ActiveResidues>
 VAL166  LYS551  ARG553  GLY616  TRP617  ASP618  TYR619  PRO620  LYS621  CYS622 
 ASP623  PHE694  ASN695  SER759  ASP760  ASP761  ALA762  ILE779  LEU786  VAL792 
 PHE793  MET794  SER795  GLU796  ALA797  LYS798  CYS799  TRP800  GLU811  SER814 

> <Gold.Protein.RotatedAtoms>
  152.4338  133.7325  159.6595 H   0  0  0  0  0  0  0  0  0  0  0  0  # atno 6907 bound_to 6896
  150.8220  133.8226  159.3141 H   0  0  0  0  0  0  0  0  0  0  0  0  # atno 6908 bound_to 6896
  151.5905  135.1056  160.0089 H   0  0  0  0  0  0  0  0  0  0  0  0  # atno 6909 bound_to 6896
  146.1812  139.7262  142.8899 H   0  0  0  0  0  0  0  0  0  0  0  0  # atno 7974 bound_to 7965
  155.6537  140.3497  155.4757 H   0  0  0  0  0  0  0  0  0  0  0  0  # atno 8008 bound_to 7997
  155.9826  140.1177  157.0735 H   0  0  0  0  0  0  0  0  0  0  0  0  # atno 8009 bound_to 7997
  154.4196  140.1135  156.5442 H   0  0  0  0  0  0  0  0  0  0  0  0  # atno 8010 bound_to 7997
  139.6502  144.0098  152.2156 H   0  0  0  0  0  0  0  0  0  0  0  0  # atno 10167 bound_to 10162
  156.0880  130.6068  150.8876 H   0  0  0  0  0  0  0  0  0  0  0  0  # atno 10718 bound_to 10713
  154.6989  135.5183  153.8498 H   0  0  0  0  0  0  0  0  0  0  0  0  # atno 10763 bound_to 10752
  153.0688  135.6594  154.0302 H   0  0  0  0  0  0  0  0  0  0  0  0  # atno 10764 bound_to 10752
  154.0164  135.2997  155.3366 H   0  0  0  0  0  0  0  0  0  0  0  0  # atno 10765 bound_to 10752
  139.8798  134.9323  156.5458 H   0  0  0  0  0  0  0  0  0  0  0  0  # atno 11005 bound_to 11000
  145.4070  141.0392  143.3038 LP  0  0  0  0  0  0  0  0  0  0  0  0  # atno 17320 bound_to 7965
  144.8318  139.5615  143.6940 LP  0  0  0  0  0  0  0  0  0  0  0  0  # atno 17321 bound_to 7965
  139.9810  144.6428  150.7901 LP  0  0  0  0  0  0  0  0  0  0  0  0  # atno 17342 bound_to 10162
  140.7534  143.3008  151.3087 LP  0  0  0  0  0  0  0  0  0  0  0  0  # atno 17343 bound_to 10162
  157.6021  131.0941  150.8942 LP  0  0  0  0  0  0  0  0  0  0  0  0  # atno 17370 bound_to 10713
  156.9097  130.5276  149.5280 LP  0  0  0  0  0  0  0  0  0  0  0  0  # atno 17371 bound_to 10713
  140.8276  133.8304  155.8954 LP  0  0  0  0  0  0  0  0  0  0  0  0  # atno 17394 bound_to 11000
  140.9359  134.1963  157.4832 LP  0  0  0  0  0  0  0  0  0  0  0  0  # atno 17395 bound_to 11000

$$$$
