AV-unprocessed.smi:49|AV-procd|sdf|485|dock2
  -GOLD-   2262016343D 1   1.00000     0.00000
 Structure written by MMmdl.
 27 28  0  0  0  0  0  0  0  0  3 V2000
  152.4624  140.4853  158.9475 C   0  0  0  0  0  0  0  0  0  0  0  0
  151.8472  139.2260  158.3292 C   0  0  0  0  0  0  0  0  0  0  0  0
  151.5503  139.4014  156.8560 C   0  0  0  0  0  0  0  0  0  0  0  0
  150.3502  139.3264  156.2890 N   0  0  0  0  0  0  0  0  0  0  0  0
  150.5433  139.5867  154.9895 C   0  0  0  0  0  0  0  0  0  0  0  0
  149.4456  139.5733  153.9464 C   0  0  2  0  0  0  0  0  0  0  0  0
  148.3872  140.6569  154.1637 C   0  0  0  0  0  0  0  0  0  0  0  0
  147.1728  140.0770  153.4466 C   0  0  2  0  0  0  0  0  0  0  0  0
  145.9620  140.6343  153.9124 O   0  0  0  0  0  0  0  0  0  0  0  0
  147.2746  138.5776  153.7445 C   0  0  0  0  0  0  0  0  0  0  0  0
  148.7117  138.2924  153.9286 N   0  3  0  0  0  0  0  0  0  0  0  0
  151.8422  139.8139  154.7376 N   0  0  0  0  0  0  0  0  0  0  0  0
  152.4471  139.7105  155.9025 N   0  5  0  0  0  0  0  0  0  0  0  0
  149.8928  139.7045  152.9598 H   0  0  0  0  0  0  0  0  0  0  0  0
  147.2639  140.2489  152.3730 H   0  0  0  0  0  0  0  0  0  0  0  0
  152.6665  140.3379  160.0080 H   0  0  0  0  0  0  0  0  0  0  0  0
  151.7897  141.3381  158.8517 H   0  0  0  0  0  0  0  0  0  0  0  0
  153.4024  140.7424  158.4583 H   0  0  0  0  0  0  0  0  0  0  0  0
  152.5240  138.3805  158.4547 H   0  0  0  0  0  0  0  0  0  0  0  0
  150.9230  138.9690  158.8477 H   0  0  0  0  0  0  0  0  0  0  0  0
  148.1722  140.7560  155.2296 H   0  0  0  0  0  0  0  0  0  0  0  0
  148.6929  141.6347  153.7900 H   0  0  0  0  0  0  0  0  0  0  0  0
  145.2587  140.3414  153.3525 H   0  0  0  0  0  0  0  0  0  0  0  0
  146.7659  138.3326  154.6780 H   0  0  0  0  0  0  0  0  0  0  0  0
  146.8406  137.9657  152.9536 H   0  0  0  0  0  0  0  0  0  0  0  0
  149.0647  137.7087  153.1844 H   0  0  0  0  0  0  0  0  0  0  0  0
  148.8431  137.8282  154.8165 H   0  0  0  0  0  0  0  0  0  0  0  0
  1  2  1  0  0  0  0
  1 16  1  0  0  0  0
  1 17  1  0  0  0  0
  1 18  1  0  0  0  0
  2  3  1  0  0  0  0
  2 19  1  0  0  0  0
  2 20  1  0  0  0  0
  3 13  1  0  0  0  0
  3  4  2  0  0  0  0
  4  5  1  0  0  0  0
  5  6  1  0  0  0  0
  5 12  2  0  0  0  0
  6 14  1  0  0  0  0
  6 11  1  0  0  0  0
  6  7  1  0  0  0  0
  7  8  1  0  0  0  0
  7 21  1  0  0  0  0
  7 22  1  0  0  0  0
  8 15  1  0  0  0  0
  8  9  1  0  0  0  0
  8 10  1  0  0  0  0
  9 23  1  0  0  0  0
 10 11  1  0  0  0  0
 10 24  1  0  0  0  0
 10 25  1  0  0  0  0
 11 26  1  0  0  0  0
 11 27  1  0  0  0  0
 12 13  1  0  0  0  0
M  CHG  1  11   1
M  CHG  1  13  -1
M  END
> <s_m_source_file>
AV-unprocessed.smi

> <i_m_source_file_index>
49

> <i_lp_mmshare_version>
43012

> <i_f3d_flags>
0

> <s_epik_input>
W0NIM11bQ0gyXWMxbmMobltuSF0xKVtDQEBIXTJbQ0gyXVtDQEBIXShbT0hdKVtDSDJdW05IXTI=

> <s_epik_cmdline>
J2VwaWtfcHl0aG9uJywgJy1waCcsICc3LjAnLCAnLXRuJywgJzgnLCAnLW1hJywgJzIwMCcsICctbWV0YWxfYmluZGluZycsICctaW1hZScsICc8aW5maWxlLm1hZT4nLCAnLW9tYWUnLCAnPG91dGZpbGUubWFlPic=

> <r_lp_tautomer_probability>
0.948284

> <r_epik_Ionization_Penalty>
3.22013

> <r_epik_Ionization_Penalty_Charging>
3.22013

> <r_epik_Ionization_Penalty_Neutral>
3.9133e-08

> <r_epik_State_Penalty>
2.79459

> <r_epik_Charging_Adjusted_Penalty>
6.01472

> <i_epik_Tot_Q>
0

> <i_epik_Tot_abs_Q>
2

> <r_epik_Metal_State_Penalty>
0.589377

> <b_epik_Metal_Only>
1

> <s_lp_Force_Field>
OPLS_2005

> <r_lp_Energy>
9.52655

> <b_lp_Chiralities_Consistent>
1

> <s_lp_Variant>
AV-unprocessed.smi:49-23

> <Gold.Version>
5.8.1

> <Gold.Id.Protein>
6NUR|6NUR_protein|mol2

> <Gold.PLP.Fitness>
37.4425

> <Gold.PLP.PLP>
-19.5246

> <Gold.PLP.part.hbond>
-3.9530

> <Gold.PLP.part.metal>
0.0000

> <Gold.PLP.part.buried>
-1.0493

> <Gold.PLP.part.nonpolar>
-14.9337

> <Gold.PLP.part.repulsive>
0.0782

> <Gold.PLP.ligand.clash>
0.0000

> <Gold.PLP.ligand.torsion>
0.0339

> <Gold.PLP.Chemscore.Hbond>
5.9920

> <Gold.PLP.Chemscore.CHOScore>
0.0000

> <Gold.PLP.Chemscore.Metal>
0.0000

> <Gold.Chemscore.Hbonds>
donor molecule, donor type, donor heavy atom, donor atom, acceptor molecule, acceptor atom, score
      L1  H     9    23       P1 10175  1.00
      L1  H    11    26       P1  7948  2.00
      P1  H  7989  7998       L1    12  0.94
      P1  H  7997  8010       L1    13  2.00

> <Gold.PLP.Chemscore.Internal.Correction>
0.0097

> <Gold.Rescore>
     Score         DG    S(hbond)    S(metal)    S(lipo)     H(rot)  DE(clash)    DE(int)     intcor
     15.98     -16.08       3.44        0.00      33.11       1.86       0.07       0.02       ----

> <Gold.Chemscore.Fitness>
15.9801

> <Gold.Chemscore.DG>
-16.0796

> <Gold.Chemscore.ZeroCoef>
-5.4800

> <Gold.Chemscore.Hbond>
3.4369

> <Gold.Chemscore.Metal>
0.0000

> <Gold.Chemscore.Lipo>
33.1061

> <Gold.Chemscore.Internal_Hbond>
0.0000

> <Gold.Chemscore.DEClash>
0.0749

> <Gold.Chemscore.DEInternal>
0.0246

> <Gold.Chemscore.Rot>
1.8567

> <Gold.Chemscore.Internal.Correction>
   9.000000E+99

> <Gold.Chemscore.Hbonds>
donor molecule, donor type, donor heavy atom, donor atom, acceptor molecule, acceptor atom, score
      L1  H     9    23       P1 10175  0.98
      L1  H    11    26       P1  7948  0.97
      P1  H  7989  7998       L1    12  0.20
      P1  H  7997  8010       L1    13  0.97

> <Gold.Chemscore.Hbond.Weighted>
-11.4792

> <Gold.Chemscore.Metal.Weighted>
-0.0000

> <Gold.Chemscore.Lipo.Weighted>
-3.8734

> <Gold.Chemscore.Internal_Hbond.Weighted>
0.0000

> <Gold.Chemscore.DEClash.Weighted>
0.0749

> <Gold.Chemscore.DEInternal.Weighted>
0.0246

> <Gold.Chemscore.Rot.Weighted>
4.7531

> <Gold.Chemscore.Internal.Correction.Weighted>
   9.000000E+99

> <Gold.Protein.RotatedTorsions>
[ 6907 6896 6895 6894 ] final -178.27 input  -60.11 | X-H torsion
[ 7974 7965 7964 7962 ] final   20.54 input  175.53 | X-H torsion
[ 8008 7997 7996 7995 ] final   89.62 input   59.86 | X-H torsion
[ 10167 10162 10161 10158 ] final  175.52 input  -65.29 | X-H torsion
[ 10718 10713 10712 10709 ] final  161.11 input   66.30 | X-H torsion
[ 10763 10752 10751 10750 ] final   53.07 input  -60.55 | X-H torsion
[ 11005 11000 10999 10996 ] final  149.57 input  -57.11 | X-H torsion

> <Gold.Protein.ActiveResidues>
 VAL166  LYS551  ARG553  GLY616  TRP617  ASP618  TYR619  PRO620  LYS621  CYS622 
 ASP623  PHE694  ASN695  SER759  ASP760  ASP761  ALA762  ILE779  LEU786  VAL792 
 PHE793  MET794  SER795  GLU796  ALA797  LYS798  CYS799  TRP800  GLU811  SER814 

> <Gold.Protein.RotatedAtoms>
  151.6345  133.3330  159.3116 H   0  0  0  0  0  0  0  0  0  0  0  0  # atno 6907 bound_to 6896
  150.8039  134.7155  159.6637 H   0  0  0  0  0  0  0  0  0  0  0  0  # atno 6908 bound_to 6896
  152.4133  134.6090  160.0072 H   0  0  0  0  0  0  0  0  0  0  0  0  # atno 6909 bound_to 6896
  146.2107  139.8154  142.8691 H   0  0  0  0  0  0  0  0  0  0  0  0  # atno 7974 bound_to 7965
  156.0022  140.3358  155.6857 H   0  0  0  0  0  0  0  0  0  0  0  0  # atno 8008 bound_to 7997
  155.6274  140.0681  157.2677 H   0  0  0  0  0  0  0  0  0  0  0  0  # atno 8009 bound_to 7997
  154.4253  140.1765  156.1424 H   0  0  0  0  0  0  0  0  0  0  0  0  # atno 8010 bound_to 7997
  139.5180  144.3022  152.0368 H   0  0  0  0  0  0  0  0  0  0  0  0  # atno 10167 bound_to 10162
  157.1411  131.0541  151.2326 H   0  0  0  0  0  0  0  0  0  0  0  0  # atno 10718 bound_to 10713
  152.9793  135.5791  154.4681 H   0  0  0  0  0  0  0  0  0  0  0  0  # atno 10763 bound_to 10752
  154.4248  135.2772  155.1954 H   0  0  0  0  0  0  0  0  0  0  0  0  # atno 10764 bound_to 10752
  154.3687  135.6172  153.5782 H   0  0  0  0  0  0  0  0  0  0  0  0  # atno 10765 bound_to 10752
  140.1056  134.8956  157.1861 H   0  0  0  0  0  0  0  0  0  0  0  0  # atno 11005 bound_to 11000
  145.3151  141.0230  143.3532 LP  0  0  0  0  0  0  0  0  0  0  0  0  # atno 17320 bound_to 7965
  144.8907  139.4778  143.6679 LP  0  0  0  0  0  0  0  0  0  0  0  0  # atno 17321 bound_to 7965
  140.2469  144.4210  150.6237 LP  0  0  0  0  0  0  0  0  0  0  0  0  # atno 17342 bound_to 10162
  140.6252  143.2180  151.6612 LP  0  0  0  0  0  0  0  0  0  0  0  0  # atno 17343 bound_to 10162
  157.4306  130.7488  149.6987 LP  0  0  0  0  0  0  0  0  0  0  0  0  # atno 17370 bound_to 10713
  155.9788  130.4047  150.3624 LP  0  0  0  0  0  0  0  0  0  0  0  0  # atno 17371 bound_to 10713
  140.3160  134.2970  155.7256 LP  0  0  0  0  0  0  0  0  0  0  0  0  # atno 17394 bound_to 11000
  141.2117  133.7680  156.9843 LP  0  0  0  0  0  0  0  0  0  0  0  0  # atno 17395 bound_to 11000

$$$$
