AV-unprocessed.smi:3011|AV-procd|sdf|11457|dock7
  -GOLD-   2272016393D 1   1.00000     0.00000
 Structure written by MMmdl.
 46 48  0  0  0  0  0  0  0  0  1 V2000
  147.4859  136.7825  163.1351 C   0  0  0  0  0  0  0  0  0  0  0  0
  148.2545  137.0055  161.9629 O   0  0  0  0  0  0  0  0  0  0  0  0
  148.0450  136.1827  160.8750 C   0  0  0  0  0  0  0  0  0  0  0  0
  147.0995  135.1263  160.8560 C   0  0  0  0  0  0  0  0  0  0  0  0
  146.9477  134.3254  159.7093 C   0  0  0  0  0  0  0  0  0  0  0  0
  147.7354  134.5699  158.5713 C   0  0  0  0  0  0  0  0  0  0  0  0
  148.6759  135.6160  158.5788 C   0  0  0  0  0  0  0  0  0  0  0  0
  148.8365  136.4270  159.7297 C   0  0  0  0  0  0  0  0  0  0  0  0
  149.7330  137.4693  159.8105 O   0  0  0  0  0  0  0  0  0  0  0  0
  150.4788  137.8257  158.6550 C   0  0  0  0  0  0  0  0  0  0  0  0
  151.9463  137.4471  158.8980 C   0  0  0  0  0  0  0  0  0  0  0  0
  152.6449  138.4665  159.6703 N   0  0  0  0  0  0  0  0  0  0  0  0
  153.4887  138.3079  160.7237 C   0  0  0  0  0  0  0  0  0  0  0  0
  153.8448  136.9555  161.2896 C   0  0  2  0  0  0  0  0  0  0  0  0
  154.0528  137.0025  162.8097 C   0  0  0  0  0  0  0  0  0  0  0  0
  155.0532  136.4776  160.6253 N   0  0  0  0  0  0  0  0  0  0  0  0
  155.1474  135.3011  159.9931 C   0  0  0  0  0  0  0  0  0  0  0  0
  154.2153  134.5053  159.9102 O   0  0  0  0  0  0  0  0  0  0  0  0
  153.9838  139.4373  161.2376 N   0  0  0  0  0  0  0  0  0  0  0  0
  153.3899  140.4150  160.4658 C   0  0  0  0  0  0  0  0  0  0  0  0
  153.4975  141.8230  160.5250 C   0  0  0  0  0  0  0  0  0  0  0  0
  152.7740  142.6325  159.6252 C   0  0  0  0  0  0  0  0  0  0  0  0
  151.9353  142.0468  158.6551 C   0  0  0  0  0  0  0  0  0  0  0  0
  151.8176  140.6458  158.5768 C   0  0  0  0  0  0  0  0  0  0  0  0
  152.5427  139.8417  159.4772 C   0  0  0  0  0  0  0  0  0  0  0  0
  147.7849  137.4986  163.9005 H   0  0  0  0  0  0  0  0  0  0  0  0
  147.6513  135.7823  163.5378 H   0  0  0  0  0  0  0  0  0  0  0  0
  146.4213  136.9264  162.9462 H   0  0  0  0  0  0  0  0  0  0  0  0
  146.4774  134.9091  161.7108 H   0  0  0  0  0  0  0  0  0  0  0  0
  146.2252  133.5226  159.7037 H   0  0  0  0  0  0  0  0  0  0  0  0
  147.6180  133.9556  157.6908 H   0  0  0  0  0  0  0  0  0  0  0  0
  149.2608  135.7804  157.6869 H   0  0  0  0  0  0  0  0  0  0  0  0
  150.1020  137.2952  157.7795 H   0  0  0  0  0  0  0  0  0  0  0  0
  150.3972  138.8964  158.4643 H   0  0  0  0  0  0  0  0  0  0  0  0
  152.0311  136.4812  159.3952 H   0  0  0  0  0  0  0  0  0  0  0  0
  152.4551  137.3302  157.9409 H   0  0  0  0  0  0  0  0  0  0  0  0
  153.0461  136.2401  161.0996 H   0  0  0  0  0  0  0  0  0  0  0  0
  153.1525  137.3524  163.3156 H   0  0  0  0  0  0  0  0  0  0  0  0
  154.8680  137.6743  163.0811 H   0  0  0  0  0  0  0  0  0  0  0  0
  154.2904  136.0142  163.2042 H   0  0  0  0  0  0  0  0  0  0  0  0
  155.8558  137.0903  160.6258 H   0  0  0  0  0  0  0  0  0  0  0  0
  156.1498  135.1442  159.5640 H   0  0  0  0  0  0  0  0  0  0  0  0
  154.1347  142.2807  161.2671 H   0  0  0  0  0  0  0  0  0  0  0  0
  152.8610  143.7077  159.6809 H   0  0  0  0  0  0  0  0  0  0  0  0
  151.3814  142.6732  157.9713 H   0  0  0  0  0  0  0  0  0  0  0  0
  151.1717  140.1959  157.8377 H   0  0  0  0  0  0  0  0  0  0  0  0
  1  2  1  0  0  0  0
  1 26  1  0  0  0  0
  1 27  1  0  0  0  0
  1 28  1  0  0  0  0
  2  3  1  0  0  0  0
  3  8  1  0  0  0  0
  3  4  2  0  0  0  0
  4  5  1  0  0  0  0
  4 29  1  0  0  0  0
  5  6  2  0  0  0  0
  5 30  1  0  0  0  0
  6  7  1  0  0  0  0
  6 31  1  0  0  0  0
  7  8  2  0  0  0  0
  7 32  1  0  0  0  0
  8  9  1  0  0  0  0
  9 10  1  0  0  0  0
 10 11  1  0  0  0  0
 10 33  1  0  0  0  0
 10 34  1  0  0  0  0
 11 12  1  0  0  0  0
 11 35  1  0  0  0  0
 11 36  1  0  0  0  0
 12 25  1  0  0  0  0
 12 13  1  0  0  0  0
 13 14  1  0  0  0  0
 13 19  2  0  0  0  0
 14 15  1  0  0  0  0
 14 16  1  0  0  0  0
 14 37  1  0  0  0  0
 15 38  1  0  0  0  0
 15 39  1  0  0  0  0
 15 40  1  0  0  0  0
 16 17  1  0  0  0  0
 16 41  1  0  0  0  0
 17 18  2  0  0  0  0
 17 42  1  0  0  0  0
 19 20  1  0  0  0  0
 20 25  2  0  0  0  0
 20 21  1  0  0  0  0
 21 22  2  0  0  0  0
 21 43  1  0  0  0  0
 22 23  1  0  0  0  0
 22 44  1  0  0  0  0
 23 24  2  0  0  0  0
 23 45  1  0  0  0  0
 24 25  1  0  0  0  0
 24 46  1  0  0  0  0
M  END
> <s_m_source_file>
AV-unprocessed.smi

> <i_m_source_file_index>
3011

> <i_lp_mmshare_version>
43012

> <i_f3d_flags>
0

> <s_epik_input>
W0NIM11PYzFbY0hdW2NIXVtjSF1bY0hdYzFPW0NIMl1bQ0gyXW4oYyhuMilbQ0BIXShbQ0gzXSlbTkhdW0NIXT1PKWMoYzIzKVtjSF1bY0hdW2NIXVtjSF0z

> <s_epik_cmdline>
J2VwaWtfcHl0aG9uJywgJy1waCcsICc3LjAnLCAnLXRuJywgJzgnLCAnLW1hJywgJzIwMCcsICctbWV0YWxfYmluZGluZycsICctaW1hZScsICc8aW5maWxlLm1hZT4nLCAnLW9tYWUnLCAnPG91dGZpbGUubWFlPic=

> <r_lp_tautomer_probability>
1

> <r_epik_Ionization_Penalty>
0.0924205

> <r_epik_Ionization_Penalty_Charging>
0

> <r_epik_Ionization_Penalty_Neutral>
0.0924205

> <r_epik_State_Penalty>
0.0827154

> <r_epik_Charging_Adjusted_Penalty>
0.0827154

> <i_epik_Tot_Q>
0

> <i_epik_Tot_abs_Q>
0

> <r_epik_Metal_State_Penalty>
0.071464

> <b_epik_Metal_Only>
0

> <s_lp_Force_Field>
OPLS_2005

> <r_lp_Energy>
15.3464

> <b_lp_Chiralities_Consistent>
1

> <s_lp_Variant>
AV-unprocessed.smi:3011-1

> <Gold.Version>
5.8.1

> <Gold.Id.Protein>
6NUR|6NUR_protein|mol2

> <Gold.PLP.Fitness>
48.0339

> <Gold.PLP.PLP>
-44.8081

> <Gold.PLP.part.hbond>
-3.1270

> <Gold.PLP.part.metal>
0.0000

> <Gold.PLP.part.buried>
-6.2148

> <Gold.PLP.part.nonpolar>
-35.7611

> <Gold.PLP.part.repulsive>
0.0281

> <Gold.PLP.ligand.clash>
0.0000

> <Gold.PLP.ligand.torsion>
1.4710

> <Gold.PLP.Chemscore.Hbond>
2.0000

> <Gold.PLP.Chemscore.CHOScore>
0.0000

> <Gold.PLP.Chemscore.Metal>
0.0000

> <Gold.Chemscore.Hbonds>
donor molecule, donor type, donor heavy atom, donor atom, acceptor molecule, acceptor atom, score
      P1  H  6896  6909       L1    18  1.00
      P1  H  6931  6943       L1     2  0.83

> <Gold.PLP.Chemscore.Internal.Correction>
0.1679

> <Gold.Rescore>
     Score         DG    S(hbond)    S(metal)    S(lipo)     H(rot)  DE(clash)    DE(int)     intcor
     17.55     -18.90       1.93        0.00     116.27       2.59       0.05       1.30       ----

> <Gold.Chemscore.Fitness>
17.5516

> <Gold.Chemscore.DG>
-18.8955

> <Gold.Chemscore.ZeroCoef>
-5.4800

> <Gold.Chemscore.Hbond>
1.9299

> <Gold.Chemscore.Metal>
0.0000

> <Gold.Chemscore.Lipo>
116.2717

> <Gold.Chemscore.Internal_Hbond>
0.0000

> <Gold.Chemscore.DEClash>
0.0479

> <Gold.Chemscore.DEInternal>
1.2960

> <Gold.Chemscore.Rot>
2.5914

> <Gold.Chemscore.Internal.Correction>
   9.000000E+99

> <Gold.Chemscore.Hbonds>
donor molecule, donor type, donor heavy atom, donor atom, acceptor molecule, acceptor atom, score
      P1  H  6896  6909       L1    18  0.98
      P1  H  6931  6943       L1     2  0.76

> <Gold.Chemscore.Hbond.Weighted>
-6.4457

> <Gold.Chemscore.Metal.Weighted>
-0.0000

> <Gold.Chemscore.Lipo.Weighted>
-13.6038

> <Gold.Chemscore.Internal_Hbond.Weighted>
0.0000

> <Gold.Chemscore.DEClash.Weighted>
0.0479

> <Gold.Chemscore.DEInternal.Weighted>
1.2960

> <Gold.Chemscore.Rot.Weighted>
6.6340

> <Gold.Chemscore.Internal.Correction.Weighted>
   9.000000E+99

> <Gold.Protein.RotatedTorsions>
[ 6907 6896 6895 6894 ] final -171.30 input  -60.11 | X-H torsion
[ 7974 7965 7964 7962 ] final   18.53 input  175.53 | X-H torsion
[ 8008 7997 7996 7995 ] final  166.31 input   59.86 | X-H torsion
[ 10167 10162 10161 10158 ] final    7.02 input  -65.29 | X-H torsion
[ 10718 10713 10712 10709 ] final  112.01 input   66.30 | X-H torsion
[ 10763 10752 10751 10750 ] final   67.72 input  -60.55 | X-H torsion
[ 11005 11000 10999 10996 ] final  170.15 input  -57.11 | X-H torsion

> <Gold.Protein.ActiveResidues>
 VAL166  LYS551  ARG553  GLY616  TRP617  ASP618  TYR619  PRO620  LYS621  CYS622 
 ASP623  PHE694  ASN695  SER759  ASP760  ASP761  ALA762  ILE779  LEU786  VAL792 
 PHE793  MET794  SER795  GLU796  ALA797  LYS798  CYS799  TRP800  GLU811  SER814 

> <Gold.Protein.RotatedAtoms>
  151.5216  133.3465  159.2902 H   0  0  0  0  0  0  0  0  0  0  0  0  # atno 6907 bound_to 6896
  150.8649  134.8012  159.7122 H   0  0  0  0  0  0  0  0  0  0  0  0  # atno 6908 bound_to 6896
  152.4656  134.5091  159.9800 H   0  0  0  0  0  0  0  0  0  0  0  0  # atno 6909 bound_to 6896
  146.2182  139.8444  142.8634 H   0  0  0  0  0  0  0  0  0  0  0  0  # atno 7974 bound_to 7965
  156.1729  140.1647  156.8416 H   0  0  0  0  0  0  0  0  0  0  0  0  # atno 8008 bound_to 7997
  154.5275  140.0764  156.8320 H   0  0  0  0  0  0  0  0  0  0  0  0  # atno 8009 bound_to 7997
  155.3475  140.3388  155.4241 H   0  0  0  0  0  0  0  0  0  0  0  0  # atno 8010 bound_to 7997
  140.6395  143.7807  150.7408 H   0  0  0  0  0  0  0  0  0  0  0  0  # atno 10167 bound_to 10162
  157.6415  131.0960  150.6833 H   0  0  0  0  0  0  0  0  0  0  0  0  # atno 10718 bound_to 10713
  153.0200  135.5273  154.7024 H   0  0  0  0  0  0  0  0  0  0  0  0  # atno 10763 bound_to 10752
  154.6129  135.2880  155.0414 H   0  0  0  0  0  0  0  0  0  0  0  0  # atno 10764 bound_to 10752
  154.1430  135.6575  153.4999 H   0  0  0  0  0  0  0  0  0  0  0  0  # atno 10765 bound_to 10752
  140.3053  134.7562  157.3948 H   0  0  0  0  0  0  0  0  0  0  0  0  # atno 11005 bound_to 11000
  145.2865  141.0154  143.3687 LP  0  0  0  0  0  0  0  0  0  0  0  0  # atno 17320 bound_to 7965
  144.9110  139.4529  143.6587 LP  0  0  0  0  0  0  0  0  0  0  0  0  # atno 17321 bound_to 7965
  140.1435  143.4420  152.2178 LP  0  0  0  0  0  0  0  0  0  0  0  0  # atno 17342 bound_to 10162
  139.5605  144.7402  151.4170 LP  0  0  0  0  0  0  0  0  0  0  0  0  # atno 17343 bound_to 10162
  156.7156  130.4665  149.5536 LP  0  0  0  0  0  0  0  0  0  0  0  0  # atno 17370 bound_to 10713
  156.1700  130.6431  151.0826 LP  0  0  0  0  0  0  0  0  0  0  0  0  # atno 17371 bound_to 10713
  140.1073  134.5393  155.8298 LP  0  0  0  0  0  0  0  0  0  0  0  0  # atno 17394 bound_to 11000
  141.2119  133.6713  156.6622 LP  0  0  0  0  0  0  0  0  0  0  0  0  # atno 17395 bound_to 11000

$$$$
