AV-unprocessed.smi:776|AV-procd|sdf|3699|dock1
  -GOLD-   22720 1123D 1   1.00000     0.00000
 Structure written by MMmdl.
 44 45  0  0  0  0  0  0  0  0  1 V2000
  164.6383  135.9003  156.0345 C   0  0  0  0  0  0  0  0  0  0  0  0
  164.4454  135.4754  157.4981 C   0  0  0  0  0  0  0  0  0  0  0  0
  165.3309  134.2864  157.9010 C   0  0  0  0  0  0  0  0  0  0  0  0
  163.0034  135.2346  157.8264 C   0  0  0  0  0  0  0  0  0  0  0  0
  162.3607  135.9728  158.7255 N   0  0  0  0  0  0  0  0  0  0  0  0
  161.0686  135.4284  158.7303 O   0  0  0  0  0  0  0  0  0  0  0  0
  161.0837  134.4345  157.8102 C   0  0  0  0  0  0  0  0  0  0  0  0
  159.8499  133.6206  157.6083 C   0  0  0  0  0  0  0  0  0  0  0  0
  158.6566  134.4710  157.1440 C   0  0  0  0  0  0  0  0  0  0  0  0
  158.9267  135.1281  155.8704 N   0  0  0  0  0  0  0  0  0  0  0  0
  157.9926  135.5815  155.0169 C   0  0  0  0  0  0  0  0  0  0  0  0
  156.7895  135.5227  155.2705 O   0  0  0  0  0  0  0  0  0  0  0  0
  158.5103  136.2056  153.9282 N   0  0  0  0  0  0  0  0  0  0  0  0
  159.7642  135.7366  153.3095 C   0  0  0  0  0  0  0  0  0  0  0  0
  159.4274  134.7375  152.1851 C   0  0  0  0  0  0  0  0  0  0  0  0
  158.4790  135.3672  151.1476 C   0  0  0  0  0  0  0  0  0  0  0  0
  157.2652  136.0419  151.8147 C   0  0  0  0  0  0  0  0  0  0  0  0
  157.7187  136.9840  152.9493 C   0  0  1  0  0  0  0  0  0  0  0  0
  156.5503  137.8006  153.5412 C   0  0  0  0  0  0  0  0  0  0  0  0
  162.2669  134.2577  157.2280 N   0  0  0  0  0  0  0  0  0  0  0  0
  164.0500  136.7890  155.8032 H   0  0  0  0  0  0  0  0  0  0  0  0
  164.3336  135.1106  155.3472 H   0  0  0  0  0  0  0  0  0  0  0  0
  165.6832  136.1332  155.8286 H   0  0  0  0  0  0  0  0  0  0  0  0
  164.7722  136.3202  158.1063 H   0  0  0  0  0  0  0  0  0  0  0  0
  165.2303  134.0656  158.9641 H   0  0  0  0  0  0  0  0  0  0  0  0
  166.3828  134.4973  157.7061 H   0  0  0  0  0  0  0  0  0  0  0  0
  165.0650  133.3859  157.3465 H   0  0  0  0  0  0  0  0  0  0  0  0
  160.0637  132.8414  156.8760 H   0  0  0  0  0  0  0  0  0  0  0  0
  159.6151  133.1131  158.5448 H   0  0  0  0  0  0  0  0  0  0  0  0
  157.7569  133.8584  157.0660 H   0  0  0  0  0  0  0  0  0  0  0  0
  158.4432  135.2443  157.8826 H   0  0  0  0  0  0  0  0  0  0  0  0
  159.8960  135.2545  155.6184 H   0  0  0  0  0  0  0  0  0  0  0  0
  160.3136  136.5871  152.9035 H   0  0  0  0  0  0  0  0  0  0  0  0
  160.4467  135.2665  154.0182 H   0  0  0  0  0  0  0  0  0  0  0  0
  160.3417  134.3993  151.6967 H   0  0  0  0  0  0  0  0  0  0  0  0
  158.9606  133.8498  152.6143 H   0  0  0  0  0  0  0  0  0  0  0  0
  159.0283  136.1144  150.5737 H   0  0  0  0  0  0  0  0  0  0  0  0
  158.1470  134.6140  150.4326 H   0  0  0  0  0  0  0  0  0  0  0  0
  156.6979  136.5956  151.0659 H   0  0  0  0  0  0  0  0  0  0  0  0
  156.5928  135.2807  152.2121 H   0  0  0  0  0  0  0  0  0  0  0  0
  158.3923  137.7254  152.5163 H   0  0  0  0  0  0  0  0  0  0  0  0
  156.1645  138.5024  152.8015 H   0  0  0  0  0  0  0  0  0  0  0  0
  156.8714  138.3836  154.4051 H   0  0  0  0  0  0  0  0  0  0  0  0
  155.7117  137.1740  153.8436 H   0  0  0  0  0  0  0  0  0  0  0  0
  1  2  1  0  0  0  0
  1 21  1  0  0  0  0
  1 22  1  0  0  0  0
  1 23  1  0  0  0  0
  2  3  1  0  0  0  0
  2  4  1  0  0  0  0
  2 24  1  0  0  0  0
  3 25  1  0  0  0  0
  3 26  1  0  0  0  0
  3 27  1  0  0  0  0
  4 20  1  0  0  0  0
  4  5  2  0  0  0  0
  5  6  1  0  0  0  0
  6  7  1  0  0  0  0
  7  8  1  0  0  0  0
  7 20  2  0  0  0  0
  8  9  1  0  0  0  0
  8 28  1  0  0  0  0
  8 29  1  0  0  0  0
  9 10  1  0  0  0  0
  9 30  1  0  0  0  0
  9 31  1  0  0  0  0
 10 11  1  0  0  0  0
 10 32  1  0  0  0  0
 11 12  2  0  0  0  0
 11 13  1  0  0  0  0
 13 18  1  0  0  0  0
 13 14  1  0  0  0  0
 14 15  1  0  0  0  0
 14 33  1  0  0  0  0
 14 34  1  0  0  0  0
 15 16  1  0  0  0  0
 15 35  1  0  0  0  0
 15 36  1  0  0  0  0
 16 17  1  0  0  0  0
 16 37  1  0  0  0  0
 16 38  1  0  0  0  0
 17 18  1  0  0  0  0
 17 39  1  0  0  0  0
 17 40  1  0  0  0  0
 18 19  1  0  0  0  0
 18 41  1  0  0  0  0
 19 42  1  0  0  0  0
 19 43  1  0  0  0  0
 19 44  1  0  0  0  0
M  END
> <s_m_source_file>
AV-unprocessed.smi

> <i_m_source_file_index>
776

> <i_lp_mmshare_version>
43012

> <i_f3d_flags>
0

> <s_epik_input>
W0NIM11bQ0hdKFtDSDNdKWMxbm9jKG4xKVtDSDJdW0NIMl1bTkhdQyg9TylOMltDSDJdW0NIMl1bQ0gyXVtDSDJdW0NASF0yW0NIM10=

> <s_epik_cmdline>
J2VwaWtfcHl0aG9uJywgJy1waCcsICc3LjAnLCAnLXRuJywgJzgnLCAnLW1hJywgJzIwMCcsICctbWV0YWxfYmluZGluZycsICctaW1hZScsICc8aW5maWxlLm1hZT4nLCAnLW9tYWUnLCAnPG91dGZpbGUubWFlPic=

> <r_lp_tautomer_probability>
1

> <r_epik_Ionization_Penalty>
6.23032e-05

> <r_epik_Ionization_Penalty_Charging>
0

> <r_epik_Ionization_Penalty_Neutral>
6.23032e-05

> <r_epik_State_Penalty>
-0

> <r_epik_Charging_Adjusted_Penalty>
0

> <i_epik_Tot_Q>
0

> <i_epik_Tot_abs_Q>
0

> <r_epik_Metal_State_Penalty>
-0

> <b_epik_Metal_Only>
0

> <s_lp_Force_Field>
OPLS_2005

> <r_lp_Energy>
26.0958

> <b_lp_Chiralities_Consistent>
1

> <s_lp_Variant>
AV-unprocessed.smi:776-1

> <Gold.Version>
5.8.1

> <Gold.Id.Protein>
6NUR|6NUR_protein|mol2

> <Gold.PLP.Fitness>
33.3203

> <Gold.PLP.PLP>
-30.6183

> <Gold.PLP.part.hbond>
-1.0000

> <Gold.PLP.part.metal>
0.0000

> <Gold.PLP.part.buried>
-3.9702

> <Gold.PLP.part.nonpolar>
-26.6676

> <Gold.PLP.part.repulsive>
1.0861

> <Gold.PLP.ligand.clash>
0.0000

> <Gold.PLP.ligand.torsion>
0.4308

> <Gold.PLP.Chemscore.Hbond>
1.0000

> <Gold.PLP.Chemscore.CHOScore>
0.0000

> <Gold.PLP.Chemscore.Metal>
0.0000

> <Gold.Chemscore.Hbonds>
donor molecule, donor type, donor heavy atom, donor atom, acceptor molecule, acceptor atom, score
      P1  H 10752 10765       L1    12  1.00

> <Gold.PLP.Chemscore.Internal.Correction>
0.5636

> <Gold.Rescore>
     Score         DG    S(hbond)    S(metal)    S(lipo)     H(rot)  DE(clash)    DE(int)     intcor
     12.80     -14.64       0.99        0.00      86.06       1.65       0.10       1.75       ----

> <Gold.Chemscore.Fitness>
12.7977

> <Gold.Chemscore.DG>
-14.6449

> <Gold.Chemscore.ZeroCoef>
-5.4800

> <Gold.Chemscore.Hbond>
0.9918

> <Gold.Chemscore.Metal>
0.0000

> <Gold.Chemscore.Lipo>
86.0586

> <Gold.Chemscore.Internal_Hbond>
0.0000

> <Gold.Chemscore.DEClash>
0.1013

> <Gold.Chemscore.DEInternal>
1.7459

> <Gold.Chemscore.Rot>
1.6470

> <Gold.Chemscore.Internal.Correction>
   9.000000E+99

> <Gold.Chemscore.Hbonds>
donor molecule, donor type, donor heavy atom, donor atom, acceptor molecule, acceptor atom, score
      P1  H 10752 10765       L1    12  0.94

> <Gold.Chemscore.Hbond.Weighted>
-3.3125

> <Gold.Chemscore.Metal.Weighted>
-0.0000

> <Gold.Chemscore.Lipo.Weighted>
-10.0689

> <Gold.Chemscore.Internal_Hbond.Weighted>
0.0000

> <Gold.Chemscore.DEClash.Weighted>
0.1013

> <Gold.Chemscore.DEInternal.Weighted>
1.7459

> <Gold.Chemscore.Rot.Weighted>
4.2164

> <Gold.Chemscore.Internal.Correction.Weighted>
   9.000000E+99

> <Gold.Protein.RotatedTorsions>
[ 6907 6896 6895 6894 ] final -142.75 input  -60.11 | X-H torsion
[ 7974 7965 7964 7962 ] final   85.16 input  175.53 | X-H torsion
[ 8008 7997 7996 7995 ] final -105.47 input   59.86 | X-H torsion
[ 10167 10162 10161 10158 ] final  -53.78 input  -65.29 | X-H torsion
[ 10718 10713 10712 10709 ] final -161.21 input   66.30 | X-H torsion
[ 10763 10752 10751 10750 ] final  -37.15 input  -60.55 | X-H torsion
[ 11005 11000 10999 10996 ] final -158.67 input  -57.11 | X-H torsion

> <Gold.Protein.ActiveResidues>
 VAL166  LYS551  ARG553  GLY616  TRP617  ASP618  TYR619  PRO620  LYS621  CYS622 
 ASP623  PHE694  ASN695  SER759  ASP760  ASP761  ALA762  ILE779  LEU786  VAL792 
 PHE793  MET794  SER795  GLU796  ALA797  LYS798  CYS799  TRP800  GLU811  SER814 

> <Gold.Protein.RotatedAtoms>
  151.0913  133.5314  159.2614 H   0  0  0  0  0  0  0  0  0  0  0  0  # atno 6907 bound_to 6896
  151.2180  135.0507  159.8948 H   0  0  0  0  0  0  0  0  0  0  0  0  # atno 6908 bound_to 6896
  152.5434  134.0719  159.8251 H   0  0  0  0  0  0  0  0  0  0  0  0  # atno 6909 bound_to 6896
  145.5892  139.2335  143.2309 H   0  0  0  0  0  0  0  0  0  0  0  0  # atno 7974 bound_to 7965
  154.9003  140.0413  157.1889 H   0  0  0  0  0  0  0  0  0  0  0  0  # atno 8008 bound_to 7997
  154.8451  140.2920  155.5613 H   0  0  0  0  0  0  0  0  0  0  0  0  # atno 8009 bound_to 7997
  156.2994  140.2475  156.3400 H   0  0  0  0  0  0  0  0  0  0  0  0  # atno 8010 bound_to 7997
  140.6466  143.2539  151.4842 H   0  0  0  0  0  0  0  0  0  0  0  0  # atno 10167 bound_to 10162
  156.5930  130.8778  151.2895 H   0  0  0  0  0  0  0  0  0  0  0  0  # atno 10718 bound_to 10713
  153.8916  135.6811  153.4760 H   0  0  0  0  0  0  0  0  0  0  0  0  # atno 10763 bound_to 10752
  153.1178  135.4753  154.9142 H   0  0  0  0  0  0  0  0  0  0  0  0  # atno 10764 bound_to 10752
  154.7620  135.3213  154.8314 H   0  0  0  0  0  0  0  0  0  0  0  0  # atno 10765 bound_to 10752
  140.6510  134.4450  157.5235 H   0  0  0  0  0  0  0  0  0  0  0  0  # atno 11005 bound_to 11000
  146.1659  140.6718  142.9255 LP  0  0  0  0  0  0  0  0  0  0  0  0  # atno 17320 bound_to 7965
  144.7359  140.4806  143.6904 LP  0  0  0  0  0  0  0  0  0  0  0  0  # atno 17321 bound_to 7965
  139.5677  144.2002  152.1790 LP  0  0  0  0  0  0  0  0  0  0  0  0  # atno 17342 bound_to 10162
  140.1289  144.5306  150.6815 LP  0  0  0  0  0  0  0  0  0  0  0  0  # atno 17343 bound_to 10162
  157.7299  130.9677  150.1807 LP  0  0  0  0  0  0  0  0  0  0  0  0  # atno 17370 bound_to 10713
  156.2533  130.3703  149.8209 LP  0  0  0  0  0  0  0  0  0  0  0  0  # atno 17371 bound_to 10713
  139.9046  134.8479  156.1758 LP  0  0  0  0  0  0  0  0  0  0  0  0  # atno 17394 bound_to 11000
  141.0536  133.6876  156.1819 LP  0  0  0  0  0  0  0  0  0  0  0  0  # atno 17395 bound_to 11000

$$$$
