AV-unprocessed.smi:2528|AV-procd|sdf|9958|dock1
  -GOLD-   2272013593D 1   1.00000     0.00000
 Structure written by MMmdl.
 43 45  0  0  0  0  0  0  0  0  1 V2000
  147.8251  138.6501  158.7647 O   0  0  0  0  0  0  0  0  0  0  0  0
  148.3938  137.6326  158.3676 C   0  0  0  0  0  0  0  0  0  0  0  0
  148.9711  137.5330  157.1617 N   0  0  0  0  0  0  0  0  0  0  0  0
  149.0220  138.6000  156.1682 C   0  0  0  0  0  0  0  0  0  0  0  0
  150.4713  138.9013  155.7285 C   0  0  2  0  0  0  0  0  0  0  0  0
  151.4720  138.8985  156.8999 C   0  0  0  0  0  0  0  0  0  0  0  0
  151.3394  140.0682  157.7603 N   0  0  0  0  0  0  0  0  0  0  0  0
  152.3239  140.0389  158.8410 C   0  0  0  0  0  0  0  0  0  0  0  0
  152.1937  141.2419  159.7880 C   0  0  0  0  0  0  0  0  0  0  0  0
  152.3129  142.5534  158.9994 C   0  0  0  0  0  0  0  0  0  0  0  0
  151.3109  142.5587  157.8350 C   0  0  0  0  0  0  0  0  0  0  0  0
  151.4649  141.2930  156.9653 C   0  0  2  0  0  0  0  0  0  0  0  0
  150.4444  141.3082  155.8099 C   0  0  0  0  0  0  0  0  0  0  0  0
  150.5747  140.1340  155.0127 O   0  0  0  0  0  0  0  0  0  0  0  0
  148.5251  136.4910  159.0658 N   0  0  0  0  0  0  0  0  0  0  0  0
  148.0438  136.1991  160.3702 C   0  0  0  0  0  0  0  0  0  0  0  0
  147.9272  134.8231  160.6719 C   0  0  0  0  0  0  0  0  0  0  0  0
  147.4579  134.4289  161.9400 C   0  0  0  0  0  0  0  0  0  0  0  0
  147.1156  135.4219  162.8751 C   0  0  0  0  0  0  0  0  0  0  0  0
  147.2609  136.7686  162.4949 C   0  0  0  0  0  0  0  0  0  0  0  0
  147.7107  137.1486  161.2803 N   0  0  0  0  0  0  0  0  0  0  0  0
  149.4195  136.6627  156.9165 H   0  0  0  0  0  0  0  0  0  0  0  0
  148.4072  138.3063  155.3180 H   0  0  0  0  0  0  0  0  0  0  0  0
  148.5588  139.5019  156.5724 H   0  0  0  0  0  0  0  0  0  0  0  0
  150.7772  138.1154  155.0370 H   0  0  0  0  0  0  0  0  0  0  0  0
  151.3461  137.9877  157.4866 H   0  0  0  0  0  0  0  0  0  0  0  0
  152.4840  138.8623  156.4934 H   0  0  0  0  0  0  0  0  0  0  0  0
  152.2084  139.1196  159.4163 H   0  0  0  0  0  0  0  0  0  0  0  0
  153.3316  140.0161  158.4231 H   0  0  0  0  0  0  0  0  0  0  0  0
  151.2303  141.2043  160.2981 H   0  0  0  0  0  0  0  0  0  0  0  0
  152.9603  141.1968  160.5620 H   0  0  0  0  0  0  0  0  0  0  0  0
  152.1396  143.4081  159.6538 H   0  0  0  0  0  0  0  0  0  0  0  0
  153.3267  142.6558  158.6105 H   0  0  0  0  0  0  0  0  0  0  0  0
  150.2958  142.6130  158.2311 H   0  0  0  0  0  0  0  0  0  0  0  0
  151.4558  143.4536  157.2292 H   0  0  0  0  0  0  0  0  0  0  0  0
  152.4619  141.3148  156.5218 H   0  0  0  0  0  0  0  0  0  0  0  0
  149.4258  141.3934  156.1890 H   0  0  0  0  0  0  0  0  0  0  0  0
  150.6106  142.1760  155.1712 H   0  0  0  0  0  0  0  0  0  0  0  0
  149.0269  135.7431  158.6105 H   0  0  0  0  0  0  0  0  0  0  0  0
  148.1946  134.0732  159.9414 H   0  0  0  0  0  0  0  0  0  0  0  0
  147.3623  133.3826  162.1900 H   0  0  0  0  0  0  0  0  0  0  0  0
  146.7512  135.1592  163.8573 H   0  0  0  0  0  0  0  0  0  0  0  0
  147.0092  137.5621  163.1830 H   0  0  0  0  0  0  0  0  0  0  0  0
  1  2  2  0  0  0  0
  2  3  1  0  0  0  0
  2 15  1  0  0  0  0
  3  4  1  0  0  0  0
  3 22  1  0  0  0  0
  4  5  1  0  0  0  0
  4 23  1  0  0  0  0
  4 24  1  0  0  0  0
  5 14  1  0  0  0  0
  5  6  1  0  0  0  0
  5 25  1  0  0  0  0
  6  7  1  0  0  0  0
  6 26  1  0  0  0  0
  6 27  1  0  0  0  0
  7 12  1  0  0  0  0
  7  8  1  0  0  0  0
  8  9  1  0  0  0  0
  8 28  1  0  0  0  0
  8 29  1  0  0  0  0
  9 10  1  0  0  0  0
  9 30  1  0  0  0  0
  9 31  1  0  0  0  0
 10 11  1  0  0  0  0
 10 32  1  0  0  0  0
 10 33  1  0  0  0  0
 11 12  1  0  0  0  0
 11 34  1  0  0  0  0
 11 35  1  0  0  0  0
 12 13  1  0  0  0  0
 12 36  1  0  0  0  0
 13 14  1  0  0  0  0
 13 37  1  0  0  0  0
 13 38  1  0  0  0  0
 15 16  1  0  0  0  0
 15 39  1  0  0  0  0
 16 21  1  0  0  0  0
 16 17  2  0  0  0  0
 17 18  1  0  0  0  0
 17 40  1  0  0  0  0
 18 19  2  0  0  0  0
 18 41  1  0  0  0  0
 19 20  1  0  0  0  0
 19 42  1  0  0  0  0
 20 21  2  0  0  0  0
 20 43  1  0  0  0  0
M  END
> <s_m_source_file>
AV-unprocessed.smi

> <i_m_source_file_index>
2528

> <i_lp_mmshare_version>
43012

> <i_f3d_flags>
0

> <s_epik_input>
bjFbY0hdW2NIXVtjSF1bY0hdYzFbTkhdQyg9TylbTkhdW0NIMl1bQ0BIXShbQ0gyXTIpT1tDSDJdW0NAQEhdKE4yMylbQ0gyXVtDSDJdW0NIMl1bQ0gyXTM=

> <s_epik_cmdline>
J2VwaWtfcHl0aG9uJywgJy1waCcsICc3LjAnLCAnLXRuJywgJzgnLCAnLW1hJywgJzIwMCcsICctbWV0YWxfYmluZGluZycsICctaW1hZScsICc8aW5maWxlLm1hZT4nLCAnLW9tYWUnLCAnPG91dGZpbGUubWFlPic=

> <r_epik_Ionization_Penalty>
1.14192

> <r_epik_Ionization_Penalty_Charging>
0

> <r_epik_Ionization_Penalty_Neutral>
1.14192

> <r_epik_State_Penalty>
1.20248

> <r_epik_Charging_Adjusted_Penalty>
1.20248

> <i_epik_Tot_Q>
0

> <i_epik_Tot_abs_Q>
0

> <r_epik_Metal_State_Penalty>
1.20248

> <b_epik_Metal_Only>
0

> <s_lp_Force_Field>
OPLS_2005

> <r_lp_Energy>
38.2617

> <b_lp_Chiralities_Consistent>
1

> <s_lp_Variant>
AV-unprocessed.smi:2528-11

> <Gold.Version>
5.8.1

> <Gold.Id.Protein>
6NUR|6NUR_protein|mol2

> <Gold.PLP.Fitness>
43.7755

> <Gold.PLP.PLP>
-36.2922

> <Gold.PLP.part.hbond>
-4.0000

> <Gold.PLP.part.metal>
0.0000

> <Gold.PLP.part.buried>
-6.0016

> <Gold.PLP.part.nonpolar>
-27.7226

> <Gold.PLP.part.repulsive>
0.2063

> <Gold.PLP.ligand.clash>
0.0000

> <Gold.PLP.ligand.torsion>
0.2340

> <Gold.PLP.Chemscore.Hbond>
2.6480

> <Gold.PLP.Chemscore.CHOScore>
0.0000

> <Gold.PLP.Chemscore.Metal>
0.0000

> <Gold.Chemscore.Hbonds>
donor molecule, donor type, donor heavy atom, donor atom, acceptor molecule, acceptor atom, score
      P1  H  6931  6943       L1    21  0.79
      P1  H  6934  6947       L1    21  0.83
      P1  H  7989  7998       L1    14  1.00

> <Gold.PLP.Chemscore.Internal.Correction>
0.0074

> <Gold.Rescore>
     Score         DG    S(hbond)    S(metal)    S(lipo)     H(rot)  DE(clash)    DE(int)     intcor
     17.13     -18.64       1.78        0.00      89.38       1.27       0.04       1.48       ----

> <Gold.Chemscore.Fitness>
17.1271

> <Gold.Chemscore.DG>
-18.6404

> <Gold.Chemscore.ZeroCoef>
-5.4800

> <Gold.Chemscore.Hbond>
1.7824

> <Gold.Chemscore.Metal>
0.0000

> <Gold.Chemscore.Lipo>
89.3785

> <Gold.Chemscore.Internal_Hbond>
0.0000

> <Gold.Chemscore.DEClash>
0.0376

> <Gold.Chemscore.DEInternal>
1.4757

> <Gold.Chemscore.Rot>
1.2696

> <Gold.Chemscore.Internal.Correction>
   9.000000E+99

> <Gold.Chemscore.Hbonds>
donor molecule, donor type, donor heavy atom, donor atom, acceptor molecule, acceptor atom, score
      P1  H  6931  6943       L1    21  0.11
      P1  H  6934  6947       L1    21  0.61
      P1  H  7989  7998       L1    14  0.25

> <Gold.Chemscore.Hbond.Weighted>
-5.9533

> <Gold.Chemscore.Metal.Weighted>
-0.0000

> <Gold.Chemscore.Lipo.Weighted>
-10.4573

> <Gold.Chemscore.Internal_Hbond.Weighted>
0.0000

> <Gold.Chemscore.DEClash.Weighted>
0.0376

> <Gold.Chemscore.DEInternal.Weighted>
1.4757

> <Gold.Chemscore.Rot.Weighted>
3.2502

> <Gold.Chemscore.Internal.Correction.Weighted>
   9.000000E+99

> <Gold.Protein.RotatedTorsions>
[ 6907 6896 6895 6894 ] final -172.00 input  -60.11 | X-H torsion
[ 7974 7965 7964 7962 ] final   17.33 input  175.53 | X-H torsion
[ 8008 7997 7996 7995 ] final    9.23 input   59.86 | X-H torsion
[ 10167 10162 10161 10158 ] final   18.50 input  -65.29 | X-H torsion
[ 10718 10713 10712 10709 ] final   94.19 input   66.30 | X-H torsion
[ 10763 10752 10751 10750 ] final  159.72 input  -60.55 | X-H torsion
[ 11005 11000 10999 10996 ] final  150.31 input  -57.11 | X-H torsion

> <Gold.Protein.ActiveResidues>
 VAL166  LYS551  ARG553  GLY616  TRP617  ASP618  TYR619  PRO620  LYS621  CYS622 
 ASP623  PHE694  ASN695  SER759  ASP760  ASP761  ALA762  ILE779  LEU786  VAL792 
 PHE793  MET794  SER795  GLU796  ALA797  LYS798  CYS799  TRP800  GLU811  SER814 

> <Gold.Protein.RotatedAtoms>
  151.5330  133.3446  159.2921 H   0  0  0  0  0  0  0  0  0  0  0  0  # atno 6907 bound_to 6896
  150.8582  134.7929  159.7073 H   0  0  0  0  0  0  0  0  0  0  0  0  # atno 6908 bound_to 6896
  152.4609  134.5194  159.9829 H   0  0  0  0  0  0  0  0  0  0  0  0  # atno 6909 bound_to 6896
  146.2222  139.8618  142.8603 H   0  0  0  0  0  0  0  0  0  0  0  0  # atno 7974 bound_to 7965
  154.7773  140.2812  155.6091 H   0  0  0  0  0  0  0  0  0  0  0  0  # atno 8008 bound_to 7997
  156.2944  140.2630  156.2518 H   0  0  0  0  0  0  0  0  0  0  0  0  # atno 8009 bound_to 7997
  154.9827  140.0374  157.2274 H   0  0  0  0  0  0  0  0  0  0  0  0  # atno 8010 bound_to 7997
  140.5648  143.9270  150.6669 H   0  0  0  0  0  0  0  0  0  0  0  0  # atno 10167 bound_to 10162
  157.6950  131.0504  150.4148 H   0  0  0  0  0  0  0  0  0  0  0  0  # atno 10718 bound_to 10713
  154.2361  135.2776  155.2871 H   0  0  0  0  0  0  0  0  0  0  0  0  # atno 10763 bound_to 10752
  154.5583  135.5654  153.6988 H   0  0  0  0  0  0  0  0  0  0  0  0  # atno 10764 bound_to 10752
  153.0009  135.6291  154.2504 H   0  0  0  0  0  0  0  0  0  0  0  0  # atno 10765 bound_to 10752
  140.1120  134.8918  157.1950 H   0  0  0  0  0  0  0  0  0  0  0  0  # atno 11005 bound_to 11000
  145.2697  141.0104  143.3779 LP  0  0  0  0  0  0  0  0  0  0  0  0  # atno 17320 bound_to 7965
  144.9233  139.4385  143.6530 LP  0  0  0  0  0  0  0  0  0  0  0  0  # atno 17321 bound_to 7965
  140.2730  143.3442  152.1220 LP  0  0  0  0  0  0  0  0  0  0  0  0  # atno 17342 bound_to 10162
  139.5088  144.6856  151.5897 LP  0  0  0  0  0  0  0  0  0  0  0  0  # atno 17343 bound_to 10162
  156.4529  130.4015  149.6625 LP  0  0  0  0  0  0  0  0  0  0  0  0  # atno 17370 bound_to 10713
  156.3768  130.7558  151.2547 LP  0  0  0  0  0  0  0  0  0  0  0  0  # atno 17371 bound_to 10713
  140.3079  134.3058  155.7274 LP  0  0  0  0  0  0  0  0  0  0  0  0  # atno 17394 bound_to 11000
  141.2132  133.7632  156.9734 LP  0  0  0  0  0  0  0  0  0  0  0  0  # atno 17395 bound_to 11000

$$$$
