AV-unprocessed.smi:548|AV-procd|sdf|2890|dock3
  -GOLD-   2262023383D 1   1.00000     0.00000
 Structure written by MMmdl.
 25 25  0  0  0  0  0  0  0  0  3 V2000
  152.9621  138.9892  154.7531 C   0  0  0  0  0  0  0  0  0  0  0  0
  151.6588  138.6446  155.5155 C   0  0  0  0  0  0  0  0  0  0  0  0
  151.1913  137.2308  155.0900 C   0  0  0  0  0  0  0  0  0  0  0  0
  151.9564  138.6376  157.0410 C   0  0  0  0  0  0  0  0  0  0  0  0
  151.0051  138.4124  157.8225 O   0  0  0  0  0  0  0  0  0  0  0  0
  153.1218  138.9054  157.4113 O   0  5  0  0  0  0  0  0  0  0  0  0
  150.5632  139.6842  155.1855 C   0  0  0  0  0  0  0  0  0  0  0  0
  149.4467  139.2813  154.4117 C   0  0  0  0  0  0  0  0  0  0  0  0
  148.4285  140.2020  154.0917 C   0  0  0  0  0  0  0  0  0  0  0  0
  148.5353  141.5283  154.5517 C   0  0  0  0  0  0  0  0  0  0  0  0
  147.5673  142.4907  154.2728 N   0  0  0  0  0  0  0  0  0  0  0  0
  149.6054  141.8920  155.2870 N   0  3  0  0  0  0  0  0  0  0  0  0
  150.6009  141.0391  155.6141 C   0  0  0  0  0  0  0  0  0  0  0  0
  153.2921  140.0093  154.9550 H   0  0  0  0  0  0  0  0  0  0  0  0
  152.8350  138.9025  153.6740 H   0  0  0  0  0  0  0  0  0  0  0  0
  153.7755  138.3172  155.0304 H   0  0  0  0  0  0  0  0  0  0  0  0
  150.2317  136.9690  155.5383 H   0  0  0  0  0  0  0  0  0  0  0  0
  151.9133  136.4671  155.3830 H   0  0  0  0  0  0  0  0  0  0  0  0
  151.0704  137.1527  154.0095 H   0  0  0  0  0  0  0  0  0  0  0  0
  149.3630  138.2646  154.0587 H   0  0  0  0  0  0  0  0  0  0  0  0
  147.5804  139.8874  153.5012 H   0  0  0  0  0  0  0  0  0  0  0  0
  146.7469  142.2712  153.7262 H   0  0  0  0  0  0  0  0  0  0  0  0
  147.6543  143.4397  154.6069 H   0  0  0  0  0  0  0  0  0  0  0  0
  151.3855  141.4852  156.2074 H   0  0  0  0  0  0  0  0  0  0  0  0
  149.6706  142.8560  155.6140 H   0  0  0  0  0  0  0  0  0  0  0  0
  1  2  1  0  0  0  0
  1 14  1  0  0  0  0
  1 15  1  0  0  0  0
  1 16  1  0  0  0  0
  2  3  1  0  0  0  0
  2  4  1  0  0  0  0
  2  7  1  0  0  0  0
  3 17  1  0  0  0  0
  3 18  1  0  0  0  0
  3 19  1  0  0  0  0
  4  5  2  0  0  0  0
  4  6  1  0  0  0  0
  7 13  1  0  0  0  0
  7  8  2  0  0  0  0
  8  9  1  0  0  0  0
  8 20  1  0  0  0  0
  9 10  2  0  0  0  0
  9 21  1  0  0  0  0
 10 11  1  0  0  0  0
 10 12  1  0  0  0  0
 11 22  1  0  0  0  0
 11 23  1  0  0  0  0
 12 13  2  0  0  0  0
 12 25  1  0  0  0  0
 13 24  1  0  0  0  0
M  CHG  1   6  -1
M  CHG  1  12   1
M  END
> <s_m_source_file>
AV-unprocessed.smi

> <i_m_source_file_index>
548

> <i_lp_mmshare_version>
43012

> <i_f3d_flags>
0

> <s_epik_input>
Tz1DKFtPSF0pQyhbQ0gzXSkoW0NIM10pYzFbY0hdW2NIXWMoW05IMl0pbltjSF0x

> <s_epik_cmdline>
J2VwaWtfcHl0aG9uJywgJy1waCcsICc3LjAnLCAnLXRuJywgJzgnLCAnLW1hJywgJzIwMCcsICctbWV0YWxfYmluZGluZycsICctaW1hZScsICc8aW5maWxlLm1hZT4nLCAnLW9tYWUnLCAnPG91dGZpbGUubWFlPic=

> <r_lp_tautomer_probability>
0.999994

> <r_epik_Ionization_Penalty>
0.0472787

> <r_epik_Ionization_Penalty_Charging>
0.0472785

> <r_epik_Ionization_Penalty_Neutral>
2.36651e-07

> <r_epik_State_Penalty>
0.0398874

> <r_epik_Charging_Adjusted_Penalty>
0.0871658

> <i_epik_Tot_Q>
0

> <i_epik_Tot_abs_Q>
2

> <r_epik_Metal_State_Penalty>
2.52256

> <b_epik_Metal_Only>
0

> <s_lp_Force_Field>
OPLS_2005

> <r_lp_Energy>
11.9737

> <b_lp_Chiralities_Consistent>
1

> <s_lp_Variant>
AV-unprocessed.smi:548-1

> <Gold.Version>
5.8.1

> <Gold.Id.Protein>
6NUR|6NUR_protein|mol2

> <Gold.PLP.Fitness>
40.0113

> <Gold.PLP.PLP>
-24.4670

> <Gold.PLP.part.hbond>
-3.0000

> <Gold.PLP.part.metal>
0.0000

> <Gold.PLP.part.buried>
-1.7010

> <Gold.PLP.part.nonpolar>
-20.3391

> <Gold.PLP.part.repulsive>
0.3673

> <Gold.PLP.ligand.clash>
0.0000

> <Gold.PLP.ligand.torsion>
0.2504

> <Gold.PLP.Chemscore.Hbond>
5.3440

> <Gold.PLP.Chemscore.CHOScore>
0.0000

> <Gold.PLP.Chemscore.Metal>
0.0000

> <Gold.Chemscore.Hbonds>
donor molecule, donor type, donor heavy atom, donor atom, acceptor molecule, acceptor atom, score
      L1  H    11    23       P1  8028  1.79
      L1  H    12    25       P1  8028  1.92
      P1  H  7997  8008       L1     6  1.57

> <Gold.PLP.Chemscore.Internal.Correction>
0.0130

> <Gold.Rescore>
     Score         DG    S(hbond)    S(metal)    S(lipo)     H(rot)  DE(clash)    DE(int)     intcor
     13.98     -15.70       2.48        0.00      49.43       1.50       1.45       0.27       ----

> <Gold.Chemscore.Fitness>
13.9839

> <Gold.Chemscore.DG>
-15.7035

> <Gold.Chemscore.ZeroCoef>
-5.4800

> <Gold.Chemscore.Hbond>
2.4760

> <Gold.Chemscore.Metal>
0.0000

> <Gold.Chemscore.Lipo>
49.4335

> <Gold.Chemscore.Internal_Hbond>
0.0000

> <Gold.Chemscore.DEClash>
1.4528

> <Gold.Chemscore.DEInternal>
0.2669

> <Gold.Chemscore.Rot>
1.4961

> <Gold.Chemscore.Internal.Correction>
   9.000000E+99

> <Gold.Chemscore.Hbonds>
donor molecule, donor type, donor heavy atom, donor atom, acceptor molecule, acceptor atom, score
      L1  H    11    23       P1  8028  0.38
      L1  H    12    25       P1  8028  0.87
      P1  H  7997  8008       L1     6  0.76

> <Gold.Chemscore.Hbond.Weighted>
-8.2697

> <Gold.Chemscore.Metal.Weighted>
-0.0000

> <Gold.Chemscore.Lipo.Weighted>
-5.7837

> <Gold.Chemscore.Internal_Hbond.Weighted>
0.0000

> <Gold.Chemscore.DEClash.Weighted>
1.4528

> <Gold.Chemscore.DEInternal.Weighted>
0.2669

> <Gold.Chemscore.Rot.Weighted>
3.8299

> <Gold.Chemscore.Internal.Correction.Weighted>
   9.000000E+99

> <Gold.Protein.RotatedTorsions>
[ 6907 6896 6895 6894 ] final  -56.74 input  -60.11 | X-H torsion
[ 7974 7965 7964 7962 ] final  -36.70 input  175.53 | X-H torsion
[ 8008 7997 7996 7995 ] final -100.91 input   59.86 | X-H torsion
[ 10167 10162 10161 10158 ] final   62.41 input  -65.29 | X-H torsion
[ 10718 10713 10712 10709 ] final -158.86 input   66.30 | X-H torsion
[ 10763 10752 10751 10750 ] final   64.92 input  -60.55 | X-H torsion
[ 11005 11000 10999 10996 ] final  157.68 input  -57.11 | X-H torsion

> <Gold.Protein.ActiveResidues>
 VAL166  LYS551  ARG553  GLY616  TRP617  ASP618  TYR619  PRO620  LYS621  CYS622 
 ASP623  PHE694  ASN695  SER759  ASP760  ASP761  ALA762  ILE779  LEU786  VAL792 
 PHE793  MET794  SER795  GLU796  ALA797  LYS798  CYS799  TRP800  GLU811  SER814 

> <Gold.Protein.RotatedAtoms>
  150.8142  134.7315  159.6715 H   0  0  0  0  0  0  0  0  0  0  0  0  # atno 6907 bound_to 6896
  152.4262  134.5861  159.9971 H   0  0  0  0  0  0  0  0  0  0  0  0  # atno 6908 bound_to 6896
  151.6062  133.3314  159.3094 H   0  0  0  0  0  0  0  0  0  0  0  0  # atno 6909 bound_to 6896
  146.0639  140.6309  142.8984 H   0  0  0  0  0  0  0  0  0  0  0  0  # atno 7974 bound_to 7965
  154.8352  140.0438  157.1504 H   0  0  0  0  0  0  0  0  0  0  0  0  # atno 8008 bound_to 7997
  154.9108  140.3013  155.5247 H   0  0  0  0  0  0  0  0  0  0  0  0  # atno 8009 bound_to 7997
  156.2989  140.2358  156.4147 H   0  0  0  0  0  0  0  0  0  0  0  0  # atno 8010 bound_to 7997
  140.1442  144.4525  150.6794 H   0  0  0  0  0  0  0  0  0  0  0  0  # atno 10167 bound_to 10162
  156.5600  130.8643  151.2806 H   0  0  0  0  0  0  0  0  0  0  0  0  # atno 10718 bound_to 10713
  153.0075  135.5376  154.6585 H   0  0  0  0  0  0  0  0  0  0  0  0  # atno 10763 bound_to 10752
  154.5800  135.2849  155.0745 H   0  0  0  0  0  0  0  0  0  0  0  0  # atno 10764 bound_to 10752
  154.1878  135.6505  153.5104 H   0  0  0  0  0  0  0  0  0  0  0  0  # atno 10765 bound_to 10752
  140.1792  134.8487  157.2783 H   0  0  0  0  0  0  0  0  0  0  0  0  # atno 11005 bound_to 11000
  144.7191  140.4311  143.7022 LP  0  0  0  0  0  0  0  0  0  0  0  0  # atno 17320 bound_to 7965
  145.6512  139.1565  143.2861 LP  0  0  0  0  0  0  0  0  0  0  0  0  # atno 17321 bound_to 7965
  140.6742  143.2298  151.5549 LP  0  0  0  0  0  0  0  0  0  0  0  0  # atno 17342 bound_to 10162
  139.5457  144.2527  152.1437 LP  0  0  0  0  0  0  0  0  0  0  0  0  # atno 17343 bound_to 10162
  157.7370  130.9789  150.2170 LP  0  0  0  0  0  0  0  0  0  0  0  0  # atno 17370 bound_to 10713
  156.2808  130.3733  149.7937 LP  0  0  0  0  0  0  0  0  0  0  0  0  # atno 17371 bound_to 10713
  140.2286  134.3936  155.7532 LP  0  0  0  0  0  0  0  0  0  0  0  0  # atno 17394 bound_to 11000
  141.2222  133.7203  156.8605 LP  0  0  0  0  0  0  0  0  0  0  0  0  # atno 17395 bound_to 11000

$$$$
