AV-unprocessed.smi:1230|AV-procd|sdf|5159|dock8
  -GOLD-   22720 4233D 1   1.00000     0.00000
 Structure written by MMmdl.
 39 40  0  0  0  0  0  0  0  0  1 V2000
  153.1336  142.6553  162.4344 C   0  0  0  0  0  0  0  0  0  0  0  0
  152.4678  143.2080  161.1634 C   0  0  1  0  0  0  0  0  0  0  0  0
  151.9548  144.6429  161.3995 C   0  0  0  0  0  0  0  0  0  0  0  0
  151.2907  145.2258  160.1430 C   0  0  0  0  0  0  0  0  0  0  0  0
  152.2492  145.1861  158.9451 C   0  0  0  0  0  0  0  0  0  0  0  0
  152.7574  143.7590  158.6929 C   0  0  0  0  0  0  0  0  0  0  0  0
  153.4248  143.1622  159.9504 C   0  0  2  0  0  0  0  0  0  0  0  0
  153.7595  141.8006  159.7097 O   0  0  0  0  0  0  0  0  0  0  0  0
  152.7257  141.0400  159.1042 C   0  0  0  0  0  0  0  0  0  0  0  0
  152.9601  139.5569  159.4282 C   0  0  0  0  0  0  0  0  0  0  0  0
  152.5291  138.6779  158.3703 N   0  0  0  0  0  0  0  0  0  0  0  0
  152.0106  139.1520  157.1748 C   0  0  0  0  0  0  0  0  0  0  0  0
  151.5862  138.3327  156.1838 C   0  0  0  0  0  0  0  0  0  0  0  0
  151.0533  138.8353  154.9607 C   0  0  0  0  0  0  0  0  0  0  0  0
  150.5973  139.2440  153.9788 N   0  0  0  0  0  0  0  0  0  0  0  0
  151.6549  136.8801  156.3343 C   0  0  0  0  0  0  0  0  0  0  0  0
  151.2990  136.0546  155.4955 O   0  0  0  0  0  0  0  0  0  0  0  0
  152.1768  136.4519  157.5593 N   0  0  0  0  0  0  0  0  0  0  0  0
  152.6156  137.2831  158.5921 C   0  0  0  0  0  0  0  0  0  0  0  0
  153.0482  136.7904  159.6342 O   0  0  0  0  0  0  0  0  0  0  0  0
  152.2386  135.4555  157.7117 H   0  0  0  0  0  0  0  0  0  0  0  0
  154.0177  143.2346  162.7028 H   0  0  0  0  0  0  0  0  0  0  0  0
  153.4435  141.6185  162.3025 H   0  0  0  0  0  0  0  0  0  0  0  0
  152.4473  142.6844  163.2812 H   0  0  0  0  0  0  0  0  0  0  0  0
  151.6058  142.5777  160.9393 H   0  0  0  0  0  0  0  0  0  0  0  0
  151.2415  144.6527  162.2243 H   0  0  0  0  0  0  0  0  0  0  0  0
  152.7832  145.2854  161.7014 H   0  0  0  0  0  0  0  0  0  0  0  0
  150.3877  144.6603  159.9098 H   0  0  0  0  0  0  0  0  0  0  0  0
  150.9738  146.2518  160.3320 H   0  0  0  0  0  0  0  0  0  0  0  0
  151.7471  145.5650  158.0545 H   0  0  0  0  0  0  0  0  0  0  0  0
  153.0953  145.8492  159.1296 H   0  0  0  0  0  0  0  0  0  0  0  0
  151.9228  143.1264  158.3878 H   0  0  0  0  0  0  0  0  0  0  0  0
  153.4552  143.7711  157.8562 H   0  0  0  0  0  0  0  0  0  0  0  0
  154.3211  143.7349  160.1971 H   0  0  0  0  0  0  0  0  0  0  0  0
  151.7498  141.3600  159.4686 H   0  0  0  0  0  0  0  0  0  0  0  0
  152.7394  141.1908  158.0237 H   0  0  0  0  0  0  0  0  0  0  0  0
  154.0228  139.3587  159.5757 H   0  0  0  0  0  0  0  0  0  0  0  0
  152.4598  139.2436  160.3472 H   0  0  0  0  0  0  0  0  0  0  0  0
  151.9369  140.2198  157.0230 H   0  0  0  0  0  0  0  0  0  0  0  0
  1  2  1  0  0  0  0
  1 22  1  0  0  0  0
  1 23  1  0  0  0  0
  1 24  1  0  0  0  0
  2  7  1  0  0  0  0
  2  3  1  0  0  0  0
  2 25  1  0  0  0  0
  3  4  1  0  0  0  0
  3 26  1  0  0  0  0
  3 27  1  0  0  0  0
  4  5  1  0  0  0  0
  4 28  1  0  0  0  0
  4 29  1  0  0  0  0
  5  6  1  0  0  0  0
  5 30  1  0  0  0  0
  5 31  1  0  0  0  0
  6  7  1  0  0  0  0
  6 32  1  0  0  0  0
  6 33  1  0  0  0  0
  7  8  1  0  0  0  0
  7 34  1  0  0  0  0
  8  9  1  0  0  0  0
  9 10  1  0  0  0  0
  9 35  1  0  0  0  0
  9 36  1  0  0  0  0
 10 11  1  0  0  0  0
 10 37  1  0  0  0  0
 10 38  1  0  0  0  0
 11 19  1  0  0  0  0
 11 12  1  0  0  0  0
 12 13  2  0  0  0  0
 12 39  1  0  0  0  0
 13 14  1  0  0  0  0
 13 16  1  0  0  0  0
 14 15  3  0  0  0  0
 16 17  2  0  0  0  0
 16 18  1  0  0  0  0
 18 21  1  0  0  0  0
 18 19  1  0  0  0  0
 19 20  2  0  0  0  0
M  END
> <s_m_source_file>
AV-unprocessed.smi

> <i_m_source_file_index>
1230

> <i_lp_mmshare_version>
43012

> <i_f3d_flags>
0

> <s_epik_input>
W0NIM11bQ0BASF0xW0NIMl1bQ0gyXVtDSDJdW0NIMl1bQ0BIXTFPW0NIMl1bQ0gyXW4yW2NIXWMoQyNOKWMoPU8pW25IXWMyPU8=

> <s_epik_cmdline>
J2VwaWtfcHl0aG9uJywgJy1waCcsICc3LjAnLCAnLXRuJywgJzgnLCAnLW1hJywgJzIwMCcsICctbWV0YWxfYmluZGluZycsICctaW1hZScsICc8aW5maWxlLm1hZT4nLCAnLW9tYWUnLCAnPG91dGZpbGUubWFlPic=

> <r_epik_Ionization_Penalty>
0.421541

> <r_epik_Ionization_Penalty_Charging>
0.421541

> <r_epik_Ionization_Penalty_Neutral>
2.29267e-11

> <r_epik_State_Penalty>
0.422277

> <r_epik_Charging_Adjusted_Penalty>
0.843818

> <i_epik_Tot_Q>
0

> <i_epik_Tot_abs_Q>
0

> <r_epik_Metal_State_Penalty>
4.11629

> <b_epik_Metal_Only>
0

> <s_lp_Force_Field>
OPLS_2005

> <r_lp_Energy>
13.3669

> <b_lp_Chiralities_Consistent>
1

> <s_lp_Variant>
AV-unprocessed.smi:1230-8

> <Gold.Version>
5.8.1

> <Gold.Id.Protein>
6NUR|6NUR_protein|mol2

> <Gold.PLP.Fitness>
50.1921

> <Gold.PLP.PLP>
-42.0804

> <Gold.PLP.part.hbond>
-3.0000

> <Gold.PLP.part.metal>
0.0000

> <Gold.PLP.part.buried>
-4.1362

> <Gold.PLP.part.nonpolar>
-36.0739

> <Gold.PLP.part.repulsive>
1.0561

> <Gold.PLP.ligand.clash>
0.0000

> <Gold.PLP.ligand.torsion>
0.4475

> <Gold.PLP.Chemscore.Hbond>
3.0000

> <Gold.PLP.Chemscore.CHOScore>
0.0000

> <Gold.PLP.Chemscore.Metal>
0.0000

> <Gold.Chemscore.Hbonds>
donor molecule, donor type, donor heavy atom, donor atom, acceptor molecule, acceptor atom, score
      P1  H  6896  6908       L1    20  0.91
      P1  H  7989  7998       L1    15  1.00
      P1  H 10752 10765       L1    17  1.00

> <Gold.PLP.Chemscore.Internal.Correction>
0.0067

> <Gold.Rescore>
     Score         DG    S(hbond)    S(metal)    S(lipo)     H(rot)  DE(clash)    DE(int)     intcor
     19.41     -21.33       2.25        0.00     113.58       1.94       1.49       0.43       ----

> <Gold.Chemscore.Fitness>
19.4145

> <Gold.Chemscore.DG>
-21.3315

> <Gold.Chemscore.ZeroCoef>
-5.4800

> <Gold.Chemscore.Hbond>
2.2531

> <Gold.Chemscore.Metal>
0.0000

> <Gold.Chemscore.Lipo>
113.5790

> <Gold.Chemscore.Internal_Hbond>
0.0000

> <Gold.Chemscore.DEClash>
1.4875

> <Gold.Chemscore.DEInternal>
0.4295

> <Gold.Chemscore.Rot>
1.9385

> <Gold.Chemscore.Internal.Correction>
   9.000000E+99

> <Gold.Chemscore.Hbonds>
donor molecule, donor type, donor heavy atom, donor atom, acceptor molecule, acceptor atom, score
      P1  H  6896  6908       L1    20  0.58
      P1  H  7989  7998       L1    15  0.63
      P1  H 10752 10765       L1    17  0.30

> <Gold.Chemscore.Hbond.Weighted>
-7.5253

> <Gold.Chemscore.Metal.Weighted>
-0.0000

> <Gold.Chemscore.Lipo.Weighted>
-13.2887

> <Gold.Chemscore.Internal_Hbond.Weighted>
0.0000

> <Gold.Chemscore.DEClash.Weighted>
1.4875

> <Gold.Chemscore.DEInternal.Weighted>
0.4295

> <Gold.Chemscore.Rot.Weighted>
4.9625

> <Gold.Chemscore.Internal.Correction.Weighted>
   9.000000E+99

> <Gold.Protein.RotatedTorsions>
[ 6907 6896 6895 6894 ] final  -98.77 input  -60.11 | X-H torsion
[ 7974 7965 7964 7962 ] final   70.27 input  175.53 | X-H torsion
[ 8008 7997 7996 7995 ] final  -94.73 input   59.86 | X-H torsion
[ 10167 10162 10161 10158 ] final   17.50 input  -65.29 | X-H torsion
[ 10718 10713 10712 10709 ] final -151.40 input   66.30 | X-H torsion
[ 10763 10752 10751 10750 ] final -169.02 input  -60.55 | X-H torsion
[ 11005 11000 10999 10996 ] final    4.40 input  -57.11 | X-H torsion

> <Gold.Protein.ActiveResidues>
 VAL166  LYS551  ARG553  GLY616  TRP617  ASP618  TYR619  PRO620  LYS621  CYS622 
 ASP623  PHE694  ASN695  SER759  ASP760  ASP761  ALA762  ILE779  LEU786  VAL792 
 PHE793  MET794  SER795  GLU796  ALA797  LYS798  CYS799  TRP800  GLU811  SER814 

> <Gold.Protein.RotatedAtoms>
  150.7057  134.1144  159.4011 H   0  0  0  0  0  0  0  0  0  0  0  0  # atno 6907 bound_to 6896
  151.9130  135.0328  160.0525 H   0  0  0  0  0  0  0  0  0  0  0  0  # atno 6908 bound_to 6896
  152.2320  133.5030  159.5257 H   0  0  0  0  0  0  0  0  0  0  0  0  # atno 6909 bound_to 6896
  145.7802  139.2884  143.1270 H   0  0  0  0  0  0  0  0  0  0  0  0  # atno 7974 bound_to 7965
  154.7521  140.0486  157.0902 H   0  0  0  0  0  0  0  0  0  0  0  0  # atno 8008 bound_to 7997
  155.0043  140.3128  155.4835 H   0  0  0  0  0  0  0  0  0  0  0  0  # atno 8009 bound_to 7997
  156.2887  140.2195  156.5155 H   0  0  0  0  0  0  0  0  0  0  0  0  # atno 8010 bound_to 7997
  140.5721  143.9141  150.6721 H   0  0  0  0  0  0  0  0  0  0  0  0  # atno 10167 bound_to 10162
  156.4587  130.8203  151.2434 H   0  0  0  0  0  0  0  0  0  0  0  0  # atno 10718 bound_to 10713
  154.6567  135.2919  154.9919 H   0  0  0  0  0  0  0  0  0  0  0  0  # atno 10763 bound_to 10752
  154.0993  135.6579  153.4869 H   0  0  0  0  0  0  0  0  0  0  0  0  # atno 10764 bound_to 10752
  153.0406  135.5238  154.7499 H   0  0  0  0  0  0  0  0  0  0  0  0  # atno 10765 bound_to 10752
  140.5824  134.0001  155.8053 H   0  0  0  0  0  0  0  0  0  0  0  0  # atno 11005 bound_to 11000
  146.0082  140.8459  142.9984 LP  0  0  0  0  0  0  0  0  0  0  0  0  # atno 17320 bound_to 7965
  144.6798  140.2451  143.7339 LP  0  0  0  0  0  0  0  0  0  0  0  0  # atno 17321 bound_to 7965
  140.2619  143.3518  152.1315 LP  0  0  0  0  0  0  0  0  0  0  0  0  # atno 17342 bound_to 10162
  139.5123  144.6915  151.5747 LP  0  0  0  0  0  0  0  0  0  0  0  0  # atno 17343 bound_to 10162
  157.7499  131.0114  150.3344 LP  0  0  0  0  0  0  0  0  0  0  0  0  # atno 17370 bound_to 10713
  156.3739  130.3868  149.7154 LP  0  0  0  0  0  0  0  0  0  0  0  0  # atno 17371 bound_to 10713
  141.0988  133.9801  157.3115 LP  0  0  0  0  0  0  0  0  0  0  0  0  # atno 17394 bound_to 11000
  139.9311  135.0200  156.8403 LP  0  0  0  0  0  0  0  0  0  0  0  0  # atno 17395 bound_to 11000

$$$$
