AV-unprocessed.smi:2465|AV-procd|sdf|9722|dock5
  -GOLD-   2272013363D 1   1.00000     0.00000
 Structure written by MMmdl.
 40 41  0  0  0  0  0  0  0  0  1 V2000
  142.3140  137.8145  153.2362 C   0  0  0  0  0  0  0  0  0  0  0  0
  143.3349  136.6966  153.1188 C   0  0  0  0  0  0  0  0  0  0  0  0
  142.9132  135.3530  153.1933 C   0  0  0  0  0  0  0  0  0  0  0  0
  143.8792  134.3349  153.0854 C   0  0  0  0  0  0  0  0  0  0  0  0
  145.1951  134.5789  152.9207 N   0  0  0  0  0  0  0  0  0  0  0  0
  145.5971  135.8655  152.8480 C   0  0  0  0  0  0  0  0  0  0  0  0
  144.7115  136.9699  152.9296 C   0  0  0  0  0  0  0  0  0  0  0  0
  145.1434  138.3256  152.8747 N   0  0  0  0  0  0  0  0  0  0  0  0
  146.3243  138.8473  153.2487 C   0  0  0  0  0  0  0  0  0  0  0  0
  147.2781  138.2083  153.6926 O   0  0  0  0  0  0  0  0  0  0  0  0
  146.3493  140.1737  153.0564 N   0  0  0  0  0  0  0  0  0  0  0  0
  147.4846  141.0402  153.3516 C   0  0  0  0  0  0  0  0  0  0  0  0
  148.0915  140.7285  154.7286 C   0  0  0  0  0  0  0  0  0  0  0  0
  149.5248  140.1835  154.6261 C   0  0  0  0  0  0  0  0  0  0  0  0
  150.3099  140.5213  155.8096 N   0  0  0  0  0  0  0  0  0  0  0  0
  149.6811  141.1368  156.9660 C   0  0  0  0  0  0  0  0  0  0  0  0
  150.7596  141.1232  158.0586 C   0  0  0  0  0  0  0  0  0  0  0  0
  152.0784  140.8252  157.3369 C   0  0  0  0  0  0  0  0  0  0  0  0
  151.6283  140.3518  155.9651 C   0  0  0  0  0  0  0  0  0  0  0  0
  152.4028  139.8801  155.1338 O   0  0  0  0  0  0  0  0  0  0  0  0
  141.3095  137.4201  153.3929 H   0  0  0  0  0  0  0  0  0  0  0  0
  142.3026  138.4154  152.3264 H   0  0  0  0  0  0  0  0  0  0  0  0
  142.5553  138.4644  154.0778 H   0  0  0  0  0  0  0  0  0  0  0  0
  141.8720  135.1019  153.3313 H   0  0  0  0  0  0  0  0  0  0  0  0
  143.5873  133.2964  153.1385 H   0  0  0  0  0  0  0  0  0  0  0  0
  146.6630  135.9939  152.7442 H   0  0  0  0  0  0  0  0  0  0  0  0
  144.4928  138.9682  152.4474 H   0  0  0  0  0  0  0  0  0  0  0  0
  145.5239  140.6171  152.6805 H   0  0  0  0  0  0  0  0  0  0  0  0
  148.2343  140.8926  152.5740 H   0  0  0  0  0  0  0  0  0  0  0  0
  147.1797  142.0866  153.2948 H   0  0  0  0  0  0  0  0  0  0  0  0
  148.0963  141.6312  155.3412 H   0  0  0  0  0  0  0  0  0  0  0  0
  147.4579  140.0078  155.2473 H   0  0  0  0  0  0  0  0  0  0  0  0
  149.5089  139.1002  154.4971 H   0  0  0  0  0  0  0  0  0  0  0  0
  150.0152  140.5917  153.7413 H   0  0  0  0  0  0  0  0  0  0  0  0
  149.3897  142.1580  156.7163 H   0  0  0  0  0  0  0  0  0  0  0  0
  148.7880  140.5901  157.2715 H   0  0  0  0  0  0  0  0  0  0  0  0
  150.7948  142.0673  158.6034 H   0  0  0  0  0  0  0  0  0  0  0  0
  150.5487  140.3345  158.7819 H   0  0  0  0  0  0  0  0  0  0  0  0
  152.6858  141.7242  157.2294 H   0  0  0  0  0  0  0  0  0  0  0  0
  152.6661  140.0628  157.8491 H   0  0  0  0  0  0  0  0  0  0  0  0
  1  2  1  0  0  0  0
  1 21  1  0  0  0  0
  1 22  1  0  0  0  0
  1 23  1  0  0  0  0
  2  7  1  0  0  0  0
  2  3  2  0  0  0  0
  3  4  1  0  0  0  0
  3 24  1  0  0  0  0
  4  5  2  0  0  0  0
  4 25  1  0  0  0  0
  5  6  1  0  0  0  0
  6  7  2  0  0  0  0
  6 26  1  0  0  0  0
  7  8  1  0  0  0  0
  8  9  1  0  0  0  0
  8 27  1  0  0  0  0
  9 10  2  0  0  0  0
  9 11  1  0  0  0  0
 11 12  1  0  0  0  0
 11 28  1  0  0  0  0
 12 13  1  0  0  0  0
 12 29  1  0  0  0  0
 12 30  1  0  0  0  0
 13 14  1  0  0  0  0
 13 31  1  0  0  0  0
 13 32  1  0  0  0  0
 14 15  1  0  0  0  0
 14 33  1  0  0  0  0
 14 34  1  0  0  0  0
 15 19  1  0  0  0  0
 15 16  1  0  0  0  0
 16 17  1  0  0  0  0
 16 35  1  0  0  0  0
 16 36  1  0  0  0  0
 17 18  1  0  0  0  0
 17 37  1  0  0  0  0
 17 38  1  0  0  0  0
 18 19  1  0  0  0  0
 18 39  1  0  0  0  0
 18 40  1  0  0  0  0
 19 20  2  0  0  0  0
M  END
> <s_m_source_file>
AV-unprocessed.smi

> <i_m_source_file_index>
2465

> <i_lp_mmshare_version>
43012

> <i_f3d_flags>
0

> <s_epik_input>
W0NIM11jMVtjSF1bY0hdbltjSF1jMVtOSF1DKD1PKVtOSF1bQ0gyXVtDSDJdW0NIMl1OMltDSDJdW0NIMl1bQ0gyXUMyPU8=

> <s_epik_cmdline>
J2VwaWtfcHl0aG9uJywgJy1waCcsICc3LjAnLCAnLXRuJywgJzgnLCAnLW1hJywgJzIwMCcsICctbWV0YWxfYmluZGluZycsICctaW1hZScsICc8aW5maWxlLm1hZT4nLCAnLW9tYWUnLCAnPG91dGZpbGUubWFlPic=

> <r_epik_Ionization_Penalty>
0.0211997

> <r_epik_Ionization_Penalty_Charging>
0

> <r_epik_Ionization_Penalty_Neutral>
0.0211997

> <r_epik_State_Penalty>
0.0170047

> <r_epik_Charging_Adjusted_Penalty>
0.0170047

> <i_epik_Tot_Q>
0

> <i_epik_Tot_abs_Q>
0

> <r_epik_Metal_State_Penalty>
0.0163833

> <b_epik_Metal_Only>
0

> <s_lp_Force_Field>
OPLS_2005

> <r_lp_Energy>
19.6331

> <b_lp_Chiralities_Consistent>
1

> <s_lp_Variant>
AV-unprocessed.smi:2465-1

> <Gold.Version>
5.8.1

> <Gold.Id.Protein>
6NUR|6NUR_protein|mol2

> <Gold.PLP.Fitness>
43.2927

> <Gold.PLP.PLP>
-29.4865

> <Gold.PLP.part.hbond>
-3.5491

> <Gold.PLP.part.metal>
0.0000

> <Gold.PLP.part.buried>
-4.0823

> <Gold.PLP.part.nonpolar>
-23.2739

> <Gold.PLP.part.repulsive>
0.2786

> <Gold.PLP.ligand.clash>
0.0000

> <Gold.PLP.ligand.torsion>
0.8838

> <Gold.PLP.Chemscore.Hbond>
3.1842

> <Gold.PLP.Chemscore.CHOScore>
1.9913

> <Gold.PLP.Chemscore.Metal>
0.0000

> <Gold.Chemscore.Hbonds>
donor molecule, donor type, donor heavy atom, donor atom, acceptor molecule, acceptor atom, score
      L1  H     8    27       P1 10175  1.00
      L1  H    11    28       P1 10175  0.93
      P1  H  7989  7998       L1    20  0.58
      P1  H  7997  8008       L1    20  0.59
      L1  C     4    25       P1 10957  1.00
      L1  C     6    26       P1  7948  1.00

> <Gold.PLP.Chemscore.Internal.Correction>
0.0472

> <Gold.Rescore>
     Score         DG    S(hbond)    S(metal)    S(lipo)     H(rot)  DE(clash)    DE(int)     intcor
     13.05     -16.47       2.69        0.00      55.16       1.74       0.17       3.25       ----

> <Gold.Chemscore.Fitness>
13.0491

> <Gold.Chemscore.DG>
-16.4686

> <Gold.Chemscore.ZeroCoef>
-5.4800

> <Gold.Chemscore.Hbond>
2.6921

> <Gold.Chemscore.Metal>
0.0000

> <Gold.Chemscore.Lipo>
55.1622

> <Gold.Chemscore.Internal_Hbond>
0.0000

> <Gold.Chemscore.DEClash>
0.1668

> <Gold.Chemscore.DEInternal>
3.2527

> <Gold.Chemscore.Rot>
1.7410

> <Gold.Chemscore.Internal.Correction>
   9.000000E+99

> <Gold.Chemscore.Hbonds>
donor molecule, donor type, donor heavy atom, donor atom, acceptor molecule, acceptor atom, score
      L1  H     8    27       P1 10175  0.95
      L1  H    11    28       P1 10175  0.45
      P1  H  7989  7998       L1    20  0.11
      P1  H  7997  8008       L1    20  0.32

> <Gold.Chemscore.Hbond.Weighted>
-8.9917

> <Gold.Chemscore.Metal.Weighted>
-0.0000

> <Gold.Chemscore.Lipo.Weighted>
-6.4540

> <Gold.Chemscore.Internal_Hbond.Weighted>
0.0000

> <Gold.Chemscore.DEClash.Weighted>
0.1668

> <Gold.Chemscore.DEInternal.Weighted>
3.2527

> <Gold.Chemscore.Rot.Weighted>
4.4571

> <Gold.Chemscore.Internal.Correction.Weighted>
   9.000000E+99

> <Gold.Protein.RotatedTorsions>
[ 6907 6896 6895 6894 ] final   42.87 input  -60.11 | X-H torsion
[ 7974 7965 7964 7962 ] final -113.70 input  175.53 | X-H torsion
[ 8008 7997 7996 7995 ] final  -20.38 input   59.86 | X-H torsion
[ 10167 10162 10161 10158 ] final   43.13 input  -65.29 | X-H torsion
[ 10718 10713 10712 10709 ] final   55.66 input   66.30 | X-H torsion
[ 10763 10752 10751 10750 ] final  175.54 input  -60.55 | X-H torsion
[ 11005 11000 10999 10996 ] final  142.89 input  -57.11 | X-H torsion

> <Gold.Protein.ActiveResidues>
 VAL166  LYS551  ARG553  GLY616  TRP617  ASP618  TYR619  PRO620  LYS621  CYS622 
 ASP623  PHE694  ASN695  SER759  ASP760  ASP761  ALA762  ILE779  LEU786  VAL792 
 PHE793  MET794  SER795  GLU796  ALA797  LYS798  CYS799  TRP800  GLU811  SER814 

> <Gold.Protein.RotatedAtoms>
  152.2133  134.8481  160.0494 H   0  0  0  0  0  0  0  0  0  0  0  0  # atno 6907 bound_to 6896
  151.9292  133.3601  159.3933 H   0  0  0  0  0  0  0  0  0  0  0  0  # atno 6908 bound_to 6896
  150.6981  134.4480  159.5367 H   0  0  0  0  0  0  0  0  0  0  0  0  # atno 6909 bound_to 6896
  145.1290  140.8713  143.3769 H   0  0  0  0  0  0  0  0  0  0  0  0  # atno 7974 bound_to 7965
  154.4773  140.2063  155.9846 H   0  0  0  0  0  0  0  0  0  0  0  0  # atno 8008 bound_to 7997
  156.1110  140.3229  155.8043 H   0  0  0  0  0  0  0  0  0  0  0  0  # atno 8009 bound_to 7997
  155.4634  140.0526  157.2979 H   0  0  0  0  0  0  0  0  0  0  0  0  # atno 8010 bound_to 7997
  140.3475  144.2392  150.6149 H   0  0  0  0  0  0  0  0  0  0  0  0  # atno 10167 bound_to 10162
  157.5364  130.8666  149.8759 H   0  0  0  0  0  0  0  0  0  0  0  0  # atno 10718 bound_to 10713
  154.4690  135.2770  155.1657 H   0  0  0  0  0  0  0  0  0  0  0  0  # atno 10763 bound_to 10752
  154.3413  135.6169  153.5601 H   0  0  0  0  0  0  0  0  0  0  0  0  # atno 10764 bound_to 10752
  152.9862  135.5789  154.5067 H   0  0  0  0  0  0  0  0  0  0  0  0  # atno 10765 bound_to 10752
  140.0512  134.9255  157.1020 H   0  0  0  0  0  0  0  0  0  0  0  0  # atno 11005 bound_to 11000
  145.0657  139.3071  143.5858 LP  0  0  0  0  0  0  0  0  0  0  0  0  # atno 17320 bound_to 7965
  146.3515  140.0114  142.8667 LP  0  0  0  0  0  0  0  0  0  0  0  0  # atno 17321 bound_to 7965
  140.5251  143.2256  151.8328 LP  0  0  0  0  0  0  0  0  0  0  0  0  # atno 17342 bound_to 10162
  139.4831  144.4790  151.9331 LP  0  0  0  0  0  0  0  0  0  0  0  0  # atno 17343 bound_to 10162
  156.0462  130.3727  150.1313 LP  0  0  0  0  0  0  0  0  0  0  0  0  # atno 17370 bound_to 10713
  156.9495  130.9770  151.3501 LP  0  0  0  0  0  0  0  0  0  0  0  0  # atno 17371 bound_to 10713
  140.3915  134.2180  155.7166 LP  0  0  0  0  0  0  0  0  0  0  0  0  # atno 17394 bound_to 11000
  141.1931  133.8158  157.0813 LP  0  0  0  0  0  0  0  0  0  0  0  0  # atno 17395 bound_to 11000

$$$$
