AV-unprocessed.smi:544|AV-procd|sdf|2877|dock8
  -GOLD-   2262023373D 1   1.00000     0.00000
 Structure written by MMmdl.
 49 51  0  0  0  0  0  0  0  0  1 V2000
  143.2192  131.8374  158.1188 C   0  0  0  0  0  0  0  0  0  0  0  0
  144.6898  132.2478  158.2185 C   0  0  0  0  0  0  0  0  0  0  0  0
  145.1489  132.6020  156.9265 O   0  0  0  0  0  0  0  0  0  0  0  0
  146.4557  133.1489  156.9314 C   0  0  0  0  0  0  0  0  0  0  0  0
  146.4744  134.4389  157.7653 C   0  0  0  0  0  0  0  0  0  0  0  0
  147.8068  135.0304  157.8522 N   0  0  0  0  0  0  0  0  0  0  0  0
  148.5158  135.3535  158.9648 C   0  0  0  0  0  0  0  0  0  0  0  0
  147.9985  135.1341  160.2366 N   0  0  0  0  0  0  0  0  0  0  0  0
  147.4671  133.8570  160.7026 C   0  0  0  0  0  0  0  0  0  0  0  0
  146.0995  134.0330  161.3825 C   0  0  0  0  0  0  0  0  0  0  0  0
  146.2055  135.0206  162.5530 C   0  0  0  0  0  0  0  0  0  0  0  0
  146.8500  136.3380  162.0850 C   0  0  1  0  0  0  0  0  0  0  0  0
  147.0507  137.3142  163.2518 C   0  0  0  0  0  0  0  0  0  0  0  0
  148.1802  136.0493  161.3595 C   0  0  0  0  0  0  0  0  0  0  0  0
  149.7107  135.9023  158.7336 N   0  0  0  0  0  0  0  0  0  0  0  0
  149.7728  135.9266  157.3475 C   0  0  0  0  0  0  0  0  0  0  0  0
  148.6391  135.4158  156.8022 C   0  0  0  0  0  0  0  0  0  0  0  0
  148.4252  135.3390  155.3523 C   0  0  0  0  0  0  0  0  0  0  0  0
  147.4041  134.8838  154.8415 O   0  0  0  0  0  0  0  0  0  0  0  0
  149.4664  135.8284  154.6359 N   0  0  0  0  0  0  0  0  0  0  0  0
  150.6320  136.3581  155.1186 C   0  0  0  0  0  0  0  0  0  0  0  0
  151.4849  136.7791  154.3375 O   0  0  0  0  0  0  0  0  0  0  0  0
  150.7984  136.3992  156.4799 N   0  0  0  0  0  0  0  0  0  0  0  0
  152.0250  136.9525  157.0568 C   0  0  0  0  0  0  0  0  0  0  0  0
  149.3689  135.8042  153.6314 H   0  0  0  0  0  0  0  0  0  0  0  0
  142.8257  131.5568  159.0957 H   0  0  0  0  0  0  0  0  0  0  0  0
  143.0956  130.9856  157.4495 H   0  0  0  0  0  0  0  0  0  0  0  0
  142.6105  132.6564  157.7347 H   0  0  0  0  0  0  0  0  0  0  0  0
  144.7965  133.0915  158.9016 H   0  0  0  0  0  0  0  0  0  0  0  0
  145.2814  131.4217  158.6150 H   0  0  0  0  0  0  0  0  0  0  0  0
  147.1566  132.4208  157.3411 H   0  0  0  0  0  0  0  0  0  0  0  0
  146.7739  133.3672  155.9111 H   0  0  0  0  0  0  0  0  0  0  0  0
  145.7908  135.1742  157.3415 H   0  0  0  0  0  0  0  0  0  0  0  0
  146.1014  134.2341  158.7680 H   0  0  0  0  0  0  0  0  0  0  0  0
  147.3850  133.1666  159.8634 H   0  0  0  0  0  0  0  0  0  0  0  0
  148.1774  133.4093  161.3988 H   0  0  0  0  0  0  0  0  0  0  0  0
  145.3707  134.3972  160.6576 H   0  0  0  0  0  0  0  0  0  0  0  0
  145.7305  133.0698  161.7358 H   0  0  0  0  0  0  0  0  0  0  0  0
  145.2180  135.2076  162.9759 H   0  0  0  0  0  0  0  0  0  0  0  0
  146.8074  134.5766  163.3474 H   0  0  0  0  0  0  0  0  0  0  0  0
  146.1726  136.8113  161.3730 H   0  0  0  0  0  0  0  0  0  0  0  0
  147.7253  136.9010  164.0023 H   0  0  0  0  0  0  0  0  0  0  0  0
  146.1035  137.5404  163.7422 H   0  0  0  0  0  0  0  0  0  0  0  0
  147.4760  138.2563  162.9051 H   0  0  0  0  0  0  0  0  0  0  0  0
  148.9078  135.6239  162.0518 H   0  0  0  0  0  0  0  0  0  0  0  0
  148.6101  136.9817  160.9911 H   0  0  0  0  0  0  0  0  0  0  0  0
  152.9104  136.5686  156.5481 H   0  0  0  0  0  0  0  0  0  0  0  0
  152.1344  136.7027  158.1119 H   0  0  0  0  0  0  0  0  0  0  0  0
  152.0254  138.0393  156.9698 H   0  0  0  0  0  0  0  0  0  0  0  0
  1  2  1  0  0  0  0
  1 26  1  0  0  0  0
  1 27  1  0  0  0  0
  1 28  1  0  0  0  0
  2  3  1  0  0  0  0
  2 29  1  0  0  0  0
  2 30  1  0  0  0  0
  3  4  1  0  0  0  0
  4  5  1  0  0  0  0
  4 31  1  0  0  0  0
  4 32  1  0  0  0  0
  5  6  1  0  0  0  0
  5 33  1  0  0  0  0
  5 34  1  0  0  0  0
  6 17  1  0  0  0  0
  6  7  1  0  0  0  0
  7  8  1  0  0  0  0
  7 15  2  0  0  0  0
  8 14  1  0  0  0  0
  8  9  1  0  0  0  0
  9 10  1  0  0  0  0
  9 35  1  0  0  0  0
  9 36  1  0  0  0  0
 10 11  1  0  0  0  0
 10 37  1  0  0  0  0
 10 38  1  0  0  0  0
 11 12  1  0  0  0  0
 11 39  1  0  0  0  0
 11 40  1  0  0  0  0
 12 13  1  0  0  0  0
 12 14  1  0  0  0  0
 12 41  1  0  0  0  0
 13 42  1  0  0  0  0
 13 43  1  0  0  0  0
 13 44  1  0  0  0  0
 14 45  1  0  0  0  0
 14 46  1  0  0  0  0
 15 16  1  0  0  0  0
 16 23  1  0  0  0  0
 16 17  2  0  0  0  0
 17 18  1  0  0  0  0
 18 19  2  0  0  0  0
 18 20  1  0  0  0  0
 20 25  1  0  0  0  0
 20 21  1  0  0  0  0
 21 22  2  0  0  0  0
 21 23  1  0  0  0  0
 23 24  1  0  0  0  0
 24 47  1  0  0  0  0
 24 48  1  0  0  0  0
 24 49  1  0  0  0  0
M  END
> <s_m_source_file>
AV-unprocessed.smi

> <i_m_source_file_index>
544

> <i_lp_mmshare_version>
43012

> <i_f3d_flags>
0

> <s_epik_input>
W0NIM11uMWMoPU8pW25IXWMoPU8pYyhjMTIpbihbQ0gyXVtDSDJdT1tDSDJdW0NIM10pYyhuMilOM1tDSDJdW0NIMl1bQ0gyXVtDQEBIXShbQ0gzXSlbQ0gyXTM=

> <s_epik_cmdline>
J2VwaWtfcHl0aG9uJywgJy1waCcsICc3LjAnLCAnLXRuJywgJzgnLCAnLW1hJywgJzIwMCcsICctbWV0YWxfYmluZGluZycsICctaW1hZScsICc8aW5maWxlLm1hZT4nLCAnLW9tYWUnLCAnPG91dGZpbGUubWFlPic=

> <r_lp_tautomer_probability>
1

> <r_epik_Ionization_Penalty>
0.000382477

> <r_epik_Ionization_Penalty_Charging>
0.000119472

> <r_epik_Ionization_Penalty_Neutral>
0.000263005

> <r_epik_State_Penalty>
-0

> <r_epik_Charging_Adjusted_Penalty>
0.000119472

> <i_epik_Tot_Q>
0

> <i_epik_Tot_abs_Q>
0

> <r_epik_Metal_State_Penalty>
0.0919313

> <b_epik_Metal_Only>
0

> <s_lp_Force_Field>
OPLS_2005

> <r_lp_Energy>
37.8306

> <b_lp_Chiralities_Consistent>
1

> <s_lp_Variant>
AV-unprocessed.smi:544-1

> <Gold.Version>
5.8.1

> <Gold.Id.Protein>
6NUR|6NUR_protein|mol2

> <Gold.PLP.Fitness>
35.1553

> <Gold.PLP.PLP>
-26.7657

> <Gold.PLP.part.hbond>
-3.0000

> <Gold.PLP.part.metal>
0.0000

> <Gold.PLP.part.buried>
-4.0916

> <Gold.PLP.part.nonpolar>
-20.2226

> <Gold.PLP.part.repulsive>
0.8846

> <Gold.PLP.ligand.clash>
0.0000

> <Gold.PLP.ligand.torsion>
0.7808

> <Gold.PLP.Chemscore.Hbond>
3.0000

> <Gold.PLP.Chemscore.CHOScore>
0.0000

> <Gold.PLP.Chemscore.Metal>
0.0000

> <Gold.Chemscore.Hbonds>
donor molecule, donor type, donor heavy atom, donor atom, acceptor molecule, acceptor atom, score
      L1  H    20    25       P1  7948  1.00
      P1  H  6896  6909       L1    15  1.00
      P1  H 10752 10764       L1    22  1.00

> <Gold.PLP.Chemscore.Internal.Correction>
0.9513

> <Gold.Rescore>
     Score         DG    S(hbond)    S(metal)    S(lipo)     H(rot)  DE(clash)    DE(int)     intcor
     14.72     -17.39       2.68        0.00      59.73       1.58       0.67       2.00       ----

> <Gold.Chemscore.Fitness>
14.7176

> <Gold.Chemscore.DG>
-17.3867

> <Gold.Chemscore.ZeroCoef>
-5.4800

> <Gold.Chemscore.Hbond>
2.6840

> <Gold.Chemscore.Metal>
0.0000

> <Gold.Chemscore.Lipo>
59.7284

> <Gold.Chemscore.Internal_Hbond>
0.0000

> <Gold.Chemscore.DEClash>
0.6659

> <Gold.Chemscore.DEInternal>
2.0032

> <Gold.Chemscore.Rot>
1.5806

> <Gold.Chemscore.Internal.Correction>
   9.000000E+99

> <Gold.Chemscore.Hbonds>
donor molecule, donor type, donor heavy atom, donor atom, acceptor molecule, acceptor atom, score
      L1  H    20    25       P1  7948  0.50
      P1  H  6896  6909       L1    15  0.44
      P1  H 10752 10764       L1    22  0.60

> <Gold.Chemscore.Hbond.Weighted>
-8.9647

> <Gold.Chemscore.Metal.Weighted>
-0.0000

> <Gold.Chemscore.Lipo.Weighted>
-6.9882

> <Gold.Chemscore.Internal_Hbond.Weighted>
0.0000

> <Gold.Chemscore.DEClash.Weighted>
0.6659

> <Gold.Chemscore.DEInternal.Weighted>
2.0032

> <Gold.Chemscore.Rot.Weighted>
4.0463

> <Gold.Chemscore.Internal.Correction.Weighted>
   9.000000E+99

> <Gold.Protein.RotatedTorsions>
[ 6907 6896 6895 6894 ] final   72.02 input  -60.11 | X-H torsion
[ 7974 7965 7964 7962 ] final   21.85 input  175.53 | X-H torsion
[ 8008 7997 7996 7995 ] final -171.28 input   59.86 | X-H torsion
[ 10167 10162 10161 10158 ] final -124.49 input  -65.29 | X-H torsion
[ 10718 10713 10712 10709 ] final    1.40 input   66.30 | X-H torsion
[ 10763 10752 10751 10750 ] final  -67.35 input  -60.55 | X-H torsion
[ 11005 11000 10999 10996 ] final -173.97 input  -57.11 | X-H torsion

> <Gold.Protein.ActiveResidues>
 VAL166  LYS551  ARG553  GLY616  TRP617  ASP618  TYR619  PRO620  LYS621  CYS622 
 ASP623  PHE694  ASN695  SER759  ASP760  ASP761  ALA762  ILE779  LEU786  VAL792 
 PHE793  MET794  SER795  GLU796  ALA797  LYS798  CYS799  TRP800  GLU811  SER814 

> <Gold.Protein.RotatedAtoms>
  152.4844  134.4633  159.9611 H   0  0  0  0  0  0  0  0  0  0  0  0  # atno 6907 bound_to 6896
  151.4632  133.3581  159.2820 H   0  0  0  0  0  0  0  0  0  0  0  0  # atno 6908 bound_to 6896
  150.8942  134.8374  159.7375 H   0  0  0  0  0  0  0  0  0  0  0  0  # atno 6909 bound_to 6896
  146.2054  139.7968  142.8730 H   0  0  0  0  0  0  0  0  0  0  0  0  # atno 7974 bound_to 7965
  155.9294  140.1088  157.1144 H   0  0  0  0  0  0  0  0  0  0  0  0  # atno 8008 bound_to 7997
  154.4068  140.1240  156.4849 H   0  0  0  0  0  0  0  0  0  0  0  0  # atno 8009 bound_to 7997
  155.7098  140.3471  155.4971 H   0  0  0  0  0  0  0  0  0  0  0  0  # atno 8010 bound_to 7997
  139.9923  143.5628  152.2337 H   0  0  0  0  0  0  0  0  0  0  0  0  # atno 10167 bound_to 10162
  156.8476  130.5542  149.5672 H   0  0  0  0  0  0  0  0  0  0  0  0  # atno 10718 bound_to 10713
  154.3733  135.6090  153.5751 H   0  0  0  0  0  0  0  0  0  0  0  0  # atno 10763 bound_to 10752
  152.9789  135.5843  154.4497 H   0  0  0  0  0  0  0  0  0  0  0  0  # atno 10764 bound_to 10752
  154.4254  135.2846  155.1926 H   0  0  0  0  0  0  0  0  0  0  0  0  # atno 10765 bound_to 10752
  140.4797  134.6087  157.4915 H   0  0  0  0  0  0  0  0  0  0  0  0  # atno 11005 bound_to 11000
  145.3338  141.0272  143.3431 LP  0  0  0  0  0  0  0  0  0  0  0  0  # atno 17320 bound_to 7965
  144.8780  139.4944  143.6736 LP  0  0  0  0  0  0  0  0  0  0  0  0  # atno 17321 bound_to 7965
  139.6331  144.7647  151.2494 LP  0  0  0  0  0  0  0  0  0  0  0  0  # atno 17342 bound_to 10162
  140.7450  143.6444  150.8305 LP  0  0  0  0  0  0  0  0  0  0  0  0  # atno 17343 bound_to 10162
  156.0846  130.5847  150.9624 LP  0  0  0  0  0  0  0  0  0  0  0  0  # atno 17370 bound_to 10713
  157.6321  131.0920  150.8421 LP  0  0  0  0  0  0  0  0  0  0  0  0  # atno 17371 bound_to 10713
  139.9834  134.7101  155.9818 LP  0  0  0  0  0  0  0  0  0  0  0  0  # atno 17394 bound_to 11000
  141.1537  133.6545  156.4093 LP  0  0  0  0  0  0  0  0  0  0  0  0  # atno 17395 bound_to 11000

$$$$
