AV-unprocessed.smi:2597|AV-procd|sdf|10172|dock9
  -GOLD-   2272014183D 1   1.00000     0.00000
 Structure written by MMmdl.
 31 32  0  0  0  0  0  0  0  0  2 V2000
  149.5411  144.0397  158.2818 N   0  3  0  0  0  0  0  0  0  0  0  0
  150.9295  143.6260  158.5600 C   0  0  1  0  0  0  0  0  0  0  0  0
  151.3706  144.1512  159.9395 C   0  0  0  0  0  0  0  0  0  0  0  0
  152.8046  143.7146  160.2779 C   0  0  0  0  0  0  0  0  0  0  0  0
  152.9500  142.1874  160.2078 C   0  0  0  0  0  0  0  0  0  0  0  0
  152.5211  141.6531  158.8330 C   0  0  0  0  0  0  0  0  0  0  0  0
  151.0821  142.0845  158.4810 C   0  0  2  0  0  0  0  0  0  0  0  0
  150.6924  141.5484  157.1827 N   0  0  0  0  0  0  0  0  0  0  0  0
  149.4423  141.5584  156.5990 C   0  0  0  0  0  0  0  0  0  0  0  0
  149.6361  140.9058  155.4144 C   0  0  0  0  0  0  0  0  0  0  0  0
  148.6499  140.5913  154.3314 C   0  0  0  0  0  0  0  0  0  0  0  0
  149.1322  141.2028  153.1547 O   0  0  0  0  0  0  0  0  0  0  0  0
  150.9751  140.5291  155.3268 N   0  0  0  0  0  0  0  0  0  0  0  0
  151.5954  140.9071  156.3990 N   0  0  0  0  0  0  0  0  0  0  0  0
  151.5617  144.0920  157.8028 H   0  0  0  0  0  0  0  0  0  0  0  0
  150.4131  141.6407  159.2207 H   0  0  0  0  0  0  0  0  0  0  0  0
  149.3858  144.0557  157.2839 H   0  0  0  0  0  0  0  0  0  0  0  0
  149.3840  144.9628  158.6612 H   0  0  0  0  0  0  0  0  0  0  0  0
  151.3063  145.2398  159.9641 H   0  0  0  0  0  0  0  0  0  0  0  0
  150.6918  143.7842  160.7107 H   0  0  0  0  0  0  0  0  0  0  0  0
  153.5043  144.1812  159.5832 H   0  0  0  0  0  0  0  0  0  0  0  0
  153.0761  144.0674  161.2734 H   0  0  0  0  0  0  0  0  0  0  0  0
  153.9828  141.9025  160.4110 H   0  0  0  0  0  0  0  0  0  0  0  0
  152.3424  141.7247  160.9866 H   0  0  0  0  0  0  0  0  0  0  0  0
  153.2163  142.0159  158.0745 H   0  0  0  0  0  0  0  0  0  0  0  0
  152.5974  140.5651  158.8239 H   0  0  0  0  0  0  0  0  0  0  0  0
  148.5667  141.9976  157.0537 H   0  0  0  0  0  0  0  0  0  0  0  0
  148.5618  139.5161  154.1762 H   0  0  0  0  0  0  0  0  0  0  0  0
  147.6573  140.9783  154.5637 H   0  0  0  0  0  0  0  0  0  0  0  0
  149.3200  140.5276  152.5207 H   0  0  0  0  0  0  0  0  0  0  0  0
  148.9016  143.3866  158.7115 H   0  0  0  0  0  0  0  0  0  0  0  0
  1  2  1  0  0  0  0
  1 17  1  0  0  0  0
  1 18  1  0  0  0  0
  1 31  1  0  0  0  0
  2 15  1  0  0  0  0
  2  7  1  0  0  0  0
  2  3  1  0  0  0  0
  3  4  1  0  0  0  0
  3 19  1  0  0  0  0
  3 20  1  0  0  0  0
  4  5  1  0  0  0  0
  4 21  1  0  0  0  0
  4 22  1  0  0  0  0
  5  6  1  0  0  0  0
  5 23  1  0  0  0  0
  5 24  1  0  0  0  0
  6  7  1  0  0  0  0
  6 25  1  0  0  0  0
  6 26  1  0  0  0  0
  7 16  1  0  0  0  0
  7  8  1  0  0  0  0
  8 14  1  0  0  0  0
  8  9  1  0  0  0  0
  9 10  2  0  0  0  0
  9 27  1  0  0  0  0
 10 11  1  0  0  0  0
 10 13  1  0  0  0  0
 11 12  1  0  0  0  0
 11 28  1  0  0  0  0
 11 29  1  0  0  0  0
 12 30  1  0  0  0  0
 13 14  2  0  0  0  0
M  CHG  1   1   1
M  END
> <s_m_source_file>
AV-unprocessed.smi

> <i_m_source_file_index>
2597

> <i_lp_mmshare_version>
43012

> <i_f3d_flags>
0

> <s_epik_input>
W05IMl1bQ0BIXTFbQ0gyXVtDSDJdW0NIMl1bQ0gyXVtDQEhdMW4yW2NIXWMobm4yKVtDSDJdW09IXQ==

> <s_epik_cmdline>
J2VwaWtfcHl0aG9uJywgJy1waCcsICc3LjAnLCAnLXRuJywgJzgnLCAnLW1hJywgJzIwMCcsICctbWV0YWxfYmluZGluZycsICctaW1hZScsICc8aW5maWxlLm1hZT4nLCAnLW9tYWUnLCAnPG91dGZpbGUubWFlPic=

> <r_lp_tautomer_probability>
1

> <r_epik_Ionization_Penalty>
0.014346

> <r_epik_Ionization_Penalty_Charging>
0.014316

> <r_epik_Ionization_Penalty_Neutral>
3.00097e-05

> <r_epik_State_Penalty>
0.0111909

> <r_epik_Charging_Adjusted_Penalty>
0.0255069

> <i_epik_Tot_Q>
1

> <i_epik_Tot_abs_Q>
1

> <r_epik_Metal_State_Penalty>
0.011192

> <b_epik_Metal_Only>
0

> <s_lp_Force_Field>
OPLS_2005

> <r_lp_Energy>
13.7949

> <b_lp_Chiralities_Consistent>
1

> <s_lp_Variant>
AV-unprocessed.smi:2597-3

> <Gold.Version>
5.8.1

> <Gold.Id.Protein>
6NUR|6NUR_protein|mol2

> <Gold.PLP.Fitness>
44.8455

> <Gold.PLP.PLP>
-30.2818

> <Gold.PLP.part.hbond>
-5.2920

> <Gold.PLP.part.metal>
0.0000

> <Gold.PLP.part.buried>
-3.7281

> <Gold.PLP.part.nonpolar>
-21.3073

> <Gold.PLP.part.repulsive>
0.1060

> <Gold.PLP.ligand.clash>
0.0104

> <Gold.PLP.ligand.torsion>
0.0805

> <Gold.PLP.Chemscore.Hbond>
4.9024

> <Gold.PLP.Chemscore.CHOScore>
0.0000

> <Gold.PLP.Chemscore.Metal>
0.0000

> <Gold.Chemscore.Hbonds>
donor molecule, donor type, donor heavy atom, donor atom, acceptor molecule, acceptor atom, score
      L1  H     1    17       P1  8028  2.00
      L1  H     1    18       P1  8029  0.10
      L1  H    12    30       P1  7957  0.84
      P1  H  7989  7998       L1    13  0.94
      P1  H  8011  8017       L1    12  0.80

> <Gold.PLP.Chemscore.Internal.Correction>
0.0279

> <Gold.Rescore>
     Score         DG    S(hbond)    S(metal)    S(lipo)     H(rot)  DE(clash)    DE(int)     intcor
     17.33     -18.64       2.56        0.00      79.99       1.86       0.07       1.24       ----

> <Gold.Chemscore.Fitness>
17.3339

> <Gold.Chemscore.DG>
-18.6406

> <Gold.Chemscore.ZeroCoef>
-5.4800

> <Gold.Chemscore.Hbond>
2.5600

> <Gold.Chemscore.Metal>
0.0000

> <Gold.Chemscore.Lipo>
79.9921

> <Gold.Chemscore.Internal_Hbond>
0.0000

> <Gold.Chemscore.DEClash>
0.0718

> <Gold.Chemscore.DEInternal>
1.2350

> <Gold.Chemscore.Rot>
1.8551

> <Gold.Chemscore.Internal.Correction>
   9.000000E+99

> <Gold.Chemscore.Hbonds>
donor molecule, donor type, donor heavy atom, donor atom, acceptor molecule, acceptor atom, score
      L1  H     1    17       P1  8028  0.25
      L1  H     1    18       P1  8029  0.05
      L1  H    12    30       P1  7957  0.80
      P1  H  7989  7998       L1    13  0.62
      P1  H  8011  8017       L1    12  0.12

> <Gold.Chemscore.Hbond.Weighted>
-8.5505

> <Gold.Chemscore.Metal.Weighted>
-0.0000

> <Gold.Chemscore.Lipo.Weighted>
-9.3591

> <Gold.Chemscore.Internal_Hbond.Weighted>
0.0000

> <Gold.Chemscore.DEClash.Weighted>
0.0718

> <Gold.Chemscore.DEInternal.Weighted>
1.2350

> <Gold.Chemscore.Rot.Weighted>
4.7489

> <Gold.Chemscore.Internal.Correction.Weighted>
   9.000000E+99

> <Gold.Protein.RotatedTorsions>
[ 6907 6896 6895 6894 ] final -104.37 input  -60.11 | X-H torsion
[ 7974 7965 7964 7962 ] final  -86.78 input  175.53 | X-H torsion
[ 8008 7997 7996 7995 ] final -155.69 input   59.86 | X-H torsion
[ 10167 10162 10161 10158 ] final -113.35 input  -65.29 | X-H torsion
[ 10718 10713 10712 10709 ] final   65.31 input   66.30 | X-H torsion
[ 10763 10752 10751 10750 ] final  167.88 input  -60.55 | X-H torsion
[ 11005 11000 10999 10996 ] final  117.83 input  -57.11 | X-H torsion

> <Gold.Protein.ActiveResidues>
 VAL166  LYS551  ARG553  GLY616  TRP617  ASP618  TYR619  PRO620  LYS621  CYS622 
 ASP623  PHE694  ASN695  SER759  ASP760  ASP761  ALA762  ILE779  LEU786  VAL792 
 PHE793  MET794  SER795  GLU796  ALA797  LYS798  CYS799  TRP800  GLU811  SER814 

> <Gold.Protein.RotatedAtoms>
  150.7284  134.0288  159.3726 H   0  0  0  0  0  0  0  0  0  0  0  0  # atno 6907 bound_to 6896
  151.8256  135.0635  160.0440 H   0  0  0  0  0  0  0  0  0  0  0  0  # atno 6908 bound_to 6896
  152.2971  133.5582  159.5631 H   0  0  0  0  0  0  0  0  0  0  0  0  # atno 6909 bound_to 6896
  145.4753  140.9558  143.1894 H   0  0  0  0  0  0  0  0  0  0  0  0  # atno 7974 bound_to 7965
  155.7057  140.0772  157.2392 H   0  0  0  0  0  0  0  0  0  0  0  0  # atno 8008 bound_to 7997
  154.4066  140.1639  156.2294 H   0  0  0  0  0  0  0  0  0  0  0  0  # atno 8009 bound_to 7997
  155.9327  140.3390  155.6265 H   0  0  0  0  0  0  0  0  0  0  0  0  # atno 8010 bound_to 7997
  140.1128  143.4512  152.1741 H   0  0  0  0  0  0  0  0  0  0  0  0  # atno 10167 bound_to 10162
  157.6097  130.9207  149.9959 H   0  0  0  0  0  0  0  0  0  0  0  0  # atno 10718 bound_to 10713
  154.3603  135.2753  155.2323 H   0  0  0  0  0  0  0  0  0  0  0  0  # atno 10763 bound_to 10752
  154.4514  135.5930  153.6198 H   0  0  0  0  0  0  0  0  0  0  0  0  # atno 10764 bound_to 10752
  152.9844  135.6043  154.3823 H   0  0  0  0  0  0  0  0  0  0  0  0  # atno 10765 bound_to 10752
  139.9088  134.9614  156.7410 H   0  0  0  0  0  0  0  0  0  0  0  0  # atno 11005 bound_to 11000
  144.7921  139.6307  143.7109 LP  0  0  0  0  0  0  0  0  0  0  0  0  # atno 17320 bound_to 7965
  146.2373  139.5931  142.9515 LP  0  0  0  0  0  0  0  0  0  0  0  0  # atno 17321 bound_to 7965
  139.5610  144.7405  151.4156 LP  0  0  0  0  0  0  0  0  0  0  0  0  # atno 17342 bound_to 10162
  140.6916  143.7848  150.7263 LP  0  0  0  0  0  0  0  0  0  0  0  0  # atno 17343 bound_to 10162
  156.1195  130.3646  149.9911 LP  0  0  0  0  0  0  0  0  0  0  0  0  # atno 17370 bound_to 10713
  156.7994  130.9285  151.3646 LP  0  0  0  0  0  0  0  0  0  0  0  0  # atno 17371 bound_to 10713
  140.6849  133.9441  155.7932 LP  0  0  0  0  0  0  0  0  0  0  0  0  # atno 17394 bound_to 11000
  141.0483  134.0521  157.3815 LP  0  0  0  0  0  0  0  0  0  0  0  0  # atno 17395 bound_to 11000

$$$$
