AV-unprocessed.smi:3166|AV-procd|sdf|12095|dock1
  -GOLD-   2272017523D 1   1.00000     0.00000
 Structure written by MMmdl.
 40 41  0  0  0  0  0  0  0  0  1 V2000
  149.5121  142.4972  158.0427 C   0  0  0  0  0  0  0  0  0  0  0  0
  151.0115  142.1511  158.1567 C   0  0  2  0  0  0  0  0  0  0  0  0
  151.8153  143.2458  158.8890 C   0  0  0  0  0  0  0  0  0  0  0  0
  152.3738  142.7912  160.1509 N   0  0  0  0  0  0  0  0  0  0  0  0
  153.4314  141.9304  160.3579 C   0  0  0  0  0  0  0  0  0  0  0  0
  153.5947  141.8034  161.7075 C   0  0  0  0  0  0  0  0  0  0  0  0
  152.5816  142.6424  162.2505 C   0  0  0  0  0  0  0  0  0  0  0  0
  151.8540  143.2336  161.3167 N   0  0  0  0  0  0  0  0  0  0  0  0
  151.6175  141.9108  156.8434 N   0  0  0  0  0  0  0  0  0  0  0  0
  150.8021  141.1405  155.8992 C   0  0  0  0  0  0  0  0  0  0  0  0
  151.3574  139.7178  155.6612 C   0  0  0  0  0  0  0  0  0  0  0  0
  152.6336  139.8685  155.0656 O   0  0  0  0  0  0  0  0  0  0  0  0
  151.4793  138.8963  156.9705 C   0  0  0  0  0  0  0  0  0  0  0  0
  151.8929  137.4335  156.7268 C   0  0  0  0  0  0  0  0  0  0  0  0
  150.9494  136.7391  155.7353 C   0  0  0  0  0  0  0  0  0  0  0  0
  150.8800  137.5155  154.4134 C   0  0  0  0  0  0  0  0  0  0  0  0
  150.4541  138.9760  154.6469 C   0  0  0  0  0  0  0  0  0  0  0  0
  149.0724  142.6982  159.0196 H   0  0  0  0  0  0  0  0  0  0  0  0
  148.9358  141.6796  157.6116 H   0  0  0  0  0  0  0  0  0  0  0  0
  149.3571  143.3812  157.4236 H   0  0  0  0  0  0  0  0  0  0  0  0
  151.0963  141.2380  158.7474 H   0  0  0  0  0  0  0  0  0  0  0  0
  152.6416  143.5878  158.2642 H   0  0  0  0  0  0  0  0  0  0  0  0
  151.1842  144.1174  159.0728 H   0  0  0  0  0  0  0  0  0  0  0  0
  153.9706  141.4820  159.5365 H   0  0  0  0  0  0  0  0  0  0  0  0
  154.3273  141.2044  162.2276 H   0  0  0  0  0  0  0  0  0  0  0  0
  152.3554  142.8384  163.2883 H   0  0  0  0  0  0  0  0  0  0  0  0
  152.5160  141.4542  156.9633 H   0  0  0  0  0  0  0  0  0  0  0  0
  149.7857  141.0621  156.2872 H   0  0  0  0  0  0  0  0  0  0  0  0
  150.7268  141.6592  154.9436 H   0  0  0  0  0  0  0  0  0  0  0  0
  152.8477  139.0653  154.6159 H   0  0  0  0  0  0  0  0  0  0  0  0
  152.1965  139.3572  157.6505 H   0  0  0  0  0  0  0  0  0  0  0  0
  150.5200  138.9071  157.4897 H   0  0  0  0  0  0  0  0  0  0  0  0
  152.9139  137.3983  156.3449 H   0  0  0  0  0  0  0  0  0  0  0  0
  151.9007  136.8898  157.6717 H   0  0  0  0  0  0  0  0  0  0  0  0
  151.2882  135.7194  155.5503 H   0  0  0  0  0  0  0  0  0  0  0  0
  149.9516  136.6614  156.1688 H   0  0  0  0  0  0  0  0  0  0  0  0
  151.8524  137.4871  153.9200 H   0  0  0  0  0  0  0  0  0  0  0  0
  150.1786  137.0290  153.7350 H   0  0  0  0  0  0  0  0  0  0  0  0
  149.4259  138.9811  155.0114 H   0  0  0  0  0  0  0  0  0  0  0  0
  150.4370  139.5088  153.6952 H   0  0  0  0  0  0  0  0  0  0  0  0
  1  2  1  0  0  0  0
  1 18  1  0  0  0  0
  1 19  1  0  0  0  0
  1 20  1  0  0  0  0
  2  3  1  0  0  0  0
  2  9  1  0  0  0  0
  2 21  1  0  0  0  0
  3  4  1  0  0  0  0
  3 22  1  0  0  0  0
  3 23  1  0  0  0  0
  4  8  1  0  0  0  0
  4  5  1  0  0  0  0
  5  6  2  0  0  0  0
  5 24  1  0  0  0  0
  6  7  1  0  0  0  0
  6 25  1  0  0  0  0
  7  8  2  0  0  0  0
  7 26  1  0  0  0  0
  9 10  1  0  0  0  0
  9 27  1  0  0  0  0
 10 11  1  0  0  0  0
 10 28  1  0  0  0  0
 10 29  1  0  0  0  0
 11 17  1  0  0  0  0
 11 12  1  0  0  0  0
 11 13  1  0  0  0  0
 12 30  1  0  0  0  0
 13 14  1  0  0  0  0
 13 31  1  0  0  0  0
 13 32  1  0  0  0  0
 14 15  1  0  0  0  0
 14 33  1  0  0  0  0
 14 34  1  0  0  0  0
 15 16  1  0  0  0  0
 15 35  1  0  0  0  0
 15 36  1  0  0  0  0
 16 17  1  0  0  0  0
 16 37  1  0  0  0  0
 16 38  1  0  0  0  0
 17 39  1  0  0  0  0
 17 40  1  0  0  0  0
M  END
> <s_m_source_file>
AV-unprocessed.smi

> <i_m_source_file_index>
3166

> <i_lp_mmshare_version>
43012

> <i_f3d_flags>
0

> <s_epik_input>
bjFbY0hdW2NIXVtjSF1uMVtDSDJdW0NAQEhdKFtDSDNdKVtOSF1bQ0gyXUMyKFtPSF0pW0NIMl1bQ0gyXVtDSDJdW0NIMl1bQ0gyXTI=

> <s_epik_cmdline>
J2VwaWtfcHl0aG9uJywgJy1waCcsICc3LjAnLCAnLXRuJywgJzgnLCAnLW1hJywgJzIwMCcsICctbWV0YWxfYmluZGluZycsICctaW1hZScsICc8aW5maWxlLm1hZT4nLCAnLW9tYWUnLCAnPG91dGZpbGUubWFlPic=

> <r_lp_tautomer_probability>
1

> <r_epik_Ionization_Penalty>
2.35964

> <r_epik_Ionization_Penalty_Charging>
0

> <r_epik_Ionization_Penalty_Neutral>
2.35964

> <r_epik_State_Penalty>
2.51455

> <r_epik_Charging_Adjusted_Penalty>
2.51455

> <i_epik_Tot_Q>
0

> <i_epik_Tot_abs_Q>
0

> <r_epik_Metal_State_Penalty>
2.51451

> <b_epik_Metal_Only>
0

> <s_lp_Force_Field>
OPLS_2005

> <r_lp_Energy>
22.8123

> <b_lp_Chiralities_Consistent>
1

> <s_lp_Variant>
AV-unprocessed.smi:3166-3

> <Gold.Version>
5.8.1

> <Gold.Id.Protein>
6NUR|6NUR_protein|mol2

> <Gold.PLP.Fitness>
39.1328

> <Gold.PLP.PLP>
-38.2579

> <Gold.PLP.part.hbond>
-2.2129

> <Gold.PLP.part.metal>
0.0000

> <Gold.PLP.part.buried>
-2.6799

> <Gold.PLP.part.nonpolar>
-33.4662

> <Gold.PLP.part.repulsive>
0.1232

> <Gold.PLP.ligand.clash>
0.0000

> <Gold.PLP.ligand.torsion>
1.3610

> <Gold.PLP.Chemscore.Hbond>
1.1383

> <Gold.PLP.Chemscore.CHOScore>
0.0000

> <Gold.PLP.Chemscore.Metal>
0.0000

> <Gold.Chemscore.Hbonds>
donor molecule, donor type, donor heavy atom, donor atom, acceptor molecule, acceptor atom, score
      P1  H  7989  7998       L1    12  0.18
      P1  H  7997  8008       L1    12  0.95

> <Gold.PLP.Chemscore.Internal.Correction>
0.1817

> <Gold.Rescore>
     Score         DG    S(hbond)    S(metal)    S(lipo)     H(rot)  DE(clash)    DE(int)     intcor
     11.55     -14.24       0.79        0.00      98.61       2.12       1.23       1.45       ----

> <Gold.Chemscore.Fitness>
11.5522

> <Gold.Chemscore.DG>
-14.2369

> <Gold.Chemscore.ZeroCoef>
-5.4800

> <Gold.Chemscore.Hbond>
0.7932

> <Gold.Chemscore.Metal>
0.0000

> <Gold.Chemscore.Lipo>
98.6078

> <Gold.Chemscore.Internal_Hbond>
0.0000

> <Gold.Chemscore.DEClash>
1.2313

> <Gold.Chemscore.DEInternal>
1.4534

> <Gold.Chemscore.Rot>
2.1209

> <Gold.Chemscore.Internal.Correction>
   9.000000E+99

> <Gold.Chemscore.Hbonds>
donor molecule, donor type, donor heavy atom, donor atom, acceptor molecule, acceptor atom, score
      P1  H  7997  8008       L1    12  0.20

> <Gold.Chemscore.Hbond.Weighted>
-2.6494

> <Gold.Chemscore.Metal.Weighted>
-0.0000

> <Gold.Chemscore.Lipo.Weighted>
-11.5371

> <Gold.Chemscore.Internal_Hbond.Weighted>
0.0000

> <Gold.Chemscore.DEClash.Weighted>
1.2313

> <Gold.Chemscore.DEInternal.Weighted>
1.4534

> <Gold.Chemscore.Rot.Weighted>
5.4296

> <Gold.Chemscore.Internal.Correction.Weighted>
   9.000000E+99

> <Gold.Protein.RotatedTorsions>
[ 6907 6896 6895 6894 ] final   73.85 input  -60.11 | X-H torsion
[ 7974 7965 7964 7962 ] final  -80.52 input  175.53 | X-H torsion
[ 8008 7997 7996 7995 ] final  -22.57 input   59.86 | X-H torsion
[ 10167 10162 10161 10158 ] final   51.33 input  -65.29 | X-H torsion
[ 10718 10713 10712 10709 ] final  -58.67 input   66.30 | X-H torsion
[ 10763 10752 10751 10750 ] final  -21.29 input  -60.55 | X-H torsion
[ 11005 11000 10999 10996 ] final  -82.55 input  -57.11 | X-H torsion

> <Gold.Protein.ActiveResidues>
 VAL166  LYS551  ARG553  GLY616  TRP617  ASP618  TYR619  PRO620  LYS621  CYS622 
 ASP623  PHE694  ASN695  SER759  ASP760  ASP761  ALA762  ILE779  LEU786  VAL792 
 PHE793  MET794  SER795  GLU796  ALA797  LYS798  CYS799  TRP800  GLU811  SER814 

> <Gold.Protein.RotatedAtoms>
  152.4945  134.4360  159.9527 H   0  0  0  0  0  0  0  0  0  0  0  0  # atno 6907 bound_to 6896
  151.4342  133.3655  159.2780 H   0  0  0  0  0  0  0  0  0  0  0  0  # atno 6908 bound_to 6896
  150.9133  134.8574  159.7500 H   0  0  0  0  0  0  0  0  0  0  0  0  # atno 6909 bound_to 6896
  145.5588  140.9485  143.1459 H   0  0  0  0  0  0  0  0  0  0  0  0  # atno 7974 bound_to 7965
  154.4636  140.2004  156.0178 H   0  0  0  0  0  0  0  0  0  0  0  0  # atno 8008 bound_to 7997
  156.0886  140.3261  155.7757 H   0  0  0  0  0  0  0  0  0  0  0  0  # atno 8009 bound_to 7997
  155.4994  140.0552  157.2932 H   0  0  0  0  0  0  0  0  0  0  0  0  # atno 8010 bound_to 7997
  140.2630  144.3351  150.6312 H   0  0  0  0  0  0  0  0  0  0  0  0  # atno 10167 bound_to 10162
  156.1118  130.4174  150.0609 H   0  0  0  0  0  0  0  0  0  0  0  0  # atno 10718 bound_to 10713
  153.6338  135.6988  153.5266 H   0  0  0  0  0  0  0  0  0  0  0  0  # atno 10763 bound_to 10752
  153.2838  135.4178  155.1103 H   0  0  0  0  0  0  0  0  0  0  0  0  # atno 10764 bound_to 10752
  154.8516  135.3608  154.5881 H   0  0  0  0  0  0  0  0  0  0  0  0  # atno 10765 bound_to 10752
  141.1662  133.7250  156.8588 H   0  0  0  0  0  0  0  0  0  0  0  0  # atno 11005 bound_to 11000
  144.7493  139.7236  143.7279 LP  0  0  0  0  0  0  0  0  0  0  0  0  # atno 17320 bound_to 7965
  146.1866  139.5084  142.9832 LP  0  0  0  0  0  0  0  0  0  0  0  0  # atno 17321 bound_to 7965
  140.5950  143.2167  151.7180 LP  0  0  0  0  0  0  0  0  0  0  0  0  # atno 17342 bound_to 10162
  139.5011  144.3880  152.0308 LP  0  0  0  0  0  0  0  0  0  0  0  0  # atno 17343 bound_to 10162
  156.8570  130.9478  151.3621 LP  0  0  0  0  0  0  0  0  0  0  0  0  # atno 17370 bound_to 10713
  157.6299  130.8721  149.9256 LP  0  0  0  0  0  0  0  0  0  0  0  0  # atno 17371 bound_to 10713
  140.1863  134.8997  157.3008 LP  0  0  0  0  0  0  0  0  0  0  0  0  # atno 17394 bound_to 11000
  140.2339  134.3876  155.7509 LP  0  0  0  0  0  0  0  0  0  0  0  0  # atno 17395 bound_to 11000

$$$$
