AV-unprocessed.smi:1521|AV-procd|sdf|6133|dock2
  -GOLD-   22720 6273D 1   1.00000     0.00000
 Structure written by MMmdl.
 35 36  0  0  0  0  0  0  0  0  2 V2000
  151.2007  140.9062  155.6357 O   0  0  0  0  0  0  0  0  0  0  0  0
  151.1281  139.8842  156.3169 C   0  0  0  0  0  0  0  0  0  0  0  0
  150.7199  138.7048  155.8274 N   0  0  0  0  0  0  0  0  0  0  0  0
  150.3406  138.4517  154.4413 C   0  0  0  0  0  0  0  0  0  0  0  0
  148.9994  139.1196  154.0917 C   0  0  1  0  0  0  0  0  0  0  0  0
  147.8577  138.6340  155.0069 C   0  0  0  0  0  0  0  0  0  0  0  0
  146.6564  139.3100  154.6585 O   0  0  0  0  0  0  0  0  0  0  0  0
  146.7914  140.7160  154.8142 C   0  0  0  0  0  0  0  0  0  0  0  0
  147.9317  141.2125  153.9107 C   0  0  0  0  0  0  0  0  0  0  0  0
  149.1264  140.5278  154.2602 O   0  0  0  0  0  0  0  0  0  0  0  0
  151.4432  139.7722  157.6202 N   0  0  0  0  0  0  0  0  0  0  0  0
  151.9253  140.7368  158.5233 C   0  0  0  0  0  0  0  0  0  0  0  0
  151.5517  142.0467  158.5504 C   0  0  0  0  0  0  0  0  0  0  0  0
  152.0956  142.9941  159.5156 C   0  0  0  0  0  0  0  0  0  0  0  0
  151.6414  144.4389  159.6269 C   0  0  0  0  0  0  0  0  0  0  0  0
  152.1353  145.0139  160.7237 F   0  0  0  0  0  0  0  0  0  0  0  0
  152.0648  145.1302  158.5695 F   0  0  0  0  0  0  0  0  0  0  0  0
  150.3115  144.5203  159.6720 F   0  0  0  0  0  0  0  0  0  0  0  0
  152.9912  142.4020  160.3845 C   0  0  0  0  0  0  0  0  0  0  0  0
  153.4247  141.1232  160.4180 N   0  5  0  0  0  0  0  0  0  0  0  0
  152.9137  140.2472  159.5074 C   0  0  0  0  0  0  0  0  0  0  0  0
  153.2585  139.0649  159.4898 O   0  0  0  0  0  0  0  0  0  0  0  0
  150.6908  137.9166  156.4572 H   0  0  0  0  0  0  0  0  0  0  0  0
  151.1290  138.8613  153.8094 H   0  0  0  0  0  0  0  0  0  0  0  0
  150.3057  137.3811  154.2328 H   0  0  0  0  0  0  0  0  0  0  0  0
  148.7492  138.8968  153.0527 H   0  0  0  0  0  0  0  0  0  0  0  0
  147.7037  137.5617  154.8860 H   0  0  0  0  0  0  0  0  0  0  0  0
  148.0954  138.8080  156.0577 H   0  0  0  0  0  0  0  0  0  0  0  0
  145.8527  141.1979  154.5414 H   0  0  0  0  0  0  0  0  0  0  0  0
  146.9884  140.9621  155.8588 H   0  0  0  0  0  0  0  0  0  0  0  0
  147.6963  141.0493  152.8579 H   0  0  0  0  0  0  0  0  0  0  0  0
  148.0837  142.2835  154.0446 H   0  0  0  0  0  0  0  0  0  0  0  0
  151.3387  138.8528  158.0235 H   0  0  0  0  0  0  0  0  0  0  0  0
  150.8314  142.4372  157.8522 H   0  0  0  0  0  0  0  0  0  0  0  0
  153.4212  143.0536  161.1749 H   0  0  0  0  0  0  0  0  0  0  0  0
  1  2  2  0  0  0  0
  2  3  1  0  0  0  0
  2 11  1  0  0  0  0
  3  4  1  0  0  0  0
  3 23  1  0  0  0  0
  4  5  1  0  0  0  0
  4 24  1  0  0  0  0
  4 25  1  0  0  0  0
  5 10  1  0  0  0  0
  5  6  1  0  0  0  0
  5 26  1  0  0  0  0
  6  7  1  0  0  0  0
  6 27  1  0  0  0  0
  6 28  1  0  0  0  0
  7  8  1  0  0  0  0
  8  9  1  0  0  0  0
  8 29  1  0  0  0  0
  8 30  1  0  0  0  0
  9 10  1  0  0  0  0
  9 31  1  0  0  0  0
  9 32  1  0  0  0  0
 11 12  1  0  0  0  0
 11 33  1  0  0  0  0
 12 21  1  0  0  0  0
 12 13  2  0  0  0  0
 13 14  1  0  0  0  0
 13 34  1  0  0  0  0
 14 15  1  0  0  0  0
 14 19  2  0  0  0  0
 15 16  1  0  0  0  0
 15 17  1  0  0  0  0
 15 18  1  0  0  0  0
 19 20  1  0  0  0  0
 19 35  1  0  0  0  0
 20 21  1  0  0  0  0
 21 22  2  0  0  0  0
M  CHG  1  20  -1
M  END
> <s_m_source_file>
AV-unprocessed.smi

> <i_m_source_file_index>
1521

> <i_lp_mmshare_version>
43012

> <i_f3d_flags>
0

> <s_epik_input>
Tz1jMVtuSF1bY0hdYyhDKEYpKEYpRilbY0hdYzFbTkhdQyg9TylbTkhdW0NIMl1bQ0BASF0yW0NIMl1PW0NIMl1bQ0gyXU8y

> <s_epik_cmdline>
J2VwaWtfcHl0aG9uJywgJy1waCcsICc3LjAnLCAnLXRuJywgJzgnLCAnLW1hJywgJzIwMCcsICctbWV0YWxfYmluZGluZycsICctaW1hZScsICc8aW5maWxlLm1hZT4nLCAnLW9tYWUnLCAnPG91dGZpbGUubWFlPic=

> <r_lp_tautomer_probability>
1

> <r_epik_Ionization_Penalty>
3.1412

> <r_epik_Ionization_Penalty_Charging>
0.17015

> <r_epik_Ionization_Penalty_Neutral>
2.97105

> <r_epik_State_Penalty>
2.96707

> <r_epik_Charging_Adjusted_Penalty>
3.13722

> <i_epik_Tot_Q>
-1

> <i_epik_Tot_abs_Q>
1

> <r_epik_Metal_State_Penalty>
0.451298

> <b_epik_Metal_Only>
1

> <s_lp_Force_Field>
OPLS_2005

> <r_lp_Energy>
21.3

> <b_lp_Chiralities_Consistent>
1

> <s_lp_Variant>
AV-unprocessed.smi:1521-4

> <Gold.Version>
5.8.1

> <Gold.Id.Protein>
6NUR|6NUR_protein|mol2

> <Gold.PLP.Fitness>
42.5075

> <Gold.PLP.PLP>
-41.6865

> <Gold.PLP.part.hbond>
-1.4840

> <Gold.PLP.part.metal>
0.0000

> <Gold.PLP.part.buried>
-5.2075

> <Gold.PLP.part.nonpolar>
-35.1863

> <Gold.PLP.part.repulsive>
0.9735

> <Gold.PLP.ligand.clash>
0.0000

> <Gold.PLP.ligand.torsion>
0.5301

> <Gold.PLP.Chemscore.Hbond>
0.6084

> <Gold.PLP.Chemscore.CHOScore>
0.0000

> <Gold.PLP.Chemscore.Metal>
0.0000

> <Gold.Chemscore.Hbonds>
donor molecule, donor type, donor heavy atom, donor atom, acceptor molecule, acceptor atom, score
      P1  H  7989  7998       L1     1  0.45

> <Gold.PLP.Chemscore.Internal.Correction>
0.0561

> <Gold.Rescore>
     Score         DG    S(hbond)    S(metal)    S(lipo)     H(rot)  DE(clash)    DE(int)     intcor
     11.72     -12.66       0.75        0.00      69.94       1.36       0.18       0.77       ----

> <Gold.Chemscore.Fitness>
11.7162

> <Gold.Chemscore.DG>
-12.6645

> <Gold.Chemscore.ZeroCoef>
-5.4800

> <Gold.Chemscore.Hbond>
0.7463

> <Gold.Chemscore.Metal>
0.0000

> <Gold.Chemscore.Lipo>
69.9447

> <Gold.Chemscore.Internal_Hbond>
0.0000

> <Gold.Chemscore.DEClash>
0.1767

> <Gold.Chemscore.DEInternal>
0.7716

> <Gold.Chemscore.Rot>
1.3640

> <Gold.Chemscore.Internal.Correction>
   9.000000E+99

> <Gold.Chemscore.Hbonds>
donor molecule, donor type, donor heavy atom, donor atom, acceptor molecule, acceptor atom, score
      P1  H  7989  7998       L1     1  0.45

> <Gold.Chemscore.Hbond.Weighted>
-2.4927

> <Gold.Chemscore.Metal.Weighted>
-0.0000

> <Gold.Chemscore.Lipo.Weighted>
-8.1835

> <Gold.Chemscore.Internal_Hbond.Weighted>
0.0000

> <Gold.Chemscore.DEClash.Weighted>
0.1767

> <Gold.Chemscore.DEInternal.Weighted>
0.7716

> <Gold.Chemscore.Rot.Weighted>
3.4918

> <Gold.Chemscore.Internal.Correction.Weighted>
   9.000000E+99

> <Gold.Protein.RotatedTorsions>
[ 6907 6896 6895 6894 ] final  -71.39 input  -60.11 | X-H torsion
[ 7974 7965 7964 7962 ] final   14.43 input  175.53 | X-H torsion
[ 8008 7997 7996 7995 ] final -173.36 input   59.86 | X-H torsion
[ 10167 10162 10161 10158 ] final -127.96 input  -65.29 | X-H torsion
[ 10718 10713 10712 10709 ] final -139.47 input   66.30 | X-H torsion
[ 10763 10752 10751 10750 ] final -145.75 input  -60.55 | X-H torsion
[ 11005 11000 10999 10996 ] final -154.50 input  -57.11 | X-H torsion

> <Gold.Protein.ActiveResidues>
 VAL166  LYS551  ARG553  GLY616  TRP617  ASP618  TYR619  PRO620  LYS621  CYS622 
 ASP623  PHE694  ASN695  SER759  ASP760  ASP761  ALA762  ILE779  LEU786  VAL792 
 PHE793  MET794  SER795  GLU796  ALA797  LYS798  CYS799  TRP800  GLU811  SER814 

> <Gold.Protein.RotatedAtoms>
  150.7215  134.5315  159.5702 H   0  0  0  0  0  0  0  0  0  0  0  0  # atno 6907 bound_to 6896
  152.2847  134.7786  160.0399 H   0  0  0  0  0  0  0  0  0  0  0  0  # atno 6908 bound_to 6896
  151.8420  133.3390  159.3683 H   0  0  0  0  0  0  0  0  0  0  0  0  # atno 6909 bound_to 6896
  146.2305  139.9042  142.8534 H   0  0  0  0  0  0  0  0  0  0  0  0  # atno 7974 bound_to 7965
  155.9564  140.1136  157.0933 H   0  0  0  0  0  0  0  0  0  0  0  0  # atno 8008 bound_to 7997
  154.4121  140.1190  156.5187 H   0  0  0  0  0  0  0  0  0  0  0  0  # atno 8009 bound_to 7997
  155.6777  140.3473  155.4845 H   0  0  0  0  0  0  0  0  0  0  0  0  # atno 8010 bound_to 7997
  139.9553  143.6010  152.2462 H   0  0  0  0  0  0  0  0  0  0  0  0  # atno 10167 bound_to 10162
  156.3111  130.7482  151.1558 H   0  0  0  0  0  0  0  0  0  0  0  0  # atno 10718 bound_to 10713
  154.8368  135.3405  154.6554 H   0  0  0  0  0  0  0  0  0  0  0  0  # atno 10763 bound_to 10752
  153.7168  135.6960  153.5027 H   0  0  0  0  0  0  0  0  0  0  0  0  # atno 10764 bound_to 10752
  153.2411  135.4384  155.0652 H   0  0  0  0  0  0  0  0  0  0  0  0  # atno 10765 bound_to 10752
  140.6967  134.3982  157.5214 H   0  0  0  0  0  0  0  0  0  0  0  0  # atno 11005 bound_to 11000
  145.2294  140.9967  143.3999 LP  0  0  0  0  0  0  0  0  0  0  0  0  # atno 17320 bound_to 7965
  144.9543  139.4048  143.6387 LP  0  0  0  0  0  0  0  0  0  0  0  0  # atno 17321 bound_to 7965
  139.6596  144.7662  151.1988 LP  0  0  0  0  0  0  0  0  0  0  0  0  # atno 17342 bound_to 10162
  140.7570  143.6031  150.8680 LP  0  0  0  0  0  0  0  0  0  0  0  0  # atno 17343 bound_to 10162
  157.7391  131.0533  150.5253 LP  0  0  0  0  0  0  0  0  0  0  0  0  # atno 17370 bound_to 10713
  156.5393  130.4204  149.6162 LP  0  0  0  0  0  0  0  0  0  0  0  0  # atno 17371 bound_to 10713
  139.8908  134.8795  156.2351 LP  0  0  0  0  0  0  0  0  0  0  0  0  # atno 17394 bound_to 11000
  141.0197  133.7048  156.1248 LP  0  0  0  0  0  0  0  0  0  0  0  0  # atno 17395 bound_to 11000

$$$$
