AV-unprocessed.smi:1535|AV-procd|sdf|6185|dock3
  -GOLD-   22720 6343D 1   1.00000     0.00000
 Structure written by MMmdl.
 47 48  0  0  0  0  0  0  0  0  2 V2000
  152.6754  143.0086  160.9149 C   0  0  0  0  0  0  0  0  0  0  0  0
  152.0783  142.4926  159.6174 C   0  0  0  0  0  0  0  0  0  0  0  0
  152.6518  141.3584  158.9993 C   0  0  0  0  0  0  0  0  0  0  0  0
  152.1265  140.8483  157.7918 C   0  0  0  0  0  0  0  0  0  0  0  0
  152.5220  139.7655  157.0252 N   0  0  0  0  0  0  0  0  0  0  0  0
  151.6454  139.8087  156.0264 C   0  0  0  0  0  0  0  0  0  0  0  0
  150.7244  140.7909  156.0566 N   0  0  0  0  0  0  0  0  0  0  0  0
  149.6773  141.0384  155.0811 C   0  0  0  0  0  0  0  0  0  0  0  0
  148.6547  139.8888  155.0021 C   0  0  1  0  0  0  0  0  0  0  0  0
  147.3604  140.3865  155.2843 O   0  0  0  0  0  0  0  0  0  0  0  0
  148.6335  139.2439  153.6022 C   0  0  0  0  0  0  0  0  0  0  0  0
  147.7997  138.0156  153.5649 N   0  3  1  0  0  0  0  0  0  0  0  0
  147.9811  137.1842  154.7771 C   0  0  0  0  0  0  0  0  0  0  0  0
  146.3684  138.2898  153.2714 C   0  0  0  0  0  0  0  0  0  0  0  0
  145.5445  136.9980  153.1185 C   0  0  1  0  0  0  0  0  0  0  0  0
  144.0593  137.2391  153.4161 C   0  0  0  0  0  0  0  0  0  0  0  0
  145.7201  136.4128  151.7792 C   0  0  0  0  0  0  0  0  0  0  0  0
  145.8618  135.9548  150.7270 N   0  0  0  0  0  0  0  0  0  0  0  0
  151.0036  141.5099  157.2142 C   0  0  0  0  0  0  0  0  0  0  0  0
  150.4227  142.6375  157.8209 C   0  0  0  0  0  0  0  0  0  0  0  0
  150.9592  143.1337  159.0276 C   0  0  0  0  0  0  0  0  0  0  0  0
  150.3229  144.3505  159.6757 C   0  0  0  0  0  0  0  0  0  0  0  0
  153.5412  142.4190  161.2175 H   0  0  0  0  0  0  0  0  0  0  0  0
  151.9402  142.9612  161.7184 H   0  0  0  0  0  0  0  0  0  0  0  0
  152.9997  144.0435  160.8025 H   0  0  0  0  0  0  0  0  0  0  0  0
  153.5031  140.8686  159.4489 H   0  0  0  0  0  0  0  0  0  0  0  0
  151.6729  139.0835  155.2261 H   0  0  0  0  0  0  0  0  0  0  0  0
  149.1805  141.9759  155.3343 H   0  0  0  0  0  0  0  0  0  0  0  0
  150.1476  141.1901  154.1087 H   0  0  0  0  0  0  0  0  0  0  0  0
  148.9034  139.1472  155.7613 H   0  0  0  0  0  0  0  0  0  0  0  0
  147.3927  141.3317  155.2771 H   0  0  0  0  0  0  0  0  0  0  0  0
  148.2510  139.9786  152.8913 H   0  0  0  0  0  0  0  0  0  0  0  0
  149.6449  139.0031  153.2703 H   0  0  0  0  0  0  0  0  0  0  0  0
  147.6517  137.7177  155.6697 H   0  0  0  0  0  0  0  0  0  0  0  0
  149.0307  136.9179  154.9067 H   0  0  0  0  0  0  0  0  0  0  0  0
  147.4194  136.2532  154.7094 H   0  0  0  0  0  0  0  0  0  0  0  0
  145.9515  138.9246  154.0550 H   0  0  0  0  0  0  0  0  0  0  0  0
  146.2789  138.8596  152.3462 H   0  0  0  0  0  0  0  0  0  0  0  0
  145.9038  136.2506  153.8253 H   0  0  0  0  0  0  0  0  0  0  0  0
  143.4888  136.3142  153.3270 H   0  0  0  0  0  0  0  0  0  0  0  0
  143.6288  137.9626  152.7230 H   0  0  0  0  0  0  0  0  0  0  0  0
  143.9159  137.6186  154.4282 H   0  0  0  0  0  0  0  0  0  0  0  0
  149.5702  143.1166  157.3628 H   0  0  0  0  0  0  0  0  0  0  0  0
  149.4866  144.7250  159.0848 H   0  0  0  0  0  0  0  0  0  0  0  0
  151.0499  145.1570  159.7734 H   0  0  0  0  0  0  0  0  0  0  0  0
  149.9463  144.1009  160.6678 H   0  0  0  0  0  0  0  0  0  0  0  0
  148.1606  137.4727  152.7926 H   0  0  0  0  0  0  0  0  0  0  0  0
  1  2  1  0  0  0  0
  1 23  1  0  0  0  0
  1 24  1  0  0  0  0
  1 25  1  0  0  0  0
  2 21  1  0  0  0  0
  2  3  2  0  0  0  0
  3  4  1  0  0  0  0
  3 26  1  0  0  0  0
  4 19  2  0  0  0  0
  4  5  1  0  0  0  0
  5  6  2  0  0  0  0
  6  7  1  0  0  0  0
  6 27  1  0  0  0  0
  7  8  1  0  0  0  0
  7 19  1  0  0  0  0
  8  9  1  0  0  0  0
  8 28  1  0  0  0  0
  8 29  1  0  0  0  0
  9 10  1  0  0  0  0
  9 11  1  0  0  0  0
  9 30  1  0  0  0  0
 10 31  1  0  0  0  0
 11 12  1  0  0  0  0
 11 32  1  0  0  0  0
 11 33  1  0  0  0  0
 12 13  1  0  0  0  0
 12 14  1  0  0  0  0
 12 47  1  0  0  0  0
 13 34  1  0  0  0  0
 13 35  1  0  0  0  0
 13 36  1  0  0  0  0
 14 15  1  0  0  0  0
 14 37  1  0  0  0  0
 14 38  1  0  0  0  0
 15 16  1  0  0  0  0
 15 17  1  0  0  0  0
 15 39  1  0  0  0  0
 16 40  1  0  0  0  0
 16 41  1  0  0  0  0
 16 42  1  0  0  0  0
 17 18  3  0  0  0  0
 19 20  1  0  0  0  0
 20 21  2  0  0  0  0
 20 43  1  0  0  0  0
 21 22  1  0  0  0  0
 22 44  1  0  0  0  0
 22 45  1  0  0  0  0
 22 46  1  0  0  0  0
M  CHG  1  12   1
M  END
> <s_m_source_file>
AV-unprocessed.smi

> <i_m_source_file_index>
1535

> <i_lp_mmshare_version>
43012

> <i_f3d_flags>
0

> <s_epik_input>
W0NIM11jKFtjSF0xKWMoW0NIM10pW2NIXWMoYzEyKW4oW2NIXW4yKVtDSDJdW0NASF0oW09IXSlbQ0gyXU4oW0NIM10pW0NIMl1bQ0BIXShbQ0gzXSlDI04=

> <s_epik_cmdline>
J2VwaWtfcHl0aG9uJywgJy1waCcsICc3LjAnLCAnLXRuJywgJzgnLCAnLW1hJywgJzIwMCcsICctbWV0YWxfYmluZGluZycsICctaW1hZScsICc8aW5maWxlLm1hZT4nLCAnLW9tYWUnLCAnPG91dGZpbGUubWFlPic=

> <r_epik_Ionization_Penalty>
2.21058

> <r_epik_Ionization_Penalty_Charging>
2.12381

> <r_epik_Ionization_Penalty_Neutral>
0.0867699

> <r_epik_State_Penalty>
2.36208

> <r_epik_Charging_Adjusted_Penalty>
4.48589

> <i_epik_Tot_Q>
1

> <i_epik_Tot_abs_Q>
1

> <r_epik_Metal_State_Penalty>
2.2818

> <b_epik_Metal_Only>
0

> <s_lp_Force_Field>
OPLS_2005

> <r_lp_Energy>
14.5736

> <b_lp_Chiralities_Consistent>
1

> <s_lp_Variant>
AV-unprocessed.smi:1535-16

> <Gold.Version>
5.8.1

> <Gold.Id.Protein>
6NUR|6NUR_protein|mol2

> <Gold.PLP.Fitness>
43.4902

> <Gold.PLP.PLP>
-36.6477

> <Gold.PLP.part.hbond>
-2.0000

> <Gold.PLP.part.metal>
0.0000

> <Gold.PLP.part.buried>
-0.9364

> <Gold.PLP.part.nonpolar>
-33.7402

> <Gold.PLP.part.repulsive>
0.2818

> <Gold.PLP.ligand.clash>
0.0000

> <Gold.PLP.ligand.torsion>
1.2880

> <Gold.PLP.Chemscore.Hbond>
3.0000

> <Gold.PLP.Chemscore.CHOScore>
0.0000

> <Gold.PLP.Chemscore.Metal>
0.0000

> <Gold.Chemscore.Hbonds>
donor molecule, donor type, donor heavy atom, donor atom, acceptor molecule, acceptor atom, score
      L1  H    12    47       P1  7948  2.00
      P1  H  7997  8008       L1     5  1.00

> <Gold.PLP.Chemscore.Internal.Correction>
0.4185

> <Gold.Rescore>
     Score         DG    S(hbond)    S(metal)    S(lipo)     H(rot)  DE(clash)    DE(int)     intcor
     14.11     -16.38       1.73        0.00     100.61       2.60       0.88       1.38       ----

> <Gold.Chemscore.Fitness>
14.1123

> <Gold.Chemscore.DG>
-16.3785

> <Gold.Chemscore.ZeroCoef>
-5.4800

> <Gold.Chemscore.Hbond>
1.7338

> <Gold.Chemscore.Metal>
0.0000

> <Gold.Chemscore.Lipo>
100.6122

> <Gold.Chemscore.Internal_Hbond>
0.0000

> <Gold.Chemscore.DEClash>
0.8839

> <Gold.Chemscore.DEInternal>
1.3823

> <Gold.Chemscore.Rot>
2.6031

> <Gold.Chemscore.Internal.Correction>
   9.000000E+99

> <Gold.Chemscore.Hbonds>
donor molecule, donor type, donor heavy atom, donor atom, acceptor molecule, acceptor atom, score
      L1  H    12    47       P1  7948  1.00
      P1  H  7997  8008       L1     5  0.44

> <Gold.Chemscore.Hbond.Weighted>
-5.7909

> <Gold.Chemscore.Metal.Weighted>
-0.0000

> <Gold.Chemscore.Lipo.Weighted>
-11.7716

> <Gold.Chemscore.Internal_Hbond.Weighted>
0.0000

> <Gold.Chemscore.DEClash.Weighted>
0.8839

> <Gold.Chemscore.DEInternal.Weighted>
1.3823

> <Gold.Chemscore.Rot.Weighted>
6.6640

> <Gold.Chemscore.Internal.Correction.Weighted>
   9.000000E+99

> <Gold.Protein.RotatedTorsions>
[ 6907 6896 6895 6894 ] final -158.74 input  -60.11 | X-H torsion
[ 7974 7965 7964 7962 ] final    4.77 input  175.53 | X-H torsion
[ 8008 7997 7996 7995 ] final  -64.69 input   59.86 | X-H torsion
[ 10167 10162 10161 10158 ] final  165.91 input  -65.29 | X-H torsion
[ 10718 10713 10712 10709 ] final  138.94 input   66.30 | X-H torsion
[ 10763 10752 10751 10750 ] final  -35.13 input  -60.55 | X-H torsion
[ 11005 11000 10999 10996 ] final  143.85 input  -57.11 | X-H torsion

> <Gold.Protein.ActiveResidues>
 VAL166  LYS551  ARG553  GLY616  TRP617  ASP618  TYR619  PRO620  LYS621  CYS622 
 ASP623  PHE694  ASN695  SER759  ASP760  ASP761  ALA762  ILE779  LEU786  VAL792 
 PHE793  MET794  SER795  GLU796  ALA797  LYS798  CYS799  TRP800  GLU811  SER814 

> <Gold.Protein.RotatedAtoms>
  151.3229  133.4032  159.2655 H   0  0  0  0  0  0  0  0  0  0  0  0  # atno 6907 bound_to 6896
  151.0020  134.9330  159.7969 H   0  0  0  0  0  0  0  0  0  0  0  0  # atno 6908 bound_to 6896
  152.5277  134.3194  159.9195 H   0  0  0  0  0  0  0  0  0  0  0  0  # atno 6909 bound_to 6896
  146.2443  140.0484  142.8377 H   0  0  0  0  0  0  0  0  0  0  0  0  # atno 7974 bound_to 7965
  154.4626  140.0948  156.6935 H   0  0  0  0  0  0  0  0  0  0  0  0  # atno 8008 bound_to 7997
  155.4949  140.3472  155.4343 H   0  0  0  0  0  0  0  0  0  0  0  0  # atno 8009 bound_to 7997
  156.0899  140.1394  156.9594 H   0  0  0  0  0  0  0  0  0  0  0  0  # atno 8010 bound_to 7997
  139.4914  144.4083  151.9330 H   0  0  0  0  0  0  0  0  0  0  0  0  # atno 10167 bound_to 10162
  157.4198  131.1037  151.0365 H   0  0  0  0  0  0  0  0  0  0  0  0  # atno 10718 bound_to 10713
  153.8581  135.6842  153.4785 H   0  0  0  0  0  0  0  0  0  0  0  0  # atno 10763 bound_to 10752
  153.1357  135.4678  154.9417 H   0  0  0  0  0  0  0  0  0  0  0  0  # atno 10764 bound_to 10752
  154.7771  135.3257  154.8018 H   0  0  0  0  0  0  0  0  0  0  0  0  # atno 10765 bound_to 10752
  140.0586  134.9217  157.1144 H   0  0  0  0  0  0  0  0  0  0  0  0  # atno 11005 bound_to 11000
  145.1006  140.9343  143.4715 LP  0  0  0  0  0  0  0  0  0  0  0  0  # atno 17320 bound_to 7965
  145.0676  139.3056  143.5848 LP  0  0  0  0  0  0  0  0  0  0  0  0  # atno 17321 bound_to 7965
  140.3523  144.3073  150.5947 LP  0  0  0  0  0  0  0  0  0  0  0  0  # atno 17342 bound_to 10162
  140.5474  143.2212  151.7984 LP  0  0  0  0  0  0  0  0  0  0  0  0  # atno 17343 bound_to 10162
  157.1300  130.6098  149.5527 LP  0  0  0  0  0  0  0  0  0  0  0  0  # atno 17370 bound_to 10713
  155.9877  130.4917  150.7136 LP  0  0  0  0  0  0  0  0  0  0  0  0  # atno 17371 bound_to 10713
  140.3805  134.2292  155.7171 LP  0  0  0  0  0  0  0  0  0  0  0  0  # atno 17394 bound_to 11000
  141.1963  133.8085  157.0677 LP  0  0  0  0  0  0  0  0  0  0  0  0  # atno 17395 bound_to 11000

$$$$
