AV-unprocessed.smi:905|AV-procd|sdf|4099|dock10
  -GOLD-   22720 1593D 1   1.00000     0.00000
 Structure written by MMmdl.
 37 38  0  0  0  0  0  0  0  0  1 V2000
  144.4472  144.4571  153.8563 N   0  0  0  0  0  0  0  0  0  0  0  0
  145.1078  143.3291  154.3695 C   0  0  0  0  0  0  0  0  0  0  0  0
  144.8485  142.8315  155.5710 N   0  0  0  0  0  0  0  0  0  0  0  0
  145.7161  141.7333  155.6590 O   0  0  0  0  0  0  0  0  0  0  0  0
  146.4097  141.7166  154.4953 C   0  0  0  0  0  0  0  0  0  0  0  0
  147.3963  140.6224  154.2608 C   0  0  0  0  0  0  0  0  0  0  0  0
  148.8206  141.1560  154.0351 C   0  0  0  0  0  0  0  0  0  0  0  0
  149.2289  142.0711  155.0949 N   0  0  0  0  0  0  0  0  0  0  0  0
  150.3420  141.9398  155.8302 C   0  0  0  0  0  0  0  0  0  0  0  0
  151.1512  141.0219  155.6953 O   0  0  0  0  0  0  0  0  0  0  0  0
  150.4651  142.9241  156.7319 N   0  0  0  0  0  0  0  0  0  0  0  0
  151.5642  143.0565  157.6840 C   0  0  0  0  0  0  0  0  0  0  0  0
  151.7011  141.7791  158.5389 C   0  0  0  0  0  0  0  0  0  0  0  0
  152.8074  141.9264  159.5960 C   0  0  0  0  0  0  0  0  0  0  0  0
  152.5746  143.1612  160.4807 C   0  0  0  0  0  0  0  0  0  0  0  0
  152.4417  144.4354  159.6316 C   0  0  0  0  0  0  0  0  0  0  0  0
  151.3318  144.2893  158.5780 C   0  0  0  0  0  0  0  0  0  0  0  0
  146.0581  142.6789  153.6456 N   0  0  0  0  0  0  0  0  0  0  0  0
  144.6710  144.8035  152.9346 H   0  0  0  0  0  0  0  0  0  0  0  0
  143.7345  144.9225  154.3993 H   0  0  0  0  0  0  0  0  0  0  0  0
  147.3788  139.9477  155.1179 H   0  0  0  0  0  0  0  0  0  0  0  0
  147.0643  140.0416  153.3996 H   0  0  0  0  0  0  0  0  0  0  0  0
  149.5311  140.3304  153.9640 H   0  0  0  0  0  0  0  0  0  0  0  0
  148.8702  141.6911  153.0861 H   0  0  0  0  0  0  0  0  0  0  0  0
  148.6249  142.8591  155.2774 H   0  0  0  0  0  0  0  0  0  0  0  0
  149.7472  143.6330  156.7651 H   0  0  0  0  0  0  0  0  0  0  0  0
  152.4935  143.2113  157.1322 H   0  0  0  0  0  0  0  0  0  0  0  0
  150.7539  141.5629  159.0349 H   0  0  0  0  0  0  0  0  0  0  0  0
  151.9189  140.9203  157.9027 H   0  0  0  0  0  0  0  0  0  0  0  0
  152.8521  141.0291  160.2142 H   0  0  0  0  0  0  0  0  0  0  0  0
  153.7757  142.0091  159.1008 H   0  0  0  0  0  0  0  0  0  0  0  0
  151.6698  143.0209  161.0734 H   0  0  0  0  0  0  0  0  0  0  0  0
  153.3952  143.2706  161.1904 H   0  0  0  0  0  0  0  0  0  0  0  0
  152.2335  145.2909  160.2747 H   0  0  0  0  0  0  0  0  0  0  0  0
  153.3903  144.6450  159.1355 H   0  0  0  0  0  0  0  0  0  0  0  0
  151.2865  145.1918  157.9669 H   0  0  0  0  0  0  0  0  0  0  0  0
  150.3667  144.2075  159.0804 H   0  0  0  0  0  0  0  0  0  0  0  0
  1  2  1  0  0  0  0
  1 19  1  0  0  0  0
  1 20  1  0  0  0  0
  2 18  1  0  0  0  0
  2  3  2  0  0  0  0
  3  4  1  0  0  0  0
  4  5  1  0  0  0  0
  5  6  1  0  0  0  0
  5 18  2  0  0  0  0
  6  7  1  0  0  0  0
  6 21  1  0  0  0  0
  6 22  1  0  0  0  0
  7  8  1  0  0  0  0
  7 23  1  0  0  0  0
  7 24  1  0  0  0  0
  8  9  1  0  0  0  0
  8 25  1  0  0  0  0
  9 10  2  0  0  0  0
  9 11  1  0  0  0  0
 11 12  1  0  0  0  0
 11 26  1  0  0  0  0
 12 17  1  0  0  0  0
 12 13  1  0  0  0  0
 12 27  1  0  0  0  0
 13 14  1  0  0  0  0
 13 28  1  0  0  0  0
 13 29  1  0  0  0  0
 14 15  1  0  0  0  0
 14 30  1  0  0  0  0
 14 31  1  0  0  0  0
 15 16  1  0  0  0  0
 15 32  1  0  0  0  0
 15 33  1  0  0  0  0
 16 17  1  0  0  0  0
 16 34  1  0  0  0  0
 16 35  1  0  0  0  0
 17 36  1  0  0  0  0
 17 37  1  0  0  0  0
M  END
> <s_m_source_file>
AV-unprocessed.smi

> <i_m_source_file_index>
905

> <i_lp_mmshare_version>
43012

> <i_f3d_flags>
0

> <s_epik_input>
W05IMl1jMW5vYyhuMSlbQ0gyXVtDSDJdW05IXUMoPU8pW05IXVtDSF0yW0NIMl1bQ0gyXVtDSDJdW0NIMl1bQ0gyXTI=

> <s_epik_cmdline>
J2VwaWtfcHl0aG9uJywgJy1waCcsICc3LjAnLCAnLXRuJywgJzgnLCAnLW1hJywgJzIwMCcsICctbWV0YWxfYmluZGluZycsICctaW1hZScsICc8aW5maWxlLm1hZT4nLCAnLW9tYWUnLCAnPG91dGZpbGUubWFlPic=

> <r_lp_tautomer_probability>
1

> <r_epik_Ionization_Penalty>
0.000203748

> <r_epik_Ionization_Penalty_Charging>
0

> <r_epik_Ionization_Penalty_Neutral>
0.000203748

> <r_epik_State_Penalty>
-0

> <r_epik_Charging_Adjusted_Penalty>
0

> <i_epik_Tot_Q>
0

> <i_epik_Tot_abs_Q>
0

> <r_epik_Metal_State_Penalty>
-0

> <b_epik_Metal_Only>
0

> <s_lp_Force_Field>
OPLS_2005

> <r_lp_Energy>
0.830847

> <b_lp_Chiralities_Consistent>
1

> <s_lp_Variant>
AV-unprocessed.smi:905-1

> <Gold.Version>
5.8.1

> <Gold.Id.Protein>
6NUR|6NUR_protein|mol2

> <Gold.PLP.Fitness>
42.9711

> <Gold.PLP.PLP>
-37.2043

> <Gold.PLP.part.hbond>
-3.0719

> <Gold.PLP.part.metal>
0.0000

> <Gold.PLP.part.buried>
-5.2831

> <Gold.PLP.part.nonpolar>
-28.7477

> <Gold.PLP.part.repulsive>
0.9065

> <Gold.PLP.ligand.clash>
0.0000

> <Gold.PLP.ligand.torsion>
0.0478

> <Gold.PLP.Chemscore.Hbond>
1.9487

> <Gold.PLP.Chemscore.CHOScore>
0.0000

> <Gold.PLP.Chemscore.Metal>
0.0000

> <Gold.Chemscore.Hbonds>
donor molecule, donor type, donor heavy atom, donor atom, acceptor molecule, acceptor atom, score
      L1  H     8    25       P1  8028  0.72
      L1  H    11    26       P1  8028  0.80
      P1  H  7989  7998       L1    10  0.30

> <Gold.PLP.Chemscore.Internal.Correction>
0.0163

> <Gold.Rescore>
     Score         DG    S(hbond)    S(metal)    S(lipo)     H(rot)  DE(clash)    DE(int)     intcor
     13.96     -15.38       1.99        0.00      80.02       2.39       0.08       1.34       ----

> <Gold.Chemscore.Fitness>
13.9641

> <Gold.Chemscore.DG>
-15.3799

> <Gold.Chemscore.ZeroCoef>
-5.4800

> <Gold.Chemscore.Hbond>
1.9902

> <Gold.Chemscore.Metal>
0.0000

> <Gold.Chemscore.Lipo>
80.0169

> <Gold.Chemscore.Internal_Hbond>
0.0000

> <Gold.Chemscore.DEClash>
0.0767

> <Gold.Chemscore.DEInternal>
1.3391

> <Gold.Chemscore.Rot>
2.3865

> <Gold.Chemscore.Internal.Correction>
   9.000000E+99

> <Gold.Chemscore.Hbonds>
donor molecule, donor type, donor heavy atom, donor atom, acceptor molecule, acceptor atom, score
      L1  H     8    25       P1  8028  0.72
      L1  H    11    26       P1  8028  0.79
      P1  H  7989  7998       L1    10  0.18

> <Gold.Chemscore.Hbond.Weighted>
-6.6472

> <Gold.Chemscore.Metal.Weighted>
-0.0000

> <Gold.Chemscore.Lipo.Weighted>
-9.3620

> <Gold.Chemscore.Internal_Hbond.Weighted>
0.0000

> <Gold.Chemscore.DEClash.Weighted>
0.0767

> <Gold.Chemscore.DEInternal.Weighted>
1.3391

> <Gold.Chemscore.Rot.Weighted>
6.1093

> <Gold.Chemscore.Internal.Correction.Weighted>
   9.000000E+99

> <Gold.Protein.RotatedTorsions>
[ 6907 6896 6895 6894 ] final -112.75 input  -60.11 | X-H torsion
[ 7974 7965 7964 7962 ] final -146.60 input  175.53 | X-H torsion
[ 8008 7997 7996 7995 ] final  146.71 input   59.86 | X-H torsion
[ 10167 10162 10161 10158 ] final  135.27 input  -65.29 | X-H torsion
[ 10718 10713 10712 10709 ] final   31.35 input   66.30 | X-H torsion
[ 10763 10752 10751 10750 ] final   14.23 input  -60.55 | X-H torsion
[ 11005 11000 10999 10996 ] final    4.48 input  -57.11 | X-H torsion

> <Gold.Protein.ActiveResidues>
 VAL166  LYS551  ARG553  GLY616  TRP617  ASP618  TYR619  PRO620  LYS621  CYS622 
 ASP623  PHE694  ASN695  SER759  ASP760  ASP761  ALA762  ILE779  LEU786  VAL792 
 PHE793  MET794  SER795  GLU796  ALA797  LYS798  CYS799  TRP800  GLU811  SER814 

> <Gold.Protein.RotatedAtoms>
  150.7780  133.9044  159.3350 H   0  0  0  0  0  0  0  0  0  0  0  0  # atno 6907 bound_to 6896
  151.6914  135.0944  160.0244 H   0  0  0  0  0  0  0  0  0  0  0  0  # atno 6908 bound_to 6896
  152.3822  133.6524  159.6206 H   0  0  0  0  0  0  0  0  0  0  0  0  # atno 6909 bound_to 6896
  144.8149  140.5435  143.5617 H   0  0  0  0  0  0  0  0  0  0  0  0  # atno 7974 bound_to 7965
  156.2847  140.2175  156.5420 H   0  0  0  0  0  0  0  0  0  0  0  0  # atno 8008 bound_to 7997
  154.7362  140.0491  157.0792 H   0  0  0  0  0  0  0  0  0  0  0  0  # atno 8009 bound_to 7997
  155.0290  140.3133  155.4768 H   0  0  0  0  0  0  0  0  0  0  0  0  # atno 8010 bound_to 7997
  139.5223  144.6525  151.5259 H   0  0  0  0  0  0  0  0  0  0  0  0  # atno 10167 bound_to 10162
  157.2713  130.7209  149.6506 H   0  0  0  0  0  0  0  0  0  0  0  0  # atno 10718 bound_to 10713
  153.1642  135.6801  153.8699 H   0  0  0  0  0  0  0  0  0  0  0  0  # atno 10763 bound_to 10752
  153.8084  135.3146  155.3399 H   0  0  0  0  0  0  0  0  0  0  0  0  # atno 10764 bound_to 10752
  154.7954  135.4810  154.0238 H   0  0  0  0  0  0  0  0  0  0  0  0  # atno 10765 bound_to 10752
  140.5814  134.0009  155.8049 H   0  0  0  0  0  0  0  0  0  0  0  0  # atno 11005 bound_to 11000
  145.5238  139.1476  143.3537 LP  0  0  0  0  0  0  0  0  0  0  0  0  # atno 17320 bound_to 7965
  146.2451  140.5379  142.8917 LP  0  0  0  0  0  0  0  0  0  0  0  0  # atno 17321 bound_to 7965
  140.6336  143.9027  150.6628 LP  0  0  0  0  0  0  0  0  0  0  0  0  # atno 17342 bound_to 10162
  140.2339  143.3715  152.1543 LP  0  0  0  0  0  0  0  0  0  0  0  0  # atno 17343 bound_to 10162
  155.9663  130.4366  150.5143 LP  0  0  0  0  0  0  0  0  0  0  0  0  # atno 17370 bound_to 10713
  157.3068  131.0656  151.2029 LP  0  0  0  0  0  0  0  0  0  0  0  0  # atno 17371 bound_to 10713
  141.0994  133.9793  157.3105 LP  0  0  0  0  0  0  0  0  0  0  0  0  # atno 17394 bound_to 11000
  139.9315  135.0199  156.8417 LP  0  0  0  0  0  0  0  0  0  0  0  0  # atno 17395 bound_to 11000

$$$$
