AV-unprocessed.smi:1366|AV-procd|sdf|5570|dock7
  -GOLD-   22720 5163D 1   1.00000     0.00000
 Structure written by MMmdl.
 31 32  0  0  0  0  0  0  0  0  1 V2000
  150.3190  135.1425  154.8611 N   0  0  0  0  0  0  0  0  0  0  0  0
  150.4315  136.2701  155.0950 C   0  0  0  0  0  0  0  0  0  0  0  0
  150.5729  137.6893  155.3898 C   0  0  0  0  0  0  0  0  0  0  0  0
  151.0681  138.1136  156.6426 C   0  0  0  0  0  0  0  0  0  0  0  0
  151.2104  139.4213  156.9498 N   0  0  0  0  0  0  0  0  0  0  0  0
  150.8590  140.2904  156.0008 C   0  0  0  0  0  0  0  0  0  0  0  0
  151.0360  142.0075  156.4045 S   0  0  0  0  0  0  0  0  0  0  0  0
  151.7829  141.8416  158.0487 C   0  0  0  0  0  0  0  0  0  0  0  0
  151.4099  143.0137  158.9661 C   0  0  2  0  0  0  0  0  0  0  0  0
  151.7410  144.3752  158.3247 C   0  0  0  0  0  0  0  0  0  0  0  0
  151.4337  145.5186  159.2985 C   0  0  0  0  0  0  0  0  0  0  0  0
  152.1400  145.2634  160.6343 C   0  0  0  0  0  0  0  0  0  0  0  0
  151.7965  143.8608  161.1599 C   0  0  0  0  0  0  0  0  0  0  0  0
  152.1396  142.8813  160.1847 O   0  0  0  0  0  0  0  0  0  0  0  0
  150.3811  140.0193  154.7849 N   0  0  0  0  0  0  0  0  0  0  0  0
  150.2336  138.7141  154.4693 C   0  0  0  0  0  0  0  0  0  0  0  0
  149.7299  138.4429  153.1957 N   0  0  0  0  0  0  0  0  0  0  0  0
  151.3519  137.4040  157.4065 H   0  0  0  0  0  0  0  0  0  0  0  0
  151.4619  140.8973  158.4900 H   0  0  0  0  0  0  0  0  0  0  0  0
  152.8653  141.7878  157.9290 H   0  0  0  0  0  0  0  0  0  0  0  0
  150.3405  142.9651  159.1804 H   0  0  0  0  0  0  0  0  0  0  0  0
  152.7962  144.4058  158.0495 H   0  0  0  0  0  0  0  0  0  0  0  0
  151.1736  144.5090  157.4034 H   0  0  0  0  0  0  0  0  0  0  0  0
  151.7494  146.4733  158.8768 H   0  0  0  0  0  0  0  0  0  0  0  0
  150.3570  145.5861  159.4592 H   0  0  0  0  0  0  0  0  0  0  0  0
  153.2194  145.3472  160.5007 H   0  0  0  0  0  0  0  0  0  0  0  0
  151.8546  146.0214  161.3639 H   0  0  0  0  0  0  0  0  0  0  0  0
  152.3532  143.6566  162.0746 H   0  0  0  0  0  0  0  0  0  0  0  0
  150.7369  143.7860  161.4092 H   0  0  0  0  0  0  0  0  0  0  0  0
  149.5847  137.4968  152.8736 H   0  0  0  0  0  0  0  0  0  0  0  0
  149.4894  139.1876  152.5572 H   0  0  0  0  0  0  0  0  0  0  0  0
  1  2  3  0  0  0  0
  2  3  1  0  0  0  0
  3 16  1  0  0  0  0
  3  4  2  0  0  0  0
  4  5  1  0  0  0  0
  4 18  1  0  0  0  0
  5  6  2  0  0  0  0
  6  7  1  0  0  0  0
  6 15  1  0  0  0  0
  7  8  1  0  0  0  0
  8  9  1  0  0  0  0
  8 19  1  0  0  0  0
  8 20  1  0  0  0  0
  9 14  1  0  0  0  0
  9 10  1  0  0  0  0
  9 21  1  0  0  0  0
 10 11  1  0  0  0  0
 10 22  1  0  0  0  0
 10 23  1  0  0  0  0
 11 12  1  0  0  0  0
 11 24  1  0  0  0  0
 11 25  1  0  0  0  0
 12 13  1  0  0  0  0
 12 26  1  0  0  0  0
 12 27  1  0  0  0  0
 13 14  1  0  0  0  0
 13 28  1  0  0  0  0
 13 29  1  0  0  0  0
 15 16  2  0  0  0  0
 16 17  1  0  0  0  0
 17 30  1  0  0  0  0
 17 31  1  0  0  0  0
M  END
> <s_m_source_file>
AV-unprocessed.smi

> <i_m_source_file_index>
1366

> <i_lp_mmshare_version>
43012

> <i_f3d_flags>
0

> <s_epik_input>
TiNDYzFbY0hdbmMobmMxW05IMl0pU1tDSDJdW0NAQEhdMltDSDJdW0NIMl1bQ0gyXVtDSDJdTzI=

> <s_epik_cmdline>
J2VwaWtfcHl0aG9uJywgJy1waCcsICc3LjAnLCAnLXRuJywgJzgnLCAnLW1hJywgJzIwMCcsICctbWV0YWxfYmluZGluZycsICctaW1hZScsICc8aW5maWxlLm1hZT4nLCAnLW9tYWUnLCAnPG91dGZpbGUubWFlPic=

> <r_lp_tautomer_probability>
1

> <r_epik_Ionization_Penalty>
5.69531e-05

> <r_epik_Ionization_Penalty_Charging>
0

> <r_epik_Ionization_Penalty_Neutral>
5.69531e-05

> <r_epik_State_Penalty>
-0

> <r_epik_Charging_Adjusted_Penalty>
0

> <i_epik_Tot_Q>
0

> <i_epik_Tot_abs_Q>
0

> <r_epik_Metal_State_Penalty>
-0

> <b_epik_Metal_Only>
0

> <s_lp_Force_Field>
OPLS_2005

> <r_lp_Energy>
5.78872

> <b_lp_Chiralities_Consistent>
1

> <s_lp_Variant>
AV-unprocessed.smi:1366-1

> <Gold.Version>
5.8.1

> <Gold.Id.Protein>
6NUR|6NUR_protein|mol2

> <Gold.PLP.Fitness>
42.3035

> <Gold.PLP.PLP>
-33.7653

> <Gold.PLP.part.hbond>
-3.0461

> <Gold.PLP.part.metal>
0.0000

> <Gold.PLP.part.buried>
-5.7635

> <Gold.PLP.part.nonpolar>
-25.3722

> <Gold.PLP.part.repulsive>
0.3493

> <Gold.PLP.ligand.clash>
0.0000

> <Gold.PLP.ligand.torsion>
0.2195

> <Gold.PLP.Chemscore.Hbond>
2.9920

> <Gold.PLP.Chemscore.CHOScore>
0.0000

> <Gold.PLP.Chemscore.Metal>
0.0000

> <Gold.Chemscore.Hbonds>
donor molecule, donor type, donor heavy atom, donor atom, acceptor molecule, acceptor atom, score
      L1  H    17    30       P1  7948  1.00
      L1  H    17    31       P1  7957  1.00
      P1  H  7989  7998       L1    15  1.00

> <Gold.PLP.Chemscore.Internal.Correction>
0.0012

> <Gold.Rescore>
     Score         DG    S(hbond)    S(metal)    S(lipo)     H(rot)  DE(clash)    DE(int)     intcor
     18.15     -18.60       2.40        0.00      81.48       1.73       0.10       0.35       ----

> <Gold.Chemscore.Fitness>
18.1488

> <Gold.Chemscore.DG>
-18.6001

> <Gold.Chemscore.ZeroCoef>
-5.4800

> <Gold.Chemscore.Hbond>
2.3974

> <Gold.Chemscore.Metal>
0.0000

> <Gold.Chemscore.Lipo>
81.4758

> <Gold.Chemscore.Internal_Hbond>
0.0000

> <Gold.Chemscore.DEClash>
0.1046

> <Gold.Chemscore.DEInternal>
0.3467

> <Gold.Chemscore.Rot>
1.7266

> <Gold.Chemscore.Internal.Correction>
   9.000000E+99

> <Gold.Chemscore.Hbonds>
donor molecule, donor type, donor heavy atom, donor atom, acceptor molecule, acceptor atom, score
      L1  H    17    30       P1  7948  0.69
      L1  H    17    31       P1  7957  0.95
      P1  H  7989  7998       L1    15  0.38

> <Gold.Chemscore.Hbond.Weighted>
-8.0074

> <Gold.Chemscore.Metal.Weighted>
-0.0000

> <Gold.Chemscore.Lipo.Weighted>
-9.5327

> <Gold.Chemscore.Internal_Hbond.Weighted>
0.0000

> <Gold.Chemscore.DEClash.Weighted>
0.1046

> <Gold.Chemscore.DEInternal.Weighted>
0.3467

> <Gold.Chemscore.Rot.Weighted>
4.4200

> <Gold.Chemscore.Internal.Correction.Weighted>
   9.000000E+99

> <Gold.Protein.RotatedTorsions>
[ 6907 6896 6895 6894 ] final   36.14 input  -60.11 | X-H torsion
[ 7974 7965 7964 7962 ] final  -10.52 input  175.53 | X-H torsion
[ 8008 7997 7996 7995 ] final -123.82 input   59.86 | X-H torsion
[ 10167 10162 10161 10158 ] final -138.32 input  -65.29 | X-H torsion
[ 10718 10713 10712 10709 ] final -151.97 input   66.30 | X-H torsion
[ 10763 10752 10751 10750 ] final  138.49 input  -60.55 | X-H torsion
[ 11005 11000 10999 10996 ] final  174.56 input  -57.11 | X-H torsion

> <Gold.Protein.ActiveResidues>
 VAL166  LYS551  ARG553  GLY616  TRP617  ASP618  TYR619  PRO620  LYS621  CYS622 
 ASP623  PHE694  ASN695  SER759  ASP760  ASP761  ALA762  ILE779  LEU786  VAL792 
 PHE793  MET794  SER795  GLU796  ALA797  LYS798  CYS799  TRP800  GLU811  SER814 

> <Gold.Protein.RotatedAtoms>
  152.1257  134.9173  160.0560 H   0  0  0  0  0  0  0  0  0  0  0  0  # atno 6907 bound_to 6896
  152.0296  133.3927  159.4300 H   0  0  0  0  0  0  0  0  0  0  0  0  # atno 6908 bound_to 6896
  150.6852  134.3456  159.4930 H   0  0  0  0  0  0  0  0  0  0  0  0  # atno 6909 bound_to 6896
  146.2218  140.2775  142.8360 H   0  0  0  0  0  0  0  0  0  0  0  0  # atno 7974 bound_to 7965
  155.1867  140.0412  157.2892 H   0  0  0  0  0  0  0  0  0  0  0  0  # atno 8008 bound_to 7997
  154.6166  140.2490  155.7574 H   0  0  0  0  0  0  0  0  0  0  0  0  # atno 8009 bound_to 7997
  156.2410  140.2903  156.0454 H   0  0  0  0  0  0  0  0  0  0  0  0  # atno 8010 bound_to 7997
  139.8490  143.7223  152.2659 H   0  0  0  0  0  0  0  0  0  0  0  0  # atno 10167 bound_to 10162
  156.4663  130.8237  151.2467 H   0  0  0  0  0  0  0  0  0  0  0  0  # atno 10718 bound_to 10713
  153.8904  135.3033  155.3447 H   0  0  0  0  0  0  0  0  0  0  0  0  # atno 10763 bound_to 10752
  154.7719  135.4881  153.9669 H   0  0  0  0  0  0  0  0  0  0  0  0  # atno 10764 bound_to 10752
  153.1301  135.6802  153.9291 H   0  0  0  0  0  0  0  0  0  0  0  0  # atno 10765 bound_to 10752
  140.3527  134.7181  157.4278 H   0  0  0  0  0  0  0  0  0  0  0  0  # atno 11005 bound_to 11000
  144.9221  140.7880  143.5741 LP  0  0  0  0  0  0  0  0  0  0  0  0  # atno 17320 bound_to 7965
  145.2713  139.1953  143.4840 LP  0  0  0  0  0  0  0  0  0  0  0  0  # atno 17321 bound_to 7965
  139.7484  144.7541  151.0544 LP  0  0  0  0  0  0  0  0  0  0  0  0  # atno 17342 bound_to 10162
  140.7790  143.4889  150.9920 LP  0  0  0  0  0  0  0  0  0  0  0  0  # atno 17343 bound_to 10162
  157.7494  131.0091  150.3253 LP  0  0  0  0  0  0  0  0  0  0  0  0  # atno 17370 bound_to 10713
  156.3664  130.3856  149.7210 LP  0  0  0  0  0  0  0  0  0  0  0  0  # atno 17371 bound_to 10713
  140.0690  134.5889  155.8663 LP  0  0  0  0  0  0  0  0  0  0  0  0  # atno 17394 bound_to 11000
  141.2007  133.6614  156.5913 LP  0  0  0  0  0  0  0  0  0  0  0  0  # atno 17395 bound_to 11000

$$$$
