AV-unprocessed.smi:2732|AV-procd|sdf|10535|dock3
  -GOLD-   2272014583D 1   1.00000     0.00000
 Structure written by MMmdl.
 35 36  0  0  0  0  0  0  0  0  2 V2000
  149.8841  143.2157  158.7308 C   0  0  0  0  0  0  0  0  0  0  0  0
  150.7300  142.9898  157.4684 C   0  0  1  0  0  0  0  0  0  0  0  0
  152.0532  142.6703  157.8905 O   0  0  0  0  0  0  0  0  0  0  0  0
  152.7316  143.6960  158.6048 C   0  0  0  0  0  0  0  0  0  0  0  0
  153.3268  143.1006  159.8620 C   0  0  0  0  0  0  0  0  0  0  0  0
  153.9462  141.7217  159.8355 C   0  0  0  0  0  0  0  0  0  0  0  0
  152.6467  141.9477  160.5651 C   0  0  0  0  0  0  0  0  0  0  0  0
  150.1575  141.8556  156.6020 C   0  0  0  0  0  0  0  0  0  0  0  0
  150.7994  140.8157  156.4547 O   0  0  0  0  0  0  0  0  0  0  0  0
  148.9690  142.1057  156.0215 N   0  0  0  0  0  0  0  0  0  0  0  0
  148.2073  141.2640  155.1673 C   0  0  0  0  0  0  0  0  0  0  0  0
  148.7482  140.0038  154.8307 C   0  0  0  0  0  0  0  0  0  0  0  0
  148.0323  139.1402  153.9759 C   0  0  0  0  0  0  0  0  0  0  0  0
  146.7877  139.5584  153.4622 C   0  0  0  0  0  0  0  0  0  0  0  0
  146.0286  138.7552  152.6135 N   0  0  0  0  0  0  0  0  0  0  0  0
  146.3057  140.7761  153.7912 N   0  3  0  0  0  0  0  0  0  0  0  0
  146.9584  141.6321  154.6080 C   0  0  0  0  0  0  0  0  0  0  0  0
  148.8458  143.4355  158.4799 H   0  0  0  0  0  0  0  0  0  0  0  0
  150.2683  144.0583  159.3063 H   0  0  0  0  0  0  0  0  0  0  0  0
  149.8944  142.3416  159.3832 H   0  0  0  0  0  0  0  0  0  0  0  0
  150.7454  143.9207  156.8980 H   0  0  0  0  0  0  0  0  0  0  0  0
  153.5247  144.1472  158.0075 H   0  0  0  0  0  0  0  0  0  0  0  0
  152.0332  144.4855  158.8852 H   0  0  0  0  0  0  0  0  0  0  0  0
  153.8249  143.8281  160.5000 H   0  0  0  0  0  0  0  0  0  0  0  0
  153.9063  141.1636  158.9022 H   0  0  0  0  0  0  0  0  0  0  0  0
  154.8386  141.5611  160.4371 H   0  0  0  0  0  0  0  0  0  0  0  0
  152.6713  141.9399  161.6528 H   0  0  0  0  0  0  0  0  0  0  0  0
  151.7416  141.5428  160.1167 H   0  0  0  0  0  0  0  0  0  0  0  0
  148.5988  143.0348  156.1616 H   0  0  0  0  0  0  0  0  0  0  0  0
  149.7036  139.6942  155.2291 H   0  0  0  0  0  0  0  0  0  0  0  0
  148.4376  138.1719  153.7203 H   0  0  0  0  0  0  0  0  0  0  0  0
  146.3432  137.8374  152.3325 H   0  0  0  0  0  0  0  0  0  0  0  0
  145.1323  139.0577  152.2597 H   0  0  0  0  0  0  0  0  0  0  0  0
  146.4591  142.5760  154.7681 H   0  0  0  0  0  0  0  0  0  0  0  0
  145.4074  141.0674  153.4049 H   0  0  0  0  0  0  0  0  0  0  0  0
  1  2  1  0  0  0  0
  1 18  1  0  0  0  0
  1 19  1  0  0  0  0
  1 20  1  0  0  0  0
  2  3  1  0  0  0  0
  2  8  1  0  0  0  0
  2 21  1  0  0  0  0
  3  4  1  0  0  0  0
  4  5  1  0  0  0  0
  4 22  1  0  0  0  0
  4 23  1  0  0  0  0
  5  7  1  0  0  0  0
  5  6  1  0  0  0  0
  5 24  1  0  0  0  0
  6  7  1  0  0  0  0
  6 25  1  0  0  0  0
  6 26  1  0  0  0  0
  7 27  1  0  0  0  0
  7 28  1  0  0  0  0
  8  9  2  0  0  0  0
  8 10  1  0  0  0  0
 10 11  1  0  0  0  0
 10 29  1  0  0  0  0
 11 17  1  0  0  0  0
 11 12  2  0  0  0  0
 12 13  1  0  0  0  0
 12 30  1  0  0  0  0
 13 14  2  0  0  0  0
 13 31  1  0  0  0  0
 14 15  1  0  0  0  0
 14 16  1  0  0  0  0
 15 32  1  0  0  0  0
 15 33  1  0  0  0  0
 16 17  2  0  0  0  0
 16 35  1  0  0  0  0
 17 34  1  0  0  0  0
M  CHG  1  16   1
M  END
> <s_m_source_file>
AV-unprocessed.smi

> <i_m_source_file_index>
2732

> <i_lp_mmshare_version>
43012

> <i_f3d_flags>
0

> <s_epik_input>
W0NIMl0xW0NIMl1bQ0hdMVtDSDJdT1tDQEBIXShbQ0gzXSlDKD1PKVtOSF1jMltjSF1bY0hdYyhbTkgyXSluW2NIXTI=

> <s_epik_cmdline>
J2VwaWtfcHl0aG9uJywgJy1waCcsICc3LjAnLCAnLXRuJywgJzgnLCAnLW1hJywgJzIwMCcsICctbWV0YWxfYmluZGluZycsICctaW1hZScsICc8aW5maWxlLm1hZT4nLCAnLW9tYWUnLCAnPG91dGZpbGUubWFlPic=

> <r_lp_tautomer_probability>
0.999994

> <r_epik_Ionization_Penalty>
1.25173

> <r_epik_Ionization_Penalty_Charging>
1.25172

> <r_epik_Ionization_Penalty_Neutral>
2.35798e-06

> <r_epik_State_Penalty>
1.32157

> <r_epik_Charging_Adjusted_Penalty>
2.5733

> <i_epik_Tot_Q>
1

> <i_epik_Tot_abs_Q>
1

> <r_epik_Metal_State_Penalty>
1.39188

> <b_epik_Metal_Only>
0

> <s_lp_Force_Field>
OPLS_2005

> <r_lp_Energy>
25.671

> <b_lp_Chiralities_Consistent>
1

> <s_lp_Variant>
AV-unprocessed.smi:2732-4

> <Gold.Version>
5.8.1

> <Gold.Id.Protein>
6NUR|6NUR_protein|mol2

> <Gold.PLP.Fitness>
43.3034

> <Gold.PLP.PLP>
-31.0565

> <Gold.PLP.part.hbond>
-3.0000

> <Gold.PLP.part.metal>
0.0000

> <Gold.PLP.part.buried>
-2.6193

> <Gold.PLP.part.nonpolar>
-27.2890

> <Gold.PLP.part.repulsive>
0.1765

> <Gold.PLP.ligand.clash>
0.3853

> <Gold.PLP.ligand.torsion>
0.7122

> <Gold.PLP.Chemscore.Hbond>
4.4968

> <Gold.PLP.Chemscore.CHOScore>
0.0000

> <Gold.PLP.Chemscore.Metal>
0.0000

> <Gold.Chemscore.Hbonds>
donor molecule, donor type, donor heavy atom, donor atom, acceptor molecule, acceptor atom, score
      L1  H    10    29       P1  8028  0.83
      L1  H    15    33       P1 10175  1.79
      L1  H    16    35       P1 10175  1.87

> <Gold.PLP.Chemscore.Internal.Correction>
0.5662

> <Gold.Rescore>
     Score         DG    S(hbond)    S(metal)    S(lipo)     H(rot)  DE(clash)    DE(int)     intcor
     15.55     -18.07       2.27        0.00      81.45       1.76       0.43       2.09       ----

> <Gold.Chemscore.Fitness>
15.5481

> <Gold.Chemscore.DG>
-18.0702

> <Gold.Chemscore.ZeroCoef>
-5.4800

> <Gold.Chemscore.Hbond>
2.2655

> <Gold.Chemscore.Metal>
0.0000

> <Gold.Chemscore.Lipo>
81.4529

> <Gold.Chemscore.Internal_Hbond>
0.0000

> <Gold.Chemscore.DEClash>
0.4305

> <Gold.Chemscore.DEInternal>
2.0916

> <Gold.Chemscore.Rot>
1.7604

> <Gold.Chemscore.Internal.Correction>
   9.000000E+99

> <Gold.Chemscore.Hbonds>
donor molecule, donor type, donor heavy atom, donor atom, acceptor molecule, acceptor atom, score
      L1  H    10    29       P1  8028  0.79
      L1  H    15    33       P1 10175  0.82
      L1  H    16    35       P1 10175  0.42

> <Gold.Chemscore.Hbond.Weighted>
-7.5667

> <Gold.Chemscore.Metal.Weighted>
-0.0000

> <Gold.Chemscore.Lipo.Weighted>
-9.5300

> <Gold.Chemscore.Internal_Hbond.Weighted>
0.0000

> <Gold.Chemscore.DEClash.Weighted>
0.4305

> <Gold.Chemscore.DEInternal.Weighted>
2.0916

> <Gold.Chemscore.Rot.Weighted>
4.5065

> <Gold.Chemscore.Internal.Correction.Weighted>
   9.000000E+99

> <Gold.Protein.RotatedTorsions>
[ 6907 6896 6895 6894 ] final  -44.98 input  -60.11 | X-H torsion
[ 7974 7965 7964 7962 ] final  -43.01 input  175.53 | X-H torsion
[ 8008 7997 7996 7995 ] final   50.76 input   59.86 | X-H torsion
[ 10167 10162 10161 10158 ] final -125.12 input  -65.29 | X-H torsion
[ 10718 10713 10712 10709 ] final  176.09 input   66.30 | X-H torsion
[ 10763 10752 10751 10750 ] final   72.00 input  -60.55 | X-H torsion
[ 11005 11000 10999 10996 ] final -103.05 input  -57.11 | X-H torsion

> <Gold.Protein.ActiveResidues>
 VAL166  LYS551  ARG553  GLY616  TRP617  ASP618  TYR619  PRO620  LYS621  CYS622 
 ASP623  PHE694  ASN695  SER759  ASP760  ASP761  ALA762  ILE779  LEU786  VAL792 
 PHE793  MET794  SER795  GLU796  ALA797  LYS798  CYS799  TRP800  GLU811  SER814 

> <Gold.Protein.RotatedAtoms>
  150.9268  134.8685  159.7525 H   0  0  0  0  0  0  0  0  0  0  0  0  # atno 6907 bound_to 6896
  152.5019  134.4137  159.9467 H   0  0  0  0  0  0  0  0  0  0  0  0  # atno 6908 bound_to 6896
  151.4166  133.3671  159.2786 H   0  0  0  0  0  0  0  0  0  0  0  0  # atno 6909 bound_to 6896
  146.0060  140.7019  142.9247 H   0  0  0  0  0  0  0  0  0  0  0  0  # atno 7974 bound_to 7965
  155.4241  140.3448  155.4274 H   0  0  0  0  0  0  0  0  0  0  0  0  # atno 8008 bound_to 7997
  156.1376  140.1532  156.9002 H   0  0  0  0  0  0  0  0  0  0  0  0  # atno 8009 bound_to 7997
  154.4944  140.0832  156.7645 H   0  0  0  0  0  0  0  0  0  0  0  0  # atno 8010 bound_to 7997
  139.9855  143.5697  152.2362 H   0  0  0  0  0  0  0  0  0  0  0  0  # atno 10167 bound_to 10162
  156.9253  130.9953  151.2997 H   0  0  0  0  0  0  0  0  0  0  0  0  # atno 10718 bound_to 10713
  153.0432  135.5116  154.7677 H   0  0  0  0  0  0  0  0  0  0  0  0  # atno 10763 bound_to 10752
  154.6598  135.2937  154.9883 H   0  0  0  0  0  0  0  0  0  0  0  0  # atno 10764 bound_to 10752
  154.0738  135.6674  153.4880 H   0  0  0  0  0  0  0  0  0  0  0  0  # atno 10765 bound_to 10752
  141.1163  133.8608  157.1437 H   0  0  0  0  0  0  0  0  0  0  0  0  # atno 11005 bound_to 11000
  144.6936  140.3316  143.7215 LP  0  0  0  0  0  0  0  0  0  0  0  0  # atno 17320 bound_to 7965
  145.7414  139.1765  143.2373 LP  0  0  0  0  0  0  0  0  0  0  0  0  # atno 17321 bound_to 7965
  139.6378  144.7652  151.2401 LP  0  0  0  0  0  0  0  0  0  0  0  0  # atno 17342 bound_to 10162
  140.7474  143.6368  150.8372 LP  0  0  0  0  0  0  0  0  0  0  0  0  # atno 17343 bound_to 10162
  157.5882  130.8424  149.8620 LP  0  0  0  0  0  0  0  0  0  0  0  0  # atno 17370 bound_to 10713
  156.0472  130.3725  150.1289 LP  0  0  0  0  0  0  0  0  0  0  0  0  # atno 17371 bound_to 10713
  140.0087  134.9997  157.0348 LP  0  0  0  0  0  0  0  0  0  0  0  0  # atno 17394 bound_to 11000
  140.4637  134.1458  155.7194 LP  0  0  0  0  0  0  0  0  0  0  0  0  # atno 17395 bound_to 11000

$$$$
