AV-unprocessed.smi:1833|AV-procd|sdf|7468|dock9
  -GOLD-   22720 9163D 1   1.00000     0.00000
 Structure written by MMmdl.
 42 43  0  0  0  0  0  0  0  0  2 V2000
  145.7253  129.0729  152.0478 C   0  0  0  0  0  0  0  0  0  0  0  0
  146.4976  130.3774  152.2921 C   0  0  0  0  0  0  0  0  0  0  0  0
  145.6833  131.5864  152.0080 N   0  3  2  0  0  0  0  0  0  0  0  0
  145.0084  131.5053  150.6859 C   0  0  0  0  0  0  0  0  0  0  0  0
  144.0674  132.7008  150.4630 C   0  0  0  0  0  0  0  0  0  0  0  0
  144.8186  134.0296  150.6112 C   0  0  0  0  0  0  0  0  0  0  0  0
  145.5290  134.0811  151.9723 C   0  0  2  0  0  0  0  0  0  0  0  0
  146.3085  135.3119  152.0808 N   0  0  0  0  0  0  0  0  0  0  0  0
  145.8093  136.5564  152.0810 C   0  0  0  0  0  0  0  0  0  0  0  0
  144.6093  136.8221  152.0114 O   0  0  0  0  0  0  0  0  0  0  0  0
  146.7781  137.4794  152.1560 N   0  0  0  0  0  0  0  0  0  0  0  0
  146.5618  138.9213  152.1331 C   0  0  0  0  0  0  0  0  0  0  0  0
  146.8635  139.5570  153.4999 C   0  0  0  0  0  0  0  0  0  0  0  0
  148.2603  139.2985  153.9554 C   0  0  0  0  0  0  0  0  0  0  0  0
  148.7657  138.0730  154.1226 N   0  0  0  0  0  0  0  0  0  0  0  0
  150.0853  138.0971  154.5804 C   0  0  0  0  0  0  0  0  0  0  0  0
  150.5740  139.3640  154.7741 C   0  0  0  0  0  0  0  0  0  0  0  0
  149.3867  140.5799  154.3889 S   0  0  0  0  0  0  0  0  0  0  0  0
  146.4457  132.8559  152.1538 C   0  0  0  0  0  0  0  0  0  0  0  0
  146.3815  128.2115  152.1747 H   0  0  0  0  0  0  0  0  0  0  0  0
  145.3250  129.0346  151.0343 H   0  0  0  0  0  0  0  0  0  0  0  0
  144.8964  128.9493  152.7440 H   0  0  0  0  0  0  0  0  0  0  0  0
  146.8796  130.4135  153.3135 H   0  0  0  0  0  0  0  0  0  0  0  0
  147.3703  130.3711  151.6376 H   0  0  0  0  0  0  0  0  0  0  0  0
  145.7588  131.4645  149.8947 H   0  0  0  0  0  0  0  0  0  0  0  0
  144.4307  130.5823  150.6228 H   0  0  0  0  0  0  0  0  0  0  0  0
  143.6134  132.6384  149.4734 H   0  0  0  0  0  0  0  0  0  0  0  0
  143.2477  132.6611  151.1817 H   0  0  0  0  0  0  0  0  0  0  0  0
  145.5455  134.1306  149.8037 H   0  0  0  0  0  0  0  0  0  0  0  0
  144.1230  134.8642  150.5139 H   0  0  0  0  0  0  0  0  0  0  0  0
  144.7652  134.0496  152.7519 H   0  0  0  0  0  0  0  0  0  0  0  0
  147.3112  135.2091  152.1403 H   0  0  0  0  0  0  0  0  0  0  0  0
  147.7360  137.1653  152.2123 H   0  0  0  0  0  0  0  0  0  0  0  0
  147.1705  139.3818  151.3531 H   0  0  0  0  0  0  0  0  0  0  0  0
  145.5212  139.1016  151.8620 H   0  0  0  0  0  0  0  0  0  0  0  0
  146.7041  140.6352  153.4567 H   0  0  0  0  0  0  0  0  0  0  0  0
  146.1791  139.1715  154.2565 H   0  0  0  0  0  0  0  0  0  0  0  0
  150.6021  137.1631  154.7440 H   0  0  0  0  0  0  0  0  0  0  0  0
  151.5543  139.6545  155.1215 H   0  0  0  0  0  0  0  0  0  0  0  0
  146.9068  132.9049  153.1399 H   0  0  0  0  0  0  0  0  0  0  0  0
  147.2575  132.8764  151.4243 H   0  0  0  0  0  0  0  0  0  0  0  0
  144.9467  131.6038  152.6991 H   0  0  0  0  0  0  0  0  0  0  0  0
  1  2  1  0  0  0  0
  1 20  1  0  0  0  0
  1 21  1  0  0  0  0
  1 22  1  0  0  0  0
  2  3  1  0  0  0  0
  2 23  1  0  0  0  0
  2 24  1  0  0  0  0
  3 19  1  0  0  0  0
  3  4  1  0  0  0  0
  3 42  1  0  0  0  0
  4  5  1  0  0  0  0
  4 25  1  0  0  0  0
  4 26  1  0  0  0  0
  5  6  1  0  0  0  0
  5 27  1  0  0  0  0
  5 28  1  0  0  0  0
  6  7  1  0  0  0  0
  6 29  1  0  0  0  0
  6 30  1  0  0  0  0
  7  8  1  0  0  0  0
  7 19  1  0  0  0  0
  7 31  1  0  0  0  0
  8  9  1  0  0  0  0
  8 32  1  0  0  0  0
  9 10  2  0  0  0  0
  9 11  1  0  0  0  0
 11 12  1  0  0  0  0
 11 33  1  0  0  0  0
 12 13  1  0  0  0  0
 12 34  1  0  0  0  0
 12 35  1  0  0  0  0
 13 14  1  0  0  0  0
 13 36  1  0  0  0  0
 13 37  1  0  0  0  0
 14 18  1  0  0  0  0
 14 15  2  0  0  0  0
 15 16  1  0  0  0  0
 16 17  2  0  0  0  0
 16 38  1  0  0  0  0
 17 18  1  0  0  0  0
 17 39  1  0  0  0  0
 19 40  1  0  0  0  0
 19 41  1  0  0  0  0
M  CHG  1   3   1
M  END
> <s_m_source_file>
AV-unprocessed.smi

> <i_m_source_file_index>
1833

> <i_lp_mmshare_version>
43012

> <i_f3d_flags>
0

> <s_epik_input>
W0NIM11bQ0gyXU4xW0NIMl1bQ0gyXVtDSDJdW0NASF0oW0NIMl0xKVtOSF1DKD1PKVtOSF1bQ0gyXVtDSDJdYzJuW2NIXVtjSF1zMg==

> <s_epik_cmdline>
J2VwaWtfcHl0aG9uJywgJy1waCcsICc3LjAnLCAnLXRuJywgJzgnLCAnLW1hJywgJzIwMCcsICctbWV0YWxfYmluZGluZycsICctaW1hZScsICc8aW5maWxlLm1hZT4nLCAnLW9tYWUnLCAnPG91dGZpbGUubWFlPic=

> <r_lp_tautomer_probability>
1

> <r_epik_Ionization_Penalty>
0.00269629

> <r_epik_Ionization_Penalty_Charging>
0.00233899

> <r_epik_Ionization_Penalty_Neutral>
0.000357304

> <r_epik_State_Penalty>
-0

> <r_epik_Charging_Adjusted_Penalty>
0.00233899

> <i_epik_Tot_Q>
1

> <i_epik_Tot_abs_Q>
1

> <r_epik_Metal_State_Penalty>
-0

> <b_epik_Metal_Only>
0

> <s_lp_Force_Field>
OPLS_2005

> <r_lp_Energy>
7.34013

> <b_lp_Chiralities_Consistent>
1

> <s_lp_Variant>
AV-unprocessed.smi:1833-4

> <Gold.Version>
5.8.1

> <Gold.Id.Protein>
6NUR|6NUR_protein|mol2

> <Gold.PLP.Fitness>
40.2417

> <Gold.PLP.PLP>
-34.9313

> <Gold.PLP.part.hbond>
-1.9206

> <Gold.PLP.part.metal>
0.0000

> <Gold.PLP.part.buried>
-3.9274

> <Gold.PLP.part.nonpolar>
-31.7271

> <Gold.PLP.part.repulsive>
3.2164

> <Gold.PLP.ligand.clash>
0.0000

> <Gold.PLP.ligand.torsion>
0.1120

> <Gold.PLP.Chemscore.Hbond>
1.8320

> <Gold.PLP.Chemscore.CHOScore>
0.0000

> <Gold.PLP.Chemscore.Metal>
0.0000

> <Gold.Chemscore.Hbonds>
donor molecule, donor type, donor heavy atom, donor atom, acceptor molecule, acceptor atom, score
      L1  H     8    32       P1  7948  0.82
      L1  H    11    33       P1  7948  1.00

> <Gold.PLP.Chemscore.Internal.Correction>
0.0384

> <Gold.Rescore>
     Score         DG    S(hbond)    S(metal)    S(lipo)     H(rot)  DE(clash)    DE(int)     intcor
     16.05     -18.43       1.85        0.00      95.28       1.71       0.94       1.44       ----

> <Gold.Chemscore.Fitness>
16.0464

> <Gold.Chemscore.DG>
-18.4292

> <Gold.Chemscore.ZeroCoef>
-5.4800

> <Gold.Chemscore.Hbond>
1.8538

> <Gold.Chemscore.Metal>
0.0000

> <Gold.Chemscore.Lipo>
95.2752

> <Gold.Chemscore.Internal_Hbond>
0.0000

> <Gold.Chemscore.DEClash>
0.9445

> <Gold.Chemscore.DEInternal>
1.4383

> <Gold.Chemscore.Rot>
1.7147

> <Gold.Chemscore.Internal.Correction>
   9.000000E+99

> <Gold.Chemscore.Hbonds>
donor molecule, donor type, donor heavy atom, donor atom, acceptor molecule, acceptor atom, score
      L1  H     8    32       P1  7948  0.81
      L1  H    11    33       P1  7948  0.94

> <Gold.Chemscore.Hbond.Weighted>
-6.1916

> <Gold.Chemscore.Metal.Weighted>
-0.0000

> <Gold.Chemscore.Lipo.Weighted>
-11.1472

> <Gold.Chemscore.Internal_Hbond.Weighted>
0.0000

> <Gold.Chemscore.DEClash.Weighted>
0.9445

> <Gold.Chemscore.DEInternal.Weighted>
1.4383

> <Gold.Chemscore.Rot.Weighted>
4.3896

> <Gold.Chemscore.Internal.Correction.Weighted>
   9.000000E+99

> <Gold.Protein.RotatedTorsions>
[ 6907 6896 6895 6894 ] final  136.47 input  -60.11 | X-H torsion
[ 7974 7965 7964 7962 ] final  -54.07 input  175.53 | X-H torsion
[ 8008 7997 7996 7995 ] final   -4.88 input   59.86 | X-H torsion
[ 10167 10162 10161 10158 ] final   97.87 input  -65.29 | X-H torsion
[ 10718 10713 10712 10709 ] final  -30.21 input   66.30 | X-H torsion
[ 10763 10752 10751 10750 ] final   32.55 input  -60.55 | X-H torsion
[ 11005 11000 10999 10996 ] final  -98.00 input  -57.11 | X-H torsion

> <Gold.Protein.ActiveResidues>
 VAL166  LYS551  ARG553  GLY616  TRP617  ASP618  TYR619  PRO620  LYS621  CYS622 
 ASP623  PHE694  ASN695  SER759  ASP760  ASP761  ALA762  ILE779  LEU786  VAL792 
 PHE793  MET794  SER795  GLU796  ALA797  LYS798  CYS799  TRP800  GLU811  SER814 

> <Gold.Protein.RotatedAtoms>
  152.2889  133.5542  159.5544 H   0  0  0  0  0  0  0  0  0  0  0  0  # atno 6907 bound_to 6896
  150.7227  134.0457  159.3790 H   0  0  0  0  0  0  0  0  0  0  0  0  # atno 6908 bound_to 6896
  151.8363  135.0605  160.0493 H   0  0  0  0  0  0  0  0  0  0  0  0  # atno 6909 bound_to 6896
  145.8897  140.8080  142.9798 H   0  0  0  0  0  0  0  0  0  0  0  0  # atno 7974 bound_to 7965
  154.6097  140.2472  155.7685 H   0  0  0  0  0  0  0  0  0  0  0  0  # atno 8008 bound_to 7997
  156.2363  140.2949  156.0271 H   0  0  0  0  0  0  0  0  0  0  0  0  # atno 8009 bound_to 7997
  155.2073  140.0396  157.2918 H   0  0  0  0  0  0  0  0  0  0  0  0  # atno 8010 bound_to 7997
  139.7760  144.6905  151.0088 H   0  0  0  0  0  0  0  0  0  0  0  0  # atno 10167 bound_to 10162
  156.4027  130.4393  149.7310 H   0  0  0  0  0  0  0  0  0  0  0  0  # atno 10718 bound_to 10713
  153.0257  135.6410  154.1372 H   0  0  0  0  0  0  0  0  0  0  0  0  # atno 10763 bound_to 10752
  154.1102  135.2853  155.3234 H   0  0  0  0  0  0  0  0  0  0  0  0  # atno 10764 bound_to 10752
  154.6337  135.5484  153.7772 H   0  0  0  0  0  0  0  0  0  0  0  0  # atno 10765 bound_to 10752
  141.1360  133.8212  157.0781 H   0  0  0  0  0  0  0  0  0  0  0  0  # atno 11005 bound_to 11000
  144.6730  140.1510  143.7430 LP  0  0  0  0  0  0  0  0  0  0  0  0  # atno 17320 bound_to 7965
  145.8923  139.2383  143.1542 LP  0  0  0  0  0  0  0  0  0  0  0  0  # atno 17321 bound_to 7965
  140.7816  143.4535  151.0379 LP  0  0  0  0  0  0  0  0  0  0  0  0  # atno 17342 bound_to 10162
  139.8217  143.7811  152.3177 LP  0  0  0  0  0  0  0  0  0  0  0  0  # atno 17343 bound_to 10162
  156.4320  130.7820  151.2840 LP  0  0  0  0  0  0  0  0  0  0  0  0  # atno 17370 bound_to 10713
  157.7504  131.0151  150.3490 LP  0  0  0  0  0  0  0  0  0  0  0  0  # atno 17371 bound_to 10713
  140.0469  134.9826  157.1065 LP  0  0  0  0  0  0  0  0  0  0  0  0  # atno 17394 bound_to 11000
  140.4049  134.2042  155.7163 LP  0  0  0  0  0  0  0  0  0  0  0  0  # atno 17395 bound_to 11000

$$$$
