AV-unprocessed.smi:2474|AV-procd|sdf|9752|dock4
  -GOLD-   2272013393D 1   1.00000     0.00000
 Structure written by MMmdl.
 40 41  0  0  0  0  0  0  0  0  1 V2000
  144.4470  144.8399  154.1909 C   0  0  0  0  0  0  0  0  0  0  0  0
  145.2112  143.6152  154.5635 C   0  0  0  0  0  0  0  0  0  0  0  0
  145.1759  142.9320  155.7539 C   0  0  0  0  0  0  0  0  0  0  0  0
  146.0109  141.8132  155.7877 N   0  0  0  0  0  0  0  0  0  0  0  0
  146.6841  141.6432  154.6461 C   0  0  0  0  0  0  0  0  0  0  0  0
  147.6345  140.5109  154.3986 C   0  0  1  0  0  0  0  0  0  0  0  0
  147.1718  139.6061  153.2478 C   0  0  0  0  0  0  0  0  0  0  0  0
  149.1036  140.9686  154.2521 C   0  0  0  0  0  0  0  0  0  0  0  0
  149.4597  142.0542  155.1621 N   0  0  0  0  0  0  0  0  0  0  0  0
  150.4502  142.0111  156.0630 C   0  0  0  0  0  0  0  0  0  0  0  0
  151.2105  141.0537  156.2072 O   0  0  0  0  0  0  0  0  0  0  0  0
  150.4964  143.1276  156.8025 N   0  0  0  0  0  0  0  0  0  0  0  0
  151.4220  143.3699  157.9050 C   0  0  2  0  0  0  0  0  0  0  0  0
  151.4593  142.1453  158.8432 C   0  0  0  0  0  0  0  0  0  0  0  0
  152.4569  142.3177  160.0001 C   0  0  0  0  0  0  0  0  0  0  0  0
  152.1154  143.5171  160.8954 C   0  0  0  0  0  0  0  0  0  0  0  0
  152.1776  145.0712  159.9634 S   0  0  0  0  0  0  0  0  0  0  0  0
  150.9992  144.6473  158.6509 C   0  0  0  0  0  0  0  0  0  0  0  0
  146.3133  142.8684  153.4373 S   0  0  0  0  0  0  0  0  0  0  0  0
  143.8159  145.1755  155.0141 H   0  0  0  0  0  0  0  0  0  0  0  0
  143.8049  144.6479  153.3310 H   0  0  0  0  0  0  0  0  0  0  0  0
  145.1245  145.6540  153.9330 H   0  0  0  0  0  0  0  0  0  0  0  0
  144.5852  143.1694  156.6263 H   0  0  0  0  0  0  0  0  0  0  0  0
  147.5932  139.8890  155.2937 H   0  0  0  0  0  0  0  0  0  0  0  0
  146.1735  139.2106  153.4367 H   0  0  0  0  0  0  0  0  0  0  0  0
  147.8447  138.7576  153.1207 H   0  0  0  0  0  0  0  0  0  0  0  0
  147.1417  140.1500  152.3032 H   0  0  0  0  0  0  0  0  0  0  0  0
  149.7840  140.1269  154.3904 H   0  0  0  0  0  0  0  0  0  0  0  0
  149.2699  141.3351  153.2388 H   0  0  0  0  0  0  0  0  0  0  0  0
  148.8880  142.8855  155.1221 H   0  0  0  0  0  0  0  0  0  0  0  0
  149.8263  143.8561  156.6046 H   0  0  0  0  0  0  0  0  0  0  0  0
  152.4210  143.5333  157.4955 H   0  0  0  0  0  0  0  0  0  0  0  0
  150.4630  141.9542  159.2443 H   0  0  0  0  0  0  0  0  0  0  0  0
  151.7332  141.2553  158.2751 H   0  0  0  0  0  0  0  0  0  0  0  0
  152.4651  141.4103  160.6046 H   0  0  0  0  0  0  0  0  0  0  0  0
  153.4667  142.4296  159.6032 H   0  0  0  0  0  0  0  0  0  0  0  0
  151.1203  143.4001  161.3262 H   0  0  0  0  0  0  0  0  0  0  0  0
  152.8183  143.5798  161.7262 H   0  0  0  0  0  0  0  0  0  0  0  0
  150.9411  145.4893  157.9606 H   0  0  0  0  0  0  0  0  0  0  0  0
  150.0090  144.5255  159.0917 H   0  0  0  0  0  0  0  0  0  0  0  0
  1  2  1  0  0  0  0
  1 20  1  0  0  0  0
  1 21  1  0  0  0  0
  1 22  1  0  0  0  0
  2 19  1  0  0  0  0
  2  3  2  0  0  0  0
  3  4  1  0  0  0  0
  3 23  1  0  0  0  0
  4  5  2  0  0  0  0
  5  6  1  0  0  0  0
  5 19  1  0  0  0  0
  6  7  1  0  0  0  0
  6  8  1  0  0  0  0
  6 24  1  0  0  0  0
  7 25  1  0  0  0  0
  7 26  1  0  0  0  0
  7 27  1  0  0  0  0
  8  9  1  0  0  0  0
  8 28  1  0  0  0  0
  8 29  1  0  0  0  0
  9 10  1  0  0  0  0
  9 30  1  0  0  0  0
 10 11  2  0  0  0  0
 10 12  1  0  0  0  0
 12 13  1  0  0  0  0
 12 31  1  0  0  0  0
 13 18  1  0  0  0  0
 13 14  1  0  0  0  0
 13 32  1  0  0  0  0
 14 15  1  0  0  0  0
 14 33  1  0  0  0  0
 14 34  1  0  0  0  0
 15 16  1  0  0  0  0
 15 35  1  0  0  0  0
 15 36  1  0  0  0  0
 16 17  1  0  0  0  0
 16 37  1  0  0  0  0
 16 38  1  0  0  0  0
 17 18  1  0  0  0  0
 18 39  1  0  0  0  0
 18 40  1  0  0  0  0
M  END
> <s_m_source_file>
AV-unprocessed.smi

> <i_m_source_file_index>
2474

> <i_lp_mmshare_version>
43012

> <i_f3d_flags>
0

> <s_epik_input>
W0NIM11jMVtjSF1uYyhzMSlbQ0BIXShbQ0gzXSlbQ0gyXVtOSF1DKD1PKVtOSF1bQ0BASF0yW0NIMl1bQ0gyXVtDSDJdU1tDSDJdMg==

> <s_epik_cmdline>
J2VwaWtfcHl0aG9uJywgJy1waCcsICc3LjAnLCAnLXRuJywgJzgnLCAnLW1hJywgJzIwMCcsICctbWV0YWxfYmluZGluZycsICctaW1hZScsICc8aW5maWxlLm1hZT4nLCAnLW9tYWUnLCAnPG91dGZpbGUubWFlPic=

> <r_epik_Ionization_Penalty>
0.000644338

> <r_epik_Ionization_Penalty_Charging>
0

> <r_epik_Ionization_Penalty_Neutral>
0.000644338

> <r_epik_State_Penalty>
0.000374131

> <r_epik_Charging_Adjusted_Penalty>
0.000374131

> <i_epik_Tot_Q>
0

> <i_epik_Tot_abs_Q>
0

> <r_epik_Metal_State_Penalty>
-0

> <b_epik_Metal_Only>
0

> <s_lp_Force_Field>
OPLS_2005

> <r_lp_Energy>
-6.48006

> <b_lp_Chiralities_Consistent>
1

> <s_lp_Variant>
AV-unprocessed.smi:2474-2

> <Gold.Version>
5.8.1

> <Gold.Id.Protein>
6NUR|6NUR_protein|mol2

> <Gold.PLP.Fitness>
47.6554

> <Gold.PLP.PLP>
-42.6910

> <Gold.PLP.part.hbond>
-2.0000

> <Gold.PLP.part.metal>
0.0000

> <Gold.PLP.part.buried>
-6.5608

> <Gold.PLP.part.nonpolar>
-33.8949

> <Gold.PLP.part.repulsive>
0.3629

> <Gold.PLP.ligand.clash>
0.0000

> <Gold.PLP.ligand.torsion>
0.3302

> <Gold.PLP.Chemscore.Hbond>
1.8320

> <Gold.PLP.Chemscore.CHOScore>
0.0000

> <Gold.PLP.Chemscore.Metal>
0.0000

> <Gold.Chemscore.Hbonds>
donor molecule, donor type, donor heavy atom, donor atom, acceptor molecule, acceptor atom, score
      L1  H     9    30       P1  8028  0.85
      L1  H    12    31       P1  8028  1.00

> <Gold.PLP.Chemscore.Internal.Correction>
0.1289

> <Gold.Rescore>
     Score         DG    S(hbond)    S(metal)    S(lipo)     H(rot)  DE(clash)    DE(int)     intcor
     19.37     -20.98       1.79        0.00     113.25       1.46       0.22       1.38       ----

> <Gold.Chemscore.Fitness>
19.3711

> <Gold.Chemscore.DG>
-20.9758

> <Gold.Chemscore.ZeroCoef>
-5.4800

> <Gold.Chemscore.Hbond>
1.7925

> <Gold.Chemscore.Metal>
0.0000

> <Gold.Chemscore.Lipo>
113.2529

> <Gold.Chemscore.Internal_Hbond>
0.0000

> <Gold.Chemscore.DEClash>
0.2211

> <Gold.Chemscore.DEInternal>
1.3837

> <Gold.Chemscore.Rot>
1.4616

> <Gold.Chemscore.Internal.Correction>
   9.000000E+99

> <Gold.Chemscore.Hbonds>
donor molecule, donor type, donor heavy atom, donor atom, acceptor molecule, acceptor atom, score
      L1  H     9    30       P1  8028  0.83
      L1  H    12    31       P1  8028  0.95

> <Gold.Chemscore.Hbond.Weighted>
-5.9869

> <Gold.Chemscore.Metal.Weighted>
-0.0000

> <Gold.Chemscore.Lipo.Weighted>
-13.2506

> <Gold.Chemscore.Internal_Hbond.Weighted>
0.0000

> <Gold.Chemscore.DEClash.Weighted>
0.2211

> <Gold.Chemscore.DEInternal.Weighted>
1.3837

> <Gold.Chemscore.Rot.Weighted>
3.7416

> <Gold.Chemscore.Internal.Correction.Weighted>
   9.000000E+99

> <Gold.Protein.RotatedTorsions>
[ 6907 6896 6895 6894 ] final  128.76 input  -60.11 | X-H torsion
[ 7974 7965 7964 7962 ] final   88.47 input  175.53 | X-H torsion
[ 8008 7997 7996 7995 ] final   34.10 input   59.86 | X-H torsion
[ 10167 10162 10161 10158 ] final  -28.92 input  -65.29 | X-H torsion
[ 10718 10713 10712 10709 ] final -174.95 input   66.30 | X-H torsion
[ 10763 10752 10751 10750 ] final   95.69 input  -60.55 | X-H torsion
[ 11005 11000 10999 10996 ] final -128.81 input  -57.11 | X-H torsion

> <Gold.Protein.ActiveResidues>
 VAL166  LYS551  ARG553  GLY616  TRP617  ASP618  TYR619  PRO620  LYS621  CYS622 
 ASP623  PHE694  ASN695  SER759  ASP760  ASP761  ALA762  ILE779  LEU786  VAL792 
 PHE793  MET794  SER795  GLU796  ALA797  LYS798  CYS799  TRP800  GLU811  SER814 

> <Gold.Protein.RotatedAtoms>
  152.3688  133.6392  159.6071 H   0  0  0  0  0  0  0  0  0  0  0  0  # atno 6907 bound_to 6896
  150.7654  133.9303  159.3434 H   0  0  0  0  0  0  0  0  0  0  0  0  # atno 6908 bound_to 6896
  151.7129  135.0910  160.0322 H   0  0  0  0  0  0  0  0  0  0  0  0  # atno 6909 bound_to 6896
  145.5453  139.2291  143.2543 H   0  0  0  0  0  0  0  0  0  0  0  0  # atno 7974 bound_to 7965
  155.1494  140.3273  155.4434 H   0  0  0  0  0  0  0  0  0  0  0  0  # atno 8008 bound_to 7997
  156.2579  140.1979  156.6556 H   0  0  0  0  0  0  0  0  0  0  0  0  # atno 8009 bound_to 7997
  154.6484  140.0561  156.9914 H   0  0  0  0  0  0  0  0  0  0  0  0  # atno 8010 bound_to 7997
  140.7265  143.3971  151.1329 H   0  0  0  0  0  0  0  0  0  0  0  0  # atno 10167 bound_to 10162
  156.7926  130.9523  151.3120 H   0  0  0  0  0  0  0  0  0  0  0  0  # atno 10718 bound_to 10713
  153.2562  135.4245  155.0847 H   0  0  0  0  0  0  0  0  0  0  0  0  # atno 10763 bound_to 10752
  154.8402  135.3438  154.6443 H   0  0  0  0  0  0  0  0  0  0  0  0  # atno 10764 bound_to 10752
  153.6863  135.7036  153.5160 H   0  0  0  0  0  0  0  0  0  0  0  0  # atno 10765 bound_to 10752
  140.9484  134.1098  157.4085 H   0  0  0  0  0  0  0  0  0  0  0  0  # atno 11005 bound_to 11000
  146.1954  140.6274  142.9126 LP  0  0  0  0  0  0  0  0  0  0  0  0  # atno 17320 bound_to 7965
  144.7556  140.5300  143.6771 LP  0  0  0  0  0  0  0  0  0  0  0  0  # atno 17321 bound_to 7965
  139.7585  143.8671  152.3094 LP  0  0  0  0  0  0  0  0  0  0  0  0  # atno 17342 bound_to 10162
  139.8549  144.7146  150.9169 LP  0  0  0  0  0  0  0  0  0  0  0  0  # atno 17343 bound_to 10162
  157.6593  130.8952  149.9795 LP  0  0  0  0  0  0  0  0  0  0  0  0  # atno 17370 bound_to 10713
  156.1149  130.3648  149.9985 LP  0  0  0  0  0  0  0  0  0  0  0  0  # atno 17371 bound_to 10713
  139.8840  135.0058  156.6340 LP  0  0  0  0  0  0  0  0  0  0  0  0  # atno 17394 bound_to 11000
  140.7636  133.8796  155.8437 LP  0  0  0  0  0  0  0  0  0  0  0  0  # atno 17395 bound_to 11000

$$$$
