AV-unprocessed.smi:1007|AV-procd|sdf|4402|dock6
  -GOLD-   22720 2343D 1   1.00000     0.00000
 Structure written by MMmdl.
 57 59  0  0  0  0  0  0  0  0  3 V2000
  147.3780  133.5684  158.9867 C   0  0  0  0  0  0  0  0  0  0  0  0
  146.3792  132.9182  158.2165 O   0  0  0  0  0  0  0  0  0  0  0  0
  146.2653  133.4010  156.8855 C   0  0  0  0  0  0  0  0  0  0  0  0
  147.5834  133.2292  156.1070 C   0  0  0  0  0  0  0  0  0  0  0  0
  147.5634  133.7550  154.7386 N   0  0  0  0  0  0  0  0  0  0  0  0
  147.2116  135.1740  154.6852 C   0  0  0  0  0  0  0  0  0  0  0  0
  148.3343  136.0996  155.1976 C   0  0  0  0  0  0  0  0  0  0  0  0
  149.5811  135.8622  154.4269 N   0  3  0  0  0  0  0  0  0  0  0  0
  150.6677  136.8096  154.7783 C   0  0  0  0  0  0  0  0  0  0  0  0
  150.2169  138.2893  154.7964 C   0  0  2  0  0  0  0  0  0  0  0  0
  149.6574  138.5769  153.5328 O   0  0  0  0  0  0  0  0  0  0  0  0
  151.3440  139.3189  155.0394 C   0  0  0  0  0  0  0  0  0  0  0  0
  150.8582  140.5962  155.5837 N   0  0  0  0  0  0  0  0  0  0  0  0
  149.9160  141.4421  155.0843 C   0  0  0  0  0  0  0  0  0  0  0  0
  149.8009  142.4867  155.9496 N   0  3  0  0  0  0  0  0  0  0  0  0
  150.6889  142.3120  157.0126 C   0  0  0  0  0  0  0  0  0  0  0  0
  150.9258  143.0944  158.1361 C   0  0  0  0  0  0  0  0  0  0  0  0
  151.8998  142.6331  159.0495 C   0  0  0  0  0  0  0  0  0  0  0  0
  152.1732  143.4577  160.2957 C   0  0  0  0  0  0  0  0  0  0  0  0
  152.6080  141.4265  158.8136 C   0  0  0  0  0  0  0  0  0  0  0  0
  153.6521  140.9384  159.8032 C   0  0  0  0  0  0  0  0  0  0  0  0
  152.3572  140.6480  157.6612 C   0  0  0  0  0  0  0  0  0  0  0  0
  151.3844  141.1096  156.7767 C   0  0  0  0  0  0  0  0  0  0  0  0
  149.9716  134.4298  154.4890 C   0  0  0  0  0  0  0  0  0  0  0  0
  148.8072  133.5498  153.9915 C   0  0  0  0  0  0  0  0  0  0  0  0
  147.4400  133.0996  159.9687 H   0  0  0  0  0  0  0  0  0  0  0  0
  147.1497  134.6229  159.1393 H   0  0  0  0  0  0  0  0  0  0  0  0
  148.3583  133.4860  158.5160 H   0  0  0  0  0  0  0  0  0  0  0  0
  145.4281  132.9170  156.3814 H   0  0  0  0  0  0  0  0  0  0  0  0
  146.0219  134.4622  156.9459 H   0  0  0  0  0  0  0  0  0  0  0  0
  148.3599  133.7534  156.6656 H   0  0  0  0  0  0  0  0  0  0  0  0
  147.8762  132.1805  156.1057 H   0  0  0  0  0  0  0  0  0  0  0  0
  146.9774  135.4412  153.6541 H   0  0  0  0  0  0  0  0  0  0  0  0
  146.2964  135.3519  155.2510 H   0  0  0  0  0  0  0  0  0  0  0  0
  148.0216  137.1374  155.0789 H   0  0  0  0  0  0  0  0  0  0  0  0
  148.5172  135.9468  156.2621 H   0  0  0  0  0  0  0  0  0  0  0  0
  151.0606  136.5587  155.7650 H   0  0  0  0  0  0  0  0  0  0  0  0
  151.4921  136.6679  154.0772 H   0  0  0  0  0  0  0  0  0  0  0  0
  149.4209  138.4418  155.5246 H   0  0  0  0  0  0  0  0  0  0  0  0
  149.6222  137.7804  153.0244 H   0  0  0  0  0  0  0  0  0  0  0  0
  152.1239  138.9112  155.6819 H   0  0  0  0  0  0  0  0  0  0  0  0
  151.8315  139.5576  154.0930 H   0  0  0  0  0  0  0  0  0  0  0  0
  149.3555  141.3062  154.1702 H   0  0  0  0  0  0  0  0  0  0  0  0
  150.3845  144.0137  158.3079 H   0  0  0  0  0  0  0  0  0  0  0  0
  153.2042  143.8117  160.3013 H   0  0  0  0  0  0  0  0  0  0  0  0
  152.0048  142.8635  161.1940 H   0  0  0  0  0  0  0  0  0  0  0  0
  151.5213  144.3303  160.3481 H   0  0  0  0  0  0  0  0  0  0  0  0
  154.1300  140.0205  159.4599 H   0  0  0  0  0  0  0  0  0  0  0  0
  153.1943  140.7340  160.7713 H   0  0  0  0  0  0  0  0  0  0  0  0
  154.4323  141.6879  159.9396 H   0  0  0  0  0  0  0  0  0  0  0  0
  152.8959  139.7276  157.4911 H   0  0  0  0  0  0  0  0  0  0  0  0
  150.8401  134.2471  153.8578 H   0  0  0  0  0  0  0  0  0  0  0  0
  150.2612  134.1619  155.5058 H   0  0  0  0  0  0  0  0  0  0  0  0
  149.0974  132.5000  154.0118 H   0  0  0  0  0  0  0  0  0  0  0  0
  148.6258  133.7774  152.9401 H   0  0  0  0  0  0  0  0  0  0  0  0
  149.3476  136.0547  153.4633 H   0  0  0  0  0  0  0  0  0  0  0  0
  149.1648  143.2636  155.8193 H   0  0  0  0  0  0  0  0  0  0  0  0
  1  2  1  0  0  0  0
  1 26  1  0  0  0  0
  1 27  1  0  0  0  0
  1 28  1  0  0  0  0
  2  3  1  0  0  0  0
  3  4  1  0  0  0  0
  3 29  1  0  0  0  0
  3 30  1  0  0  0  0
  4  5  1  0  0  0  0
  4 31  1  0  0  0  0
  4 32  1  0  0  0  0
  5 25  1  0  0  0  0
  5  6  1  0  0  0  0
  6  7  1  0  0  0  0
  6 33  1  0  0  0  0
  6 34  1  0  0  0  0
  7  8  1  0  0  0  0
  7 35  1  0  0  0  0
  7 36  1  0  0  0  0
  8  9  1  0  0  0  0
  8 24  1  0  0  0  0
  8 56  1  0  0  0  0
  9 10  1  0  0  0  0
  9 37  1  0  0  0  0
  9 38  1  0  0  0  0
 10 11  1  0  0  0  0
 10 12  1  0  0  0  0
 10 39  1  0  0  0  0
 11 40  1  0  0  0  0
 12 13  1  0  0  0  0
 12 41  1  0  0  0  0
 12 42  1  0  0  0  0
 13 23  1  0  0  0  0
 13 14  1  0  0  0  0
 14 15  2  0  0  0  0
 14 43  1  0  0  0  0
 15 16  1  0  0  0  0
 15 57  1  0  0  0  0
 16 23  2  0  0  0  0
 16 17  1  0  0  0  0
 17 18  2  0  0  0  0
 17 44  1  0  0  0  0
 18 19  1  0  0  0  0
 18 20  1  0  0  0  0
 19 45  1  0  0  0  0
 19 46  1  0  0  0  0
 19 47  1  0  0  0  0
 20 21  1  0  0  0  0
 20 22  2  0  0  0  0
 21 48  1  0  0  0  0
 21 49  1  0  0  0  0
 21 50  1  0  0  0  0
 22 23  1  0  0  0  0
 22 51  1  0  0  0  0
 24 25  1  0  0  0  0
 24 52  1  0  0  0  0
 24 53  1  0  0  0  0
 25 54  1  0  0  0  0
 25 55  1  0  0  0  0
M  CHG  1   8   1
M  CHG  1  15   1
M  END
> <s_m_source_file>
AV-unprocessed.smi

> <i_m_source_file_index>
1007

> <i_lp_mmshare_version>
43012

> <i_f3d_flags>
0

> <s_epik_input>
W0NIM11PW0NIMl1bQ0gyXU4xW0NIMl1bQ0gyXU4oW0NIMl1bQ0gyXTEpW0NIMl1bQ0BIXShbT0hdKVtDSDJdbihbY0hdbjIpYyhjMjMpW2NIXWMoW0NIM10pYyhbY0hdMylbQ0gzXQ==

> <s_epik_cmdline>
J2VwaWtfcHl0aG9uJywgJy1waCcsICc3LjAnLCAnLXRuJywgJzgnLCAnLW1hJywgJzIwMCcsICctbWV0YWxfYmluZGluZycsICctaW1hZScsICc8aW5maWxlLm1hZT4nLCAnLW9tYWUnLCAnPG91dGZpbGUubWFlPic=

> <r_epik_Ionization_Penalty>
1.19231

> <r_epik_Ionization_Penalty_Charging>
1.17974

> <r_epik_Ionization_Penalty_Neutral>
0.0125676

> <r_epik_State_Penalty>
1.24499

> <r_epik_Charging_Adjusted_Penalty>
2.42472

> <i_epik_Tot_Q>
2

> <i_epik_Tot_abs_Q>
2

> <r_epik_Metal_State_Penalty>
5.24866

> <b_epik_Metal_Only>
0

> <s_lp_Force_Field>
OPLS_2005

> <r_lp_Energy>
43.594

> <b_lp_Chiralities_Consistent>
1

> <s_lp_Variant>
AV-unprocessed.smi:1007-5

> <Gold.Version>
5.8.1

> <Gold.Id.Protein>
6NUR|6NUR_protein|mol2

> <Gold.PLP.Fitness>
56.4538

> <Gold.PLP.PLP>
-41.8647

> <Gold.PLP.part.hbond>
-4.0388

> <Gold.PLP.part.metal>
0.0000

> <Gold.PLP.part.buried>
-3.7903

> <Gold.PLP.part.nonpolar>
-34.1061

> <Gold.PLP.part.repulsive>
0.1902

> <Gold.PLP.ligand.clash>
0.0000

> <Gold.PLP.ligand.torsion>
0.3234

> <Gold.PLP.Chemscore.Hbond>
5.0000

> <Gold.PLP.Chemscore.CHOScore>
0.0000

> <Gold.PLP.Chemscore.Metal>
0.0000

> <Gold.Chemscore.Hbonds>
donor molecule, donor type, donor heavy atom, donor atom, acceptor molecule, acceptor atom, score
      L1  H     8    56       P1  7948  2.00
      L1  H    11    40       P1  7948  1.00
      L1  H    15    57       P1  8028  1.79

> <Gold.PLP.Chemscore.Internal.Correction>
0.2359

> <Gold.Rescore>
     Score         DG    S(hbond)    S(metal)    S(lipo)     H(rot)  DE(clash)    DE(int)     intcor
     20.69     -21.16       2.88        0.00     109.68       2.64       0.21       0.26       ----

> <Gold.Chemscore.Fitness>
20.6870

> <Gold.Chemscore.DG>
-21.1598

> <Gold.Chemscore.ZeroCoef>
-5.4800

> <Gold.Chemscore.Hbond>
2.8783

> <Gold.Chemscore.Metal>
0.0000

> <Gold.Chemscore.Lipo>
109.6816

> <Gold.Chemscore.Internal_Hbond>
0.0000

> <Gold.Chemscore.DEClash>
0.2118

> <Gold.Chemscore.DEInternal>
0.2610

> <Gold.Chemscore.Rot>
2.6432

> <Gold.Chemscore.Internal.Correction>
   9.000000E+99

> <Gold.Chemscore.Hbonds>
donor molecule, donor type, donor heavy atom, donor atom, acceptor molecule, acceptor atom, score
      L1  H     8    56       P1  7948  0.65
      L1  H    11    40       P1  7948  0.71
      L1  H    15    57       P1  8028  0.84

> <Gold.Chemscore.Hbond.Weighted>
-9.6136

> <Gold.Chemscore.Metal.Weighted>
-0.0000

> <Gold.Chemscore.Lipo.Weighted>
-12.8328

> <Gold.Chemscore.Internal_Hbond.Weighted>
0.0000

> <Gold.Chemscore.DEClash.Weighted>
0.2118

> <Gold.Chemscore.DEInternal.Weighted>
0.2610

> <Gold.Chemscore.Rot.Weighted>
6.7665

> <Gold.Chemscore.Internal.Correction.Weighted>
   9.000000E+99

> <Gold.Protein.RotatedTorsions>
[ 6907 6896 6895 6894 ] final  140.19 input  -60.11 | X-H torsion
[ 7974 7965 7964 7962 ] final  116.55 input  175.53 | X-H torsion
[ 8008 7997 7996 7995 ] final -170.37 input   59.86 | X-H torsion
[ 10167 10162 10161 10158 ] final    3.77 input  -65.29 | X-H torsion
[ 10718 10713 10712 10709 ] final   29.71 input   66.30 | X-H torsion
[ 10763 10752 10751 10750 ] final  -18.55 input  -60.55 | X-H torsion
[ 11005 11000 10999 10996 ] final -122.66 input  -57.11 | X-H torsion

> <Gold.Protein.ActiveResidues>
 VAL166  LYS551  ARG553  GLY616  TRP617  ASP618  TYR619  PRO620  LYS621  CYS622 
 ASP623  PHE694  ASN695  SER759  ASP760  ASP761  ALA762  ILE779  LEU786  VAL792 
 PHE793  MET794  SER795  GLU796  ALA797  LYS798  CYS799  TRP800  GLU811  SER814 

> <Gold.Protein.RotatedAtoms>
  152.2459  133.5174  159.5296 H   0  0  0  0  0  0  0  0  0  0  0  0  # atno 6907 bound_to 6896
  150.7078  134.1025  159.3980 H   0  0  0  0  0  0  0  0  0  0  0  0  # atno 6908 bound_to 6896
  151.8946  135.0403  160.0551 H   0  0  0  0  0  0  0  0  0  0  0  0  # atno 6909 bound_to 6896
  145.1783  139.3064  143.4431 H   0  0  0  0  0  0  0  0  0  0  0  0  # atno 7974 bound_to 7965
  155.9174  140.1068  157.1233 H   0  0  0  0  0  0  0  0  0  0  0  0  # atno 8008 bound_to 7997
  154.4049  140.1262  156.4701 H   0  0  0  0  0  0  0  0  0  0  0  0  # atno 8009 bound_to 7997
  155.7237  140.3469  155.5030 H   0  0  0  0  0  0  0  0  0  0  0  0  # atno 8010 bound_to 7997
  140.6569  143.7405  150.7669 H   0  0  0  0  0  0  0  0  0  0  0  0  # atno 10167 bound_to 10162
  157.2501  130.7111  149.6401 H   0  0  0  0  0  0  0  0  0  0  0  0  # atno 10718 bound_to 10713
  153.5911  135.7002  153.5423 H   0  0  0  0  0  0  0  0  0  0  0  0  # atno 10763 bound_to 10752
  153.3178  135.4083  155.1390 H   0  0  0  0  0  0  0  0  0  0  0  0  # atno 10764 bound_to 10752
  154.8600  135.3688  154.5442 H   0  0  0  0  0  0  0  0  0  0  0  0  # atno 10765 bound_to 10752
  140.9978  134.0446  157.3575 H   0  0  0  0  0  0  0  0  0  0  0  0  # atno 11005 bound_to 11000
  146.3457  140.1953  142.8589 LP  0  0  0  0  0  0  0  0  0  0  0  0  # atno 17320 bound_to 7965
  145.0162  140.8756  143.5194 LP  0  0  0  0  0  0  0  0  0  0  0  0  # atno 17321 bound_to 7965
  140.1066  143.4738  152.2394 LP  0  0  0  0  0  0  0  0  0  0  0  0  # atno 17342 bound_to 10162
  139.5793  144.7503  151.3681 LP  0  0  0  0  0  0  0  0  0  0  0  0  # atno 17343 bound_to 10162
  155.9666  130.4430  150.5405 LP  0  0  0  0  0  0  0  0  0  0  0  0  # atno 17370 bound_to 10713
  157.3287  131.0695  151.1877 LP  0  0  0  0  0  0  0  0  0  0  0  0  # atno 17371 bound_to 10713
  139.9023  135.0169  156.7328 LP  0  0  0  0  0  0  0  0  0  0  0  0  # atno 17394 bound_to 11000
  140.6938  133.9367  155.7982 LP  0  0  0  0  0  0  0  0  0  0  0  0  # atno 17395 bound_to 11000

$$$$
