AV-unprocessed.smi:232|AV-procd|sdf|1774|dock5
  -GOLD-   2262020313D 1   1.00000     0.00000
 Structure written by MMmdl.
 52 55  0  0  0  0  0  0  0  0  1 V2000
  152.9923  142.3364  161.1730 C   0  0  0  0  0  0  0  0  0  0  0  0
  153.0791  141.7421  159.7616 C   0  0  0  0  0  0  0  0  0  0  0  0
  151.8315  142.0409  158.9012 C   0  0  1  0  0  0  0  0  0  0  0  0
  151.6865  143.5329  158.5426 C   0  0  0  0  0  0  0  0  0  0  0  0
  151.4318  143.5740  157.0315 C   0  0  0  0  0  0  0  0  0  0  0  0
  151.0888  142.1324  156.6530 C   0  0  2  0  0  0  0  0  0  0  0  0
  149.5690  141.8734  156.7162 C   0  0  0  0  0  0  0  0  0  0  0  0
  151.8461  141.3408  157.6165 N   0  0  0  0  0  0  0  0  0  0  0  0
  151.7130  139.9891  157.5471 C   0  0  0  0  0  0  0  0  0  0  0  0
  151.7273  139.2449  158.6855 N   0  0  0  0  0  0  0  0  0  0  0  0
  151.5798  137.9184  158.6296 C   0  0  0  0  0  0  0  0  0  0  0  0
  151.4043  137.1432  157.5584 N   0  0  0  0  0  0  0  0  0  0  0  0
  151.3896  137.8820  156.4123 C   0  0  0  0  0  0  0  0  0  0  0  0
  151.5342  139.2953  156.3166 C   0  0  0  0  0  0  0  0  0  0  0  0
  151.4738  139.6854  154.9834 N   0  0  0  0  0  0  0  0  0  0  0  0
  151.2997  138.5693  154.3301 C   0  0  0  0  0  0  0  0  0  0  0  0
  151.2412  137.4379  155.1105 N   0  0  0  0  0  0  0  0  0  0  0  0
  151.0671  136.0729  154.6465 C   0  0  0  0  0  0  0  0  0  0  0  0
  149.7118  135.4750  155.0740 C   0  0  1  0  0  0  0  0  0  0  0  0
  148.6698  136.0772  154.3283 O   0  0  0  0  0  0  0  0  0  0  0  0
  149.6726  133.9438  154.8940 C   0  0  2  0  0  0  0  0  0  0  0  0
  149.9791  133.4074  153.4834 C   0  0  0  0  0  0  0  0  0  0  0  0
  148.7214  132.6449  153.1086 C   0  0  0  0  0  0  0  0  0  0  0  0
  148.1306  132.2889  154.4664 C   0  0  0  0  0  0  0  0  0  0  0  0
  148.3813  133.4515  155.2390 O   0  0  0  0  0  0  0  0  0  0  0  0
  153.8843  142.0927  161.7501 H   0  0  0  0  0  0  0  0  0  0  0  0
  152.1306  141.9411  161.7115 H   0  0  0  0  0  0  0  0  0  0  0  0
  152.9027  143.4223  161.1474 H   0  0  0  0  0  0  0  0  0  0  0  0
  153.9710  142.1184  159.2596 H   0  0  0  0  0  0  0  0  0  0  0  0
  153.2239  140.6666  159.8588 H   0  0  0  0  0  0  0  0  0  0  0  0
  150.9391  141.7316  159.4476 H   0  0  0  0  0  0  0  0  0  0  0  0
  150.8521  143.9706  159.0917 H   0  0  0  0  0  0  0  0  0  0  0  0
  152.5778  144.1116  158.7887 H   0  0  0  0  0  0  0  0  0  0  0  0
  150.6583  144.2894  156.7503 H   0  0  0  0  0  0  0  0  0  0  0  0
  152.3497  143.8701  156.5219 H   0  0  0  0  0  0  0  0  0  0  0  0
  151.4412  141.9414  155.6399 H   0  0  0  0  0  0  0  0  0  0  0  0
  149.0373  142.5217  156.0194 H   0  0  0  0  0  0  0  0  0  0  0  0
  149.1667  142.0583  157.7125 H   0  0  0  0  0  0  0  0  0  0  0  0
  149.3277  140.8450  156.4457 H   0  0  0  0  0  0  0  0  0  0  0  0
  151.6051  137.4047  159.5790 H   0  0  0  0  0  0  0  0  0  0  0  0
  151.2146  138.5393  153.2535 H   0  0  0  0  0  0  0  0  0  0  0  0
  151.1699  136.0567  153.5608 H   0  0  0  0  0  0  0  0  0  0  0  0
  151.8859  135.4725  155.0444 H   0  0  0  0  0  0  0  0  0  0  0  0
  149.5485  135.7088  156.1269 H   0  0  0  0  0  0  0  0  0  0  0  0
  149.0004  136.2817  153.4669 H   0  0  0  0  0  0  0  0  0  0  0  0
  150.3702  133.4875  155.5983 H   0  0  0  0  0  0  0  0  0  0  0  0
  150.2148  134.1842  152.7553 H   0  0  0  0  0  0  0  0  0  0  0  0
  150.8327  132.7299  153.5241 H   0  0  0  0  0  0  0  0  0  0  0  0
  148.0368  133.3007  152.5692 H   0  0  0  0  0  0  0  0  0  0  0  0
  148.9193  131.7722  152.4860 H   0  0  0  0  0  0  0  0  0  0  0  0
  147.0661  132.0586  154.4173 H   0  0  0  0  0  0  0  0  0  0  0  0
  148.6504  131.4366  154.9070 H   0  0  0  0  0  0  0  0  0  0  0  0
  1  2  1  0  0  0  0
  1 26  1  0  0  0  0
  1 27  1  0  0  0  0
  1 28  1  0  0  0  0
  2  3  1  0  0  0  0
  2 29  1  0  0  0  0
  2 30  1  0  0  0  0
  3  8  1  0  0  0  0
  3  4  1  0  0  0  0
  3 31  1  0  0  0  0
  4  5  1  0  0  0  0
  4 32  1  0  0  0  0
  4 33  1  0  0  0  0
  5  6  1  0  0  0  0
  5 34  1  0  0  0  0
  5 35  1  0  0  0  0
  6  7  1  0  0  0  0
  6  8  1  0  0  0  0
  6 36  1  0  0  0  0
  7 37  1  0  0  0  0
  7 38  1  0  0  0  0
  7 39  1  0  0  0  0
  8  9  1  0  0  0  0
  9 14  1  0  0  0  0
  9 10  2  0  0  0  0
 10 11  1  0  0  0  0
 11 12  2  0  0  0  0
 11 40  1  0  0  0  0
 12 13  1  0  0  0  0
 13 17  1  0  0  0  0
 13 14  2  0  0  0  0
 14 15  1  0  0  0  0
 15 16  2  0  0  0  0
 16 17  1  0  0  0  0
 16 41  1  0  0  0  0
 17 18  1  0  0  0  0
 18 19  1  0  0  0  0
 18 42  1  0  0  0  0
 18 43  1  0  0  0  0
 19 20  1  0  0  0  0
 19 21  1  0  0  0  0
 19 44  1  0  0  0  0
 20 45  1  0  0  0  0
 21 25  1  0  0  0  0
 21 22  1  0  0  0  0
 21 46  1  0  0  0  0
 22 23  1  0  0  0  0
 22 47  1  0  0  0  0
 22 48  1  0  0  0  0
 23 24  1  0  0  0  0
 23 49  1  0  0  0  0
 23 50  1  0  0  0  0
 24 25  1  0  0  0  0
 24 51  1  0  0  0  0
 24 52  1  0  0  0  0
M  END
> <s_m_source_file>
AV-unprocessed.smi

> <i_m_source_file_index>
232

> <i_lp_mmshare_version>
43012

> <i_f3d_flags>
0

> <s_epik_input>
W0NIM11bQ0gyXVtDQEBIXTFbQ0gyXVtDSDJdW0NAQEhdKFtDSDNdKU4xYyhuW2NIXW4yKWMoYzIzKW5bY0hdbjNbQ0gyXVtDQEhdKFtPSF0pW0NAQEhdNFtDSDJdW0NIMl1bQ0gyXU80

> <s_epik_cmdline>
J2VwaWtfcHl0aG9uJywgJy1waCcsICc3LjAnLCAnLXRuJywgJzgnLCAnLW1hJywgJzIwMCcsICctbWV0YWxfYmluZGluZycsICctaW1hZScsICc8aW5maWxlLm1hZT4nLCAnLW9tYWUnLCAnPG91dGZpbGUubWFlPic=

> <r_lp_tautomer_probability>
1

> <r_epik_Ionization_Penalty>
0.00258048

> <r_epik_Ionization_Penalty_Charging>
0

> <r_epik_Ionization_Penalty_Neutral>
0.00258048

> <r_epik_State_Penalty>
0.00168551

> <r_epik_Charging_Adjusted_Penalty>
0.00168551

> <i_epik_Tot_Q>
0

> <i_epik_Tot_abs_Q>
0

> <r_epik_Metal_State_Penalty>
-0

> <b_epik_Metal_Only>
0

> <s_lp_Force_Field>
OPLS_2005

> <r_lp_Energy>
56.0552

> <b_lp_Chiralities_Consistent>
1

> <s_lp_Variant>
AV-unprocessed.smi:232-8

> <Gold.Version>
5.8.1

> <Gold.Id.Protein>
6NUR|6NUR_protein|mol2

> <Gold.PLP.Fitness>
47.5668

> <Gold.PLP.PLP>
-41.3903

> <Gold.PLP.part.hbond>
-2.0000

> <Gold.PLP.part.metal>
0.0000

> <Gold.PLP.part.buried>
-2.8347

> <Gold.PLP.part.nonpolar>
-35.4521

> <Gold.PLP.part.repulsive>
0.0575

> <Gold.PLP.ligand.clash>
0.0000

> <Gold.PLP.ligand.torsion>
0.6073

> <Gold.PLP.Chemscore.Hbond>
2.0000

> <Gold.PLP.Chemscore.CHOScore>
0.3392

> <Gold.PLP.Chemscore.Metal>
0.0000

> <Gold.Chemscore.Hbonds>
donor molecule, donor type, donor heavy atom, donor atom, acceptor molecule, acceptor atom, score
      L1  H    20    45       P1  7948  1.00
      P1  H  7989  7998       L1    15  0.95

> <Gold.PLP.Chemscore.Internal.Correction>
0.3736

> <Gold.Rescore>
     Score         DG    S(hbond)    S(metal)    S(lipo)     H(rot)  DE(clash)    DE(int)     intcor
     13.03     -16.38       1.43        0.00     105.41       2.43       0.52       2.83       ----

> <Gold.Chemscore.Fitness>
13.0272

> <Gold.Chemscore.DG>
-16.3776

> <Gold.Chemscore.ZeroCoef>
-5.4800

> <Gold.Chemscore.Hbond>
1.4296

> <Gold.Chemscore.Metal>
0.0000

> <Gold.Chemscore.Lipo>
105.4130

> <Gold.Chemscore.Internal_Hbond>
0.0000

> <Gold.Chemscore.DEClash>
0.5206

> <Gold.Chemscore.DEInternal>
2.8298

> <Gold.Chemscore.Rot>
2.4260

> <Gold.Chemscore.Internal.Correction>
   9.000000E+99

> <Gold.Chemscore.Hbonds>
donor molecule, donor type, donor heavy atom, donor atom, acceptor molecule, acceptor atom, score
      L1  H    20    45       P1  7948  0.95
      P1  H  7989  7998       L1    15  0.21

> <Gold.Chemscore.Hbond.Weighted>
-4.7749

> <Gold.Chemscore.Metal.Weighted>
-0.0000

> <Gold.Chemscore.Lipo.Weighted>
-12.3333

> <Gold.Chemscore.Internal_Hbond.Weighted>
0.0000

> <Gold.Chemscore.DEClash.Weighted>
0.5206

> <Gold.Chemscore.DEInternal.Weighted>
2.8298

> <Gold.Chemscore.Rot.Weighted>
6.2107

> <Gold.Chemscore.Internal.Correction.Weighted>
   9.000000E+99

> <Gold.Protein.RotatedTorsions>
[ 6907 6896 6895 6894 ] final  -56.65 input  -60.11 | X-H torsion
[ 7974 7965 7964 7962 ] final -156.48 input  175.53 | X-H torsion
[ 8008 7997 7996 7995 ] final  -95.62 input   59.86 | X-H torsion
[ 10167 10162 10161 10158 ] final -155.47 input  -65.29 | X-H torsion
[ 10718 10713 10712 10709 ] final  -91.63 input   66.30 | X-H torsion
[ 10763 10752 10751 10750 ] final -168.30 input  -60.55 | X-H torsion
[ 11005 11000 10999 10996 ] final  152.37 input  -57.11 | X-H torsion

> <Gold.Protein.ActiveResidues>
 VAL166  LYS551  ARG553  GLY616  TRP617  ASP618  TYR619  PRO620  LYS621  CYS622 
 ASP623  PHE694  ASN695  SER759  ASP760  ASP761  ALA762  ILE779  LEU786  VAL792 
 PHE793  MET794  SER795  GLU796  ALA797  LYS798  CYS799  TRP800  GLU811  SER814 

> <Gold.Protein.RotatedAtoms>
  150.8150  134.7326  159.6721 H   0  0  0  0  0  0  0  0  0  0  0  0  # atno 6907 bound_to 6896
  152.4269  134.5848  159.9968 H   0  0  0  0  0  0  0  0  0  0  0  0  # atno 6908 bound_to 6896
  151.6048  133.3315  159.3091 H   0  0  0  0  0  0  0  0  0  0  0  0  # atno 6909 bound_to 6896
  144.7591  140.4104  143.5990 H   0  0  0  0  0  0  0  0  0  0  0  0  # atno 7974 bound_to 7965
  154.7637  140.0478  157.0995 H   0  0  0  0  0  0  0  0  0  0  0  0  # atno 8008 bound_to 7997
  154.9906  140.3112  155.4888 H   0  0  0  0  0  0  0  0  0  0  0  0  # atno 8009 bound_to 7997
  156.2909  140.2219  156.5010 H   0  0  0  0  0  0  0  0  0  0  0  0  # atno 8010 bound_to 7997
  139.6928  143.9391  152.2393 H   0  0  0  0  0  0  0  0  0  0  0  0  # atno 10167 bound_to 10162
  155.9995  130.4955  150.5503 H   0  0  0  0  0  0  0  0  0  0  0  0  # atno 10718 bound_to 10713
  154.6643  135.2929  154.9825 H   0  0  0  0  0  0  0  0  0  0  0  0  # atno 10763 bound_to 10752
  154.0874  135.6595  153.4851 H   0  0  0  0  0  0  0  0  0  0  0  0  # atno 10764 bound_to 10752
  153.0448  135.5212  154.7609 H   0  0  0  0  0  0  0  0  0  0  0  0  # atno 10765 bound_to 10752
  140.1301  134.8807  157.2192 H   0  0  0  0  0  0  0  0  0  0  0  0  # atno 11005 bound_to 11000
  145.6678  139.1593  143.2771 LP  0  0  0  0  0  0  0  0  0  0  0  0  # atno 17320 bound_to 7965
  146.1635  140.6753  142.9266 LP  0  0  0  0  0  0  0  0  0  0  0  0  # atno 17321 bound_to 7965
  139.9212  144.6798  150.8459 LP  0  0  0  0  0  0  0  0  0  0  0  0  # atno 17342 bound_to 10162
  140.7688  143.3373  151.2281 LP  0  0  0  0  0  0  0  0  0  0  0  0  # atno 17343 bound_to 10162
  157.3427  131.0719  151.1775 LP  0  0  0  0  0  0  0  0  0  0  0  0  # atno 17370 bound_to 10713
  157.2619  130.6663  149.5978 LP  0  0  0  0  0  0  0  0  0  0  0  0  # atno 17371 bound_to 10713
  140.2853  134.3303  155.7331 LP  0  0  0  0  0  0  0  0  0  0  0  0  # atno 17394 bound_to 11000
  141.2168  133.7502  156.9423 LP  0  0  0  0  0  0  0  0  0  0  0  0  # atno 17395 bound_to 11000

$$$$
