AV-unprocessed.smi:1072|AV-procd|sdf|4686|dock7
  -GOLD-   22720 3203D 1   1.00000     0.00000
 Structure written by MMmdl.
 46 47  0  0  0  0  0  0  0  0  1 V2000
  150.6284  142.5802  157.4692 C   0  0  0  0  0  0  0  0  0  0  0  0
  150.8300  141.3358  156.6323 C   0  0  0  0  0  0  0  0  0  0  0  0
  149.7438  141.0208  155.8326 N   0  0  0  0  0  0  0  0  0  0  0  0
  149.8348  139.8971  155.0306 C   0  0  0  0  0  0  0  0  0  0  0  0
  148.6020  139.6222  154.1869 C   0  0  0  0  0  0  0  0  0  0  0  0
  150.9536  139.1288  155.0219 C   0  0  0  0  0  0  0  0  0  0  0  0
  151.0926  137.8834  154.1474 C   0  0  0  0  0  0  0  0  0  0  0  0
  150.9805  136.5422  154.8765 C   0  0  0  0  0  0  0  0  0  0  0  0
  151.7635  136.2690  155.7859 O   0  0  0  0  0  0  0  0  0  0  0  0
  150.0019  135.7229  154.4505 N   0  0  0  0  0  0  0  0  0  0  0  0
  149.6484  134.3732  154.9127 C   0  0  1  0  0  0  0  0  0  0  0  0
  148.5527  134.5819  155.9803 C   0  0  0  0  0  0  0  0  0  0  0  0
  149.0935  133.5267  153.7336 C   0  0  0  0  0  0  0  0  0  0  0  0
  148.8549  132.0522  154.1057 C   0  0  0  0  0  0  0  0  0  0  0  0
  150.1225  131.3989  154.6846 C   0  0  2  0  0  0  0  0  0  0  0  0
  149.8812  129.9254  155.0422 C   0  0  0  0  0  0  0  0  0  0  0  0
  150.6297  132.1978  155.8986 C   0  0  0  0  0  0  0  0  0  0  0  0
  150.8847  133.6736  155.5428 C   0  0  0  0  0  0  0  0  0  0  0  0
  152.0868  139.5217  155.8925 C   0  0  0  0  0  0  0  0  0  0  0  0
  153.1337  138.8760  155.9184 O   0  0  0  0  0  0  0  0  0  0  0  0
  151.9405  140.6658  156.6937 N   0  0  0  0  0  0  0  0  0  0  0  0
  148.8949  141.5672  155.8050 H   0  0  0  0  0  0  0  0  0  0  0  0
  151.4244  142.6869  158.2072 H   0  0  0  0  0  0  0  0  0  0  0  0
  149.6771  142.5349  158.0005 H   0  0  0  0  0  0  0  0  0  0  0  0
  150.6300  143.4662  156.8337 H   0  0  0  0  0  0  0  0  0  0  0  0
  148.1713  138.6547  154.4452 H   0  0  0  0  0  0  0  0  0  0  0  0
  148.8588  139.6146  153.1273 H   0  0  0  0  0  0  0  0  0  0  0  0
  147.8336  140.3812  154.3387 H   0  0  0  0  0  0  0  0  0  0  0  0
  152.0603  137.9281  153.6463 H   0  0  0  0  0  0  0  0  0  0  0  0
  150.3614  137.8936  153.3388 H   0  0  0  0  0  0  0  0  0  0  0  0
  149.4299  136.0763  153.6972 H   0  0  0  0  0  0  0  0  0  0  0  0
  148.2004  133.6445  156.4085 H   0  0  0  0  0  0  0  0  0  0  0  0
  147.6830  135.0881  155.5592 H   0  0  0  0  0  0  0  0  0  0  0  0
  148.9172  135.1939  156.8063 H   0  0  0  0  0  0  0  0  0  0  0  0
  148.1684  133.9651  153.3579 H   0  0  0  0  0  0  0  0  0  0  0  0
  149.7882  133.5388  152.8943 H   0  0  0  0  0  0  0  0  0  0  0  0
  148.0356  131.9734  154.8205 H   0  0  0  0  0  0  0  0  0  0  0  0
  148.5318  131.5066  153.2185 H   0  0  0  0  0  0  0  0  0  0  0  0
  150.8966  131.4276  153.9162 H   0  0  0  0  0  0  0  0  0  0  0  0
  149.1133  129.8246  155.8100 H   0  0  0  0  0  0  0  0  0  0  0  0
  150.7917  129.4580  155.4180 H   0  0  0  0  0  0  0  0  0  0  0  0
  149.5563  129.3583  154.1696 H   0  0  0  0  0  0  0  0  0  0  0  0
  149.9119  132.1283  156.7160 H   0  0  0  0  0  0  0  0  0  0  0  0
  151.5534  131.7544  156.2719 H   0  0  0  0  0  0  0  0  0  0  0  0
  151.7294  133.6979  154.8554 H   0  0  0  0  0  0  0  0  0  0  0  0
  151.2117  134.2149  156.4315 H   0  0  0  0  0  0  0  0  0  0  0  0
  1 23  1  0  0  0  0
  1 24  1  0  0  0  0
  1 25  1  0  0  0  0
  1  2  1  0  0  0  0
  2  3  1  0  0  0  0
  2 21  2  0  0  0  0
  3  4  1  0  0  0  0
  3 22  1  0  0  0  0
  4  6  2  0  0  0  0
  4  5  1  0  0  0  0
  5 26  1  0  0  0  0
  5 27  1  0  0  0  0
  5 28  1  0  0  0  0
  6 19  1  0  0  0  0
  6  7  1  0  0  0  0
  7  8  1  0  0  0  0
  7 29  1  0  0  0  0
  7 30  1  0  0  0  0
  8  9  2  0  0  0  0
  8 10  1  0  0  0  0
 10 11  1  0  0  0  0
 10 31  1  0  0  0  0
 11 18  1  0  0  0  0
 11 12  1  0  0  0  0
 11 13  1  0  0  0  0
 12 32  1  0  0  0  0
 12 33  1  0  0  0  0
 12 34  1  0  0  0  0
 13 14  1  0  0  0  0
 13 35  1  0  0  0  0
 13 36  1  0  0  0  0
 14 15  1  0  0  0  0
 14 37  1  0  0  0  0
 14 38  1  0  0  0  0
 15 16  1  0  0  0  0
 15 17  1  0  0  0  0
 15 39  1  0  0  0  0
 16 40  1  0  0  0  0
 16 41  1  0  0  0  0
 16 42  1  0  0  0  0
 17 18  1  0  0  0  0
 17 43  1  0  0  0  0
 17 44  1  0  0  0  0
 18 45  1  0  0  0  0
 18 46  1  0  0  0  0
 19 20  2  0  0  0  0
 19 21  1  0  0  0  0
M  END
> <s_m_source_file>
AV-unprocessed.smi

> <i_m_source_file_index>
1072

> <i_lp_mmshare_version>
43012

> <i_f3d_flags>
0

> <s_epik_input>
W0NIM11jMW5jKFtDSDNdKWMoYyg9TylbbkhdMSlbQ0gyXUMoPU8pW05IXVtDQEBdMihbQ0gzXSlbQ0gyXVtDSDJdW0NAQEhdKFtDSDNdKVtDSDJdW0NIMl0y

> <s_epik_cmdline>
J2VwaWtfcHl0aG9uJywgJy1waCcsICc3LjAnLCAnLXRuJywgJzgnLCAnLW1hJywgJzIwMCcsICctbWV0YWxfYmluZGluZycsICctaW1hZScsICc8aW5maWxlLm1hZT4nLCAnLW9tYWUnLCAnPG91dGZpbGUubWFlPic=

> <r_lp_tautomer_probability>
0.156392

> <r_epik_Ionization_Penalty>
0.0131066

> <r_epik_Ionization_Penalty_Charging>
0.0129643

> <r_epik_Ionization_Penalty_Neutral>
0.000142248

> <r_epik_State_Penalty>
1.15342

> <r_epik_Charging_Adjusted_Penalty>
1.16638

> <i_epik_Tot_Q>
0

> <i_epik_Tot_abs_Q>
0

> <r_epik_Metal_State_Penalty>
1.30766

> <b_epik_Metal_Only>
0

> <s_lp_Force_Field>
OPLS_2005

> <r_lp_Energy>
18.066

> <b_lp_Chiralities_Consistent>
1

> <s_lp_Variant>
AV-unprocessed.smi:1072-4

> <Gold.Version>
5.8.1

> <Gold.Id.Protein>
6NUR|6NUR_protein|mol2

> <Gold.PLP.Fitness>
44.5730

> <Gold.PLP.PLP>
-37.0325

> <Gold.PLP.part.hbond>
-3.7491

> <Gold.PLP.part.metal>
0.0000

> <Gold.PLP.part.buried>
0.1794

> <Gold.PLP.part.nonpolar>
-32.8249

> <Gold.PLP.part.repulsive>
0.2058

> <Gold.PLP.ligand.clash>
0.0000

> <Gold.PLP.ligand.torsion>
0.7327

> <Gold.PLP.Chemscore.Hbond>
3.0000

> <Gold.PLP.Chemscore.CHOScore>
0.0000

> <Gold.PLP.Chemscore.Metal>
0.0000

> <Gold.Chemscore.Hbonds>
donor molecule, donor type, donor heavy atom, donor atom, acceptor molecule, acceptor atom, score
      L1  H    10    31       P1  7948  1.00
      P1  H  7997  8008       L1    20  1.00
      P1  H 10752 10765       L1     9  1.00

> <Gold.PLP.Chemscore.Internal.Correction>
0.0059

> <Gold.Rescore>
     Score         DG    S(hbond)    S(metal)    S(lipo)     H(rot)  DE(clash)    DE(int)     intcor
     16.37     -18.84       2.63        0.00      71.37       1.47       0.17       2.30       ----

> <Gold.Chemscore.Fitness>
16.3673

> <Gold.Chemscore.DG>
-18.8398

> <Gold.Chemscore.ZeroCoef>
-5.4800

> <Gold.Chemscore.Hbond>
2.6260

> <Gold.Chemscore.Metal>
0.0000

> <Gold.Chemscore.Lipo>
71.3651

> <Gold.Chemscore.Internal_Hbond>
0.0000

> <Gold.Chemscore.DEClash>
0.1701

> <Gold.Chemscore.DEInternal>
2.3023

> <Gold.Chemscore.Rot>
1.4690

> <Gold.Chemscore.Internal.Correction>
   9.000000E+99

> <Gold.Chemscore.Hbonds>
donor molecule, donor type, donor heavy atom, donor atom, acceptor molecule, acceptor atom, score
      L1  H    10    31       P1  7948  0.62
      P1  H  7997  8008       L1    20  0.39
      P1  H 10752 10765       L1     9  0.50

> <Gold.Chemscore.Hbond.Weighted>
-8.7707

> <Gold.Chemscore.Metal.Weighted>
-0.0000

> <Gold.Chemscore.Lipo.Weighted>
-8.3497

> <Gold.Chemscore.Internal_Hbond.Weighted>
0.0000

> <Gold.Chemscore.DEClash.Weighted>
0.1701

> <Gold.Chemscore.DEInternal.Weighted>
2.3023

> <Gold.Chemscore.Rot.Weighted>
3.7607

> <Gold.Chemscore.Internal.Correction.Weighted>
   9.000000E+99

> <Gold.Protein.RotatedTorsions>
[ 6907 6896 6895 6894 ] final  165.19 input  -60.11 | X-H torsion
[ 7974 7965 7964 7962 ] final  152.58 input  175.53 | X-H torsion
[ 8008 7997 7996 7995 ] final  -38.89 input   59.86 | X-H torsion
[ 10167 10162 10161 10158 ] final -163.86 input  -65.29 | X-H torsion
[ 10718 10713 10712 10709 ] final  -63.63 input   66.30 | X-H torsion
[ 10763 10752 10751 10750 ] final -152.81 input  -60.55 | X-H torsion
[ 11005 11000 10999 10996 ] final  -97.13 input  -57.11 | X-H torsion

> <Gold.Protein.ActiveResidues>
 VAL166  LYS551  ARG553  GLY616  TRP617  ASP618  TYR619  PRO620  LYS621  CYS622 
 ASP623  PHE694  ASN695  SER759  ASP760  ASP761  ALA762  ILE779  LEU786  VAL792 
 PHE793  MET794  SER795  GLU796  ALA797  LYS798  CYS799  TRP800  GLU811  SER814 

> <Gold.Protein.RotatedAtoms>
  151.8983  133.3532  159.3821 H   0  0  0  0  0  0  0  0  0  0  0  0  # atno 6907 bound_to 6896
  150.7086  134.4854  159.5500 H   0  0  0  0  0  0  0  0  0  0  0  0  # atno 6908 bound_to 6896
  152.2438  134.8202  160.0507 H   0  0  0  0  0  0  0  0  0  0  0  0  # atno 6909 bound_to 6896
  144.8212  139.6688  143.6099 H   0  0  0  0  0  0  0  0  0  0  0  0  # atno 7974 bound_to 7965
  154.4030  140.1566  156.2773 H   0  0  0  0  0  0  0  0  0  0  0  0  # atno 8008 bound_to 7997
  155.8900  140.3439  155.5927 H   0  0  0  0  0  0  0  0  0  0  0  0  # atno 8009 bound_to 7997
  155.7569  140.0812  157.2165 H   0  0  0  0  0  0  0  0  0  0  0  0  # atno 8010 bound_to 7997
  139.6291  144.0474  152.2000 H   0  0  0  0  0  0  0  0  0  0  0  0  # atno 10167 bound_to 10162
  156.0779  130.4223  150.1305 H   0  0  0  0  0  0  0  0  0  0  0  0  # atno 10718 bound_to 10713
  154.7969  135.3227  154.7644 H   0  0  0  0  0  0  0  0  0  0  0  0  # atno 10763 bound_to 10752
  153.8321  135.6878  153.4817 H   0  0  0  0  0  0  0  0  0  0  0  0  # atno 10764 bound_to 10752
  153.1665  135.4640  154.9787 H   0  0  0  0  0  0  0  0  0  0  0  0  # atno 10765 bound_to 10752
  141.1389  133.8148  157.0665 H   0  0  0  0  0  0  0  0  0  0  0  0  # atno 11005 bound_to 11000
  146.2518  139.6215  142.9422 LP  0  0  0  0  0  0  0  0  0  0  0  0  # atno 17320 bound_to 7965
  145.5100  141.0435  143.2493 LP  0  0  0  0  0  0  0  0  0  0  0  0  # atno 17321 bound_to 7965
  140.0135  144.6206  150.7627 LP  0  0  0  0  0  0  0  0  0  0  0  0  # atno 17342 bound_to 10162
  140.7428  143.2838  151.3522 LP  0  0  0  0  0  0  0  0  0  0  0  0  # atno 17343 bound_to 10162
  156.9343  130.9724  151.3527 LP  0  0  0  0  0  0  0  0  0  0  0  0  # atno 17370 bound_to 10713
  157.5882  130.8425  149.8621 LP  0  0  0  0  0  0  0  0  0  0  0  0  # atno 17371 bound_to 10713
  140.0538  134.9791  157.1184 LP  0  0  0  0  0  0  0  0  0  0  0  0  # atno 17394 bound_to 11000
  140.3950  134.2144  155.7165 LP  0  0  0  0  0  0  0  0  0  0  0  0  # atno 17395 bound_to 11000

$$$$
