AV-unprocessed.smi:2421|AV-procd|sdf|9556|dock3
  -GOLD-   2272013183D 1   1.00000     0.00000
 Structure written by MMmdl.
 44 46  0  0  0  0  0  0  0  0  1 V2000
  159.4750  137.3881  160.6011 C   0  0  0  0  0  0  0  0  0  0  0  0
  158.3201  136.5718  160.0972 C   0  0  0  0  0  0  0  0  0  0  0  0
  158.5210  135.3491  159.6288 N   0  0  0  0  0  0  0  0  0  0  0  0
  157.2634  134.8625  159.2319 O   0  0  0  0  0  0  0  0  0  0  0  0
  156.3232  135.8158  159.4727 C   0  0  0  0  0  0  0  0  0  0  0  0
  154.9130  135.4946  159.1109 C   0  0  0  0  0  0  0  0  0  0  0  0
  156.9415  136.8977  160.0237 C   0  0  0  0  0  0  0  0  0  0  0  0
  156.3385  138.1151  160.4005 N   0  0  0  0  0  0  0  0  0  0  0  0
  155.4766  138.7963  159.6276 C   0  0  0  0  0  0  0  0  0  0  0  0
  155.1893  138.4663  158.4782 O   0  0  0  0  0  0  0  0  0  0  0  0
  154.9485  139.8909  160.2045 N   0  0  0  0  0  0  0  0  0  0  0  0
  153.9879  140.8390  159.6361 C   0  0  1  0  0  0  0  0  0  0  0  0
  152.6611  140.1250  159.3506 C   0  0  0  0  0  0  0  0  0  0  0  0
  151.6136  141.1225  158.8363 C   0  0  0  0  0  0  0  0  0  0  0  0
  151.4444  142.1964  159.7599 O   0  0  0  0  0  0  0  0  0  0  0  0
  152.6222  142.9489  160.0743 C   0  0  0  0  0  0  0  0  0  0  0  0
  153.0605  143.8408  158.8987 C   0  0  0  0  0  0  0  0  0  0  0  0
  152.0666  145.0059  158.8874 C   0  0  0  0  0  0  0  0  0  0  0  0
  151.5393  145.1250  160.3243 C   0  0  0  0  0  0  0  0  0  0  0  0
  152.1999  143.9907  161.1173 C   0  0  0  0  0  0  0  0  0  0  0  0
  153.7240  142.0058  160.6040 C   0  0  0  0  0  0  0  0  0  0  0  0
  159.1427  138.3534  160.9833 H   0  0  0  0  0  0  0  0  0  0  0  0
  160.1971  137.5776  159.8066 H   0  0  0  0  0  0  0  0  0  0  0  0
  159.9943  136.8739  161.4099 H   0  0  0  0  0  0  0  0  0  0  0  0
  154.2412  136.3032  159.4001 H   0  0  0  0  0  0  0  0  0  0  0  0
  154.5831  134.5862  159.6148 H   0  0  0  0  0  0  0  0  0  0  0  0
  154.8157  135.3413  158.0363 H   0  0  0  0  0  0  0  0  0  0  0  0
  156.5347  138.4627  161.3278 H   0  0  0  0  0  0  0  0  0  0  0  0
  155.2722  140.1041  161.1371 H   0  0  0  0  0  0  0  0  0  0  0  0
  154.3728  141.2255  158.6908 H   0  0  0  0  0  0  0  0  0  0  0  0
  152.8068  139.3293  158.6192 H   0  0  0  0  0  0  0  0  0  0  0  0
  152.2892  139.6502  160.2599 H   0  0  0  0  0  0  0  0  0  0  0  0
  151.8870  141.4971  157.8505 H   0  0  0  0  0  0  0  0  0  0  0  0
  150.6536  140.6203  158.7155 H   0  0  0  0  0  0  0  0  0  0  0  0
  154.0583  144.2346  159.0977 H   0  0  0  0  0  0  0  0  0  0  0  0
  153.1140  143.3294  157.9388 H   0  0  0  0  0  0  0  0  0  0  0  0
  152.5335  145.9288  158.5420 H   0  0  0  0  0  0  0  0  0  0  0  0
  151.2407  144.7836  158.2105 H   0  0  0  0  0  0  0  0  0  0  0  0
  151.7655  146.0978  160.7622 H   0  0  0  0  0  0  0  0  0  0  0  0
  150.4547  145.0082  160.3307 H   0  0  0  0  0  0  0  0  0  0  0  0
  151.5425  143.5787  161.8839 H   0  0  0  0  0  0  0  0  0  0  0  0
  153.0832  144.3817  161.6248 H   0  0  0  0  0  0  0  0  0  0  0  0
  153.4127  141.6040  161.5697 H   0  0  0  0  0  0  0  0  0  0  0  0
  154.6407  142.5665  160.7909 H   0  0  0  0  0  0  0  0  0  0  0  0
  1  2  1  0  0  0  0
  1 22  1  0  0  0  0
  1 23  1  0  0  0  0
  1 24  1  0  0  0  0
  2  7  1  0  0  0  0
  2  3  2  0  0  0  0
  3  4  1  0  0  0  0
  4  5  1  0  0  0  0
  5  6  1  0  0  0  0
  5  7  2  0  0  0  0
  6 25  1  0  0  0  0
  6 26  1  0  0  0  0
  6 27  1  0  0  0  0
  7  8  1  0  0  0  0
  8  9  1  0  0  0  0
  8 28  1  0  0  0  0
  9 10  2  0  0  0  0
  9 11  1  0  0  0  0
 11 12  1  0  0  0  0
 11 29  1  0  0  0  0
 12 21  1  0  0  0  0
 12 13  1  0  0  0  0
 12 30  1  0  0  0  0
 13 14  1  0  0  0  0
 13 31  1  0  0  0  0
 13 32  1  0  0  0  0
 14 15  1  0  0  0  0
 14 33  1  0  0  0  0
 14 34  1  0  0  0  0
 15 16  1  0  0  0  0
 16 20  1  0  0  0  0
 16 17  1  0  0  0  0
 16 21  1  0  0  0  0
 17 18  1  0  0  0  0
 17 35  1  0  0  0  0
 17 36  1  0  0  0  0
 18 19  1  0  0  0  0
 18 37  1  0  0  0  0
 18 38  1  0  0  0  0
 19 20  1  0  0  0  0
 19 39  1  0  0  0  0
 19 40  1  0  0  0  0
 20 41  1  0  0  0  0
 20 42  1  0  0  0  0
 21 43  1  0  0  0  0
 21 44  1  0  0  0  0
M  END
> <s_m_source_file>
AV-unprocessed.smi

> <i_m_source_file_index>
2421

> <i_lp_mmshare_version>
43012

> <i_f3d_flags>
0

> <s_epik_input>
W0NIM11jMW5vYyhbQ0gzXSljMVtOSF1DKD1PKVtOSF1bQ0BASF0oW0NIMl0yKVtDSDJdW0NIMl1PQzIzW0NIMl1bQ0gyXVtDSDJdW0NIMl0z

> <s_epik_cmdline>
J2VwaWtfcHl0aG9uJywgJy1waCcsICc3LjAnLCAnLXRuJywgJzgnLCAnLW1hJywgJzIwMCcsICctbWV0YWxfYmluZGluZycsICctaW1hZScsICc8aW5maWxlLm1hZT4nLCAnLW9tYWUnLCAnPG91dGZpbGUubWFlPic=

> <r_lp_tautomer_probability>
1

> <r_epik_Ionization_Penalty>
3.59808e-05

> <r_epik_Ionization_Penalty_Charging>
0

> <r_epik_Ionization_Penalty_Neutral>
3.59808e-05

> <r_epik_State_Penalty>
-0

> <r_epik_Charging_Adjusted_Penalty>
0

> <i_epik_Tot_Q>
0

> <i_epik_Tot_abs_Q>
0

> <r_epik_Metal_State_Penalty>
-0

> <b_epik_Metal_Only>
0

> <s_lp_Force_Field>
OPLS_2005

> <r_lp_Energy>
43.4187

> <b_lp_Chiralities_Consistent>
1

> <s_lp_Variant>
AV-unprocessed.smi:2421-2

> <Gold.Version>
5.8.1

> <Gold.Id.Protein>
6NUR|6NUR_protein|mol2

> <Gold.PLP.Fitness>
39.4015

> <Gold.PLP.PLP>
-36.7582

> <Gold.PLP.part.hbond>
-1.7783

> <Gold.PLP.part.metal>
0.0000

> <Gold.PLP.part.buried>
-5.0672

> <Gold.PLP.part.nonpolar>
-29.7471

> <Gold.PLP.part.repulsive>
0.1082

> <Gold.PLP.ligand.clash>
0.0000

> <Gold.PLP.ligand.torsion>
0.4259

> <Gold.PLP.Chemscore.Hbond>
1.0000

> <Gold.PLP.Chemscore.CHOScore>
0.0000

> <Gold.PLP.Chemscore.Metal>
0.0000

> <Gold.Chemscore.Hbonds>
donor molecule, donor type, donor heavy atom, donor atom, acceptor molecule, acceptor atom, score
      P1  H  7997  8009       L1    10  1.00

> <Gold.PLP.Chemscore.Internal.Correction>
0.4952

> <Gold.Rescore>
     Score         DG    S(hbond)    S(metal)    S(lipo)     H(rot)  DE(clash)    DE(int)     intcor
     18.24     -18.77       1.00        0.00     106.99       1.00       0.02       0.51       ----

> <Gold.Chemscore.Fitness>
18.2413

> <Gold.Chemscore.DG>
-18.7717

> <Gold.Chemscore.ZeroCoef>
-5.4800

> <Gold.Chemscore.Hbond>
0.9981

> <Gold.Chemscore.Metal>
0.0000

> <Gold.Chemscore.Lipo>
106.9908

> <Gold.Chemscore.Internal_Hbond>
0.0000

> <Gold.Chemscore.DEClash>
0.0237

> <Gold.Chemscore.DEInternal>
0.5067

> <Gold.Chemscore.Rot>
1.0000

> <Gold.Chemscore.Internal.Correction>
   9.000000E+99

> <Gold.Chemscore.Hbonds>
donor molecule, donor type, donor heavy atom, donor atom, acceptor molecule, acceptor atom, score
      P1  H  7997  8009       L1    10  0.79

> <Gold.Chemscore.Hbond.Weighted>
-3.3338

> <Gold.Chemscore.Metal.Weighted>
-0.0000

> <Gold.Chemscore.Lipo.Weighted>
-12.5179

> <Gold.Chemscore.Internal_Hbond.Weighted>
0.0000

> <Gold.Chemscore.DEClash.Weighted>
0.0237

> <Gold.Chemscore.DEInternal.Weighted>
0.5067

> <Gold.Chemscore.Rot.Weighted>
2.5600

> <Gold.Chemscore.Internal.Correction.Weighted>
   9.000000E+99

> <Gold.Protein.RotatedTorsions>
[ 6907 6896 6895 6894 ] final -178.14 input  -60.11 | X-H torsion
[ 7974 7965 7964 7962 ] final   87.26 input  175.53 | X-H torsion
[ 8008 7997 7996 7995 ] final  122.20 input   59.86 | X-H torsion
[ 10167 10162 10161 10158 ] final  145.00 input  -65.29 | X-H torsion
[ 10718 10713 10712 10709 ] final  100.11 input   66.30 | X-H torsion
[ 10763 10752 10751 10750 ] final   63.38 input  -60.55 | X-H torsion
[ 11005 11000 10999 10996 ] final  128.83 input  -57.11 | X-H torsion

> <Gold.Protein.ActiveResidues>
 VAL166  LYS551  ARG553  GLY616  TRP617  ASP618  TYR619  PRO620  LYS621  CYS622 
 ASP623  PHE694  ASN695  SER759  ASP760  ASP761  ALA762  ILE779  LEU786  VAL792 
 PHE793  MET794  SER795  GLU796  ALA797  LYS798  CYS799  TRP800  GLU811  SER814 

> <Gold.Protein.RotatedAtoms>
  151.6323  133.3331  159.3111 H   0  0  0  0  0  0  0  0  0  0  0  0  # atno 6907 bound_to 6896
  150.8050  134.7173  159.6647 H   0  0  0  0  0  0  0  0  0  0  0  0  # atno 6908 bound_to 6896
  152.4145  134.6071  160.0067 H   0  0  0  0  0  0  0  0  0  0  0  0  # atno 6909 bound_to 6896
  145.5614  139.2304  143.2457 H   0  0  0  0  0  0  0  0  0  0  0  0  # atno 7974 bound_to 7965
  156.2718  140.2791  156.1430 H   0  0  0  0  0  0  0  0  0  0  0  0  # atno 8008 bound_to 7997
  155.0933  140.0389  157.2693 H   0  0  0  0  0  0  0  0  0  0  0  0  # atno 8009 bound_to 7997
  154.6872  140.2621  155.6854 H   0  0  0  0  0  0  0  0  0  0  0  0  # atno 8010 bound_to 7997
  139.4935  144.5932  151.6637 H   0  0  0  0  0  0  0  0  0  0  0  0  # atno 10167 bound_to 10162
  157.6861  131.0689  150.5051 H   0  0  0  0  0  0  0  0  0  0  0  0  # atno 10718 bound_to 10713
  153.0016  135.5431  154.6342 H   0  0  0  0  0  0  0  0  0  0  0  0  # atno 10763 bound_to 10752
  154.5613  135.2834  155.0919 H   0  0  0  0  0  0  0  0  0  0  0  0  # atno 10764 bound_to 10752
  154.2120  135.6465  153.5171 H   0  0  0  0  0  0  0  0  0  0  0  0  # atno 10765 bound_to 10752
  139.9582  134.9608  156.9059 H   0  0  0  0  0  0  0  0  0  0  0  0  # atno 11005 bound_to 11000
  146.1848  140.6439  142.9172 LP  0  0  0  0  0  0  0  0  0  0  0  0  # atno 17320 bound_to 7965
  144.7481  140.5120  143.6821 LP  0  0  0  0  0  0  0  0  0  0  0  0  # atno 17321 bound_to 7965
  140.5564  144.0341  150.6150 LP  0  0  0  0  0  0  0  0  0  0  0  0  # atno 17342 bound_to 10162
  140.3412  143.3018  152.0586 LP  0  0  0  0  0  0  0  0  0  0  0  0  # atno 17343 bound_to 10162
  156.5370  130.4199  149.6173 LP  0  0  0  0  0  0  0  0  0  0  0  0  # atno 17370 bound_to 10713
  156.3018  130.7181  151.2054 LP  0  0  0  0  0  0  0  0  0  0  0  0  # atno 17371 bound_to 10713
  140.5561  134.0580  155.7384 LP  0  0  0  0  0  0  0  0  0  0  0  0  # atno 17394 bound_to 11000
  141.1256  133.9389  157.2642 LP  0  0  0  0  0  0  0  0  0  0  0  0  # atno 17395 bound_to 11000

$$$$
