AV-unprocessed.smi:311|AV-procd|sdf|2303|dock3
  -GOLD-   2262022203D 1   1.00000     0.00000
 Structure written by MMmdl.
 44 46  0  0  0  0  0  0  0  0  2 V2000
  149.5500  133.9611  156.9024 C   0  0  0  0  0  0  0  0  0  0  0  0
  150.3934  132.7500  156.6243 C   0  0  0  0  0  0  0  0  0  0  0  0
  151.1186  132.2240  157.5968 N   0  0  0  0  0  0  0  0  0  0  0  0
  151.7758  131.1257  157.0344 O   0  0  0  0  0  0  0  0  0  0  0  0
  151.4149  131.0320  155.7295 C   0  0  0  0  0  0  0  0  0  0  0  0
  152.0025  129.9057  154.9487 C   0  0  0  0  0  0  0  0  0  0  0  0
  150.5379  132.0299  155.4036 C   0  0  0  0  0  0  0  0  0  0  0  0
  149.8661  132.2943  154.0797 C   0  0  0  0  0  0  0  0  0  0  0  0
  148.3699  132.0164  154.2158 C   0  0  0  0  0  0  0  0  0  0  0  0
  147.8900  131.7285  155.3116 O   0  0  0  0  0  0  0  0  0  0  0  0
  147.6368  132.1457  153.0994 N   0  0  0  0  0  0  0  0  0  0  0  0
  146.1803  132.0792  153.0457 C   0  0  2  0  0  0  0  0  0  0  0  0
  145.6510  131.4173  151.7661 C   0  0  0  0  0  0  0  0  0  0  0  0
  144.3196  132.1293  151.4655 C   0  0  0  0  0  0  0  0  0  0  0  0
  144.1485  133.1482  152.5251 N   0  3  2  0  0  0  0  0  0  0  0  0
  143.2975  134.3181  152.1876 C   0  0  0  0  0  0  0  0  0  0  0  0
  144.0322  135.3602  151.3276 C   0  0  0  0  0  0  0  0  0  0  0  0
  145.3505  135.7743  151.9889 C   0  0  0  0  0  0  0  0  0  0  0  0
  146.2249  134.5361  152.2095 C   0  0  0  0  0  0  0  0  0  0  0  0
  145.4956  133.4578  153.0537 C   0  0  2  0  0  0  0  0  0  0  0  0
  149.3388  134.0685  157.9670 H   0  0  0  0  0  0  0  0  0  0  0  0
  148.5934  133.9021  156.3836 H   0  0  0  0  0  0  0  0  0  0  0  0
  150.0531  134.8690  156.5699 H   0  0  0  0  0  0  0  0  0  0  0  0
  151.2389  129.1655  154.7098 H   0  0  0  0  0  0  0  0  0  0  0  0
  152.7936  129.4074  155.5096 H   0  0  0  0  0  0  0  0  0  0  0  0
  152.4285  130.2660  154.0123 H   0  0  0  0  0  0  0  0  0  0  0  0
  150.0105  133.3239  153.7508 H   0  0  0  0  0  0  0  0  0  0  0  0
  150.2792  131.6622  153.2926 H   0  0  0  0  0  0  0  0  0  0  0  0
  148.1178  132.3796  152.2430 H   0  0  0  0  0  0  0  0  0  0  0  0
  145.8162  131.5023  153.8988 H   0  0  0  0  0  0  0  0  0  0  0  0
  146.3413  131.5668  150.9341 H   0  0  0  0  0  0  0  0  0  0  0  0
  145.5219  130.3421  151.8951 H   0  0  0  0  0  0  0  0  0  0  0  0
  144.3616  132.5937  150.4795 H   0  0  0  0  0  0  0  0  0  0  0  0
  143.4759  131.4386  151.4720 H   0  0  0  0  0  0  0  0  0  0  0  0
  142.3863  133.9807  151.6922 H   0  0  0  0  0  0  0  0  0  0  0  0
  142.9860  134.7840  153.1233 H   0  0  0  0  0  0  0  0  0  0  0  0
  144.2276  134.9585  150.3329 H   0  0  0  0  0  0  0  0  0  0  0  0
  143.3977  136.2355  151.1847 H   0  0  0  0  0  0  0  0  0  0  0  0
  145.8751  136.4976  151.3639 H   0  0  0  0  0  0  0  0  0  0  0  0
  145.1538  136.2666  152.9422 H   0  0  0  0  0  0  0  0  0  0  0  0
  146.5113  134.1281  151.2394 H   0  0  0  0  0  0  0  0  0  0  0  0
  147.1519  134.8353  152.6993 H   0  0  0  0  0  0  0  0  0  0  0  0
  145.3948  133.8246  154.0761 H   0  0  0  0  0  0  0  0  0  0  0  0
  143.6738  132.6626  153.2728 H   0  0  0  0  0  0  0  0  0  0  0  0
  1  2  1  0  0  0  0
  1 21  1  0  0  0  0
  1 22  1  0  0  0  0
  1 23  1  0  0  0  0
  2  7  1  0  0  0  0
  2  3  2  0  0  0  0
  3  4  1  0  0  0  0
  4  5  1  0  0  0  0
  5  6  1  0  0  0  0
  5  7  2  0  0  0  0
  6 24  1  0  0  0  0
  6 25  1  0  0  0  0
  6 26  1  0  0  0  0
  7  8  1  0  0  0  0
  8  9  1  0  0  0  0
  8 27  1  0  0  0  0
  8 28  1  0  0  0  0
  9 10  2  0  0  0  0
  9 11  1  0  0  0  0
 11 12  1  0  0  0  0
 11 29  1  0  0  0  0
 12 20  1  0  0  0  0
 12 13  1  0  0  0  0
 12 30  1  0  0  0  0
 13 14  1  0  0  0  0
 13 31  1  0  0  0  0
 13 32  1  0  0  0  0
 14 15  1  0  0  0  0
 14 33  1  0  0  0  0
 14 34  1  0  0  0  0
 15 20  1  0  0  0  0
 15 16  1  0  0  0  0
 15 44  1  0  0  0  0
 16 17  1  0  0  0  0
 16 35  1  0  0  0  0
 16 36  1  0  0  0  0
 17 18  1  0  0  0  0
 17 37  1  0  0  0  0
 17 38  1  0  0  0  0
 18 19  1  0  0  0  0
 18 39  1  0  0  0  0
 18 40  1  0  0  0  0
 19 20  1  0  0  0  0
 19 41  1  0  0  0  0
 19 42  1  0  0  0  0
 20 43  1  0  0  0  0
M  CHG  1  15   1
M  END
> <s_m_source_file>
AV-unprocessed.smi

> <i_m_source_file_index>
311

> <i_lp_mmshare_version>
43012

> <i_f3d_flags>
0

> <s_epik_input>
W0NIM11jMW5vYyhbQ0gzXSljMVtDSDJdQyg9TylbTkhdW0NASF0oW0NIMl1bQ0gyXTIpW0NAQEhdKE4yMylbQ0gyXVtDSDJdW0NIMl1bQ0gyXTM=

> <s_epik_cmdline>
J2VwaWtfcHl0aG9uJywgJy1waCcsICc3LjAnLCAnLXRuJywgJzgnLCAnLW1hJywgJzIwMCcsICctbWV0YWxfYmluZGluZycsICctaW1hZScsICc8aW5maWxlLm1hZT4nLCAnLW9tYWUnLCAnPG91dGZpbGUubWFlPic=

> <r_epik_Ionization_Penalty>
0.00173669

> <r_epik_Ionization_Penalty_Charging>
0.0017366

> <r_epik_Ionization_Penalty_Neutral>
9.2145e-08

> <r_epik_State_Penalty>
0.00117499

> <r_epik_Charging_Adjusted_Penalty>
0.00291159

> <i_epik_Tot_Q>
1

> <i_epik_Tot_abs_Q>
1

> <r_epik_Metal_State_Penalty>
-0

> <b_epik_Metal_Only>
0

> <s_lp_Force_Field>
OPLS_2005

> <r_lp_Energy>
29.2013

> <b_lp_Chiralities_Consistent>
1

> <s_lp_Variant>
AV-unprocessed.smi:311-7

> <Gold.Version>
5.8.1

> <Gold.Id.Protein>
6NUR|6NUR_protein|mol2

> <Gold.PLP.Fitness>
37.6241

> <Gold.PLP.PLP>
-29.4992

> <Gold.PLP.part.hbond>
-1.9486

> <Gold.PLP.part.metal>
0.0000

> <Gold.PLP.part.buried>
-5.2621

> <Gold.PLP.part.nonpolar>
-23.1955

> <Gold.PLP.part.repulsive>
0.0000

> <Gold.PLP.ligand.clash>
0.0000

> <Gold.PLP.ligand.torsion>
0.4141

> <Gold.PLP.Chemscore.Hbond>
2.9825

> <Gold.PLP.Chemscore.CHOScore>
0.0000

> <Gold.PLP.Chemscore.Metal>
0.0000

> <Gold.Chemscore.Hbonds>
donor molecule, donor type, donor heavy atom, donor atom, acceptor molecule, acceptor atom, score
      L1  H    15    44       P1 10957  2.00
      P1  H  6896  6908       L1     3  1.00

> <Gold.PLP.Chemscore.Internal.Correction>
0.0056

> <Gold.Rescore>
     Score         DG    S(hbond)    S(metal)    S(lipo)     H(rot)  DE(clash)    DE(int)     intcor
     16.01     -16.49       1.91        0.00      69.36       1.36       0.00       0.47       ----

> <Gold.Chemscore.Fitness>
16.0128

> <Gold.Chemscore.DG>
-16.4854

> <Gold.Chemscore.ZeroCoef>
-5.4800

> <Gold.Chemscore.Hbond>
1.9051

> <Gold.Chemscore.Metal>
0.0000

> <Gold.Chemscore.Lipo>
69.3642

> <Gold.Chemscore.Internal_Hbond>
0.0000

> <Gold.Chemscore.DEClash>
0.0004

> <Gold.Chemscore.DEInternal>
0.4723

> <Gold.Chemscore.Rot>
1.3567

> <Gold.Chemscore.Internal.Correction>
   9.000000E+99

> <Gold.Chemscore.Hbonds>
donor molecule, donor type, donor heavy atom, donor atom, acceptor molecule, acceptor atom, score
      L1  H    15    44       P1 10957  0.33
      P1  H  6896  6908       L1     3  0.93

> <Gold.Chemscore.Hbond.Weighted>
-6.3629

> <Gold.Chemscore.Metal.Weighted>
-0.0000

> <Gold.Chemscore.Lipo.Weighted>
-8.1156

> <Gold.Chemscore.Internal_Hbond.Weighted>
0.0000

> <Gold.Chemscore.DEClash.Weighted>
0.0004

> <Gold.Chemscore.DEInternal.Weighted>
0.4723

> <Gold.Chemscore.Rot.Weighted>
3.4731

> <Gold.Chemscore.Internal.Correction.Weighted>
   9.000000E+99

> <Gold.Protein.RotatedTorsions>
[ 6907 6896 6895 6894 ] final   66.29 input  -60.11 | X-H torsion
[ 7974 7965 7964 7962 ] final  -52.76 input  175.53 | X-H torsion
[ 8008 7997 7996 7995 ] final   -4.48 input   59.86 | X-H torsion
[ 10167 10162 10161 10158 ] final -165.18 input  -65.29 | X-H torsion
[ 10718 10713 10712 10709 ] final  -13.43 input   66.30 | X-H torsion
[ 10763 10752 10751 10750 ] final   62.24 input  -60.55 | X-H torsion
[ 11005 11000 10999 10996 ] final  -16.76 input  -57.11 | X-H torsion

> <Gold.Protein.ActiveResidues>
 VAL166  LYS551  ARG553  GLY616  TRP617  ASP618  TYR619  PRO620  LYS621  CYS622 
 ASP623  PHE694  ASN695  SER759  ASP760  ASP761  ALA762  ILE779  LEU786  VAL792 
 PHE793  MET794  SER795  GLU796  ALA797  LYS798  CYS799  TRP800  GLU811  SER814 

> <Gold.Protein.RotatedAtoms>
  152.4470  134.5474  159.9856 H   0  0  0  0  0  0  0  0  0  0  0  0  # atno 6907 bound_to 6896
  151.5556  133.3405  159.2969 H   0  0  0  0  0  0  0  0  0  0  0  0  # atno 6908 bound_to 6896
  150.8389  134.7705  159.6979 H   0  0  0  0  0  0  0  0  0  0  0  0  # atno 6909 bound_to 6896
  145.9044  140.7967  142.9727 H   0  0  0  0  0  0  0  0  0  0  0  0  # atno 7974 bound_to 7965
  154.6139  140.2483  155.7634 H   0  0  0  0  0  0  0  0  0  0  0  0  # atno 8008 bound_to 7997
  156.2387  140.2940  156.0333 H   0  0  0  0  0  0  0  0  0  0  0  0  # atno 8009 bound_to 7997
  155.2007  140.0394  157.2907 H   0  0  0  0  0  0  0  0  0  0  0  0  # atno 8010 bound_to 7997
  139.6199  144.0645  152.1923 H   0  0  0  0  0  0  0  0  0  0  0  0  # atno 10167 bound_to 10162
  156.6303  130.4899  149.6131 H   0  0  0  0  0  0  0  0  0  0  0  0  # atno 10718 bound_to 10713
  152.9976  135.5472  154.6162 H   0  0  0  0  0  0  0  0  0  0  0  0  # atno 10763 bound_to 10752
  154.5472  135.2824  155.1044 H   0  0  0  0  0  0  0  0  0  0  0  0  # atno 10764 bound_to 10752
  154.2298  135.6435  153.5224 H   0  0  0  0  0  0  0  0  0  0  0  0  # atno 10765 bound_to 10752
  140.8100  133.8148  155.9553 H   0  0  0  0  0  0  0  0  0  0  0  0  # atno 11005 bound_to 11000
  144.6738  140.1727  143.7413 LP  0  0  0  0  0  0  0  0  0  0  0  0  # atno 17320 bound_to 7965
  145.8750  139.2292  143.1638 LP  0  0  0  0  0  0  0  0  0  0  0  0  # atno 17321 bound_to 7965
  140.0284  144.6100  150.7508 LP  0  0  0  0  0  0  0  0  0  0  0  0  # atno 17342 bound_to 10162
  140.7375  143.2767  151.3722 LP  0  0  0  0  0  0  0  0  0  0  0  0  # atno 17343 bound_to 10162
  156.2240  130.6754  151.1397 LP  0  0  0  0  0  0  0  0  0  0  0  0  # atno 17370 bound_to 10713
  157.7202  131.0686  150.6167 LP  0  0  0  0  0  0  0  0  0  0  0  0  # atno 17371 bound_to 10713
  140.9208  134.2144  157.4928 LP  0  0  0  0  0  0  0  0  0  0  0  0  # atno 17394 bound_to 11000
  139.8715  134.9791  156.5024 LP  0  0  0  0  0  0  0  0  0  0  0  0  # atno 17395 bound_to 11000

$$$$
