AV-unprocessed.smi:2999|AV-procd|sdf|11427|dock4
  -GOLD-   2272016353D 1   1.00000     0.00000
 Structure written by MMmdl.
 37 39  0  0  0  0  0  0  0  0  3 V2000
  144.8094  137.6576  153.3409 O   0  0  0  0  0  0  0  0  0  0  0  0
  145.9618  137.2528  153.1708 C   0  0  0  0  0  0  0  0  0  0  0  0
  146.2413  136.4382  152.1432 N   0  0  0  0  0  0  0  0  0  0  0  0
  145.2871  135.9259  151.1629 C   0  0  0  0  0  0  0  0  0  0  0  0
  145.2283  134.3860  151.1405 C   0  0  2  0  0  0  0  0  0  0  0  0
  146.6134  133.6973  151.1293 C   0  0  0  0  0  0  0  0  0  0  0  0
  146.4875  132.2237  151.0519 N   0  3  1  0  0  0  0  0  0  0  0  0
  146.1091  131.5947  152.3385 C   0  0  0  0  0  0  0  0  0  0  0  0
  147.2910  131.1182  153.1501 C   0  0  0  0  0  0  0  0  0  0  0  0
  146.4311  130.1204  152.4067 C   0  0  0  0  0  0  0  0  0  0  0  0
  145.6154  131.8264  149.9214 C   0  0  0  0  0  0  0  0  0  0  0  0
  144.2663  132.5679  149.9665 C   0  0  0  0  0  0  0  0  0  0  0  0
  144.4881  133.9728  149.9953 O   0  0  0  0  0  0  0  0  0  0  0  0
  147.0323  137.5329  153.9467 N   0  5  0  0  0  0  0  0  0  0  0  0
  147.5168  138.7844  153.9969 C   0  0  0  0  0  0  0  0  0  0  0  0
  146.7915  139.8604  153.6707 N   0  0  0  0  0  0  0  0  0  0  0  0
  147.4906  141.0619  153.8036 C   0  0  0  0  0  0  0  0  0  0  0  0
  148.7756  140.8969  154.2482 C   0  0  0  0  0  0  0  0  0  0  0  0
  149.1486  139.2177  154.5142 S   0  0  0  0  0  0  0  0  0  0  0  0
  147.1994  136.1352  152.0452 H   0  0  0  0  0  0  0  0  0  0  0  0
  144.2916  136.3355  151.3404 H   0  0  0  0  0  0  0  0  0  0  0  0
  145.5892  136.2919  150.1814 H   0  0  0  0  0  0  0  0  0  0  0  0
  144.6804  134.0757  152.0315 H   0  0  0  0  0  0  0  0  0  0  0  0
  147.1866  134.0150  150.2583 H   0  0  0  0  0  0  0  0  0  0  0  0
  147.1962  133.9826  152.0057 H   0  0  0  0  0  0  0  0  0  0  0  0
  145.2251  131.9862  152.8378 H   0  0  0  0  0  0  0  0  0  0  0  0
  148.2910  131.3068  152.7636 H   0  0  0  0  0  0  0  0  0  0  0  0
  147.1990  131.1462  154.2339 H   0  0  0  0  0  0  0  0  0  0  0  0
  145.7730  129.4897  153.0007 H   0  0  0  0  0  0  0  0  0  0  0  0
  146.8612  129.6450  151.5267 H   0  0  0  0  0  0  0  0  0  0  0  0
  146.1289  132.0688  148.9901 H   0  0  0  0  0  0  0  0  0  0  0  0
  145.4641  130.7463  149.9211 H   0  0  0  0  0  0  0  0  0  0  0  0
  143.6782  132.3248  149.0815 H   0  0  0  0  0  0  0  0  0  0  0  0
  143.6742  132.2620  150.8300 H   0  0  0  0  0  0  0  0  0  0  0  0
  146.9936  141.9893  153.5609 H   0  0  0  0  0  0  0  0  0  0  0  0
  149.5213  141.6549  154.4353 H   0  0  0  0  0  0  0  0  0  0  0  0
  147.4103  131.8713  150.8401 H   0  0  0  0  0  0  0  0  0  0  0  0
  1  2  2  0  0  0  0
  2  3  1  0  0  0  0
  2 14  1  0  0  0  0
  3  4  1  0  0  0  0
  3 20  1  0  0  0  0
  4  5  1  0  0  0  0
  4 21  1  0  0  0  0
  4 22  1  0  0  0  0
  5 13  1  0  0  0  0
  5  6  1  0  0  0  0
  5 23  1  0  0  0  0
  6  7  1  0  0  0  0
  6 24  1  0  0  0  0
  6 25  1  0  0  0  0
  7  8  1  0  0  0  0
  7 11  1  0  0  0  0
  7 37  1  0  0  0  0
  8 10  1  0  0  0  0
  8  9  1  0  0  0  0
  8 26  1  0  0  0  0
  9 10  1  0  0  0  0
  9 27  1  0  0  0  0
  9 28  1  0  0  0  0
 10 29  1  0  0  0  0
 10 30  1  0  0  0  0
 11 12  1  0  0  0  0
 11 31  1  0  0  0  0
 11 32  1  0  0  0  0
 12 13  1  0  0  0  0
 12 33  1  0  0  0  0
 12 34  1  0  0  0  0
 14 15  1  0  0  0  0
 15 19  1  0  0  0  0
 15 16  2  0  0  0  0
 16 17  1  0  0  0  0
 17 18  2  0  0  0  0
 17 35  1  0  0  0  0
 18 19  1  0  0  0  0
 18 36  1  0  0  0  0
M  CHG  1   7   1
M  CHG  1  14  -1
M  END
> <s_m_source_file>
AV-unprocessed.smi

> <i_m_source_file_index>
2999

> <i_lp_mmshare_version>
43012

> <i_f3d_flags>
0

> <s_epik_input>
czFbY0hdW2NIXW5jMVtOSF1DKD1PKVtOSF1bQ0gyXVtDQEBIXTJbQ0gyXU4oW0NIMl1bQ0gyXU8yKVtDSF0zW0NIMl1bQ0gyXTM=

> <s_epik_cmdline>
J2VwaWtfcHl0aG9uJywgJy1waCcsICc3LjAnLCAnLXRuJywgJzgnLCAnLW1hJywgJzIwMCcsICctbWV0YWxfYmluZGluZycsICctaW1hZScsICc8aW5maWxlLm1hZT4nLCAnLW9tYWUnLCAnPG91dGZpbGUubWFlPic=

> <r_lp_tautomer_probability>
0.999

> <r_epik_Ionization_Penalty>
7.79196

> <r_epik_Ionization_Penalty_Charging>
6.93299

> <r_epik_Ionization_Penalty_Neutral>
0.858963

> <r_epik_State_Penalty>
7.05108

> <r_epik_Charging_Adjusted_Penalty>
13.9841

> <i_epik_Tot_Q>
0

> <i_epik_Tot_abs_Q>
2

> <r_epik_Metal_State_Penalty>
3.05936

> <b_epik_Metal_Only>
1

> <s_lp_Force_Field>
OPLS_2005

> <r_lp_Energy>
16.1762

> <b_lp_Chiralities_Consistent>
1

> <s_lp_Variant>
AV-unprocessed.smi:2999-11

> <Gold.Version>
5.8.1

> <Gold.Id.Protein>
6NUR|6NUR_protein|mol2

> <Gold.PLP.Fitness>
37.3115

> <Gold.PLP.PLP>
-32.9106

> <Gold.PLP.part.hbond>
-2.0000

> <Gold.PLP.part.metal>
0.0000

> <Gold.PLP.part.buried>
-6.6814

> <Gold.PLP.part.nonpolar>
-26.7172

> <Gold.PLP.part.repulsive>
2.5288

> <Gold.PLP.ligand.clash>
0.0000

> <Gold.PLP.ligand.torsion>
1.4610

> <Gold.PLP.Chemscore.Hbond>
2.0000

> <Gold.PLP.Chemscore.CHOScore>
0.0000

> <Gold.PLP.Chemscore.Metal>
0.0000

> <Gold.Chemscore.Hbonds>
donor molecule, donor type, donor heavy atom, donor atom, acceptor molecule, acceptor atom, score
      L1  H     3    20       P1  7948  1.00
      L1  H     7    37       P1 10747  1.00

> <Gold.PLP.Chemscore.Internal.Correction>
1.3229

> <Gold.Rescore>
     Score         DG    S(hbond)    S(metal)    S(lipo)     H(rot)  DE(clash)    DE(int)     intcor
     15.29     -17.75       1.98        0.00      82.29       1.55       0.03       2.43       ----

> <Gold.Chemscore.Fitness>
15.2922

> <Gold.Chemscore.DG>
-17.7524

> <Gold.Chemscore.ZeroCoef>
-5.4800

> <Gold.Chemscore.Hbond>
1.9802

> <Gold.Chemscore.Metal>
0.0000

> <Gold.Chemscore.Lipo>
82.2862

> <Gold.Chemscore.Internal_Hbond>
0.0000

> <Gold.Chemscore.DEClash>
0.0309

> <Gold.Chemscore.DEInternal>
2.4293

> <Gold.Chemscore.Rot>
1.5504

> <Gold.Chemscore.Internal.Correction>
   9.000000E+99

> <Gold.Chemscore.Hbonds>
donor molecule, donor type, donor heavy atom, donor atom, acceptor molecule, acceptor atom, score
      L1  H     3    20       P1  7948  1.00
      L1  H     7    37       P1 10747  0.99

> <Gold.Chemscore.Hbond.Weighted>
-6.6139

> <Gold.Chemscore.Metal.Weighted>
-0.0000

> <Gold.Chemscore.Lipo.Weighted>
-9.6275

> <Gold.Chemscore.Internal_Hbond.Weighted>
0.0000

> <Gold.Chemscore.DEClash.Weighted>
0.0309

> <Gold.Chemscore.DEInternal.Weighted>
2.4293

> <Gold.Chemscore.Rot.Weighted>
3.9690

> <Gold.Chemscore.Internal.Correction.Weighted>
   9.000000E+99

> <Gold.Protein.RotatedTorsions>
[ 6907 6896 6895 6894 ] final   89.70 input  -60.11 | X-H torsion
[ 7974 7965 7964 7962 ] final  129.08 input  175.53 | X-H torsion
[ 8008 7997 7996 7995 ] final    6.29 input   59.86 | X-H torsion
[ 10167 10162 10161 10158 ] final -171.02 input  -65.29 | X-H torsion
[ 10718 10713 10712 10709 ] final -177.43 input   66.30 | X-H torsion
[ 10763 10752 10751 10750 ] final   78.32 input  -60.55 | X-H torsion
[ 11005 11000 10999 10996 ] final  149.68 input  -57.11 | X-H torsion

> <Gold.Protein.ActiveResidues>
 VAL166  LYS551  ARG553  GLY616  TRP617  ASP618  TYR619  PRO620  LYS621  CYS622 
 ASP623  PHE694  ASN695  SER759  ASP760  ASP761  ALA762  ILE779  LEU786  VAL792 
 PHE793  MET794  SER795  GLU796  ALA797  LYS798  CYS799  TRP800  GLU811  SER814 

> <Gold.Protein.RotatedAtoms>
  152.5438  134.1926  159.8679 H   0  0  0  0  0  0  0  0  0  0  0  0  # atno 6907 bound_to 6896
  151.1920  133.4654  159.2602 H   0  0  0  0  0  0  0  0  0  0  0  0  # atno 6908 bound_to 6896
  151.1074  135.0019  159.8533 H   0  0  0  0  0  0  0  0  0  0  0  0  # atno 6909 bound_to 6896
  145.0325  139.4033  143.5142 H   0  0  0  0  0  0  0  0  0  0  0  0  # atno 7974 bound_to 7965
  154.7391  140.2745  155.6389 H   0  0  0  0  0  0  0  0  0  0  0  0  # atno 8008 bound_to 7997
  156.2869  140.2700  156.2039 H   0  0  0  0  0  0  0  0  0  0  0  0  # atno 8009 bound_to 7997
  155.0282  140.0371  157.2453 H   0  0  0  0  0  0  0  0  0  0  0  0  # atno 8010 bound_to 7997
  139.5827  144.1387  152.1536 H   0  0  0  0  0  0  0  0  0  0  0  0  # atno 10167 bound_to 10162
  156.8294  130.9648  151.3107 H   0  0  0  0  0  0  0  0  0  0  0  0  # atno 10718 bound_to 10713
  153.0865  135.4881  154.8607 H   0  0  0  0  0  0  0  0  0  0  0  0  # atno 10763 bound_to 10752
  154.7217  135.3041  154.9039 H   0  0  0  0  0  0  0  0  0  0  0  0  # atno 10764 bound_to 10752
  153.9701  135.6802  153.4800 H   0  0  0  0  0  0  0  0  0  0  0  0  # atno 10765 bound_to 10752
  140.1065  134.8950  157.1874 H   0  0  0  0  0  0  0  0  0  0  0  0  # atno 11005 bound_to 11000
  146.3500  139.9883  142.8688 LP  0  0  0  0  0  0  0  0  0  0  0  0  # atno 17320 bound_to 7965
  145.1752  140.9740  143.4298 LP  0  0  0  0  0  0  0  0  0  0  0  0  # atno 17321 bound_to 7965
  140.0944  144.5593  150.7032 LP  0  0  0  0  0  0  0  0  0  0  0  0  # atno 17342 bound_to 10162
  140.7103  143.2500  151.4601 LP  0  0  0  0  0  0  0  0  0  0  0  0  # atno 17343 bound_to 10162
  157.6415  130.8809  149.9457 LP  0  0  0  0  0  0  0  0  0  0  0  0  # atno 17370 bound_to 10713
  156.0943  130.3660  150.0336 LP  0  0  0  0  0  0  0  0  0  0  0  0  # atno 17371 bound_to 10713
  140.3148  134.2983  155.7259 LP  0  0  0  0  0  0  0  0  0  0  0  0  # atno 17394 bound_to 11000
  141.2119  133.7673  156.9828 LP  0  0  0  0  0  0  0  0  0  0  0  0  # atno 17395 bound_to 11000

$$$$
