AV-unprocessed.smi:658|AV-procd|sdf|3233|dock8
  -GOLD-   22720 0183D 1   1.00000     0.00000
 Structure written by MMmdl.
 38 38  0  0  0  0  0  0  0  0  2 V2000
  149.5420  143.9951  159.2176 C   0  0  0  0  0  0  0  0  0  0  0  0
  150.3012  142.8223  158.5755 C   0  0  1  0  0  0  0  0  0  0  0  0
  149.7597  142.5881  157.2165 N   0  3  0  0  0  0  0  0  0  0  0  0
  150.5420  141.6459  156.3923 C   0  0  0  0  0  0  0  0  0  0  0  0
  149.8800  141.4318  155.0264 C   0  0  0  0  0  0  0  0  0  0  0  0
  148.4884  140.7953  155.1443 C   0  0  0  0  0  0  0  0  0  0  0  0
  148.5700  138.9570  155.0201 S   0  0  0  0  0  0  0  0  0  0  0  0
  149.4428  138.7322  153.5558 N   0  0  0  0  0  0  0  0  0  0  0  0
  149.4030  138.4341  156.1137 O   0  0  0  0  0  0  0  0  0  0  0  0
  147.2102  138.4443  154.7966 O   0  0  0  0  0  0  0  0  0  0  0  0
  151.8326  143.0529  158.5059 C   0  0  1  0  0  0  0  0  0  0  0  0
  152.2175  144.4450  157.9704 C   0  0  0  0  0  0  0  0  0  0  0  0
  152.4446  142.8350  159.8125 N   0  0  0  0  0  0  0  0  0  0  0  0
  152.2231  143.5088  160.9978 C   0  0  0  0  0  0  0  0  0  0  0  0
  152.9879  142.9108  161.9576 C   0  0  0  0  0  0  0  0  0  0  0  0
  153.6450  141.8598  161.2601 C   0  0  0  0  0  0  0  0  0  0  0  0
  153.3103  141.8108  159.9808 N   0  0  0  0  0  0  0  0  0  0  0  0
  149.8238  144.1356  160.2608 H   0  0  0  0  0  0  0  0  0  0  0  0
  148.4658  143.8193  159.2012 H   0  0  0  0  0  0  0  0  0  0  0  0
  149.7333  144.9300  158.6895 H   0  0  0  0  0  0  0  0  0  0  0  0
  150.1211  141.9369  159.1883 H   0  0  0  0  0  0  0  0  0  0  0  0
  148.8112  142.2504  157.2961 H   0  0  0  0  0  0  0  0  0  0  0  0
  151.5489  142.0430  156.2549 H   0  0  0  0  0  0  0  0  0  0  0  0
  150.6349  140.6965  156.9211 H   0  0  0  0  0  0  0  0  0  0  0  0
  149.7985  142.3876  154.5073 H   0  0  0  0  0  0  0  0  0  0  0  0
  150.5189  140.7966  154.4113 H   0  0  0  0  0  0  0  0  0  0  0  0
  148.0517  141.0385  156.1134 H   0  0  0  0  0  0  0  0  0  0  0  0
  147.8060  141.1621  154.3770 H   0  0  0  0  0  0  0  0  0  0  0  0
  149.3052  139.4896  152.8868 H   0  0  0  0  0  0  0  0  0  0  0  0
  149.3462  137.7926  153.1707 H   0  0  0  0  0  0  0  0  0  0  0  0
  152.2569  142.3178  157.8188 H   0  0  0  0  0  0  0  0  0  0  0  0
  151.9238  144.5698  156.9284 H   0  0  0  0  0  0  0  0  0  0  0  0
  153.2967  144.5959  158.0155 H   0  0  0  0  0  0  0  0  0  0  0  0
  151.7467  145.2420  158.5466 H   0  0  0  0  0  0  0  0  0  0  0  0
  151.5443  144.3465  161.0617 H   0  0  0  0  0  0  0  0  0  0  0  0
  153.0634  143.1805  163.0007 H   0  0  0  0  0  0  0  0  0  0  0  0
  154.3451  141.1322  161.6439 H   0  0  0  0  0  0  0  0  0  0  0  0
  149.7428  143.4772  156.7361 H   0  0  0  0  0  0  0  0  0  0  0  0
  1  2  1  0  0  0  0
  1 18  1  0  0  0  0
  1 19  1  0  0  0  0
  1 20  1  0  0  0  0
  2  3  1  0  0  0  0
  2 11  1  0  0  0  0
  2 21  1  0  0  0  0
  3  4  1  0  0  0  0
  3 22  1  0  0  0  0
  3 38  1  0  0  0  0
  4  5  1  0  0  0  0
  4 23  1  0  0  0  0
  4 24  1  0  0  0  0
  5  6  1  0  0  0  0
  5 25  1  0  0  0  0
  5 26  1  0  0  0  0
  6  7  1  0  0  0  0
  6 27  1  0  0  0  0
  6 28  1  0  0  0  0
  7  8  1  0  0  0  0
  7  9  2  0  0  0  0
  7 10  2  0  0  0  0
  8 29  1  0  0  0  0
  8 30  1  0  0  0  0
 11 12  1  0  0  0  0
 11 13  1  0  0  0  0
 11 31  1  0  0  0  0
 12 32  1  0  0  0  0
 12 33  1  0  0  0  0
 12 34  1  0  0  0  0
 13 17  1  0  0  0  0
 13 14  1  0  0  0  0
 14 15  2  0  0  0  0
 14 35  1  0  0  0  0
 15 16  1  0  0  0  0
 15 36  1  0  0  0  0
 16 17  2  0  0  0  0
 16 37  1  0  0  0  0
M  CHG  1   3   1
M  END
> <s_m_source_file>
AV-unprocessed.smi

> <i_m_source_file_index>
658

> <i_lp_mmshare_version>
43012

> <i_f3d_flags>
0

> <s_epik_input>
bjFbY0hdW2NIXVtjSF1uMVtDQEBIXShbQ0gzXSlbQ0BIXShbQ0gzXSlbTkhdW0NIMl1bQ0gyXVtDSDJdUyg9TykoPU8pW05IMl0=

> <s_epik_cmdline>
J2VwaWtfcHl0aG9uJywgJy1waCcsICc3LjAnLCAnLXRuJywgJzgnLCAnLW1hJywgJzIwMCcsICctbWV0YWxfYmluZGluZycsICctaW1hZScsICc8aW5maWxlLm1hZT4nLCAnLW9tYWUnLCAnPG91dGZpbGUubWFlPic=

> <r_lp_tautomer_probability>
1

> <r_epik_Ionization_Penalty>
0.00535781

> <r_epik_Ionization_Penalty_Charging>
0.00511015

> <r_epik_Ionization_Penalty_Neutral>
0.000247661

> <r_epik_State_Penalty>
-0

> <r_epik_Charging_Adjusted_Penalty>
0.00511015

> <i_epik_Tot_Q>
1

> <i_epik_Tot_abs_Q>
1

> <r_epik_Metal_State_Penalty>
0.149106

> <b_epik_Metal_Only>
0

> <s_lp_Force_Field>
OPLS_2005

> <r_lp_Energy>
6.97458

> <b_lp_Chiralities_Consistent>
1

> <s_lp_Variant>
AV-unprocessed.smi:658-4

> <Gold.Version>
5.8.1

> <Gold.Id.Protein>
6NUR|6NUR_protein|mol2

> <Gold.PLP.Fitness>
48.0861

> <Gold.PLP.PLP>
-37.3218

> <Gold.PLP.part.hbond>
-3.0000

> <Gold.PLP.part.metal>
0.0000

> <Gold.PLP.part.buried>
-4.0940

> <Gold.PLP.part.nonpolar>
-30.1070

> <Gold.PLP.part.repulsive>
0.1025

> <Gold.PLP.ligand.clash>
0.0000

> <Gold.PLP.ligand.torsion>
0.6839

> <Gold.PLP.Chemscore.Hbond>
3.9600

> <Gold.PLP.Chemscore.CHOScore>
0.0000

> <Gold.PLP.Chemscore.Metal>
0.0000

> <Gold.Chemscore.Hbonds>
donor molecule, donor type, donor heavy atom, donor atom, acceptor molecule, acceptor atom, score
      L1  H     3    38       P1  8028  2.00
      L1  H     8    29       P1  7957  0.88
      L1  H     8    30       P1  7948  0.98

> <Gold.PLP.Chemscore.Internal.Correction>
0.2521

> <Gold.Rescore>
     Score         DG    S(hbond)    S(metal)    S(lipo)     H(rot)  DE(clash)    DE(int)     intcor
     17.16     -17.94       2.91        0.00      92.01       3.13       0.18       0.60       ----

> <Gold.Chemscore.Fitness>
17.1636

> <Gold.Chemscore.DG>
-17.9403

> <Gold.Chemscore.ZeroCoef>
-5.4800

> <Gold.Chemscore.Hbond>
2.9075

> <Gold.Chemscore.Metal>
0.0000

> <Gold.Chemscore.Lipo>
92.0098

> <Gold.Chemscore.Internal_Hbond>
0.0000

> <Gold.Chemscore.DEClash>
0.1777

> <Gold.Chemscore.DEInternal>
0.5991

> <Gold.Chemscore.Rot>
3.1312

> <Gold.Chemscore.Internal.Correction>
   9.000000E+99

> <Gold.Chemscore.Hbonds>
donor molecule, donor type, donor heavy atom, donor atom, acceptor molecule, acceptor atom, score
      L1  H     3    38       P1  8028  0.95
      L1  H     8    29       P1  7957  0.87
      L1  H     8    30       P1  7948  0.88

> <Gold.Chemscore.Hbond.Weighted>
-9.7112

> <Gold.Chemscore.Metal.Weighted>
-0.0000

> <Gold.Chemscore.Lipo.Weighted>
-10.7652

> <Gold.Chemscore.Internal_Hbond.Weighted>
0.0000

> <Gold.Chemscore.DEClash.Weighted>
0.1777

> <Gold.Chemscore.DEInternal.Weighted>
0.5991

> <Gold.Chemscore.Rot.Weighted>
8.0160

> <Gold.Chemscore.Internal.Correction.Weighted>
   9.000000E+99

> <Gold.Protein.RotatedTorsions>
[ 6907 6896 6895 6894 ] final -175.77 input  -60.11 | X-H torsion
[ 7974 7965 7964 7962 ] final   33.26 input  175.53 | X-H torsion
[ 8008 7997 7996 7995 ] final   75.63 input   59.86 | X-H torsion
[ 10167 10162 10161 10158 ] final  -53.86 input  -65.29 | X-H torsion
[ 10718 10713 10712 10709 ] final -140.31 input   66.30 | X-H torsion
[ 10763 10752 10751 10750 ] final -132.46 input  -60.55 | X-H torsion
[ 11005 11000 10999 10996 ] final  -18.48 input  -57.11 | X-H torsion

> <Gold.Protein.ActiveResidues>
 VAL166  LYS551  ARG553  GLY616  TRP617  ASP618  TYR619  PRO620  LYS621  CYS622 
 ASP623  PHE694  ASN695  SER759  ASP760  ASP761  ALA762  ILE779  LEU786  VAL792 
 PHE793  MET794  SER795  GLU796  ALA797  LYS798  CYS799  TRP800  GLU811  SER814 

> <Gold.Protein.RotatedAtoms>
  151.5939  133.3363  159.3033 H   0  0  0  0  0  0  0  0  0  0  0  0  # atno 6907 bound_to 6896
  150.8245  134.7472  159.6812 H   0  0  0  0  0  0  0  0  0  0  0  0  # atno 6908 bound_to 6896
  152.4335  134.5737  159.9980 H   0  0  0  0  0  0  0  0  0  0  0  0  # atno 6909 bound_to 6896
  146.1432  139.6420  142.9149 H   0  0  0  0  0  0  0  0  0  0  0  0  # atno 7974 bound_to 7965
  155.8158  140.3471  155.5484 H   0  0  0  0  0  0  0  0  0  0  0  0  # atno 8008 bound_to 7997
  155.8394  140.0939  157.1764 H   0  0  0  0  0  0  0  0  0  0  0  0  # atno 8009 bound_to 7997
  154.4005  140.1397  156.3697 H   0  0  0  0  0  0  0  0  0  0  0  0  # atno 8010 bound_to 7997
  140.6462  143.2537  151.4853 H   0  0  0  0  0  0  0  0  0  0  0  0  # atno 10167 bound_to 10162
  156.3208  130.7533  151.1630 H   0  0  0  0  0  0  0  0  0  0  0  0  # atno 10718 bound_to 10713
  154.8743  135.3797  154.4413 H   0  0  0  0  0  0  0  0  0  0  0  0  # atno 10763 bound_to 10752
  153.5098  135.7030  153.5792 H   0  0  0  0  0  0  0  0  0  0  0  0  # atno 10764 bound_to 10752
  153.4087  135.3930  155.2002 H   0  0  0  0  0  0  0  0  0  0  0  0  # atno 10765 bound_to 10752
  140.8273  133.8023  155.9721 H   0  0  0  0  0  0  0  0  0  0  0  0  # atno 11005 bound_to 11000
  145.4997  141.0438  143.2547 LP  0  0  0  0  0  0  0  0  0  0  0  0  # atno 17320 bound_to 7965
  144.7816  139.6513  143.7152 LP  0  0  0  0  0  0  0  0  0  0  0  0  # atno 17321 bound_to 7965
  139.5673  144.2012  152.1784 LP  0  0  0  0  0  0  0  0  0  0  0  0  # atno 17342 bound_to 10162
  140.1298  144.5299  150.6810 LP  0  0  0  0  0  0  0  0  0  0  0  0  # atno 17343 bound_to 10162
  157.7411  131.0508  150.5118 LP  0  0  0  0  0  0  0  0  0  0  0  0  # atno 17370 bound_to 10713
  156.5270  130.4175  149.6221 LP  0  0  0  0  0  0  0  0  0  0  0  0  # atno 17371 bound_to 10713
  140.9036  134.2348  157.5027 LP  0  0  0  0  0  0  0  0  0  0  0  0  # atno 17394 bound_to 11000
  139.8706  134.9718  156.4749 LP  0  0  0  0  0  0  0  0  0  0  0  0  # atno 17395 bound_to 11000

$$$$
