AV-unprocessed.smi:919|AV-procd|sdf|4166|dock9
  -GOLD-   22720 2 73D 1   1.00000     0.00000
 Structure written by MMmdl.
 43 45  0  0  0  0  0  0  0  0  1 V2000
  147.0122  140.5744  156.7990 C   0  0  0  0  0  0  0  0  0  0  0  0
  146.3395  141.7380  156.1286 C   0  0  0  0  0  0  0  0  0  0  0  0
  145.5999  142.5680  156.8449 N   0  0  0  0  0  0  0  0  0  0  0  0
  145.1200  143.5255  155.9457 O   0  0  0  0  0  0  0  0  0  0  0  0
  145.5960  143.2311  154.7090 C   0  0  0  0  0  0  0  0  0  0  0  0
  145.1870  144.1442  153.6035 C   0  0  0  0  0  0  0  0  0  0  0  0
  146.3799  142.1113  154.7551 C   0  0  0  0  0  0  0  0  0  0  0  0
  147.1121  141.4225  153.6364 C   0  0  0  0  0  0  0  0  0  0  0  0
  148.5038  140.9502  154.0847 C   0  0  0  0  0  0  0  0  0  0  0  0
  149.1169  141.9020  155.0019 N   0  0  0  0  0  0  0  0  0  0  0  0
  150.3106  141.7381  155.5965 C   0  0  0  0  0  0  0  0  0  0  0  0
  151.0359  140.7639  155.4042 O   0  0  0  0  0  0  0  0  0  0  0  0
  150.6616  142.7307  156.4327 N   0  0  0  0  0  0  0  0  0  0  0  0
  151.8892  142.8458  157.2244 C   0  0  2  0  0  0  0  0  0  0  0  0
  151.7956  142.0132  158.5221 C   0  0  0  0  0  0  0  0  0  0  0  0
  152.0246  143.0603  159.6274 C   0  0  2  0  0  0  0  0  0  0  0  0
  150.7915  143.9778  159.7332 C   0  0  0  0  0  0  0  0  0  0  0  0
  150.9072  144.8511  158.4696 C   0  0  0  0  0  0  0  0  0  0  0  0
  152.1577  144.2720  157.7732 C   0  0  1  0  0  0  0  0  0  0  0  0
  153.0490  143.9790  158.9753 C   0  0  0  0  0  0  0  0  0  0  0  0
  147.0201  139.6986  156.1497 H   0  0  0  0  0  0  0  0  0  0  0  0
  146.5048  140.2939  157.7229 H   0  0  0  0  0  0  0  0  0  0  0  0
  148.0469  140.8134  157.0455 H   0  0  0  0  0  0  0  0  0  0  0  0
  145.3779  143.6913  152.6305 H   0  0  0  0  0  0  0  0  0  0  0  0
  145.7388  145.0827  153.6546 H   0  0  0  0  0  0  0  0  0  0  0  0
  144.1229  144.3731  153.6638 H   0  0  0  0  0  0  0  0  0  0  0  0
  146.5415  140.5679  153.2711 H   0  0  0  0  0  0  0  0  0  0  0  0
  147.2118  142.0932  152.7822 H   0  0  0  0  0  0  0  0  0  0  0  0
  148.4433  139.9668  154.5543 H   0  0  0  0  0  0  0  0  0  0  0  0
  149.1575  140.8410  153.2187 H   0  0  0  0  0  0  0  0  0  0  0  0
  148.5909  142.7372  155.2144 H   0  0  0  0  0  0  0  0  0  0  0  0
  150.0158  143.5033  156.5099 H   0  0  0  0  0  0  0  0  0  0  0  0
  152.7430  142.4975  156.6401 H   0  0  0  0  0  0  0  0  0  0  0  0
  150.8402  141.4994  158.6402 H   0  0  0  0  0  0  0  0  0  0  0  0
  152.5792  141.2548  158.5431 H   0  0  0  0  0  0  0  0  0  0  0  0
  152.3319  142.6285  160.5802 H   0  0  0  0  0  0  0  0  0  0  0  0
  149.8595  143.4122  159.7634 H   0  0  0  0  0  0  0  0  0  0  0  0
  150.8386  144.5951  160.6310 H   0  0  0  0  0  0  0  0  0  0  0  0
  150.0092  144.8225  157.8526 H   0  0  0  0  0  0  0  0  0  0  0  0
  151.0757  145.8929  158.7458 H   0  0  0  0  0  0  0  0  0  0  0  0
  152.5956  144.9485  157.0386 H   0  0  0  0  0  0  0  0  0  0  0  0
  153.2799  144.8635  159.5719 H   0  0  0  0  0  0  0  0  0  0  0  0
  153.9793  143.4727  158.7117 H   0  0  0  0  0  0  0  0  0  0  0  0
  1  2  1  0  0  0  0
  1 21  1  0  0  0  0
  1 22  1  0  0  0  0
  1 23  1  0  0  0  0
  2  7  1  0  0  0  0
  2  3  2  0  0  0  0
  3  4  1  0  0  0  0
  4  5  1  0  0  0  0
  5  6  1  0  0  0  0
  5  7  2  0  0  0  0
  6 24  1  0  0  0  0
  6 25  1  0  0  0  0
  6 26  1  0  0  0  0
  7  8  1  0  0  0  0
  8  9  1  0  0  0  0
  8 27  1  0  0  0  0
  8 28  1  0  0  0  0
  9 10  1  0  0  0  0
  9 29  1  0  0  0  0
  9 30  1  0  0  0  0
 10 11  1  0  0  0  0
 10 31  1  0  0  0  0
 11 12  2  0  0  0  0
 11 13  1  0  0  0  0
 13 14  1  0  0  0  0
 13 32  1  0  0  0  0
 14 19  1  0  0  0  0
 14 15  1  0  0  0  0
 14 33  1  0  0  0  0
 15 16  1  0  0  0  0
 15 34  1  0  0  0  0
 15 35  1  0  0  0  0
 16 20  1  0  0  0  0
 16 17  1  0  0  0  0
 16 36  1  0  0  0  0
 17 18  1  0  0  0  0
 17 37  1  0  0  0  0
 17 38  1  0  0  0  0
 18 19  1  0  0  0  0
 18 39  1  0  0  0  0
 18 40  1  0  0  0  0
 19 20  1  0  0  0  0
 19 41  1  0  0  0  0
 20 42  1  0  0  0  0
 20 43  1  0  0  0  0
M  END
> <s_m_source_file>
AV-unprocessed.smi

> <i_m_source_file_index>
919

> <i_lp_mmshare_version>
43012

> <i_f3d_flags>
0

> <s_epik_input>
W0NIM11jMW5vYyhbQ0gzXSljMVtDSDJdW0NIMl1bTkhdQyg9TylbTkhdW0NASF0oW0NIMl1bQ0BASF0yMylbQ0BASF0oW0NIMl0zKVtDSDJdW0NIMl0y

> <s_epik_cmdline>
J2VwaWtfcHl0aG9uJywgJy1waCcsICc3LjAnLCAnLXRuJywgJzgnLCAnLW1hJywgJzIwMCcsICctbWV0YWxfYmluZGluZycsICctaW1hZScsICc8aW5maWxlLm1hZT4nLCAnLW9tYWUnLCAnPG91dGZpbGUubWFlPic=

> <r_lp_tautomer_probability>
1

> <r_epik_Ionization_Penalty>
6.40771e-05

> <r_epik_Ionization_Penalty_Charging>
0

> <r_epik_Ionization_Penalty_Neutral>
6.40771e-05

> <r_epik_State_Penalty>
-0

> <r_epik_Charging_Adjusted_Penalty>
0

> <i_epik_Tot_Q>
0

> <i_epik_Tot_abs_Q>
0

> <r_epik_Metal_State_Penalty>
-0

> <b_epik_Metal_Only>
0

> <s_lp_Force_Field>
OPLS_2005

> <r_lp_Energy>
47.1923

> <b_lp_Chiralities_Consistent>
1

> <s_lp_Variant>
AV-unprocessed.smi:919-3

> <Gold.Version>
5.8.1

> <Gold.Id.Protein>
6NUR|6NUR_protein|mol2

> <Gold.PLP.Fitness>
47.9545

> <Gold.PLP.PLP>
-41.2131

> <Gold.PLP.part.hbond>
-3.0000

> <Gold.PLP.part.metal>
0.0000

> <Gold.PLP.part.buried>
-7.0700

> <Gold.PLP.part.nonpolar>
-30.0641

> <Gold.PLP.part.repulsive>
0.5974

> <Gold.PLP.ligand.clash>
0.0000

> <Gold.PLP.ligand.torsion>
0.6535

> <Gold.PLP.Chemscore.Hbond>
2.6777

> <Gold.PLP.Chemscore.CHOScore>
0.0000

> <Gold.PLP.Chemscore.Metal>
0.0000

> <Gold.Chemscore.Hbonds>
donor molecule, donor type, donor heavy atom, donor atom, acceptor molecule, acceptor atom, score
      L1  H    10    31       P1  8028  0.80
      L1  H    13    32       P1  8028  0.98
      P1  H  7989  7998       L1    12  0.80

> <Gold.PLP.Chemscore.Internal.Correction>
0.0153

> <Gold.Rescore>
     Score         DG    S(hbond)    S(metal)    S(lipo)     H(rot)  DE(clash)    DE(int)     intcor
     20.46     -22.28       2.07        0.00     117.73       1.52       1.43       0.39       ----

> <Gold.Chemscore.Fitness>
20.4561

> <Gold.Chemscore.DG>
-22.2814

> <Gold.Chemscore.ZeroCoef>
-5.4800

> <Gold.Chemscore.Hbond>
2.0684

> <Gold.Chemscore.Metal>
0.0000

> <Gold.Chemscore.Lipo>
117.7280

> <Gold.Chemscore.Internal_Hbond>
0.0000

> <Gold.Chemscore.DEClash>
1.4315

> <Gold.Chemscore.DEInternal>
0.3939

> <Gold.Chemscore.Rot>
1.5161

> <Gold.Chemscore.Internal.Correction>
   9.000000E+99

> <Gold.Chemscore.Hbonds>
donor molecule, donor type, donor heavy atom, donor atom, acceptor molecule, acceptor atom, score
      L1  H    10    31       P1  8028  0.75
      L1  H    13    32       P1  8028  0.93
      P1  H  7989  7998       L1    12  0.42

> <Gold.Chemscore.Hbond.Weighted>
-6.9085

> <Gold.Chemscore.Metal.Weighted>
-0.0000

> <Gold.Chemscore.Lipo.Weighted>
-13.7742

> <Gold.Chemscore.Internal_Hbond.Weighted>
0.0000

> <Gold.Chemscore.DEClash.Weighted>
1.4315

> <Gold.Chemscore.DEInternal.Weighted>
0.3939

> <Gold.Chemscore.Rot.Weighted>
3.8813

> <Gold.Chemscore.Internal.Correction.Weighted>
   9.000000E+99

> <Gold.Protein.RotatedTorsions>
[ 6907 6896 6895 6894 ] final   -2.84 input  -60.11 | X-H torsion
[ 7974 7965 7964 7962 ] final   34.92 input  175.53 | X-H torsion
[ 8008 7997 7996 7995 ] final   67.11 input   59.86 | X-H torsion
[ 10167 10162 10161 10158 ] final  -99.89 input  -65.29 | X-H torsion
[ 10718 10713 10712 10709 ] final -161.37 input   66.30 | X-H torsion
[ 10763 10752 10751 10750 ] final  -70.90 input  -60.55 | X-H torsion
[ 11005 11000 10999 10996 ] final   83.54 input  -57.11 | X-H torsion

> <Gold.Protein.ActiveResidues>
 VAL166  LYS551  ARG553  GLY616  TRP617  ASP618  TYR619  PRO620  LYS621  CYS622 
 ASP623  PHE694  ASN695  SER759  ASP760  ASP761  ALA762  ILE779  LEU786  VAL792 
 PHE793  MET794  SER795  GLU796  ALA797  LYS798  CYS799  TRP800  GLU811  SER814 

> <Gold.Protein.RotatedAtoms>
  151.5234  135.1067  159.9883 H   0  0  0  0  0  0  0  0  0  0  0  0  # atno 6907 bound_to 6896
  152.4610  133.7819  159.6866 H   0  0  0  0  0  0  0  0  0  0  0  0  # atno 6908 bound_to 6896
  150.8573  133.7631  159.3029 H   0  0  0  0  0  0  0  0  0  0  0  0  # atno 6909 bound_to 6896
  146.1319  139.6208  142.9221 H   0  0  0  0  0  0  0  0  0  0  0  0  # atno 7974 bound_to 7965
  155.6878  140.3496  155.4881 H   0  0  0  0  0  0  0  0  0  0  0  0  # atno 8008 bound_to 7997
  155.9550  140.1126  157.0967 H   0  0  0  0  0  0  0  0  0  0  0  0  # atno 8009 bound_to 7997
  154.4130  140.1186  156.5090 H   0  0  0  0  0  0  0  0  0  0  0  0  # atno 8010 bound_to 7997
  140.2577  143.3428  152.0655 H   0  0  0  0  0  0  0  0  0  0  0  0  # atno 10167 bound_to 10162
  156.5953  130.8788  151.2900 H   0  0  0  0  0  0  0  0  0  0  0  0  # atno 10718 bound_to 10713
  154.4242  135.5979  153.6029 H   0  0  0  0  0  0  0  0  0  0  0  0  # atno 10763 bound_to 10752
  152.9795  135.5959  154.3917 H   0  0  0  0  0  0  0  0  0  0  0  0  # atno 10764 bound_to 10752
  154.3747  135.2841  155.2225 H   0  0  0  0  0  0  0  0  0  0  0  0  # atno 10765 bound_to 10752
  139.9028  134.8152  156.2323 H   0  0  0  0  0  0  0  0  0  0  0  0  # atno 11005 bound_to 11000
  145.5241  141.0430  143.2419 LP  0  0  0  0  0  0  0  0  0  0  0  0  # atno 17320 bound_to 7965
  144.7699  139.6758  143.7199 LP  0  0  0  0  0  0  0  0  0  0  0  0  # atno 17321 bound_to 7965
  139.5026  144.6739  151.6177 LP  0  0  0  0  0  0  0  0  0  0  0  0  # atno 17342 bound_to 10162
  140.5990  143.9643  150.6374 LP  0  0  0  0  0  0  0  0  0  0  0  0  # atno 17343 bound_to 10162
  157.7293  130.9669  150.1782 LP  0  0  0  0  0  0  0  0  0  0  0  0  # atno 17370 bound_to 10713
  156.2515  130.3701  149.8228 LP  0  0  0  0  0  0  0  0  0  0  0  0  # atno 17371 bound_to 10713
  141.0338  133.6974  156.1476 LP  0  0  0  0  0  0  0  0  0  0  0  0  # atno 17394 bound_to 11000
  140.7057  134.4515  157.5584 LP  0  0  0  0  0  0  0  0  0  0  0  0  # atno 17395 bound_to 11000

$$$$
