AV-unprocessed.smi:1776|AV-procd|sdf|7175|dock3
  -GOLD-   22720 8413D 1   1.00000     0.00000
 Structure written by MMmdl.
 30 31  0  0  0  0  0  0  0  0  2 V2000
  153.4453  141.9758  162.1251 O   0  0  0  0  0  0  0  0  0  0  0  0
  153.1872  142.0504  160.9239 C   0  0  0  0  0  0  0  0  0  0  0  0
  153.1181  141.0038  160.0766 N   0  0  0  0  0  0  0  0  0  0  0  0
  153.3127  139.6298  160.3062 C   0  0  0  0  0  0  0  0  0  0  0  0
  153.5231  139.0562  161.5241 C   0  0  0  0  0  0  0  0  0  0  0  0
  153.7244  137.6218  161.6876 C   0  0  0  0  0  0  0  0  0  0  0  0
  153.8678  136.9393  163.0366 C   0  0  0  0  0  0  0  0  0  0  0  0
  154.0294  135.6235  162.8947 F   0  0  0  0  0  0  0  0  0  0  0  0
  154.9311  137.4217  163.6782 F   0  0  0  0  0  0  0  0  0  0  0  0
  152.7928  137.1515  163.7960 F   0  0  0  0  0  0  0  0  0  0  0  0
  153.6600  136.9429  160.4865 C   0  0  0  0  0  0  0  0  0  0  0  0
  153.4789  137.4333  159.2410 N   0  5  0  0  0  0  0  0  0  0  0  0
  153.2949  138.7762  159.0994 C   0  0  0  0  0  0  0  0  0  0  0  0
  153.1173  139.2874  157.9929 O   0  0  0  0  0  0  0  0  0  0  0  0
  152.9263  143.4214  160.2818 C   0  0  2  0  0  0  0  0  0  0  0  0
  151.7172  144.1648  160.8971 C   0  0  0  0  0  0  0  0  0  0  0  0
  151.5274  145.3990  160.2168 O   0  0  0  0  0  0  0  0  0  0  0  0
  151.2826  145.1947  158.8323 C   0  0  0  0  0  0  0  0  0  0  0  0
  152.4879  144.4679  158.2148 C   0  0  0  0  0  0  0  0  0  0  0  0
  152.6782  143.2325  158.8906 O   0  0  0  0  0  0  0  0  0  0  0  0
  152.8712  141.2283  159.1233 H   0  0  0  0  0  0  0  0  0  0  0  0
  153.5598  139.6479  162.4225 H   0  0  0  0  0  0  0  0  0  0  0  0
  153.7657  135.8382  160.5339 H   0  0  0  0  0  0  0  0  0  0  0  0
  153.8292  144.0215  160.4086 H   0  0  0  0  0  0  0  0  0  0  0  0
  150.8084  143.5631  160.8363 H   0  0  0  0  0  0  0  0  0  0  0  0
  151.8921  144.3787  161.9520 H   0  0  0  0  0  0  0  0  0  0  0  0
  150.3665  144.6192  158.6907 H   0  0  0  0  0  0  0  0  0  0  0  0
  151.1338  146.1607  158.3500 H   0  0  0  0  0  0  0  0  0  0  0  0
  152.3117  144.2713  157.1572 H   0  0  0  0  0  0  0  0  0  0  0  0
  153.3894  145.0787  158.2836 H   0  0  0  0  0  0  0  0  0  0  0  0
  1  2  2  0  0  0  0
  2  3  1  0  0  0  0
  2 15  1  0  0  0  0
  3  4  1  0  0  0  0
  3 21  1  0  0  0  0
  4 13  1  0  0  0  0
  4  5  2  0  0  0  0
  5  6  1  0  0  0  0
  5 22  1  0  0  0  0
  6  7  1  0  0  0  0
  6 11  2  0  0  0  0
  7  8  1  0  0  0  0
  7  9  1  0  0  0  0
  7 10  1  0  0  0  0
 11 12  1  0  0  0  0
 11 23  1  0  0  0  0
 12 13  1  0  0  0  0
 13 14  2  0  0  0  0
 15 20  1  0  0  0  0
 15 16  1  0  0  0  0
 15 24  1  0  0  0  0
 16 17  1  0  0  0  0
 16 25  1  0  0  0  0
 16 26  1  0  0  0  0
 17 18  1  0  0  0  0
 18 19  1  0  0  0  0
 18 27  1  0  0  0  0
 18 28  1  0  0  0  0
 19 20  1  0  0  0  0
 19 29  1  0  0  0  0
 19 30  1  0  0  0  0
M  CHG  1  12  -1
M  END
> <s_m_source_file>
AV-unprocessed.smi

> <i_m_source_file_index>
1776

> <i_lp_mmshare_version>
43012

> <i_f3d_flags>
0

> <s_epik_input>
TzFbQ0gyXVtDSDJdT1tDSDJdW0NASF0xQyg9TylbTkhdYzJbY0hdYyhDKEYpKEYpRilbY0hdW25IXWMyPU8=

> <s_epik_cmdline>
J2VwaWtfcHl0aG9uJywgJy1waCcsICc3LjAnLCAnLXRuJywgJzgnLCAnLW1hJywgJzIwMCcsICctbWV0YWxfYmluZGluZycsICctaW1hZScsICc8aW5maWxlLm1hZT4nLCAnLW9tYWUnLCAnPG91dGZpbGUubWFlPic=

> <r_epik_Ionization_Penalty>
2.46925

> <r_epik_Ionization_Penalty_Charging>
0.0509887

> <r_epik_Ionization_Penalty_Neutral>
2.41826

> <r_epik_State_Penalty>
2.57741

> <r_epik_Charging_Adjusted_Penalty>
2.6284

> <i_epik_Tot_Q>
-1

> <i_epik_Tot_abs_Q>
1

> <r_epik_Metal_State_Penalty>
0.510263

> <b_epik_Metal_Only>
0

> <s_lp_Force_Field>
OPLS_2005

> <r_lp_Energy>
25.1464

> <b_lp_Chiralities_Consistent>
1

> <s_lp_Variant>
AV-unprocessed.smi:1776-3

> <Gold.Version>
5.8.1

> <Gold.Id.Protein>
6NUR|6NUR_protein|mol2

> <Gold.PLP.Fitness>
43.3873

> <Gold.PLP.PLP>
-40.4146

> <Gold.PLP.part.hbond>
-1.7996

> <Gold.PLP.part.metal>
0.0000

> <Gold.PLP.part.buried>
-7.0261

> <Gold.PLP.part.nonpolar>
-31.8334

> <Gold.PLP.part.repulsive>
0.2528

> <Gold.PLP.ligand.clash>
0.0000

> <Gold.PLP.ligand.torsion>
0.0419

> <Gold.PLP.Chemscore.Hbond>
1.0000

> <Gold.PLP.Chemscore.CHOScore>
0.0000

> <Gold.PLP.Chemscore.Metal>
0.0000

> <Gold.Chemscore.Hbonds>
donor molecule, donor type, donor heavy atom, donor atom, acceptor molecule, acceptor atom, score
      P1  H  7997  8009       L1    14  1.00

> <Gold.PLP.Chemscore.Internal.Correction>
0.0565

> <Gold.Rescore>
     Score         DG    S(hbond)    S(metal)    S(lipo)     H(rot)  DE(clash)    DE(int)     intcor
     14.98     -16.17       1.00        0.00      84.72       1.00       0.03       1.15       ----

> <Gold.Chemscore.Fitness>
14.9825

> <Gold.Chemscore.DG>
-16.1720

> <Gold.Chemscore.ZeroCoef>
-5.4800

> <Gold.Chemscore.Hbond>
0.9999

> <Gold.Chemscore.Metal>
0.0000

> <Gold.Chemscore.Lipo>
84.7196

> <Gold.Chemscore.Internal_Hbond>
0.0000

> <Gold.Chemscore.DEClash>
0.0348

> <Gold.Chemscore.DEInternal>
1.1547

> <Gold.Chemscore.Rot>
1.0000

> <Gold.Chemscore.Internal.Correction>
   9.000000E+99

> <Gold.Chemscore.Hbonds>
donor molecule, donor type, donor heavy atom, donor atom, acceptor molecule, acceptor atom, score
      P1  H  7997  8009       L1    14  0.99

> <Gold.Chemscore.Hbond.Weighted>
-3.3398

> <Gold.Chemscore.Metal.Weighted>
-0.0000

> <Gold.Chemscore.Lipo.Weighted>
-9.9122

> <Gold.Chemscore.Internal_Hbond.Weighted>
0.0000

> <Gold.Chemscore.DEClash.Weighted>
0.0348

> <Gold.Chemscore.DEInternal.Weighted>
1.1547

> <Gold.Chemscore.Rot.Weighted>
2.5600

> <Gold.Chemscore.Internal.Correction.Weighted>
   9.000000E+99

> <Gold.Protein.RotatedTorsions>
[ 6907 6896 6895 6894 ] final  164.18 input  -60.11 | X-H torsion
[ 7974 7965 7964 7962 ] final   51.37 input  175.53 | X-H torsion
[ 8008 7997 7996 7995 ] final  167.64 input   59.86 | X-H torsion
[ 10167 10162 10161 10158 ] final -147.44 input  -65.29 | X-H torsion
[ 10718 10713 10712 10709 ] final  115.54 input   66.30 | X-H torsion
[ 10763 10752 10751 10750 ] final  106.14 input  -60.55 | X-H torsion
[ 11005 11000 10999 10996 ] final  111.98 input  -57.11 | X-H torsion

> <Gold.Protein.ActiveResidues>
 VAL166  LYS551  ARG553  GLY616  TRP617  ASP618  TYR619  PRO620  LYS621  CYS622 
 ASP623  PHE694  ASN695  SER759  ASP760  ASP761  ALA762  ILE779  LEU786  VAL792 
 PHE793  MET794  SER795  GLU796  ALA797  LYS798  CYS799  TRP800  GLU811  SER814 

> <Gold.Protein.RotatedAtoms>
  151.9138  133.3568  159.3872 H   0  0  0  0  0  0  0  0  0  0  0  0  # atno 6907 bound_to 6896
  150.7052  134.4705  159.5432 H   0  0  0  0  0  0  0  0  0  0  0  0  # atno 6908 bound_to 6896
  152.2316  134.8317  160.0523 H   0  0  0  0  0  0  0  0  0  0  0  0  # atno 6909 bound_to 6896
  145.9920  139.4348  143.0068 H   0  0  0  0  0  0  0  0  0  0  0  0  # atno 7974 bound_to 7965
  156.1616  140.1611  156.8602 H   0  0  0  0  0  0  0  0  0  0  0  0  # atno 8008 bound_to 7997
  154.5166  140.0788  156.8129 H   0  0  0  0  0  0  0  0  0  0  0  0  # atno 8009 bound_to 7997
  155.3696  140.3399  155.4245 H   0  0  0  0  0  0  0  0  0  0  0  0  # atno 8010 bound_to 7997
  139.7621  143.8361  152.2609 H   0  0  0  0  0  0  0  0  0  0  0  0  # atno 10167 bound_to 10162
  157.6216  131.1014  150.7344 H   0  0  0  0  0  0  0  0  0  0  0  0  # atno 10718 bound_to 10713
  153.3889  135.3887  155.1909 H   0  0  0  0  0  0  0  0  0  0  0  0  # atno 10763 bound_to 10752
  154.8717  135.3743  154.4763 H   0  0  0  0  0  0  0  0  0  0  0  0  # atno 10764 bound_to 10752
  153.5248  135.7086  153.5774 H   0  0  0  0  0  0  0  0  0  0  0  0  # atno 10765 bound_to 10752
  139.8916  134.9520  156.6515 H   0  0  0  0  0  0  0  0  0  0  0  0  # atno 11005 bound_to 11000
  145.7616  140.9933  143.1197 LP  0  0  0  0  0  0  0  0  0  0  0  0  # atno 17320 bound_to 7965
  144.6892  139.9337  143.7472 LP  0  0  0  0  0  0  0  0  0  0  0  0  # atno 17321 bound_to 7965
  139.8370  144.7227  150.9378 LP  0  0  0  0  0  0  0  0  0  0  0  0  # atno 17342 bound_to 10162
  140.7808  143.4017  151.1137 LP  0  0  0  0  0  0  0  0  0  0  0  0  # atno 17343 bound_to 10162
  156.7700  130.4826  149.5420 LP  0  0  0  0  0  0  0  0  0  0  0  0  # atno 17370 bound_to 10713
  156.1364  130.6214  151.0406 LP  0  0  0  0  0  0  0  0  0  0  0  0  # atno 17371 bound_to 10713
  140.7517  133.8892  155.8352 LP  0  0  0  0  0  0  0  0  0  0  0  0  # atno 17394 bound_to 11000
  140.9995  134.1169  157.4331 LP  0  0  0  0  0  0  0  0  0  0  0  0  # atno 17395 bound_to 11000

$$$$
