AV-unprocessed.smi:1033|AV-procd|sdf|4513|dock1
  -GOLD-   22720 2523D 1   1.00000     0.00000
 Structure written by MMmdl.
 57 59  0  0  0  0  0  0  0  0  3 V2000
  151.3099  141.5968  158.1851 C   0  0  0  0  0  0  0  0  0  0  0  0
  150.4927  141.1805  156.9747 C   0  0  0  0  0  0  0  0  0  0  0  0
  149.1794  141.6808  156.8278 C   0  0  0  0  0  0  0  0  0  0  0  0
  148.3860  141.3175  155.7178 C   0  0  0  0  0  0  0  0  0  0  0  0
  147.0952  141.6839  155.3771 N   0  0  0  0  0  0  0  0  0  0  0  0
  146.9190  141.0192  154.2392 C   0  0  0  0  0  0  0  0  0  0  0  0
  147.9464  140.2683  153.7979 N   0  0  0  0  0  0  0  0  0  0  0  0
  147.9843  139.4642  152.5892 C   0  0  0  0  0  0  0  0  0  0  0  0
  146.5854  138.9863  152.1551 C   0  0  1  0  0  0  0  0  0  0  0  0
  146.5390  138.8884  150.7443 O   0  0  0  0  0  0  0  0  0  0  0  0
  146.2429  137.6068  152.7517 C   0  0  0  0  0  0  0  0  0  0  0  0
  145.0947  136.9580  152.0673 N   0  3  2  0  0  0  0  0  0  0  0  0
  144.1688  136.2582  152.9946 C   0  0  0  0  0  0  0  0  0  0  0  0
  142.9515  135.6944  152.2371 C   0  0  0  0  0  0  0  0  0  0  0  0
  143.3576  134.7947  151.1279 N   0  3  2  0  0  0  0  0  0  0  0  0
  143.7866  133.4445  151.5840 C   0  0  0  0  0  0  0  0  0  0  0  0
  144.0897  132.4869  150.4137 C   0  0  1  0  0  0  0  0  0  0  0  0
  144.6047  131.1294  150.9091 C   0  0  0  0  0  0  0  0  0  0  0  0
  142.9062  132.2563  149.6762 O   0  0  0  0  0  0  0  0  0  0  0  0
  144.3124  135.4738  150.2122 C   0  0  0  0  0  0  0  0  0  0  0  0
  145.5242  136.0656  150.9619 C   0  0  0  0  0  0  0  0  0  0  0  0
  148.9466  140.4327  154.7505 C   0  0  0  0  0  0  0  0  0  0  0  0
  150.2527  139.9294  154.8849 C   0  0  0  0  0  0  0  0  0  0  0  0
  151.0313  140.3019  156.0007 C   0  0  0  0  0  0  0  0  0  0  0  0
  152.4403  139.7524  156.1372 C   0  0  0  0  0  0  0  0  0  0  0  0
  150.7699  142.3153  158.8022 H   0  0  0  0  0  0  0  0  0  0  0  0
  152.2460  142.0612  157.8745 H   0  0  0  0  0  0  0  0  0  0  0  0
  151.5415  140.7301  158.8046 H   0  0  0  0  0  0  0  0  0  0  0  0
  148.7689  142.3502  157.5697 H   0  0  0  0  0  0  0  0  0  0  0  0
  145.9893  141.0839  153.6927 H   0  0  0  0  0  0  0  0  0  0  0  0
  148.4551  140.0472  151.7964 H   0  0  0  0  0  0  0  0  0  0  0  0
  148.6347  138.6077  152.7720 H   0  0  0  0  0  0  0  0  0  0  0  0
  145.8542  139.7308  152.4689 H   0  0  0  0  0  0  0  0  0  0  0  0
  145.6488  138.7000  150.4846 H   0  0  0  0  0  0  0  0  0  0  0  0
  147.1260  136.9704  152.6715 H   0  0  0  0  0  0  0  0  0  0  0  0
  146.0278  137.6912  153.8180 H   0  0  0  0  0  0  0  0  0  0  0  0
  144.7005  135.4554  153.5079 H   0  0  0  0  0  0  0  0  0  0  0  0
  143.8174  136.9426  153.7660 H   0  0  0  0  0  0  0  0  0  0  0  0
  142.2772  135.1773  152.9208 H   0  0  0  0  0  0  0  0  0  0  0  0
  142.3761  136.5194  151.8150 H   0  0  0  0  0  0  0  0  0  0  0  0
  144.6578  133.5337  152.2330 H   0  0  0  0  0  0  0  0  0  0  0  0
  143.0040  132.9963  152.1984 H   0  0  0  0  0  0  0  0  0  0  0  0
  144.8364  132.9098  149.7427 H   0  0  0  0  0  0  0  0  0  0  0  0
  145.5332  131.2441  151.4691 H   0  0  0  0  0  0  0  0  0  0  0  0
  144.8065  130.4568  150.0746 H   0  0  0  0  0  0  0  0  0  0  0  0
  143.8805  130.6409  151.5624 H   0  0  0  0  0  0  0  0  0  0  0  0
  142.3466  133.0147  149.7414 H   0  0  0  0  0  0  0  0  0  0  0  0
  144.6476  134.8004  149.4242 H   0  0  0  0  0  0  0  0  0  0  0  0
  143.7774  136.2802  149.7084 H   0  0  0  0  0  0  0  0  0  0  0  0
  146.1367  136.6288  150.2565 H   0  0  0  0  0  0  0  0  0  0  0  0
  146.1585  135.2719  151.3590 H   0  0  0  0  0  0  0  0  0  0  0  0
  150.6525  139.2624  154.1357 H   0  0  0  0  0  0  0  0  0  0  0  0
  152.6724  139.0492  155.3368 H   0  0  0  0  0  0  0  0  0  0  0  0
  152.5581  139.2281  157.0857 H   0  0  0  0  0  0  0  0  0  0  0  0
  153.1700  140.5611  156.0952 H   0  0  0  0  0  0  0  0  0  0  0  0
  142.5158  134.6293  150.5943 H   0  0  0  0  0  0  0  0  0  0  0  0
  144.5724  137.7078  151.6354 H   0  0  0  0  0  0  0  0  0  0  0  0
  1  2  1  0  0  0  0
  1 26  1  0  0  0  0
  1 27  1  0  0  0  0
  1 28  1  0  0  0  0
  2 24  1  0  0  0  0
  2  3  2  0  0  0  0
  3  4  1  0  0  0  0
  3 29  1  0  0  0  0
  4 22  2  0  0  0  0
  4  5  1  0  0  0  0
  5  6  2  0  0  0  0
  6  7  1  0  0  0  0
  6 30  1  0  0  0  0
  7  8  1  0  0  0  0
  7 22  1  0  0  0  0
  8  9  1  0  0  0  0
  8 31  1  0  0  0  0
  8 32  1  0  0  0  0
  9 10  1  0  0  0  0
  9 11  1  0  0  0  0
  9 33  1  0  0  0  0
 10 34  1  0  0  0  0
 11 12  1  0  0  0  0
 11 35  1  0  0  0  0
 11 36  1  0  0  0  0
 12 21  1  0  0  0  0
 12 13  1  0  0  0  0
 12 57  1  0  0  0  0
 13 14  1  0  0  0  0
 13 37  1  0  0  0  0
 13 38  1  0  0  0  0
 14 15  1  0  0  0  0
 14 39  1  0  0  0  0
 14 40  1  0  0  0  0
 15 16  1  0  0  0  0
 15 20  1  0  0  0  0
 15 56  1  0  0  0  0
 16 17  1  0  0  0  0
 16 41  1  0  0  0  0
 16 42  1  0  0  0  0
 17 18  1  0  0  0  0
 17 19  1  0  0  0  0
 17 43  1  0  0  0  0
 18 44  1  0  0  0  0
 18 45  1  0  0  0  0
 18 46  1  0  0  0  0
 19 47  1  0  0  0  0
 20 21  1  0  0  0  0
 20 48  1  0  0  0  0
 20 49  1  0  0  0  0
 21 50  1  0  0  0  0
 21 51  1  0  0  0  0
 22 23  1  0  0  0  0
 23 24  2  0  0  0  0
 23 52  1  0  0  0  0
 24 25  1  0  0  0  0
 25 53  1  0  0  0  0
 25 54  1  0  0  0  0
 25 55  1  0  0  0  0
M  CHG  1  12   1
M  CHG  1  15   1
M  END
> <s_m_source_file>
AV-unprocessed.smi

> <i_m_source_file_index>
1033

> <i_lp_mmshare_version>
43012

> <i_f3d_flags>
0

> <s_epik_input>
W0NIM11jKFtjSF0xKWMoW0NIM10pW2NIXWMoYzEyKW4oW2NIXW4yKVtDSDJdW0NASF0oW09IXSlbQ0gyXU4zW0NIMl1bQ0gyXU4oW0NIMl1bQ0gyXTMpW0NIMl1bQ0BIXShbQ0gzXSlbT0hd

> <s_epik_cmdline>
J2VwaWtfcHl0aG9uJywgJy1waCcsICc3LjAnLCAnLXRuJywgJzgnLCAnLW1hJywgJzIwMCcsICctbWV0YWxfYmluZGluZycsICctaW1hZScsICc8aW5maWxlLm1hZT4nLCAnLW9tYWUnLCAnPG91dGZpbGUubWFlPic=

> <r_epik_Ionization_Penalty>
3.16016

> <r_epik_Ionization_Penalty_Charging>
3.07679

> <r_epik_Ionization_Penalty_Neutral>
0.083365

> <r_epik_State_Penalty>
2.09701

> <r_epik_Charging_Adjusted_Penalty>
5.1738

> <i_epik_Tot_Q>
2

> <i_epik_Tot_abs_Q>
2

> <r_epik_Metal_State_Penalty>
2.02534

> <b_epik_Metal_Only>
0

> <s_lp_Force_Field>
OPLS_2005

> <r_lp_Energy>
29.7728

> <b_lp_Chiralities_Consistent>
1

> <s_lp_Variant>
AV-unprocessed.smi:1033-24

> <Gold.Version>
5.8.1

> <Gold.Id.Protein>
6NUR|6NUR_protein|mol2

> <Gold.PLP.Fitness>
61.6466

> <Gold.PLP.PLP>
-43.8285

> <Gold.PLP.part.hbond>
-6.3820

> <Gold.PLP.part.metal>
0.0000

> <Gold.PLP.part.buried>
1.7220

> <Gold.PLP.part.nonpolar>
-39.7314

> <Gold.PLP.part.repulsive>
0.1263

> <Gold.PLP.ligand.clash>
0.0000

> <Gold.PLP.ligand.torsion>
1.4158

> <Gold.PLP.Chemscore.Hbond>
5.7985

> <Gold.PLP.Chemscore.CHOScore>
1.0000

> <Gold.PLP.Chemscore.Metal>
0.0000

> <Gold.Chemscore.Hbonds>
donor molecule, donor type, donor heavy atom, donor atom, acceptor molecule, acceptor atom, score
      L1  H    10    34       P1 10171  1.00
      L1  H    12    57       P1 10171  0.67
      L1  H    15    56       P1 10186  1.70
      L1  H    19    47       P1 10186  1.00
      P1  H  7954  7966       L1    10  0.66
      P1  H 10785 10796       L1    19  0.26
      L1  C     6    30       P1 10175  0.66

> <Gold.PLP.Chemscore.Internal.Correction>
0.2541

> <Gold.Rescore>
     Score         DG    S(hbond)    S(metal)    S(lipo)     H(rot)  DE(clash)    DE(int)     intcor
     19.89     -24.40       4.04        0.00     114.95       3.14       2.11       2.41       ----

> <Gold.Chemscore.Fitness>
19.8913

> <Gold.Chemscore.DG>
-24.4044

> <Gold.Chemscore.ZeroCoef>
-5.4800

> <Gold.Chemscore.Hbond>
4.0446

> <Gold.Chemscore.Metal>
0.0000

> <Gold.Chemscore.Lipo>
114.9452

> <Gold.Chemscore.Internal_Hbond>
0.0000

> <Gold.Chemscore.DEClash>
2.1063

> <Gold.Chemscore.DEInternal>
2.4068

> <Gold.Chemscore.Rot>
3.1380

> <Gold.Chemscore.Internal.Correction>
   9.000000E+99

> <Gold.Chemscore.Hbonds>
donor molecule, donor type, donor heavy atom, donor atom, acceptor molecule, acceptor atom, score
      L1  H    10    34       P1 10171  1.00
      L1  H    12    57       P1 10171  0.64
      L1  H    15    56       P1 10186  0.15
      L1  H    19    47       P1 10186  0.99
      P1  H  7954  7966       L1    10  0.58
      P1  H 10785 10796       L1    19  0.12

> <Gold.Chemscore.Hbond.Weighted>
-13.5090

> <Gold.Chemscore.Metal.Weighted>
-0.0000

> <Gold.Chemscore.Lipo.Weighted>
-13.4486

> <Gold.Chemscore.Internal_Hbond.Weighted>
0.0000

> <Gold.Chemscore.DEClash.Weighted>
2.1063

> <Gold.Chemscore.DEInternal.Weighted>
2.4068

> <Gold.Chemscore.Rot.Weighted>
8.0332

> <Gold.Chemscore.Internal.Correction.Weighted>
   9.000000E+99

> <Gold.Protein.RotatedTorsions>
[ 6907 6896 6895 6894 ] final   41.54 input  -60.11 | X-H torsion
[ 7974 7965 7964 7962 ] final  -74.19 input  175.53 | X-H torsion
[ 8008 7997 7996 7995 ] final -107.01 input   59.86 | X-H torsion
[ 10167 10162 10161 10158 ] final  -19.93 input  -65.29 | X-H torsion
[ 10718 10713 10712 10709 ] final   97.51 input   66.30 | X-H torsion
[ 10763 10752 10751 10750 ] final  -78.78 input  -60.55 | X-H torsion
[ 11005 11000 10999 10996 ] final  159.92 input  -57.11 | X-H torsion

> <Gold.Protein.ActiveResidues>
 VAL166  LYS551  ARG553  GLY616  TRP617  ASP618  TYR619  PRO620  LYS621  CYS622 
 ASP623  PHE694  ASN695  SER759  ASP760  ASP761  ALA762  ILE779  LEU786  VAL792 
 PHE793  MET794  SER795  GLU796  ALA797  LYS798  CYS799  TRP800  GLU811  SER814 

> <Gold.Protein.RotatedAtoms>
  152.1966  134.8625  160.0512 H   0  0  0  0  0  0  0  0  0  0  0  0  # atno 6907 bound_to 6896
  151.9495  133.3656  159.4003 H   0  0  0  0  0  0  0  0  0  0  0  0  # atno 6908 bound_to 6896
  150.6946  134.4279  159.5279 H   0  0  0  0  0  0  0  0  0  0  0  0  # atno 6909 bound_to 6896
  145.6423  140.9307  143.1029 H   0  0  0  0  0  0  0  0  0  0  0  0  # atno 7974 bound_to 7965
  154.9229  140.0407  157.2007 H   0  0  0  0  0  0  0  0  0  0  0  0  # atno 8008 bound_to 7997
  154.8236  140.2887  155.5748 H   0  0  0  0  0  0  0  0  0  0  0  0  # atno 8009 bound_to 7997
  156.2982  140.2514  156.3147 H   0  0  0  0  0  0  0  0  0  0  0  0  # atno 8010 bound_to 7997
  140.7272  143.4771  151.0168 H   0  0  0  0  0  0  0  0  0  0  0  0  # atno 10167 bound_to 10162
  157.6911  131.0612  150.4655 H   0  0  0  0  0  0  0  0  0  0  0  0  # atno 10718 bound_to 10713
  154.5302  135.5718  153.6752 H   0  0  0  0  0  0  0  0  0  0  0  0  # atno 10763 bound_to 10752
  152.9937  135.6203  154.2639 H   0  0  0  0  0  0  0  0  0  0  0  0  # atno 10764 bound_to 10752
  154.2565  135.2857  155.2775 H   0  0  0  0  0  0  0  0  0  0  0  0  # atno 10765 bound_to 10752
  140.2009  134.8339  157.3016 H   0  0  0  0  0  0  0  0  0  0  0  0  # atno 11005 bound_to 11000
  144.7153  139.8221  143.7401 LP  0  0  0  0  0  0  0  0  0  0  0  0  # atno 17320 bound_to 7965
  146.1271  139.4299  143.0192 LP  0  0  0  0  0  0  0  0  0  0  0  0  # atno 17321 bound_to 7965
  139.8467  143.7492  152.3179 LP  0  0  0  0  0  0  0  0  0  0  0  0  # atno 17342 bound_to 10162
  139.7660  144.7492  151.0294 LP  0  0  0  0  0  0  0  0  0  0  0  0  # atno 17343 bound_to 10162
  156.4996  130.4114  149.6360 LP  0  0  0  0  0  0  0  0  0  0  0  0  # atno 17370 bound_to 10713
  156.3340  130.7347  151.2281 LP  0  0  0  0  0  0  0  0  0  0  0  0  # atno 17371 bound_to 10713
  140.2056  134.4202  155.7639 LP  0  0  0  0  0  0  0  0  0  0  0  0  # atno 17394 bound_to 11000
  141.2227  133.7093  156.8254 LP  0  0  0  0  0  0  0  0  0  0  0  0  # atno 17395 bound_to 11000

$$$$
