AV-unprocessed.smi:2087|AV-procd|sdf|8524|dock9
  -GOLD-   2272011243D 1   1.00000     0.00000
 Structure written by MMmdl.
 50 51  0  0  0  0  0  0  0  0  1 V2000
  153.2351  143.1055  160.4572 C   0  0  0  0  0  0  0  0  0  0  0  0
  152.4854  143.7293  159.2711 C   0  0  0  0  0  0  0  0  0  0  0  0
  152.1498  145.2013  159.5618 C   0  0  0  0  0  0  0  0  0  0  0  0
  151.2212  142.9067  158.9406 C   0  0  0  0  0  0  0  0  0  0  0  0
  151.4395  141.6856  158.1634 N   0  0  0  0  0  0  0  0  0  0  0  0
  152.3396  140.7442  158.8256 C   0  0  0  0  0  0  0  0  0  0  0  0
  152.5397  139.4639  157.9965 C   0  0  0  0  0  0  0  0  0  0  0  0
  151.2789  138.8611  157.7258 O   0  0  0  0  0  0  0  0  0  0  0  0
  150.3768  139.7312  157.0462 C   0  0  1  0  0  0  0  0  0  0  0  0
  149.0670  138.9765  156.7467 C   0  0  0  0  0  0  0  0  0  0  0  0
  148.3385  138.6078  157.9576 N   0  0  0  0  0  0  0  0  0  0  0  0
  147.3437  139.3185  158.5097 C   0  0  0  0  0  0  0  0  0  0  0  0
  146.9336  140.3825  158.0436 O   0  0  0  0  0  0  0  0  0  0  0  0
  146.7050  138.7154  159.7683 C   0  0  0  0  0  0  0  0  0  0  0  0
  146.6966  137.2468  159.7617 N   0  0  0  0  0  0  0  0  0  0  0  0
  146.1177  136.5693  158.7041 C   0  0  0  0  0  0  0  0  0  0  0  0
  146.0574  135.2218  158.6265 C   0  0  0  0  0  0  0  0  0  0  0  0
  146.6150  134.3838  159.6817 C   0  0  0  0  0  0  0  0  0  0  0  0
  146.5816  133.1533  159.6467 O   0  0  0  0  0  0  0  0  0  0  0  0
  147.1996  135.1034  160.7523 N   0  0  0  0  0  0  0  0  0  0  0  0
  147.7844  134.3757  161.8595 C   0  0  0  0  0  0  0  0  0  0  0  0
  147.2578  136.5122  160.8280 C   0  0  0  0  0  0  0  0  0  0  0  0
  147.7772  137.0894  161.7868 O   0  0  0  0  0  0  0  0  0  0  0  0
  150.1763  141.0120  157.8846 C   0  0  0  0  0  0  0  0  0  0  0  0
  152.6222  143.1072  161.3593 H   0  0  0  0  0  0  0  0  0  0  0  0
  154.1510  143.6550  160.6767 H   0  0  0  0  0  0  0  0  0  0  0  0
  153.5154  142.0729  160.2468 H   0  0  0  0  0  0  0  0  0  0  0  0
  153.1671  143.6990  158.4217 H   0  0  0  0  0  0  0  0  0  0  0  0
  151.4663  145.2924  160.4063 H   0  0  0  0  0  0  0  0  0  0  0  0
  151.6808  145.6788  158.7011 H   0  0  0  0  0  0  0  0  0  0  0  0
  153.0494  145.7702  159.7979 H   0  0  0  0  0  0  0  0  0  0  0  0
  150.7042  142.6531  159.8675 H   0  0  0  0  0  0  0  0  0  0  0  0
  150.5385  143.5570  158.3916 H   0  0  0  0  0  0  0  0  0  0  0  0
  153.3141  141.2009  158.9928 H   0  0  0  0  0  0  0  0  0  0  0  0
  151.9437  140.4808  159.8076 H   0  0  0  0  0  0  0  0  0  0  0  0
  153.0505  139.6885  157.0589 H   0  0  0  0  0  0  0  0  0  0  0  0
  153.1640  138.7541  158.5394 H   0  0  0  0  0  0  0  0  0  0  0  0
  150.8281  140.0040  156.0905 H   0  0  0  0  0  0  0  0  0  0  0  0
  148.4124  139.6130  156.1511 H   0  0  0  0  0  0  0  0  0  0  0  0
  149.2698  138.0963  156.1342 H   0  0  0  0  0  0  0  0  0  0  0  0
  148.6079  137.7437  158.4054 H   0  0  0  0  0  0  0  0  0  0  0  0
  147.2572  139.0788  160.6361 H   0  0  0  0  0  0  0  0  0  0  0  0
  145.6888  139.0961  159.8859 H   0  0  0  0  0  0  0  0  0  0  0  0
  145.6866  137.1452  157.8981 H   0  0  0  0  0  0  0  0  0  0  0  0
  145.5888  134.7571  157.7714 H   0  0  0  0  0  0  0  0  0  0  0  0
  148.8386  134.6551  161.9083 H   0  0  0  0  0  0  0  0  0  0  0  0
  147.6949  133.2989  161.7205 H   0  0  0  0  0  0  0  0  0  0  0  0
  147.2500  134.6771  162.7621 H   0  0  0  0  0  0  0  0  0  0  0  0
  149.6812  140.7654  158.8251 H   0  0  0  0  0  0  0  0  0  0  0  0
  149.5087  141.6889  157.3501 H   0  0  0  0  0  0  0  0  0  0  0  0
  1  2  1  0  0  0  0
  1 25  1  0  0  0  0
  1 26  1  0  0  0  0
  1 27  1  0  0  0  0
  2  3  1  0  0  0  0
  2  4  1  0  0  0  0
  2 28  1  0  0  0  0
  3 29  1  0  0  0  0
  3 30  1  0  0  0  0
  3 31  1  0  0  0  0
  4  5  1  0  0  0  0
  4 32  1  0  0  0  0
  4 33  1  0  0  0  0
  5 24  1  0  0  0  0
  5  6  1  0  0  0  0
  6  7  1  0  0  0  0
  6 34  1  0  0  0  0
  6 35  1  0  0  0  0
  7  8  1  0  0  0  0
  7 36  1  0  0  0  0
  7 37  1  0  0  0  0
  8  9  1  0  0  0  0
  9 10  1  0  0  0  0
  9 24  1  0  0  0  0
  9 38  1  0  0  0  0
 10 11  1  0  0  0  0
 10 39  1  0  0  0  0
 10 40  1  0  0  0  0
 11 12  1  0  0  0  0
 11 41  1  0  0  0  0
 12 13  2  0  0  0  0
 12 14  1  0  0  0  0
 14 15  1  0  0  0  0
 14 42  1  0  0  0  0
 14 43  1  0  0  0  0
 15 22  1  0  0  0  0
 15 16  1  0  0  0  0
 16 17  2  0  0  0  0
 16 44  1  0  0  0  0
 17 18  1  0  0  0  0
 17 45  1  0  0  0  0
 18 19  2  0  0  0  0
 18 20  1  0  0  0  0
 20 21  1  0  0  0  0
 20 22  1  0  0  0  0
 21 46  1  0  0  0  0
 21 47  1  0  0  0  0
 21 48  1  0  0  0  0
 22 23  2  0  0  0  0
 24 49  1  0  0  0  0
 24 50  1  0  0  0  0
M  END
> <s_m_source_file>
AV-unprocessed.smi

> <i_m_source_file_index>
2087

> <i_lp_mmshare_version>
43012

> <i_f3d_flags>
0

> <s_epik_input>
W0NIM11bQ0hdKFtDSDNdKVtDSDJdTjFbQ0gyXVtDSDJdT1tDQEhdKFtDSDJdMSlbQ0gyXVtOSF1DKD1PKVtDSDJdbjJbY0hdW2NIXWMoPU8pbihbQ0gzXSljMj1P

> <s_epik_cmdline>
J2VwaWtfcHl0aG9uJywgJy1waCcsICc3LjAnLCAnLXRuJywgJzgnLCAnLW1hJywgJzIwMCcsICctbWV0YWxfYmluZGluZycsICctaW1hZScsICc8aW5maWxlLm1hZT4nLCAnLW9tYWUnLCAnPG91dGZpbGUubWFlPic=

> <r_lp_tautomer_probability>
1

> <r_epik_Ionization_Penalty>
1.11669

> <r_epik_Ionization_Penalty_Charging>
1.16423e-08

> <r_epik_Ionization_Penalty_Neutral>
1.11669

> <r_epik_State_Penalty>
1.17516

> <r_epik_Charging_Adjusted_Penalty>
1.17516

> <i_epik_Tot_Q>
0

> <i_epik_Tot_abs_Q>
0

> <r_epik_Metal_State_Penalty>
1.17513

> <b_epik_Metal_Only>
0

> <s_lp_Force_Field>
OPLS_2005

> <r_lp_Energy>
34.2639

> <b_lp_Chiralities_Consistent>
1

> <s_lp_Variant>
AV-unprocessed.smi:2087-5

> <Gold.Version>
5.8.1

> <Gold.Id.Protein>
6NUR|6NUR_protein|mol2

> <Gold.PLP.Fitness>
44.8399

> <Gold.PLP.PLP>
-40.9459

> <Gold.PLP.part.hbond>
-2.0000

> <Gold.PLP.part.metal>
0.0000

> <Gold.PLP.part.buried>
-6.3152

> <Gold.PLP.part.nonpolar>
-32.8751

> <Gold.PLP.part.repulsive>
0.1319

> <Gold.PLP.ligand.clash>
0.0000

> <Gold.PLP.ligand.torsion>
0.7847

> <Gold.PLP.Chemscore.Hbond>
1.7760

> <Gold.PLP.Chemscore.CHOScore>
0.0000

> <Gold.PLP.Chemscore.Metal>
0.0000

> <Gold.Chemscore.Hbonds>
donor molecule, donor type, donor heavy atom, donor atom, acceptor molecule, acceptor atom, score
      P1  H  6931  6943       L1    23  1.00
      P1  H  6934  6947       L1    23  0.23

> <Gold.PLP.Chemscore.Internal.Correction>
0.1355

> <Gold.Rescore>
     Score         DG    S(hbond)    S(metal)    S(lipo)     H(rot)  DE(clash)    DE(int)     intcor
     15.51     -16.36       1.78        0.00      89.65       2.16       0.01       0.85       ----

> <Gold.Chemscore.Fitness>
15.5078

> <Gold.Chemscore.DG>
-16.3643

> <Gold.Chemscore.ZeroCoef>
-5.4800

> <Gold.Chemscore.Hbond>
1.7769

> <Gold.Chemscore.Metal>
0.0000

> <Gold.Chemscore.Lipo>
89.6475

> <Gold.Chemscore.Internal_Hbond>
0.0000

> <Gold.Chemscore.DEClash>
0.0057

> <Gold.Chemscore.DEInternal>
0.8507

> <Gold.Chemscore.Rot>
2.1638

> <Gold.Chemscore.Internal.Correction>
   9.000000E+99

> <Gold.Chemscore.Hbonds>
donor molecule, donor type, donor heavy atom, donor atom, acceptor molecule, acceptor atom, score
      P1  H  6931  6943       L1    23  0.98
      P1  H  6934  6947       L1    23  0.01

> <Gold.Chemscore.Hbond.Weighted>
-5.9348

> <Gold.Chemscore.Metal.Weighted>
-0.0000

> <Gold.Chemscore.Lipo.Weighted>
-10.4888

> <Gold.Chemscore.Internal_Hbond.Weighted>
0.0000

> <Gold.Chemscore.DEClash.Weighted>
0.0057

> <Gold.Chemscore.DEInternal.Weighted>
0.8507

> <Gold.Chemscore.Rot.Weighted>
5.5393

> <Gold.Chemscore.Internal.Correction.Weighted>
   9.000000E+99

> <Gold.Protein.RotatedTorsions>
[ 6907 6896 6895 6894 ] final  -15.12 input  -60.11 | X-H torsion
[ 7974 7965 7964 7962 ] final   11.11 input  175.53 | X-H torsion
[ 8008 7997 7996 7995 ] final   54.71 input   59.86 | X-H torsion
[ 10167 10162 10161 10158 ] final  169.65 input  -65.29 | X-H torsion
[ 10718 10713 10712 10709 ] final -139.50 input   66.30 | X-H torsion
[ 10763 10752 10751 10750 ] final   15.07 input  -60.55 | X-H torsion
[ 11005 11000 10999 10996 ] final  138.20 input  -57.11 | X-H torsion

> <Gold.Protein.ActiveResidues>
 VAL166  LYS551  ARG553  GLY616  TRP617  ASP618  TYR619  PRO620  LYS621  CYS622 
 ASP623  PHE694  ASN695  SER759  ASP760  ASP761  ALA762  ILE779  LEU786  VAL792 
 PHE793  MET794  SER795  GLU796  ALA797  LYS798  CYS799  TRP800  GLU811  SER814 

> <Gold.Protein.RotatedAtoms>
  151.3288  135.0836  159.9331 H   0  0  0  0  0  0  0  0  0  0  0  0  # atno 6907 bound_to 6896
  152.5239  133.9564  159.7706 H   0  0  0  0  0  0  0  0  0  0  0  0  # atno 6908 bound_to 6896
  150.9899  133.6108  159.2740 H   0  0  0  0  0  0  0  0  0  0  0  0  # atno 6909 bound_to 6896
  146.2377  139.9534  142.8467 H   0  0  0  0  0  0  0  0  0  0  0  0  # atno 7974 bound_to 7965
  155.4891  140.3471  155.4352 H   0  0  0  0  0  0  0  0  0  0  0  0  # atno 8008 bound_to 7997
  156.0988  140.1430  156.9523 H   0  0  0  0  0  0  0  0  0  0  0  0  # atno 8009 bound_to 7997
  154.4681  140.0910  156.7050 H   0  0  0  0  0  0  0  0  0  0  0  0  # atno 8010 bound_to 7997
  139.4998  144.3683  151.9752 H   0  0  0  0  0  0  0  0  0  0  0  0  # atno 10167 bound_to 10162
  156.3115  130.7484  151.1561 H   0  0  0  0  0  0  0  0  0  0  0  0  # atno 10718 bound_to 10713
  153.1560  135.6787  153.8811 H   0  0  0  0  0  0  0  0  0  0  0  0  # atno 10763 bound_to 10752
  153.8222  135.3128  155.3412 H   0  0  0  0  0  0  0  0  0  0  0  0  # atno 10764 bound_to 10752
  154.7898  135.4841  154.0114 H   0  0  0  0  0  0  0  0  0  0  0  0  # atno 10765 bound_to 10752
  140.0167  134.9415  157.0390 H   0  0  0  0  0  0  0  0  0  0  0  0  # atno 11005 bound_to 11000
  145.1839  140.9780  143.4250 LP  0  0  0  0  0  0  0  0  0  0  0  0  # atno 17320 bound_to 7965
  144.9917  139.3683  143.6211 LP  0  0  0  0  0  0  0  0  0  0  0  0  # atno 17321 bound_to 7965
  140.3119  144.3528  150.6031 LP  0  0  0  0  0  0  0  0  0  0  0  0  # atno 17342 bound_to 10162
  140.5792  143.2174  151.7460 LP  0  0  0  0  0  0  0  0  0  0  0  0  # atno 17343 bound_to 10162
  157.7392  131.0532  150.5247 LP  0  0  0  0  0  0  0  0  0  0  0  0  # atno 17370 bound_to 10713
  156.5387  130.4202  149.6165 LP  0  0  0  0  0  0  0  0  0  0  0  0  # atno 17371 bound_to 10713
  140.4459  134.1633  155.7177 LP  0  0  0  0  0  0  0  0  0  0  0  0  # atno 17394 bound_to 11000
  141.1747  133.8537  157.1458 LP  0  0  0  0  0  0  0  0  0  0  0  0  # atno 17395 bound_to 11000

$$$$
