AV-unprocessed.smi:1840|AV-procd|sdf|7495|dock4
  -GOLD-   22720 9193D 1   1.00000     0.00000
 Structure written by MMmdl.
 43 44  0  0  0  0  0  0  0  0  1 V2000
  147.9760  138.0429  155.9647 C   0  0  0  0  0  0  0  0  0  0  0  0
  147.5576  138.4379  154.5421 C   0  0  1  0  0  0  0  0  0  0  0  0
  148.5056  139.5040  153.9516 C   0  0  0  0  0  0  0  0  0  0  0  0
  149.8917  139.2950  154.3346 N   0  0  0  0  0  0  0  0  0  0  0  0
  150.6940  138.2021  154.0831 C   0  0  0  0  0  0  0  0  0  0  0  0
  151.9079  138.4485  154.6576 C   0  0  0  0  0  0  0  0  0  0  0  0
  151.7500  139.7360  155.2427 C   0  0  0  0  0  0  0  0  0  0  0  0
  150.5442  140.2427  155.0432 N   0  0  0  0  0  0  0  0  0  0  0  0
  147.5328  137.2411  153.7015 N   0  0  0  0  0  0  0  0  0  0  0  0
  146.5756  136.3015  153.7159 C   0  0  0  0  0  0  0  0  0  0  0  0
  145.6184  136.3010  154.4906 O   0  0  0  0  0  0  0  0  0  0  0  0
  146.7696  135.3796  152.7631 N   0  0  0  0  0  0  0  0  0  0  0  0
  145.8671  134.2669  152.4753 C   0  0  1  0  0  0  0  0  0  0  0  0
  144.8108  134.7086  151.4391 C   0  0  0  0  0  0  0  0  0  0  0  0
  143.8717  133.5548  151.0605 C   0  0  0  0  0  0  0  0  0  0  0  0
  144.6658  132.3456  150.5487 C   0  0  0  0  0  0  0  0  0  0  0  0
  145.7071  131.8924  151.5830 C   0  0  0  0  0  0  0  0  0  0  0  0
  146.6645  133.0364  151.9756 C   0  0  2  0  0  0  0  0  0  0  0  0
  147.6976  132.5460  153.0062 C   0  0  0  0  0  0  0  0  0  0  0  0
  147.9743  138.9087  156.6275 H   0  0  0  0  0  0  0  0  0  0  0  0
  148.9788  137.6143  155.9806 H   0  0  0  0  0  0  0  0  0  0  0  0
  147.2913  137.3057  156.3855 H   0  0  0  0  0  0  0  0  0  0  0  0
  146.5548  138.8638  154.6092 H   0  0  0  0  0  0  0  0  0  0  0  0
  148.4562  139.4841  152.8621 H   0  0  0  0  0  0  0  0  0  0  0  0
  148.1955  140.5048  154.2576 H   0  0  0  0  0  0  0  0  0  0  0  0
  150.3349  137.3466  153.5302 H   0  0  0  0  0  0  0  0  0  0  0  0
  152.7754  137.8056  154.6627 H   0  0  0  0  0  0  0  0  0  0  0  0
  152.4710  140.3138  155.8020 H   0  0  0  0  0  0  0  0  0  0  0  0
  148.2746  137.1495  153.0229 H   0  0  0  0  0  0  0  0  0  0  0  0
  147.5834  135.4688  152.1727 H   0  0  0  0  0  0  0  0  0  0  0  0
  145.3521  133.9831  153.3956 H   0  0  0  0  0  0  0  0  0  0  0  0
  144.2225  135.5399  151.8298 H   0  0  0  0  0  0  0  0  0  0  0  0
  145.3071  135.0803  150.5414 H   0  0  0  0  0  0  0  0  0  0  0  0
  143.2801  133.2641  151.9295 H   0  0  0  0  0  0  0  0  0  0  0  0
  143.1638  133.8851  150.2998 H   0  0  0  0  0  0  0  0  0  0  0  0
  143.9862  131.5240  150.3210 H   0  0  0  0  0  0  0  0  0  0  0  0
  145.1648  132.6031  149.6136 H   0  0  0  0  0  0  0  0  0  0  0  0
  145.1958  131.5194  152.4716 H   0  0  0  0  0  0  0  0  0  0  0  0
  146.2744  131.0527  151.1803 H   0  0  0  0  0  0  0  0  0  0  0  0
  147.2117  133.3292  151.0779 H   0  0  0  0  0  0  0  0  0  0  0  0
  147.2179  132.2745  153.9470 H   0  0  0  0  0  0  0  0  0  0  0  0
  148.4456  133.3089  153.2225 H   0  0  0  0  0  0  0  0  0  0  0  0
  148.2297  131.6678  152.6399 H   0  0  0  0  0  0  0  0  0  0  0  0
  1  2  1  0  0  0  0
  1 20  1  0  0  0  0
  1 21  1  0  0  0  0
  1 22  1  0  0  0  0
  2  3  1  0  0  0  0
  2  9  1  0  0  0  0
  2 23  1  0  0  0  0
  3  4  1  0  0  0  0
  3 24  1  0  0  0  0
  3 25  1  0  0  0  0
  4  8  1  0  0  0  0
  4  5  1  0  0  0  0
  5  6  2  0  0  0  0
  5 26  1  0  0  0  0
  6  7  1  0  0  0  0
  6 27  1  0  0  0  0
  7  8  2  0  0  0  0
  7 28  1  0  0  0  0
  9 10  1  0  0  0  0
  9 29  1  0  0  0  0
 10 11  2  0  0  0  0
 10 12  1  0  0  0  0
 12 13  1  0  0  0  0
 12 30  1  0  0  0  0
 13 18  1  0  0  0  0
 13 14  1  0  0  0  0
 13 31  1  0  0  0  0
 14 15  1  0  0  0  0
 14 32  1  0  0  0  0
 14 33  1  0  0  0  0
 15 16  1  0  0  0  0
 15 34  1  0  0  0  0
 15 35  1  0  0  0  0
 16 17  1  0  0  0  0
 16 36  1  0  0  0  0
 16 37  1  0  0  0  0
 17 18  1  0  0  0  0
 17 38  1  0  0  0  0
 17 39  1  0  0  0  0
 18 19  1  0  0  0  0
 18 40  1  0  0  0  0
 19 41  1  0  0  0  0
 19 42  1  0  0  0  0
 19 43  1  0  0  0  0
M  END
> <s_m_source_file>
AV-unprocessed.smi

> <i_m_source_file_index>
1840

> <i_lp_mmshare_version>
43012

> <i_f3d_flags>
0

> <s_epik_input>
bjFbY0hdW2NIXVtjSF1uMVtDSDJdW0NAQEhdKFtDSDNdKVtOSF1DKD1PKVtOSF1bQ0BASF0yW0NIMl1bQ0gyXVtDSDJdW0NIMl1bQ0BIXTJbQ0gzXQ==

> <s_epik_cmdline>
J2VwaWtfcHl0aG9uJywgJy1waCcsICc3LjAnLCAnLXRuJywgJzgnLCAnLW1hJywgJzIwMCcsICctbWV0YWxfYmluZGluZycsICctaW1hZScsICc8aW5maWxlLm1hZT4nLCAnLW9tYWUnLCAnPG91dGZpbGUubWFlPic=

> <r_lp_tautomer_probability>
1

> <r_epik_Ionization_Penalty>
7.38659e-05

> <r_epik_Ionization_Penalty_Charging>
0

> <r_epik_Ionization_Penalty_Neutral>
7.38659e-05

> <r_epik_State_Penalty>
-0

> <r_epik_Charging_Adjusted_Penalty>
0

> <i_epik_Tot_Q>
0

> <i_epik_Tot_abs_Q>
0

> <r_epik_Metal_State_Penalty>
-0

> <b_epik_Metal_Only>
0

> <s_lp_Force_Field>
OPLS_2005

> <r_lp_Energy>
7.84096

> <b_lp_Chiralities_Consistent>
1

> <s_lp_Variant>
AV-unprocessed.smi:1840-8

> <Gold.Version>
5.8.1

> <Gold.Id.Protein>
6NUR|6NUR_protein|mol2

> <Gold.PLP.Fitness>
41.2071

> <Gold.PLP.PLP>
-33.6301

> <Gold.PLP.part.hbond>
-2.8756

> <Gold.PLP.part.metal>
0.0000

> <Gold.PLP.part.buried>
-2.7014

> <Gold.PLP.part.nonpolar>
-28.3285

> <Gold.PLP.part.repulsive>
0.0828

> <Gold.PLP.ligand.clash>
0.0000

> <Gold.PLP.ligand.torsion>
0.8598

> <Gold.PLP.Chemscore.Hbond>
1.9760

> <Gold.PLP.Chemscore.CHOScore>
1.1180

> <Gold.PLP.Chemscore.Metal>
0.0000

> <Gold.Chemscore.Hbonds>
donor molecule, donor type, donor heavy atom, donor atom, acceptor molecule, acceptor atom, score
      L1  H     9    29       P1  7948  0.96
      L1  H    12    30       P1  7948  0.99
      L1  C     5    26       P1  7948  0.81
      L1  C     5    26       P1  7949  0.30

> <Gold.PLP.Chemscore.Internal.Correction>
0.0145

> <Gold.Rescore>
     Score         DG    S(hbond)    S(metal)    S(lipo)     H(rot)  DE(clash)    DE(int)     intcor
     15.80     -16.63       1.91        0.00      75.03       1.56       0.16       0.68       ----

> <Gold.Chemscore.Fitness>
15.7982

> <Gold.Chemscore.DG>
-16.6337

> <Gold.Chemscore.ZeroCoef>
-5.4800

> <Gold.Chemscore.Hbond>
1.9051

> <Gold.Chemscore.Metal>
0.0000

> <Gold.Chemscore.Lipo>
75.0257

> <Gold.Chemscore.Internal_Hbond>
0.0000

> <Gold.Chemscore.DEClash>
0.1580

> <Gold.Chemscore.DEInternal>
0.6774

> <Gold.Chemscore.Rot>
1.5576

> <Gold.Chemscore.Internal.Correction>
   9.000000E+99

> <Gold.Chemscore.Hbonds>
donor molecule, donor type, donor heavy atom, donor atom, acceptor molecule, acceptor atom, score
      L1  H     9    29       P1  7948  0.91
      L1  H    12    30       P1  7948  0.91

> <Gold.Chemscore.Hbond.Weighted>
-6.3632

> <Gold.Chemscore.Metal.Weighted>
-0.0000

> <Gold.Chemscore.Lipo.Weighted>
-8.7780

> <Gold.Chemscore.Internal_Hbond.Weighted>
0.0000

> <Gold.Chemscore.DEClash.Weighted>
0.1580

> <Gold.Chemscore.DEInternal.Weighted>
0.6774

> <Gold.Chemscore.Rot.Weighted>
3.9875

> <Gold.Chemscore.Internal.Correction.Weighted>
   9.000000E+99

> <Gold.Protein.RotatedTorsions>
[ 6907 6896 6895 6894 ] final  -53.52 input  -60.11 | X-H torsion
[ 7974 7965 7964 7962 ] final  -81.48 input  175.53 | X-H torsion
[ 8008 7997 7996 7995 ] final   98.90 input   59.86 | X-H torsion
[ 10167 10162 10161 10158 ] final  155.77 input  -65.29 | X-H torsion
[ 10718 10713 10712 10709 ] final  -90.81 input   66.30 | X-H torsion
[ 10763 10752 10751 10750 ] final -165.39 input  -60.55 | X-H torsion
[ 11005 11000 10999 10996 ] final   60.90 input  -57.11 | X-H torsion

> <Gold.Protein.ActiveResidues>
 VAL166  LYS551  ARG553  GLY616  TRP617  ASP618  TYR619  PRO620  LYS621  CYS622 
 ASP623  PHE694  ASN695  SER759  ASP760  ASP761  ALA762  ILE779  LEU786  VAL792 
 PHE793  MET794  SER795  GLU796  ALA797  LYS798  CYS799  TRP800  GLU811  SER814 

> <Gold.Protein.RotatedAtoms>
  150.8419  134.7714  159.6938 H   0  0  0  0  0  0  0  0  0  0  0  0  # atno 6907 bound_to 6896
  152.4504  134.5401  159.9846 H   0  0  0  0  0  0  0  0  0  0  0  0  # atno 6908 bound_to 6896
  151.5540  133.3375  159.2994 H   0  0  0  0  0  0  0  0  0  0  0  0  # atno 6909 bound_to 6896
  145.5461  140.9503  143.1524 H   0  0  0  0  0  0  0  0  0  0  0  0  # atno 7974 bound_to 7965
  156.1051  140.3237  155.7995 H   0  0  0  0  0  0  0  0  0  0  0  0  # atno 8008 bound_to 7997
  155.4770  140.0551  157.2989 H   0  0  0  0  0  0  0  0  0  0  0  0  # atno 8009 bound_to 7997
  154.4722  140.2016  155.9981 H   0  0  0  0  0  0  0  0  0  0  0  0  # atno 8010 bound_to 7997
  139.4821  144.5069  151.8084 H   0  0  0  0  0  0  0  0  0  0  0  0  # atno 10167 bound_to 10162
  155.9990  130.4924  150.5379 H   0  0  0  0  0  0  0  0  0  0  0  0  # atno 10718 bound_to 10713
  154.6936  135.2975  154.9444 H   0  0  0  0  0  0  0  0  0  0  0  0  # atno 10763 bound_to 10752
  154.0399  135.6659  153.4793 H   0  0  0  0  0  0  0  0  0  0  0  0  # atno 10764 bound_to 10752
  153.0630  135.5105  154.8042 H   0  0  0  0  0  0  0  0  0  0  0  0  # atno 10765 bound_to 10752
  140.0199  134.6168  155.9655 H   0  0  0  0  0  0  0  0  0  0  0  0  # atno 11005 bound_to 11000
  144.7552  139.7091  143.7257 LP  0  0  0  0  0  0  0  0  0  0  0  0  # atno 17320 bound_to 7965
  146.1948  139.5209  142.9781 LP  0  0  0  0  0  0  0  0  0  0  0  0  # atno 17321 bound_to 7965
  140.4567  144.1779  150.5902 LP  0  0  0  0  0  0  0  0  0  0  0  0  # atno 17342 bound_to 10162
  140.4527  143.2480  151.9326 LP  0  0  0  0  0  0  0  0  0  0  0  0  # atno 17343 bound_to 10162
  157.3319  131.0701  151.1854 LP  0  0  0  0  0  0  0  0  0  0  0  0  # atno 17370 bound_to 10713
  157.2732  130.6714  149.6029 LP  0  0  0  0  0  0  0  0  0  0  0  0  # atno 17371 bound_to 10713
  141.1767  133.6541  156.4857 LP  0  0  0  0  0  0  0  0  0  0  0  0  # atno 17394 bound_to 11000
  140.4405  134.7020  157.4989 LP  0  0  0  0  0  0  0  0  0  0  0  0  # atno 17395 bound_to 11000

$$$$
