AV-unprocessed.smi:21|AV-procd|sdf|127|dock7
  -GOLD-   2262015313D 1   1.00000     0.00000
 Structure written by MMmdl.
 62 65  0  0  0  0  0  0  0  0  2 V2000
  145.9237  133.0886  150.8450 C   0  0  0  0  0  0  0  0  0  0  0  0
  145.7400  133.9130  151.9849 O   0  0  0  0  0  0  0  0  0  0  0  0
  144.7873  134.9510  151.7947 C   0  0  1  0  0  0  0  0  0  0  0  0
  144.5805  135.6791  153.1168 C   0  0  0  0  0  0  0  0  0  0  0  0
  145.7631  136.6541  153.2038 C   0  0  2  0  0  0  0  0  0  0  0  0
  145.4685  137.9063  154.0699 C   0  0  0  0  0  0  0  0  0  0  0  0
  145.6659  137.6729  155.5005 N   0  0  0  0  0  0  0  0  0  0  0  0
  144.9426  136.5633  156.1209 C   0  0  0  0  0  0  0  0  0  0  0  0
  146.7279  138.2229  156.1626 C   0  0  0  0  0  0  0  0  0  0  0  0
  146.8234  138.0162  157.5048 N   0  0  0  0  0  0  0  0  0  0  0  0
  147.8431  138.5119  158.2093 C   0  0  0  0  0  0  0  0  0  0  0  0
  148.8741  139.2382  157.7809 N   0  0  0  0  0  0  0  0  0  0  0  0
  148.7923  139.4622  156.4396 C   0  0  0  0  0  0  0  0  0  0  0  0
  147.7657  139.0044  155.5615 C   0  0  0  0  0  0  0  0  0  0  0  0
  148.0381  139.4523  154.2710 N   0  0  0  0  0  0  0  0  0  0  0  0
  149.1526  140.1208  154.3793 C   0  0  0  0  0  0  0  0  0  0  0  0
  149.6807  140.1661  155.6472 N   0  0  0  0  0  0  0  0  0  0  0  0
  150.9056  140.8261  156.0605 C   0  0  0  0  0  0  0  0  0  0  0  0
  151.0638  140.9466  157.6000 C   0  0  1  0  0  0  0  0  0  0  0  0
  151.6509  139.6589  158.2334 C   0  0  0  0  0  0  0  0  0  0  0  0
  152.9704  139.4019  157.7976 O   0  0  0  0  0  0  0  0  0  0  0  0
  151.9218  142.1894  157.9563 C   0  0  2  0  0  0  0  0  0  0  0  0
  152.1260  142.4284  159.4442 C   0  0  0  0  0  0  0  0  0  0  0  0
  152.5458  143.8934  159.4895 C   0  0  0  0  0  0  0  0  0  0  0  0
  151.8836  144.5193  158.3976 O   0  0  0  0  0  0  0  0  0  0  0  0
  151.3004  143.5327  157.5532 C   0  0  0  0  0  0  0  0  0  0  0  0
  146.1732  136.9200  151.7940 N   0  3  2  0  0  0  0  0  0  0  0  0
  146.2444  138.3302  151.3452 C   0  0  0  0  0  0  0  0  0  0  0  0
  145.3566  136.0612  150.9070 C   0  0  0  0  0  0  0  0  0  0  0  0
  143.8451  134.5505  151.4160 H   0  0  0  0  0  0  0  0  0  0  0  0
  146.6042  136.1126  153.6374 H   0  0  0  0  0  0  0  0  0  0  0  0
  146.6761  132.3310  151.0624 H   0  0  0  0  0  0  0  0  0  0  0  0
  146.2647  133.6590  149.9810 H   0  0  0  0  0  0  0  0  0  0  0  0
  144.9990  132.5743  150.5803 H   0  0  0  0  0  0  0  0  0  0  0  0
  143.6425  136.2345  153.0746 H   0  0  0  0  0  0  0  0  0  0  0  0
  144.5252  135.0023  153.9702 H   0  0  0  0  0  0  0  0  0  0  0  0
  146.0698  138.7606  153.7673 H   0  0  0  0  0  0  0  0  0  0  0  0
  144.4373  138.2211  153.9079 H   0  0  0  0  0  0  0  0  0  0  0  0
  144.5605  136.8520  157.1008 H   0  0  0  0  0  0  0  0  0  0  0  0
  145.5941  135.6974  156.2440 H   0  0  0  0  0  0  0  0  0  0  0  0
  144.0899  136.2554  155.5157 H   0  0  0  0  0  0  0  0  0  0  0  0
  147.8318  138.2930  159.2669 H   0  0  0  0  0  0  0  0  0  0  0  0
  149.6277  140.5929  153.5317 H   0  0  0  0  0  0  0  0  0  0  0  0
  151.7525  140.2844  155.6377 H   0  0  0  0  0  0  0  0  0  0  0  0
  150.9070  141.8101  155.5920 H   0  0  0  0  0  0  0  0  0  0  0  0
  150.0748  141.1094  158.0318 H   0  0  0  0  0  0  0  0  0  0  0  0
  151.6299  139.7176  159.3220 H   0  0  0  0  0  0  0  0  0  0  0  0
  151.0684  138.7819  157.9572 H   0  0  0  0  0  0  0  0  0  0  0  0
  153.3162  138.6803  158.3006 H   0  0  0  0  0  0  0  0  0  0  0  0
  152.9007  142.1038  157.4816 H   0  0  0  0  0  0  0  0  0  0  0  0
  151.1879  142.2920  159.9845 H   0  0  0  0  0  0  0  0  0  0  0  0
  152.8765  141.7776  159.8927 H   0  0  0  0  0  0  0  0  0  0  0  0
  152.2925  144.3700  160.4367 H   0  0  0  0  0  0  0  0  0  0  0  0
  153.6223  143.9858  159.3404 H   0  0  0  0  0  0  0  0  0  0  0  0
  151.4703  143.7749  156.5040 H   0  0  0  0  0  0  0  0  0  0  0  0
  150.2236  143.5284  157.7283 H   0  0  0  0  0  0  0  0  0  0  0  0
  145.2746  138.8239  151.4185 H   0  0  0  0  0  0  0  0  0  0  0  0
  146.5646  138.3743  150.3039 H   0  0  0  0  0  0  0  0  0  0  0  0
  146.9734  138.8914  151.9299 H   0  0  0  0  0  0  0  0  0  0  0  0
  145.9363  135.6943  150.0608 H   0  0  0  0  0  0  0  0  0  0  0  0
  144.5276  136.6462  150.5053 H   0  0  0  0  0  0  0  0  0  0  0  0
  147.1155  136.5620  151.7283 H   0  0  0  0  0  0  0  0  0  0  0  0
  1  2  1  0  0  0  0
  1 32  1  0  0  0  0
  1 33  1  0  0  0  0
  1 34  1  0  0  0  0
  2  3  1  0  0  0  0
  3 30  1  0  0  0  0
  3 29  1  0  0  0  0
  3  4  1  0  0  0  0
  4  5  1  0  0  0  0
  4 35  1  0  0  0  0
  4 36  1  0  0  0  0
  5 31  1  0  0  0  0
  5  6  1  0  0  0  0
  5 27  1  0  0  0  0
  6  7  1  0  0  0  0
  6 37  1  0  0  0  0
  6 38  1  0  0  0  0
  7  8  1  0  0  0  0
  7  9  1  0  0  0  0
  8 39  1  0  0  0  0
  8 40  1  0  0  0  0
  8 41  1  0  0  0  0
  9 14  1  0  0  0  0
  9 10  2  0  0  0  0
 10 11  1  0  0  0  0
 11 12  2  0  0  0  0
 11 42  1  0  0  0  0
 12 13  1  0  0  0  0
 13 17  1  0  0  0  0
 13 14  2  0  0  0  0
 14 15  1  0  0  0  0
 15 16  2  0  0  0  0
 16 17  1  0  0  0  0
 16 43  1  0  0  0  0
 17 18  1  0  0  0  0
 18 19  1  0  0  0  0
 18 44  1  0  0  0  0
 18 45  1  0  0  0  0
 19 20  1  0  0  0  0
 19 22  1  0  0  0  0
 19 46  1  0  0  0  0
 20 21  1  0  0  0  0
 20 47  1  0  0  0  0
 20 48  1  0  0  0  0
 21 49  1  0  0  0  0
 22 26  1  0  0  0  0
 22 23  1  0  0  0  0
 22 50  1  0  0  0  0
 23 24  1  0  0  0  0
 23 51  1  0  0  0  0
 23 52  1  0  0  0  0
 24 25  1  0  0  0  0
 24 53  1  0  0  0  0
 24 54  1  0  0  0  0
 25 26  1  0  0  0  0
 26 55  1  0  0  0  0
 26 56  1  0  0  0  0
 27 28  1  0  0  0  0
 27 29  1  0  0  0  0
 27 62  1  0  0  0  0
 28 57  1  0  0  0  0
 28 58  1  0  0  0  0
 28 59  1  0  0  0  0
 29 60  1  0  0  0  0
 29 61  1  0  0  0  0
M  CHG  1  27   1
M  END
> <s_m_source_file>
AV-unprocessed.smi

> <i_m_source_file_index>
21

> <i_lp_mmshare_version>
43012

> <i_f3d_flags>
0

> <s_epik_input>
W0NIM11PW0NASF0xW0NIMl1bQ0BIXShOKFtDSDNdKVtDSDJdMSlbQ0gyXU4oW0NIM10pYyhuW2NIXW4yKWMoYzIzKW5bY0hdbjNbQ0gyXVtDQEhdKFtDSDJdW09IXSlbQ0BASF00W0NIMl1bQ0gyXU9bQ0gyXTQ=

> <s_epik_cmdline>
J2VwaWtfcHl0aG9uJywgJy1waCcsICc3LjAnLCAnLXRuJywgJzgnLCAnLW1hJywgJzIwMCcsICctbWV0YWxfYmluZGluZycsICctaW1hZScsICc8aW5maWxlLm1hZT4nLCAnLW9tYWUnLCAnPG91dGZpbGUubWFlPic=

> <r_lp_tautomer_probability>
1

> <r_epik_Ionization_Penalty>
0.0157465

> <r_epik_Ionization_Penalty_Charging>
0.015354

> <r_epik_Ionization_Penalty_Neutral>
0.000392529

> <r_epik_State_Penalty>
0.0120612

> <r_epik_Charging_Adjusted_Penalty>
0.0274152

> <i_epik_Tot_Q>
1

> <i_epik_Tot_abs_Q>
1

> <r_epik_Metal_State_Penalty>
0.0121253

> <b_epik_Metal_Only>
0

> <s_lp_Force_Field>
OPLS_2005

> <r_lp_Energy>
61.4457

> <b_lp_Chiralities_Consistent>
1

> <s_lp_Variant>
AV-unprocessed.smi:21-7

> <Gold.Version>
5.8.1

> <Gold.Id.Protein>
6NUR|6NUR_protein|mol2

> <Gold.PLP.Fitness>
48.7667

> <Gold.PLP.PLP>
-38.0262

> <Gold.PLP.part.hbond>
-2.0000

> <Gold.PLP.part.metal>
0.0000

> <Gold.PLP.part.buried>
-4.0371

> <Gold.PLP.part.nonpolar>
-32.9320

> <Gold.PLP.part.repulsive>
0.4113

> <Gold.PLP.ligand.clash>
0.0000

> <Gold.PLP.ligand.torsion>
0.9465

> <Gold.PLP.Chemscore.Hbond>
3.0000

> <Gold.PLP.Chemscore.CHOScore>
0.9725

> <Gold.PLP.Chemscore.Metal>
0.0000

> <Gold.Chemscore.Hbonds>
donor molecule, donor type, donor heavy atom, donor atom, acceptor molecule, acceptor atom, score
      L1  H    27    62       P1  7948  2.00
      P1  H  7997  8008       L1    21  1.00
      L1  C    16    43       P1  7957  1.00

> <Gold.PLP.Chemscore.Internal.Correction>
0.7160

> <Gold.Rescore>
     Score         DG    S(hbond)    S(metal)    S(lipo)     H(rot)  DE(clash)    DE(int)     intcor
      9.21     -15.39       1.88        0.00      98.30       3.08       0.44       5.75       ----

> <Gold.Chemscore.Fitness>
9.2117

> <Gold.Chemscore.DG>
-15.3943

> <Gold.Chemscore.ZeroCoef>
-5.4800

> <Gold.Chemscore.Hbond>
1.8824

> <Gold.Chemscore.Metal>
0.0000

> <Gold.Chemscore.Lipo>
98.2997

> <Gold.Chemscore.Internal_Hbond>
0.0000

> <Gold.Chemscore.DEClash>
0.4369

> <Gold.Chemscore.DEInternal>
5.7456

> <Gold.Chemscore.Rot>
3.0758

> <Gold.Chemscore.Internal.Correction>
   9.000000E+99

> <Gold.Chemscore.Hbonds>
donor molecule, donor type, donor heavy atom, donor atom, acceptor molecule, acceptor atom, score
      L1  H    27    62       P1  7948  1.00
      P1  H  7997  8008       L1    21  0.26

> <Gold.Chemscore.Hbond.Weighted>
-6.2873

> <Gold.Chemscore.Metal.Weighted>
-0.0000

> <Gold.Chemscore.Lipo.Weighted>
-11.5011

> <Gold.Chemscore.Internal_Hbond.Weighted>
0.0000

> <Gold.Chemscore.DEClash.Weighted>
0.4369

> <Gold.Chemscore.DEInternal.Weighted>
5.7456

> <Gold.Chemscore.Rot.Weighted>
7.8741

> <Gold.Chemscore.Internal.Correction.Weighted>
   9.000000E+99

> <Gold.Protein.RotatedTorsions>
[ 6907 6896 6895 6894 ] final  -91.51 input  -60.11 | X-H torsion
[ 7974 7965 7964 7962 ] final   75.64 input  175.53 | X-H torsion
[ 8008 7997 7996 7995 ] final  -84.11 input   59.86 | X-H torsion
[ 10167 10162 10161 10158 ] final   38.61 input  -65.29 | X-H torsion
[ 10718 10713 10712 10709 ] final  157.50 input   66.30 | X-H torsion
[ 10763 10752 10751 10750 ] final   68.52 input  -60.55 | X-H torsion
[ 11005 11000 10999 10996 ] final -140.53 input  -57.11 | X-H torsion

> <Gold.Protein.ActiveResidues>
 VAL166  LYS551  ARG553  GLY616  TRP617  ASP618  TYR619  PRO620  LYS621  CYS622 
 ASP623  PHE694  ASN695  SER759  ASP760  ASP761  ALA762  ILE779  LEU786  VAL792 
 PHE793  MET794  SER795  GLU796  ALA797  LYS798  CYS799  TRP800  GLU811  SER814 

> <Gold.Protein.RotatedAtoms>
  150.6893  134.2265  159.4417 H   0  0  0  0  0  0  0  0  0  0  0  0  # atno 6907 bound_to 6896
  152.0218  134.9816  160.0580 H   0  0  0  0  0  0  0  0  0  0  0  0  # atno 6908 bound_to 6896
  152.1389  133.4417  159.4794 H   0  0  0  0  0  0  0  0  0  0  0  0  # atno 6909 bound_to 6896
  145.7131  139.2621  143.1639 H   0  0  0  0  0  0  0  0  0  0  0  0  # atno 7974 bound_to 7965
  154.6262  140.0609  156.9677 H   0  0  0  0  0  0  0  0  0  0  0  0  # atno 8008 bound_to 7997
  155.1737  140.3293  155.4369 H   0  0  0  0  0  0  0  0  0  0  0  0  # atno 8009 bound_to 7997
  156.2459  140.1909  156.6838 H   0  0  0  0  0  0  0  0  0  0  0  0  # atno 8010 bound_to 7997
  140.3920  144.1840  150.6131 H   0  0  0  0  0  0  0  0  0  0  0  0  # atno 10167 bound_to 10162
  157.1906  131.0653  151.2081 H   0  0  0  0  0  0  0  0  0  0  0  0  # atno 10718 bound_to 10713
  153.0239  135.5244  154.7147 H   0  0  0  0  0  0  0  0  0  0  0  0  # atno 10763 bound_to 10752
  154.6219  135.2890  155.0318 H   0  0  0  0  0  0  0  0  0  0  0  0  # atno 10764 bound_to 10752
  154.1302  135.6594  153.4973 H   0  0  0  0  0  0  0  0  0  0  0  0  # atno 10765 bound_to 10752
  140.8413  134.2398  157.4808 H   0  0  0  0  0  0  0  0  0  0  0  0  # atno 11005 bound_to 11000
  146.0695  140.7885  142.9695 LP  0  0  0  0  0  0  0  0  0  0  0  0  # atno 17320 bound_to 7965
  144.6936  140.3319  143.7214 LP  0  0  0  0  0  0  0  0  0  0  0  0  # atno 17321 bound_to 7965
  140.4830  143.2372  151.8928 LP  0  0  0  0  0  0  0  0  0  0  0  0  # atno 17342 bound_to 10162
  139.4788  144.5249  151.8749 LP  0  0  0  0  0  0  0  0  0  0  0  0  # atno 17343 bound_to 10162
  157.3864  130.7259  149.6666 LP  0  0  0  0  0  0  0  0  0  0  0  0  # atno 17370 bound_to 10713
  155.9712  130.4158  150.4200 LP  0  0  0  0  0  0  0  0  0  0  0  0  # atno 17371 bound_to 10713
  139.8703  134.9637  156.4470 LP  0  0  0  0  0  0  0  0  0  0  0  0  # atno 17394 bound_to 11000
  140.8892  133.7861  155.9552 LP  0  0  0  0  0  0  0  0  0  0  0  0  # atno 17395 bound_to 11000

$$$$
