AV-unprocessed.smi:1703|AV-procd|sdf|6872|dock2
  -GOLD-   22720 8 73D 1   1.00000     0.00000
 Structure written by MMmdl.
 49 51  0  0  0  0  0  0  0  0  2 V2000
  149.5101  132.2471  154.0989 C   0  0  0  0  0  0  0  0  0  0  0  0
  149.3074  133.3787  155.1119 C   0  0  1  0  0  0  0  0  0  0  0  0
  150.0584  134.6597  154.7074 C   0  0  0  0  0  0  0  0  0  0  0  0
  149.8017  135.7590  155.6297 N   0  0  0  0  0  0  0  0  0  0  0  0
  150.5638  136.9487  155.2458 C   0  0  0  0  0  0  0  0  0  0  0  0
  150.3244  138.1992  156.1145 C   0  0  1  0  0  0  0  0  0  0  0  0
  150.4238  137.8232  157.4737 O   0  0  0  0  0  0  0  0  0  0  0  0
  151.3543  139.3040  155.8086 C   0  0  0  0  0  0  0  0  0  0  0  0
  150.9183  140.6359  156.2614 N   0  0  0  0  0  0  0  0  0  0  0  0
  149.9767  141.4763  155.7416 C   0  0  0  0  0  0  0  0  0  0  0  0
  149.1201  141.2381  154.5415 C   0  0  0  0  0  0  0  0  0  0  0  0
  149.8647  140.7923  153.4295 O   0  0  0  0  0  0  0  0  0  0  0  0
  149.9475  142.5873  156.5303 N   0  3  0  0  0  0  0  0  0  0  0  0
  150.8757  142.4587  157.5637 C   0  0  0  0  0  0  0  0  0  0  0  0
  151.2037  143.3219  158.6047 C   0  0  0  0  0  0  0  0  0  0  0  0
  152.2001  142.8827  159.5009 C   0  0  0  0  0  0  0  0  0  0  0  0
  152.8268  141.6294  159.3443 C   0  0  0  0  0  0  0  0  0  0  0  0
  152.4870  140.7640  158.2837 C   0  0  0  0  0  0  0  0  0  0  0  0
  151.5024  141.2062  157.3997 C   0  0  0  0  0  0  0  0  0  0  0  0
  148.3608  136.0032  155.6838 C   0  0  0  0  0  0  0  0  0  0  0  0
  147.5551  134.7408  156.0514 C   0  0  2  0  0  0  0  0  0  0  0  0
  147.6718  134.3552  157.5361 C   0  0  0  0  0  0  0  0  0  0  0  0
  147.9108  133.6564  155.1926 O   0  0  0  0  0  0  0  0  0  0  0  0
  150.5650  131.9879  154.0056 H   0  0  0  0  0  0  0  0  0  0  0  0
  149.1464  132.5317  153.1113 H   0  0  0  0  0  0  0  0  0  0  0  0
  148.9734  131.3491  154.4058 H   0  0  0  0  0  0  0  0  0  0  0  0
  149.6663  133.0372  156.0833 H   0  0  0  0  0  0  0  0  0  0  0  0
  151.1282  134.4496  154.6735 H   0  0  0  0  0  0  0  0  0  0  0  0
  149.7668  134.9504  153.6967 H   0  0  0  0  0  0  0  0  0  0  0  0
  151.6300  136.7192  155.2768 H   0  0  0  0  0  0  0  0  0  0  0  0
  150.3454  137.1879  154.2038 H   0  0  0  0  0  0  0  0  0  0  0  0
  149.3284  138.6041  155.9435 H   0  0  0  0  0  0  0  0  0  0  0  0
  150.7135  138.5755  157.9680 H   0  0  0  0  0  0  0  0  0  0  0  0
  152.3257  139.0723  156.2457 H   0  0  0  0  0  0  0  0  0  0  0  0
  151.5201  139.3668  154.7331 H   0  0  0  0  0  0  0  0  0  0  0  0
  148.3620  140.4919  154.7807 H   0  0  0  0  0  0  0  0  0  0  0  0
  148.5926  142.1546  154.2772 H   0  0  0  0  0  0  0  0  0  0  0  0
  149.3231  140.2105  152.9179 H   0  0  0  0  0  0  0  0  0  0  0  0
  150.7223  144.2809  158.7287 H   0  0  0  0  0  0  0  0  0  0  0  0
  152.4875  143.5184  160.3259 H   0  0  0  0  0  0  0  0  0  0  0  0
  153.5831  141.3237  160.0527 H   0  0  0  0  0  0  0  0  0  0  0  0
  152.9693  139.8035  158.1790 H   0  0  0  0  0  0  0  0  0  0  0  0
  148.1270  136.7865  156.4031 H   0  0  0  0  0  0  0  0  0  0  0  0
  148.0199  136.3662  154.7129 H   0  0  0  0  0  0  0  0  0  0  0  0
  146.5021  134.9489  155.8597 H   0  0  0  0  0  0  0  0  0  0  0  0
  147.2841  135.1498  158.1738 H   0  0  0  0  0  0  0  0  0  0  0  0
  148.7047  134.1752  157.8331 H   0  0  0  0  0  0  0  0  0  0  0  0
  147.0998  133.4522  157.7496 H   0  0  0  0  0  0  0  0  0  0  0  0
  149.3315  143.3742  156.3721 H   0  0  0  0  0  0  0  0  0  0  0  0
  1  2  1  0  0  0  0
  1 24  1  0  0  0  0
  1 25  1  0  0  0  0
  1 26  1  0  0  0  0
  2 23  1  0  0  0  0
  2  3  1  0  0  0  0
  2 27  1  0  0  0  0
  3  4  1  0  0  0  0
  3 28  1  0  0  0  0
  3 29  1  0  0  0  0
  4  5  1  0  0  0  0
  4 20  1  0  0  0  0
  5  6  1  0  0  0  0
  5 30  1  0  0  0  0
  5 31  1  0  0  0  0
  6  7  1  0  0  0  0
  6  8  1  0  0  0  0
  6 32  1  0  0  0  0
  7 33  1  0  0  0  0
  8  9  1  0  0  0  0
  8 34  1  0  0  0  0
  8 35  1  0  0  0  0
  9 19  1  0  0  0  0
  9 10  1  0  0  0  0
 10 11  1  0  0  0  0
 10 13  2  0  0  0  0
 11 12  1  0  0  0  0
 11 36  1  0  0  0  0
 11 37  1  0  0  0  0
 12 38  1  0  0  0  0
 13 14  1  0  0  0  0
 13 49  1  0  0  0  0
 14 19  2  0  0  0  0
 14 15  1  0  0  0  0
 15 16  2  0  0  0  0
 15 39  1  0  0  0  0
 16 17  1  0  0  0  0
 16 40  1  0  0  0  0
 17 18  2  0  0  0  0
 17 41  1  0  0  0  0
 18 19  1  0  0  0  0
 18 42  1  0  0  0  0
 20 21  1  0  0  0  0
 20 43  1  0  0  0  0
 20 44  1  0  0  0  0
 21 22  1  0  0  0  0
 21 23  1  0  0  0  0
 21 45  1  0  0  0  0
 22 46  1  0  0  0  0
 22 47  1  0  0  0  0
 22 48  1  0  0  0  0
M  CHG  1  13   1
M  END
> <s_m_source_file>
AV-unprocessed.smi

> <i_m_source_file_index>
1703

> <i_lp_mmshare_version>
43012

> <i_f3d_flags>
0

> <s_epik_input>
W0NIM11bQ0BASF0xW0NIMl1OKFtDSDJdW0NASF0oTzEpW0NIM10pW0NIMl1bQ0BIXShbT0hdKVtDSDJdbihjKG4yKVtDSDJdW09IXSljKGMyMylbY0hdW2NIXVtjSF1bY0hdMw==

> <s_epik_cmdline>
J2VwaWtfcHl0aG9uJywgJy1waCcsICc3LjAnLCAnLXRuJywgJzgnLCAnLW1hJywgJzIwMCcsICctbWV0YWxfYmluZGluZycsICctaW1hZScsICc8aW5maWxlLm1hZT4nLCAnLW9tYWUnLCAnPG91dGZpbGUubWFlPic=

> <r_epik_Ionization_Penalty>
1.7682

> <r_epik_Ionization_Penalty_Charging>
1.55298

> <r_epik_Ionization_Penalty_Neutral>
0.215215

> <r_epik_State_Penalty>
1.83821

> <r_epik_Charging_Adjusted_Penalty>
3.39119

> <i_epik_Tot_Q>
1

> <i_epik_Tot_abs_Q>
1

> <r_epik_Metal_State_Penalty>
5.89206

> <b_epik_Metal_Only>
0

> <s_lp_Force_Field>
OPLS_2005

> <r_lp_Energy>
35.5587

> <b_lp_Chiralities_Consistent>
1

> <s_lp_Variant>
AV-unprocessed.smi:1703-20

> <Gold.Version>
5.8.1

> <Gold.Id.Protein>
6NUR|6NUR_protein|mol2

> <Gold.PLP.Fitness>
48.5712

> <Gold.PLP.PLP>
-38.4823

> <Gold.PLP.part.hbond>
-3.3849

> <Gold.PLP.part.metal>
0.0000

> <Gold.PLP.part.buried>
-4.3292

> <Gold.PLP.part.nonpolar>
-30.8332

> <Gold.PLP.part.repulsive>
0.1734

> <Gold.PLP.ligand.clash>
0.0000

> <Gold.PLP.ligand.torsion>
0.5359

> <Gold.PLP.Chemscore.Hbond>
3.7040

> <Gold.PLP.Chemscore.CHOScore>
0.0000

> <Gold.PLP.Chemscore.Metal>
0.0000

> <Gold.Chemscore.Hbonds>
donor molecule, donor type, donor heavy atom, donor atom, acceptor molecule, acceptor atom, score
      L1  H    12    38       P1  7957  0.40
      L1  H    13    49       P1  8028  2.00
      P1  H  7989  7998       L1    12  0.32
      P1  H  8011  8017       L1    12  1.00

> <Gold.PLP.Chemscore.Internal.Correction>
0.0487

> <Gold.Rescore>
     Score         DG    S(hbond)    S(metal)    S(lipo)     H(rot)  DE(clash)    DE(int)     intcor
     15.09     -15.57       1.85        0.00      98.21       2.96       0.00       0.47       ----

> <Gold.Chemscore.Fitness>
15.0911

> <Gold.Chemscore.DG>
-15.5699

> <Gold.Chemscore.ZeroCoef>
-5.4800

> <Gold.Chemscore.Hbond>
1.8458

> <Gold.Chemscore.Metal>
0.0000

> <Gold.Chemscore.Lipo>
98.2116

> <Gold.Chemscore.Internal_Hbond>
0.0000

> <Gold.Chemscore.DEClash>
0.0042

> <Gold.Chemscore.DEInternal>
0.4746

> <Gold.Chemscore.Rot>
2.9555

> <Gold.Chemscore.Internal.Correction>
   9.000000E+99

> <Gold.Chemscore.Hbonds>
donor molecule, donor type, donor heavy atom, donor atom, acceptor molecule, acceptor atom, score
      L1  H    12    38       P1  7957  0.40
      L1  H    13    49       P1  8028  0.96
      P1  H  7989  7998       L1    12  0.31
      P1  H  8011  8017       L1    12  0.07

> <Gold.Chemscore.Hbond.Weighted>
-6.1651

> <Gold.Chemscore.Metal.Weighted>
-0.0000

> <Gold.Chemscore.Lipo.Weighted>
-11.4908

> <Gold.Chemscore.Internal_Hbond.Weighted>
0.0000

> <Gold.Chemscore.DEClash.Weighted>
0.0042

> <Gold.Chemscore.DEInternal.Weighted>
0.4746

> <Gold.Chemscore.Rot.Weighted>
7.5660

> <Gold.Chemscore.Internal.Correction.Weighted>
   9.000000E+99

> <Gold.Protein.RotatedTorsions>
[ 6907 6896 6895 6894 ] final  136.09 input  -60.11 | X-H torsion
[ 7974 7965 7964 7962 ] final   73.79 input  175.53 | X-H torsion
[ 8008 7997 7996 7995 ] final   45.42 input   59.86 | X-H torsion
[ 10167 10162 10161 10158 ] final   45.21 input  -65.29 | X-H torsion
[ 10718 10713 10712 10709 ] final -124.85 input   66.30 | X-H torsion
[ 10763 10752 10751 10750 ] final  -97.84 input  -60.55 | X-H torsion
[ 11005 11000 10999 10996 ] final   92.81 input  -57.11 | X-H torsion

> <Gold.Protein.ActiveResidues>
 VAL166  LYS551  ARG553  GLY616  TRP617  ASP618  TYR619  PRO620  LYS621  CYS622 
 ASP623  PHE694  ASN695  SER759  ASP760  ASP761  ALA762  ILE779  LEU786  VAL792 
 PHE793  MET794  SER795  GLU796  ALA797  LYS798  CYS799  TRP800  GLU811  SER814 

> <Gold.Protein.RotatedAtoms>
  152.2932  133.5581  159.5570 H   0  0  0  0  0  0  0  0  0  0  0  0  # atno 6907 bound_to 6896
  150.7244  134.0399  159.3771 H   0  0  0  0  0  0  0  0  0  0  0  0  # atno 6908 bound_to 6896
  151.8303  135.0624  160.0487 H   0  0  0  0  0  0  0  0  0  0  0  0  # atno 6909 bound_to 6896
  145.7364  139.2703  143.1511 H   0  0  0  0  0  0  0  0  0  0  0  0  # atno 7974 bound_to 7965
  155.3356  140.3405  155.4239 H   0  0  0  0  0  0  0  0  0  0  0  0  # atno 8008 bound_to 7997
  156.1839  140.1674  156.8258 H   0  0  0  0  0  0  0  0  0  0  0  0  # atno 8009 bound_to 7997
  154.5364  140.0734  156.8419 H   0  0  0  0  0  0  0  0  0  0  0  0  # atno 8010 bound_to 7997
  140.3264  144.2642  150.6174 H   0  0  0  0  0  0  0  0  0  0  0  0  # atno 10167 bound_to 10162
  156.1624  130.6611  151.0068 H   0  0  0  0  0  0  0  0  0  0  0  0  # atno 10718 bound_to 10713
  154.7362  135.5032  153.9046 H   0  0  0  0  0  0  0  0  0  0  0  0  # atno 10763 bound_to 10752
  153.0998  135.6682  153.9703 H   0  0  0  0  0  0  0  0  0  0  0  0  # atno 10764 bound_to 10752
  153.9492  135.3059  155.3418 H   0  0  0  0  0  0  0  0  0  0  0  0  # atno 10765 bound_to 10752
  139.8818  134.8754  156.3626 H   0  0  0  0  0  0  0  0  0  0  0  0  # atno 11005 bound_to 11000
  146.0489  140.8089  142.9791 LP  0  0  0  0  0  0  0  0  0  0  0  0  # atno 17320 bound_to 7965
  144.6881  140.3023  143.7261 LP  0  0  0  0  0  0  0  0  0  0  0  0  # atno 17321 bound_to 7965
  140.5437  143.2219  151.8043 LP  0  0  0  0  0  0  0  0  0  0  0  0  # atno 17342 bound_to 10162
  139.4864  144.4568  151.9589 LP  0  0  0  0  0  0  0  0  0  0  0  0  # atno 17343 bound_to 10162
  157.6742  131.0854  150.7536 LP  0  0  0  0  0  0  0  0  0  0  0  0  # atno 17370 bound_to 10713
  156.7598  130.4795  149.5439 LP  0  0  0  0  0  0  0  0  0  0  0  0  # atno 17371 bound_to 10713
  140.9519  133.7445  156.0283 LP  0  0  0  0  0  0  0  0  0  0  0  0  # atno 17394 bound_to 11000
  140.8096  134.3415  157.5416 LP  0  0  0  0  0  0  0  0  0  0  0  0  # atno 17395 bound_to 11000

$$$$
