AV-unprocessed.smi:3175|AV-procd|sdf|12123|dock2
  -GOLD-   2272017563D 1   1.00000     0.00000
 Structure written by MMmdl.
 38 39  0  0  0  0  0  0  0  0  2 V2000
  151.9779  141.1852  157.6768 O   0  0  0  0  0  0  0  0  0  0  0  0
  151.3649  142.2484  157.5822 C   0  0  0  0  0  0  0  0  0  0  0  0
  151.6425  143.3912  158.5638 C   0  0  0  0  0  0  0  0  0  0  0  0
  151.8653  142.9087  160.0120 C   0  0  0  0  0  0  0  0  0  0  0  0
  152.1054  144.0492  161.0029 C   0  0  0  0  0  0  0  0  0  0  0  0
  152.7361  143.3752  162.2244 C   0  0  0  0  0  0  0  0  0  0  0  0
  153.4462  142.1187  161.6984 C   0  0  0  0  0  0  0  0  0  0  0  0
  153.0956  142.0136  160.2086 C   0  0  0  0  0  0  0  0  0  0  0  0
  150.4265  142.4753  156.6506 N   0  0  0  0  0  0  0  0  0  0  0  0
  150.0141  141.5220  155.6244 C   0  0  0  0  0  0  0  0  0  0  0  0
  148.6657  141.8844  154.9706 C   0  0  0  0  0  0  0  0  0  0  0  0
  148.0438  140.7411  154.1874 C   0  0  0  0  0  0  0  0  0  0  0  0
  148.6923  139.4891  154.1086 C   0  0  0  0  0  0  0  0  0  0  0  0
  148.0954  138.4464  153.3696 C   0  0  0  0  0  0  0  0  0  0  0  0
  146.8627  138.6795  152.7260 C   0  0  0  0  0  0  0  0  0  0  0  0
  146.2713  139.8905  152.8240 N   0  3  0  0  0  0  0  0  0  0  0  0
  146.8098  140.9138  153.5227 C   0  0  0  0  0  0  0  0  0  0  0  0
  152.5073  143.9653  158.2272 H   0  0  0  0  0  0  0  0  0  0  0  0
  150.7915  144.0721  158.5330 H   0  0  0  0  0  0  0  0  0  0  0  0
  150.9847  142.3587  160.3493 H   0  0  0  0  0  0  0  0  0  0  0  0
  152.8089  144.7688  160.5815 H   0  0  0  0  0  0  0  0  0  0  0  0
  151.1903  144.5877  161.2514 H   0  0  0  0  0  0  0  0  0  0  0  0
  153.4180  144.0453  162.7488 H   0  0  0  0  0  0  0  0  0  0  0  0
  151.9562  143.0853  162.9298 H   0  0  0  0  0  0  0  0  0  0  0  0
  154.5257  142.1781  161.8403 H   0  0  0  0  0  0  0  0  0  0  0  0
  153.0954  141.2382  162.2380 H   0  0  0  0  0  0  0  0  0  0  0  0
  152.9159  140.9834  159.8992 H   0  0  0  0  0  0  0  0  0  0  0  0
  153.9290  142.3932  159.6153 H   0  0  0  0  0  0  0  0  0  0  0  0
  149.9748  143.3785  156.6429 H   0  0  0  0  0  0  0  0  0  0  0  0
  150.7941  141.5068  154.8629 H   0  0  0  0  0  0  0  0  0  0  0  0
  149.9744  140.5149  156.0425 H   0  0  0  0  0  0  0  0  0  0  0  0
  147.9627  142.2089  155.7388 H   0  0  0  0  0  0  0  0  0  0  0  0
  148.7953  142.7390  154.3054 H   0  0  0  0  0  0  0  0  0  0  0  0
  149.6375  139.3291  154.6069 H   0  0  0  0  0  0  0  0  0  0  0  0
  148.5765  137.4820  153.2979 H   0  0  0  0  0  0  0  0  0  0  0  0
  146.3362  137.9398  152.1406 H   0  0  0  0  0  0  0  0  0  0  0  0
  146.2442  141.8345  153.5239 H   0  0  0  0  0  0  0  0  0  0  0  0
  145.3797  140.0387  152.3505 H   0  0  0  0  0  0  0  0  0  0  0  0
  1  2  2  0  0  0  0
  2  3  1  0  0  0  0
  2  9  1  0  0  0  0
  3  4  1  0  0  0  0
  3 18  1  0  0  0  0
  3 19  1  0  0  0  0
  4  8  1  0  0  0  0
  4  5  1  0  0  0  0
  4 20  1  0  0  0  0
  5  6  1  0  0  0  0
  5 21  1  0  0  0  0
  5 22  1  0  0  0  0
  6  7  1  0  0  0  0
  6 23  1  0  0  0  0
  6 24  1  0  0  0  0
  7  8  1  0  0  0  0
  7 25  1  0  0  0  0
  7 26  1  0  0  0  0
  8 27  1  0  0  0  0
  8 28  1  0  0  0  0
  9 10  1  0  0  0  0
  9 29  1  0  0  0  0
 10 11  1  0  0  0  0
 10 30  1  0  0  0  0
 10 31  1  0  0  0  0
 11 12  1  0  0  0  0
 11 32  1  0  0  0  0
 11 33  1  0  0  0  0
 12 17  1  0  0  0  0
 12 13  2  0  0  0  0
 13 14  1  0  0  0  0
 13 34  1  0  0  0  0
 14 15  2  0  0  0  0
 14 35  1  0  0  0  0
 15 16  1  0  0  0  0
 15 36  1  0  0  0  0
 16 17  2  0  0  0  0
 16 38  1  0  0  0  0
 17 37  1  0  0  0  0
M  CHG  1  16   1
M  END
> <s_m_source_file>
AV-unprocessed.smi

> <i_m_source_file_index>
3175

> <i_lp_mmshare_version>
43012

> <i_f3d_flags>
0

> <s_epik_input>
W0NIMl0xW0NIMl1bQ0gyXVtDSDJdW0NIXTFbQ0gyXUMoPU8pW05IXVtDSDJdW0NIMl1jMltjSF1bY0hdW2NIXW5bY0hdMg==

> <s_epik_cmdline>
J2VwaWtfcHl0aG9uJywgJy1waCcsICc3LjAnLCAnLXRuJywgJzgnLCAnLW1hJywgJzIwMCcsICctbWV0YWxfYmluZGluZycsICctaW1hZScsICc8aW5maWxlLm1hZT4nLCAnLW9tYWUnLCAnPG91dGZpbGUubWFlPic=

> <r_epik_Ionization_Penalty>
2.25127

> <r_epik_Ionization_Penalty_Charging>
2.25127

> <r_epik_Ionization_Penalty_Neutral>
2.03742e-08

> <r_epik_State_Penalty>
2.39841

> <r_epik_Charging_Adjusted_Penalty>
4.64968

> <i_epik_Tot_Q>
1

> <i_epik_Tot_abs_Q>
1

> <r_epik_Metal_State_Penalty>
2.41158

> <b_epik_Metal_Only>
0

> <s_lp_Force_Field>
OPLS_2005

> <r_lp_Energy>
27.035

> <b_lp_Chiralities_Consistent>
1

> <s_lp_Variant>
AV-unprocessed.smi:3175-2

> <Gold.Version>
5.8.1

> <Gold.Id.Protein>
6NUR|6NUR_protein|mol2

> <Gold.PLP.Fitness>
46.2033

> <Gold.PLP.PLP>
-38.2574

> <Gold.PLP.part.hbond>
-2.0000

> <Gold.PLP.part.metal>
0.0000

> <Gold.PLP.part.buried>
0.2465

> <Gold.PLP.part.nonpolar>
-37.0411

> <Gold.PLP.part.repulsive>
0.0597

> <Gold.PLP.ligand.clash>
0.0000

> <Gold.PLP.ligand.torsion>
0.4582

> <Gold.PLP.Chemscore.Hbond>
2.9433

> <Gold.PLP.Chemscore.CHOScore>
0.0000

> <Gold.PLP.Chemscore.Metal>
0.0000

> <Gold.Chemscore.Hbonds>
donor molecule, donor type, donor heavy atom, donor atom, acceptor molecule, acceptor atom, score
      L1  H     9    29       P1  8028  0.98
      L1  H    16    38       P1 10175  1.95

> <Gold.PLP.Chemscore.Internal.Correction>
0.0325

> <Gold.Rescore>
     Score         DG    S(hbond)    S(metal)    S(lipo)     H(rot)  DE(clash)    DE(int)     intcor
     19.25     -20.67       1.94        0.00     109.22       1.59       0.86       0.56       ----

> <Gold.Chemscore.Fitness>
19.2473

> <Gold.Chemscore.DG>
-20.6673

> <Gold.Chemscore.ZeroCoef>
-5.4800

> <Gold.Chemscore.Hbond>
1.9422

> <Gold.Chemscore.Metal>
0.0000

> <Gold.Chemscore.Lipo>
109.2246

> <Gold.Chemscore.Internal_Hbond>
0.0000

> <Gold.Chemscore.DEClash>
0.8611

> <Gold.Chemscore.DEInternal>
0.5589

> <Gold.Chemscore.Rot>
1.5933

> <Gold.Chemscore.Internal.Correction>
   9.000000E+99

> <Gold.Chemscore.Hbonds>
donor molecule, donor type, donor heavy atom, donor atom, acceptor molecule, acceptor atom, score
      L1  H     9    29       P1  8028  0.91
      L1  H    16    38       P1 10175  0.82

> <Gold.Chemscore.Hbond.Weighted>
-6.4870

> <Gold.Chemscore.Metal.Weighted>
-0.0000

> <Gold.Chemscore.Lipo.Weighted>
-12.7793

> <Gold.Chemscore.Internal_Hbond.Weighted>
0.0000

> <Gold.Chemscore.DEClash.Weighted>
0.8611

> <Gold.Chemscore.DEInternal.Weighted>
0.5589

> <Gold.Chemscore.Rot.Weighted>
4.0789

> <Gold.Chemscore.Internal.Correction.Weighted>
   9.000000E+99

> <Gold.Protein.RotatedTorsions>
[ 6907 6896 6895 6894 ] final  -33.43 input  -60.11 | X-H torsion
[ 7974 7965 7964 7962 ] final   64.02 input  175.53 | X-H torsion
[ 8008 7997 7996 7995 ] final   27.69 input   59.86 | X-H torsion
[ 10167 10162 10161 10158 ] final  -92.23 input  -65.29 | X-H torsion
[ 10718 10713 10712 10709 ] final   84.38 input   66.30 | X-H torsion
[ 10763 10752 10751 10750 ] final  -11.61 input  -60.55 | X-H torsion
[ 11005 11000 10999 10996 ] final  -57.26 input  -57.11 | X-H torsion

> <Gold.Protein.ActiveResidues>
 VAL166  LYS551  ARG553  GLY616  TRP617  ASP618  TYR619  PRO620  LYS621  CYS622 
 ASP623  PHE694  ASN695  SER759  ASP760  ASP761  ALA762  ILE779  LEU786  VAL792 
 PHE793  MET794  SER795  GLU796  ALA797  LYS798  CYS799  TRP800  GLU811  SER814 

> <Gold.Protein.RotatedAtoms>
  151.0657  134.9765  159.8282 H   0  0  0  0  0  0  0  0  0  0  0  0  # atno 6907 bound_to 6896
  152.5401  134.2362  159.8854 H   0  0  0  0  0  0  0  0  0  0  0  0  # atno 6908 bound_to 6896
  151.2384  133.4369  159.2640 H   0  0  0  0  0  0  0  0  0  0  0  0  # atno 6909 bound_to 6896
  145.8551  139.3278  143.0852 H   0  0  0  0  0  0  0  0  0  0  0  0  # atno 7974 bound_to 7965
  155.0469  140.3175  155.4705 H   0  0  0  0  0  0  0  0  0  0  0  0  # atno 8008 bound_to 7997
  156.2843  140.2153  156.5538 H   0  0  0  0  0  0  0  0  0  0  0  0  # atno 8009 bound_to 7997
  154.7243  140.0487  157.0655 H   0  0  0  0  0  0  0  0  0  0  0  0  # atno 8010 bound_to 7997
  140.3369  143.2963  151.9879 H   0  0  0  0  0  0  0  0  0  0  0  0  # atno 10167 bound_to 10162
  157.6897  131.0131  150.2664 H   0  0  0  0  0  0  0  0  0  0  0  0  # atno 10718 bound_to 10713
  153.4863  135.7017  153.5909 H   0  0  0  0  0  0  0  0  0  0  0  0  # atno 10763 bound_to 10752
  153.4101  135.3850  155.2045 H   0  0  0  0  0  0  0  0  0  0  0  0  # atno 10764 bound_to 10752
  154.8719  135.3902  154.4318 H   0  0  0  0  0  0  0  0  0  0  0  0  # atno 10765 bound_to 10752
  141.1157  133.6610  156.4742 H   0  0  0  0  0  0  0  0  0  0  0  0  # atno 11005 bound_to 11000
  145.9313  140.9046  143.0355 LP  0  0  0  0  0  0  0  0  0  0  0  0  # atno 17320 bound_to 7965
  144.6728  140.1422  143.7436 LP  0  0  0  0  0  0  0  0  0  0  0  0  # atno 17321 bound_to 7965
  139.4847  144.6189  151.7294 LP  0  0  0  0  0  0  0  0  0  0  0  0  # atno 17342 bound_to 10162
  140.5345  144.0678  150.6065 LP  0  0  0  0  0  0  0  0  0  0  0  0  # atno 17343 bound_to 10162
  156.3234  130.3789  149.7554 LP  0  0  0  0  0  0  0  0  0  0  0  0  # atno 17370 bound_to 10713
  156.5117  130.8175  151.3171 LP  0  0  0  0  0  0  0  0  0  0  0  0  # atno 17371 bound_to 10713
  140.4653  134.6803  157.5104 LP  0  0  0  0  0  0  0  0  0  0  0  0  # atno 17394 bound_to 11000
  140.0077  134.6738  155.9429 LP  0  0  0  0  0  0  0  0  0  0  0  0  # atno 17395 bound_to 11000

$$$$
