AV-unprocessed.smi:1269|AV-procd|sdf|5329|dock1
  -GOLD-   22720 4453D 1   1.00000     0.00000
 Structure written by MMmdl.
 44 45  0  0  0  0  0  0  0  0  2 V2000
  153.4114  143.1239  163.3826 C   0  0  0  0  0  0  0  0  0  0  0  0
  152.7680  143.9312  162.4025 O   0  0  0  0  0  0  0  0  0  0  0  0
  152.4664  143.3635  161.1816 C   0  0  0  0  0  0  0  0  0  0  0  0
  152.0178  144.2007  160.1412 C   0  0  0  0  0  0  0  0  0  0  0  0
  151.7102  143.6305  158.8911 C   0  0  0  0  0  0  0  0  0  0  0  0
  151.8550  142.2320  158.7212 C   0  0  0  0  0  0  0  0  0  0  0  0
  151.5959  141.5283  157.5124 N   0  0  0  0  0  0  0  0  0  0  0  0
  152.0097  140.3067  157.1343 C   0  0  0  0  0  0  0  0  0  0  0  0
  152.7460  139.5669  157.7852 O   0  0  0  0  0  0  0  0  0  0  0  0
  151.5089  139.9771  155.9343 N   0  0  0  0  0  0  0  0  0  0  0  0
  151.7590  138.7295  155.2095 C   0  0  2  0  0  0  0  0  0  0  0  0
  153.1783  138.7652  154.6265 C   0  0  0  0  0  0  0  0  0  0  0  0
  150.7032  138.4995  154.1032 C   0  0  0  0  0  0  0  0  0  0  0  0
  149.9005  137.2677  154.3119 N   0  3  0  0  0  0  0  0  0  0  0  0
  150.7105  136.1128  154.7643 C   0  0  0  0  0  0  0  0  0  0  0  0
  149.8286  134.8570  154.8737 C   0  0  0  0  0  0  0  0  0  0  0  0
  148.7421  135.1091  155.7570 O   0  0  0  0  0  0  0  0  0  0  0  0
  147.9121  136.1685  155.2954 C   0  0  0  0  0  0  0  0  0  0  0  0
  148.7349  137.4641  155.2074 C   0  0  0  0  0  0  0  0  0  0  0  0
  152.3170  141.4848  159.8249 C   0  0  0  0  0  0  0  0  0  0  0  0
  152.6155  142.0251  161.0248 N   0  0  0  0  0  0  0  0  0  0  0  0
  153.5779  143.7151  164.2829 H   0  0  0  0  0  0  0  0  0  0  0  0
  154.3832  142.7715  163.0336 H   0  0  0  0  0  0  0  0  0  0  0  0
  152.7973  142.2656  163.6592 H   0  0  0  0  0  0  0  0  0  0  0  0
  151.9148  145.2642  160.2983 H   0  0  0  0  0  0  0  0  0  0  0  0
  151.3832  144.2816  158.0968 H   0  0  0  0  0  0  0  0  0  0  0  0
  151.0382  142.0324  156.8382 H   0  0  0  0  0  0  0  0  0  0  0  0
  150.9151  140.6518  155.4737 H   0  0  0  0  0  0  0  0  0  0  0  0
  151.7298  137.8955  155.9121 H   0  0  0  0  0  0  0  0  0  0  0  0
  153.4130  137.8349  154.1083 H   0  0  0  0  0  0  0  0  0  0  0  0
  153.9231  138.8987  155.4121 H   0  0  0  0  0  0  0  0  0  0  0  0
  153.2964  139.5816  153.9132 H   0  0  0  0  0  0  0  0  0  0  0  0
  150.0347  139.3621  154.0901 H   0  0  0  0  0  0  0  0  0  0  0  0
  151.1736  138.4671  153.1191 H   0  0  0  0  0  0  0  0  0  0  0  0
  151.5219  135.9281  154.0591 H   0  0  0  0  0  0  0  0  0  0  0  0
  151.1664  136.3391  155.7295 H   0  0  0  0  0  0  0  0  0  0  0  0
  149.4534  134.5585  153.8934 H   0  0  0  0  0  0  0  0  0  0  0  0
  150.4113  134.0204  155.2598 H   0  0  0  0  0  0  0  0  0  0  0  0
  147.4808  135.9151  154.3253 H   0  0  0  0  0  0  0  0  0  0  0  0
  147.0819  136.2970  155.9902 H   0  0  0  0  0  0  0  0  0  0  0  0
  149.0784  137.7569  156.2008 H   0  0  0  0  0  0  0  0  0  0  0  0
  148.1018  138.2705  154.8386 H   0  0  0  0  0  0  0  0  0  0  0  0
  152.4519  140.4158  159.7444 H   0  0  0  0  0  0  0  0  0  0  0  0
  149.5325  137.0142  153.4057 H   0  0  0  0  0  0  0  0  0  0  0  0
  1  2  1  0  0  0  0
  1 22  1  0  0  0  0
  1 23  1  0  0  0  0
  1 24  1  0  0  0  0
  2  3  1  0  0  0  0
  3 21  1  0  0  0  0
  3  4  2  0  0  0  0
  4  5  1  0  0  0  0
  4 25  1  0  0  0  0
  5  6  2  0  0  0  0
  5 26  1  0  0  0  0
  6  7  1  0  0  0  0
  6 20  1  0  0  0  0
  7  8  1  0  0  0  0
  7 27  1  0  0  0  0
  8  9  2  0  0  0  0
  8 10  1  0  0  0  0
 10 11  1  0  0  0  0
 10 28  1  0  0  0  0
 11 12  1  0  0  0  0
 11 13  1  0  0  0  0
 11 29  1  0  0  0  0
 12 30  1  0  0  0  0
 12 31  1  0  0  0  0
 12 32  1  0  0  0  0
 13 14  1  0  0  0  0
 13 33  1  0  0  0  0
 13 34  1  0  0  0  0
 14 19  1  0  0  0  0
 14 15  1  0  0  0  0
 14 44  1  0  0  0  0
 15 16  1  0  0  0  0
 15 35  1  0  0  0  0
 15 36  1  0  0  0  0
 16 17  1  0  0  0  0
 16 37  1  0  0  0  0
 16 38  1  0  0  0  0
 17 18  1  0  0  0  0
 18 19  1  0  0  0  0
 18 39  1  0  0  0  0
 18 40  1  0  0  0  0
 19 41  1  0  0  0  0
 19 42  1  0  0  0  0
 20 21  2  0  0  0  0
 20 43  1  0  0  0  0
M  CHG  1  14   1
M  END
> <s_m_source_file>
AV-unprocessed.smi

> <i_m_source_file_index>
1269

> <i_lp_mmshare_version>
43012

> <i_f3d_flags>
0

> <s_epik_input>
W0NIM11PYzFbY0hdW2NIXWMoW2NIXW4xKVtOSF1DKD1PKVtOSF1bQ0BIXShbQ0gzXSlbQ0gyXU4yW0NIMl1bQ0gyXU9bQ0gyXVtDSDJdMg==

> <s_epik_cmdline>
J2VwaWtfcHl0aG9uJywgJy1waCcsICc3LjAnLCAnLXRuJywgJzgnLCAnLW1hJywgJzIwMCcsICctbWV0YWxfYmluZGluZycsICctaW1hZScsICc8aW5maWxlLm1hZT4nLCAnLW9tYWUnLCAnPG91dGZpbGUubWFlPic=

> <r_lp_tautomer_probability>
1

> <r_epik_Ionization_Penalty>
0.602604

> <r_epik_Ionization_Penalty_Charging>
0.602531

> <r_epik_Ionization_Penalty_Neutral>
7.37831e-05

> <r_epik_State_Penalty>
0.617039

> <r_epik_Charging_Adjusted_Penalty>
1.21957

> <i_epik_Tot_Q>
1

> <i_epik_Tot_abs_Q>
1

> <r_epik_Metal_State_Penalty>
0.617045

> <b_epik_Metal_Only>
0

> <s_lp_Force_Field>
OPLS_2005

> <r_lp_Energy>
25.4267

> <b_lp_Chiralities_Consistent>
1

> <s_lp_Variant>
AV-unprocessed.smi:1269-3

> <Gold.Version>
5.8.1

> <Gold.Id.Protein>
6NUR|6NUR_protein|mol2

> <Gold.PLP.Fitness>
44.3805

> <Gold.PLP.PLP>
-38.0059

> <Gold.PLP.part.hbond>
-2.0000

> <Gold.PLP.part.metal>
0.0000

> <Gold.PLP.part.buried>
-4.5069

> <Gold.PLP.part.nonpolar>
-31.2569

> <Gold.PLP.part.repulsive>
0.4877

> <Gold.PLP.ligand.clash>
0.0000

> <Gold.PLP.ligand.torsion>
1.3352

> <Gold.PLP.Chemscore.Hbond>
2.9913

> <Gold.PLP.Chemscore.CHOScore>
0.0000

> <Gold.PLP.Chemscore.Metal>
0.0000

> <Gold.Chemscore.Hbonds>
donor molecule, donor type, donor heavy atom, donor atom, acceptor molecule, acceptor atom, score
      L1  H    14    44       P1  7948  2.00
      P1  H  7997  8010       L1     9  1.00

> <Gold.PLP.Chemscore.Internal.Correction>
0.0712

> <Gold.Rescore>
     Score         DG    S(hbond)    S(metal)    S(lipo)     H(rot)  DE(clash)    DE(int)     intcor
     14.69     -17.40       1.76        0.00      90.50       1.78       0.07       2.63       ----

> <Gold.Chemscore.Fitness>
14.6928

> <Gold.Chemscore.DG>
-17.3955

> <Gold.Chemscore.ZeroCoef>
-5.4800

> <Gold.Chemscore.Hbond>
1.7618

> <Gold.Chemscore.Metal>
0.0000

> <Gold.Chemscore.Lipo>
90.4953

> <Gold.Chemscore.Internal_Hbond>
0.0000

> <Gold.Chemscore.DEClash>
0.0682

> <Gold.Chemscore.DEInternal>
2.6344

> <Gold.Chemscore.Rot>
1.7801

> <Gold.Chemscore.Internal.Correction>
   9.000000E+99

> <Gold.Chemscore.Hbonds>
donor molecule, donor type, donor heavy atom, donor atom, acceptor molecule, acceptor atom, score
      L1  H    14    44       P1  7948  0.82
      P1  H  7997  8010       L1     9  0.24

> <Gold.Chemscore.Hbond.Weighted>
-5.8845

> <Gold.Chemscore.Metal.Weighted>
-0.0000

> <Gold.Chemscore.Lipo.Weighted>
-10.5880

> <Gold.Chemscore.Internal_Hbond.Weighted>
0.0000

> <Gold.Chemscore.DEClash.Weighted>
0.0682

> <Gold.Chemscore.DEInternal.Weighted>
2.6344

> <Gold.Chemscore.Rot.Weighted>
4.5570

> <Gold.Chemscore.Internal.Correction.Weighted>
   9.000000E+99

> <Gold.Protein.RotatedTorsions>
[ 6907 6896 6895 6894 ] final  155.10 input  -60.11 | X-H torsion
[ 7974 7965 7964 7962 ] final  -56.31 input  175.53 | X-H torsion
[ 8008 7997 7996 7995 ] final   38.90 input   59.86 | X-H torsion
[ 10167 10162 10161 10158 ] final   79.56 input  -65.29 | X-H torsion
[ 10718 10713 10712 10709 ] final -173.96 input   66.30 | X-H torsion
[ 10763 10752 10751 10750 ] final  161.50 input  -60.55 | X-H torsion
[ 11005 11000 10999 10996 ] final  160.44 input  -57.11 | X-H torsion

> <Gold.Protein.ActiveResidues>
 VAL166  LYS551  ARG553  GLY616  TRP617  ASP618  TYR619  PRO620  LYS621  CYS622 
 ASP623  PHE694  ASN695  SER759  ASP760  ASP761  ALA762  ILE779  LEU786  VAL792 
 PHE793  MET794  SER795  GLU796  ALA797  LYS798  CYS799  TRP800  GLU811  SER814 

> <Gold.Protein.RotatedAtoms>
  152.0490  133.4010  159.4368 H   0  0  0  0  0  0  0  0  0  0  0  0  # atno 6907 bound_to 6896
  150.6871  134.3330  159.4844 H   0  0  0  0  0  0  0  0  0  0  0  0  # atno 6908 bound_to 6896
  152.1137  134.9255  160.0616 H   0  0  0  0  0  0  0  0  0  0  0  0  # atno 6909 bound_to 6896
  145.8641  140.8264  142.9921 H   0  0  0  0  0  0  0  0  0  0  0  0  # atno 7974 bound_to 7965
  155.2278  140.3336  155.4307 H   0  0  0  0  0  0  0  0  0  0  0  0  # atno 8008 bound_to 7997
  156.2307  140.1849  156.7296 H   0  0  0  0  0  0  0  0  0  0  0  0  # atno 8009 bound_to 7997
  154.5973  140.0628  156.9306 H   0  0  0  0  0  0  0  0  0  0  0  0  # atno 8010 bound_to 7997
  139.9590  144.5974  150.8089 H   0  0  0  0  0  0  0  0  0  0  0  0  # atno 10167 bound_to 10162
  156.7781  130.9473  151.3120 H   0  0  0  0  0  0  0  0  0  0  0  0  # atno 10718 bound_to 10713
  154.2639  135.2767  155.2766 H   0  0  0  0  0  0  0  0  0  0  0  0  # atno 10763 bound_to 10752
  154.5360  135.5716  153.6802 H   0  0  0  0  0  0  0  0  0  0  0  0  # atno 10764 bound_to 10752
  152.9957  135.6239  154.2790 H   0  0  0  0  0  0  0  0  0  0  0  0  # atno 10765 bound_to 10752
  140.2060  134.8303  157.3069 H   0  0  0  0  0  0  0  0  0  0  0  0  # atno 11005 bound_to 11000
  144.6726  140.1140  143.7454 LP  0  0  0  0  0  0  0  0  0  0  0  0  # atno 17320 bound_to 7965
  145.9213  139.2547  143.1379 LP  0  0  0  0  0  0  0  0  0  0  0  0  # atno 17321 bound_to 7965
  140.7559  143.3055  151.2972 LP  0  0  0  0  0  0  0  0  0  0  0  0  # atno 17342 bound_to 10162
  139.6568  144.0261  152.2665 LP  0  0  0  0  0  0  0  0  0  0  0  0  # atno 17343 bound_to 10162
  157.6659  130.9007  149.9932 LP  0  0  0  0  0  0  0  0  0  0  0  0  # atno 17370 bound_to 10713
  156.1235  130.3645  149.9847 LP  0  0  0  0  0  0  0  0  0  0  0  0  # atno 17371 bound_to 10713
  140.2003  134.4263  155.7666 LP  0  0  0  0  0  0  0  0  0  0  0  0  # atno 17394 bound_to 11000
  141.2227  133.7068  156.8172 LP  0  0  0  0  0  0  0  0  0  0  0  0  # atno 17395 bound_to 11000

$$$$
