AV-unprocessed.smi:1586|AV-procd|sdf|6381|dock5
  -GOLD-   22720 7 13D 1   1.00000     0.00000
 Structure written by MMmdl.
 46 47  0  0  0  0  0  0  0  0  3 V2000
  144.0257  132.4222  149.5937 C   0  0  0  0  0  0  0  0  0  0  0  0
  144.3032  133.3539  150.7825 C   0  0  0  0  0  0  0  0  0  0  0  0
  145.4551  134.2257  150.5395 N   0  0  0  0  0  0  0  0  0  0  0  0
  145.5678  135.3758  151.4440 C   0  0  0  0  0  0  0  0  0  0  0  0
  145.9375  134.9532  152.8806 C   0  0  0  0  0  0  0  0  0  0  0  0
  147.2203  134.1950  152.8802 N   0  3  0  0  0  0  0  0  0  0  0  0
  147.8019  133.8582  154.2166 C   0  0  2  0  0  0  0  0  0  0  0  0
  146.8416  133.0233  155.1008 C   0  0  0  0  0  0  0  0  0  0  0  0
  148.3557  135.1347  154.9087 C   0  0  0  0  0  0  0  0  0  0  0  0
  149.5196  134.8222  155.7401 N   0  5  0  0  0  0  0  0  0  0  0  0
  149.4608  134.4359  157.0448 C   0  0  0  0  0  0  0  0  0  0  0  0
  149.9267  133.4040  157.5429 O   0  0  0  0  0  0  0  0  0  0  0  0
  148.8014  135.3233  157.8116 N   0  0  0  0  0  0  0  0  0  0  0  0
  148.5342  135.2680  159.2052 C   0  0  0  0  0  0  0  0  0  0  0  0
  148.5633  134.0294  159.9000 C   0  0  0  0  0  0  0  0  0  0  0  0
  148.2629  134.3881  161.1838 C   0  0  0  0  0  0  0  0  0  0  0  0
  148.1195  133.6108  162.4472 C   0  0  0  0  0  0  0  0  0  0  0  0
  148.0691  135.7319  161.2675 O   0  0  0  0  0  0  0  0  0  0  0  0
  148.2438  136.2904  159.9960 N   0  0  0  0  0  0  0  0  0  0  0  0
  147.1186  133.0288  151.9677 C   0  0  0  0  0  0  0  0  0  0  0  0
  146.7212  133.4890  150.5492 C   0  0  0  0  0  0  0  0  0  0  0  0
  143.2558  131.6950  149.8523 H   0  0  0  0  0  0  0  0  0  0  0  0
  144.9198  131.8666  149.3086 H   0  0  0  0  0  0  0  0  0  0  0  0
  143.6702  132.9676  148.7198 H   0  0  0  0  0  0  0  0  0  0  0  0
  143.4093  133.9247  151.0313 H   0  0  0  0  0  0  0  0  0  0  0  0
  144.5218  132.7314  151.6511 H   0  0  0  0  0  0  0  0  0  0  0  0
  146.3382  136.0436  151.0560 H   0  0  0  0  0  0  0  0  0  0  0  0
  144.6455  135.9552  151.4440 H   0  0  0  0  0  0  0  0  0  0  0  0
  146.0311  135.8485  153.4956 H   0  0  0  0  0  0  0  0  0  0  0  0
  145.1353  134.3603  153.3196 H   0  0  0  0  0  0  0  0  0  0  0  0
  148.6688  133.2255  154.0189 H   0  0  0  0  0  0  0  0  0  0  0  0
  147.3380  132.6542  156.0001 H   0  0  0  0  0  0  0  0  0  0  0  0
  146.4843  132.1446  154.5638 H   0  0  0  0  0  0  0  0  0  0  0  0
  145.9656  133.5882  155.4243 H   0  0  0  0  0  0  0  0  0  0  0  0
  148.6005  135.8727  154.1431 H   0  0  0  0  0  0  0  0  0  0  0  0
  147.5600  135.5924  155.4965 H   0  0  0  0  0  0  0  0  0  0  0  0
  148.4515  136.1398  157.3329 H   0  0  0  0  0  0  0  0  0  0  0  0
  148.7697  133.0399  159.5204 H   0  0  0  0  0  0  0  0  0  0  0  0
  148.0275  132.5446  162.2401 H   0  0  0  0  0  0  0  0  0  0  0  0
  147.2327  133.9253  162.9977 H   0  0  0  0  0  0  0  0  0  0  0  0
  148.9876  133.7574  163.0900 H   0  0  0  0  0  0  0  0  0  0  0  0
  148.0833  132.5237  151.9087 H   0  0  0  0  0  0  0  0  0  0  0  0
  146.4091  132.3007  152.3621 H   0  0  0  0  0  0  0  0  0  0  0  0
  146.6559  132.6328  149.8770 H   0  0  0  0  0  0  0  0  0  0  0  0
  147.5021  134.1346  150.1450 H   0  0  0  0  0  0  0  0  0  0  0  0
  147.9036  134.8030  152.4518 H   0  0  0  0  0  0  0  0  0  0  0  0
  1  2  1  0  0  0  0
  1 22  1  0  0  0  0
  1 23  1  0  0  0  0
  1 24  1  0  0  0  0
  2  3  1  0  0  0  0
  2 25  1  0  0  0  0
  2 26  1  0  0  0  0
  3 21  1  0  0  0  0
  3  4  1  0  0  0  0
  4  5  1  0  0  0  0
  4 27  1  0  0  0  0
  4 28  1  0  0  0  0
  5  6  1  0  0  0  0
  5 29  1  0  0  0  0
  5 30  1  0  0  0  0
  6  7  1  0  0  0  0
  6 20  1  0  0  0  0
  6 46  1  0  0  0  0
  7  8  1  0  0  0  0
  7  9  1  0  0  0  0
  7 31  1  0  0  0  0
  8 32  1  0  0  0  0
  8 33  1  0  0  0  0
  8 34  1  0  0  0  0
  9 10  1  0  0  0  0
  9 35  1  0  0  0  0
  9 36  1  0  0  0  0
 10 11  1  0  0  0  0
 11 12  2  0  0  0  0
 11 13  1  0  0  0  0
 13 14  1  0  0  0  0
 13 37  1  0  0  0  0
 14 19  2  0  0  0  0
 14 15  1  0  0  0  0
 15 16  2  0  0  0  0
 15 38  1  0  0  0  0
 16 17  1  0  0  0  0
 16 18  1  0  0  0  0
 17 39  1  0  0  0  0
 17 40  1  0  0  0  0
 17 41  1  0  0  0  0
 18 19  1  0  0  0  0
 20 21  1  0  0  0  0
 20 42  1  0  0  0  0
 20 43  1  0  0  0  0
 21 44  1  0  0  0  0
 21 45  1  0  0  0  0
M  CHG  1   6   1
M  CHG  1  10  -1
M  END
> <s_m_source_file>
AV-unprocessed.smi

> <i_m_source_file_index>
1586

> <i_lp_mmshare_version>
43012

> <i_f3d_flags>
0

> <s_epik_input>
W0NIM11bQ0gyXU4xW0NIMl1bQ0gyXU4oW0NIMl1bQ0gyXTEpW0NASF0oW0NIM10pW0NIMl1bTkhdQyg9TylbTkhdYzJbY0hdYyhbQ0gzXSlvbjI=

> <s_epik_cmdline>
J2VwaWtfcHl0aG9uJywgJy1waCcsICc3LjAnLCAnLXRuJywgJzgnLCAnLW1hJywgJzIwMCcsICctbWV0YWxfYmluZGluZycsICctaW1hZScsICc8aW5maWxlLm1hZT4nLCAnLW9tYWUnLCAnPG91dGZpbGUubWFlPic=

> <r_epik_Ionization_Penalty>
6.72969

> <r_epik_Ionization_Penalty_Charging>
6.72741

> <r_epik_Ionization_Penalty_Neutral>
0.00227419

> <r_epik_State_Penalty>
7.72748

> <r_epik_Charging_Adjusted_Penalty>
14.4549

> <i_epik_Tot_Q>
0

> <i_epik_Tot_abs_Q>
2

> <r_epik_Metal_State_Penalty>
3.65268

> <b_epik_Metal_Only>
1

> <s_lp_Force_Field>
OPLS_2005

> <r_lp_Energy>
18.0395

> <b_lp_Chiralities_Consistent>
1

> <s_lp_Variant>
AV-unprocessed.smi:1586-9

> <Gold.Version>
5.8.1

> <Gold.Id.Protein>
6NUR|6NUR_protein|mol2

> <Gold.PLP.Fitness>
42.9493

> <Gold.PLP.PLP>
-33.8303

> <Gold.PLP.part.hbond>
-5.7533

> <Gold.PLP.part.metal>
0.0000

> <Gold.PLP.part.buried>
-4.7161

> <Gold.PLP.part.nonpolar>
-23.5464

> <Gold.PLP.part.repulsive>
0.3117

> <Gold.PLP.ligand.clash>
0.0000

> <Gold.PLP.ligand.torsion>
1.3917

> <Gold.PLP.Chemscore.Hbond>
3.8816

> <Gold.PLP.Chemscore.CHOScore>
0.0000

> <Gold.PLP.Chemscore.Metal>
0.0000

> <Gold.Chemscore.Hbonds>
donor molecule, donor type, donor heavy atom, donor atom, acceptor molecule, acceptor atom, score
      L1  H     6    46       P1  7948  2.00
      P1  H  6896  6908       L1    12  1.00

> <Gold.PLP.Chemscore.Internal.Correction>
0.2576

> <Gold.Rescore>
     Score         DG    S(hbond)    S(metal)    S(lipo)     H(rot)  DE(clash)    DE(int)     intcor
     14.05     -17.72       2.58        0.00      68.76       1.73       0.22       3.46       ----

> <Gold.Chemscore.Fitness>
14.0459

> <Gold.Chemscore.DG>
-17.7209

> <Gold.Chemscore.ZeroCoef>
-5.4800

> <Gold.Chemscore.Hbond>
2.5785

> <Gold.Chemscore.Metal>
0.0000

> <Gold.Chemscore.Lipo>
68.7600

> <Gold.Chemscore.Internal_Hbond>
0.0000

> <Gold.Chemscore.DEClash>
0.2187

> <Gold.Chemscore.DEInternal>
3.4562

> <Gold.Chemscore.Rot>
1.7250

> <Gold.Chemscore.Internal.Correction>
   9.000000E+99

> <Gold.Chemscore.Hbonds>
donor molecule, donor type, donor heavy atom, donor atom, acceptor molecule, acceptor atom, score
      L1  H     6    46       P1  7948  0.74
      P1  H  6896  6908       L1    12  0.57

> <Gold.Chemscore.Hbond.Weighted>
-8.6120

> <Gold.Chemscore.Metal.Weighted>
-0.0000

> <Gold.Chemscore.Lipo.Weighted>
-8.0449

> <Gold.Chemscore.Internal_Hbond.Weighted>
0.0000

> <Gold.Chemscore.DEClash.Weighted>
0.2187

> <Gold.Chemscore.DEInternal.Weighted>
3.4562

> <Gold.Chemscore.Rot.Weighted>
4.4161

> <Gold.Chemscore.Internal.Correction.Weighted>
   9.000000E+99

> <Gold.Protein.RotatedTorsions>
[ 6907 6896 6895 6894 ] final  128.76 input  -60.11 | X-H torsion
[ 7974 7965 7964 7962 ] final  111.78 input  175.53 | X-H torsion
[ 8008 7997 7996 7995 ] final   55.26 input   59.86 | X-H torsion
[ 10167 10162 10161 10158 ] final  126.88 input  -65.29 | X-H torsion
[ 10718 10713 10712 10709 ] final    2.37 input   66.30 | X-H torsion
[ 10763 10752 10751 10750 ] final   28.52 input  -60.55 | X-H torsion
[ 11005 11000 10999 10996 ] final  -39.37 input  -57.11 | X-H torsion

> <Gold.Protein.ActiveResidues>
 VAL166  LYS551  ARG553  GLY616  TRP617  ASP618  TYR619  PRO620  LYS621  CYS622 
 ASP623  PHE694  ASN695  SER759  ASP760  ASP761  ALA762  ILE779  LEU786  VAL792 
 PHE793  MET794  SER795  GLU796  ALA797  LYS798  CYS799  TRP800  GLU811  SER814 

> <Gold.Protein.RotatedAtoms>
  152.3689  133.6393  159.6071 H   0  0  0  0  0  0  0  0  0  0  0  0  # atno 6907 bound_to 6896
  150.7654  133.9303  159.3433 H   0  0  0  0  0  0  0  0  0  0  0  0  # atno 6908 bound_to 6896
  151.7129  135.0910  160.0322 H   0  0  0  0  0  0  0  0  0  0  0  0  # atno 6909 bound_to 6896
  145.2378  139.2791  143.4134 H   0  0  0  0  0  0  0  0  0  0  0  0  # atno 7974 bound_to 7965
  155.4982  140.3473  155.4366 H   0  0  0  0  0  0  0  0  0  0  0  0  # atno 8008 bound_to 7997
  156.0932  140.1416  156.9593 H   0  0  0  0  0  0  0  0  0  0  0  0  # atno 8009 bound_to 7997
  154.4647  140.0922  156.6966 H   0  0  0  0  0  0  0  0  0  0  0  0  # atno 8010 bound_to 7997
  139.5607  144.6880  151.4050 H   0  0  0  0  0  0  0  0  0  0  0  0  # atno 10167 bound_to 10162
  156.8620  130.5590  149.5662 H   0  0  0  0  0  0  0  0  0  0  0  0  # atno 10718 bound_to 10713
  153.0487  135.6511  154.0750 H   0  0  0  0  0  0  0  0  0  0  0  0  # atno 10763 bound_to 10752
  154.0442  135.2901  155.3352 H   0  0  0  0  0  0  0  0  0  0  0  0  # atno 10764 bound_to 10752
  154.6761  135.5337  153.8268 H   0  0  0  0  0  0  0  0  0  0  0  0  # atno 10765 bound_to 10752
  141.0096  133.6914  156.2177 H   0  0  0  0  0  0  0  0  0  0  0  0  # atno 11005 bound_to 11000
  146.3336  140.2733  142.8607 LP  0  0  0  0  0  0  0  0  0  0  0  0  # atno 17320 bound_to 7965
  144.9617  140.8281  143.5510 LP  0  0  0  0  0  0  0  0  0  0  0  0  # atno 17321 bound_to 7965
  140.6887  143.7914  150.7223 LP  0  0  0  0  0  0  0  0  0  0  0  0  # atno 17342 bound_to 10162
  140.1389  143.4459  152.2206 LP  0  0  0  0  0  0  0  0  0  0  0  0  # atno 17343 bound_to 10162
  156.0772  130.5791  150.9495 LP  0  0  0  0  0  0  0  0  0  0  0  0  # atno 17370 bound_to 10713
  157.6245  131.0927  150.8560 LP  0  0  0  0  0  0  0  0  0  0  0  0  # atno 17371 bound_to 10713
  140.6755  134.4823  157.5588 LP  0  0  0  0  0  0  0  0  0  0  0  0  # atno 17394 bound_to 11000
  139.9083  134.8401  156.1624 LP  0  0  0  0  0  0  0  0  0  0  0  0  # atno 17395 bound_to 11000

$$$$
