AV-unprocessed.smi:3002|AV-procd|sdf|11436|dock2
  -GOLD-   2272016363D 1   1.00000     0.00000
 Structure written by MMmdl.
 34 35  0  0  0  0  0  0  0  0  1 V2000
  147.4921  142.2537  154.0768 C   0  0  0  0  0  0  0  0  0  0  0  0
  148.2771  140.9301  153.9740 C   0  0  1  0  0  0  0  0  0  0  0  0
  149.4030  140.8322  155.0144 C   0  0  0  0  0  0  0  0  0  0  0  0
  150.5270  140.4473  154.6901 O   0  0  0  0  0  0  0  0  0  0  0  0
  149.0836  141.1823  156.2702 N   0  0  0  0  0  0  0  0  0  0  0  0
  149.9949  141.1441  157.4089 C   0  0  0  0  0  0  0  0  0  0  0  0
  150.7316  139.7944  157.5175 C   0  0  1  0  0  0  0  0  0  0  0  0
  151.7126  139.7519  158.7048 C   0  0  0  0  0  0  0  0  0  0  0  0
  152.1890  138.3079  158.8918 C   0  0  0  0  0  0  0  0  0  0  0  0
  150.7596  137.2554  158.4407 S   0  0  0  0  0  0  0  0  0  0  0  0
  151.1833  136.2813  157.4235 O   0  0  0  0  0  0  0  0  0  0  0  0
  150.0636  136.8221  159.6617 O   0  0  0  0  0  0  0  0  0  0  0  0
  149.7852  138.5881  157.6448 C   0  0  0  0  0  0  0  0  0  0  0  0
  147.4101  139.7617  154.0602 N   0  0  0  0  0  0  0  0  0  0  0  0
  147.3535  138.6775  153.2833 C   0  0  0  0  0  0  0  0  0  0  0  0
  146.4679  137.7748  153.6806 N   0  0  0  0  0  0  0  0  0  0  0  0
  145.9875  138.4024  154.7949 C   0  0  0  0  0  0  0  0  0  0  0  0
  146.5259  139.5890  155.0745 N   0  0  0  0  0  0  0  0  0  0  0  0
  148.1546  143.1121  153.9609 H   0  0  0  0  0  0  0  0  0  0  0  0
  146.9835  142.3575  155.0360 H   0  0  0  0  0  0  0  0  0  0  0  0
  146.7357  142.3179  153.2941 H   0  0  0  0  0  0  0  0  0  0  0  0
  148.7409  140.9100  152.9862 H   0  0  0  0  0  0  0  0  0  0  0  0
  148.1386  141.4872  156.4527 H   0  0  0  0  0  0  0  0  0  0  0  0
  150.7119  141.9638  157.3363 H   0  0  0  0  0  0  0  0  0  0  0  0
  149.4112  141.3259  158.3117 H   0  0  0  0  0  0  0  0  0  0  0  0
  151.3249  139.6476  156.6138 H   0  0  0  0  0  0  0  0  0  0  0  0
  152.5526  140.4319  158.5598 H   0  0  0  0  0  0  0  0  0  0  0  0
  151.1957  140.0723  159.6105 H   0  0  0  0  0  0  0  0  0  0  0  0
  153.0059  138.0789  158.2069 H   0  0  0  0  0  0  0  0  0  0  0  0
  152.5139  138.0910  159.9095 H   0  0  0  0  0  0  0  0  0  0  0  0
  148.9409  138.8165  158.2957 H   0  0  0  0  0  0  0  0  0  0  0  0
  149.4005  138.2468  156.6835 H   0  0  0  0  0  0  0  0  0  0  0  0
  147.9758  138.5443  152.4105 H   0  0  0  0  0  0  0  0  0  0  0  0
  145.2230  137.9687  155.4227 H   0  0  0  0  0  0  0  0  0  0  0  0
  1  2  1  0  0  0  0
  1 19  1  0  0  0  0
  1 20  1  0  0  0  0
  1 21  1  0  0  0  0
  2  3  1  0  0  0  0
  2 14  1  0  0  0  0
  2 22  1  0  0  0  0
  3  4  2  0  0  0  0
  3  5  1  0  0  0  0
  5  6  1  0  0  0  0
  5 23  1  0  0  0  0
  6  7  1  0  0  0  0
  6 24  1  0  0  0  0
  6 25  1  0  0  0  0
  7 13  1  0  0  0  0
  7  8  1  0  0  0  0
  7 26  1  0  0  0  0
  8  9  1  0  0  0  0
  8 27  1  0  0  0  0
  8 28  1  0  0  0  0
  9 10  1  0  0  0  0
  9 29  1  0  0  0  0
  9 30  1  0  0  0  0
 10 11  2  0  0  0  0
 10 12  2  0  0  0  0
 10 13  1  0  0  0  0
 13 31  1  0  0  0  0
 13 32  1  0  0  0  0
 14 18  1  0  0  0  0
 14 15  1  0  0  0  0
 15 16  2  0  0  0  0
 15 33  1  0  0  0  0
 16 17  1  0  0  0  0
 17 18  2  0  0  0  0
 17 34  1  0  0  0  0
M  END
> <s_m_source_file>
AV-unprocessed.smi

> <i_m_source_file_index>
3002

> <i_lp_mmshare_version>
43012

> <i_f3d_flags>
0

> <s_epik_input>
bjFbY0hdbltjSF1uMVtDQEhdKFtDSDNdKUMoPU8pW05IXVtDSDJdW0NAQEhdKFtDSDJdMilbQ0gyXVtDSDJdUzIoPU8pPU8=

> <s_epik_cmdline>
J2VwaWtfcHl0aG9uJywgJy1waCcsICc3LjAnLCAnLXRuJywgJzgnLCAnLW1hJywgJzIwMCcsICctbWV0YWxfYmluZGluZycsICctaW1hZScsICc8aW5maWxlLm1hZT4nLCAnLW9tYWUnLCAnPG91dGZpbGUubWFlPic=

> <r_lp_tautomer_probability>
1

> <r_epik_Ionization_Penalty>
1.1748e-05

> <r_epik_Ionization_Penalty_Charging>
0

> <r_epik_Ionization_Penalty_Neutral>
1.1748e-05

> <r_epik_State_Penalty>
-0

> <r_epik_Charging_Adjusted_Penalty>
0

> <i_epik_Tot_Q>
0

> <i_epik_Tot_abs_Q>
0

> <r_epik_Metal_State_Penalty>
-0

> <b_epik_Metal_Only>
0

> <s_lp_Force_Field>
OPLS_2005

> <r_lp_Energy>
7.1985

> <b_lp_Chiralities_Consistent>
1

> <s_lp_Variant>
AV-unprocessed.smi:3002-4

> <Gold.Version>
5.8.1

> <Gold.Id.Protein>
6NUR|6NUR_protein|mol2

> <Gold.PLP.Fitness>
32.3541

> <Gold.PLP.PLP>
-22.3901

> <Gold.PLP.part.hbond>
-2.0000

> <Gold.PLP.part.metal>
0.0000

> <Gold.PLP.part.buried>
-3.5438

> <Gold.PLP.part.nonpolar>
-16.9428

> <Gold.PLP.part.repulsive>
0.3326

> <Gold.PLP.ligand.clash>
0.0000

> <Gold.PLP.ligand.torsion>
0.7997

> <Gold.PLP.Chemscore.Hbond>
2.0000

> <Gold.PLP.Chemscore.CHOScore>
1.8198

> <Gold.PLP.Chemscore.Metal>
0.0000

> <Gold.Chemscore.Hbonds>
donor molecule, donor type, donor heavy atom, donor atom, acceptor molecule, acceptor atom, score
      P1  H  6896  6907       L1    12  0.77
      P1  H  7989  7998       L1     4  1.00
      L1  C    15    33       P1  7948  0.80
      L1  C    15    33       P1  7957  1.00

> <Gold.PLP.Chemscore.Internal.Correction>
0.1040

> <Gold.Rescore>
     Score         DG    S(hbond)    S(metal)    S(lipo)     H(rot)  DE(clash)    DE(int)     intcor
     10.43     -12.34       2.68        0.00      34.44       2.39       0.00       1.92       ----

> <Gold.Chemscore.Fitness>
10.4267

> <Gold.Chemscore.DG>
-12.3437

> <Gold.Chemscore.ZeroCoef>
-5.4800

> <Gold.Chemscore.Hbond>
2.6840

> <Gold.Chemscore.Metal>
0.0000

> <Gold.Chemscore.Lipo>
34.4392

> <Gold.Chemscore.Internal_Hbond>
0.0000

> <Gold.Chemscore.DEClash>
0.0000

> <Gold.Chemscore.DEInternal>
1.9171

> <Gold.Chemscore.Rot>
2.3946

> <Gold.Chemscore.Internal.Correction>
   9.000000E+99

> <Gold.Chemscore.Hbonds>
donor molecule, donor type, donor heavy atom, donor atom, acceptor molecule, acceptor atom, score
      P1  H  6896  6907       L1    12  0.11
      P1  H  7989  7998       L1     4  0.97

> <Gold.Chemscore.Hbond.Weighted>
-8.9644

> <Gold.Chemscore.Metal.Weighted>
-0.0000

> <Gold.Chemscore.Lipo.Weighted>
-4.0294

> <Gold.Chemscore.Internal_Hbond.Weighted>
0.0000

> <Gold.Chemscore.DEClash.Weighted>
0.0000

> <Gold.Chemscore.DEInternal.Weighted>
1.9171

> <Gold.Chemscore.Rot.Weighted>
6.1301

> <Gold.Chemscore.Internal.Correction.Weighted>
   9.000000E+99

> <Gold.Protein.RotatedTorsions>
[ 6907 6896 6895 6894 ] final  -38.55 input  -60.11 | X-H torsion
[ 7974 7965 7964 7962 ] final  -49.45 input  175.53 | X-H torsion
[ 8008 7997 7996 7995 ] final  -87.71 input   59.86 | X-H torsion
[ 10167 10162 10161 10158 ] final  157.40 input  -65.29 | X-H torsion
[ 10718 10713 10712 10709 ] final -110.48 input   66.30 | X-H torsion
[ 10763 10752 10751 10750 ] final -142.01 input  -60.55 | X-H torsion
[ 11005 11000 10999 10996 ] final  -96.85 input  -57.11 | X-H torsion

> <Gold.Protein.ActiveResidues>
 VAL166  LYS551  ARG553  GLY616  TRP617  ASP618  TYR619  PRO620  LYS621  CYS622 
 ASP623  PHE694  ASN695  SER759  ASP760  ASP761  ALA762  ILE779  LEU786  VAL792 
 PHE793  MET794  SER795  GLU796  ALA797  LYS798  CYS799  TRP800  GLU811  SER814 

> <Gold.Protein.RotatedAtoms>
  151.0010  134.9322  159.7953 H   0  0  0  0  0  0  0  0  0  0  0  0  # atno 6907 bound_to 6896
  152.5278  134.3154  159.9139 H   0  0  0  0  0  0  0  0  0  0  0  0  # atno 6908 bound_to 6896
  151.3159  133.4019  159.2685 H   0  0  0  0  0  0  0  0  0  0  0  0  # atno 6909 bound_to 6896
  145.9404  140.7667  142.9555 H   0  0  0  0  0  0  0  0  0  0  0  0  # atno 7974 bound_to 7965
  154.6664  140.0562  157.0118 H   0  0  0  0  0  0  0  0  0  0  0  0  # atno 8008 bound_to 7997
  155.1153  140.3242  155.4492 H   0  0  0  0  0  0  0  0  0  0  0  0  # atno 8009 bound_to 7997
  156.2639  140.2007  156.6276 H   0  0  0  0  0  0  0  0  0  0  0  0  # atno 8010 bound_to 7997
  139.4823  144.4921  151.8293 H   0  0  0  0  0  0  0  0  0  0  0  0  # atno 10167 bound_to 10162
  156.0593  130.5818  150.8243 H   0  0  0  0  0  0  0  0  0  0  0  0  # atno 10718 bound_to 10713
  154.8525  135.3508  154.5959 H   0  0  0  0  0  0  0  0  0  0  0  0  # atno 10763 bound_to 10752
  153.6569  135.6991  153.5195 H   0  0  0  0  0  0  0  0  0  0  0  0  # atno 10764 bound_to 10752
  153.2849  135.4252  155.1071 H   0  0  0  0  0  0  0  0  0  0  0  0  # atno 10765 bound_to 10752
  141.1398  133.8127  157.0626 H   0  0  0  0  0  0  0  0  0  0  0  0  # atno 11005 bound_to 11000
  144.6778  140.2271  143.7359 LP  0  0  0  0  0  0  0  0  0  0  0  0  # atno 17320 bound_to 7965
  145.8307  139.2085  143.1884 LP  0  0  0  0  0  0  0  0  0  0  0  0  # atno 17321 bound_to 7965
  140.4406  144.1991  150.5891 LP  0  0  0  0  0  0  0  0  0  0  0  0  # atno 17342 bound_to 10162
  140.4687  143.2421  151.9120 LP  0  0  0  0  0  0  0  0  0  0  0  0  # atno 17343 bound_to 10162
  157.5589  131.0945  150.9587 LP  0  0  0  0  0  0  0  0  0  0  0  0  # atno 17370 bound_to 10713
  156.9830  130.5534  149.5297 LP  0  0  0  0  0  0  0  0  0  0  0  0  # atno 17371 bound_to 10713
  140.0561  134.9779  157.1223 LP  0  0  0  0  0  0  0  0  0  0  0  0  # atno 17394 bound_to 11000
  140.3917  134.2178  155.7166 LP  0  0  0  0  0  0  0  0  0  0  0  0  # atno 17395 bound_to 11000

$$$$
