AV-unprocessed.smi:2613|AV-procd|sdf|10212|dock5
  -GOLD-   2272014223D 1   1.00000     0.00000
 Structure written by MMmdl.
 27 28  0  0  0  0  0  0  0  0  2 V2000
  152.7607  143.5413  162.2093 C   0  0  0  0  0  0  0  0  0  0  0  0
  152.4348  143.0238  160.8448 C   0  0  0  0  0  0  0  0  0  0  0  0
  152.8313  141.8227  160.4247 N   0  0  0  0  0  0  0  0  0  0  0  0
  152.3261  141.7696  159.1390 C   0  0  0  0  0  0  0  0  0  0  0  0
  152.4103  140.7541  158.1609 C   0  0  0  0  0  0  0  0  0  0  0  0
  151.8126  140.9175  156.8873 C   0  0  0  0  0  0  0  0  0  0  0  0
  151.9146  139.8269  155.8549 C   0  0  0  0  0  0  0  0  0  0  0  0
  152.7852  138.9393  155.9966 O   0  0  0  0  0  0  0  0  0  0  0  0
  151.1252  139.8390  154.8842 O   0  5  0  0  0  0  0  0  0  0  0  0
  151.1197  142.1179  156.5962 C   0  0  0  0  0  0  0  0  0  0  0  0
  151.0234  143.1427  157.5569 C   0  0  0  0  0  0  0  0  0  0  0  0
  151.6236  142.9635  158.8154 C   0  0  0  0  0  0  0  0  0  0  0  0
  151.7174  143.7535  159.9564 N   0  0  0  0  0  0  0  0  0  0  0  0
  151.1631  145.0862  160.1295 C   0  0  0  0  0  0  0  0  0  0  0  0
  149.6755  145.0297  160.5015 C   0  0  0  0  0  0  0  0  0  0  0  0
  149.5143  144.3365  161.7196 O   0  0  0  0  0  0  0  0  0  0  0  0
  153.4247  142.8516  162.7315 H   0  0  0  0  0  0  0  0  0  0  0  0
  151.8490  143.6530  162.7964 H   0  0  0  0  0  0  0  0  0  0  0  0
  153.2582  144.5088  162.1393 H   0  0  0  0  0  0  0  0  0  0  0  0
  152.9432  139.8456  158.4010 H   0  0  0  0  0  0  0  0  0  0  0  0
  150.6557  142.2627  155.6312 H   0  0  0  0  0  0  0  0  0  0  0  0
  150.4950  144.0559  157.3267 H   0  0  0  0  0  0  0  0  0  0  0  0
  151.7290  145.5967  160.9100 H   0  0  0  0  0  0  0  0  0  0  0  0
  151.3116  145.6621  159.2156 H   0  0  0  0  0  0  0  0  0  0  0  0
  149.2636  146.0336  160.6070 H   0  0  0  0  0  0  0  0  0  0  0  0
  149.1031  144.5218  159.7245 H   0  0  0  0  0  0  0  0  0  0  0  0
  149.8615  144.8708  162.4176 H   0  0  0  0  0  0  0  0  0  0  0  0
  1  2  1  0  0  0  0
  1 17  1  0  0  0  0
  1 18  1  0  0  0  0
  1 19  1  0  0  0  0
  2 13  1  0  0  0  0
  2  3  2  0  0  0  0
  3  4  1  0  0  0  0
  4 12  2  0  0  0  0
  4  5  1  0  0  0  0
  5  6  2  0  0  0  0
  5 20  1  0  0  0  0
  6  7  1  0  0  0  0
  6 10  1  0  0  0  0
  7  8  2  0  0  0  0
  7  9  1  0  0  0  0
 10 11  2  0  0  0  0
 10 21  1  0  0  0  0
 11 12  1  0  0  0  0
 11 22  1  0  0  0  0
 12 13  1  0  0  0  0
 13 14  1  0  0  0  0
 14 15  1  0  0  0  0
 14 23  1  0  0  0  0
 14 24  1  0  0  0  0
 15 16  1  0  0  0  0
 15 25  1  0  0  0  0
 15 26  1  0  0  0  0
 16 27  1  0  0  0  0
M  CHG  1   9  -1
M  END
> <s_m_source_file>
AV-unprocessed.smi

> <i_m_source_file_index>
2613

> <i_lp_mmshare_version>
43012

> <i_f3d_flags>
0

> <s_epik_input>
W09IXVtDSDJdW0NIMl1uKGMobjEpW0NIM10pYyhjMTIpW2NIXVtjSF1jKFtjSF0yKUMoPU8pW09IXQ==

> <s_epik_cmdline>
J2VwaWtfcHl0aG9uJywgJy1waCcsICc3LjAnLCAnLXRuJywgJzgnLCAnLW1hJywgJzIwMCcsICctbWV0YWxfYmluZGluZycsICctaW1hZScsICc8aW5maWxlLm1hZT4nLCAnLW9tYWUnLCAnPG91dGZpbGUubWFlPic=

> <r_epik_Ionization_Penalty>
0.138858

> <r_epik_Ionization_Penalty_Charging>
0.000449576

> <r_epik_Ionization_Penalty_Neutral>
0.138408

> <r_epik_State_Penalty>
0.127739

> <r_epik_Charging_Adjusted_Penalty>
0.128189

> <i_epik_Tot_Q>
-1

> <i_epik_Tot_abs_Q>
1

> <r_epik_Metal_State_Penalty>
0.000142538

> <b_epik_Metal_Only>
0

> <s_lp_Force_Field>
OPLS_2005

> <r_lp_Energy>
7.17367

> <b_lp_Chiralities_Consistent>
1

> <s_lp_Variant>
AV-unprocessed.smi:2613-1

> <Gold.Version>
5.8.1

> <Gold.Id.Protein>
6NUR|6NUR_protein|mol2

> <Gold.PLP.Fitness>
47.5052

> <Gold.PLP.PLP>
-38.8231

> <Gold.PLP.part.hbond>
-5.0000

> <Gold.PLP.part.metal>
0.0000

> <Gold.PLP.part.buried>
-6.8214

> <Gold.PLP.part.nonpolar>
-26.3058

> <Gold.PLP.part.repulsive>
0.0637

> <Gold.PLP.ligand.clash>
0.0000

> <Gold.PLP.ligand.torsion>
0.4450

> <Gold.PLP.Chemscore.Hbond>
3.1901

> <Gold.PLP.Chemscore.CHOScore>
0.0000

> <Gold.PLP.Chemscore.Metal>
0.0000

> <Gold.Chemscore.Hbonds>
donor molecule, donor type, donor heavy atom, donor atom, acceptor molecule, acceptor atom, score
      P1  H  6933  6944       L1    16  0.17
      P1  H  7989  7998       L1     9  1.00
      P1  H  7997  8009       L1     8  2.00

> <Gold.PLP.Chemscore.Internal.Correction>
0.0019

> <Gold.Rescore>
     Score         DG    S(hbond)    S(metal)    S(lipo)     H(rot)  DE(clash)    DE(int)     intcor
     15.03     -17.36       2.10        0.00      81.52       1.83       0.83       1.51       ----

> <Gold.Chemscore.Fitness>
15.0282

> <Gold.Chemscore.DG>
-17.3627

> <Gold.Chemscore.ZeroCoef>
-5.4800

> <Gold.Chemscore.Hbond>
2.1017

> <Gold.Chemscore.Metal>
0.0000

> <Gold.Chemscore.Lipo>
81.5208

> <Gold.Chemscore.Internal_Hbond>
0.0000

> <Gold.Chemscore.DEClash>
0.8294

> <Gold.Chemscore.DEInternal>
1.5051

> <Gold.Chemscore.Rot>
1.8262

> <Gold.Chemscore.Internal.Correction>
   9.000000E+99

> <Gold.Chemscore.Hbonds>
donor molecule, donor type, donor heavy atom, donor atom, acceptor molecule, acceptor atom, score
      P1  H  6933  6944       L1    16  0.14
      P1  H  7989  7998       L1     9  0.91
      P1  H  7997  8009       L1     8  0.24

> <Gold.Chemscore.Hbond.Weighted>
-7.0197

> <Gold.Chemscore.Metal.Weighted>
-0.0000

> <Gold.Chemscore.Lipo.Weighted>
-9.5379

> <Gold.Chemscore.Internal_Hbond.Weighted>
0.0000

> <Gold.Chemscore.DEClash.Weighted>
0.8294

> <Gold.Chemscore.DEInternal.Weighted>
1.5051

> <Gold.Chemscore.Rot.Weighted>
4.6750

> <Gold.Chemscore.Internal.Correction.Weighted>
   9.000000E+99

> <Gold.Protein.RotatedTorsions>
[ 6907 6896 6895 6894 ] final  -80.39 input  -60.11 | X-H torsion
[ 7974 7965 7964 7962 ] final -127.23 input  175.53 | X-H torsion
[ 8008 7997 7996 7995 ] final -172.01 input   59.86 | X-H torsion
[ 10167 10162 10161 10158 ] final  -63.09 input  -65.29 | X-H torsion
[ 10718 10713 10712 10709 ] final   93.25 input   66.30 | X-H torsion
[ 10763 10752 10751 10750 ] final -130.70 input  -60.55 | X-H torsion
[ 11005 11000 10999 10996 ] final  -81.48 input  -57.11 | X-H torsion

> <Gold.Protein.ActiveResidues>
 VAL166  LYS551  ARG553  GLY616  TRP617  ASP618  TYR619  PRO620  LYS621  CYS622 
 ASP623  PHE694  ASN695  SER759  ASP760  ASP761  ALA762  ILE779  LEU786  VAL792 
 PHE793  MET794  SER795  GLU796  ALA797  LYS798  CYS799  TRP800  GLU811  SER814 

> <Gold.Protein.RotatedAtoms>
  150.6930  134.3976  159.5104 H   0  0  0  0  0  0  0  0  0  0  0  0  # atno 6907 bound_to 6896
  152.1755  134.8796  160.0540 H   0  0  0  0  0  0  0  0  0  0  0  0  # atno 6908 bound_to 6896
  151.9806  133.3721  159.4143 H   0  0  0  0  0  0  0  0  0  0  0  0  # atno 6909 bound_to 6896
  144.9792  140.7623  143.4623 H   0  0  0  0  0  0  0  0  0  0  0  0  # atno 7974 bound_to 7965
  155.9390  140.1105  157.1071 H   0  0  0  0  0  0  0  0  0  0  0  0  # atno 8008 bound_to 7997
  154.4085  140.1222  156.4968 H   0  0  0  0  0  0  0  0  0  0  0  0  # atno 8009 bound_to 7997
  155.6985  140.3472  155.4925 H   0  0  0  0  0  0  0  0  0  0  0  0  # atno 8010 bound_to 7997
  140.5895  143.2339  151.6171 H   0  0  0  0  0  0  0  0  0  0  0  0  # atno 10167 bound_to 10162
  157.6955  131.0471  150.4005 H   0  0  0  0  0  0  0  0  0  0  0  0  # atno 10718 bound_to 10713
  154.8754  135.3854  154.4127 H   0  0  0  0  0  0  0  0  0  0  0  0  # atno 10763 bound_to 10752
  153.4839  135.7030  153.5927 H   0  0  0  0  0  0  0  0  0  0  0  0  # atno 10764 bound_to 10752
  153.4331  135.3874  155.2150 H   0  0  0  0  0  0  0  0  0  0  0  0  # atno 10765 bound_to 10752
  141.1666  133.7199  156.8429 H   0  0  0  0  0  0  0  0  0  0  0  0  # atno 11005 bound_to 11000
  145.2446  139.2058  143.4975 LP  0  0  0  0  0  0  0  0  0  0  0  0  # atno 17320 bound_to 7965
  146.3403  140.2348  142.8594 LP  0  0  0  0  0  0  0  0  0  0  0  0  # atno 17321 bound_to 7965
  139.5218  144.3181  152.0934 LP  0  0  0  0  0  0  0  0  0  0  0  0  # atno 17342 bound_to 10162
  140.2343  144.4335  150.6286 LP  0  0  0  0  0  0  0  0  0  0  0  0  # atno 17343 bound_to 10162
  156.4399  130.3989  149.6704 LP  0  0  0  0  0  0  0  0  0  0  0  0  # atno 17370 bound_to 10713
  156.3891  130.7618  151.2618 LP  0  0  0  0  0  0  0  0  0  0  0  0  # atno 17371 bound_to 10713
  140.1970  134.8924  157.3126 LP  0  0  0  0  0  0  0  0  0  0  0  0  # atno 17394 bound_to 11000
  140.2228  134.4002  155.7557 LP  0  0  0  0  0  0  0  0  0  0  0  0  # atno 17395 bound_to 11000

$$$$
