AV-unprocessed.smi:3262|AV-procd|sdf|12484|dock3
  -GOLD-   2272018383D 1   1.00000     0.00000
 Structure written by MMmdl.
 39 40  0  0  0  0  0  0  0  0  1 V2000
  150.7443  140.1504  155.0550 O   0  0  0  0  0  0  0  0  0  0  0  0
  150.0113  141.1408  155.0849 C   0  0  0  0  0  0  0  0  0  0  0  0
  150.2726  142.1895  155.8831 N   0  0  0  0  0  0  0  0  0  0  0  0
  151.4031  142.2751  156.7975 C   0  0  0  0  0  0  0  0  0  0  0  0
  151.5460  143.7008  157.3476 C   0  0  0  0  0  0  0  0  0  0  0  0
  151.8146  143.7174  158.8406 C   0  0  0  0  0  0  0  0  0  0  0  0
  152.2325  142.5478  159.5106 C   0  0  0  0  0  0  0  0  0  0  0  0
  152.4750  142.6186  160.8961 C   0  0  0  0  0  0  0  0  0  0  0  0
  152.2924  143.8498  161.5547 C   0  0  0  0  0  0  0  0  0  0  0  0
  151.8744  144.9606  160.7949 C   0  0  0  0  0  0  0  0  0  0  0  0
  151.6392  144.9035  159.4662 N   0  0  0  0  0  0  0  0  0  0  0  0
  148.9200  141.2842  154.2857 N   0  0  0  0  0  0  0  0  0  0  0  0
  147.9163  142.3616  154.4270 C   0  0  0  0  0  0  0  0  0  0  0  0
  146.4561  141.9272  154.1765 C   0  0  0  0  0  0  0  0  0  0  0  0
  146.0656  140.5774  154.8069 C   0  0  0  0  0  0  0  0  0  0  0  0
  146.3873  139.3749  153.9029 C   0  0  0  0  0  0  0  0  0  0  0  0
  147.8866  139.0997  153.7040 C   0  0  0  0  0  0  0  0  0  0  0  0
  148.6796  140.3199  153.2013 C   0  0  0  0  0  0  0  0  0  0  0  0
  149.6472  142.9812  155.8482 H   0  0  0  0  0  0  0  0  0  0  0  0
  151.2627  141.5714  157.6198 H   0  0  0  0  0  0  0  0  0  0  0  0
  152.3122  141.9803  156.2709 H   0  0  0  0  0  0  0  0  0  0  0  0
  152.3590  144.2190  156.8368 H   0  0  0  0  0  0  0  0  0  0  0  0
  150.6404  144.2729  157.1407 H   0  0  0  0  0  0  0  0  0  0  0  0
  152.3669  141.6184  158.9768 H   0  0  0  0  0  0  0  0  0  0  0  0
  152.7959  141.7448  161.4435 H   0  0  0  0  0  0  0  0  0  0  0  0
  152.4690  143.9412  162.6161 H   0  0  0  0  0  0  0  0  0  0  0  0
  151.7254  145.9205  161.2668 H   0  0  0  0  0  0  0  0  0  0  0  0
  147.9291  142.7827  155.4329 H   0  0  0  0  0  0  0  0  0  0  0  0
  148.1798  143.1790  153.7550 H   0  0  0  0  0  0  0  0  0  0  0  0
  145.8053  142.7037  154.5802 H   0  0  0  0  0  0  0  0  0  0  0  0
  146.2437  141.9102  153.1071 H   0  0  0  0  0  0  0  0  0  0  0  0
  146.5263  140.4607  155.7887 H   0  0  0  0  0  0  0  0  0  0  0  0
  144.9891  140.5822  154.9807 H   0  0  0  0  0  0  0  0  0  0  0  0
  145.9251  138.4821  154.3251 H   0  0  0  0  0  0  0  0  0  0  0  0
  145.9151  139.5199  152.9305 H   0  0  0  0  0  0  0  0  0  0  0  0
  148.3208  138.7250  154.6318 H   0  0  0  0  0  0  0  0  0  0  0  0
  147.9917  138.2901  152.9814 H   0  0  0  0  0  0  0  0  0  0  0  0
  148.1662  140.7955  152.3651 H   0  0  0  0  0  0  0  0  0  0  0  0
  149.6295  139.9843  152.7813 H   0  0  0  0  0  0  0  0  0  0  0  0
  1  2  2  0  0  0  0
  2  3  1  0  0  0  0
  2 12  1  0  0  0  0
  3  4  1  0  0  0  0
  3 19  1  0  0  0  0
  4  5  1  0  0  0  0
  4 20  1  0  0  0  0
  4 21  1  0  0  0  0
  5  6  1  0  0  0  0
  5 22  1  0  0  0  0
  5 23  1  0  0  0  0
  6 11  1  0  0  0  0
  6  7  2  0  0  0  0
  7  8  1  0  0  0  0
  7 24  1  0  0  0  0
  8  9  2  0  0  0  0
  8 25  1  0  0  0  0
  9 10  1  0  0  0  0
  9 26  1  0  0  0  0
 10 11  2  0  0  0  0
 10 27  1  0  0  0  0
 12 18  1  0  0  0  0
 12 13  1  0  0  0  0
 13 14  1  0  0  0  0
 13 28  1  0  0  0  0
 13 29  1  0  0  0  0
 14 15  1  0  0  0  0
 14 30  1  0  0  0  0
 14 31  1  0  0  0  0
 15 16  1  0  0  0  0
 15 32  1  0  0  0  0
 15 33  1  0  0  0  0
 16 17  1  0  0  0  0
 16 34  1  0  0  0  0
 16 35  1  0  0  0  0
 17 18  1  0  0  0  0
 17 36  1  0  0  0  0
 17 37  1  0  0  0  0
 18 38  1  0  0  0  0
 18 39  1  0  0  0  0
M  END
> <s_m_source_file>
AV-unprocessed.smi

> <i_m_source_file_index>
3262

> <i_lp_mmshare_version>
43012

> <i_f3d_flags>
0

> <s_epik_input>
W0NIMl0xW0NIMl1bQ0gyXVtDSDJdW0NIMl1bQ0gyXU4xQyg9TylbTkhdW0NIMl1bQ0gyXWMyW2NIXVtjSF1bY0hdW2NIXW4y

> <s_epik_cmdline>
J2VwaWtfcHl0aG9uJywgJy1waCcsICc3LjAnLCAnLXRuJywgJzgnLCAnLW1hJywgJzIwMCcsICctbWV0YWxfYmluZGluZycsICctaW1hZScsICc8aW5maWxlLm1hZT4nLCAnLW9tYWUnLCAnPG91dGZpbGUubWFlPic=

> <r_epik_Ionization_Penalty>
0.0449498

> <r_epik_Ionization_Penalty_Charging>
0

> <r_epik_Ionization_Penalty_Neutral>
0.0449498

> <r_epik_State_Penalty>
0.0380669

> <r_epik_Charging_Adjusted_Penalty>
0.0380669

> <i_epik_Tot_Q>
0

> <i_epik_Tot_abs_Q>
0

> <r_epik_Metal_State_Penalty>
0.0353734

> <b_epik_Metal_Only>
0

> <s_lp_Force_Field>
OPLS_2005

> <r_lp_Energy>
31.2799

> <b_lp_Chiralities_Consistent>
1

> <s_lp_Variant>
AV-unprocessed.smi:3262-1

> <Gold.Version>
5.8.1

> <Gold.Id.Protein>
6NUR|6NUR_protein|mol2

> <Gold.PLP.Fitness>
42.2379

> <Gold.PLP.PLP>
-37.4469

> <Gold.PLP.part.hbond>
-2.0000

> <Gold.PLP.part.metal>
0.0000

> <Gold.PLP.part.buried>
2.2861

> <Gold.PLP.part.nonpolar>
-37.8229

> <Gold.PLP.part.repulsive>
0.2714

> <Gold.PLP.ligand.clash>
0.0000

> <Gold.PLP.ligand.torsion>
0.6106

> <Gold.PLP.Chemscore.Hbond>
2.0000

> <Gold.PLP.Chemscore.CHOScore>
0.0000

> <Gold.PLP.Chemscore.Metal>
0.0000

> <Gold.Chemscore.Hbonds>
donor molecule, donor type, donor heavy atom, donor atom, acceptor molecule, acceptor atom, score
      L1  H     3    19       P1  8028  1.00
      P1  H  7989  7998       L1     1  0.45

> <Gold.PLP.Chemscore.Internal.Correction>
0.0122

> <Gold.Rescore>
     Score         DG    S(hbond)    S(metal)    S(lipo)     H(rot)  DE(clash)    DE(int)     intcor
     17.28     -20.35       1.64        0.00     108.13       1.27       2.52       0.55       ----

> <Gold.Chemscore.Fitness>
17.2824

> <Gold.Chemscore.DG>
-20.3514

> <Gold.Chemscore.ZeroCoef>
-5.4800

> <Gold.Chemscore.Hbond>
1.6410

> <Gold.Chemscore.Metal>
0.0000

> <Gold.Chemscore.Lipo>
108.1321

> <Gold.Chemscore.Internal_Hbond>
0.0000

> <Gold.Chemscore.DEClash>
2.5210

> <Gold.Chemscore.DEInternal>
0.5480

> <Gold.Chemscore.Rot>
1.2738

> <Gold.Chemscore.Internal.Correction>
   9.000000E+99

> <Gold.Chemscore.Hbonds>
donor molecule, donor type, donor heavy atom, donor atom, acceptor molecule, acceptor atom, score
      L1  H     3    19       P1  8028  1.00
      P1  H  7989  7998       L1     1  0.02

> <Gold.Chemscore.Hbond.Weighted>
-5.4810

> <Gold.Chemscore.Metal.Weighted>
-0.0000

> <Gold.Chemscore.Lipo.Weighted>
-12.6515

> <Gold.Chemscore.Internal_Hbond.Weighted>
0.0000

> <Gold.Chemscore.DEClash.Weighted>
2.5210

> <Gold.Chemscore.DEInternal.Weighted>
0.5480

> <Gold.Chemscore.Rot.Weighted>
3.2610

> <Gold.Chemscore.Internal.Correction.Weighted>
   9.000000E+99

> <Gold.Protein.RotatedTorsions>
[ 6907 6896 6895 6894 ] final   47.59 input  -60.11 | X-H torsion
[ 7974 7965 7964 7962 ] final -140.57 input  175.53 | X-H torsion
[ 8008 7997 7996 7995 ] final -169.50 input   59.86 | X-H torsion
[ 10167 10162 10161 10158 ] final  -95.02 input  -65.29 | X-H torsion
[ 10718 10713 10712 10709 ] final  -21.22 input   66.30 | X-H torsion
[ 10763 10752 10751 10750 ] final  -34.28 input  -60.55 | X-H torsion
[ 11005 11000 10999 10996 ] final  103.56 input  -57.11 | X-H torsion

> <Gold.Protein.ActiveResidues>
 VAL166  LYS551  ARG553  GLY616  TRP617  ASP618  TYR619  PRO620  LYS621  CYS622 
 ASP623  PHE694  ASN695  SER759  ASP760  ASP761  ALA762  ILE779  LEU786  VAL792 
 PHE793  MET794  SER795  GLU796  ALA797  LYS798  CYS799  TRP800  GLU811  SER814 

> <Gold.Protein.RotatedAtoms>
  152.2698  134.7945  160.0416 H   0  0  0  0  0  0  0  0  0  0  0  0  # atno 6907 bound_to 6896
  151.8562  133.3443  159.3697 H   0  0  0  0  0  0  0  0  0  0  0  0  # atno 6908 bound_to 6896
  150.7147  134.5178  159.5683 H   0  0  0  0  0  0  0  0  0  0  0  0  # atno 6909 bound_to 6896
  144.8587  140.6184  143.5343 H   0  0  0  0  0  0  0  0  0  0  0  0  # atno 7974 bound_to 7965
  155.9058  140.1049  157.1316 H   0  0  0  0  0  0  0  0  0  0  0  0  # atno 8008 bound_to 7997
  154.4032  140.1284  156.4558 H   0  0  0  0  0  0  0  0  0  0  0  0  # atno 8009 bound_to 7997
  155.7369  140.3467  155.5088 H   0  0  0  0  0  0  0  0  0  0  0  0  # atno 8010 bound_to 7997
  140.3085  143.3119  152.0174 H   0  0  0  0  0  0  0  0  0  0  0  0  # atno 10167 bound_to 10162
  156.5211  130.4633  149.6596 H   0  0  0  0  0  0  0  0  0  0  0  0  # atno 10718 bound_to 10713
  153.8441  135.6855  153.4799 H   0  0  0  0  0  0  0  0  0  0  0  0  # atno 10763 bound_to 10752
  153.1436  135.4647  154.9531 H   0  0  0  0  0  0  0  0  0  0  0  0  # atno 10764 bound_to 10752
  154.7832  135.3276  154.7891 H   0  0  0  0  0  0  0  0  0  0  0  0  # atno 10765 bound_to 10752
  139.8785  134.9268  156.5229 H   0  0  0  0  0  0  0  0  0  0  0  0  # atno 11005 bound_to 11000
  145.4355  139.1543  143.3999 LP  0  0  0  0  0  0  0  0  0  0  0  0  # atno 17320 bound_to 7965
  146.2843  140.4474  142.8764 LP  0  0  0  0  0  0  0  0  0  0  0  0  # atno 17321 bound_to 7965
  139.4899  144.6403  151.6891 LP  0  0  0  0  0  0  0  0  0  0  0  0  # atno 17342 bound_to 10162
  140.5589  144.0301  150.6160 LP  0  0  0  0  0  0  0  0  0  0  0  0  # atno 17343 bound_to 10162
  156.3148  130.7248  151.2149 LP  0  0  0  0  0  0  0  0  0  0  0  0  # atno 17370 bound_to 10713
  157.7436  131.0471  150.4929 LP  0  0  0  0  0  0  0  0  0  0  0  0  # atno 17371 bound_to 10713
  140.8437  133.8185  155.9100 LP  0  0  0  0  0  0  0  0  0  0  0  0  # atno 17394 bound_to 11000
  140.9212  134.2139  157.4925 LP  0  0  0  0  0  0  0  0  0  0  0  0  # atno 17395 bound_to 11000

$$$$
