AV-unprocessed.smi:2844|AV-procd|sdf|10942|dock2
  -GOLD-   2272015393D 1   1.00000     0.00000
 Structure written by MMmdl.
 39 41  0  0  0  0  0  0  0  0  2 V2000
  152.2005  144.2965  161.1325 C   0  0  0  0  0  0  0  0  0  0  0  0
  152.0642  143.3185  159.9775 C   0  0  0  0  0  0  0  0  0  0  0  0
  151.2996  143.7047  158.8532 C   0  0  0  0  0  0  0  0  0  0  0  0
  151.1903  142.7871  157.8150 C   0  0  0  0  0  0  0  0  0  0  0  0
  150.5162  142.8612  156.5940 N   0  3  0  0  0  0  0  0  0  0  0  0
  150.7001  141.7026  155.9020 C   0  0  0  0  0  0  0  0  0  0  0  0
  151.4819  140.8903  156.6637 N   0  0  0  0  0  0  0  0  0  0  0  0
  151.9762  139.5325  156.4008 C   0  0  0  0  0  0  0  0  0  0  0  0
  151.3211  138.8925  155.1620 C   0  0  1  0  0  0  0  0  0  0  0  0
  152.2614  138.0601  154.5083 O   0  0  0  0  0  0  0  0  0  0  0  0
  150.0638  138.0799  155.5260 C   0  0  0  0  0  0  0  0  0  0  0  0
  150.3364  136.6600  155.6606 N   0  0  0  0  0  0  0  0  0  0  0  0
  149.7974  135.6129  154.9379 C   0  0  0  0  0  0  0  0  0  0  0  0
  150.3744  134.4886  155.4445 C   0  0  0  0  0  0  0  0  0  0  0  0
  150.0897  132.8643  154.9394 Cl  0  0  0  0  0  0  0  0  0  0  0  0
  151.2561  134.9173  156.4690 C   0  0  0  0  0  0  0  0  0  0  0  0
  151.2298  136.2366  156.5915 N   0  0  0  0  0  0  0  0  0  0  0  0
  151.8114  141.5244  157.8661 C   0  0  0  0  0  0  0  0  0  0  0  0
  152.5694  141.1280  158.9650 C   0  0  0  0  0  0  0  0  0  0  0  0
  152.6907  142.0464  160.0325 C   0  0  0  0  0  0  0  0  0  0  0  0
  153.5095  141.6416  161.2465 C   0  0  0  0  0  0  0  0  0  0  0  0
  151.6777  145.2312  160.9277 H   0  0  0  0  0  0  0  0  0  0  0  0
  153.2490  144.5348  161.3122 H   0  0  0  0  0  0  0  0  0  0  0  0
  151.7798  143.8723  162.0446 H   0  0  0  0  0  0  0  0  0  0  0  0
  150.8197  144.6712  158.8043 H   0  0  0  0  0  0  0  0  0  0  0  0
  150.2944  141.4689  154.9282 H   0  0  0  0  0  0  0  0  0  0  0  0
  153.0579  139.5943  156.2716 H   0  0  0  0  0  0  0  0  0  0  0  0
  151.8049  138.9265  157.2914 H   0  0  0  0  0  0  0  0  0  0  0  0
  151.0399  139.6807  154.4625 H   0  0  0  0  0  0  0  0  0  0  0  0
  152.1883  137.1871  154.8630 H   0  0  0  0  0  0  0  0  0  0  0  0
  149.6324  138.4418  156.4604 H   0  0  0  0  0  0  0  0  0  0  0  0
  149.2979  138.2081  154.7597 H   0  0  0  0  0  0  0  0  0  0  0  0
  149.0708  135.7556  154.1519 H   0  0  0  0  0  0  0  0  0  0  0  0
  151.8982  134.3318  157.1103 H   0  0  0  0  0  0  0  0  0  0  0  0
  153.0444  140.1588  159.0069 H   0  0  0  0  0  0  0  0  0  0  0  0
  153.9250  140.6400  161.1323 H   0  0  0  0  0  0  0  0  0  0  0  0
  152.8907  141.6448  162.1442 H   0  0  0  0  0  0  0  0  0  0  0  0
  154.3406  142.3314  161.3949 H   0  0  0  0  0  0  0  0  0  0  0  0
  149.9678  143.6420  156.2567 H   0  0  0  0  0  0  0  0  0  0  0  0
  1  2  1  0  0  0  0
  1 22  1  0  0  0  0
  1 23  1  0  0  0  0
  1 24  1  0  0  0  0
  2 20  1  0  0  0  0
  2  3  2  0  0  0  0
  3  4  1  0  0  0  0
  3 25  1  0  0  0  0
  4 18  2  0  0  0  0
  4  5  1  0  0  0  0
  5  6  2  0  0  0  0
  5 39  1  0  0  0  0
  6  7  1  0  0  0  0
  6 26  1  0  0  0  0
  7  8  1  0  0  0  0
  7 18  1  0  0  0  0
  8  9  1  0  0  0  0
  8 27  1  0  0  0  0
  8 28  1  0  0  0  0
  9 10  1  0  0  0  0
  9 11  1  0  0  0  0
  9 29  1  0  0  0  0
 10 30  1  0  0  0  0
 11 12  1  0  0  0  0
 11 31  1  0  0  0  0
 11 32  1  0  0  0  0
 12 17  1  0  0  0  0
 12 13  1  0  0  0  0
 13 14  2  0  0  0  0
 13 33  1  0  0  0  0
 14 15  1  0  0  0  0
 14 16  1  0  0  0  0
 16 17  2  0  0  0  0
 16 34  1  0  0  0  0
 18 19  1  0  0  0  0
 19 20  2  0  0  0  0
 19 35  1  0  0  0  0
 20 21  1  0  0  0  0
 21 36  1  0  0  0  0
 21 37  1  0  0  0  0
 21 38  1  0  0  0  0
M  CHG  1   5   1
M  END
> <s_m_source_file>
AV-unprocessed.smi

> <i_m_source_file_index>
2844

> <i_lp_mmshare_version>
43012

> <i_f3d_flags>
0

> <s_epik_input>
W0NIM11jKFtjSF0xKWMoW0NIM10pW2NIXWMoYzEyKW4oW2NIXW4yKVtDSDJdW0NASF0oW09IXSlbQ0gyXW4zW2NIXWMoQ2wpW2NIXW4z

> <s_epik_cmdline>
J2VwaWtfcHl0aG9uJywgJy1waCcsICc3LjAnLCAnLXRuJywgJzgnLCAnLW1hJywgJzIwMCcsICctbWV0YWxfYmluZGluZycsICctaW1hZScsICc8aW5maWxlLm1hZT4nLCAnLW9tYWUnLCAnPG91dGZpbGUubWFlPic=

> <r_lp_tautomer_probability>
1

> <r_epik_Ionization_Penalty>
1.09214

> <r_epik_Ionization_Penalty_Charging>
1.09214

> <r_epik_Ionization_Penalty_Neutral>
2.93683e-06

> <r_epik_State_Penalty>
1.14852

> <r_epik_Charging_Adjusted_Penalty>
2.24066

> <i_epik_Tot_Q>
1

> <i_epik_Tot_abs_Q>
1

> <r_epik_Metal_State_Penalty>
1.23687

> <b_epik_Metal_Only>
0

> <s_lp_Force_Field>
OPLS_2005

> <r_lp_Energy>
15.1146

> <b_lp_Chiralities_Consistent>
1

> <s_lp_Variant>
AV-unprocessed.smi:2844-4

> <Gold.Version>
5.8.1

> <Gold.Id.Protein>
6NUR|6NUR_protein|mol2

> <Gold.PLP.Fitness>
51.7587

> <Gold.PLP.PLP>
-44.7590

> <Gold.PLP.part.hbond>
-1.2412

> <Gold.PLP.part.metal>
0.0000

> <Gold.PLP.part.buried>
-6.8266

> <Gold.PLP.part.nonpolar>
-36.5240

> <Gold.PLP.part.repulsive>
0.0614

> <Gold.PLP.ligand.clash>
0.0000

> <Gold.PLP.ligand.torsion>
1.0228

> <Gold.PLP.Chemscore.Hbond>
2.0000

> <Gold.PLP.Chemscore.CHOScore>
1.0000

> <Gold.PLP.Chemscore.Metal>
0.0000

> <Gold.Chemscore.Hbonds>
donor molecule, donor type, donor heavy atom, donor atom, acceptor molecule, acceptor atom, score
      L1  H     5    39       P1  8028  2.00
      L1  C    13    33       P1  7948  1.00

> <Gold.PLP.Chemscore.Internal.Correction>
0.0453

> <Gold.Rescore>
     Score         DG    S(hbond)    S(metal)    S(lipo)     H(rot)  DE(clash)    DE(int)     intcor
     15.88     -16.85       0.99        0.00     117.33       2.21       0.02       0.94       ----

> <Gold.Chemscore.Fitness>
15.8843

> <Gold.Chemscore.DG>
-16.8478

> <Gold.Chemscore.ZeroCoef>
-5.4800

> <Gold.Chemscore.Hbond>
0.9897

> <Gold.Chemscore.Metal>
0.0000

> <Gold.Chemscore.Lipo>
117.3263

> <Gold.Chemscore.Internal_Hbond>
0.0000

> <Gold.Chemscore.DEClash>
0.0232

> <Gold.Chemscore.DEInternal>
0.9403

> <Gold.Chemscore.Rot>
2.2129

> <Gold.Chemscore.Internal.Correction>
   9.000000E+99

> <Gold.Chemscore.Hbonds>
donor molecule, donor type, donor heavy atom, donor atom, acceptor molecule, acceptor atom, score
      L1  H     5    39       P1  8028  1.00

> <Gold.Chemscore.Hbond.Weighted>
-3.3055

> <Gold.Chemscore.Metal.Weighted>
-0.0000

> <Gold.Chemscore.Lipo.Weighted>
-13.7272

> <Gold.Chemscore.Internal_Hbond.Weighted>
0.0000

> <Gold.Chemscore.DEClash.Weighted>
0.0232

> <Gold.Chemscore.DEInternal.Weighted>
0.9403

> <Gold.Chemscore.Rot.Weighted>
5.6649

> <Gold.Chemscore.Internal.Correction.Weighted>
   9.000000E+99

> <Gold.Protein.RotatedTorsions>
[ 6907 6896 6895 6894 ] final -124.21 input  -60.11 | X-H torsion
[ 7974 7965 7964 7962 ] final   51.95 input  175.53 | X-H torsion
[ 8008 7997 7996 7995 ] final  142.94 input   59.86 | X-H torsion
[ 10167 10162 10161 10158 ] final -113.56 input  -65.29 | X-H torsion
[ 10718 10713 10712 10709 ] final -139.17 input   66.30 | X-H torsion
[ 10763 10752 10751 10750 ] final  134.36 input  -60.55 | X-H torsion
[ 11005 11000 10999 10996 ] final -102.78 input  -57.11 | X-H torsion

> <Gold.Protein.ActiveResidues>
 VAL166  LYS551  ARG553  GLY616  TRP617  ASP618  TYR619  PRO620  LYS621  CYS622 
 ASP623  PHE694  ASN695  SER759  ASP760  ASP761  ALA762  ILE779  LEU786  VAL792 
 PHE793  MET794  SER795  GLU796  ALA797  LYS798  CYS799  TRP800  GLU811  SER814 

> <Gold.Protein.RotatedAtoms>
  150.8746  133.7457  159.2950 H   0  0  0  0  0  0  0  0  0  0  0  0  # atno 6907 bound_to 6896
  151.5058  135.1062  159.9850 H   0  0  0  0  0  0  0  0  0  0  0  0  # atno 6908 bound_to 6896
  152.4719  133.8003  159.7005 H   0  0  0  0  0  0  0  0  0  0  0  0  # atno 6909 bound_to 6896
  145.9862  139.4292  143.0101 H   0  0  0  0  0  0  0  0  0  0  0  0  # atno 7974 bound_to 7965
  156.2940  140.2275  156.4809 H   0  0  0  0  0  0  0  0  0  0  0  0  # atno 8008 bound_to 7997
  154.7853  140.0457  157.1180 H   0  0  0  0  0  0  0  0  0  0  0  0  # atno 8009 bound_to 7997
  154.9709  140.3066  155.4991 H   0  0  0  0  0  0  0  0  0  0  0  0  # atno 8010 bound_to 7997
  140.1105  143.4531  152.1755 H   0  0  0  0  0  0  0  0  0  0  0  0  # atno 10167 bound_to 10162
  156.3077  130.7464  151.1532 H   0  0  0  0  0  0  0  0  0  0  0  0  # atno 10718 bound_to 10713
  153.8223  135.3114  155.3411 H   0  0  0  0  0  0  0  0  0  0  0  0  # atno 10763 bound_to 10752
  154.8007  135.4728  154.0272 H   0  0  0  0  0  0  0  0  0  0  0  0  # atno 10764 bound_to 10752
  153.1685  135.6873  153.8731 H   0  0  0  0  0  0  0  0  0  0  0  0  # atno 10765 bound_to 10752
  141.1174  133.8586  157.1403 H   0  0  0  0  0  0  0  0  0  0  0  0  # atno 11005 bound_to 11000
  145.7697  140.9901  143.1156 LP  0  0  0  0  0  0  0  0  0  0  0  0  # atno 17320 bound_to 7965
  144.6875  139.9432  143.7476 LP  0  0  0  0  0  0  0  0  0  0  0  0  # atno 17321 bound_to 7965
  139.5622  144.7412  151.4124 LP  0  0  0  0  0  0  0  0  0  0  0  0  # atno 17342 bound_to 10162
  140.6928  143.7821  150.7281 LP  0  0  0  0  0  0  0  0  0  0  0  0  # atno 17343 bound_to 10162
  157.7383  131.0542  150.5299 LP  0  0  0  0  0  0  0  0  0  0  0  0  # atno 17370 bound_to 10713
  156.5435  130.4214  149.6142 LP  0  0  0  0  0  0  0  0  0  0  0  0  # atno 17371 bound_to 10713
  140.0106  134.9989  157.0387 LP  0  0  0  0  0  0  0  0  0  0  0  0  # atno 17394 bound_to 11000
  140.4606  134.1488  155.7191 LP  0  0  0  0  0  0  0  0  0  0  0  0  # atno 17395 bound_to 11000

$$$$
