AV-unprocessed.smi:1535|AV-procd|sdf|6179|dock4
  -GOLD-   22720 6333D 1   1.00000     0.00000
 Structure written by MMmdl.
 47 48  0  0  0  0  0  0  0  0  2 V2000
  152.0887  143.3649  161.4153 C   0  0  0  0  0  0  0  0  0  0  0  0
  151.8677  142.6563  160.0905 C   0  0  0  0  0  0  0  0  0  0  0  0
  151.8028  141.2448  160.0691 C   0  0  0  0  0  0  0  0  0  0  0  0
  151.5966  140.5476  158.8586 C   0  0  0  0  0  0  0  0  0  0  0  0
  151.4987  139.1898  158.6078 N   0  0  0  0  0  0  0  0  0  0  0  0
  151.3104  139.1728  157.2916 C   0  0  0  0  0  0  0  0  0  0  0  0
  151.2775  140.3614  156.6583 N   0  0  0  0  0  0  0  0  0  0  0  0
  151.0950  140.5975  155.2375 C   0  0  0  0  0  0  0  0  0  0  0  0
  149.7572  140.0357  154.7203 C   0  0  1  0  0  0  0  0  0  0  0  0
  149.2056  140.9356  153.7775 O   0  0  0  0  0  0  0  0  0  0  0  0
  149.9295  138.6587  154.0496 C   0  0  0  0  0  0  0  0  0  0  0  0
  148.7218  137.8037  154.1991 N   0  3  2  0  0  0  0  0  0  0  0  0
  147.4869  138.4758  153.7252 C   0  0  0  0  0  0  0  0  0  0  0  0
  148.5807  137.2517  155.5730 C   0  0  0  0  0  0  0  0  0  0  0  0
  149.5823  136.1192  155.8733 C   0  0  2  0  0  0  0  0  0  0  0  0
  149.5615  135.0474  154.7760 C   0  0  0  0  0  0  0  0  0  0  0  0
  149.3289  135.5174  157.1928 C   0  0  0  0  0  0  0  0  0  0  0  0
  149.1340  135.0455  158.2303 N   0  0  0  0  0  0  0  0  0  0  0  0
  151.4595  141.3075  157.6604 C   0  0  0  0  0  0  0  0  0  0  0  0
  151.5228  142.7119  157.6683 C   0  0  0  0  0  0  0  0  0  0  0  0
  151.7254  143.3928  158.8870 C   0  0  0  0  0  0  0  0  0  0  0  0
  151.7868  144.9100  158.8868 C   0  0  0  0  0  0  0  0  0  0  0  0
  152.2190  142.6528  162.2307 H   0  0  0  0  0  0  0  0  0  0  0  0
  151.2341  143.9974  161.6561 H   0  0  0  0  0  0  0  0  0  0  0  0
  152.9813  143.9894  161.3723 H   0  0  0  0  0  0  0  0  0  0  0  0
  151.9104  140.6837  160.9857 H   0  0  0  0  0  0  0  0  0  0  0  0
  151.1958  138.2419  156.7556 H   0  0  0  0  0  0  0  0  0  0  0  0
  151.1633  141.6698  155.0473 H   0  0  0  0  0  0  0  0  0  0  0  0
  151.9284  140.1336  154.7084 H   0  0  0  0  0  0  0  0  0  0  0  0
  149.0667  139.9636  155.5601 H   0  0  0  0  0  0  0  0  0  0  0  0
  149.5276  140.7114  152.9174 H   0  0  0  0  0  0  0  0  0  0  0  0
  150.1550  138.8228  152.9948 H   0  0  0  0  0  0  0  0  0  0  0  0
  150.7933  138.1347  154.4623 H   0  0  0  0  0  0  0  0  0  0  0  0
  147.2288  139.3174  154.3690 H   0  0  0  0  0  0  0  0  0  0  0  0
  146.6421  137.7888  153.7095 H   0  0  0  0  0  0  0  0  0  0  0  0
  147.5994  138.8533  152.7098 H   0  0  0  0  0  0  0  0  0  0  0  0
  148.7526  138.0447  156.3025 H   0  0  0  0  0  0  0  0  0  0  0  0
  147.5558  136.9098  155.7248 H   0  0  0  0  0  0  0  0  0  0  0  0
  150.5932  136.5230  155.9119 H   0  0  0  0  0  0  0  0  0  0  0  0
  150.2918  134.2644  154.9817 H   0  0  0  0  0  0  0  0  0  0  0  0
  149.8017  135.4750  153.8024 H   0  0  0  0  0  0  0  0  0  0  0  0
  148.5812  134.5752  154.7021 H   0  0  0  0  0  0  0  0  0  0  0  0
  151.4142  143.2601  156.7444 H   0  0  0  0  0  0  0  0  0  0  0  0
  151.6227  145.3151  157.8878 H   0  0  0  0  0  0  0  0  0  0  0  0
  152.7627  145.2523  159.2312 H   0  0  0  0  0  0  0  0  0  0  0  0
  151.0220  145.3236  159.5446 H   0  0  0  0  0  0  0  0  0  0  0  0
  148.8798  137.0090  153.5948 H   0  0  0  0  0  0  0  0  0  0  0  0
  1  2  1  0  0  0  0
  1 23  1  0  0  0  0
  1 24  1  0  0  0  0
  1 25  1  0  0  0  0
  2 21  1  0  0  0  0
  2  3  2  0  0  0  0
  3  4  1  0  0  0  0
  3 26  1  0  0  0  0
  4 19  2  0  0  0  0
  4  5  1  0  0  0  0
  5  6  2  0  0  0  0
  6  7  1  0  0  0  0
  6 27  1  0  0  0  0
  7  8  1  0  0  0  0
  7 19  1  0  0  0  0
  8  9  1  0  0  0  0
  8 28  1  0  0  0  0
  8 29  1  0  0  0  0
  9 10  1  0  0  0  0
  9 11  1  0  0  0  0
  9 30  1  0  0  0  0
 10 31  1  0  0  0  0
 11 12  1  0  0  0  0
 11 32  1  0  0  0  0
 11 33  1  0  0  0  0
 12 13  1  0  0  0  0
 12 14  1  0  0  0  0
 12 47  1  0  0  0  0
 13 34  1  0  0  0  0
 13 35  1  0  0  0  0
 13 36  1  0  0  0  0
 14 15  1  0  0  0  0
 14 37  1  0  0  0  0
 14 38  1  0  0  0  0
 15 16  1  0  0  0  0
 15 17  1  0  0  0  0
 15 39  1  0  0  0  0
 16 40  1  0  0  0  0
 16 41  1  0  0  0  0
 16 42  1  0  0  0  0
 17 18  3  0  0  0  0
 19 20  1  0  0  0  0
 20 21  2  0  0  0  0
 20 43  1  0  0  0  0
 21 22  1  0  0  0  0
 22 44  1  0  0  0  0
 22 45  1  0  0  0  0
 22 46  1  0  0  0  0
M  CHG  1  12   1
M  END
> <s_m_source_file>
AV-unprocessed.smi

> <i_m_source_file_index>
1535

> <i_lp_mmshare_version>
43012

> <i_f3d_flags>
0

> <s_epik_input>
W0NIM11jKFtjSF0xKWMoW0NIM10pW2NIXWMoYzEyKW4oW2NIXW4yKVtDSDJdW0NASF0oW09IXSlbQ0gyXU4oW0NIM10pW0NIMl1bQ0BIXShbQ0gzXSlDI04=

> <s_epik_cmdline>
J2VwaWtfcHl0aG9uJywgJy1waCcsICc3LjAnLCAnLXRuJywgJzgnLCAnLW1hJywgJzIwMCcsICctbWV0YWxfYmluZGluZycsICctaW1hZScsICc8aW5maWxlLm1hZT4nLCAnLW9tYWUnLCAnPG91dGZpbGUubWFlPic=

> <r_epik_Ionization_Penalty>
2.21058

> <r_epik_Ionization_Penalty_Charging>
2.12381

> <r_epik_Ionization_Penalty_Neutral>
0.0867699

> <r_epik_State_Penalty>
2.36208

> <r_epik_Charging_Adjusted_Penalty>
4.48589

> <i_epik_Tot_Q>
1

> <i_epik_Tot_abs_Q>
1

> <r_epik_Metal_State_Penalty>
2.2818

> <b_epik_Metal_Only>
0

> <s_lp_Force_Field>
OPLS_2005

> <r_lp_Energy>
14.9944

> <b_lp_Chiralities_Consistent>
1

> <s_lp_Variant>
AV-unprocessed.smi:1535-10

> <Gold.Version>
5.8.1

> <Gold.Id.Protein>
6NUR|6NUR_protein|mol2

> <Gold.PLP.Fitness>
50.3197

> <Gold.PLP.PLP>
-40.4972

> <Gold.PLP.part.hbond>
-4.7753

> <Gold.PLP.part.metal>
0.0000

> <Gold.PLP.part.buried>
-1.6082

> <Gold.PLP.part.nonpolar>
-34.2827

> <Gold.PLP.part.repulsive>
0.0000

> <Gold.PLP.ligand.clash>
0.0000

> <Gold.PLP.ligand.torsion>
1.1697

> <Gold.PLP.Chemscore.Hbond>
4.0000

> <Gold.PLP.Chemscore.CHOScore>
0.0000

> <Gold.PLP.Chemscore.Metal>
0.0000

> <Gold.Chemscore.Hbonds>
donor molecule, donor type, donor heavy atom, donor atom, acceptor molecule, acceptor atom, score
      L1  H    10    31       P1  7957  1.00
      L1  H    12    47       P1  7948  2.00
      P1  H  6896  6907       L1    18  0.94

> <Gold.PLP.Chemscore.Internal.Correction>
0.1618

> <Gold.Rescore>
     Score         DG    S(hbond)    S(metal)    S(lipo)     H(rot)  DE(clash)    DE(int)     intcor
     18.05     -21.54       2.68        0.00     117.84       2.60       2.13       1.37       ----

> <Gold.Chemscore.Fitness>
18.0455

> <Gold.Chemscore.DG>
-21.5431

> <Gold.Chemscore.ZeroCoef>
-5.4800

> <Gold.Chemscore.Hbond>
2.6765

> <Gold.Chemscore.Metal>
0.0000

> <Gold.Chemscore.Lipo>
117.8416

> <Gold.Chemscore.Internal_Hbond>
0.0000

> <Gold.Chemscore.DEClash>
2.1290

> <Gold.Chemscore.DEInternal>
1.3686

> <Gold.Chemscore.Rot>
2.6031

> <Gold.Chemscore.Internal.Correction>
   9.000000E+99

> <Gold.Chemscore.Hbonds>
donor molecule, donor type, donor heavy atom, donor atom, acceptor molecule, acceptor atom, score
      L1  H    10    31       P1  7957  1.00
      L1  H    12    47       P1  7948  0.95
      P1  H  6896  6907       L1    18  0.89

> <Gold.Chemscore.Hbond.Weighted>
-8.9396

> <Gold.Chemscore.Metal.Weighted>
-0.0000

> <Gold.Chemscore.Lipo.Weighted>
-13.7875

> <Gold.Chemscore.Internal_Hbond.Weighted>
0.0000

> <Gold.Chemscore.DEClash.Weighted>
2.1290

> <Gold.Chemscore.DEInternal.Weighted>
1.3686

> <Gold.Chemscore.Rot.Weighted>
6.6640

> <Gold.Chemscore.Internal.Correction.Weighted>
   9.000000E+99

> <Gold.Protein.RotatedTorsions>
[ 6907 6896 6895 6894 ] final  -86.12 input  -60.11 | X-H torsion
[ 7974 7965 7964 7962 ] final  -18.09 input  175.53 | X-H torsion
[ 8008 7997 7996 7995 ] final -105.33 input   59.86 | X-H torsion
[ 10167 10162 10161 10158 ] final  -68.17 input  -65.29 | X-H torsion
[ 10718 10713 10712 10709 ] final -114.39 input   66.30 | X-H torsion
[ 10763 10752 10751 10750 ] final  175.94 input  -60.55 | X-H torsion
[ 11005 11000 10999 10996 ] final -179.16 input  -57.11 | X-H torsion

> <Gold.Protein.ActiveResidues>
 VAL166  LYS551  ARG553  GLY616  TRP617  ASP618  TYR619  PRO620  LYS621  CYS622 
 ASP623  PHE694  ASN695  SER759  ASP760  ASP761  ALA762  ILE779  LEU786  VAL792 
 PHE793  MET794  SER795  GLU796  ALA797  LYS798  CYS799  TRP800  GLU811  SER814 

> <Gold.Protein.RotatedAtoms>
  150.6868  134.3099  159.4741 H   0  0  0  0  0  0  0  0  0  0  0  0  # atno 6907 bound_to 6896
  152.0986  134.9355  160.0579 H   0  0  0  0  0  0  0  0  0  0  0  0  # atno 6908 bound_to 6896
  152.0642  133.4041  159.4468 H   0  0  0  0  0  0  0  0  0  0  0  0  # atno 6909 bound_to 6896
  146.1909  140.3872  142.8458 H   0  0  0  0  0  0  0  0  0  0  0  0  # atno 7974 bound_to 7965
  154.8983  140.0413  157.1878 H   0  0  0  0  0  0  0  0  0  0  0  0  # atno 8008 bound_to 7997
  154.8470  140.2923  155.5602 H   0  0  0  0  0  0  0  0  0  0  0  0  # atno 8009 bound_to 7997
  156.2994  140.2472  156.3422 H   0  0  0  0  0  0  0  0  0  0  0  0  # atno 8010 bound_to 7997
  140.5528  143.2312  151.6879 H   0  0  0  0  0  0  0  0  0  0  0  0  # atno 10167 bound_to 10162
  156.0827  130.6024  150.8768 H   0  0  0  0  0  0  0  0  0  0  0  0  # atno 10718 bound_to 10713
  154.4745  135.2772  155.1618 H   0  0  0  0  0  0  0  0  0  0  0  0  # atno 10763 bound_to 10752
  154.3353  135.6181  153.5574 H   0  0  0  0  0  0  0  0  0  0  0  0  # atno 10764 bound_to 10752
  152.9868  135.5775  154.5132 H   0  0  0  0  0  0  0  0  0  0  0  0  # atno 10765 bound_to 10752
  140.4217  134.6599  157.4667 H   0  0  0  0  0  0  0  0  0  0  0  0  # atno 11005 bound_to 11000
  144.8485  140.6966  143.6183 LP  0  0  0  0  0  0  0  0  0  0  0  0  # atno 17320 bound_to 7965
  145.3795  139.1640  143.4288 LP  0  0  0  0  0  0  0  0  0  0  0  0  # atno 17321 bound_to 7965
  139.5034  144.3790  152.0394 LP  0  0  0  0  0  0  0  0  0  0  0  0  # atno 17342 bound_to 10162
  140.2909  144.3755  150.6089 LP  0  0  0  0  0  0  0  0  0  0  0  0  # atno 17343 bound_to 10162
  157.5950  131.0943  150.9056 LP  0  0  0  0  0  0  0  0  0  0  0  0  # atno 17370 bound_to 10713
  156.9225  130.5320  149.5279 LP  0  0  0  0  0  0  0  0  0  0  0  0  # atno 17371 bound_to 10713
  140.0195  134.6568  155.9260 LP  0  0  0  0  0  0  0  0  0  0  0  0  # atno 17394 bound_to 11000
  141.1781  133.6542  156.4910 LP  0  0  0  0  0  0  0  0  0  0  0  0  # atno 17395 bound_to 11000

$$$$
