AV-unprocessed.smi:2148|AV-procd|sdf|8747|dock2
  -GOLD-   2272011523D 1   1.00000     0.00000
 Structure written by MMmdl.
 44 45  0  0  0  0  0  0  0  0  1 V2000
  145.6938  136.4801  151.6494 C   0  0  0  0  0  0  0  0  0  0  0  0
  145.8043  137.5821  153.0860 S   0  0  0  0  0  0  0  0  0  0  0  0
  147.1206  138.7184  152.5546 C   0  0  1  0  0  0  0  0  0  0  0  0
  146.6223  139.6061  151.4023 C   0  0  0  0  0  0  0  0  0  0  0  0
  147.6597  139.5595  153.7198 C   0  0  0  0  0  0  0  0  0  0  0  0
  146.8790  140.1764  154.4452 O   0  0  0  0  0  0  0  0  0  0  0  0
  148.9951  139.5409  153.8866 N   0  0  0  0  0  0  0  0  0  0  0  0
  149.7649  140.2171  154.8697 C   0  0  0  0  0  0  0  0  0  0  0  0
  151.1338  139.9620  155.1129 C   0  0  0  0  0  0  0  0  0  0  0  0
  151.7885  140.6764  156.1344 C   0  0  0  0  0  0  0  0  0  0  0  0
  151.0608  141.6225  156.8936 C   0  0  0  0  0  0  0  0  0  0  0  0
  151.7015  142.3439  157.9231 N   0  0  0  0  0  0  0  0  0  0  0  0
  152.3223  141.5278  158.9624 C   0  0  0  0  0  0  0  0  0  0  0  0
  153.2378  142.3909  159.8513 C   0  0  2  0  0  0  0  0  0  0  0  0
  153.8019  141.5974  161.0343 C   0  0  0  0  0  0  0  0  0  0  0  0
  152.4941  143.4917  160.3671 O   0  0  0  0  0  0  0  0  0  0  0  0
  151.9915  144.3396  159.3380 C   0  0  2  0  0  0  0  0  0  0  0  0
  151.2991  145.5379  159.9954 C   0  0  0  0  0  0  0  0  0  0  0  0
  151.0303  143.5309  158.4475 C   0  0  0  0  0  0  0  0  0  0  0  0
  149.7461  141.8588  156.6618 N   0  0  0  0  0  0  0  0  0  0  0  0
  149.1210  141.1685  155.6851 C   0  0  0  0  0  0  0  0  0  0  0  0
  144.8898  135.7586  151.7945 H   0  0  0  0  0  0  0  0  0  0  0  0
  146.6243  135.9300  151.5093 H   0  0  0  0  0  0  0  0  0  0  0  0
  145.4849  137.0512  150.7447 H   0  0  0  0  0  0  0  0  0  0  0  0
  147.9362  138.1085  152.1626 H   0  0  0  0  0  0  0  0  0  0  0  0
  147.3881  140.3155  151.0863 H   0  0  0  0  0  0  0  0  0  0  0  0
  145.7360  140.1749  151.6870 H   0  0  0  0  0  0  0  0  0  0  0  0
  146.3584  139.0019  150.5340 H   0  0  0  0  0  0  0  0  0  0  0  0
  149.5090  138.9118  153.2868 H   0  0  0  0  0  0  0  0  0  0  0  0
  151.6863  139.2270  154.5480 H   0  0  0  0  0  0  0  0  0  0  0  0
  152.8376  140.4979  156.3180 H   0  0  0  0  0  0  0  0  0  0  0  0
  151.5346  141.0721  159.5642 H   0  0  0  0  0  0  0  0  0  0  0  0
  152.9053  140.7126  158.5352 H   0  0  0  0  0  0  0  0  0  0  0  0
  154.0722  142.7704  159.2586 H   0  0  0  0  0  0  0  0  0  0  0  0
  154.3922  140.7475  160.6913 H   0  0  0  0  0  0  0  0  0  0  0  0
  153.0022  141.2156  161.6696 H   0  0  0  0  0  0  0  0  0  0  0  0
  154.4472  142.2235  161.6507 H   0  0  0  0  0  0  0  0  0  0  0  0
  152.8258  144.7085  158.7384 H   0  0  0  0  0  0  0  0  0  0  0  0
  150.9060  146.2237  159.2446 H   0  0  0  0  0  0  0  0  0  0  0  0
  151.9966  146.0947  160.6215 H   0  0  0  0  0  0  0  0  0  0  0  0
  150.4683  145.2171  160.6246 H   0  0  0  0  0  0  0  0  0  0  0  0
  150.6814  144.1573  157.6254 H   0  0  0  0  0  0  0  0  0  0  0  0
  150.1539  143.2253  159.0209 H   0  0  0  0  0  0  0  0  0  0  0  0
  148.0723  141.3893  155.5477 H   0  0  0  0  0  0  0  0  0  0  0  0
  1  2  1  0  0  0  0
  1 22  1  0  0  0  0
  1 23  1  0  0  0  0
  1 24  1  0  0  0  0
  2  3  1  0  0  0  0
  3  4  1  0  0  0  0
  3  5  1  0  0  0  0
  3 25  1  0  0  0  0
  4 26  1  0  0  0  0
  4 27  1  0  0  0  0
  4 28  1  0  0  0  0
  5  6  2  0  0  0  0
  5  7  1  0  0  0  0
  7  8  1  0  0  0  0
  7 29  1  0  0  0  0
  8 21  1  0  0  0  0
  8  9  2  0  0  0  0
  9 10  1  0  0  0  0
  9 30  1  0  0  0  0
 10 11  2  0  0  0  0
 10 31  1  0  0  0  0
 11 12  1  0  0  0  0
 11 20  1  0  0  0  0
 12 19  1  0  0  0  0
 12 13  1  0  0  0  0
 13 14  1  0  0  0  0
 13 32  1  0  0  0  0
 13 33  1  0  0  0  0
 14 15  1  0  0  0  0
 14 16  1  0  0  0  0
 14 34  1  0  0  0  0
 15 35  1  0  0  0  0
 15 36  1  0  0  0  0
 15 37  1  0  0  0  0
 16 17  1  0  0  0  0
 17 18  1  0  0  0  0
 17 19  1  0  0  0  0
 17 38  1  0  0  0  0
 18 39  1  0  0  0  0
 18 40  1  0  0  0  0
 18 41  1  0  0  0  0
 19 42  1  0  0  0  0
 19 43  1  0  0  0  0
 20 21  2  0  0  0  0
 21 44  1  0  0  0  0
M  END
> <s_m_source_file>
AV-unprocessed.smi

> <i_m_source_file_index>
2148

> <i_lp_mmshare_version>
43012

> <i_f3d_flags>
0

> <s_epik_input>
W0NIM11TW0NASF0oW0NIM10pQyg9TylbTkhdYzFbY0hdW2NIXWMobltjSF0xKU4yW0NIMl1bQ0BASF0oW0NIM10pT1tDQEBIXShbQ0gzXSlbQ0gyXTI=

> <s_epik_cmdline>
J2VwaWtfcHl0aG9uJywgJy1waCcsICc3LjAnLCAnLXRuJywgJzgnLCAnLW1hJywgJzIwMCcsICctbWV0YWxfYmluZGluZycsICctaW1hZScsICc8aW5maWxlLm1hZT4nLCAnLW9tYWUnLCAnPG91dGZpbGUubWFlPic=

> <r_lp_tautomer_probability>
1

> <r_epik_Ionization_Penalty>
0.000646494

> <r_epik_Ionization_Penalty_Charging>
0

> <r_epik_Ionization_Penalty_Neutral>
0.000646494

> <r_epik_State_Penalty>
0.000408447

> <r_epik_Charging_Adjusted_Penalty>
0.000408447

> <i_epik_Tot_Q>
0

> <i_epik_Tot_abs_Q>
0

> <r_epik_Metal_State_Penalty>
-0

> <b_epik_Metal_Only>
0

> <s_lp_Force_Field>
OPLS_2005

> <r_lp_Energy>
22.7576

> <b_lp_Chiralities_Consistent>
1

> <s_lp_Variant>
AV-unprocessed.smi:2148-2

> <Gold.Version>
5.8.1

> <Gold.Id.Protein>
6NUR|6NUR_protein|mol2

> <Gold.PLP.Fitness>
42.3476

> <Gold.PLP.PLP>
-43.0924

> <Gold.PLP.part.hbond>
-1.0000

> <Gold.PLP.part.metal>
0.0000

> <Gold.PLP.part.buried>
-0.6771

> <Gold.PLP.part.nonpolar>
-41.7173

> <Gold.PLP.part.repulsive>
0.3849

> <Gold.PLP.ligand.clash>
0.0915

> <Gold.PLP.ligand.torsion>
0.4980

> <Gold.PLP.Chemscore.Hbond>
0.0000

> <Gold.PLP.Chemscore.CHOScore>
0.0000

> <Gold.PLP.Chemscore.Metal>
0.0000

> <Gold.Chemscore.Hbonds>
donor molecule, donor type, donor heavy atom, donor atom, acceptor molecule, acceptor atom, score
      L1  H     7    29       P1  7957  0.01

> <Gold.PLP.Chemscore.Internal.Correction>
0.3427

> <Gold.Rescore>
     Score         DG    S(hbond)    S(metal)    S(lipo)     H(rot)  DE(clash)    DE(int)     intcor
     13.88     -16.41       0.00        0.00     121.08       1.27       0.82       1.70       ----

> <Gold.Chemscore.Fitness>
13.8849

> <Gold.Chemscore.DG>
-16.4080

> <Gold.Chemscore.ZeroCoef>
-5.4800

> <Gold.Chemscore.Hbond>
0.0007

> <Gold.Chemscore.Metal>
0.0000

> <Gold.Chemscore.Lipo>
121.0778

> <Gold.Chemscore.Internal_Hbond>
0.0000

> <Gold.Chemscore.DEClash>
0.8223

> <Gold.Chemscore.DEInternal>
1.7007

> <Gold.Chemscore.Rot>
1.2659

> <Gold.Chemscore.Internal.Correction>
   9.000000E+99

> <Gold.Chemscore.Hbonds>
donor molecule, donor type, donor heavy atom, donor atom, acceptor molecule, acceptor atom, score
      L1  H     7    29       P1  7957  0.01

> <Gold.Chemscore.Hbond.Weighted>
-0.0025

> <Gold.Chemscore.Metal.Weighted>
-0.0000

> <Gold.Chemscore.Lipo.Weighted>
-14.1661

> <Gold.Chemscore.Internal_Hbond.Weighted>
0.0000

> <Gold.Chemscore.DEClash.Weighted>
0.8223

> <Gold.Chemscore.DEInternal.Weighted>
1.7007

> <Gold.Chemscore.Rot.Weighted>
3.2406

> <Gold.Chemscore.Internal.Correction.Weighted>
   9.000000E+99

> <Gold.Protein.RotatedTorsions>
[ 6907 6896 6895 6894 ] final   28.63 input  -60.11 | X-H torsion
[ 7974 7965 7964 7962 ] final  -20.51 input  175.53 | X-H torsion
[ 8008 7997 7996 7995 ] final  -22.68 input   59.86 | X-H torsion
[ 10167 10162 10161 10158 ] final   69.48 input  -65.29 | X-H torsion
[ 10718 10713 10712 10709 ] final  113.60 input   66.30 | X-H torsion
[ 10763 10752 10751 10750 ] final -160.17 input  -60.55 | X-H torsion
[ 11005 11000 10999 10996 ] final  -80.50 input  -57.11 | X-H torsion

> <Gold.Protein.ActiveResidues>
 VAL166  LYS551  ARG553  GLY616  TRP617  ASP618  TYR619  PRO620  LYS621  CYS622 
 ASP623  PHE694  ASN695  SER759  ASP760  ASP761  ALA762  ILE779  LEU786  VAL792 
 PHE793  MET794  SER795  GLU796  ALA797  LYS798  CYS799  TRP800  GLU811  SER814 

> <Gold.Protein.RotatedAtoms>
  152.0197  134.9829  160.0570 H   0  0  0  0  0  0  0  0  0  0  0  0  # atno 6907 bound_to 6896
  152.1349  133.4424  159.4747 H   0  0  0  0  0  0  0  0  0  0  0  0  # atno 6908 bound_to 6896
  150.6859  134.2294  159.4472 H   0  0  0  0  0  0  0  0  0  0  0  0  # atno 6909 bound_to 6896
  146.1784  140.4212  142.8504 H   0  0  0  0  0  0  0  0  0  0  0  0  # atno 7974 bound_to 7965
  154.4630  140.2001  156.0195 H   0  0  0  0  0  0  0  0  0  0  0  0  # atno 8008 bound_to 7997
  156.0874  140.3263  155.7743 H   0  0  0  0  0  0  0  0  0  0  0  0  # atno 8009 bound_to 7997
  155.5012  140.0554  157.2929 H   0  0  0  0  0  0  0  0  0  0  0  0  # atno 8010 bound_to 7997
  140.0673  144.5182  150.7252 H   0  0  0  0  0  0  0  0  0  0  0  0  # atno 10167 bound_to 10162
  157.6329  131.0986  150.7065 H   0  0  0  0  0  0  0  0  0  0  0  0  # atno 10718 bound_to 10713
  154.7413  135.3069  154.8723 H   0  0  0  0  0  0  0  0  0  0  0  0  # atno 10763 bound_to 10752
  153.9537  135.6761  153.4748 H   0  0  0  0  0  0  0  0  0  0  0  0  # atno 10764 bound_to 10752
  153.1011  135.4911  154.8794 H   0  0  0  0  0  0  0  0  0  0  0  0  # atno 10765 bound_to 10752
  141.1668  133.7153  156.8282 H   0  0  0  0  0  0  0  0  0  0  0  0  # atno 11005 bound_to 11000
  144.8274  140.6650  143.6313 LP  0  0  0  0  0  0  0  0  0  0  0  0  # atno 17320 bound_to 7965
  145.4147  139.1574  143.4107 LP  0  0  0  0  0  0  0  0  0  0  0  0  # atno 17321 bound_to 7965
  140.7143  143.2531  151.4485 LP  0  0  0  0  0  0  0  0  0  0  0  0  # atno 17342 bound_to 10162
  139.5857  144.1610  152.2026 LP  0  0  0  0  0  0  0  0  0  0  0  0  # atno 17343 bound_to 10162
  156.7401  130.4736  149.5479 LP  0  0  0  0  0  0  0  0  0  0  0  0  # atno 17370 bound_to 10713
  156.1545  130.6332  151.0639 LP  0  0  0  0  0  0  0  0  0  0  0  0  # atno 17371 bound_to 10713
  140.2070  134.8855  157.3233 LP  0  0  0  0  0  0  0  0  0  0  0  0  # atno 17394 bound_to 11000
  140.2126  134.4119  155.7605 LP  0  0  0  0  0  0  0  0  0  0  0  0  # atno 17395 bound_to 11000

$$$$
