AV-unprocessed.smi:184|AV-procd|sdf|1464|dock5
  -GOLD-   2262019273D 1   1.00000     0.00000
 Structure written by MMmdl.
 54 58  0  0  0  0  0  0  0  0  1 V2000
  154.9489  141.4391  160.7767 O   0  0  0  0  0  0  0  0  0  0  0  0
  153.8151  141.7452  160.4157 C   0  0  0  0  0  0  0  0  0  0  0  0
  153.2063  141.0657  159.1756 C   0  0  0  0  0  0  0  0  0  0  0  0
  151.8124  141.4522  158.8995 N   0  0  0  0  0  0  0  0  0  0  0  0
  151.1734  140.8504  157.8626 C   0  0  0  0  0  0  0  0  0  0  0  0
  150.0718  141.4381  157.3246 N   0  0  0  0  0  0  0  0  0  0  0  0
  149.4191  140.8561  156.3147 C   0  0  0  0  0  0  0  0  0  0  0  0
  149.6952  139.7076  155.6950 N   0  0  0  0  0  0  0  0  0  0  0  0
  150.8105  139.1208  156.2153 C   0  0  0  0  0  0  0  0  0  0  0  0
  151.6015  139.6181  157.2901 C   0  0  0  0  0  0  0  0  0  0  0  0
  152.6627  138.7528  157.5319 N   0  0  0  0  0  0  0  0  0  0  0  0
  152.4978  137.7924  156.6646 C   0  0  0  0  0  0  0  0  0  0  0  0
  151.4161  137.9385  155.8264 N   0  0  0  0  0  0  0  0  0  0  0  0
  151.0060  137.0269  154.7693 C   0  0  0  0  0  0  0  0  0  0  0  0
  150.2952  135.7475  155.2775 C   0  0  0  0  0  0  0  0  0  0  0  0
  149.3385  135.3687  154.3036 O   0  0  0  0  0  0  0  0  0  0  0  0
  151.2681  134.5664  155.4882 C   0  0  0  0  0  0  0  0  0  0  0  0
  150.5926  133.3766  156.1932 C   0  0  0  0  0  0  0  0  0  0  0  0
  150.0107  133.7998  157.4199 O   0  0  0  0  0  0  0  0  0  0  0  0
  148.9785  134.7604  157.2353 C   0  0  0  0  0  0  0  0  0  0  0  0
  149.5567  136.0371  156.5999 C   0  0  0  0  0  0  0  0  0  0  0  0
  151.3933  142.8099  159.2523 C   0  0  2  0  0  0  0  0  0  0  0  0
  152.0453  143.8627  158.3232 C   0  0  0  0  0  0  0  0  0  0  0  0
  151.7048  145.2945  158.7604 C   0  0  0  0  0  0  0  0  0  0  0  0
  152.1132  145.5342  160.2211 C   0  0  0  0  0  0  0  0  0  0  0  0
  151.4356  144.5173  161.1535 C   0  0  0  0  0  0  0  0  0  0  0  0
  151.7248  143.0605  160.7417 C   0  0  2  0  0  0  0  0  0  0  0  0
  153.0975  142.6753  161.0689 N   0  0  0  0  0  0  0  0  0  0  0  0
  153.8386  141.3150  158.3223 H   0  0  0  0  0  0  0  0  0  0  0  0
  153.2601  139.9850  159.3131 H   0  0  0  0  0  0  0  0  0  0  0  0
  148.5513  141.3866  155.9514 H   0  0  0  0  0  0  0  0  0  0  0  0
  153.1718  136.9502  156.6046 H   0  0  0  0  0  0  0  0  0  0  0  0
  150.3461  137.5754  154.0961 H   0  0  0  0  0  0  0  0  0  0  0  0
  151.8864  136.7643  154.1807 H   0  0  0  0  0  0  0  0  0  0  0  0
  149.5297  135.8262  153.4992 H   0  0  0  0  0  0  0  0  0  0  0  0
  151.6887  134.2340  154.5386 H   0  0  0  0  0  0  0  0  0  0  0  0
  152.1096  134.8984  156.0977 H   0  0  0  0  0  0  0  0  0  0  0  0
  149.8334  132.9214  155.5557 H   0  0  0  0  0  0  0  0  0  0  0  0
  151.3303  132.6025  156.4049 H   0  0  0  0  0  0  0  0  0  0  0  0
  148.1798  134.3412  156.6219 H   0  0  0  0  0  0  0  0  0  0  0  0
  148.5402  134.9937  158.2057 H   0  0  0  0  0  0  0  0  0  0  0  0
  150.2517  136.4882  157.3094 H   0  0  0  0  0  0  0  0  0  0  0  0
  148.7635  136.7696  156.4436 H   0  0  0  0  0  0  0  0  0  0  0  0
  150.3149  142.9175  159.1472 H   0  0  0  0  0  0  0  0  0  0  0  0
  153.1295  143.7475  158.3148 H   0  0  0  0  0  0  0  0  0  0  0  0
  151.7156  143.7061  157.2956 H   0  0  0  0  0  0  0  0  0  0  0  0
  152.2091  146.0103  158.1107 H   0  0  0  0  0  0  0  0  0  0  0  0
  150.6347  145.4700  158.6438 H   0  0  0  0  0  0  0  0  0  0  0  0
  153.1971  145.4624  160.3179 H   0  0  0  0  0  0  0  0  0  0  0  0
  151.8426  146.5472  160.5196 H   0  0  0  0  0  0  0  0  0  0  0  0
  151.7482  144.6880  162.1844 H   0  0  0  0  0  0  0  0  0  0  0  0
  150.3577  144.6836  161.1336 H   0  0  0  0  0  0  0  0  0  0  0  0
  151.0871  142.4119  161.3443 H   0  0  0  0  0  0  0  0  0  0  0  0
  153.5203  143.1227  161.8692 H   0  0  0  0  0  0  0  0  0  0  0  0
  1  2  2  0  0  0  0
  2 28  1  0  0  0  0
  2  3  1  0  0  0  0
  3  4  1  0  0  0  0
  3 29  1  0  0  0  0
  3 30  1  0  0  0  0
  4  5  1  0  0  0  0
  4 22  1  0  0  0  0
  5 10  1  0  0  0  0
  5  6  2  0  0  0  0
  6  7  1  0  0  0  0
  7  8  2  0  0  0  0
  7 31  1  0  0  0  0
  8  9  1  0  0  0  0
  9 13  1  0  0  0  0
  9 10  2  0  0  0  0
 10 11  1  0  0  0  0
 11 12  2  0  0  0  0
 12 13  1  0  0  0  0
 12 32  1  0  0  0  0
 13 14  1  0  0  0  0
 14 15  1  0  0  0  0
 14 33  1  0  0  0  0
 14 34  1  0  0  0  0
 15 21  1  0  0  0  0
 15 16  1  0  0  0  0
 15 17  1  0  0  0  0
 16 35  1  0  0  0  0
 17 18  1  0  0  0  0
 17 36  1  0  0  0  0
 17 37  1  0  0  0  0
 18 19  1  0  0  0  0
 18 38  1  0  0  0  0
 18 39  1  0  0  0  0
 19 20  1  0  0  0  0
 20 21  1  0  0  0  0
 20 40  1  0  0  0  0
 20 41  1  0  0  0  0
 21 42  1  0  0  0  0
 21 43  1  0  0  0  0
 22 27  1  0  0  0  0
 22 23  1  0  0  0  0
 22 44  1  0  0  0  0
 23 24  1  0  0  0  0
 23 45  1  0  0  0  0
 23 46  1  0  0  0  0
 24 25  1  0  0  0  0
 24 47  1  0  0  0  0
 24 48  1  0  0  0  0
 25 26  1  0  0  0  0
 25 49  1  0  0  0  0
 25 50  1  0  0  0  0
 26 27  1  0  0  0  0
 26 51  1  0  0  0  0
 26 52  1  0  0  0  0
 27 28  1  0  0  0  0
 27 53  1  0  0  0  0
 28 54  1  0  0  0  0
M  END
> <s_m_source_file>
AV-unprocessed.smi

> <i_m_source_file_index>
184

> <i_lp_mmshare_version>
43012

> <i_f3d_flags>
0

> <s_epik_input>
W0NIMl0xW0NIMl1bQ0gyXVtDSDJdW0NASF0oW0NASF0xMilbTkhdQyg9TylbQ0gyXU4yYyhuW2NIXW4zKWMoYzM0KW5bY0hdbjRbQ0gyXUM1KFtPSF0pW0NIMl1bQ0gyXU9bQ0gyXVtDSDJdNQ==

> <s_epik_cmdline>
J2VwaWtfcHl0aG9uJywgJy1waCcsICc3LjAnLCAnLXRuJywgJzgnLCAnLW1hJywgJzIwMCcsICctbWV0YWxfYmluZGluZycsICctaW1hZScsICc8aW5maWxlLm1hZT4nLCAnLW9tYWUnLCAnPG91dGZpbGUubWFlPic=

> <r_lp_tautomer_probability>
1

> <r_epik_Ionization_Penalty>
0.000822761

> <r_epik_Ionization_Penalty_Charging>
0

> <r_epik_Ionization_Penalty_Neutral>
0.000822761

> <r_epik_State_Penalty>
0.000403048

> <r_epik_Charging_Adjusted_Penalty>
0.000403048

> <i_epik_Tot_Q>
0

> <i_epik_Tot_abs_Q>
0

> <r_epik_Metal_State_Penalty>
-0

> <b_epik_Metal_Only>
0

> <s_lp_Force_Field>
OPLS_2005

> <r_lp_Energy>
36.9453

> <b_lp_Chiralities_Consistent>
1

> <s_lp_Variant>
AV-unprocessed.smi:184-4

> <Gold.Version>
5.8.1

> <Gold.Id.Protein>
6NUR|6NUR_protein|mol2

> <Gold.PLP.Fitness>
45.5985

> <Gold.PLP.PLP>
-41.3099

> <Gold.PLP.part.hbond>
-3.0000

> <Gold.PLP.part.metal>
0.0000

> <Gold.PLP.part.buried>
-4.8829

> <Gold.PLP.part.nonpolar>
-32.7148

> <Gold.PLP.part.repulsive>
0.1268

> <Gold.PLP.ligand.clash>
0.0000

> <Gold.PLP.ligand.torsion>
0.9493

> <Gold.PLP.Chemscore.Hbond>
2.0000

> <Gold.PLP.Chemscore.CHOScore>
0.0000

> <Gold.PLP.Chemscore.Metal>
0.0000

> <Gold.Chemscore.Hbonds>
donor molecule, donor type, donor heavy atom, donor atom, acceptor molecule, acceptor atom, score
      L1  H    16    35       P1  7948  0.94
      P1  H  6896  6909       L1    19  1.00
      P1  H  7997  8008       L1    11  0.28

> <Gold.PLP.Chemscore.Internal.Correction>
0.1871

> <Gold.Rescore>
     Score         DG    S(hbond)    S(metal)    S(lipo)     H(rot)  DE(clash)    DE(int)     intcor
     16.45     -19.44       1.82        0.00     107.17       1.83       0.77       2.22       ----

> <Gold.Chemscore.Fitness>
16.4498

> <Gold.Chemscore.DG>
-19.4378

> <Gold.Chemscore.ZeroCoef>
-5.4800

> <Gold.Chemscore.Hbond>
1.8238

> <Gold.Chemscore.Metal>
0.0000

> <Gold.Chemscore.Lipo>
107.1745

> <Gold.Chemscore.Internal_Hbond>
0.0000

> <Gold.Chemscore.DEClash>
0.7705

> <Gold.Chemscore.DEInternal>
2.2176

> <Gold.Chemscore.Rot>
1.8255

> <Gold.Chemscore.Internal.Correction>
   9.000000E+99

> <Gold.Chemscore.Hbonds>
donor molecule, donor type, donor heavy atom, donor atom, acceptor molecule, acceptor atom, score
      L1  H    16    35       P1  7948  0.23
      P1  H  6896  6909       L1    19  0.71
      P1  H  7997  8008       L1    11  0.05

> <Gold.Chemscore.Hbond.Weighted>
-6.0916

> <Gold.Chemscore.Metal.Weighted>
-0.0000

> <Gold.Chemscore.Lipo.Weighted>
-12.5394

> <Gold.Chemscore.Internal_Hbond.Weighted>
0.0000

> <Gold.Chemscore.DEClash.Weighted>
0.7705

> <Gold.Chemscore.DEInternal.Weighted>
2.2176

> <Gold.Chemscore.Rot.Weighted>
4.6732

> <Gold.Chemscore.Internal.Correction.Weighted>
   9.000000E+99

> <Gold.Protein.RotatedTorsions>
[ 6907 6896 6895 6894 ] final    7.01 input  -60.11 | X-H torsion
[ 7974 7965 7964 7962 ] final -138.44 input  175.53 | X-H torsion
[ 8008 7997 7996 7995 ] final  -71.63 input   59.86 | X-H torsion
[ 10167 10162 10161 10158 ] final   52.94 input  -65.29 | X-H torsion
[ 10718 10713 10712 10709 ] final  -51.73 input   66.30 | X-H torsion
[ 10763 10752 10751 10750 ] final   76.91 input  -60.55 | X-H torsion
[ 11005 11000 10999 10996 ] final    3.09 input  -57.11 | X-H torsion

> <Gold.Protein.ActiveResidues>
 VAL166  LYS551  ARG553  GLY616  TRP617  ASP618  TYR619  PRO620  LYS621  CYS622 
 ASP623  PHE694  ASN695  SER759  ASP760  ASP761  ALA762  ILE779  LEU786  VAL792 
 PHE793  MET794  SER795  GLU796  ALA797  LYS798  CYS799  TRP800  GLU811  SER814 

> <Gold.Protein.RotatedAtoms>
  151.6829  135.0959  160.0219 H   0  0  0  0  0  0  0  0  0  0  0  0  # atno 6907 bound_to 6896
  152.3825  133.6561  159.6181 H   0  0  0  0  0  0  0  0  0  0  0  0  # atno 6908 bound_to 6896
  150.7758  133.9007  159.3382 H   0  0  0  0  0  0  0  0  0  0  0  0  # atno 6909 bound_to 6896
  144.8758  140.6435  143.5237 H   0  0  0  0  0  0  0  0  0  0  0  0  # atno 7974 bound_to 7965
  154.5102  140.0812  156.7975 H   0  0  0  0  0  0  0  0  0  0  0  0  # atno 8008 bound_to 7997
  155.3801  140.3427  155.4228 H   0  0  0  0  0  0  0  0  0  0  0  0  # atno 8009 bound_to 7997
  156.1564  140.1574  156.8672 H   0  0  0  0  0  0  0  0  0  0  0  0  # atno 8010 bound_to 7997
  140.2460  144.3531  150.6364 H   0  0  0  0  0  0  0  0  0  0  0  0  # atno 10167 bound_to 10162
  156.1684  130.4149  149.9685 H   0  0  0  0  0  0  0  0  0  0  0  0  # atno 10718 bound_to 10713
  153.0759  135.4934  154.8404 H   0  0  0  0  0  0  0  0  0  0  0  0  # atno 10763 bound_to 10752
  154.7087  135.3015  154.9233 H   0  0  0  0  0  0  0  0  0  0  0  0  # atno 10764 bound_to 10752
  153.9934  135.6775  153.4808 H   0  0  0  0  0  0  0  0  0  0  0  0  # atno 10765 bound_to 10752
  140.5969  133.9871  155.8114 H   0  0  0  0  0  0  0  0  0  0  0  0  # atno 11005 bound_to 11000
  145.4044  139.1591  143.4160 LP  0  0  0  0  0  0  0  0  0  0  0  0  # atno 17320 bound_to 7965
  146.2962  140.4144  142.8721 LP  0  0  0  0  0  0  0  0  0  0  0  0  # atno 17321 bound_to 7965
  140.6077  143.2168  151.6948 LP  0  0  0  0  0  0  0  0  0  0  0  0  # atno 17342 bound_to 10162
  139.5061  144.3692  152.0487 LP  0  0  0  0  0  0  0  0  0  0  0  0  # atno 17343 bound_to 10162
  156.7492  130.9109  151.3636 LP  0  0  0  0  0  0  0  0  0  0  0  0  # atno 17370 bound_to 10713
  157.6785  130.9117  150.0208 LP  0  0  0  0  0  0  0  0  0  0  0  0  # atno 17371 bound_to 10713
  141.0898  133.9935  157.3256 LP  0  0  0  0  0  0  0  0  0  0  0  0  # atno 17394 bound_to 11000
  139.9249  135.0201  156.8199 LP  0  0  0  0  0  0  0  0  0  0  0  0  # atno 17395 bound_to 11000

$$$$
