AV-unprocessed.smi:653|AV-procd|sdf|3211|dock5
  -GOLD-   22720 0153D 1   1.00000     0.00000
 Structure written by MMmdl.
 45 46  0  0  0  0  0  0  0  0  2 V2000
  146.8552  138.9652  151.4750 C   0  0  0  0  0  0  0  0  0  0  0  0
  147.3831  139.4724  152.8003 C   0  0  0  0  0  0  0  0  0  0  0  0
  146.8785  140.6380  153.4160 C   0  0  0  0  0  0  0  0  0  0  0  0
  147.4129  141.0489  154.6548 C   0  0  0  0  0  0  0  0  0  0  0  0
  148.4396  140.2863  155.2546 C   0  0  0  0  0  0  0  0  0  0  0  0
  149.0315  140.6986  156.5908 C   0  0  0  0  0  0  0  0  0  0  0  0
  150.3822  141.3849  156.3859 C   0  0  0  0  0  0  0  0  0  0  0  0
  151.2584  140.8300  155.7239 O   0  0  0  0  0  0  0  0  0  0  0  0
  150.5378  142.5872  156.9615 N   0  0  0  0  0  0  0  0  0  0  0  0
  151.7447  143.4030  156.8834 C   0  0  0  0  0  0  0  0  0  0  0  0
  152.1900  143.9050  158.2707 C   0  0  1  0  0  0  0  0  0  0  0  0
  151.4636  145.1483  158.7474 C   0  0  0  0  0  0  0  0  0  0  0  0
  151.7362  145.1078  160.2459 C   0  0  0  0  0  0  0  0  0  0  0  0
  151.7437  143.7268  160.5905 O   0  0  0  0  0  0  0  0  0  0  0  0
  151.8882  142.9270  159.4173 C   0  0  2  0  0  0  0  0  0  0  0  0
  152.9197  141.7959  159.6351 C   0  0  0  0  0  0  0  0  0  0  0  0
  152.4372  140.4864  158.9919 C   0  0  0  0  0  0  0  0  0  0  0  0
  153.2779  141.5707  161.1158 C   0  0  0  0  0  0  0  0  0  0  0  0
  148.9060  139.1308  154.5907 C   0  0  0  0  0  0  0  0  0  0  0  0
  148.3674  138.7701  153.4054 N   0  3  0  0  0  0  0  0  0  0  0  0
  146.2604  139.7289  150.9729 H   0  0  0  0  0  0  0  0  0  0  0  0
  146.2254  138.0888  151.6301 H   0  0  0  0  0  0  0  0  0  0  0  0
  147.6768  138.6874  150.8141 H   0  0  0  0  0  0  0  0  0  0  0  0
  146.0911  141.2109  152.9480 H   0  0  0  0  0  0  0  0  0  0  0  0
  147.0345  141.9377  155.1388 H   0  0  0  0  0  0  0  0  0  0  0  0
  148.3461  141.3779  157.1000 H   0  0  0  0  0  0  0  0  0  0  0  0
  149.1508  139.8283  157.2379 H   0  0  0  0  0  0  0  0  0  0  0  0
  149.7639  142.9692  157.4854 H   0  0  0  0  0  0  0  0  0  0  0  0
  152.5314  142.7982  156.4316 H   0  0  0  0  0  0  0  0  0  0  0  0
  151.5809  144.2454  156.2095 H   0  0  0  0  0  0  0  0  0  0  0  0
  153.2555  144.1317  158.2472 H   0  0  0  0  0  0  0  0  0  0  0  0
  151.8228  146.0644  158.2775 H   0  0  0  0  0  0  0  0  0  0  0  0
  150.3922  145.0633  158.5599 H   0  0  0  0  0  0  0  0  0  0  0  0
  152.7198  145.5259  160.4637 H   0  0  0  0  0  0  0  0  0  0  0  0
  150.9954  145.6614  160.8230 H   0  0  0  0  0  0  0  0  0  0  0  0
  150.9092  142.4827  159.2299 H   0  0  0  0  0  0  0  0  0  0  0  0
  153.8362  142.0810  159.1174 H   0  0  0  0  0  0  0  0  0  0  0  0
  151.5193  140.1295  159.4602 H   0  0  0  0  0  0  0  0  0  0  0  0
  153.1869  139.7007  159.0889 H   0  0  0  0  0  0  0  0  0  0  0  0
  152.2380  140.6187  157.9282 H   0  0  0  0  0  0  0  0  0  0  0  0
  152.3970  141.3101  161.7036 H   0  0  0  0  0  0  0  0  0  0  0  0
  153.7308  142.4525  161.5671 H   0  0  0  0  0  0  0  0  0  0  0  0
  153.9954  140.7567  161.2223 H   0  0  0  0  0  0  0  0  0  0  0  0
  149.6839  138.4851  154.9723 H   0  0  0  0  0  0  0  0  0  0  0  0
  148.7188  137.9290  152.9469 H   0  0  0  0  0  0  0  0  0  0  0  0
  1  2  1  0  0  0  0
  1 21  1  0  0  0  0
  1 22  1  0  0  0  0
  1 23  1  0  0  0  0
  2 20  1  0  0  0  0
  2  3  2  0  0  0  0
  3  4  1  0  0  0  0
  3 24  1  0  0  0  0
  4  5  2  0  0  0  0
  4 25  1  0  0  0  0
  5  6  1  0  0  0  0
  5 19  1  0  0  0  0
  6  7  1  0  0  0  0
  6 26  1  0  0  0  0
  6 27  1  0  0  0  0
  7  8  2  0  0  0  0
  7  9  1  0  0  0  0
  9 10  1  0  0  0  0
  9 28  1  0  0  0  0
 10 11  1  0  0  0  0
 10 29  1  0  0  0  0
 10 30  1  0  0  0  0
 11 15  1  0  0  0  0
 11 12  1  0  0  0  0
 11 31  1  0  0  0  0
 12 13  1  0  0  0  0
 12 32  1  0  0  0  0
 12 33  1  0  0  0  0
 13 14  1  0  0  0  0
 13 34  1  0  0  0  0
 13 35  1  0  0  0  0
 14 15  1  0  0  0  0
 15 16  1  0  0  0  0
 15 36  1  0  0  0  0
 16 17  1  0  0  0  0
 16 18  1  0  0  0  0
 16 37  1  0  0  0  0
 17 38  1  0  0  0  0
 17 39  1  0  0  0  0
 17 40  1  0  0  0  0
 18 41  1  0  0  0  0
 18 42  1  0  0  0  0
 18 43  1  0  0  0  0
 19 20  2  0  0  0  0
 19 44  1  0  0  0  0
 20 45  1  0  0  0  0
M  CHG  1  20   1
M  END
> <s_m_source_file>
AV-unprocessed.smi

> <i_m_source_file_index>
653

> <i_lp_mmshare_version>
43012

> <i_f3d_flags>
0

> <s_epik_input>
W0NIM11jMVtjSF1bY0hdYyhbY0hdbjEpW0NIMl1DKD1PKVtOSF1bQ0gyXVtDQEBIXTJbQ0gyXVtDSDJdT1tDQEhdMltDSF0oW0NIM10pW0NIM10=

> <s_epik_cmdline>
J2VwaWtfcHl0aG9uJywgJy1waCcsICc3LjAnLCAnLXRuJywgJzgnLCAnLW1hJywgJzIwMCcsICctbWV0YWxfYmluZGluZycsICctaW1hZScsICc8aW5maWxlLm1hZT4nLCAnLW9tYWUnLCAnPG91dGZpbGUubWFlPic=

> <r_epik_Ionization_Penalty>
2.12486

> <r_epik_Ionization_Penalty_Charging>
2.12486

> <r_epik_Ionization_Penalty_Neutral>
9.0873e-08

> <r_epik_State_Penalty>
2.26279

> <r_epik_Charging_Adjusted_Penalty>
4.38765

> <i_epik_Tot_Q>
1

> <i_epik_Tot_abs_Q>
1

> <r_epik_Metal_State_Penalty>
2.27914

> <b_epik_Metal_Only>
0

> <s_lp_Force_Field>
OPLS_2005

> <r_lp_Energy>
26.1393

> <b_lp_Chiralities_Consistent>
1

> <s_lp_Variant>
AV-unprocessed.smi:653-8

> <Gold.Version>
5.8.1

> <Gold.Id.Protein>
6NUR|6NUR_protein|mol2

> <Gold.PLP.Fitness>
47.9533

> <Gold.PLP.PLP>
-44.0964

> <Gold.PLP.part.hbond>
-4.0000

> <Gold.PLP.part.metal>
0.0000

> <Gold.PLP.part.buried>
-0.6415

> <Gold.PLP.part.nonpolar>
-40.0790

> <Gold.PLP.part.repulsive>
0.2015

> <Gold.PLP.ligand.clash>
0.0000

> <Gold.PLP.ligand.torsion>
1.8373

> <Gold.PLP.Chemscore.Hbond>
2.4992

> <Gold.PLP.Chemscore.CHOScore>
0.0000

> <Gold.PLP.Chemscore.Metal>
0.0000

> <Gold.Chemscore.Hbonds>
donor molecule, donor type, donor heavy atom, donor atom, acceptor molecule, acceptor atom, score
      L1  H    20    45       P1  7948  2.00
      P1  H  7989  7998       L1     8  0.34

> <Gold.PLP.Chemscore.Internal.Correction>
0.0339

> <Gold.Rescore>
     Score         DG    S(hbond)    S(metal)    S(lipo)     H(rot)  DE(clash)    DE(int)     intcor
     18.45     -21.94       1.68        0.00     127.04       1.57       1.34       2.15       ----

> <Gold.Chemscore.Fitness>
18.4484

> <Gold.Chemscore.DG>
-21.9426

> <Gold.Chemscore.ZeroCoef>
-5.4800

> <Gold.Chemscore.Hbond>
1.6821

> <Gold.Chemscore.Metal>
0.0000

> <Gold.Chemscore.Lipo>
127.0432

> <Gold.Chemscore.Internal_Hbond>
0.0000

> <Gold.Chemscore.DEClash>
1.3445

> <Gold.Chemscore.DEInternal>
2.1497

> <Gold.Chemscore.Rot>
1.5701

> <Gold.Chemscore.Internal.Correction>
   9.000000E+99

> <Gold.Chemscore.Hbonds>
donor molecule, donor type, donor heavy atom, donor atom, acceptor molecule, acceptor atom, score
      L1  H    20    45       P1  7948  0.96
      P1  H  7989  7998       L1     8  0.33

> <Gold.Chemscore.Hbond.Weighted>
-5.6181

> <Gold.Chemscore.Metal.Weighted>
-0.0000

> <Gold.Chemscore.Lipo.Weighted>
-14.8640

> <Gold.Chemscore.Internal_Hbond.Weighted>
0.0000

> <Gold.Chemscore.DEClash.Weighted>
1.3445

> <Gold.Chemscore.DEInternal.Weighted>
2.1497

> <Gold.Chemscore.Rot.Weighted>
4.0196

> <Gold.Chemscore.Internal.Correction.Weighted>
   9.000000E+99

> <Gold.Protein.RotatedTorsions>
[ 6907 6896 6895 6894 ] final  -21.60 input  -60.11 | X-H torsion
[ 7974 7965 7964 7962 ] final -101.03 input  175.53 | X-H torsion
[ 8008 7997 7996 7995 ] final   -7.95 input   59.86 | X-H torsion
[ 10167 10162 10161 10158 ] final  -43.60 input  -65.29 | X-H torsion
[ 10718 10713 10712 10709 ] final -177.25 input   66.30 | X-H torsion
[ 10763 10752 10751 10750 ] final -114.94 input  -60.55 | X-H torsion
[ 11005 11000 10999 10996 ] final   37.77 input  -57.11 | X-H torsion

> <Gold.Protein.ActiveResidues>
 VAL166  LYS551  ARG553  GLY616  TRP617  ASP618  TYR619  PRO620  LYS621  CYS622 
 ASP623  PHE694  ASN695  SER759  ASP760  ASP761  ALA762  ILE779  LEU786  VAL792 
 PHE793  MET794  SER795  GLU796  ALA797  LYS798  CYS799  TRP800  GLU811  SER814 

> <Gold.Protein.RotatedAtoms>
  151.2310  135.0554  159.8987 H   0  0  0  0  0  0  0  0  0  0  0  0  # atno 6907 bound_to 6896
  152.5405  134.0537  159.8131 H   0  0  0  0  0  0  0  0  0  0  0  0  # atno 6908 bound_to 6896
  151.0717  133.5412  159.2658 H   0  0  0  0  0  0  0  0  0  0  0  0  # atno 6909 bound_to 6896
  145.2869  140.9342  143.2900 H   0  0  0  0  0  0  0  0  0  0  0  0  # atno 7974 bound_to 7965
  154.5788  140.2394  155.8083 H   0  0  0  0  0  0  0  0  0  0  0  0  # atno 8008 bound_to 7997
  156.2163  140.3011  155.9805 H   0  0  0  0  0  0  0  0  0  0  0  0  # atno 8009 bound_to 7997
  155.2578  140.0413  157.2984 H   0  0  0  0  0  0  0  0  0  0  0  0  # atno 8010 bound_to 7997
  140.6928  143.2974  151.3375 H   0  0  0  0  0  0  0  0  0  0  0  0  # atno 10167 bound_to 10162
  156.8268  130.9639  151.3109 H   0  0  0  0  0  0  0  0  0  0  0  0  # atno 10718 bound_to 10713
  154.8461  135.4400  154.1584 H   0  0  0  0  0  0  0  0  0  0  0  0  # atno 10763 bound_to 10752
  153.2727  135.6946  153.7470 H   0  0  0  0  0  0  0  0  0  0  0  0  # atno 10764 bound_to 10752
  153.6704  135.3420  155.3127 H   0  0  0  0  0  0  0  0  0  0  0  0  # atno 10765 bound_to 10752
  140.2192  134.3661  155.8012 H   0  0  0  0  0  0  0  0  0  0  0  0  # atno 11005 bound_to 11000
  144.9205  139.4417  143.6543 LP  0  0  0  0  0  0  0  0  0  0  0  0  # atno 17320 bound_to 7965
  146.3198  139.8063  142.8955 LP  0  0  0  0  0  0  0  0  0  0  0  0  # atno 17321 bound_to 7965
  139.6349  144.0650  152.2507 LP  0  0  0  0  0  0  0  0  0  0  0  0  # atno 17342 bound_to 10162
  140.0137  144.6205  150.7625 LP  0  0  0  0  0  0  0  0  0  0  0  0  # atno 17343 bound_to 10162
  157.6428  130.8819  149.9481 LP  0  0  0  0  0  0  0  0  0  0  0  0  # atno 17370 bound_to 10713
  156.0957  130.3659  150.0311 LP  0  0  0  0  0  0  0  0  0  0  0  0  # atno 17371 bound_to 10713
  141.2223  133.7184  156.8548 LP  0  0  0  0  0  0  0  0  0  0  0  0  # atno 17394 bound_to 11000
  140.1867  134.8994  157.3013 LP  0  0  0  0  0  0  0  0  0  0  0  0  # atno 17395 bound_to 11000

$$$$
