AV-unprocessed.smi:2993|AV-procd|sdf|11402|dock10
  -GOLD-   2272016323D 1   1.00000     0.00000
 Structure written by MMmdl.
 34 35  0  0  0  0  0  0  0  0  1 V2000
  152.5424  137.9025  156.3344 C   0  0  0  0  0  0  0  0  0  0  0  0
  151.5546  138.8569  155.7266 C   0  0  0  0  0  0  0  0  0  0  0  0
  151.3802  138.8598  154.4158 N   0  0  0  0  0  0  0  0  0  0  0  0
  150.4146  139.8380  154.1595 O   0  0  0  0  0  0  0  0  0  0  0  0
  150.0421  140.3938  155.3402 C   0  0  0  0  0  0  0  0  0  0  0  0
  149.0080  141.4664  155.2721 C   0  0  0  0  0  0  0  0  0  0  0  0
  150.7284  139.8197  156.3756 C   0  0  0  0  0  0  0  0  0  0  0  0
  150.6378  140.1225  157.8493 C   0  0  0  0  0  0  0  0  0  0  0  0
  151.9469  140.7520  158.3249 C   0  0  0  0  0  0  0  0  0  0  0  0
  153.0148  140.1716  158.1318 O   0  0  0  0  0  0  0  0  0  0  0  0
  151.8458  141.9351  158.9506 N   0  0  0  0  0  0  0  0  0  0  0  0
  152.9562  142.7010  159.5053 C   0  0  2  0  0  0  0  0  0  0  0  0
  153.3914  142.0443  160.8226 C   0  0  0  0  0  0  0  0  0  0  0  0
  152.6329  144.1710  159.7140 C   0  0  0  0  0  0  0  0  0  0  0  0
  151.2065  144.6691  159.7337 C   0  0  0  0  0  0  0  0  0  0  0  0
  152.1147  145.0214  158.5784 C   0  0  0  0  0  0  0  0  0  0  0  0
  152.3310  137.7301  157.3895 H   0  0  0  0  0  0  0  0  0  0  0  0
  153.5578  138.2918  156.2590 H   0  0  0  0  0  0  0  0  0  0  0  0
  152.5186  136.9339  155.8339 H   0  0  0  0  0  0  0  0  0  0  0  0
  148.5716  141.6550  156.2528 H   0  0  0  0  0  0  0  0  0  0  0  0
  148.2015  141.1845  154.5951 H   0  0  0  0  0  0  0  0  0  0  0  0
  149.4435  142.3981  154.9120 H   0  0  0  0  0  0  0  0  0  0  0  0
  149.8165  140.8067  158.0648 H   0  0  0  0  0  0  0  0  0  0  0  0
  150.4372  139.2217  158.4308 H   0  0  0  0  0  0  0  0  0  0  0  0
  150.9238  142.3315  159.0599 H   0  0  0  0  0  0  0  0  0  0  0  0
  153.7999  142.6346  158.8154 H   0  0  0  0  0  0  0  0  0  0  0  0
  154.2605  142.5492  161.2455 H   0  0  0  0  0  0  0  0  0  0  0  0
  153.6625  140.9987  160.6716 H   0  0  0  0  0  0  0  0  0  0  0  0
  152.5938  142.0779  161.5656 H   0  0  0  0  0  0  0  0  0  0  0  0
  153.3200  144.6726  160.3935 H   0  0  0  0  0  0  0  0  0  0  0  0
  150.4126  143.9497  159.5434 H   0  0  0  0  0  0  0  0  0  0  0  0
  150.9602  145.4584  160.4408 H   0  0  0  0  0  0  0  0  0  0  0  0
  152.4744  146.0461  158.5147 H   0  0  0  0  0  0  0  0  0  0  0  0
  151.9237  144.5338  157.6243 H   0  0  0  0  0  0  0  0  0  0  0  0
  1  2  1  0  0  0  0
  1 17  1  0  0  0  0
  1 18  1  0  0  0  0
  1 19  1  0  0  0  0
  2  7  1  0  0  0  0
  2  3  2  0  0  0  0
  3  4  1  0  0  0  0
  4  5  1  0  0  0  0
  5  6  1  0  0  0  0
  5  7  2  0  0  0  0
  6 20  1  0  0  0  0
  6 21  1  0  0  0  0
  6 22  1  0  0  0  0
  7  8  1  0  0  0  0
  8  9  1  0  0  0  0
  8 23  1  0  0  0  0
  8 24  1  0  0  0  0
  9 10  2  0  0  0  0
  9 11  1  0  0  0  0
 11 12  1  0  0  0  0
 11 25  1  0  0  0  0
 12 13  1  0  0  0  0
 12 14  1  0  0  0  0
 12 26  1  0  0  0  0
 13 27  1  0  0  0  0
 13 28  1  0  0  0  0
 13 29  1  0  0  0  0
 14 16  1  0  0  0  0
 14 15  1  0  0  0  0
 14 30  1  0  0  0  0
 15 16  1  0  0  0  0
 15 31  1  0  0  0  0
 15 32  1  0  0  0  0
 16 33  1  0  0  0  0
 16 34  1  0  0  0  0
M  END
> <s_m_source_file>
AV-unprocessed.smi

> <i_m_source_file_index>
2993

> <i_lp_mmshare_version>
43012

> <i_f3d_flags>
0

> <s_epik_input>
W0NIM11jMW5vYyhbQ0gzXSljMVtDSDJdQyg9TylbTkhdW0NASF0oW0NIM10pW0NIXTJbQ0gyXVtDSDJdMg==

> <s_epik_cmdline>
J2VwaWtfcHl0aG9uJywgJy1waCcsICc3LjAnLCAnLXRuJywgJzgnLCAnLW1hJywgJzIwMCcsICctbWV0YWxfYmluZGluZycsICctaW1hZScsICc8aW5maWxlLm1hZT4nLCAnLW9tYWUnLCAnPG91dGZpbGUubWFlPic=

> <r_lp_tautomer_probability>
1

> <r_epik_Ionization_Penalty>
1.92533e-08

> <r_epik_Ionization_Penalty_Charging>
0

> <r_epik_Ionization_Penalty_Neutral>
1.92533e-08

> <r_epik_State_Penalty>
-0

> <r_epik_Charging_Adjusted_Penalty>
0

> <i_epik_Tot_Q>
0

> <i_epik_Tot_abs_Q>
0

> <r_epik_Metal_State_Penalty>
-0

> <b_epik_Metal_Only>
0

> <s_lp_Force_Field>
OPLS_2005

> <r_lp_Energy>
6.61094

> <b_lp_Chiralities_Consistent>
1

> <s_lp_Variant>
AV-unprocessed.smi:2993-1

> <Gold.Version>
5.8.1

> <Gold.Id.Protein>
6NUR|6NUR_protein|mol2

> <Gold.PLP.Fitness>
40.5716

> <Gold.PLP.PLP>
-35.4466

> <Gold.PLP.part.hbond>
-2.5962

> <Gold.PLP.part.metal>
0.0000

> <Gold.PLP.part.buried>
-2.3124

> <Gold.PLP.part.nonpolar>
-30.3136

> <Gold.PLP.part.repulsive>
0.3871

> <Gold.PLP.ligand.clash>
0.0000

> <Gold.PLP.ligand.torsion>
0.9694

> <Gold.PLP.Chemscore.Hbond>
2.0000

> <Gold.PLP.Chemscore.CHOScore>
0.0000

> <Gold.PLP.Chemscore.Metal>
0.0000

> <Gold.Chemscore.Hbonds>
donor molecule, donor type, donor heavy atom, donor atom, acceptor molecule, acceptor atom, score
      P1  H  7989  7998       L1     4  0.50
      P1  H  7997  8008       L1    10  0.99

> <Gold.PLP.Chemscore.Internal.Correction>
1.0638

> <Gold.Rescore>
     Score         DG    S(hbond)    S(metal)    S(lipo)     H(rot)  DE(clash)    DE(int)     intcor
     14.91     -16.15       0.96        0.00      95.59       1.46       0.14       1.09       ----

> <Gold.Chemscore.Fitness>
14.9136

> <Gold.Chemscore.DG>
-16.1460

> <Gold.Chemscore.ZeroCoef>
-5.4800

> <Gold.Chemscore.Hbond>
0.9627

> <Gold.Chemscore.Metal>
0.0000

> <Gold.Chemscore.Lipo>
95.5892

> <Gold.Chemscore.Internal_Hbond>
0.0000

> <Gold.Chemscore.DEClash>
0.1438

> <Gold.Chemscore.DEInternal>
1.0886

> <Gold.Chemscore.Rot>
1.4584

> <Gold.Chemscore.Internal.Correction>
   9.000000E+99

> <Gold.Chemscore.Hbonds>
donor molecule, donor type, donor heavy atom, donor atom, acceptor molecule, acceptor atom, score
      P1  H  7989  7998       L1     4  0.01
      P1  H  7997  8008       L1    10  0.94

> <Gold.Chemscore.Hbond.Weighted>
-3.2155

> <Gold.Chemscore.Metal.Weighted>
-0.0000

> <Gold.Chemscore.Lipo.Weighted>
-11.1839

> <Gold.Chemscore.Internal_Hbond.Weighted>
0.0000

> <Gold.Chemscore.DEClash.Weighted>
0.1438

> <Gold.Chemscore.DEInternal.Weighted>
1.0886

> <Gold.Chemscore.Rot.Weighted>
3.7334

> <Gold.Chemscore.Internal.Correction.Weighted>
   9.000000E+99

> <Gold.Protein.RotatedTorsions>
[ 6907 6896 6895 6894 ] final  154.58 input  -60.11 | X-H torsion
[ 7974 7965 7964 7962 ] final   -4.50 input  175.53 | X-H torsion
[ 8008 7997 7996 7995 ] final  -82.30 input   59.86 | X-H torsion
[ 10167 10162 10161 10158 ] final  -95.07 input  -65.29 | X-H torsion
[ 10718 10713 10712 10709 ] final  -59.42 input   66.30 | X-H torsion
[ 10763 10752 10751 10750 ] final -111.26 input  -60.55 | X-H torsion
[ 11005 11000 10999 10996 ] final  -49.70 input  -57.11 | X-H torsion

> <Gold.Protein.ActiveResidues>
 VAL166  LYS551  ARG553  GLY616  TRP617  ASP618  TYR619  PRO620  LYS621  CYS622 
 ASP623  PHE694  ASN695  SER759  ASP760  ASP761  ALA762  ILE779  LEU786  VAL792 
 PHE793  MET794  SER795  GLU796  ALA797  LYS798  CYS799  TRP800  GLU811  SER814 

> <Gold.Protein.RotatedAtoms>
  152.0564  133.4042  159.4398 H   0  0  0  0  0  0  0  0  0  0  0  0  # atno 6907 bound_to 6896
  150.6868  134.3250  159.4812 H   0  0  0  0  0  0  0  0  0  0  0  0  # atno 6908 bound_to 6896
  152.1066  134.9304  160.0618 H   0  0  0  0  0  0  0  0  0  0  0  0  # atno 6909 bound_to 6896
  146.2371  140.1880  142.8332 H   0  0  0  0  0  0  0  0  0  0  0  0  # atno 7974 bound_to 7965
  154.6072  140.0635  156.9446 H   0  0  0  0  0  0  0  0  0  0  0  0  # atno 8008 bound_to 7997
  155.2033  140.3317  155.4321 H   0  0  0  0  0  0  0  0  0  0  0  0  # atno 8009 bound_to 7997
  156.2355  140.1860  156.7115 H   0  0  0  0  0  0  0  0  0  0  0  0  # atno 8010 bound_to 7997
  140.3080  143.3122  152.0179 H   0  0  0  0  0  0  0  0  0  0  0  0  # atno 10167 bound_to 10162
  156.1063  130.4180  150.0713 H   0  0  0  0  0  0  0  0  0  0  0  0  # atno 10718 bound_to 10713
  154.8291  135.4534  154.1012 H   0  0  0  0  0  0  0  0  0  0  0  0  # atno 10763 bound_to 10752
  153.2301  135.6904  153.7906 H   0  0  0  0  0  0  0  0  0  0  0  0  # atno 10764 bound_to 10752
  153.7292  135.3329  155.3259 H   0  0  0  0  0  0  0  0  0  0  0  0  # atno 10765 bound_to 10752
  141.0774  133.6662  156.3624 H   0  0  0  0  0  0  0  0  0  0  0  0  # atno 11005 bound_to 11000
  144.9880  140.8521  143.5356 LP  0  0  0  0  0  0  0  0  0  0  0  0  # atno 17320 bound_to 7965
  145.1883  139.2315  143.5256 LP  0  0  0  0  0  0  0  0  0  0  0  0  # atno 17321 bound_to 7965
  139.4900  144.6406  151.6884 LP  0  0  0  0  0  0  0  0  0  0  0  0  # atno 17342 bound_to 10162
  140.5593  144.0295  150.6162 LP  0  0  0  0  0  0  0  0  0  0  0  0  # atno 17343 bound_to 10162
  156.8688  130.9517  151.3611 LP  0  0  0  0  0  0  0  0  0  0  0  0  # atno 17370 bound_to 10713
  157.6240  130.8677  149.9157 LP  0  0  0  0  0  0  0  0  0  0  0  0  # atno 17371 bound_to 10713
  140.5543  134.5997  157.5416 LP  0  0  0  0  0  0  0  0  0  0  0  0  # atno 17394 bound_to 11000
  139.9587  134.7490  156.0285 LP  0  0  0  0  0  0  0  0  0  0  0  0  # atno 17395 bound_to 11000

$$$$
