AV-unprocessed.smi:825|AV-procd|sdf|3851|dock6
  -GOLD-   22720 1303D 1   1.00000     0.00000
 Structure written by MMmdl.
 38 39  0  0  0  0  0  0  0  0  1 V2000
  151.6299  141.4000  156.6460 O   0  0  0  0  0  0  0  0  0  0  0  0
  150.9699  142.3954  156.3485 C   0  0  0  0  0  0  0  0  0  0  0  0
  151.2156  143.6239  156.8248 N   0  0  0  0  0  0  0  0  0  0  0  0
  152.2776  143.9771  157.7616 C   0  0  0  0  0  0  0  0  0  0  0  0
  151.9823  143.4221  159.1653 C   0  0  0  0  0  0  0  0  0  0  0  0
  151.9699  144.4767  160.2789 C   0  0  0  0  0  0  0  0  0  0  0  0
  152.2537  143.7110  161.5790 C   0  0  0  0  0  0  0  0  0  0  0  0
  152.7933  142.3339  161.1648 C   0  0  0  0  0  0  0  0  0  0  0  0
  153.0172  142.4079  159.6531 C   0  0  0  0  0  0  0  0  0  0  0  0
  149.9177  142.4004  155.5143 N   0  0  0  0  0  0  0  0  0  0  0  0
  149.3887  141.2997  154.7951 C   0  0  0  0  0  0  0  0  0  0  0  0
  150.0488  140.1325  154.3166 C   0  0  0  0  0  0  0  0  0  0  0  0
  149.2038  139.3376  153.6772 N   0  0  0  0  0  0  0  0  0  0  0  0
  148.0075  139.9731  153.7366 N   0  0  0  0  0  0  0  0  0  0  0  0
  146.8450  139.3713  153.1135 C   0  0  0  0  0  0  0  0  0  0  0  0
  147.2466  138.3035  152.0866 C   0  0  0  0  0  0  0  0  0  0  0  0
  147.7818  138.9209  150.9359 O   0  0  0  0  0  0  0  0  0  0  0  0
  148.0871  141.1742  154.4128 C   0  0  0  0  0  0  0  0  0  0  0  0
  150.6164  144.3770  156.5196 H   0  0  0  0  0  0  0  0  0  0  0  0
  153.2470  143.6075  157.4240 H   0  0  0  0  0  0  0  0  0  0  0  0
  152.3573  145.0640  157.7936 H   0  0  0  0  0  0  0  0  0  0  0  0
  151.0089  142.9278  159.1519 H   0  0  0  0  0  0  0  0  0  0  0  0
  152.7648  145.2045  160.1097 H   0  0  0  0  0  0  0  0  0  0  0  0
  151.0280  145.0248  160.3200 H   0  0  0  0  0  0  0  0  0  0  0  0
  152.9740  144.2516  162.1938 H   0  0  0  0  0  0  0  0  0  0  0  0
  151.3439  143.5967  162.1693 H   0  0  0  0  0  0  0  0  0  0  0  0
  153.7047  142.0666  161.7007 H   0  0  0  0  0  0  0  0  0  0  0  0
  152.0478  141.5693  161.3872 H   0  0  0  0  0  0  0  0  0  0  0  0
  152.9137  141.4369  159.1679 H   0  0  0  0  0  0  0  0  0  0  0  0
  154.0247  142.7746  159.4506 H   0  0  0  0  0  0  0  0  0  0  0  0
  149.4546  143.2854  155.3692 H   0  0  0  0  0  0  0  0  0  0  0  0
  151.0837  139.8356  154.3996 H   0  0  0  0  0  0  0  0  0  0  0  0
  146.2141  138.9386  153.8916 H   0  0  0  0  0  0  0  0  0  0  0  0
  146.2622  140.1595  152.6347 H   0  0  0  0  0  0  0  0  0  0  0  0
  147.9926  137.6279  152.5065 H   0  0  0  0  0  0  0  0  0  0  0  0
  146.3849  137.7004  151.7985 H   0  0  0  0  0  0  0  0  0  0  0  0
  148.3908  139.5899  151.2094 H   0  0  0  0  0  0  0  0  0  0  0  0
  147.2321  141.8185  154.5552 H   0  0  0  0  0  0  0  0  0  0  0  0
  1  2  2  0  0  0  0
  2  3  1  0  0  0  0
  2 10  1  0  0  0  0
  3  4  1  0  0  0  0
  3 19  1  0  0  0  0
  4  5  1  0  0  0  0
  4 20  1  0  0  0  0
  4 21  1  0  0  0  0
  5  9  1  0  0  0  0
  5  6  1  0  0  0  0
  5 22  1  0  0  0  0
  6  7  1  0  0  0  0
  6 23  1  0  0  0  0
  6 24  1  0  0  0  0
  7  8  1  0  0  0  0
  7 25  1  0  0  0  0
  7 26  1  0  0  0  0
  8  9  1  0  0  0  0
  8 27  1  0  0  0  0
  8 28  1  0  0  0  0
  9 29  1  0  0  0  0
  9 30  1  0  0  0  0
 10 11  1  0  0  0  0
 10 31  1  0  0  0  0
 11 18  2  0  0  0  0
 11 12  1  0  0  0  0
 12 13  2  0  0  0  0
 12 32  1  0  0  0  0
 13 14  1  0  0  0  0
 14 15  1  0  0  0  0
 14 18  1  0  0  0  0
 15 16  1  0  0  0  0
 15 33  1  0  0  0  0
 15 34  1  0  0  0  0
 16 17  1  0  0  0  0
 16 35  1  0  0  0  0
 16 36  1  0  0  0  0
 17 37  1  0  0  0  0
 18 38  1  0  0  0  0
M  END
> <s_m_source_file>
AV-unprocessed.smi

> <i_m_source_file_index>
825

> <i_lp_mmshare_version>
43012

> <i_f3d_flags>
0

> <s_epik_input>
W0NIMl0xW0NIMl1bQ0gyXVtDSDJdW0NIXTFbQ0gyXVtOSF1DKD1PKVtOSF1jMltjSF1ubihbY0hdMilbQ0gyXVtDSDJdW09IXQ==

> <s_epik_cmdline>
J2VwaWtfcHl0aG9uJywgJy1waCcsICc3LjAnLCAnLXRuJywgJzgnLCAnLW1hJywgJzIwMCcsICctbWV0YWxfYmluZGluZycsICctaW1hZScsICc8aW5maWxlLm1hZT4nLCAnLW9tYWUnLCAnPG91dGZpbGUubWFlPic=

> <r_lp_tautomer_probability>
1

> <r_epik_Ionization_Penalty>
0.000577844

> <r_epik_Ionization_Penalty_Charging>
0

> <r_epik_Ionization_Penalty_Neutral>
0.000577844

> <r_epik_State_Penalty>
-0

> <r_epik_Charging_Adjusted_Penalty>
0

> <i_epik_Tot_Q>
0

> <i_epik_Tot_abs_Q>
0

> <r_epik_Metal_State_Penalty>
-0

> <b_epik_Metal_Only>
0

> <s_lp_Force_Field>
OPLS_2005

> <r_lp_Energy>
26.6731

> <b_lp_Chiralities_Consistent>
1

> <s_lp_Variant>
AV-unprocessed.smi:825-1

> <Gold.Version>
5.8.1

> <Gold.Id.Protein>
6NUR|6NUR_protein|mol2

> <Gold.PLP.Fitness>
51.2829

> <Gold.PLP.PLP>
-42.5944

> <Gold.PLP.part.hbond>
-4.8984

> <Gold.PLP.part.metal>
0.0000

> <Gold.PLP.part.buried>
-2.5441

> <Gold.PLP.part.nonpolar>
-35.2528

> <Gold.PLP.part.repulsive>
0.4005

> <Gold.PLP.ligand.clash>
0.0000

> <Gold.PLP.ligand.torsion>
1.2656

> <Gold.PLP.Chemscore.Hbond>
3.7360

> <Gold.PLP.Chemscore.CHOScore>
0.0000

> <Gold.PLP.Chemscore.Metal>
0.0000

> <Gold.Chemscore.Hbonds>
donor molecule, donor type, donor heavy atom, donor atom, acceptor molecule, acceptor atom, score
      L1  H     3    19       P1  8028  0.86
      L1  H    10    31       P1  8028  1.00
      L1  H    17    37       P1  7957  0.26
      P1  H  7954  7966       L1    17  0.59

> <Gold.PLP.Chemscore.Internal.Correction>
0.0117

> <Gold.Rescore>
     Score         DG    S(hbond)    S(metal)    S(lipo)     H(rot)  DE(clash)    DE(int)     intcor
     19.37     -21.11       2.83        0.00     103.27       2.31       0.61       1.13       ----

> <Gold.Chemscore.Fitness>
19.3651

> <Gold.Chemscore.DG>
-21.1057

> <Gold.Chemscore.ZeroCoef>
-5.4800

> <Gold.Chemscore.Hbond>
2.8312

> <Gold.Chemscore.Metal>
0.0000

> <Gold.Chemscore.Lipo>
103.2686

> <Gold.Chemscore.Internal_Hbond>
0.0000

> <Gold.Chemscore.DEClash>
0.6139

> <Gold.Chemscore.DEInternal>
1.1267

> <Gold.Chemscore.Rot>
2.3097

> <Gold.Chemscore.Internal.Correction>
   9.000000E+99

> <Gold.Chemscore.Hbonds>
donor molecule, donor type, donor heavy atom, donor atom, acceptor molecule, acceptor atom, score
      L1  H     3    19       P1  8028  0.84
      L1  H    10    31       P1  8028  0.96
      L1  H    17    37       P1  7957  0.22
      P1  H  7954  7966       L1    17  0.45

> <Gold.Chemscore.Hbond.Weighted>
-9.4561

> <Gold.Chemscore.Metal.Weighted>
-0.0000

> <Gold.Chemscore.Lipo.Weighted>
-12.0824

> <Gold.Chemscore.Internal_Hbond.Weighted>
0.0000

> <Gold.Chemscore.DEClash.Weighted>
0.6139

> <Gold.Chemscore.DEInternal.Weighted>
1.1267

> <Gold.Chemscore.Rot.Weighted>
5.9128

> <Gold.Chemscore.Internal.Correction.Weighted>
   9.000000E+99

> <Gold.Protein.RotatedTorsions>
[ 6907 6896 6895 6894 ] final  102.63 input  -60.11 | X-H torsion
[ 7974 7965 7964 7962 ] final -146.76 input  175.53 | X-H torsion
[ 8008 7997 7996 7995 ] final  -42.36 input   59.86 | X-H torsion
[ 10167 10162 10161 10158 ] final  141.89 input  -65.29 | X-H torsion
[ 10718 10713 10712 10709 ] final   86.36 input   66.30 | X-H torsion
[ 10763 10752 10751 10750 ] final  -34.60 input  -60.55 | X-H torsion
[ 11005 11000 10999 10996 ] final  -50.04 input  -57.11 | X-H torsion

> <Gold.Protein.ActiveResidues>
 VAL166  LYS551  ARG553  GLY616  TRP617  ASP618  TYR619  PRO620  LYS621  CYS622 
 ASP623  PHE694  ASN695  SER759  ASP760  ASP761  ALA762  ILE779  LEU786  VAL792 
 PHE793  MET794  SER795  GLU796  ALA797  LYS798  CYS799  TRP800  GLU811  SER814 

> <Gold.Protein.RotatedAtoms>
  152.5318  133.9947  159.7866 H   0  0  0  0  0  0  0  0  0  0  0  0  # atno 6907 bound_to 6896
  151.0177  133.5898  159.2682 H   0  0  0  0  0  0  0  0  0  0  0  0  # atno 6908 bound_to 6896
  151.2949  135.0759  159.9271 H   0  0  0  0  0  0  0  0  0  0  0  0  # atno 6909 bound_to 6896
  144.8138  140.5415  143.5624 H   0  0  0  0  0  0  0  0  0  0  0  0  # atno 7974 bound_to 7965
  154.3999  140.1475  156.3341 H   0  0  0  0  0  0  0  0  0  0  0  0  # atno 8008 bound_to 7997
  155.8416  140.3461  155.5614 H   0  0  0  0  0  0  0  0  0  0  0  0  # atno 8009 bound_to 7997
  155.8081  140.0880  157.1910 H   0  0  0  0  0  0  0  0  0  0  0  0  # atno 8010 bound_to 7997
  139.5008  144.6143  151.6201 H   0  0  0  0  0  0  0  0  0  0  0  0  # atno 10167 bound_to 10162
  157.6927  131.0212  150.2961 H   0  0  0  0  0  0  0  0  0  0  0  0  # atno 10718 bound_to 10713
  153.8494  135.6850  153.4794 H   0  0  0  0  0  0  0  0  0  0  0  0  # atno 10763 bound_to 10752
  153.1406  135.4659  154.9488 H   0  0  0  0  0  0  0  0  0  0  0  0  # atno 10764 bound_to 10752
  154.7809  135.3268  154.7939 H   0  0  0  0  0  0  0  0  0  0  0  0  # atno 10765 bound_to 10752
  141.0794  133.6657  156.3673 H   0  0  0  0  0  0  0  0  0  0  0  0  # atno 11005 bound_to 11000
  145.5261  139.1476  143.3525 LP  0  0  0  0  0  0  0  0  0  0  0  0  # atno 17320 bound_to 7965
  146.2440  140.5402  142.8922 LP  0  0  0  0  0  0  0  0  0  0  0  0  # atno 17321 bound_to 7965
  140.5826  143.9920  150.6277 LP  0  0  0  0  0  0  0  0  0  0  0  0  # atno 17342 bound_to 10162
  140.3074  143.3221  152.0913 LP  0  0  0  0  0  0  0  0  0  0  0  0  # atno 17343 bound_to 10162
  156.3484  130.3827  149.7349 LP  0  0  0  0  0  0  0  0  0  0  0  0  # atno 17370 bound_to 10713
  156.4835  130.8052  151.3065 LP  0  0  0  0  0  0  0  0  0  0  0  0  # atno 17371 bound_to 10713
  140.5503  134.6034  157.5405 LP  0  0  0  0  0  0  0  0  0  0  0  0  # atno 17394 bound_to 11000
  139.9607  134.7458  156.0244 LP  0  0  0  0  0  0  0  0  0  0  0  0  # atno 17395 bound_to 11000

$$$$
