AV-unprocessed.smi:561|AV-procd|sdf|2942|dock5
  -GOLD-   2262023443D 1   1.00000     0.00000
 Structure written by MMmdl.
 35 36  0  0  0  0  0  0  0  0  2 V2000
  149.5249  140.2279  157.7480 C   0  0  0  0  0  0  0  0  0  0  0  0
  150.0684  141.4298  156.9631 C   0  0  2  0  0  0  0  0  0  0  0  0
  150.2186  141.0932  155.4570 C   0  0  0  0  0  0  0  0  0  0  0  0
  150.8429  139.8019  155.1885 N   0  0  0  0  0  0  0  0  0  0  0  0
  150.4773  138.8802  154.2127 C   0  0  0  0  0  0  0  0  0  0  0  0
  151.3490  137.8209  154.3213 C   0  0  0  0  0  0  0  0  0  0  0  0
  152.2661  138.0703  155.3391 N   0  0  0  0  0  0  0  0  0  0  0  0
  151.9057  139.2598  155.8042 C   0  0  0  0  0  0  0  0  0  0  0  0
  151.3690  141.8088  157.5284 N   0  5  0  0  0  0  0  0  0  0  0  0
  151.6366  142.9761  158.1900 C   0  0  0  0  0  0  0  0  0  0  0  0
  151.4072  144.1185  157.7745 O   0  0  0  0  0  0  0  0  0  0  0  0
  152.2845  142.9082  159.5333 C   0  0  0  0  0  0  0  0  0  0  0  0
  152.7945  141.7889  159.9439 N   0  0  0  0  0  0  0  0  0  0  0  0
  153.4330  141.6715  161.1608 N   0  0  0  0  0  0  0  0  0  0  0  0
  154.1753  140.4262  161.3448 C   0  0  0  0  0  0  0  0  0  0  0  0
  153.3862  142.5985  162.1490 C   0  0  0  0  0  0  0  0  0  0  0  0
  153.9836  142.4883  163.2200 O   0  0  0  0  0  0  0  0  0  0  0  0
  152.5044  143.8231  161.8940 C   0  0  0  0  0  0  0  0  0  0  0  0
  152.3840  144.1557  160.3938 C   0  0  0  0  0  0  0  0  0  0  0  0
  148.5466  139.9269  157.3723 H   0  0  0  0  0  0  0  0  0  0  0  0
  149.4093  140.4679  158.8055 H   0  0  0  0  0  0  0  0  0  0  0  0
  150.1893  139.3664  157.6715 H   0  0  0  0  0  0  0  0  0  0  0  0
  149.3322  142.2295  157.0577 H   0  0  0  0  0  0  0  0  0  0  0  0
  149.2461  141.1165  154.9628 H   0  0  0  0  0  0  0  0  0  0  0  0
  150.8250  141.8582  154.9704 H   0  0  0  0  0  0  0  0  0  0  0  0
  149.6416  139.0490  153.5497 H   0  0  0  0  0  0  0  0  0  0  0  0
  151.3886  136.9075  153.7465 H   0  0  0  0  0  0  0  0  0  0  0  0
  152.4255  139.7495  156.6146 H   0  0  0  0  0  0  0  0  0  0  0  0
  153.7991  139.8784  162.2098 H   0  0  0  0  0  0  0  0  0  0  0  0
  155.2348  140.6313  161.5038 H   0  0  0  0  0  0  0  0  0  0  0  0
  154.0927  139.7685  160.4778 H   0  0  0  0  0  0  0  0  0  0  0  0
  151.5163  143.6038  162.3003 H   0  0  0  0  0  0  0  0  0  0  0  0
  152.8869  144.6835  162.4439 H   0  0  0  0  0  0  0  0  0  0  0  0
  153.2431  144.7451  160.0720 H   0  0  0  0  0  0  0  0  0  0  0  0
  151.5071  144.7895  160.2590 H   0  0  0  0  0  0  0  0  0  0  0  0
  1  2  1  0  0  0  0
  1 20  1  0  0  0  0
  1 21  1  0  0  0  0
  1 22  1  0  0  0  0
  2  3  1  0  0  0  0
  2  9  1  0  0  0  0
  2 23  1  0  0  0  0
  3  4  1  0  0  0  0
  3 24  1  0  0  0  0
  3 25  1  0  0  0  0
  4  8  1  0  0  0  0
  4  5  1  0  0  0  0
  5  6  2  0  0  0  0
  5 26  1  0  0  0  0
  6  7  1  0  0  0  0
  6 27  1  0  0  0  0
  7  8  2  0  0  0  0
  8 28  1  0  0  0  0
  9 10  1  0  0  0  0
 10 11  2  0  0  0  0
 10 12  1  0  0  0  0
 12 19  1  0  0  0  0
 12 13  2  0  0  0  0
 13 14  1  0  0  0  0
 14 15  1  0  0  0  0
 14 16  1  0  0  0  0
 15 29  1  0  0  0  0
 15 30  1  0  0  0  0
 15 31  1  0  0  0  0
 16 17  2  0  0  0  0
 16 18  1  0  0  0  0
 18 19  1  0  0  0  0
 18 32  1  0  0  0  0
 18 33  1  0  0  0  0
 19 34  1  0  0  0  0
 19 35  1  0  0  0  0
M  CHG  1   9  -1
M  END
> <s_m_source_file>
AV-unprocessed.smi

> <i_m_source_file_index>
561

> <i_lp_mmshare_version>
43012

> <i_f3d_flags>
0

> <s_epik_input>
W2NIXTFuW2NIXVtjSF1uMVtDSDJdW0NAQEhdKFtDSDNdKVtOSF1DKD1PKUMyPU5OKFtDSDNdKUMoPU8pW0NIMl1bQ0gyXTI=

> <s_epik_cmdline>
J2VwaWtfcHl0aG9uJywgJy1waCcsICc3LjAnLCAnLXRuJywgJzgnLCAnLW1hJywgJzIwMCcsICctbWV0YWxfYmluZGluZycsICctaW1hZScsICc8aW5maWxlLm1hZT4nLCAnLW9tYWUnLCAnPG91dGZpbGUubWFlPic=

> <r_lp_tautomer_probability>
1

> <r_epik_Ionization_Penalty>
6.06239

> <r_epik_Ionization_Penalty_Charging>
6.06239

> <r_epik_Ionization_Penalty_Neutral>
3.91387e-09

> <r_epik_State_Penalty>
5.76729

> <r_epik_Charging_Adjusted_Penalty>
11.8297

> <i_epik_Tot_Q>
-1

> <i_epik_Tot_abs_Q>
1

> <r_epik_Metal_State_Penalty>
2.02369

> <b_epik_Metal_Only>
1

> <s_epik_Chemistry_Notes>
This compound has an imine and may undergo hydrolysis.

> <s_lp_Force_Field>
OPLS_2005

> <r_lp_Energy>
24.7282

> <b_lp_Chiralities_Consistent>
1

> <s_lp_Variant>
AV-unprocessed.smi:561-7

> <Gold.Version>
5.8.1

> <Gold.Id.Protein>
6NUR|6NUR_protein|mol2

> <Gold.PLP.Fitness>
47.8456

> <Gold.PLP.PLP>
-43.7072

> <Gold.PLP.part.hbond>
-1.0000

> <Gold.PLP.part.metal>
0.0000

> <Gold.PLP.part.buried>
-4.7851

> <Gold.PLP.part.nonpolar>
-36.2291

> <Gold.PLP.part.repulsive>
0.2539

> <Gold.PLP.ligand.clash>
0.0000

> <Gold.PLP.ligand.torsion>
0.9248

> <Gold.PLP.Chemscore.Hbond>
0.0000

> <Gold.PLP.Chemscore.CHOScore>
1.9869

> <Gold.PLP.Chemscore.Metal>
0.0000

> <Gold.Chemscore.Hbonds>
donor molecule, donor type, donor heavy atom, donor atom, acceptor molecule, acceptor atom, score
      L1  C     5    26       P1  7957  0.86
      L1  C     6    27       P1  7949  1.00

> <Gold.PLP.Chemscore.Internal.Correction>
0.0274

> <Gold.Rescore>
     Score         DG    S(hbond)    S(metal)    S(lipo)     H(rot)  DE(clash)    DE(int)     intcor
      9.04     -10.13       0.00        0.00      76.52       1.68       0.18       0.91       ----

> <Gold.Chemscore.Fitness>
9.0427

> <Gold.Chemscore.DG>
-10.1335

> <Gold.Chemscore.ZeroCoef>
-5.4800

> <Gold.Chemscore.Hbond>
0.0000

> <Gold.Chemscore.Metal>
0.0000

> <Gold.Chemscore.Lipo>
76.5231

> <Gold.Chemscore.Internal_Hbond>
0.0000

> <Gold.Chemscore.DEClash>
0.1836

> <Gold.Chemscore.DEInternal>
0.9071

> <Gold.Chemscore.Rot>
1.6796

> <Gold.Chemscore.Internal.Correction>
   9.000000E+99

> <Gold.Chemscore.Hbond.Weighted>
-0.0000

> <Gold.Chemscore.Metal.Weighted>
-0.0000

> <Gold.Chemscore.Lipo.Weighted>
-8.9532

> <Gold.Chemscore.Internal_Hbond.Weighted>
0.0000

> <Gold.Chemscore.DEClash.Weighted>
0.1836

> <Gold.Chemscore.DEInternal.Weighted>
0.9071

> <Gold.Chemscore.Rot.Weighted>
4.2997

> <Gold.Chemscore.Internal.Correction.Weighted>
   9.000000E+99

> <Gold.Protein.RotatedTorsions>
[ 6907 6896 6895 6894 ] final   27.94 input  -60.11 | X-H torsion
[ 7974 7965 7964 7962 ] final  169.80 input  175.53 | X-H torsion
[ 8008 7997 7996 7995 ] final  130.59 input   59.86 | X-H torsion
[ 10167 10162 10161 10158 ] final  -22.65 input  -65.29 | X-H torsion
[ 10718 10713 10712 10709 ] final   10.34 input   66.30 | X-H torsion
[ 10763 10752 10751 10750 ] final   33.93 input  -60.55 | X-H torsion
[ 11005 11000 10999 10996 ] final -156.38 input  -57.11 | X-H torsion

> <Gold.Protein.ActiveResidues>
 VAL166  LYS551  ARG553  GLY616  TRP617  ASP618  TYR619  PRO620  LYS621  CYS622 
 ASP623  PHE694  ASN695  SER759  ASP760  ASP761  ALA762  ILE779  LEU786  VAL792 
 PHE793  MET794  SER795  GLU796  ALA797  LYS798  CYS799  TRP800  GLU811  SER814 

> <Gold.Protein.RotatedAtoms>
  152.0097  134.9883  160.0567 H   0  0  0  0  0  0  0  0  0  0  0  0  # atno 6907 bound_to 6896
  152.1441  133.4477  159.4789 H   0  0  0  0  0  0  0  0  0  0  0  0  # atno 6908 bound_to 6896
  150.6868  134.2188  159.4431 H   0  0  0  0  0  0  0  0  0  0  0  0  # atno 6909 bound_to 6896
  144.7343  139.9107  143.6415 H   0  0  0  0  0  0  0  0  0  0  0  0  # atno 7974 bound_to 7965
  156.2957  140.2592  156.2787 H   0  0  0  0  0  0  0  0  0  0  0  0  # atno 8008 bound_to 7997
  154.9624  140.0392  157.2214 H   0  0  0  0  0  0  0  0  0  0  0  0  # atno 8009 bound_to 7997
  154.7935  140.2816  155.5979 H   0  0  0  0  0  0  0  0  0  0  0  0  # atno 8010 bound_to 7997
  140.7286  143.4515  151.0509 H   0  0  0  0  0  0  0  0  0  0  0  0  # atno 10167 bound_to 10162
  156.9796  130.6000  149.5675 H   0  0  0  0  0  0  0  0  0  0  0  0  # atno 10718 bound_to 10713
  153.0188  135.6374  154.1589 H   0  0  0  0  0  0  0  0  0  0  0  0  # atno 10763 bound_to 10752
  154.1325  135.2839  155.3183 H   0  0  0  0  0  0  0  0  0  0  0  0  # atno 10764 bound_to 10752
  154.6184  135.5533  153.7610 H   0  0  0  0  0  0  0  0  0  0  0  0  # atno 10765 bound_to 10752
  140.6762  134.4194  157.5229 H   0  0  0  0  0  0  0  0  0  0  0  0  # atno 11005 bound_to 11000
  146.1003  139.3998  143.0351 LP  0  0  0  0  0  0  0  0  0  0  0  0  # atno 17320 bound_to 7965
  145.7588  140.9943  143.1211 LP  0  0  0  0  0  0  0  0  0  0  0  0  # atno 17321 bound_to 7965
  139.8192  143.7844  152.3176 LP  0  0  0  0  0  0  0  0  0  0  0  0  # atno 17342 bound_to 10162
  139.7920  144.7406  150.9941 LP  0  0  0  0  0  0  0  0  0  0  0  0  # atno 17343 bound_to 10162
  156.0250  130.5344  150.8381 LP  0  0  0  0  0  0  0  0  0  0  0  0  # atno 17370 bound_to 10713
  157.5536  131.0944  150.9661 LP  0  0  0  0  0  0  0  0  0  0  0  0  # atno 17371 bound_to 10713
  139.8966  134.8656  156.2081 LP  0  0  0  0  0  0  0  0  0  0  0  0  # atno 17394 bound_to 11000
  141.0353  133.6966  156.1502 LP  0  0  0  0  0  0  0  0  0  0  0  0  # atno 17395 bound_to 11000

$$$$
