AV-unprocessed.smi:264|AV-procd|sdf|2010|dock10
  -GOLD-   2262021213D 1   1.00000     0.00000
 Structure written by MMmdl.
 52 56  0  0  0  0  0  0  0  0  1 V2000
  159.4822  138.0009  165.5123 C   0  0  0  0  0  0  0  0  0  0  0  0
  158.2236  138.5697  166.1855 C   0  0  1  0  0  0  0  0  0  0  0  0
  158.6434  139.5101  167.1706 O   0  0  0  0  0  0  0  0  0  0  0  0
  157.6362  140.4945  167.3201 C   0  0  0  0  0  0  0  0  0  0  0  0
  157.2024  140.7356  165.8826 C   0  0  0  0  0  0  0  0  0  0  0  0
  157.2226  139.3351  165.2740 C   0  0  2  0  0  0  0  0  0  0  0  0
  155.9403  138.7618  165.4670 O   0  0  0  0  0  0  0  0  0  0  0  0
  157.5304  139.3274  163.7531 C   0  0  0  0  0  0  0  0  0  0  0  0
  156.4837  139.9403  162.9496 N   0  0  0  0  0  0  0  0  0  0  0  0
  155.6460  140.9655  163.3270 C   0  0  0  0  0  0  0  0  0  0  0  0
  154.7781  141.3355  162.4256 N   0  0  0  0  0  0  0  0  0  0  0  0
  155.0397  140.5058  161.3413 C   0  0  0  0  0  0  0  0  0  0  0  0
  154.4770  140.3671  160.0410 C   0  0  0  0  0  0  0  0  0  0  0  0
  153.4308  141.1181  159.6140 N   0  0  0  0  0  0  0  0  0  0  0  0
  152.2059  140.4334  159.2159 C   0  0  0  0  0  0  0  0  0  0  0  0
  151.2876  141.4044  158.4603 C   0  0  0  0  0  0  0  0  0  0  0  0
  151.0550  142.5772  159.2398 O   0  0  0  0  0  0  0  0  0  0  0  0
  152.2343  143.2801  159.6521 C   0  0  1  0  0  0  0  0  0  0  0  0
  152.8997  144.0229  158.4971 C   0  0  0  0  0  0  0  0  0  0  0  0
  152.0322  145.2660  158.3752 C   0  0  0  0  0  0  0  0  0  0  0  0
  151.7649  145.6216  159.7226 O   0  0  0  0  0  0  0  0  0  0  0  0
  151.7672  144.4496  160.5351 C   0  0  0  0  0  0  0  0  0  0  0  0
  153.1741  142.3157  160.4058 C   0  0  0  0  0  0  0  0  0  0  0  0
  155.0281  139.4353  159.2174 N   0  0  0  0  0  0  0  0  0  0  0  0
  156.0492  138.6825  159.6373 C   0  0  0  0  0  0  0  0  0  0  0  0
  156.6642  138.6961  160.8211 N   0  0  0  0  0  0  0  0  0  0  0  0
  156.1210  139.6330  161.6499 C   0  0  0  0  0  0  0  0  0  0  0  0
  159.2288  137.2620  164.7521 H   0  0  0  0  0  0  0  0  0  0  0  0
  160.1185  137.5063  166.2463 H   0  0  0  0  0  0  0  0  0  0  0  0
  160.0760  138.7858  165.0436 H   0  0  0  0  0  0  0  0  0  0  0  0
  157.7163  137.7554  166.7066 H   0  0  0  0  0  0  0  0  0  0  0  0
  156.8154  140.0984  167.9202 H   0  0  0  0  0  0  0  0  0  0  0  0
  158.0192  141.3938  167.8029 H   0  0  0  0  0  0  0  0  0  0  0  0
  156.2377  141.2393  165.8029 H   0  0  0  0  0  0  0  0  0  0  0  0
  157.9471  141.3667  165.3961 H   0  0  0  0  0  0  0  0  0  0  0  0
  155.7779  138.6947  166.3952 H   0  0  0  0  0  0  0  0  0  0  0  0
  158.4577  139.8630  163.5480 H   0  0  0  0  0  0  0  0  0  0  0  0
  157.6777  138.3065  163.3987 H   0  0  0  0  0  0  0  0  0  0  0  0
  155.6953  141.4309  164.3007 H   0  0  0  0  0  0  0  0  0  0  0  0
  152.4377  139.5781  158.5798 H   0  0  0  0  0  0  0  0  0  0  0  0
  151.6973  140.0534  160.1031 H   0  0  0  0  0  0  0  0  0  0  0  0
  151.7130  141.6606  157.4907 H   0  0  0  0  0  0  0  0  0  0  0  0
  150.3295  140.9262  158.2570 H   0  0  0  0  0  0  0  0  0  0  0  0
  153.9128  144.3175  158.7754 H   0  0  0  0  0  0  0  0  0  0  0  0
  152.9698  143.4599  157.5680 H   0  0  0  0  0  0  0  0  0  0  0  0
  152.5248  146.0754  157.8364 H   0  0  0  0  0  0  0  0  0  0  0  0
  151.0938  145.0347  157.8689 H   0  0  0  0  0  0  0  0  0  0  0  0
  150.7806  144.2719  160.9644 H   0  0  0  0  0  0  0  0  0  0  0  0
  152.4569  144.6225  161.3620 H   0  0  0  0  0  0  0  0  0  0  0  0
  152.7092  142.0090  161.3438 H   0  0  0  0  0  0  0  0  0  0  0  0
  154.0963  142.8304  160.6737 H   0  0  0  0  0  0  0  0  0  0  0  0
  156.4266  137.9658  158.9230 H   0  0  0  0  0  0  0  0  0  0  0  0
  1  2  1  0  0  0  0
  1 28  1  0  0  0  0
  1 29  1  0  0  0  0
  1 30  1  0  0  0  0
  2  6  1  0  0  0  0
  2  3  1  0  0  0  0
  2 31  1  0  0  0  0
  3  4  1  0  0  0  0
  4  5  1  0  0  0  0
  4 32  1  0  0  0  0
  4 33  1  0  0  0  0
  5  6  1  0  0  0  0
  5 34  1  0  0  0  0
  5 35  1  0  0  0  0
  6  7  1  0  0  0  0
  6  8  1  0  0  0  0
  7 36  1  0  0  0  0
  8  9  1  0  0  0  0
  8 37  1  0  0  0  0
  8 38  1  0  0  0  0
  9 27  1  0  0  0  0
  9 10  1  0  0  0  0
 10 11  2  0  0  0  0
 10 39  1  0  0  0  0
 11 12  1  0  0  0  0
 12 27  2  0  0  0  0
 12 13  1  0  0  0  0
 13 14  1  0  0  0  0
 13 24  2  0  0  0  0
 14 23  1  0  0  0  0
 14 15  1  0  0  0  0
 15 16  1  0  0  0  0
 15 40  1  0  0  0  0
 15 41  1  0  0  0  0
 16 17  1  0  0  0  0
 16 42  1  0  0  0  0
 16 43  1  0  0  0  0
 17 18  1  0  0  0  0
 18 22  1  0  0  0  0
 18 19  1  0  0  0  0
 18 23  1  0  0  0  0
 19 20  1  0  0  0  0
 19 44  1  0  0  0  0
 19 45  1  0  0  0  0
 20 21  1  0  0  0  0
 20 46  1  0  0  0  0
 20 47  1  0  0  0  0
 21 22  1  0  0  0  0
 22 48  1  0  0  0  0
 22 49  1  0  0  0  0
 23 50  1  0  0  0  0
 23 51  1  0  0  0  0
 24 25  1  0  0  0  0
 25 26  2  0  0  0  0
 25 52  1  0  0  0  0
 26 27  1  0  0  0  0
M  END
> <s_m_source_file>
AV-unprocessed.smi

> <i_m_source_file_index>
264

> <i_lp_mmshare_version>
43012

> <i_f3d_flags>
0

> <s_epik_input>
W0NIMl0xW0NIMl1PW0NAQEhdKFtDSDNdKVtDQEBdMShbT0hdKVtDSDJdbihbY0hdbjIpYyhjMjMpbltjSF1uYzNOKFtDSDJdNClbQ0gyXVtDSDJdT1tDQF00NVtDSDJdW0NIMl1PW0NIMl01

> <s_epik_cmdline>
J2VwaWtfcHl0aG9uJywgJy1waCcsICc3LjAnLCAnLXRuJywgJzgnLCAnLW1hJywgJzIwMCcsICctbWV0YWxfYmluZGluZycsICctaW1hZScsICc8aW5maWxlLm1hZT4nLCAnLW9tYWUnLCAnPG91dGZpbGUubWFlPic=

> <r_lp_tautomer_probability>
1

> <r_epik_Ionization_Penalty>
0.00539389

> <r_epik_Ionization_Penalty_Charging>
0

> <r_epik_Ionization_Penalty_Neutral>
0.00539389

> <r_epik_State_Penalty>
0.00375441

> <r_epik_Charging_Adjusted_Penalty>
0.00375441

> <i_epik_Tot_Q>
0

> <i_epik_Tot_abs_Q>
0

> <r_epik_Metal_State_Penalty>
-0

> <b_epik_Metal_Only>
0

> <s_lp_Force_Field>
OPLS_2005

> <r_lp_Energy>
53.4902

> <b_lp_Chiralities_Consistent>
1

> <s_lp_Variant>
AV-unprocessed.smi:264-4

> <Gold.Version>
5.8.1

> <Gold.Id.Protein>
6NUR|6NUR_protein|mol2

> <Gold.PLP.Fitness>
43.1591

> <Gold.PLP.PLP>
-41.1411

> <Gold.PLP.part.hbond>
-2.1298

> <Gold.PLP.part.metal>
0.0000

> <Gold.PLP.part.buried>
-6.2921

> <Gold.PLP.part.nonpolar>
-32.6134

> <Gold.PLP.part.repulsive>
0.1867

> <Gold.PLP.ligand.clash>
0.0000

> <Gold.PLP.ligand.torsion>
0.6303

> <Gold.PLP.Chemscore.Hbond>
1.0000

> <Gold.PLP.Chemscore.CHOScore>
0.0000

> <Gold.PLP.Chemscore.Metal>
0.0000

> <Gold.Chemscore.Hbonds>
donor molecule, donor type, donor heavy atom, donor atom, acceptor molecule, acceptor atom, score
      P1  H  7997  8009       L1    24  1.00

> <Gold.PLP.Chemscore.Internal.Correction>
0.2787

> <Gold.Rescore>
     Score         DG    S(hbond)    S(metal)    S(lipo)     H(rot)  DE(clash)    DE(int)     intcor
     11.21     -14.49       0.92        0.00      96.78       2.11       0.20       3.08       ----

> <Gold.Chemscore.Fitness>
11.2100

> <Gold.Chemscore.DG>
-14.4885

> <Gold.Chemscore.ZeroCoef>
-5.4800

> <Gold.Chemscore.Hbond>
0.9214

> <Gold.Chemscore.Metal>
0.0000

> <Gold.Chemscore.Lipo>
96.7779

> <Gold.Chemscore.Internal_Hbond>
0.0000

> <Gold.Chemscore.DEClash>
0.1984

> <Gold.Chemscore.DEInternal>
3.0802

> <Gold.Chemscore.Rot>
2.1063

> <Gold.Chemscore.Internal.Correction>
   9.000000E+99

> <Gold.Chemscore.Hbonds>
donor molecule, donor type, donor heavy atom, donor atom, acceptor molecule, acceptor atom, score
      P1  H  7997  8009       L1    24  0.66

> <Gold.Chemscore.Hbond.Weighted>
-3.0776

> <Gold.Chemscore.Metal.Weighted>
-0.0000

> <Gold.Chemscore.Lipo.Weighted>
-11.3230

> <Gold.Chemscore.Internal_Hbond.Weighted>
0.0000

> <Gold.Chemscore.DEClash.Weighted>
0.1984

> <Gold.Chemscore.DEInternal.Weighted>
3.0802

> <Gold.Chemscore.Rot.Weighted>
5.3921

> <Gold.Chemscore.Internal.Correction.Weighted>
   9.000000E+99

> <Gold.Protein.RotatedTorsions>
[ 6907 6896 6895 6894 ] final   15.62 input  -60.11 | X-H torsion
[ 7974 7965 7964 7962 ] final  -72.51 input  175.53 | X-H torsion
[ 8008 7997 7996 7995 ] final  107.40 input   59.86 | X-H torsion
[ 10167 10162 10161 10158 ] final   73.86 input  -65.29 | X-H torsion
[ 10718 10713 10712 10709 ] final   76.81 input   66.30 | X-H torsion
[ 10763 10752 10751 10750 ] final    2.31 input  -60.55 | X-H torsion
[ 11005 11000 10999 10996 ] final   55.85 input  -57.11 | X-H torsion

> <Gold.Protein.ActiveResidues>
 VAL166  LYS551  ARG553  GLY616  TRP617  ASP618  TYR619  PRO620  LYS621  CYS622 
 ASP623  PHE694  ASN695  SER759  ASP760  ASP761  ALA762  ILE779  LEU786  VAL792 
 PHE793  MET794  SER795  GLU796  ALA797  LYS798  CYS799  TRP800  GLU811  SER814 

> <Gold.Protein.RotatedAtoms>
  151.8209  135.0652  160.0424 H   0  0  0  0  0  0  0  0  0  0  0  0  # atno 6907 bound_to 6896
  152.2952  133.5595  159.5591 H   0  0  0  0  0  0  0  0  0  0  0  0  # atno 6908 bound_to 6896
  150.7248  134.0288  159.3768 H   0  0  0  0  0  0  0  0  0  0  0  0  # atno 6909 bound_to 6896
  145.6642  140.9242  143.0917 H   0  0  0  0  0  0  0  0  0  0  0  0  # atno 7974 bound_to 7965
  156.1821  140.3095  155.9168 H   0  0  0  0  0  0  0  0  0  0  0  0  # atno 8008 bound_to 7997
  155.3361  140.0463  157.3061 H   0  0  0  0  0  0  0  0  0  0  0  0  # atno 8009 bound_to 7997
  154.5354  140.2244  155.8742 H   0  0  0  0  0  0  0  0  0  0  0  0  # atno 8010 bound_to 7997
  140.0199  144.5549  150.7590 H   0  0  0  0  0  0  0  0  0  0  0  0  # atno 10167 bound_to 10162
  157.6687  130.9792  150.1551 H   0  0  0  0  0  0  0  0  0  0  0  0  # atno 10718 bound_to 10713
  153.2971  135.6953  153.7238 H   0  0  0  0  0  0  0  0  0  0  0  0  # atno 10763 bound_to 10752
  153.6166  135.3435  155.2997 H   0  0  0  0  0  0  0  0  0  0  0  0  # atno 10764 bound_to 10752
  154.8540  135.4376  154.2071 H   0  0  0  0  0  0  0  0  0  0  0  0  # atno 10765 bound_to 10752
  140.0575  134.5650  155.9191 H   0  0  0  0  0  0  0  0  0  0  0  0  # atno 11005 bound_to 11000
  144.7078  139.8488  143.7424 LP  0  0  0  0  0  0  0  0  0  0  0  0  # atno 17320 bound_to 7965
  146.1100  139.4103  143.0294 LP  0  0  0  0  0  0  0  0  0  0  0  0  # atno 17321 bound_to 7965
  140.7347  143.2732  151.3824 LP  0  0  0  0  0  0  0  0  0  0  0  0  # atno 17342 bound_to 10162
  139.6147  144.1027  152.2334 LP  0  0  0  0  0  0  0  0  0  0  0  0  # atno 17343 bound_to 10162
  156.2341  130.3685  149.8412 LP  0  0  0  0  0  0  0  0  0  0  0  0  # atno 17370 bound_to 10713
  156.6230  130.8634  151.3479 LP  0  0  0  0  0  0  0  0  0  0  0  0  # atno 17371 bound_to 10713
  141.1958  133.6589  156.5662 LP  0  0  0  0  0  0  0  0  0  0  0  0  # atno 17394 bound_to 11000
  140.3822  134.7514  157.4668 LP  0  0  0  0  0  0  0  0  0  0  0  0  # atno 17395 bound_to 11000

$$$$
