AV-unprocessed.smi:2000|AV-procd|sdf|8101|dock6
  -GOLD-   2272010323D 1   1.00000     0.00000
 Structure written by MMmdl.
 43 44  0  0  0  0  0  0  0  0  1 V2000
  145.6325  134.4499  159.3561 C   0  0  0  0  0  0  0  0  0  0  0  0
  147.0671  134.5083  159.9054 C   0  0  1  0  0  0  0  0  0  0  0  0
  148.0311  135.1601  158.9045 C   0  0  0  0  0  0  0  0  0  0  0  0
  149.0280  134.5536  158.5111 O   0  0  0  0  0  0  0  0  0  0  0  0
  147.7294  136.4069  158.5078 N   0  0  0  0  0  0  0  0  0  0  0  0
  148.5266  137.2034  157.5792 C   0  0  0  0  0  0  0  0  0  0  0  0
  147.7290  137.9334  156.4947 C   0  0  0  0  0  0  0  0  0  0  0  0
  146.3228  137.8012  156.4050 C   0  0  0  0  0  0  0  0  0  0  0  0
  145.6282  138.4683  155.3803 C   0  0  0  0  0  0  0  0  0  0  0  0
  146.3668  139.2442  154.4704 C   0  0  0  0  0  0  0  0  0  0  0  0
  147.7070  139.3757  154.5333 N   0  0  0  0  0  0  0  0  0  0  0  0
  148.3813  138.7350  155.5196 C   0  0  0  0  0  0  0  0  0  0  0  0
  149.7755  138.9102  155.5625 N   0  0  0  0  0  0  0  0  0  0  0  0
  150.1609  140.2865  155.8481 C   0  0  0  0  0  0  0  0  0  0  0  0
  151.6809  140.3718  156.0720 C   0  0  0  0  0  0  0  0  0  0  0  0
  152.3657  139.8328  154.9440 O   0  0  0  0  0  0  0  0  0  0  0  0
  152.0355  138.4648  154.7200 C   0  0  0  0  0  0  0  0  0  0  0  0
  150.5266  138.3398  154.4493 C   0  0  0  0  0  0  0  0  0  0  0  0
  147.0910  135.4340  161.5121 S   0  0  0  0  0  0  0  0  0  0  0  0
  145.3309  135.9304  161.7332 C   0  0  0  0  0  0  0  0  0  0  0  0
  147.4412  134.5032  162.5961 O   0  0  0  0  0  0  0  0  0  0  0  0
  147.8915  136.6534  161.3233 O   0  0  0  0  0  0  0  0  0  0  0  0
  145.5975  133.9471  158.3889 H   0  0  0  0  0  0  0  0  0  0  0  0
  145.2108  135.4481  159.2308 H   0  0  0  0  0  0  0  0  0  0  0  0
  144.9791  133.9013  160.0346 H   0  0  0  0  0  0  0  0  0  0  0  0
  147.3996  133.4911  160.1159 H   0  0  0  0  0  0  0  0  0  0  0  0
  146.8956  136.8387  158.8790 H   0  0  0  0  0  0  0  0  0  0  0  0
  149.1285  137.9106  158.1512 H   0  0  0  0  0  0  0  0  0  0  0  0
  149.2322  136.5350  157.0857 H   0  0  0  0  0  0  0  0  0  0  0  0
  145.7682  137.1942  157.1048 H   0  0  0  0  0  0  0  0  0  0  0  0
  144.5551  138.3851  155.2930 H   0  0  0  0  0  0  0  0  0  0  0  0
  145.8696  139.7710  153.6694 H   0  0  0  0  0  0  0  0  0  0  0  0
  149.8706  140.9232  155.0111 H   0  0  0  0  0  0  0  0  0  0  0  0
  149.6320  140.6544  156.7282 H   0  0  0  0  0  0  0  0  0  0  0  0
  151.9834  141.4103  156.2078 H   0  0  0  0  0  0  0  0  0  0  0  0
  151.9699  139.8345  156.9766 H   0  0  0  0  0  0  0  0  0  0  0  0
  152.6029  138.0971  153.8650 H   0  0  0  0  0  0  0  0  0  0  0  0
  152.3287  137.8621  155.5813 H   0  0  0  0  0  0  0  0  0  0  0  0
  150.2521  137.2928  154.3161 H   0  0  0  0  0  0  0  0  0  0  0  0
  150.2783  138.8622  153.5242 H   0  0  0  0  0  0  0  0  0  0  0  0
  145.2451  136.5612  162.6178 H   0  0  0  0  0  0  0  0  0  0  0  0
  144.7087  135.0459  161.8669 H   0  0  0  0  0  0  0  0  0  0  0  0
  144.9943  136.4877  160.8594 H   0  0  0  0  0  0  0  0  0  0  0  0
  1  2  1  0  0  0  0
  1 23  1  0  0  0  0
  1 24  1  0  0  0  0
  1 25  1  0  0  0  0
  2  3  1  0  0  0  0
  2 19  1  0  0  0  0
  2 26  1  0  0  0  0
  3  4  2  0  0  0  0
  3  5  1  0  0  0  0
  5  6  1  0  0  0  0
  5 27  1  0  0  0  0
  6  7  1  0  0  0  0
  6 28  1  0  0  0  0
  6 29  1  0  0  0  0
  7 12  1  0  0  0  0
  7  8  2  0  0  0  0
  8  9  1  0  0  0  0
  8 30  1  0  0  0  0
  9 10  2  0  0  0  0
  9 31  1  0  0  0  0
 10 11  1  0  0  0  0
 10 32  1  0  0  0  0
 11 12  2  0  0  0  0
 12 13  1  0  0  0  0
 13 18  1  0  0  0  0
 13 14  1  0  0  0  0
 14 15  1  0  0  0  0
 14 33  1  0  0  0  0
 14 34  1  0  0  0  0
 15 16  1  0  0  0  0
 15 35  1  0  0  0  0
 15 36  1  0  0  0  0
 16 17  1  0  0  0  0
 17 18  1  0  0  0  0
 17 37  1  0  0  0  0
 17 38  1  0  0  0  0
 18 39  1  0  0  0  0
 18 40  1  0  0  0  0
 19 20  1  0  0  0  0
 19 21  2  0  0  0  0
 19 22  2  0  0  0  0
 20 41  1  0  0  0  0
 20 42  1  0  0  0  0
 20 43  1  0  0  0  0
M  END
> <s_m_source_file>
AV-unprocessed.smi

> <i_m_source_file_index>
2000

> <i_lp_mmshare_version>
43012

> <i_f3d_flags>
0

> <s_epik_input>
W0NIM11TKD1PKSg9TylbQ0BIXShbQ0gzXSlDKD1PKVtOSF1bQ0gyXWMxW2NIXVtjSF1bY0hdbmMxTjJbQ0gyXVtDSDJdT1tDSDJdW0NIMl0y

> <s_epik_cmdline>
J2VwaWtfcHl0aG9uJywgJy1waCcsICc3LjAnLCAnLXRuJywgJzgnLCAnLW1hJywgJzIwMCcsICctbWV0YWxfYmluZGluZycsICctaW1hZScsICc8aW5maWxlLm1hZT4nLCAnLW9tYWUnLCAnPG91dGZpbGUubWFlPic=

> <r_lp_tautomer_probability>
1

> <r_epik_Ionization_Penalty>
0.00349769

> <r_epik_Ionization_Penalty_Charging>
0

> <r_epik_Ionization_Penalty_Neutral>
0.00349769

> <r_epik_State_Penalty>
0.00248024

> <r_epik_Charging_Adjusted_Penalty>
0.00248024

> <i_epik_Tot_Q>
0

> <i_epik_Tot_abs_Q>
0

> <r_epik_Metal_State_Penalty>
-0

> <b_epik_Metal_Only>
0

> <s_lp_Force_Field>
OPLS_2005

> <r_lp_Energy>
18.4728

> <b_lp_Chiralities_Consistent>
1

> <s_lp_Variant>
AV-unprocessed.smi:2000-2

> <Gold.Version>
5.8.1

> <Gold.Id.Protein>
6NUR|6NUR_protein|mol2

> <Gold.PLP.Fitness>
38.0998

> <Gold.PLP.PLP>
-24.6197

> <Gold.PLP.part.hbond>
-4.1573

> <Gold.PLP.part.metal>
0.0000

> <Gold.PLP.part.buried>
-5.3382

> <Gold.PLP.part.nonpolar>
-15.4097

> <Gold.PLP.part.repulsive>
0.2479

> <Gold.PLP.ligand.clash>
0.0000

> <Gold.PLP.ligand.torsion>
0.2662

> <Gold.PLP.Chemscore.Hbond>
3.6583

> <Gold.PLP.Chemscore.CHOScore>
0.9121

> <Gold.PLP.Chemscore.Metal>
0.0000

> <Gold.Chemscore.Hbonds>
donor molecule, donor type, donor heavy atom, donor atom, acceptor molecule, acceptor atom, score
      P1  H  6896  6907       L1     4  1.00
      P1  H  6931  6943       L1    22  0.96
      P1  H  7989  7998       L1    16  0.67
      P1  H  7997  8010       L1    16  0.18
      L1  C    10    32       P1 10175  0.85

> <Gold.PLP.Chemscore.Internal.Correction>
0.3015

> <Gold.Rescore>
     Score         DG    S(hbond)    S(metal)    S(lipo)     H(rot)  DE(clash)    DE(int)     intcor
     13.75     -15.51       3.18        0.00      40.33       2.08       0.10       1.65       ----

> <Gold.Chemscore.Fitness>
13.7547

> <Gold.Chemscore.DG>
-15.5076

> <Gold.Chemscore.ZeroCoef>
-5.4800

> <Gold.Chemscore.Hbond>
3.1811

> <Gold.Chemscore.Metal>
0.0000

> <Gold.Chemscore.Lipo>
40.3259

> <Gold.Chemscore.Internal_Hbond>
0.0000

> <Gold.Chemscore.DEClash>
0.1030

> <Gold.Chemscore.DEInternal>
1.6499

> <Gold.Chemscore.Rot>
2.0764

> <Gold.Chemscore.Internal.Correction>
   9.000000E+99

> <Gold.Chemscore.Hbonds>
donor molecule, donor type, donor heavy atom, donor atom, acceptor molecule, acceptor atom, score
      P1  H  6896  6907       L1     4  1.00
      P1  H  6931  6943       L1    22  0.91
      P1  H  6934  6947       L1    22  0.01
      P1  H  7989  7998       L1    16  0.19
      P1  H  7997  8010       L1    16  0.01

> <Gold.Chemscore.Hbond.Weighted>
-10.6250

> <Gold.Chemscore.Metal.Weighted>
-0.0000

> <Gold.Chemscore.Lipo.Weighted>
-4.7181

> <Gold.Chemscore.Internal_Hbond.Weighted>
0.0000

> <Gold.Chemscore.DEClash.Weighted>
0.1030

> <Gold.Chemscore.DEInternal.Weighted>
1.6499

> <Gold.Chemscore.Rot.Weighted>
5.3155

> <Gold.Chemscore.Internal.Correction.Weighted>
   9.000000E+99

> <Gold.Protein.RotatedTorsions>
[ 6907 6896 6895 6894 ] final  -99.24 input  -60.11 | X-H torsion
[ 7974 7965 7964 7962 ] final  -67.74 input  175.53 | X-H torsion
[ 8008 7997 7996 7995 ] final  104.41 input   59.86 | X-H torsion
[ 10167 10162 10161 10158 ] final  145.15 input  -65.29 | X-H torsion
[ 10718 10713 10712 10709 ] final  -73.99 input   66.30 | X-H torsion
[ 10763 10752 10751 10750 ] final   45.04 input  -60.55 | X-H torsion
[ 11005 11000 10999 10996 ] final  178.66 input  -57.11 | X-H torsion

> <Gold.Protein.ActiveResidues>
 VAL166  LYS551  ARG553  GLY616  TRP617  ASP618  TYR619  PRO620  LYS621  CYS622 
 ASP623  PHE694  ASN695  SER759  ASP760  ASP761  ALA762  ILE779  LEU786  VAL792 
 PHE793  MET794  SER795  GLU796  ALA797  LYS798  CYS799  TRP800  GLU811  SER814 

> <Gold.Protein.RotatedAtoms>
  150.7073  134.1072  159.3986 H   0  0  0  0  0  0  0  0  0  0  0  0  # atno 6907 bound_to 6896
  151.9058  135.0357  160.0519 H   0  0  0  0  0  0  0  0  0  0  0  0  # atno 6908 bound_to 6896
  152.2376  133.5074  159.5288 H   0  0  0  0  0  0  0  0  0  0  0  0  # atno 6909 bound_to 6896
  145.7253  140.9021  143.0609 H   0  0  0  0  0  0  0  0  0  0  0  0  # atno 7974 bound_to 7965
  156.1571  140.3148  155.8744 H   0  0  0  0  0  0  0  0  0  0  0  0  # atno 8008 bound_to 7997
  155.3857  140.0490  157.3059 H   0  0  0  0  0  0  0  0  0  0  0  0  # atno 8009 bound_to 7997
  154.5111  140.2165  155.9166 H   0  0  0  0  0  0  0  0  0  0  0  0  # atno 8010 bound_to 7997
  139.4932  144.5922  151.6657 H   0  0  0  0  0  0  0  0  0  0  0  0  # atno 10167 bound_to 10162
  156.0259  130.4407  150.2825 H   0  0  0  0  0  0  0  0  0  0  0  0  # atno 10718 bound_to 10713
  152.9831  135.6052  154.3373 H   0  0  0  0  0  0  0  0  0  0  0  0  # atno 10763 bound_to 10752
  154.3072  135.2772  155.2585 H   0  0  0  0  0  0  0  0  0  0  0  0  # atno 10764 bound_to 10752
  154.4811  135.5917  153.6446 H   0  0  0  0  0  0  0  0  0  0  0  0  # atno 10765 bound_to 10752
  140.3976  134.6806  157.4543 H   0  0  0  0  0  0  0  0  0  0  0  0  # atno 11005 bound_to 11000
  144.6906  139.9257  143.7470 LP  0  0  0  0  0  0  0  0  0  0  0  0  # atno 17320 bound_to 7965
  146.0588  139.3583  143.0594 LP  0  0  0  0  0  0  0  0  0  0  0  0  # atno 17321 bound_to 7965
  140.5552  144.0360  150.6144 LP  0  0  0  0  0  0  0  0  0  0  0  0  # atno 17342 bound_to 10162
  140.3427  143.3010  152.0571 LP  0  0  0  0  0  0  0  0  0  0  0  0  # atno 17343 bound_to 10162
  157.0929  131.0174  151.3115 LP  0  0  0  0  0  0  0  0  0  0  0  0  # atno 17370 bound_to 10713
  157.4840  130.7782  149.7442 LP  0  0  0  0  0  0  0  0  0  0  0  0  # atno 17371 bound_to 10713
  140.0360  134.6336  155.9042 LP  0  0  0  0  0  0  0  0  0  0  0  0  # atno 17394 bound_to 11000
  141.1868  133.6558  156.5257 LP  0  0  0  0  0  0  0  0  0  0  0  0  # atno 17395 bound_to 11000

$$$$
