AV-unprocessed.smi:1644|AV-procd|sdf|6597|dock5
  -GOLD-   22720 7303D 1   1.00000     0.00000
 Structure written by MMmdl.
 49 51  0  0  0  0  0  0  0  0  3 V2000
  153.6234  137.2320  161.8722 C   0  0  0  0  0  0  0  0  0  0  0  0
  154.8142  137.2857  160.9087 C   0  0  0  0  0  0  0  0  0  0  0  0
  154.3993  137.6812  159.4823 C   0  0  0  0  0  0  0  0  0  0  0  0
  153.4269  136.6763  158.8285 C   0  0  1  0  0  0  0  0  0  0  0  0
  152.0675  136.8766  159.2882 N   0  5  0  0  0  0  0  0  0  0  0  0
  151.2835  137.1489  158.2194 C   0  0  0  0  0  0  0  0  0  0  0  0
  150.0750  137.3794  158.2337 O   0  0  0  0  0  0  0  0  0  0  0  0
  152.0026  137.1557  157.0812 N   0  0  0  0  0  0  0  0  0  0  0  0
  151.4720  137.4617  155.7482 C   0  0  0  0  0  0  0  0  0  0  0  0
  151.0446  138.9397  155.6343 C   0  0  2  0  0  0  0  0  0  0  0  0
  150.8228  139.2407  154.2704 O   0  0  0  0  0  0  0  0  0  0  0  0
  152.1260  139.8921  156.1809 C   0  0  0  0  0  0  0  0  0  0  0  0
  151.5677  141.1497  156.6984 N   0  0  0  0  0  0  0  0  0  0  0  0
  150.7032  142.0196  156.1101 C   0  0  0  0  0  0  0  0  0  0  0  0
  150.4835  143.0376  156.9875 N   0  3  0  0  0  0  0  0  0  0  0  0
  151.2226  142.8165  158.1515 C   0  0  0  0  0  0  0  0  0  0  0  0
  151.3297  143.5662  159.3168 C   0  0  0  0  0  0  0  0  0  0  0  0
  152.1794  143.0671  160.3296 C   0  0  0  0  0  0  0  0  0  0  0  0
  152.3202  143.8636  161.6155 C   0  0  0  0  0  0  0  0  0  0  0  0
  152.8882  141.8505  160.1536 C   0  0  0  0  0  0  0  0  0  0  0  0
  153.8027  141.3254  161.2472 C   0  0  0  0  0  0  0  0  0  0  0  0
  152.7637  141.1015  158.9615 C   0  0  0  0  0  0  0  0  0  0  0  0
  151.9218  141.6071  157.9734 C   0  0  0  0  0  0  0  0  0  0  0  0
  153.2902  136.9028  157.3367 C   0  0  0  0  0  0  0  0  0  0  0  0
  154.2235  136.8663  156.5335 O   0  0  0  0  0  0  0  0  0  0  0  0
  153.9475  136.9532  162.8752 H   0  0  0  0  0  0  0  0  0  0  0  0
  152.8854  136.4991  161.5450 H   0  0  0  0  0  0  0  0  0  0  0  0
  153.1281  138.2009  161.9394 H   0  0  0  0  0  0  0  0  0  0  0  0
  155.5492  137.9974  161.2861 H   0  0  0  0  0  0  0  0  0  0  0  0
  155.3065  136.3127  160.8941 H   0  0  0  0  0  0  0  0  0  0  0  0
  153.9585  138.6798  159.4917 H   0  0  0  0  0  0  0  0  0  0  0  0
  155.3009  137.7575  158.8728 H   0  0  0  0  0  0  0  0  0  0  0  0
  153.7774  135.6558  158.9889 H   0  0  0  0  0  0  0  0  0  0  0  0
  152.2563  137.2509  155.0191 H   0  0  0  0  0  0  0  0  0  0  0  0
  150.6514  136.7928  155.4817 H   0  0  0  0  0  0  0  0  0  0  0  0
  150.1184  139.1079  156.1859 H   0  0  0  0  0  0  0  0  0  0  0  0
  150.3478  138.5218  153.8803 H   0  0  0  0  0  0  0  0  0  0  0  0
  152.6509  139.4164  157.0102 H   0  0  0  0  0  0  0  0  0  0  0  0
  152.8829  140.1123  155.4275 H   0  0  0  0  0  0  0  0  0  0  0  0
  150.2707  141.9196  155.1249 H   0  0  0  0  0  0  0  0  0  0  0  0
  150.7882  144.4924  159.4430 H   0  0  0  0  0  0  0  0  0  0  0  0
  151.9716  143.2793  162.4673 H   0  0  0  0  0  0  0  0  0  0  0  0
  151.7364  144.7840  161.5805 H   0  0  0  0  0  0  0  0  0  0  0  0
  153.3618  144.1372  161.7853 H   0  0  0  0  0  0  0  0  0  0  0  0
  154.2555  140.3739  160.9664 H   0  0  0  0  0  0  0  0  0  0  0  0
  153.2459  141.1688  162.1714 H   0  0  0  0  0  0  0  0  0  0  0  0
  154.6091  142.0323  161.4436 H   0  0  0  0  0  0  0  0  0  0  0  0
  153.3094  140.1797  158.8241 H   0  0  0  0  0  0  0  0  0  0  0  0
  149.8754  143.8252  156.8025 H   0  0  0  0  0  0  0  0  0  0  0  0
  1  2  1  0  0  0  0
  1 26  1  0  0  0  0
  1 27  1  0  0  0  0
  1 28  1  0  0  0  0
  2  3  1  0  0  0  0
  2 29  1  0  0  0  0
  2 30  1  0  0  0  0
  3  4  1  0  0  0  0
  3 31  1  0  0  0  0
  3 32  1  0  0  0  0
  4 24  1  0  0  0  0
  4  5  1  0  0  0  0
  4 33  1  0  0  0  0
  5  6  1  0  0  0  0
  6  7  2  0  0  0  0
  6  8  1  0  0  0  0
  8  9  1  0  0  0  0
  8 24  1  0  0  0  0
  9 10  1  0  0  0  0
  9 34  1  0  0  0  0
  9 35  1  0  0  0  0
 10 11  1  0  0  0  0
 10 12  1  0  0  0  0
 10 36  1  0  0  0  0
 11 37  1  0  0  0  0
 12 13  1  0  0  0  0
 12 38  1  0  0  0  0
 12 39  1  0  0  0  0
 13 23  1  0  0  0  0
 13 14  1  0  0  0  0
 14 15  2  0  0  0  0
 14 40  1  0  0  0  0
 15 16  1  0  0  0  0
 15 49  1  0  0  0  0
 16 23  2  0  0  0  0
 16 17  1  0  0  0  0
 17 18  2  0  0  0  0
 17 41  1  0  0  0  0
 18 19  1  0  0  0  0
 18 20  1  0  0  0  0
 19 42  1  0  0  0  0
 19 43  1  0  0  0  0
 19 44  1  0  0  0  0
 20 21  1  0  0  0  0
 20 22  2  0  0  0  0
 21 45  1  0  0  0  0
 21 46  1  0  0  0  0
 21 47  1  0  0  0  0
 22 23  1  0  0  0  0
 22 48  1  0  0  0  0
 24 25  2  0  0  0  0
M  CHG  1   5  -1
M  CHG  1  15   1
M  END
> <s_m_source_file>
AV-unprocessed.smi

> <i_m_source_file_index>
1644

> <i_lp_mmshare_version>
43012

> <i_f3d_flags>
0

> <s_epik_input>
W0NIM11bQ0gyXVtDSDJdW0NAQEhdMVtOSF1DKD1PKU4oQzE9TylbQ0gyXVtDQEhdKFtPSF0pW0NIMl1uKFtjSF1uMiljKGMyMylbY0hdYyhbQ0gzXSljKFtjSF0zKVtDSDNd

> <s_epik_cmdline>
J2VwaWtfcHl0aG9uJywgJy1waCcsICc3LjAnLCAnLXRuJywgJzgnLCAnLW1hJywgJzIwMCcsICctbWV0YWxfYmluZGluZycsICctaW1hZScsICc8aW5maWxlLm1hZT4nLCAnLW9tYWUnLCAnPG91dGZpbGUubWFlPic=

> <r_lp_tautomer_probability>
1

> <r_epik_Ionization_Penalty>
6.86868

> <r_epik_Ionization_Penalty_Charging>
6.86868

> <r_epik_Ionization_Penalty_Neutral>
5.84798e-07

> <r_epik_State_Penalty>
6.92818

> <r_epik_Charging_Adjusted_Penalty>
13.7969

> <i_epik_Tot_Q>
0

> <i_epik_Tot_abs_Q>
2

> <r_epik_Metal_State_Penalty>
2.98017

> <b_epik_Metal_Only>
1

> <s_lp_Force_Field>
OPLS_2005

> <r_lp_Energy>
23.8384

> <b_lp_Chiralities_Consistent>
1

> <s_lp_Variant>
AV-unprocessed.smi:1644-14

> <Gold.Version>
5.8.1

> <Gold.Id.Protein>
6NUR|6NUR_protein|mol2

> <Gold.PLP.Fitness>
60.1776

> <Gold.PLP.PLP>
-44.5107

> <Gold.PLP.part.hbond>
-4.0000

> <Gold.PLP.part.metal>
0.0000

> <Gold.PLP.part.buried>
-5.9232

> <Gold.PLP.part.nonpolar>
-33.6051

> <Gold.PLP.part.repulsive>
0.0171

> <Gold.PLP.ligand.clash>
0.0000

> <Gold.PLP.ligand.torsion>
0.7185

> <Gold.PLP.Chemscore.Hbond>
5.6720

> <Gold.PLP.Chemscore.CHOScore>
0.0000

> <Gold.PLP.Chemscore.Metal>
0.0000

> <Gold.Chemscore.Hbonds>
donor molecule, donor type, donor heavy atom, donor atom, acceptor molecule, acceptor atom, score
      L1  H    15    49       P1  8028  1.98
      P1  H  6896  6908       L1     5  1.90
      P1  H  7989  7998       L1    11  1.00
      P1  H 10752 10765       L1    25  0.70

> <Gold.PLP.Chemscore.Internal.Correction>
0.0879

> <Gold.Rescore>
     Score         DG    S(hbond)    S(metal)    S(lipo)     H(rot)  DE(clash)    DE(int)     intcor
     20.73     -21.54       2.80        0.00     116.83       2.72       0.05       0.76       ----

> <Gold.Chemscore.Fitness>
20.7317

> <Gold.Chemscore.DG>
-21.5433

> <Gold.Chemscore.ZeroCoef>
-5.4800

> <Gold.Chemscore.Hbond>
2.8050

> <Gold.Chemscore.Metal>
0.0000

> <Gold.Chemscore.Lipo>
116.8331

> <Gold.Chemscore.Internal_Hbond>
0.0000

> <Gold.Chemscore.DEClash>
0.0528

> <Gold.Chemscore.DEInternal>
0.7588

> <Gold.Chemscore.Rot>
2.7245

> <Gold.Chemscore.Internal.Correction>
   9.000000E+99

> <Gold.Chemscore.Hbonds>
donor molecule, donor type, donor heavy atom, donor atom, acceptor molecule, acceptor atom, score
      L1  H    15    49       P1  8028  0.93
      P1  H  6896  6908       L1     5  0.18
      P1  H  7989  7998       L1    11  0.96
      P1  H 10752 10765       L1    25  0.46

> <Gold.Chemscore.Hbond.Weighted>
-9.3687

> <Gold.Chemscore.Metal.Weighted>
-0.0000

> <Gold.Chemscore.Lipo.Weighted>
-13.6695

> <Gold.Chemscore.Internal_Hbond.Weighted>
0.0000

> <Gold.Chemscore.DEClash.Weighted>
0.0528

> <Gold.Chemscore.DEInternal.Weighted>
0.7588

> <Gold.Chemscore.Rot.Weighted>
6.9748

> <Gold.Chemscore.Internal.Correction.Weighted>
   9.000000E+99

> <Gold.Protein.RotatedTorsions>
[ 6907 6896 6895 6894 ] final -110.19 input  -60.11 | X-H torsion
[ 7974 7965 7964 7962 ] final   44.14 input  175.53 | X-H torsion
[ 8008 7997 7996 7995 ] final  -57.92 input   59.86 | X-H torsion
[ 10167 10162 10161 10158 ] final  161.60 input  -65.29 | X-H torsion
[ 10718 10713 10712 10709 ] final -130.83 input   66.30 | X-H torsion
[ 10763 10752 10751 10750 ] final  -97.89 input  -60.55 | X-H torsion
[ 11005 11000 10999 10996 ] final  131.08 input  -57.11 | X-H torsion

> <Gold.Protein.ActiveResidues>
 VAL166  LYS551  ARG553  GLY616  TRP617  ASP618  TYR619  PRO620  LYS621  CYS622 
 ASP623  PHE694  ASN695  SER759  ASP760  ASP761  ALA762  ILE779  LEU786  VAL792 
 PHE793  MET794  SER795  GLU796  ALA797  LYS798  CYS799  TRP800  GLU811  SER814 

> <Gold.Protein.RotatedAtoms>
  150.7609  133.9419  159.3458 H   0  0  0  0  0  0  0  0  0  0  0  0  # atno 6907 bound_to 6896
  151.7328  135.0869  160.0312 H   0  0  0  0  0  0  0  0  0  0  0  0  # atno 6908 bound_to 6896
  152.3579  133.6222  159.6029 H   0  0  0  0  0  0  0  0  0  0  0  0  # atno 6909 bound_to 6896
  146.0594  139.5108  142.9667 H   0  0  0  0  0  0  0  0  0  0  0  0  # atno 7974 bound_to 7965
  154.4287  140.1096  156.5874 H   0  0  0  0  0  0  0  0  0  0  0  0  # atno 8008 bound_to 7997
  155.6048  140.3493  155.4585 H   0  0  0  0  0  0  0  0  0  0  0  0  # atno 8009 bound_to 7997
  156.0145  140.1226  157.0409 H   0  0  0  0  0  0  0  0  0  0  0  0  # atno 8010 bound_to 7997
  139.4851  144.4520  151.8817 H   0  0  0  0  0  0  0  0  0  0  0  0  # atno 10167 bound_to 10162
  156.2183  130.6962  151.0728 H   0  0  0  0  0  0  0  0  0  0  0  0  # atno 10718 bound_to 10713
  154.7367  135.5030  153.9053 H   0  0  0  0  0  0  0  0  0  0  0  0  # atno 10763 bound_to 10752
  153.1002  135.6683  153.9695 H   0  0  0  0  0  0  0  0  0  0  0  0  # atno 10764 bound_to 10752
  153.9483  135.3060  155.3419 H   0  0  0  0  0  0  0  0  0  0  0  0  # atno 10765 bound_to 10752
  139.9709  134.9577  156.9387 H   0  0  0  0  0  0  0  0  0  0  0  0  # atno 11005 bound_to 11000
  145.6586  141.0246  143.1721 LP  0  0  0  0  0  0  0  0  0  0  0  0  # atno 17320 bound_to 7965
  144.7166  139.8174  143.7396 LP  0  0  0  0  0  0  0  0  0  0  0  0  # atno 17321 bound_to 7965
  140.3978  144.2533  150.5895 LP  0  0  0  0  0  0  0  0  0  0  0  0  # atno 17342 bound_to 10162
  140.5086  143.2297  151.8570 LP  0  0  0  0  0  0  0  0  0  0  0  0  # atno 17343 bound_to 10162
  157.7074  131.0750  150.6618 LP  0  0  0  0  0  0  0  0  0  0  0  0  # atno 17370 bound_to 10713
  156.6680  130.4531  149.5666 LP  0  0  0  0  0  0  0  0  0  0  0  0  # atno 17371 bound_to 10713
  140.5295  134.0827  155.7312 LP  0  0  0  0  0  0  0  0  0  0  0  0  # atno 17394 bound_to 11000
  141.1389  133.9173  157.2372 LP  0  0  0  0  0  0  0  0  0  0  0  0  # atno 17395 bound_to 11000

$$$$
