AV-unprocessed.smi:2425|AV-procd|sdf|9575|dock9
  -GOLD-   2272013203D 1   1.00000     0.00000
 Structure written by MMmdl.
 35 36  0  0  0  0  0  0  0  0  3 V2000
  152.5630  142.9773  161.9596 C   0  0  0  0  0  0  0  0  0  0  0  0
  152.3685  142.1250  160.6968 C   0  0  0  0  0  0  0  0  0  0  0  0
  152.2242  142.9472  159.4071 C   0  0  0  0  0  0  0  0  0  0  0  0
  152.1154  142.0625  158.2368 N   0  0  0  0  0  0  0  0  0  0  0  0
  150.9870  141.6279  157.6530 C   0  0  0  0  0  0  0  0  0  0  0  0
  149.8579  141.9173  158.0483 O   0  0  0  0  0  0  0  0  0  0  0  0
  151.2629  140.8329  156.6051 N   0  0  0  0  0  0  0  0  0  0  0  0
  150.3574  140.1477  155.7446 C   0  0  0  0  0  0  0  0  0  0  0  0
  149.0371  140.6104  155.5220 C   0  0  0  0  0  0  0  0  0  0  0  0
  148.2120  139.9146  154.6188 C   0  0  0  0  0  0  0  0  0  0  0  0
  148.6164  138.8269  153.9342 N   0  0  0  0  0  0  0  0  0  0  0  0
  149.8784  138.3939  154.1326 C   0  0  0  0  0  0  0  0  0  0  0  0
  150.7944  139.0048  155.0195 C   0  0  0  0  0  0  0  0  0  0  0  0
  152.1506  138.4400  155.1540 N   0  3  0  0  0  0  0  0  0  0  0  0
  152.9759  139.0421  155.8334 O   0  0  0  0  0  0  0  0  0  0  0  0
  152.3780  137.3732  154.5933 O   0  5  0  0  0  0  0  0  0  0  0  0
  151.1012  144.0024  159.3399 C   0  0  0  0  0  0  0  0  0  0  0  0
  152.0457  144.9364  158.5791 C   0  0  0  0  0  0  0  0  0  0  0  0
  153.2057  144.1126  159.1429 C   0  0  0  0  0  0  0  0  0  0  0  0
  152.6959  142.3425  162.8357 H   0  0  0  0  0  0  0  0  0  0  0  0
  151.7019  143.6188  162.1473 H   0  0  0  0  0  0  0  0  0  0  0  0
  153.4443  143.6135  161.8751 H   0  0  0  0  0  0  0  0  0  0  0  0
  153.2220  141.4526  160.6046 H   0  0  0  0  0  0  0  0  0  0  0  0
  151.5058  141.4734  160.8357 H   0  0  0  0  0  0  0  0  0  0  0  0
  152.9895  141.7567  157.8351 H   0  0  0  0  0  0  0  0  0  0  0  0
  152.2390  140.6158  156.4645 H   0  0  0  0  0  0  0  0  0  0  0  0
  148.6484  141.4916  156.0086 H   0  0  0  0  0  0  0  0  0  0  0  0
  147.2024  140.2495  154.4324 H   0  0  0  0  0  0  0  0  0  0  0  0
  150.1634  137.5206  153.5645 H   0  0  0  0  0  0  0  0  0  0  0  0
  150.2103  143.7046  158.7854 H   0  0  0  0  0  0  0  0  0  0  0  0
  150.8370  144.3962  160.3228 H   0  0  0  0  0  0  0  0  0  0  0  0
  151.9497  144.8482  157.4958 H   0  0  0  0  0  0  0  0  0  0  0  0
  152.0225  145.9761  158.9067 H   0  0  0  0  0  0  0  0  0  0  0  0
  153.6033  144.5412  160.0644 H   0  0  0  0  0  0  0  0  0  0  0  0
  154.0068  143.9174  158.4296 H   0  0  0  0  0  0  0  0  0  0  0  0
  1  2  1  0  0  0  0
  1 20  1  0  0  0  0
  1 21  1  0  0  0  0
  1 22  1  0  0  0  0
  2  3  1  0  0  0  0
  2 23  1  0  0  0  0
  2 24  1  0  0  0  0
  3 19  1  0  0  0  0
  3  4  1  0  0  0  0
  3 17  1  0  0  0  0
  4  5  1  0  0  0  0
  4 25  1  0  0  0  0
  5  6  2  0  0  0  0
  5  7  1  0  0  0  0
  7  8  1  0  0  0  0
  7 26  1  0  0  0  0
  8 13  1  0  0  0  0
  8  9  2  0  0  0  0
  9 10  1  0  0  0  0
  9 27  1  0  0  0  0
 10 11  2  0  0  0  0
 10 28  1  0  0  0  0
 11 12  1  0  0  0  0
 12 13  2  0  0  0  0
 12 29  1  0  0  0  0
 13 14  1  0  0  0  0
 14 15  2  0  0  0  0
 14 16  1  0  0  0  0
 17 18  1  0  0  0  0
 17 30  1  0  0  0  0
 17 31  1  0  0  0  0
 18 19  1  0  0  0  0
 18 32  1  0  0  0  0
 18 33  1  0  0  0  0
 19 34  1  0  0  0  0
 19 35  1  0  0  0  0
M  CHG  1  14   1
M  CHG  1  16  -1
M  END
> <s_m_source_file>
AV-unprocessed.smi

> <i_m_source_file_index>
2425

> <i_lp_mmshare_version>
43012

> <i_f3d_flags>
0

> <s_epik_input>
W0NIMl0xW0NIMl1bQ0gyXUMxKFtDSDJdW0NIM10pW05IXUMoPU8pW05IXWMyW2NIXVtjSF1uW2NIXWMyW04rXSg9TylbTy1d

> <s_epik_cmdline>
J2VwaWtfcHl0aG9uJywgJy1waCcsICc3LjAnLCAnLXRuJywgJzgnLCAnLW1hJywgJzIwMCcsICctbWV0YWxfYmluZGluZycsICctaW1hZScsICc8aW5maWxlLm1hZT4nLCAnLW9tYWUnLCAnPG91dGZpbGUubWFlPic=

> <r_lp_tautomer_probability>
1

> <r_epik_Ionization_Penalty>
0.00016416

> <r_epik_Ionization_Penalty_Charging>
0

> <r_epik_Ionization_Penalty_Neutral>
0.00016416

> <r_epik_State_Penalty>
-0

> <r_epik_Charging_Adjusted_Penalty>
0

> <i_epik_Tot_Q>
0

> <i_epik_Tot_abs_Q>
2

> <r_epik_Metal_State_Penalty>
-0

> <b_epik_Metal_Only>
0

> <s_lp_Force_Field>
OPLS_2005

> <r_lp_Energy>
29.2252

> <b_lp_Chiralities_Consistent>
1

> <s_lp_Variant>
AV-unprocessed.smi:2425-1

> <Gold.Version>
5.8.1

> <Gold.Id.Protein>
6NUR|6NUR_protein|mol2

> <Gold.PLP.Fitness>
46.1006

> <Gold.PLP.PLP>
-38.7018

> <Gold.PLP.part.hbond>
-2.0000

> <Gold.PLP.part.metal>
0.0000

> <Gold.PLP.part.buried>
-5.2228

> <Gold.PLP.part.nonpolar>
-32.5037

> <Gold.PLP.part.repulsive>
1.1866

> <Gold.PLP.ligand.clash>
0.0064

> <Gold.PLP.ligand.torsion>
0.5977

> <Gold.PLP.Chemscore.Hbond>
1.6400

> <Gold.PLP.Chemscore.CHOScore>
1.0983

> <Gold.PLP.Chemscore.Metal>
0.0000

> <Gold.Chemscore.Hbonds>
donor molecule, donor type, donor heavy atom, donor atom, acceptor molecule, acceptor atom, score
      P1  H  7997  8008       L1    15  1.00
      P1  H 10752 10765       L1    16  0.66
      L1  C    12    29       P1  7948  1.00
      L1  C    12    29       P1  7949  0.10

> <Gold.PLP.Chemscore.Internal.Correction>
0.3857

> <Gold.Rescore>
     Score         DG    S(hbond)    S(metal)    S(lipo)     H(rot)  DE(clash)    DE(int)     intcor
     15.20     -20.19       1.77        0.00     102.06       1.23       0.21       4.78       ----

> <Gold.Chemscore.Fitness>
15.2025

> <Gold.Chemscore.DG>
-20.1854

> <Gold.Chemscore.ZeroCoef>
-5.4800

> <Gold.Chemscore.Hbond>
1.7691

> <Gold.Chemscore.Metal>
0.0000

> <Gold.Chemscore.Lipo>
102.0575

> <Gold.Chemscore.Internal_Hbond>
0.0000

> <Gold.Chemscore.DEClash>
0.2073

> <Gold.Chemscore.DEInternal>
4.7756

> <Gold.Chemscore.Rot>
1.2282

> <Gold.Chemscore.Internal.Correction>
   9.000000E+99

> <Gold.Chemscore.Hbonds>
donor molecule, donor type, donor heavy atom, donor atom, acceptor molecule, acceptor atom, score
      P1  H  7997  8008       L1    15  1.00
      P1  H 10752 10765       L1    16  0.66

> <Gold.Chemscore.Hbond.Weighted>
-5.9088

> <Gold.Chemscore.Metal.Weighted>
-0.0000

> <Gold.Chemscore.Lipo.Weighted>
-11.9407

> <Gold.Chemscore.Internal_Hbond.Weighted>
0.0000

> <Gold.Chemscore.DEClash.Weighted>
0.2073

> <Gold.Chemscore.DEInternal.Weighted>
4.7756

> <Gold.Chemscore.Rot.Weighted>
3.1441

> <Gold.Chemscore.Internal.Correction.Weighted>
   9.000000E+99

> <Gold.Protein.RotatedTorsions>
[ 6907 6896 6895 6894 ] final  142.34 input  -60.11 | X-H torsion
[ 7974 7965 7964 7962 ] final  161.94 input  175.53 | X-H torsion
[ 8008 7997 7996 7995 ] final  -29.67 input   59.86 | X-H torsion
[ 10167 10162 10161 10158 ] final  136.20 input  -65.29 | X-H torsion
[ 10718 10713 10712 10709 ] final   33.67 input   66.30 | X-H torsion
[ 10763 10752 10751 10750 ] final  152.06 input  -60.55 | X-H torsion
[ 11005 11000 10999 10996 ] final  -19.63 input  -57.11 | X-H torsion

> <Gold.Protein.ActiveResidues>
 VAL166  LYS551  ARG553  GLY616  TRP617  ASP618  TYR619  PRO620  LYS621  CYS622 
 ASP623  PHE694  ASN695  SER759  ASP760  ASP761  ALA762  ILE779  LEU786  VAL792 
 PHE793  MET794  SER795  GLU796  ALA797  LYS798  CYS799  TRP800  GLU811  SER814 

> <Gold.Protein.RotatedAtoms>
  152.2199  133.4975  159.5156 H   0  0  0  0  0  0  0  0  0  0  0  0  # atno 6907 bound_to 6896
  150.7010  134.1356  159.4095 H   0  0  0  0  0  0  0  0  0  0  0  0  # atno 6908 bound_to 6896
  151.9277  135.0270  160.0577 H   0  0  0  0  0  0  0  0  0  0  0  0  # atno 6909 bound_to 6896
  144.7661  139.7969  143.6314 H   0  0  0  0  0  0  0  0  0  0  0  0  # atno 7974 bound_to 7965
  154.4280  140.1812  156.1285 H   0  0  0  0  0  0  0  0  0  0  0  0  # atno 8008 bound_to 7997
  156.0086  140.3353  155.6893 H   0  0  0  0  0  0  0  0  0  0  0  0  # atno 8009 bound_to 7997
  155.6142  140.0653  157.2688 H   0  0  0  0  0  0  0  0  0  0  0  0  # atno 8010 bound_to 7997
  139.5188  144.6477  151.5393 H   0  0  0  0  0  0  0  0  0  0  0  0  # atno 10167 bound_to 10162
  157.3008  130.7349  149.6665 H   0  0  0  0  0  0  0  0  0  0  0  0  # atno 10718 bound_to 10713
  154.1140  135.2837  155.3224 H   0  0  0  0  0  0  0  0  0  0  0  0  # atno 10763 bound_to 10752
  154.6470  135.5382  153.7859 H   0  0  0  0  0  0  0  0  0  0  0  0  # atno 10764 bound_to 10752
  153.0336  135.6500  154.1297 H   0  0  0  0  0  0  0  0  0  0  0  0  # atno 10765 bound_to 10752
  140.8385  133.7944  155.9835 H   0  0  0  0  0  0  0  0  0  0  0  0  # atno 11005 bound_to 11000
  146.1769  139.4944  142.9891 LP  0  0  0  0  0  0  0  0  0  0  0  0  # atno 17320 bound_to 7965
  145.6466  141.0272  143.1783 LP  0  0  0  0  0  0  0  0  0  0  0  0  # atno 17321 bound_to 7965
  140.6268  143.9152  150.6572 LP  0  0  0  0  0  0  0  0  0  0  0  0  # atno 17342 bound_to 10162
  140.2444  143.3640  152.1459 LP  0  0  0  0  0  0  0  0  0  0  0  0  # atno 17343 bound_to 10162
  155.9671  130.4280  150.4771 LP  0  0  0  0  0  0  0  0  0  0  0  0  # atno 17370 bound_to 10713
  157.2752  131.0595  151.2234 LP  0  0  0  0  0  0  0  0  0  0  0  0  # atno 17371 bound_to 10713
  140.8921  134.2482  157.5089 LP  0  0  0  0  0  0  0  0  0  0  0  0  # atno 17394 bound_to 11000
  139.8703  134.9666  156.4569 LP  0  0  0  0  0  0  0  0  0  0  0  0  # atno 17395 bound_to 11000

$$$$
