AV-unprocessed.smi:101|AV-procd|sdf|924|dock3
  -GOLD-   2262017433D 1   1.00000     0.00000
 Structure written by MMmdl.
 44 46  0  0  0  0  0  0  0  0  1 V2000
  144.8626  145.6731  153.2197 C   0  0  0  0  0  0  0  0  0  0  0  0
  145.3715  144.4057  153.8873 C   0  0  0  0  0  0  0  0  0  0  0  0
  146.3105  143.6083  153.3160 C   0  0  0  0  0  0  0  0  0  0  0  0
  146.7982  142.4450  153.9027 N   0  0  0  0  0  0  0  0  0  0  0  0
  147.8303  141.5513  153.2337 C   0  0  1  0  0  0  0  0  0  0  0  0
  149.0362  141.6062  153.9334 O   0  0  0  0  0  0  0  0  0  0  0  0
  149.0998  140.5185  154.8436 C   0  0  2  0  0  0  0  0  0  0  0  0
  150.5479  140.2776  155.2918 C   0  0  0  0  0  0  0  0  0  0  0  0
  151.0272  141.3989  156.0176 O   0  0  0  0  0  0  0  0  0  0  0  0
  151.9409  141.2356  156.9923 C   0  0  0  0  0  0  0  0  0  0  0  0
  152.5478  140.1810  157.1896 O   0  0  0  0  0  0  0  0  0  0  0  0
  152.1408  142.4674  157.8090 C   0  0  0  0  0  0  0  0  0  0  0  0
  152.8410  142.3807  159.0349 C   0  0  0  0  0  0  0  0  0  0  0  0
  153.0440  143.5270  159.8277 C   0  0  0  0  0  0  0  0  0  0  0  0
  152.5503  144.7744  159.4036 C   0  0  0  0  0  0  0  0  0  0  0  0
  151.8531  144.8743  158.1855 C   0  0  0  0  0  0  0  0  0  0  0  0
  151.6480  143.7288  157.3919 C   0  0  0  0  0  0  0  0  0  0  0  0
  148.4399  139.3656  154.0849 C   0  0  1  0  0  0  0  0  0  0  0  0
  147.8410  138.4641  154.9941 O   0  0  0  0  0  0  0  0  0  0  0  0
  147.3791  140.0686  153.2387 C   0  0  2  0  0  0  0  0  0  0  0  0
  147.3584  139.5257  151.9339 O   0  0  0  0  0  0  0  0  0  0  0  0
  146.2578  142.0247  155.1368 C   0  0  0  0  0  0  0  0  0  0  0  0
  146.6004  140.9813  155.6924 O   0  0  0  0  0  0  0  0  0  0  0  0
  145.2992  142.8456  155.7264 N   0  0  0  0  0  0  0  0  0  0  0  0
  144.8097  144.0376  155.1893 C   0  0  0  0  0  0  0  0  0  0  0  0
  143.9654  144.6818  155.8096 O   0  0  0  0  0  0  0  0  0  0  0  0
  144.9217  142.5509  156.6152 H   0  0  0  0  0  0  0  0  0  0  0  0
  145.3468  145.8489  152.2585 H   0  0  0  0  0  0  0  0  0  0  0  0
  145.0539  146.5401  153.8531 H   0  0  0  0  0  0  0  0  0  0  0  0
  143.7883  145.6065  153.0452 H   0  0  0  0  0  0  0  0  0  0  0  0
  146.6803  143.9103  152.3483 H   0  0  0  0  0  0  0  0  0  0  0  0
  147.9675  141.9824  152.2398 H   0  0  0  0  0  0  0  0  0  0  0  0
  148.4961  140.7730  155.7164 H   0  0  0  0  0  0  0  0  0  0  0  0
  150.5999  139.3844  155.9156 H   0  0  0  0  0  0  0  0  0  0  0  0
  151.1822  140.1064  154.4212 H   0  0  0  0  0  0  0  0  0  0  0  0
  153.2302  141.4340  159.3808 H   0  0  0  0  0  0  0  0  0  0  0  0
  153.5794  143.4485  160.7622 H   0  0  0  0  0  0  0  0  0  0  0  0
  152.7065  145.6533  160.0115 H   0  0  0  0  0  0  0  0  0  0  0  0
  151.4741  145.8313  157.8586 H   0  0  0  0  0  0  0  0  0  0  0  0
  151.1085  143.8409  156.4626 H   0  0  0  0  0  0  0  0  0  0  0  0
  149.1618  138.8448  153.4540 H   0  0  0  0  0  0  0  0  0  0  0  0
  148.0180  137.5834  154.7002 H   0  0  0  0  0  0  0  0  0  0  0  0
  146.3895  139.9764  153.6892 H   0  0  0  0  0  0  0  0  0  0  0  0
  148.2476  139.3305  151.6791 H   0  0  0  0  0  0  0  0  0  0  0  0
  1  2  1  0  0  0  0
  1 28  1  0  0  0  0
  1 29  1  0  0  0  0
  1 30  1  0  0  0  0
  2 25  1  0  0  0  0
  2  3  2  0  0  0  0
  3  4  1  0  0  0  0
  3 31  1  0  0  0  0
  4  5  1  0  0  0  0
  4 22  1  0  0  0  0
  5 20  1  0  0  0  0
  5  6  1  0  0  0  0
  5 32  1  0  0  0  0
  6  7  1  0  0  0  0
  7  8  1  0  0  0  0
  7 18  1  0  0  0  0
  7 33  1  0  0  0  0
  8  9  1  0  0  0  0
  8 34  1  0  0  0  0
  8 35  1  0  0  0  0
  9 10  1  0  0  0  0
 10 11  2  0  0  0  0
 10 12  1  0  0  0  0
 12 17  1  0  0  0  0
 12 13  2  0  0  0  0
 13 14  1  0  0  0  0
 13 36  1  0  0  0  0
 14 15  2  0  0  0  0
 14 37  1  0  0  0  0
 15 16  1  0  0  0  0
 15 38  1  0  0  0  0
 16 17  2  0  0  0  0
 16 39  1  0  0  0  0
 17 40  1  0  0  0  0
 18 19  1  0  0  0  0
 18 20  1  0  0  0  0
 18 41  1  0  0  0  0
 19 42  1  0  0  0  0
 20 21  1  0  0  0  0
 20 43  1  0  0  0  0
 21 44  1  0  0  0  0
 22 23  2  0  0  0  0
 22 24  1  0  0  0  0
 24 27  1  0  0  0  0
 24 25  1  0  0  0  0
 25 26  2  0  0  0  0
M  END
> <s_m_source_file>
AV-unprocessed.smi

> <i_m_source_file_index>
101

> <i_lp_mmshare_version>
43012

> <i_f3d_flags>
0

> <s_epik_input>
Tz1jMVtuSF1jKD1PKW4oW2NIXWMxW0NIM10pW0NAQEhdMk9bQ0BIXShbQ0BASF0oW09IXSlbQ0BIXTJbT0hdKVtDSDJdT0MoPU8pYzNbY0hdW2NIXVtjSF1bY0hdW2NIXTM=

> <s_epik_cmdline>
J2VwaWtfcHl0aG9uJywgJy1waCcsICc3LjAnLCAnLXRuJywgJzgnLCAnLW1hJywgJzIwMCcsICctbWV0YWxfYmluZGluZycsICctaW1hZScsICc8aW5maWxlLm1hZT4nLCAnLW9tYWUnLCAnPG91dGZpbGUubWFlPic=

> <r_lp_tautomer_probability>
0.999537

> <r_epik_Ionization_Penalty>
0.00263537

> <r_epik_Ionization_Penalty_Charging>
0.00263428

> <r_epik_Ionization_Penalty_Neutral>
1.09111e-06

> <r_epik_State_Penalty>
0.00183335

> <r_epik_Charging_Adjusted_Penalty>
0.00446763

> <i_epik_Tot_Q>
0

> <i_epik_Tot_abs_Q>
0

> <r_epik_Metal_State_Penalty>
1.00528

> <b_epik_Metal_Only>
0

> <s_epik_Chemistry_Notes>
This compound has an ester and may undergo hydrolysis at high or low pH. This compound contains an acetal/aminal-like group ( X-CH(R)-Y where X, Y are N, S, or O) that may be acid/base labile, releasing an aldehyde.

> <s_lp_Force_Field>
OPLS_2005

> <r_lp_Energy>
29.5421

> <b_lp_Chiralities_Consistent>
1

> <s_lp_Variant>
AV-unprocessed.smi:101-12

> <Gold.Version>
5.8.1

> <Gold.Id.Protein>
6NUR|6NUR_protein|mol2

> <Gold.PLP.Fitness>
54.8160

> <Gold.PLP.PLP>
-52.4337

> <Gold.PLP.part.hbond>
-2.9842

> <Gold.PLP.part.metal>
0.0000

> <Gold.PLP.part.buried>
-8.6060

> <Gold.PLP.part.nonpolar>
-41.1361

> <Gold.PLP.part.repulsive>
0.3040

> <Gold.PLP.ligand.clash>
3.1954

> <Gold.PLP.ligand.torsion>
0.6074

> <Gold.PLP.Chemscore.Hbond>
2.2184

> <Gold.PLP.Chemscore.CHOScore>
0.0000

> <Gold.PLP.Chemscore.Metal>
0.0000

> <Gold.Chemscore.Hbonds>
donor molecule, donor type, donor heavy atom, donor atom, acceptor molecule, acceptor atom, score
      L1  H    21    44       P1  7957  0.85
      P1  H  7997  8008       L1    11  1.00
      P1  H  8011  8017       L1     6  0.23

> <Gold.PLP.Chemscore.Internal.Correction>
0.1372

> <Gold.Rescore>
     Score         DG    S(hbond)    S(metal)    S(lipo)     H(rot)  DE(clash)    DE(int)     intcor
     10.61     -16.94       1.96        0.00     114.59       3.32       0.20       6.12       ----

> <Gold.Chemscore.Fitness>
10.6134

> <Gold.Chemscore.DG>
-16.9369

> <Gold.Chemscore.ZeroCoef>
-5.4800

> <Gold.Chemscore.Hbond>
1.9587

> <Gold.Chemscore.Metal>
0.0000

> <Gold.Chemscore.Lipo>
114.5893

> <Gold.Chemscore.Internal_Hbond>
0.0000

> <Gold.Chemscore.DEClash>
0.2018

> <Gold.Chemscore.DEInternal>
6.1217

> <Gold.Chemscore.Rot>
3.3172

> <Gold.Chemscore.Internal.Correction>
   9.000000E+99

> <Gold.Chemscore.Hbonds>
donor molecule, donor type, donor heavy atom, donor atom, acceptor molecule, acceptor atom, score
      L1  H    21    44       P1  7957  0.80
      P1  H  7997  8008       L1    11  0.89

> <Gold.Chemscore.Hbond.Weighted>
-6.5420

> <Gold.Chemscore.Metal.Weighted>
-0.0000

> <Gold.Chemscore.Lipo.Weighted>
-13.4070

> <Gold.Chemscore.Internal_Hbond.Weighted>
0.0000

> <Gold.Chemscore.DEClash.Weighted>
0.2018

> <Gold.Chemscore.DEInternal.Weighted>
6.1217

> <Gold.Chemscore.Rot.Weighted>
8.4920

> <Gold.Chemscore.Internal.Correction.Weighted>
   9.000000E+99

> <Gold.Protein.RotatedTorsions>
[ 6907 6896 6895 6894 ] final   30.21 input  -60.11 | X-H torsion
[ 7974 7965 7964 7962 ] final  -13.57 input  175.53 | X-H torsion
[ 8008 7997 7996 7995 ] final  -56.27 input   59.86 | X-H torsion
[ 10167 10162 10161 10158 ] final   57.32 input  -65.29 | X-H torsion
[ 10718 10713 10712 10709 ] final -125.55 input   66.30 | X-H torsion
[ 10763 10752 10751 10750 ] final  -33.07 input  -60.55 | X-H torsion
[ 11005 11000 10999 10996 ] final  -75.23 input  -57.11 | X-H torsion

> <Gold.Protein.ActiveResidues>
 VAL166  LYS551  ARG553  GLY616  TRP617  ASP618  TYR619  PRO620  LYS621  CYS622 
 ASP623  PHE694  ASN695  SER759  ASP760  ASP761  ALA762  ILE779  LEU786  VAL792 
 PHE793  MET794  SER795  GLU796  ALA797  LYS798  CYS799  TRP800  GLU811  SER814 

> <Gold.Protein.RotatedAtoms>
  152.0427  134.9701  160.0573 H   0  0  0  0  0  0  0  0  0  0  0  0  # atno 6907 bound_to 6896
  152.1133  133.4308  159.4649 H   0  0  0  0  0  0  0  0  0  0  0  0  # atno 6908 bound_to 6896
  150.6844  134.2541  159.4566 H   0  0  0  0  0  0  0  0  0  0  0  0  # atno 6909 bound_to 6896
  146.2109  140.3222  142.8391 H   0  0  0  0  0  0  0  0  0  0  0  0  # atno 7974 bound_to 7965
  154.4224  140.1133  156.5610 H   0  0  0  0  0  0  0  0  0  0  0  0  # atno 8008 bound_to 7997
  155.6311  140.3495  155.4664 H   0  0  0  0  0  0  0  0  0  0  0  0  # atno 8009 bound_to 7997
  155.9947  140.1186  157.0595 H   0  0  0  0  0  0  0  0  0  0  0  0  # atno 8010 bound_to 7997
  140.1993  144.4005  150.6536 H   0  0  0  0  0  0  0  0  0  0  0  0  # atno 10167 bound_to 10162
  156.1686  130.6652  151.0149 H   0  0  0  0  0  0  0  0  0  0  0  0  # atno 10718 bound_to 10713
  153.8242  135.6872  153.4823 H   0  0  0  0  0  0  0  0  0  0  0  0  # atno 10763 bound_to 10752
  153.1551  135.4602  154.9690 H   0  0  0  0  0  0  0  0  0  0  0  0  # atno 10764 bound_to 10752
  154.7915  135.3303  154.7711 H   0  0  0  0  0  0  0  0  0  0  0  0  # atno 10765 bound_to 10752
  141.1643  133.6939  156.7485 H   0  0  0  0  0  0  0  0  0  0  0  0  # atno 11005 bound_to 11000
  144.8912  140.7525  143.5926 LP  0  0  0  0  0  0  0  0  0  0  0  0  # atno 17320 bound_to 7965
  145.3145  139.1808  143.4621 LP  0  0  0  0  0  0  0  0  0  0  0  0  # atno 17321 bound_to 7965
  140.6402  143.2202  151.6307 LP  0  0  0  0  0  0  0  0  0  0  0  0  # atno 17342 bound_to 10162
  139.5224  144.3164  152.0948 LP  0  0  0  0  0  0  0  0  0  0  0  0  # atno 17343 bound_to 10162
  157.6786  131.0844  150.7429 LP  0  0  0  0  0  0  0  0  0  0  0  0  # atno 17370 bound_to 10713
  156.7489  130.4762  149.5461 LP  0  0  0  0  0  0  0  0  0  0  0  0  # atno 17371 bound_to 10713
  140.2621  134.8458  157.3768 LP  0  0  0  0  0  0  0  0  0  0  0  0  # atno 17394 bound_to 11000
  140.1601  134.4740  155.7901 LP  0  0  0  0  0  0  0  0  0  0  0  0  # atno 17395 bound_to 11000

$$$$
