AV-unprocessed.smi:67|AV-procd|sdf|636|dock10
  -GOLD-   2262016533D 1   1.00000     0.00000
 Structure written by MMmdl.
 48 50  0  0  0  0  0  0  0  0  2 V2000
  147.7377  136.9184  154.3659 O   0  0  0  0  0  0  0  0  0  0  0  0
  147.7432  135.8921  155.3391 C   0  0  2  0  0  0  0  0  0  0  0  0
  149.2028  135.6617  155.8014 C   0  0  0  0  0  0  0  0  0  0  0  0
  149.9381  136.9395  155.9961 N   0  3  2  0  0  0  0  0  0  0  0  0
  151.3482  136.8781  155.5310 C   0  0  0  0  0  0  0  0  0  0  0  0
  152.0002  138.2707  155.5507 C   0  0  0  0  0  0  0  0  0  0  0  0
  151.8658  138.9164  156.9453 C   0  0  1  0  0  0  0  0  0  0  0  0
  152.5363  140.1705  157.0932 O   0  0  0  0  0  0  0  0  0  0  0  0
  152.6902  140.8147  158.3062 C   0  0  0  0  0  0  0  0  0  0  0  0
  153.2904  140.2702  159.4692 C   0  0  0  0  0  0  0  0  0  0  0  0
  153.3898  141.0342  160.6473 C   0  0  0  0  0  0  0  0  0  0  0  0
  152.8910  142.3483  160.6854 C   0  0  0  0  0  0  0  0  0  0  0  0
  152.2840  142.9063  159.5417 C   0  0  0  0  0  0  0  0  0  0  0  0
  151.7480  144.3302  159.5694 C   0  0  0  0  0  0  0  0  0  0  0  0
  152.3456  145.0418  158.6146 F   0  0  0  0  0  0  0  0  0  0  0  0
  150.4318  144.3448  159.3563 F   0  0  0  0  0  0  0  0  0  0  0  0
  151.9850  144.9084  160.7475 F   0  0  0  0  0  0  0  0  0  0  0  0
  152.1960  142.1351  158.3627 C   0  0  0  0  0  0  0  0  0  0  0  0
  150.4192  138.8865  157.4808 C   0  0  0  0  0  0  0  0  0  0  0  0
  149.8354  137.4675  157.3819 C   0  0  0  0  0  0  0  0  0  0  0  0
  147.0502  134.6251  154.8255 C   0  0  0  0  0  0  0  0  0  0  0  0
  146.5248  133.9844  156.1068 C   0  0  0  0  0  0  0  0  0  0  0  0
  146.1516  135.0963  156.9737 N   0  0  0  0  0  0  0  0  0  0  0  0
  146.8454  136.3021  156.5203 C   0  0  0  0  0  0  0  0  0  0  0  0
  148.1471  136.5925  153.5786 H   0  0  0  0  0  0  0  0  0  0  0  0
  149.2218  135.0702  156.7184 H   0  0  0  0  0  0  0  0  0  0  0  0
  149.7161  135.0479  155.0593 H   0  0  0  0  0  0  0  0  0  0  0  0
  151.9099  136.1863  156.1608 H   0  0  0  0  0  0  0  0  0  0  0  0
  151.3845  136.4835  154.5145 H   0  0  0  0  0  0  0  0  0  0  0  0
  153.0545  138.1840  155.2866 H   0  0  0  0  0  0  0  0  0  0  0  0
  151.5468  138.8765  154.7706 H   0  0  0  0  0  0  0  0  0  0  0  0
  152.4303  138.2668  157.6159 H   0  0  0  0  0  0  0  0  0  0  0  0
  153.6894  139.2718  159.5005 H   0  0  0  0  0  0  0  0  0  0  0  0
  153.8524  140.6099  161.5263 H   0  0  0  0  0  0  0  0  0  0  0  0
  152.9782  142.9244  161.5947 H   0  0  0  0  0  0  0  0  0  0  0  0
  151.7413  142.5620  157.4807 H   0  0  0  0  0  0  0  0  0  0  0  0
  150.4069  139.2140  158.5208 H   0  0  0  0  0  0  0  0  0  0  0  0
  149.7647  139.5699  156.9463 H   0  0  0  0  0  0  0  0  0  0  0  0
  148.7916  137.4865  157.6965 H   0  0  0  0  0  0  0  0  0  0  0  0
  150.3585  136.7975  158.0660 H   0  0  0  0  0  0  0  0  0  0  0  0
  146.2051  134.8896  154.1874 H   0  0  0  0  0  0  0  0  0  0  0  0
  147.6969  133.9604  154.2524 H   0  0  0  0  0  0  0  0  0  0  0  0
  145.6852  133.3133  155.9242 H   0  0  0  0  0  0  0  0  0  0  0  0
  147.3171  133.4016  156.5775 H   0  0  0  0  0  0  0  0  0  0  0  0
  146.3795  134.8865  157.9405 H   0  0  0  0  0  0  0  0  0  0  0  0
  147.4125  136.7639  157.3288 H   0  0  0  0  0  0  0  0  0  0  0  0
  146.1019  137.0319  156.1973 H   0  0  0  0  0  0  0  0  0  0  0  0
  149.4753  137.6104  155.3990 H   0  0  0  0  0  0  0  0  0  0  0  0
  1  2  1  0  0  0  0
  1 25  1  0  0  0  0
  2 24  1  0  0  0  0
  2  3  1  0  0  0  0
  2 21  1  0  0  0  0
  3  4  1  0  0  0  0
  3 26  1  0  0  0  0
  3 27  1  0  0  0  0
  4 20  1  0  0  0  0
  4  5  1  0  0  0  0
  4 48  1  0  0  0  0
  5  6  1  0  0  0  0
  5 28  1  0  0  0  0
  5 29  1  0  0  0  0
  6  7  1  0  0  0  0
  6 30  1  0  0  0  0
  6 31  1  0  0  0  0
  7  8  1  0  0  0  0
  7 19  1  0  0  0  0
  7 32  1  0  0  0  0
  8  9  1  0  0  0  0
  9 18  1  0  0  0  0
  9 10  2  0  0  0  0
 10 11  1  0  0  0  0
 10 33  1  0  0  0  0
 11 12  2  0  0  0  0
 11 34  1  0  0  0  0
 12 13  1  0  0  0  0
 12 35  1  0  0  0  0
 13 14  1  0  0  0  0
 13 18  2  0  0  0  0
 14 15  1  0  0  0  0
 14 16  1  0  0  0  0
 14 17  1  0  0  0  0
 18 36  1  0  0  0  0
 19 20  1  0  0  0  0
 19 37  1  0  0  0  0
 19 38  1  0  0  0  0
 20 39  1  0  0  0  0
 20 40  1  0  0  0  0
 21 22  1  0  0  0  0
 21 41  1  0  0  0  0
 21 42  1  0  0  0  0
 22 23  1  0  0  0  0
 22 43  1  0  0  0  0
 22 44  1  0  0  0  0
 23 24  1  0  0  0  0
 23 45  1  0  0  0  0
 24 46  1  0  0  0  0
 24 47  1  0  0  0  0
M  CHG  1   4   1
M  END
> <s_m_source_file>
AV-unprocessed.smi

> <i_m_source_file_index>
67

> <i_lp_mmshare_version>
43012

> <i_f3d_flags>
0

> <s_epik_input>
W0NIMl0xW05IXVtDSDJdW0NIMl1bQ0BAXTEoW09IXSlbQ0gyXU4yW0NIMl1bQ0gyXVtDSF0oW0NIMl1bQ0gyXTIpT2MzW2NIXVtjSF1bY0hdYyhDKEYpKEYpRilbY0hdMw==

> <s_epik_cmdline>
J2VwaWtfcHl0aG9uJywgJy1waCcsICc3LjAnLCAnLXRuJywgJzgnLCAnLW1hJywgJzIwMCcsICctbWV0YWxfYmluZGluZycsICctaW1hZScsICc8aW5maWxlLm1hZT4nLCAnLW9tYWUnLCAnPG91dGZpbGUubWFlPic=

> <r_epik_Ionization_Penalty>
2.37709

> <r_epik_Ionization_Penalty_Charging>
0.0305656

> <r_epik_Ionization_Penalty_Neutral>
2.34653

> <r_epik_State_Penalty>
2.56959

> <r_epik_Charging_Adjusted_Penalty>
2.60016

> <i_epik_Tot_Q>
1

> <i_epik_Tot_abs_Q>
1

> <r_epik_Metal_State_Penalty>
2.56925

> <b_epik_Metal_Only>
0

> <s_lp_Force_Field>
OPLS_2005

> <r_lp_Energy>
55.6007

> <b_lp_Chiralities_Consistent>
1

> <s_lp_Variant>
AV-unprocessed.smi:67-8

> <Gold.Version>
5.8.1

> <Gold.Id.Protein>
6NUR|6NUR_protein|mol2

> <Gold.PLP.Fitness>
43.8665

> <Gold.PLP.PLP>
-38.8733

> <Gold.PLP.part.hbond>
-2.0000

> <Gold.PLP.part.metal>
0.0000

> <Gold.PLP.part.buried>
-3.9131

> <Gold.PLP.part.nonpolar>
-31.9702

> <Gold.PLP.part.repulsive>
0.0166

> <Gold.PLP.ligand.clash>
1.2184

> <Gold.PLP.ligand.torsion>
0.7293

> <Gold.PLP.Chemscore.Hbond>
2.0000

> <Gold.PLP.Chemscore.CHOScore>
0.0000

> <Gold.PLP.Chemscore.Metal>
0.0000

> <Gold.Chemscore.Hbonds>
donor molecule, donor type, donor heavy atom, donor atom, acceptor molecule, acceptor atom, score
      L1  H     1    25       P1  7948  1.00
      P1  H  7997  8010       L1     8  1.00

> <Gold.PLP.Chemscore.Internal.Correction>
1.6702

> <Gold.Rescore>
     Score         DG    S(hbond)    S(metal)    S(lipo)     H(rot)  DE(clash)    DE(int)     intcor
     15.44     -16.11       1.52        0.00      95.16       2.17       0.02       0.65       ----

> <Gold.Chemscore.Fitness>
15.4415

> <Gold.Chemscore.DG>
-16.1103

> <Gold.Chemscore.ZeroCoef>
-5.4800

> <Gold.Chemscore.Hbond>
1.5152

> <Gold.Chemscore.Metal>
0.0000

> <Gold.Chemscore.Lipo>
95.1594

> <Gold.Chemscore.Internal_Hbond>
0.0000

> <Gold.Chemscore.DEClash>
0.0183

> <Gold.Chemscore.DEInternal>
0.6504

> <Gold.Chemscore.Rot>
2.1734

> <Gold.Chemscore.Internal.Correction>
   9.000000E+99

> <Gold.Chemscore.Hbonds>
donor molecule, donor type, donor heavy atom, donor atom, acceptor molecule, acceptor atom, score
      L1  H     1    25       P1  7948  1.00
      P1  H  7997  8010       L1     8  0.21

> <Gold.Chemscore.Hbond.Weighted>
-5.0606

> <Gold.Chemscore.Metal.Weighted>
-0.0000

> <Gold.Chemscore.Lipo.Weighted>
-11.1336

> <Gold.Chemscore.Internal_Hbond.Weighted>
0.0000

> <Gold.Chemscore.DEClash.Weighted>
0.0183

> <Gold.Chemscore.DEInternal.Weighted>
0.6504

> <Gold.Chemscore.Rot.Weighted>
5.5640

> <Gold.Chemscore.Internal.Correction.Weighted>
   9.000000E+99

> <Gold.Protein.RotatedTorsions>
[ 6907 6896 6895 6894 ] final   52.49 input  -60.11 | X-H torsion
[ 7974 7965 7964 7962 ] final  -47.61 input  175.53 | X-H torsion
[ 8008 7997 7996 7995 ] final   67.21 input   59.86 | X-H torsion
[ 10167 10162 10161 10158 ] final -130.06 input  -65.29 | X-H torsion
[ 10718 10713 10712 10709 ] final   14.06 input   66.30 | X-H torsion
[ 10763 10752 10751 10750 ] final  -71.41 input  -60.55 | X-H torsion
[ 11005 11000 10999 10996 ] final -119.84 input  -57.11 | X-H torsion

> <Gold.Protein.ActiveResidues>
 VAL166  LYS551  ARG553  GLY616  TRP617  ASP618  TYR619  PRO620  LYS621  CYS622 
 ASP623  PHE694  ASN695  SER759  ASP760  ASP761  ALA762  ILE779  LEU786  VAL792 
 PHE793  MET794  SER795  GLU796  ALA797  LYS798  CYS799  TRP800  GLU811  SER814 

> <Gold.Protein.RotatedAtoms>
  152.3238  134.7347  160.0306 H   0  0  0  0  0  0  0  0  0  0  0  0  # atno 6907 bound_to 6896
  151.7786  133.3342  159.3473 H   0  0  0  0  0  0  0  0  0  0  0  0  # atno 6908 bound_to 6896
  150.7384  134.5883  159.6019 H   0  0  0  0  0  0  0  0  0  0  0  0  # atno 6909 bound_to 6896
  145.9598  140.7490  142.9463 H   0  0  0  0  0  0  0  0  0  0  0  0  # atno 7974 bound_to 7965
  155.6893  140.3496  155.4887 H   0  0  0  0  0  0  0  0  0  0  0  0  # atno 8008 bound_to 7997
  155.9538  140.1124  157.0976 H   0  0  0  0  0  0  0  0  0  0  0  0  # atno 8009 bound_to 7997
  154.4128  140.1189  156.5074 H   0  0  0  0  0  0  0  0  0  0  0  0  # atno 8010 bound_to 7997
  139.9332  143.6247  152.2524 H   0  0  0  0  0  0  0  0  0  0  0  0  # atno 10167 bound_to 10162
  157.0337  130.6203  149.5739 H   0  0  0  0  0  0  0  0  0  0  0  0  # atno 10718 bound_to 10713
  154.4314  135.5963  153.6071 H   0  0  0  0  0  0  0  0  0  0  0  0  # atno 10763 bound_to 10752
  152.9799  135.5976  154.3835 H   0  0  0  0  0  0  0  0  0  0  0  0  # atno 10764 bound_to 10752
  154.3673  135.2841  155.2265 H   0  0  0  0  0  0  0  0  0  0  0  0  # atno 10765 bound_to 10752
  141.0187  134.0157  157.3313 H   0  0  0  0  0  0  0  0  0  0  0  0  # atno 11005 bound_to 11000
  144.6812  140.2572  143.7324 LP  0  0  0  0  0  0  0  0  0  0  0  0  # atno 17320 bound_to 7965
  145.8056  139.1982  143.2023 LP  0  0  0  0  0  0  0  0  0  0  0  0  # atno 17321 bound_to 7965
  139.6765  144.7658  151.1687 LP  0  0  0  0  0  0  0  0  0  0  0  0  # atno 17342 bound_to 10162
  140.7631  143.5788  150.8917 LP  0  0  0  0  0  0  0  0  0  0  0  0  # atno 17343 bound_to 10162
  156.0061  130.5148  150.7834 LP  0  0  0  0  0  0  0  0  0  0  0  0  # atno 17370 bound_to 10713
  157.5158  131.0928  151.0141 LP  0  0  0  0  0  0  0  0  0  0  0  0  # atno 17371 bound_to 10713
  139.9132  135.0193  156.7778 LP  0  0  0  0  0  0  0  0  0  0  0  0  # atno 17394 bound_to 11000
  140.6611  133.9645  155.7805 LP  0  0  0  0  0  0  0  0  0  0  0  0  # atno 17395 bound_to 11000

$$$$
