AV-unprocessed.smi:246|AV-procd|sdf|1882|dock8
  -GOLD-   2262020533D 1   1.00000     0.00000
 Structure written by MMmdl.
 57 60  0  0  0  0  0  0  0  0  1 V2000
  152.5088  144.9643  158.1347 C   0  0  0  0  0  0  0  0  0  0  0  0
  152.5561  144.0825  159.3901 C   0  0  0  0  0  0  0  0  0  0  0  0
  153.3192  142.9044  159.1733 O   0  0  0  0  0  0  0  0  0  0  0  0
  152.7020  141.7130  159.6386 C   0  0  0  0  0  0  0  0  0  0  0  0
  151.9001  141.0953  158.4896 C   0  0  0  0  0  0  0  0  0  0  0  0
  150.9344  140.2101  159.0372 O   0  0  0  0  0  0  0  0  0  0  0  0
  150.1264  139.5544  158.0684 C   0  0  1  0  0  0  0  0  0  0  0  0
  150.9647  138.4610  157.4027 C   0  0  0  0  0  0  0  0  0  0  0  0
  150.8135  137.2492  158.3250 C   0  0  0  0  0  0  0  0  0  0  0  0
  149.5531  137.4512  159.0218 N   0  0  0  0  0  0  0  0  0  0  0  0
  148.8082  136.4253  159.5070 C   0  0  0  0  0  0  0  0  0  0  0  0
  148.7541  135.2688  158.7942 N   0  0  0  0  0  0  0  0  0  0  0  0
  148.0356  134.2324  159.2348 C   0  0  0  0  0  0  0  0  0  0  0  0
  147.2987  134.1395  160.3423 N   0  0  0  0  0  0  0  0  0  0  0  0
  147.3349  135.2997  161.0571 C   0  0  0  0  0  0  0  0  0  0  0  0
  148.0571  136.4803  160.7182 C   0  0  0  0  0  0  0  0  0  0  0  0
  147.8376  137.4538  161.6875 N   0  0  0  0  0  0  0  0  0  0  0  0
  147.0378  136.8833  162.5456 C   0  0  0  0  0  0  0  0  0  0  0  0
  146.6782  135.5916  162.2392 N   0  0  0  0  0  0  0  0  0  0  0  0
  145.7950  134.7310  163.0054 C   0  0  0  0  0  0  0  0  0  0  0  0
  144.4975  134.3596  162.2544 C   0  0  1  0  0  0  0  0  0  0  0  0
  144.1356  133.0590  162.6740 O   0  0  0  0  0  0  0  0  0  0  0  0
  143.3103  135.3197  162.4990 C   0  0  2  0  0  0  0  0  0  0  0  0
  142.6528  135.1684  163.8740 C   0  0  0  0  0  0  0  0  0  0  0  0
  141.2643  135.7069  163.6194 C   0  0  0  0  0  0  0  0  0  0  0  0
  140.9795  135.1661  162.2237 C   0  0  0  0  0  0  0  0  0  0  0  0
  142.2462  135.0708  161.5798 O   0  0  0  0  0  0  0  0  0  0  0  0
  148.9908  138.7630  158.7328 C   0  0  0  0  0  0  0  0  0  0  0  0
  149.7591  140.2686  157.3297 H   0  0  0  0  0  0  0  0  0  0  0  0
  151.8387  145.8110  158.2841 H   0  0  0  0  0  0  0  0  0  0  0  0
  152.1451  144.4001  157.2754 H   0  0  0  0  0  0  0  0  0  0  0  0
  153.4897  145.3657  157.8820 H   0  0  0  0  0  0  0  0  0  0  0  0
  152.9295  144.6399  160.2506 H   0  0  0  0  0  0  0  0  0  0  0  0
  151.5407  143.7728  159.6387 H   0  0  0  0  0  0  0  0  0  0  0  0
  153.4322  140.9961  160.0142 H   0  0  0  0  0  0  0  0  0  0  0  0
  152.0296  141.9580  160.4620 H   0  0  0  0  0  0  0  0  0  0  0  0
  151.4015  141.8855  157.9283 H   0  0  0  0  0  0  0  0  0  0  0  0
  152.5674  140.5750  157.8007 H   0  0  0  0  0  0  0  0  0  0  0  0
  150.5359  138.2240  156.4283 H   0  0  0  0  0  0  0  0  0  0  0  0
  152.0042  138.7503  157.2453 H   0  0  0  0  0  0  0  0  0  0  0  0
  150.8274  136.3207  157.7534 H   0  0  0  0  0  0  0  0  0  0  0  0
  151.6201  137.2178  159.0580 H   0  0  0  0  0  0  0  0  0  0  0  0
  148.0522  133.3521  158.6093 H   0  0  0  0  0  0  0  0  0  0  0  0
  146.6773  137.3972  163.4248 H   0  0  0  0  0  0  0  0  0  0  0  0
  146.3490  133.8292  163.2696 H   0  0  0  0  0  0  0  0  0  0  0  0
  145.5546  135.2342  163.9430 H   0  0  0  0  0  0  0  0  0  0  0  0
  144.6995  134.3106  161.1840 H   0  0  0  0  0  0  0  0  0  0  0  0
  143.4105  133.1301  163.2759 H   0  0  0  0  0  0  0  0  0  0  0  0
  143.6293  136.3553  162.3688 H   0  0  0  0  0  0  0  0  0  0  0  0
  142.5958  134.1170  164.1610 H   0  0  0  0  0  0  0  0  0  0  0  0
  143.1804  135.7095  164.6601 H   0  0  0  0  0  0  0  0  0  0  0  0
  140.5331  135.3835  164.3606 H   0  0  0  0  0  0  0  0  0  0  0  0
  141.2817  136.7976  163.6059 H   0  0  0  0  0  0  0  0  0  0  0  0
  140.5464  134.1668  162.2816 H   0  0  0  0  0  0  0  0  0  0  0  0
  140.2938  135.8012  161.6628 H   0  0  0  0  0  0  0  0  0  0  0  0
  148.6092  139.2421  159.6341 H   0  0  0  0  0  0  0  0  0  0  0  0
  148.1612  138.6466  158.0342 H   0  0  0  0  0  0  0  0  0  0  0  0
  1  2  1  0  0  0  0
  1 30  1  0  0  0  0
  1 31  1  0  0  0  0
  1 32  1  0  0  0  0
  2  3  1  0  0  0  0
  2 33  1  0  0  0  0
  2 34  1  0  0  0  0
  3  4  1  0  0  0  0
  4  5  1  0  0  0  0
  4 35  1  0  0  0  0
  4 36  1  0  0  0  0
  5  6  1  0  0  0  0
  5 37  1  0  0  0  0
  5 38  1  0  0  0  0
  6  7  1  0  0  0  0
  7 29  1  0  0  0  0
  7 28  1  0  0  0  0
  7  8  1  0  0  0  0
  8  9  1  0  0  0  0
  8 39  1  0  0  0  0
  8 40  1  0  0  0  0
  9 10  1  0  0  0  0
  9 41  1  0  0  0  0
  9 42  1  0  0  0  0
 10 11  1  0  0  0  0
 10 28  1  0  0  0  0
 11 16  1  0  0  0  0
 11 12  2  0  0  0  0
 12 13  1  0  0  0  0
 13 14  2  0  0  0  0
 13 43  1  0  0  0  0
 14 15  1  0  0  0  0
 15 19  1  0  0  0  0
 15 16  2  0  0  0  0
 16 17  1  0  0  0  0
 17 18  2  0  0  0  0
 18 19  1  0  0  0  0
 18 44  1  0  0  0  0
 19 20  1  0  0  0  0
 20 21  1  0  0  0  0
 20 45  1  0  0  0  0
 20 46  1  0  0  0  0
 21 22  1  0  0  0  0
 21 23  1  0  0  0  0
 21 47  1  0  0  0  0
 22 48  1  0  0  0  0
 23 27  1  0  0  0  0
 23 24  1  0  0  0  0
 23 49  1  0  0  0  0
 24 25  1  0  0  0  0
 24 50  1  0  0  0  0
 24 51  1  0  0  0  0
 25 26  1  0  0  0  0
 25 52  1  0  0  0  0
 25 53  1  0  0  0  0
 26 27  1  0  0  0  0
 26 54  1  0  0  0  0
 26 55  1  0  0  0  0
 28 56  1  0  0  0  0
 28 57  1  0  0  0  0
M  END
> <s_m_source_file>
AV-unprocessed.smi

> <i_m_source_file_index>
246

> <i_lp_mmshare_version>
43012

> <i_f3d_flags>
0

> <s_epik_input>
W0NIM11bQ0gyXU9bQ0gyXVtDSDJdT1tDQEhdMVtDSDJdW0NIMl1OKFtDSDJdMSljKG5bY0hdbjIpYyhjMjMpbltjSF1uM1tDSDJdW0NASF0oW09IXSlbQ0BASF00W0NIMl1bQ0gyXVtDSDJdTzQ=

> <s_epik_cmdline>
J2VwaWtfcHl0aG9uJywgJy1waCcsICc3LjAnLCAnLXRuJywgJzgnLCAnLW1hJywgJzIwMCcsICctbWV0YWxfYmluZGluZycsICctaW1hZScsICc8aW5maWxlLm1hZT4nLCAnLW9tYWUnLCAnPG91dGZpbGUubWFlPic=

> <r_lp_tautomer_probability>
1

> <r_epik_Ionization_Penalty>
0.0024631

> <r_epik_Ionization_Penalty_Charging>
0

> <r_epik_Ionization_Penalty_Neutral>
0.0024631

> <r_epik_State_Penalty>
0.00162428

> <r_epik_Charging_Adjusted_Penalty>
0.00162428

> <i_epik_Tot_Q>
0

> <i_epik_Tot_abs_Q>
0

> <r_epik_Metal_State_Penalty>
-0

> <b_epik_Metal_Only>
0

> <s_lp_Force_Field>
OPLS_2005

> <r_lp_Energy>
52.0053

> <b_lp_Chiralities_Consistent>
1

> <s_lp_Variant>
AV-unprocessed.smi:246-3

> <Gold.Version>
5.8.1

> <Gold.Id.Protein>
6NUR|6NUR_protein|mol2

> <Gold.PLP.Fitness>
52.0810

> <Gold.PLP.PLP>
-49.1469

> <Gold.PLP.part.hbond>
-4.0000

> <Gold.PLP.part.metal>
0.0000

> <Gold.PLP.part.buried>
-5.8399

> <Gold.PLP.part.nonpolar>
-39.8792

> <Gold.PLP.part.repulsive>
0.0025

> <Gold.PLP.ligand.clash>
0.0000

> <Gold.PLP.ligand.torsion>
2.1017

> <Gold.PLP.Chemscore.Hbond>
2.2440

> <Gold.PLP.Chemscore.CHOScore>
0.0000

> <Gold.PLP.Chemscore.Metal>
0.0000

> <Gold.Chemscore.Hbonds>
donor molecule, donor type, donor heavy atom, donor atom, acceptor molecule, acceptor atom, score
      P1  H  6896  6909       L1    12  0.30
      P1  H  6931  6943       L1    17  0.74
      P1  H  6934  6947       L1    17  0.59

> <Gold.PLP.Chemscore.Internal.Correction>
0.4054

> <Gold.Rescore>
     Score         DG    S(hbond)    S(metal)    S(lipo)     H(rot)  DE(clash)    DE(int)     intcor
     11.75     -14.03       1.25        0.00     105.13       3.10       0.18       2.10       ----

> <Gold.Chemscore.Fitness>
11.7504

> <Gold.Chemscore.DG>
-14.0283

> <Gold.Chemscore.ZeroCoef>
-5.4800

> <Gold.Chemscore.Hbond>
1.2548

> <Gold.Chemscore.Metal>
0.0000

> <Gold.Chemscore.Lipo>
105.1280

> <Gold.Chemscore.Internal_Hbond>
0.0000

> <Gold.Chemscore.DEClash>
0.1763

> <Gold.Chemscore.DEInternal>
2.1016

> <Gold.Chemscore.Rot>
3.1026

> <Gold.Chemscore.Internal.Correction>
   9.000000E+99

> <Gold.Chemscore.Hbonds>
donor molecule, donor type, donor heavy atom, donor atom, acceptor molecule, acceptor atom, score
      P1  H  6896  6909       L1    12  0.01
      P1  H  6931  6943       L1    17  0.59
      P1  H  6934  6947       L1    17  0.43

> <Gold.Chemscore.Hbond.Weighted>
-4.1910

> <Gold.Chemscore.Metal.Weighted>
-0.0000

> <Gold.Chemscore.Lipo.Weighted>
-12.3000

> <Gold.Chemscore.Internal_Hbond.Weighted>
0.0000

> <Gold.Chemscore.DEClash.Weighted>
0.1763

> <Gold.Chemscore.DEInternal.Weighted>
2.1016

> <Gold.Chemscore.Rot.Weighted>
7.9426

> <Gold.Chemscore.Internal.Correction.Weighted>
   9.000000E+99

> <Gold.Protein.RotatedTorsions>
[ 6907 6896 6895 6894 ] final   29.81 input  -60.11 | X-H torsion
[ 7974 7965 7964 7962 ] final   92.60 input  175.53 | X-H torsion
[ 8008 7997 7996 7995 ] final   87.19 input   59.86 | X-H torsion
[ 10167 10162 10161 10158 ] final   19.25 input  -65.29 | X-H torsion
[ 10718 10713 10712 10709 ] final  117.73 input   66.30 | X-H torsion
[ 10763 10752 10751 10750 ] final -129.42 input  -60.55 | X-H torsion
[ 11005 11000 10999 10996 ] final  -48.72 input  -57.11 | X-H torsion

> <Gold.Protein.ActiveResidues>
 VAL166  LYS551  ARG553  GLY616  TRP617  ASP618  TYR619  PRO620  LYS621  CYS622 
 ASP623  PHE694  ASN695  SER759  ASP760  ASP761  ALA762  ILE779  LEU786  VAL792 
 PHE793  MET794  SER795  GLU796  ALA797  LYS798  CYS799  TRP800  GLU811  SER814 

> <Gold.Protein.RotatedAtoms>
  152.0370  134.9734  160.0573 H   0  0  0  0  0  0  0  0  0  0  0  0  # atno 6907 bound_to 6896
  152.1188  133.4337  159.4674 H   0  0  0  0  0  0  0  0  0  0  0  0  # atno 6908 bound_to 6896
  150.6848  134.2478  159.4542 H   0  0  0  0  0  0  0  0  0  0  0  0  # atno 6909 bound_to 6896
  145.4902  139.2276  143.2834 H   0  0  0  0  0  0  0  0  0  0  0  0  # atno 7974 bound_to 7965
  155.9723  140.3384  155.6587 H   0  0  0  0  0  0  0  0  0  0  0  0  # atno 8008 bound_to 7997
  155.6658  140.0721  157.2556 H   0  0  0  0  0  0  0  0  0  0  0  0  # atno 8009 bound_to 7997
  154.4169  140.1700  156.1813 H   0  0  0  0  0  0  0  0  0  0  0  0  # atno 8010 bound_to 7997
  140.5593  143.9367  150.6631 H   0  0  0  0  0  0  0  0  0  0  0  0  # atno 10167 bound_to 10162
  157.6077  131.1040  150.7656 H   0  0  0  0  0  0  0  0  0  0  0  0  # atno 10718 bound_to 10713
  154.8757  135.3896  154.3918 H   0  0  0  0  0  0  0  0  0  0  0  0  # atno 10763 bound_to 10752
  153.4653  135.7029  153.6031 H   0  0  0  0  0  0  0  0  0  0  0  0  # atno 10764 bound_to 10752
  153.4512  135.3833  155.2253 H   0  0  0  0  0  0  0  0  0  0  0  0  # atno 10765 bound_to 10752
  141.0717  133.6677  156.3482 H   0  0  0  0  0  0  0  0  0  0  0  0  # atno 11005 bound_to 11000
  146.2289  140.5695  142.8984 LP  0  0  0  0  0  0  0  0  0  0  0  0  # atno 17320 bound_to 7965
  144.7838  140.5895  143.6587 LP  0  0  0  0  0  0  0  0  0  0  0  0  # atno 17321 bound_to 7965
  140.2814  143.3387  152.1148 LP  0  0  0  0  0  0  0  0  0  0  0  0  # atno 17342 bound_to 10162
  139.5062  144.6810  151.6009 LP  0  0  0  0  0  0  0  0  0  0  0  0  # atno 17343 bound_to 10162
  156.8041  130.4930  149.5365 LP  0  0  0  0  0  0  0  0  0  0  0  0  # atno 17370 bound_to 10713
  156.1169  130.6081  151.0134 LP  0  0  0  0  0  0  0  0  0  0  0  0  # atno 17371 bound_to 10713
  140.5659  134.5889  157.5445 LP  0  0  0  0  0  0  0  0  0  0  0  0  # atno 17394 bound_to 11000
  139.9530  134.7583  156.0404 LP  0  0  0  0  0  0  0  0  0  0  0  0  # atno 17395 bound_to 11000

$$$$
