AV-unprocessed.smi:1571|AV-procd|sdf|6326|dock9
  -GOLD-   22720 6533D 1   1.00000     0.00000
 Structure written by MMmdl.
 37 38  0  0  0  0  0  0  0  0  1 V2000
  147.8492  132.5117  159.3732 C   0  0  0  0  0  0  0  0  0  0  0  0
  147.6124  133.4537  160.5187 C   0  0  0  0  0  0  0  0  0  0  0  0
  147.6067  132.9771  161.7519 N   0  0  0  0  0  0  0  0  0  0  0  0
  147.3592  134.0719  162.5850 O   0  0  0  0  0  0  0  0  0  0  0  0
  147.2249  135.1787  161.8119 C   0  0  0  0  0  0  0  0  0  0  0  0
  146.9475  136.4572  162.5279 C   0  0  0  0  0  0  0  0  0  0  0  0
  147.3768  134.8593  160.4900 C   0  0  0  0  0  0  0  0  0  0  0  0
  147.3071  135.7698  159.2874 C   0  0  0  0  0  0  0  0  0  0  0  0
  148.6586  135.8755  158.5695 C   0  0  0  0  0  0  0  0  0  0  0  0
  149.3334  134.8738  158.3264 O   0  0  0  0  0  0  0  0  0  0  0  0
  149.0357  137.1186  158.2323 N   0  0  0  0  0  0  0  0  0  0  0  0
  150.2643  137.4886  157.5338 C   0  0  0  0  0  0  0  0  0  0  0  0
  150.4689  139.0125  157.6351 C   0  0  0  0  0  0  0  0  0  0  0  0
  151.7905  139.4809  157.0096 C   0  0  0  0  0  0  0  0  0  0  0  0
  151.8567  139.0425  155.2237 S   0  0  0  0  0  0  0  0  0  0  0  0
  150.7320  139.7111  154.5513 O   0  0  0  0  0  0  0  0  0  0  0  0
  153.2304  139.2311  154.7340 O   0  0  0  0  0  0  0  0  0  0  0  0
  151.4859  137.2417  155.2931 C   0  0  0  0  0  0  0  0  0  0  0  0
  150.1934  136.9834  156.0796 C   0  0  0  0  0  0  0  0  0  0  0  0
  147.7931  133.0242  158.4132 H   0  0  0  0  0  0  0  0  0  0  0  0
  147.1059  131.7143  159.3626 H   0  0  0  0  0  0  0  0  0  0  0  0
  148.8336  132.0486  159.4440 H   0  0  0  0  0  0  0  0  0  0  0  0
  146.8352  137.2849  161.8279 H   0  0  0  0  0  0  0  0  0  0  0  0
  147.7608  136.7010  163.2115 H   0  0  0  0  0  0  0  0  0  0  0  0
  146.0277  136.3817  163.1078 H   0  0  0  0  0  0  0  0  0  0  0  0
  146.5667  135.4127  158.5710 H   0  0  0  0  0  0  0  0  0  0  0  0
  146.9865  136.7721  159.5729 H   0  0  0  0  0  0  0  0  0  0  0  0
  148.4135  137.8757  158.4761 H   0  0  0  0  0  0  0  0  0  0  0  0
  151.1185  137.0063  158.0122 H   0  0  0  0  0  0  0  0  0  0  0  0
  149.6362  139.5319  157.1589 H   0  0  0  0  0  0  0  0  0  0  0  0
  150.4543  139.3115  158.6839 H   0  0  0  0  0  0  0  0  0  0  0  0
  151.9053  140.5609  157.1002 H   0  0  0  0  0  0  0  0  0  0  0  0
  152.6408  139.0146  157.5074 H   0  0  0  0  0  0  0  0  0  0  0  0
  151.4029  136.8709  154.2714 H   0  0  0  0  0  0  0  0  0  0  0  0
  152.3314  136.7366  155.7607 H   0  0  0  0  0  0  0  0  0  0  0  0
  149.9922  135.9115  156.0776 H   0  0  0  0  0  0  0  0  0  0  0  0
  149.3535  137.4514  155.5643 H   0  0  0  0  0  0  0  0  0  0  0  0
  1  2  1  0  0  0  0
  1 20  1  0  0  0  0
  1 21  1  0  0  0  0
  1 22  1  0  0  0  0
  2  7  1  0  0  0  0
  2  3  2  0  0  0  0
  3  4  1  0  0  0  0
  4  5  1  0  0  0  0
  5  6  1  0  0  0  0
  5  7  2  0  0  0  0
  6 23  1  0  0  0  0
  6 24  1  0  0  0  0
  6 25  1  0  0  0  0
  7  8  1  0  0  0  0
  8  9  1  0  0  0  0
  8 26  1  0  0  0  0
  8 27  1  0  0  0  0
  9 10  2  0  0  0  0
  9 11  1  0  0  0  0
 11 12  1  0  0  0  0
 11 28  1  0  0  0  0
 12 19  1  0  0  0  0
 12 13  1  0  0  0  0
 12 29  1  0  0  0  0
 13 14  1  0  0  0  0
 13 30  1  0  0  0  0
 13 31  1  0  0  0  0
 14 15  1  0  0  0  0
 14 32  1  0  0  0  0
 14 33  1  0  0  0  0
 15 16  2  0  0  0  0
 15 17  2  0  0  0  0
 15 18  1  0  0  0  0
 18 19  1  0  0  0  0
 18 34  1  0  0  0  0
 18 35  1  0  0  0  0
 19 36  1  0  0  0  0
 19 37  1  0  0  0  0
M  END
> <s_m_source_file>
AV-unprocessed.smi

> <i_m_source_file_index>
1571

> <i_lp_mmshare_version>
43012

> <i_f3d_flags>
0

> <s_epik_input>
W0NIM11jMW5vYyhbQ0gzXSljMVtDSDJdQyg9TylbTkhdW0NIXShbQ0gyXVtDSDJdMilbQ0gyXVtDSDJdUzIoPU8pPU8=

> <s_epik_cmdline>
J2VwaWtfcHl0aG9uJywgJy1waCcsICc3LjAnLCAnLXRuJywgJzgnLCAnLW1hJywgJzIwMCcsICctbWV0YWxfYmluZGluZycsICctaW1hZScsICc8aW5maWxlLm1hZT4nLCAnLW9tYWUnLCAnPG91dGZpbGUubWFlPic=

> <r_lp_tautomer_probability>
1

> <r_epik_Ionization_Penalty>
4.0065e-08

> <r_epik_Ionization_Penalty_Charging>
0

> <r_epik_Ionization_Penalty_Neutral>
4.0065e-08

> <r_epik_State_Penalty>
-0

> <r_epik_Charging_Adjusted_Penalty>
0

> <i_epik_Tot_Q>
0

> <i_epik_Tot_abs_Q>
0

> <r_epik_Metal_State_Penalty>
-0

> <b_epik_Metal_Only>
0

> <s_lp_Force_Field>
OPLS_2005

> <r_lp_Energy>
-11.0004

> <b_lp_Chiralities_Consistent>
1

> <s_lp_Variant>
AV-unprocessed.smi:1571-1

> <Gold.Version>
5.8.1

> <Gold.Id.Protein>
6NUR|6NUR_protein|mol2

> <Gold.PLP.Fitness>
39.0202

> <Gold.PLP.PLP>
-30.6391

> <Gold.PLP.part.hbond>
-3.8153

> <Gold.PLP.part.metal>
0.0000

> <Gold.PLP.part.buried>
-6.3208

> <Gold.PLP.part.nonpolar>
-20.5381

> <Gold.PLP.part.repulsive>
0.2451

> <Gold.PLP.ligand.clash>
0.0000

> <Gold.PLP.ligand.torsion>
0.3143

> <Gold.PLP.Chemscore.Hbond>
3.0000

> <Gold.PLP.Chemscore.CHOScore>
0.0000

> <Gold.PLP.Chemscore.Metal>
0.0000

> <Gold.Chemscore.Hbonds>
donor molecule, donor type, donor heavy atom, donor atom, acceptor molecule, acceptor atom, score
      P1  H  6896  6908       L1    10  1.00
      P1  H  7989  7998       L1    16  1.00
      P1  H  7997  8009       L1    17  1.00

> <Gold.PLP.Chemscore.Internal.Correction>
0.0096

> <Gold.Rescore>
     Score         DG    S(hbond)    S(metal)    S(lipo)     H(rot)  DE(clash)    DE(int)     intcor
     17.85     -18.19       2.88        0.00      58.42       1.46       0.01       0.34       ----

> <Gold.Chemscore.Fitness>
17.8451

> <Gold.Chemscore.DG>
-18.1928

> <Gold.Chemscore.ZeroCoef>
-5.4800

> <Gold.Chemscore.Hbond>
2.8788

> <Gold.Chemscore.Metal>
0.0000

> <Gold.Chemscore.Lipo>
58.4213

> <Gold.Chemscore.Internal_Hbond>
0.0000

> <Gold.Chemscore.DEClash>
0.0102

> <Gold.Chemscore.DEInternal>
0.3374

> <Gold.Chemscore.Rot>
1.4601

> <Gold.Chemscore.Internal.Correction>
   9.000000E+99

> <Gold.Chemscore.Hbonds>
donor molecule, donor type, donor heavy atom, donor atom, acceptor molecule, acceptor atom, score
      P1  H  6896  6908       L1    10  0.99
      P1  H  7989  7998       L1    16  0.26
      P1  H  7997  8009       L1    17  0.99

> <Gold.Chemscore.Hbond.Weighted>
-9.6153

> <Gold.Chemscore.Metal.Weighted>
-0.0000

> <Gold.Chemscore.Lipo.Weighted>
-6.8353

> <Gold.Chemscore.Internal_Hbond.Weighted>
0.0000

> <Gold.Chemscore.DEClash.Weighted>
0.0102

> <Gold.Chemscore.DEInternal.Weighted>
0.3374

> <Gold.Chemscore.Rot.Weighted>
3.7379

> <Gold.Chemscore.Internal.Correction.Weighted>
   9.000000E+99

> <Gold.Protein.RotatedTorsions>
[ 6907 6896 6895 6894 ] final  151.07 input  -60.11 | X-H torsion
[ 7974 7965 7964 7962 ] final -154.42 input  175.53 | X-H torsion
[ 8008 7997 7996 7995 ] final -122.56 input   59.86 | X-H torsion
[ 10167 10162 10161 10158 ] final  -62.23 input  -65.29 | X-H torsion
[ 10718 10713 10712 10709 ] final  154.63 input   66.30 | X-H torsion
[ 10763 10752 10751 10750 ] final  -27.48 input  -60.55 | X-H torsion
[ 11005 11000 10999 10996 ] final   17.88 input  -57.11 | X-H torsion

> <Gold.Protein.ActiveResidues>
 VAL166  LYS551  ARG553  GLY616  TRP617  ASP618  TYR619  PRO620  LYS621  CYS622 
 ASP623  PHE694  ASN695  SER759  ASP760  ASP761  ALA762  ILE779  LEU786  VAL792 
 PHE793  MET794  SER795  GLU796  ALA797  LYS798  CYS799  TRP800  GLU811  SER814 

> <Gold.Protein.RotatedAtoms>
  152.1057  133.4273  159.4607 H   0  0  0  0  0  0  0  0  0  0  0  0  # atno 6907 bound_to 6896
  150.6865  134.2707  159.4596 H   0  0  0  0  0  0  0  0  0  0  0  0  # atno 6908 bound_to 6896
  152.0572  134.9617  160.0625 H   0  0  0  0  0  0  0  0  0  0  0  0  # atno 6909 bound_to 6896
  144.7690  140.4391  143.5921 H   0  0  0  0  0  0  0  0  0  0  0  0  # atno 7974 bound_to 7965
  155.1662  140.0407  157.2853 H   0  0  0  0  0  0  0  0  0  0  0  0  # atno 8008 bound_to 7997
  154.6301  140.2522  155.7417 H   0  0  0  0  0  0  0  0  0  0  0  0  # atno 8009 bound_to 7997
  156.2480  140.2877  156.0649 H   0  0  0  0  0  0  0  0  0  0  0  0  # atno 8010 bound_to 7997
  140.5953  143.2349  151.6049 H   0  0  0  0  0  0  0  0  0  0  0  0  # atno 10167 bound_to 10162
  157.2291  131.0735  151.1864 H   0  0  0  0  0  0  0  0  0  0  0  0  # atno 10718 bound_to 10713
  153.7328  135.6937  153.4985 H   0  0  0  0  0  0  0  0  0  0  0  0  # atno 10763 bound_to 10752
  153.2124  135.4398  155.0394 H   0  0  0  0  0  0  0  0  0  0  0  0  # atno 10764 bound_to 10752
  154.8247  135.3440  154.6857 H   0  0  0  0  0  0  0  0  0  0  0  0  # atno 10765 bound_to 10752
  140.4310  134.1420  155.7680 H   0  0  0  0  0  0  0  0  0  0  0  0  # atno 11005 bound_to 11000
  145.6380  139.1546  143.2931 LP  0  0  0  0  0  0  0  0  0  0  0  0  # atno 17320 bound_to 7965
  146.1822  140.6479  142.9184 LP  0  0  0  0  0  0  0  0  0  0  0  0  # atno 17321 bound_to 7965
  139.5254  144.3075  152.1021 LP  0  0  0  0  0  0  0  0  0  0  0  0  # atno 17342 bound_to 10162
  140.2246  144.4431  150.6326 LP  0  0  0  0  0  0  0  0  0  0  0  0  # atno 17343 bound_to 10162
  157.3497  130.7076  149.6433 LP  0  0  0  0  0  0  0  0  0  0  0  0  # atno 17370 bound_to 10713
  155.9676  130.4256  150.4661 LP  0  0  0  0  0  0  0  0  0  0  0  0  # atno 17371 bound_to 10713
  141.1745  133.8541  157.1465 LP  0  0  0  0  0  0  0  0  0  0  0  0  # atno 17394 bound_to 11000
  140.0134  134.9978  157.0443 LP  0  0  0  0  0  0  0  0  0  0  0  0  # atno 17395 bound_to 11000

$$$$
