AV-unprocessed.smi:223|AV-procd|sdf|1704|dock10
  -GOLD-   2262020163D 1   1.00000     0.00000
 Structure written by MMmdl.
 47 50  0  0  0  0  0  0  0  0  1 V2000
  153.1563  142.9362  162.8281 C   0  0  0  0  0  0  0  0  0  0  0  0
  152.6131  142.8035  161.4009 C   0  0  1  0  0  0  0  0  0  0  0  0
  152.2181  144.1216  160.8771 C   0  0  0  0  0  0  0  0  0  0  0  0
  151.9084  145.1570  160.4638 N   0  0  0  0  0  0  0  0  0  0  0  0
  153.6277  142.0845  160.4868 C   0  0  0  0  0  0  0  0  0  0  0  0
  153.0164  141.3686  159.3666 N   0  0  0  0  0  0  0  0  0  0  0  0
  153.2783  140.0367  159.2727 C   0  0  0  0  0  0  0  0  0  0  0  0
  153.0376  139.3934  158.0984 N   0  0  0  0  0  0  0  0  0  0  0  0
  153.2593  138.0816  157.9845 C   0  0  0  0  0  0  0  0  0  0  0  0
  153.7158  137.2308  158.9041 N   0  0  0  0  0  0  0  0  0  0  0  0
  153.9734  137.8673  160.0819 C   0  0  0  0  0  0  0  0  0  0  0  0
  153.7809  139.2528  160.3523 C   0  0  0  0  0  0  0  0  0  0  0  0
  154.1514  139.5281  161.6638 N   0  0  0  0  0  0  0  0  0  0  0  0
  154.5303  138.3749  162.1415 C   0  0  0  0  0  0  0  0  0  0  0  0
  154.4684  137.3240  161.2554 N   0  0  0  0  0  0  0  0  0  0  0  0
  154.8268  135.9379  161.5188 C   0  0  0  0  0  0  0  0  0  0  0  0
  155.4381  135.6924  162.9225 C   0  0  1  0  0  0  0  0  0  0  0  0
  156.6458  136.4209  163.0427 O   0  0  0  0  0  0  0  0  0  0  0  0
  154.5131  136.0646  164.0839 C   0  0  0  0  0  0  0  0  0  0  0  0
  153.9328  134.7224  164.5061 C   0  0  0  0  0  0  0  0  0  0  0  0
  155.0456  133.8572  164.3728 O   0  0  0  0  0  0  0  0  0  0  0  0
  155.7144  134.1941  163.1636 C   0  0  0  0  0  0  0  0  0  0  0  0
  151.7255  141.8516  158.8815 C   0  0  0  0  0  0  0  0  0  0  0  0
  151.4131  141.7574  157.4046 C   0  0  0  0  0  0  0  0  0  0  0  0
  151.6931  143.1017  158.0340 C   0  0  0  0  0  0  0  0  0  0  0  0
  152.4261  143.4156  163.4807 H   0  0  0  0  0  0  0  0  0  0  0  0
  154.0668  143.5357  162.8499 H   0  0  0  0  0  0  0  0  0  0  0  0
  153.3874  141.9589  163.2529 H   0  0  0  0  0  0  0  0  0  0  0  0
  151.6971  142.2151  161.4546 H   0  0  0  0  0  0  0  0  0  0  0  0
  154.3265  142.8198  160.0864 H   0  0  0  0  0  0  0  0  0  0  0  0
  154.2395  141.3961  161.0676 H   0  0  0  0  0  0  0  0  0  0  0  0
  153.0375  137.6522  157.0186 H   0  0  0  0  0  0  0  0  0  0  0  0
  154.8732  138.2605  163.1596 H   0  0  0  0  0  0  0  0  0  0  0  0
  153.9323  135.3272  161.3886 H   0  0  0  0  0  0  0  0  0  0  0  0
  155.5269  135.6181  160.7458 H   0  0  0  0  0  0  0  0  0  0  0  0
  157.2907  135.8665  163.4544 H   0  0  0  0  0  0  0  0  0  0  0  0
  155.0855  136.4730  164.9186 H   0  0  0  0  0  0  0  0  0  0  0  0
  153.7425  136.7919  163.8350 H   0  0  0  0  0  0  0  0  0  0  0  0
  153.5463  134.7303  165.5254 H   0  0  0  0  0  0  0  0  0  0  0  0
  153.1340  134.4082  163.8325 H   0  0  0  0  0  0  0  0  0  0  0  0
  155.3002  133.5819  162.3611 H   0  0  0  0  0  0  0  0  0  0  0  0
  156.7763  133.9559  163.2380 H   0  0  0  0  0  0  0  0  0  0  0  0
  150.8814  141.7080  159.5524 H   0  0  0  0  0  0  0  0  0  0  0  0
  152.1755  141.3416  156.7484 H   0  0  0  0  0  0  0  0  0  0  0  0
  150.3855  141.5359  157.1242 H   0  0  0  0  0  0  0  0  0  0  0  0
  150.8521  143.7784  158.1709 H   0  0  0  0  0  0  0  0  0  0  0  0
  152.6413  143.5790  157.7939 H   0  0  0  0  0  0  0  0  0  0  0  0
  1  2  1  0  0  0  0
  1 26  1  0  0  0  0
  1 27  1  0  0  0  0
  1 28  1  0  0  0  0
  2  3  1  0  0  0  0
  2  5  1  0  0  0  0
  2 29  1  0  0  0  0
  3  4  3  0  0  0  0
  5  6  1  0  0  0  0
  5 30  1  0  0  0  0
  5 31  1  0  0  0  0
  6  7  1  0  0  0  0
  6 23  1  0  0  0  0
  7 12  1  0  0  0  0
  7  8  2  0  0  0  0
  8  9  1  0  0  0  0
  9 10  2  0  0  0  0
  9 32  1  0  0  0  0
 10 11  1  0  0  0  0
 11 15  1  0  0  0  0
 11 12  2  0  0  0  0
 12 13  1  0  0  0  0
 13 14  2  0  0  0  0
 14 15  1  0  0  0  0
 14 33  1  0  0  0  0
 15 16  1  0  0  0  0
 16 17  1  0  0  0  0
 16 34  1  0  0  0  0
 16 35  1  0  0  0  0
 17 22  1  0  0  0  0
 17 18  1  0  0  0  0
 17 19  1  0  0  0  0
 18 36  1  0  0  0  0
 19 20  1  0  0  0  0
 19 37  1  0  0  0  0
 19 38  1  0  0  0  0
 20 21  1  0  0  0  0
 20 39  1  0  0  0  0
 20 40  1  0  0  0  0
 21 22  1  0  0  0  0
 22 41  1  0  0  0  0
 22 42  1  0  0  0  0
 23 25  1  0  0  0  0
 23 24  1  0  0  0  0
 23 43  1  0  0  0  0
 24 25  1  0  0  0  0
 24 44  1  0  0  0  0
 24 45  1  0  0  0  0
 25 46  1  0  0  0  0
 25 47  1  0  0  0  0
M  END
> <s_m_source_file>
AV-unprocessed.smi

> <i_m_source_file_index>
223

> <i_lp_mmshare_version>
43012

> <i_f3d_flags>
0

> <s_epik_input>
TiNDW0NAQEhdKFtDSDNdKVtDSDJdTihbQ0hdMVtDSDJdW0NIMl0xKWMobltjSF1uMiljKGMyMyluW2NIXW4zW0NIMl1bQ0BAXTQoW09IXSlbQ0gyXVtDSDJdT1tDSDJdNA==

> <s_epik_cmdline>
J2VwaWtfcHl0aG9uJywgJy1waCcsICc3LjAnLCAnLXRuJywgJzgnLCAnLW1hJywgJzIwMCcsICctbWV0YWxfYmluZGluZycsICctaW1hZScsICc8aW5maWxlLm1hZT4nLCAnLW9tYWUnLCAnPG91dGZpbGUubWFlPic=

> <r_lp_tautomer_probability>
1

> <r_epik_Ionization_Penalty>
0.000756152

> <r_epik_Ionization_Penalty_Charging>
0

> <r_epik_Ionization_Penalty_Neutral>
0.000756152

> <r_epik_State_Penalty>
0.00038036

> <r_epik_Charging_Adjusted_Penalty>
0.00038036

> <i_epik_Tot_Q>
0

> <i_epik_Tot_abs_Q>
0

> <r_epik_Metal_State_Penalty>
-0

> <b_epik_Metal_Only>
0

> <s_lp_Force_Field>
OPLS_2005

> <r_lp_Energy>
37.1098

> <b_lp_Chiralities_Consistent>
1

> <s_lp_Variant>
AV-unprocessed.smi:223-2

> <Gold.Version>
5.8.1

> <Gold.Id.Protein>
6NUR|6NUR_protein|mol2

> <Gold.PLP.Fitness>
46.0078

> <Gold.PLP.PLP>
-44.5704

> <Gold.PLP.part.hbond>
-1.0000

> <Gold.PLP.part.metal>
0.0000

> <Gold.PLP.part.buried>
-6.2191

> <Gold.PLP.part.nonpolar>
-36.8419

> <Gold.PLP.part.repulsive>
0.2316

> <Gold.PLP.ligand.clash>
0.0000

> <Gold.PLP.ligand.torsion>
1.3691

> <Gold.PLP.Chemscore.Hbond>
0.9500

> <Gold.PLP.Chemscore.CHOScore>
0.0000

> <Gold.PLP.Chemscore.Metal>
0.0000

> <Gold.Chemscore.Hbonds>
donor molecule, donor type, donor heavy atom, donor atom, acceptor molecule, acceptor atom, score
      P1  H  7997  8009       L1     8  0.95

> <Gold.PLP.Chemscore.Internal.Correction>
1.3256

> <Gold.Rescore>
     Score         DG    S(hbond)    S(metal)    S(lipo)     H(rot)  DE(clash)    DE(int)     intcor
      5.67     -10.79       0.12        0.00     101.45       2.72       0.00       5.12       ----

> <Gold.Chemscore.Fitness>
5.6698

> <Gold.Chemscore.DG>
-10.7857

> <Gold.Chemscore.ZeroCoef>
-5.4800

> <Gold.Chemscore.Hbond>
0.1173

> <Gold.Chemscore.Metal>
0.0000

> <Gold.Chemscore.Lipo>
101.4493

> <Gold.Chemscore.Internal_Hbond>
0.0000

> <Gold.Chemscore.DEClash>
0.0000

> <Gold.Chemscore.DEInternal>
5.1159

> <Gold.Chemscore.Rot>
2.7171

> <Gold.Chemscore.Internal.Correction>
   9.000000E+99

> <Gold.Chemscore.Hbonds>
donor molecule, donor type, donor heavy atom, donor atom, acceptor molecule, acceptor atom, score
      P1  H  7997  8009       L1     8  0.08

> <Gold.Chemscore.Hbond.Weighted>
-0.3919

> <Gold.Chemscore.Metal.Weighted>
-0.0000

> <Gold.Chemscore.Lipo.Weighted>
-11.8696

> <Gold.Chemscore.Internal_Hbond.Weighted>
0.0000

> <Gold.Chemscore.DEClash.Weighted>
0.0000

> <Gold.Chemscore.DEInternal.Weighted>
5.1159

> <Gold.Chemscore.Rot.Weighted>
6.9558

> <Gold.Chemscore.Internal.Correction.Weighted>
   9.000000E+99

> <Gold.Protein.RotatedTorsions>
[ 6907 6896 6895 6894 ] final  -26.26 input  -60.11 | X-H torsion
[ 7974 7965 7964 7962 ] final  -25.96 input  175.53 | X-H torsion
[ 8008 7997 7996 7995 ] final  161.83 input   59.86 | X-H torsion
[ 10167 10162 10161 10158 ] final  -61.71 input  -65.29 | X-H torsion
[ 10718 10713 10712 10709 ] final  -76.56 input   66.30 | X-H torsion
[ 10763 10752 10751 10750 ] final   48.21 input  -60.55 | X-H torsion
[ 11005 11000 10999 10996 ] final  122.02 input  -57.11 | X-H torsion

> <Gold.Protein.ActiveResidues>
 VAL166  LYS551  ARG553  GLY616  TRP617  ASP618  TYR619  PRO620  LYS621  CYS622 
 ASP623  PHE694  ASN695  SER759  ASP760  ASP761  ALA762  ILE779  LEU786  VAL792 
 PHE793  MET794  SER795  GLU796  ALA797  LYS798  CYS799  TRP800  GLU811  SER814 

> <Gold.Protein.RotatedAtoms>
  151.1634  135.0284  159.8720 H   0  0  0  0  0  0  0  0  0  0  0  0  # atno 6907 bound_to 6896
  152.5451  134.1252  159.8426 H   0  0  0  0  0  0  0  0  0  0  0  0  # atno 6908 bound_to 6896
  151.1350  133.4964  159.2630 H   0  0  0  0  0  0  0  0  0  0  0  0  # atno 6909 bound_to 6896
  146.1457  140.4955  142.8633 H   0  0  0  0  0  0  0  0  0  0  0  0  # atno 7974 bound_to 7965
  156.2075  140.1766  156.7768 H   0  0  0  0  0  0  0  0  0  0  0  0  # atno 8008 bound_to 7997
  154.5675  140.0688  156.8944 H   0  0  0  0  0  0  0  0  0  0  0  0  # atno 8009 bound_to 7997
  155.2733  140.3344  155.4266 H   0  0  0  0  0  0  0  0  0  0  0  0  # atno 8010 bound_to 7997
  140.5987  143.2356  151.5977 H   0  0  0  0  0  0  0  0  0  0  0  0  # atno 10167 bound_to 10162
  156.0171  130.4469  150.3212 H   0  0  0  0  0  0  0  0  0  0  0  0  # atno 10718 bound_to 10713
  152.9793  135.5951  154.3889 H   0  0  0  0  0  0  0  0  0  0  0  0  # atno 10763 bound_to 10752
  154.3546  135.2767  155.2355 H   0  0  0  0  0  0  0  0  0  0  0  0  # atno 10764 bound_to 10752
  154.4379  135.6020  153.6165 H   0  0  0  0  0  0  0  0  0  0  0  0  # atno 10765 bound_to 10752
  139.9250  134.9640  156.8045 H   0  0  0  0  0  0  0  0  0  0  0  0  # atno 11005 bound_to 11000
  144.7844  140.5906  143.6584 LP  0  0  0  0  0  0  0  0  0  0  0  0  # atno 17320 bound_to 7965
  145.4943  139.1487  143.3692 LP  0  0  0  0  0  0  0  0  0  0  0  0  # atno 17321 bound_to 7965
  139.5276  144.3012  152.1072 LP  0  0  0  0  0  0  0  0  0  0  0  0  # atno 17342 bound_to 10162
  140.2189  144.4487  150.6351 LP  0  0  0  0  0  0  0  0  0  0  0  0  # atno 17343 bound_to 10162
  157.1312  131.0272  151.2968 LP  0  0  0  0  0  0  0  0  0  0  0  0  # atno 17370 bound_to 10713
  157.4549  130.7619  149.7184 LP  0  0  0  0  0  0  0  0  0  0  0  0  # atno 17371 bound_to 10713
  140.6362  133.9860  155.7685 LP  0  0  0  0  0  0  0  0  0  0  0  0  # atno 17394 bound_to 11000
  141.0801  134.0075  157.3399 LP  0  0  0  0  0  0  0  0  0  0  0  0  # atno 17395 bound_to 11000

$$$$
