AV-unprocessed.smi:2088|AV-procd|sdf|8526|dock6
  -GOLD-   2272011243D 1   1.00000     0.00000
 Structure written by MMmdl.
 33 34  0  0  0  0  0  0  0  0  1 V2000
  151.3074  140.3055  155.1600 O   0  0  0  0  0  0  0  0  0  0  0  0
  151.6761  140.0469  156.3059 C   0  0  0  0  0  0  0  0  0  0  0  0
  152.2733  138.6751  156.6257 C   0  0  0  0  0  0  0  0  0  0  0  0
  152.6728  138.5895  158.0190 N   0  0  0  0  0  0  0  0  0  0  0  0
  152.3414  137.6264  158.9480 C   0  0  0  0  0  0  0  0  0  0  0  0
  152.9548  137.9646  160.1196 C   0  0  0  0  0  0  0  0  0  0  0  0
  153.6522  139.1688  159.8111 C   0  0  0  0  0  0  0  0  0  0  0  0
  154.5096  140.0096  160.7200 C   0  0  0  0  0  0  0  0  0  0  0  0
  154.0137  141.2435  160.8121 F   0  0  0  0  0  0  0  0  0  0  0  0
  154.5475  139.4710  161.9387 F   0  0  0  0  0  0  0  0  0  0  0  0
  155.7498  140.0809  160.2365 F   0  0  0  0  0  0  0  0  0  0  0  0
  153.4762  139.5370  158.5486 N   0  0  0  0  0  0  0  0  0  0  0  0
  151.5862  140.9166  157.3238 N   0  0  0  0  0  0  0  0  0  0  0  0
  151.0526  142.2704  157.2243 C   0  0  0  0  0  0  0  0  0  0  0  0
  151.8601  143.2672  158.0731 C   0  0  2  0  0  0  0  0  0  0  0  0
  151.8709  142.9376  159.5630 C   0  0  0  0  0  0  0  0  0  0  0  0
  152.2196  144.2798  160.1647 C   0  0  0  0  0  0  0  0  0  0  0  0
  151.4710  145.2486  159.2509 C   0  0  0  0  0  0  0  0  0  0  0  0
  151.2855  144.5691  158.0103 O   0  0  0  0  0  0  0  0  0  0  0  0
  151.5626  137.8776  156.4009 H   0  0  0  0  0  0  0  0  0  0  0  0
  153.1506  138.5075  155.9998 H   0  0  0  0  0  0  0  0  0  0  0  0
  151.7063  136.7887  158.6993 H   0  0  0  0  0  0  0  0  0  0  0  0
  152.9129  137.4310  161.0574 H   0  0  0  0  0  0  0  0  0  0  0  0
  151.9099  140.6199  158.2330 H   0  0  0  0  0  0  0  0  0  0  0  0
  151.0685  142.5716  156.1766 H   0  0  0  0  0  0  0  0  0  0  0  0
  150.0056  142.2743  157.5314 H   0  0  0  0  0  0  0  0  0  0  0  0
  152.8903  143.3311  157.7183 H   0  0  0  0  0  0  0  0  0  0  0  0
  150.8805  142.6238  159.8963 H   0  0  0  0  0  0  0  0  0  0  0  0
  152.5848  142.1548  159.8206 H   0  0  0  0  0  0  0  0  0  0  0  0
  151.9297  144.3698  161.2118 H   0  0  0  0  0  0  0  0  0  0  0  0
  153.2944  144.4508  160.0926 H   0  0  0  0  0  0  0  0  0  0  0  0
  150.4911  145.4897  159.6641 H   0  0  0  0  0  0  0  0  0  0  0  0
  152.0180  146.1813  159.1110 H   0  0  0  0  0  0  0  0  0  0  0  0
  1  2  2  0  0  0  0
  2  3  1  0  0  0  0
  2 13  1  0  0  0  0
  3  4  1  0  0  0  0
  3 20  1  0  0  0  0
  3 21  1  0  0  0  0
  4 12  1  0  0  0  0
  4  5  1  0  0  0  0
  5  6  2  0  0  0  0
  5 22  1  0  0  0  0
  6  7  1  0  0  0  0
  6 23  1  0  0  0  0
  7  8  1  0  0  0  0
  7 12  2  0  0  0  0
  8  9  1  0  0  0  0
  8 10  1  0  0  0  0
  8 11  1  0  0  0  0
 13 14  1  0  0  0  0
 13 24  1  0  0  0  0
 14 15  1  0  0  0  0
 14 25  1  0  0  0  0
 14 26  1  0  0  0  0
 15 19  1  0  0  0  0
 15 16  1  0  0  0  0
 15 27  1  0  0  0  0
 16 17  1  0  0  0  0
 16 28  1  0  0  0  0
 16 29  1  0  0  0  0
 17 18  1  0  0  0  0
 17 30  1  0  0  0  0
 17 31  1  0  0  0  0
 18 19  1  0  0  0  0
 18 32  1  0  0  0  0
 18 33  1  0  0  0  0
M  END
> <s_m_source_file>
AV-unprocessed.smi

> <i_m_source_file_index>
2088

> <i_lp_mmshare_version>
43012

> <i_f3d_flags>
0

> <s_epik_input>
TzFbQ0gyXVtDSDJdW0NIMl1bQ0BIXTFbQ0gyXVtOSF1DKD1PKVtDSDJdbjJbY0hdW2NIXWMobjIpQyhGKShGKUY=

> <s_epik_cmdline>
J2VwaWtfcHl0aG9uJywgJy1waCcsICc3LjAnLCAnLXRuJywgJzgnLCAnLW1hJywgJzIwMCcsICctbWV0YWxfYmluZGluZycsICctaW1hZScsICc8aW5maWxlLm1hZT4nLCAnLW9tYWUnLCAnPG91dGZpbGUubWFlPic=

> <r_lp_tautomer_probability>
1

> <r_epik_Ionization_Penalty>
2.25732e-07

> <r_epik_Ionization_Penalty_Charging>
0

> <r_epik_Ionization_Penalty_Neutral>
2.25732e-07

> <r_epik_State_Penalty>
-0

> <r_epik_Charging_Adjusted_Penalty>
0

> <i_epik_Tot_Q>
0

> <i_epik_Tot_abs_Q>
0

> <r_epik_Metal_State_Penalty>
-0

> <b_epik_Metal_Only>
0

> <s_lp_Force_Field>
OPLS_2005

> <r_lp_Energy>
20.6352

> <b_lp_Chiralities_Consistent>
1

> <s_lp_Variant>
AV-unprocessed.smi:2088-1

> <Gold.Version>
5.8.1

> <Gold.Id.Protein>
6NUR|6NUR_protein|mol2

> <Gold.PLP.Fitness>
44.1595

> <Gold.PLP.PLP>
-38.5703

> <Gold.PLP.part.hbond>
-2.0000

> <Gold.PLP.part.metal>
0.0000

> <Gold.PLP.part.buried>
-5.7954

> <Gold.PLP.part.nonpolar>
-31.7796

> <Gold.PLP.part.repulsive>
0.2852

> <Gold.PLP.ligand.clash>
0.0000

> <Gold.PLP.ligand.torsion>
0.2113

> <Gold.PLP.Chemscore.Hbond>
2.0000

> <Gold.PLP.Chemscore.CHOScore>
0.0000

> <Gold.PLP.Chemscore.Metal>
0.0000

> <Gold.Chemscore.Hbonds>
donor molecule, donor type, donor heavy atom, donor atom, acceptor molecule, acceptor atom, score
      P1  H  7989  7998       L1     1  1.00
      P1  H  7997  8009       L1    12  1.00

> <Gold.PLP.Chemscore.Internal.Correction>
0.0118

> <Gold.Rescore>
     Score         DG    S(hbond)    S(metal)    S(lipo)     H(rot)  DE(clash)    DE(int)     intcor
     16.86     -17.14       1.98        0.00      84.42       1.89       0.10       0.17       ----

> <Gold.Chemscore.Fitness>
16.8598

> <Gold.Chemscore.DG>
-17.1367

> <Gold.Chemscore.ZeroCoef>
-5.4800

> <Gold.Chemscore.Hbond>
1.9834

> <Gold.Chemscore.Metal>
0.0000

> <Gold.Chemscore.Lipo>
84.4243

> <Gold.Chemscore.Internal_Hbond>
0.0000

> <Gold.Chemscore.DEClash>
0.1049

> <Gold.Chemscore.DEInternal>
0.1720

> <Gold.Chemscore.Rot>
1.8928

> <Gold.Chemscore.Internal.Correction>
   9.000000E+99

> <Gold.Chemscore.Hbonds>
donor molecule, donor type, donor heavy atom, donor atom, acceptor molecule, acceptor atom, score
      P1  H  7989  7998       L1     1  0.95
      P1  H  7997  8009       L1    12  0.55

> <Gold.Chemscore.Hbond.Weighted>
-6.6245

> <Gold.Chemscore.Metal.Weighted>
-0.0000

> <Gold.Chemscore.Lipo.Weighted>
-9.8776

> <Gold.Chemscore.Internal_Hbond.Weighted>
0.0000

> <Gold.Chemscore.DEClash.Weighted>
0.1049

> <Gold.Chemscore.DEInternal.Weighted>
0.1720

> <Gold.Chemscore.Rot.Weighted>
4.8455

> <Gold.Chemscore.Internal.Correction.Weighted>
   9.000000E+99

> <Gold.Protein.RotatedTorsions>
[ 6907 6896 6895 6894 ] final  162.20 input  -60.11 | X-H torsion
[ 7974 7965 7964 7962 ] final  139.45 input  175.53 | X-H torsion
[ 8008 7997 7996 7995 ] final  144.93 input   59.86 | X-H torsion
[ 10167 10162 10161 10158 ] final   28.72 input  -65.29 | X-H torsion
[ 10718 10713 10712 10709 ] final   -4.92 input   66.30 | X-H torsion
[ 10763 10752 10751 10750 ] final  -33.19 input  -60.55 | X-H torsion
[ 11005 11000 10999 10996 ] final   48.14 input  -57.11 | X-H torsion

> <Gold.Protein.ActiveResidues>
 VAL166  LYS551  ARG553  GLY616  TRP617  ASP618  TYR619  PRO620  LYS621  CYS622 
 ASP623  PHE694  ASN695  SER759  ASP760  ASP761  ALA762  ILE779  LEU786  VAL792 
 PHE793  MET794  SER795  GLU796  ALA797  LYS798  CYS799  TRP800  GLU811  SER814 

> <Gold.Protein.RotatedAtoms>
  151.9440  133.3646  159.3975 H   0  0  0  0  0  0  0  0  0  0  0  0  # atno 6907 bound_to 6896
  150.6993  134.4409  159.5301 H   0  0  0  0  0  0  0  0  0  0  0  0  # atno 6908 bound_to 6896
  152.2071  134.8535  160.0552 H   0  0  0  0  0  0  0  0  0  0  0  0  # atno 6909 bound_to 6896
  144.9278  139.5085  143.5632 H   0  0  0  0  0  0  0  0  0  0  0  0  # atno 7974 bound_to 7965
  156.2896  140.2223  156.5132 H   0  0  0  0  0  0  0  0  0  0  0  0  # atno 8008 bound_to 7997
  154.7591  140.0474  157.0980 H   0  0  0  0  0  0  0  0  0  0  0  0  # atno 8009 bound_to 7997
  155.0014  140.3102  155.4869 H   0  0  0  0  0  0  0  0  0  0  0  0  # atno 8010 bound_to 7997
  140.4828  144.0590  150.6271 H   0  0  0  0  0  0  0  0  0  0  0  0  # atno 10167 bound_to 10162
  156.7542  130.5249  149.5798 H   0  0  0  0  0  0  0  0  0  0  0  0  # atno 10718 bound_to 10713
  153.8262  135.6870  153.4820 H   0  0  0  0  0  0  0  0  0  0  0  0  # atno 10763 bound_to 10752
  153.1539  135.4607  154.9674 H   0  0  0  0  0  0  0  0  0  0  0  0  # atno 10764 bound_to 10752
  154.7906  135.3300  154.7729 H   0  0  0  0  0  0  0  0  0  0  0  0  # atno 10765 bound_to 10752
  140.1217  134.4821  155.8592 H   0  0  0  0  0  0  0  0  0  0  0  0  # atno 11005 bound_to 11000
  146.3234  139.8206  142.8927 LP  0  0  0  0  0  0  0  0  0  0  0  0  # atno 17320 bound_to 7965
  145.3191  141.0239  143.3511 LP  0  0  0  0  0  0  0  0  0  0  0  0  # atno 17321 bound_to 7965
  140.3836  143.2789  152.0141 LP  0  0  0  0  0  0  0  0  0  0  0  0  # atno 17342 bound_to 10162
  139.4836  144.6134  151.7391 LP  0  0  0  0  0  0  0  0  0  0  0  0  # atno 17343 bound_to 10162
  156.1381  130.6225  151.0429 LP  0  0  0  0  0  0  0  0  0  0  0  0  # atno 17370 bound_to 10713
  157.6763  131.0849  150.7485 LP  0  0  0  0  0  0  0  0  0  0  0  0  # atno 17371 bound_to 10713
  141.2153  133.6763  156.6901 LP  0  0  0  0  0  0  0  0  0  0  0  0  # atno 17394 bound_to 11000
  140.2956  134.8205  157.4054 LP  0  0  0  0  0  0  0  0  0  0  0  0  # atno 17395 bound_to 11000

$$$$
