AV-unprocessed.smi:1749|AV-procd|sdf|7044|dock10
  -GOLD-   22720 8263D 1   1.00000     0.00000
 Structure written by MMmdl.
 32 33  0  0  0  0  0  0  0  0  1 V2000
  145.8296  132.7908  150.3572 C   0  0  0  0  0  0  0  0  0  0  0  0
  145.7742  133.9440  151.3688 C   0  0  2  0  0  0  0  0  0  0  0  0
  145.0505  133.5241  152.6626 C   0  0  0  0  0  0  0  0  0  0  0  0
  144.9890  134.6770  153.6771 C   0  0  0  0  0  0  0  0  0  0  0  0
  144.3336  135.9275  153.0652 C   0  0  0  0  0  0  0  0  0  0  0  0
  145.0284  136.3680  151.7625 C   0  0  1  0  0  0  0  0  0  0  0  0
  146.3582  136.8957  152.0575 N   0  0  0  0  0  0  0  0  0  0  0  0
  146.6332  137.9709  152.8136 C   0  0  0  0  0  0  0  0  0  0  0  0
  145.7651  138.6107  153.4044 O   0  0  0  0  0  0  0  0  0  0  0  0
  147.9353  138.3161  152.9002 N   0  0  0  0  0  0  0  0  0  0  0  0
  148.5803  139.3780  153.5990 C   0  0  0  0  0  0  0  0  0  0  0  0
  149.8281  139.3134  154.0928 N   0  0  0  0  0  0  0  0  0  0  0  0
  150.2112  140.4995  154.7035 N   0  0  0  0  0  0  0  0  0  0  0  0
  149.2448  141.4190  154.6356 C   0  0  0  0  0  0  0  0  0  0  0  0
  147.7721  140.9240  153.8191 S   0  0  0  0  0  0  0  0  0  0  0  0
  145.1077  135.1961  150.7603 C   0  0  0  0  0  0  0  0  0  0  0  0
  144.8293  132.4819  150.0523 H   0  0  0  0  0  0  0  0  0  0  0  0
  146.3324  131.9210  150.7807 H   0  0  0  0  0  0  0  0  0  0  0  0
  146.3765  133.0822  149.4601 H   0  0  0  0  0  0  0  0  0  0  0  0
  146.8038  134.1969  151.6268 H   0  0  0  0  0  0  0  0  0  0  0  0
  144.0377  133.1937  152.4279 H   0  0  0  0  0  0  0  0  0  0  0  0
  145.5569  132.6695  153.1127 H   0  0  0  0  0  0  0  0  0  0  0  0
  144.4319  134.3628  154.5600 H   0  0  0  0  0  0  0  0  0  0  0  0
  145.9962  134.9166  154.0200 H   0  0  0  0  0  0  0  0  0  0  0  0
  143.2854  135.7119  152.8551 H   0  0  0  0  0  0  0  0  0  0  0  0
  144.3358  136.7431  153.7896 H   0  0  0  0  0  0  0  0  0  0  0  0
  144.4333  137.1687  151.3198 H   0  0  0  0  0  0  0  0  0  0  0  0
  147.1352  136.4263  151.6147 H   0  0  0  0  0  0  0  0  0  0  0  0
  148.5685  137.6735  152.4472 H   0  0  0  0  0  0  0  0  0  0  0  0
  149.4013  142.3970  155.0662 H   0  0  0  0  0  0  0  0  0  0  0  0
  145.6434  135.5067  149.8622 H   0  0  0  0  0  0  0  0  0  0  0  0
  144.0984  134.9422  150.4332 H   0  0  0  0  0  0  0  0  0  0  0  0
  1  2  1  0  0  0  0
  1 17  1  0  0  0  0
  1 18  1  0  0  0  0
  1 19  1  0  0  0  0
  2 16  1  0  0  0  0
  2  3  1  0  0  0  0
  2 20  1  0  0  0  0
  3  4  1  0  0  0  0
  3 21  1  0  0  0  0
  3 22  1  0  0  0  0
  4  5  1  0  0  0  0
  4 23  1  0  0  0  0
  4 24  1  0  0  0  0
  5  6  1  0  0  0  0
  5 25  1  0  0  0  0
  5 26  1  0  0  0  0
  6  7  1  0  0  0  0
  6 16  1  0  0  0  0
  6 27  1  0  0  0  0
  7  8  1  0  0  0  0
  7 28  1  0  0  0  0
  8  9  2  0  0  0  0
  8 10  1  0  0  0  0
 10 11  1  0  0  0  0
 10 29  1  0  0  0  0
 11 15  1  0  0  0  0
 11 12  2  0  0  0  0
 12 13  1  0  0  0  0
 13 14  2  0  0  0  0
 14 15  1  0  0  0  0
 14 30  1  0  0  0  0
 16 31  1  0  0  0  0
 16 32  1  0  0  0  0
M  END
> <s_m_source_file>
AV-unprocessed.smi

> <i_m_source_file_index>
1749

> <i_lp_mmshare_version>
43012

> <i_f3d_flags>
0

> <s_epik_input>
W0NIM11bQ0BASF0xW0NIMl1bQ0gyXVtDSDJdW0NASF0oW0NIMl0xKVtOSF1DKD1PKVtOSF1jMm5uW2NIXXMy

> <s_epik_cmdline>
J2VwaWtfcHl0aG9uJywgJy1waCcsICc3LjAnLCAnLXRuJywgJzgnLCAnLW1hJywgJzIwMCcsICctbWV0YWxfYmluZGluZycsICctaW1hZScsICc8aW5maWxlLm1hZT4nLCAnLW9tYWUnLCAnPG91dGZpbGUubWFlPic=

> <r_lp_tautomer_probability>
1

> <r_epik_Ionization_Penalty>
0.000318591

> <r_epik_Ionization_Penalty_Charging>
0

> <r_epik_Ionization_Penalty_Neutral>
0.000318591

> <r_epik_State_Penalty>
-0

> <r_epik_Charging_Adjusted_Penalty>
0

> <i_epik_Tot_Q>
0

> <i_epik_Tot_abs_Q>
0

> <r_epik_Metal_State_Penalty>
0.169791

> <b_epik_Metal_Only>
0

> <s_lp_Force_Field>
OPLS_2005

> <r_lp_Energy>
10.2552

> <b_lp_Chiralities_Consistent>
1

> <s_lp_Variant>
AV-unprocessed.smi:1749-1

> <Gold.Version>
5.8.1

> <Gold.Id.Protein>
6NUR|6NUR_protein|mol2

> <Gold.PLP.Fitness>
34.0159

> <Gold.PLP.PLP>
-23.7491

> <Gold.PLP.part.hbond>
-3.9865

> <Gold.PLP.part.metal>
0.0000

> <Gold.PLP.part.buried>
-1.5906

> <Gold.PLP.part.nonpolar>
-20.7943

> <Gold.PLP.part.repulsive>
2.0977

> <Gold.PLP.ligand.clash>
0.0000

> <Gold.PLP.ligand.torsion>
0.2213

> <Gold.PLP.Chemscore.Hbond>
2.5680

> <Gold.PLP.Chemscore.CHOScore>
1.0000

> <Gold.PLP.Chemscore.Metal>
0.0000

> <Gold.Chemscore.Hbonds>
donor molecule, donor type, donor heavy atom, donor atom, acceptor molecule, acceptor atom, score
      L1  H     7    28       P1  7948  0.80
      L1  H    10    29       P1  7948  1.00
      P1  H  7989  7998       L1    13  0.76
      L1  C    14    30       P1  8028  1.00

> <Gold.PLP.Chemscore.Internal.Correction>
0.0053

> <Gold.Rescore>
     Score         DG    S(hbond)    S(metal)    S(lipo)     H(rot)  DE(clash)    DE(int)     intcor
     13.56     -14.54       1.89        0.00      45.36       1.00       0.06       0.92       ----

> <Gold.Chemscore.Fitness>
13.5617

> <Gold.Chemscore.DG>
-14.5446

> <Gold.Chemscore.ZeroCoef>
-5.4800

> <Gold.Chemscore.Hbond>
1.8913

> <Gold.Chemscore.Metal>
0.0000

> <Gold.Chemscore.Lipo>
45.3646

> <Gold.Chemscore.Internal_Hbond>
0.0000

> <Gold.Chemscore.DEClash>
0.0625

> <Gold.Chemscore.DEInternal>
0.9204

> <Gold.Chemscore.Rot>
1.0000

> <Gold.Chemscore.Internal.Correction>
   9.000000E+99

> <Gold.Chemscore.Hbonds>
donor molecule, donor type, donor heavy atom, donor atom, acceptor molecule, acceptor atom, score
      L1  H     7    28       P1  7948  0.80
      L1  H    10    29       P1  7948  0.95
      P1  H  7989  7998       L1    13  0.08

> <Gold.Chemscore.Hbond.Weighted>
-6.3169

> <Gold.Chemscore.Metal.Weighted>
-0.0000

> <Gold.Chemscore.Lipo.Weighted>
-5.3077

> <Gold.Chemscore.Internal_Hbond.Weighted>
0.0000

> <Gold.Chemscore.DEClash.Weighted>
0.0625

> <Gold.Chemscore.DEInternal.Weighted>
0.9204

> <Gold.Chemscore.Rot.Weighted>
2.5600

> <Gold.Chemscore.Internal.Correction.Weighted>
   9.000000E+99

> <Gold.Protein.RotatedTorsions>
[ 6907 6896 6895 6894 ] final -123.23 input  -60.11 | X-H torsion
[ 7974 7965 7964 7962 ] final   32.63 input  175.53 | X-H torsion
[ 8008 7997 7996 7995 ] final -160.82 input   59.86 | X-H torsion
[ 10167 10162 10161 10158 ] final   72.40 input  -65.29 | X-H torsion
[ 10718 10713 10712 10709 ] final  168.85 input   66.30 | X-H torsion
[ 10763 10752 10751 10750 ] final   40.36 input  -60.55 | X-H torsion
[ 11005 11000 10999 10996 ] final  115.33 input  -57.11 | X-H torsion

> <Gold.Protein.ActiveResidues>
 VAL166  LYS551  ARG553  GLY616  TRP617  ASP618  TYR619  PRO620  LYS621  CYS622 
 ASP623  PHE694  ASN695  SER759  ASP760  ASP761  ALA762  ILE779  LEU786  VAL792 
 PHE793  MET794  SER795  GLU796  ALA797  LYS798  CYS799  TRP800  GLU811  SER814 

> <Gold.Protein.RotatedAtoms>
  150.8651  133.7586  159.2979 H   0  0  0  0  0  0  0  0  0  0  0  0  # atno 6907 bound_to 6896
  151.5216  135.1065  159.9889 H   0  0  0  0  0  0  0  0  0  0  0  0  # atno 6908 bound_to 6896
  152.4655  133.7869  159.6937 H   0  0  0  0  0  0  0  0  0  0  0  0  # atno 6909 bound_to 6896
  146.1474  139.6501  142.9122 H   0  0  0  0  0  0  0  0  0  0  0  0  # atno 7974 bound_to 7965
  155.7831  140.0868  157.2049 H   0  0  0  0  0  0  0  0  0  0  0  0  # atno 8008 bound_to 7997
  154.3989  140.1504  156.3132 H   0  0  0  0  0  0  0  0  0  0  0  0  # atno 8009 bound_to 7997
  155.8634  140.3429  155.5774 H   0  0  0  0  0  0  0  0  0  0  0  0  # atno 8010 bound_to 7997
  140.0357  144.5430  150.7473 H   0  0  0  0  0  0  0  0  0  0  0  0  # atno 10167 bound_to 10162
  157.0311  131.0260  151.2744 H   0  0  0  0  0  0  0  0  0  0  0  0  # atno 10718 bound_to 10713
  152.9938  135.6193  154.2614 H   0  0  0  0  0  0  0  0  0  0  0  0  # atno 10763 bound_to 10752
  154.2350  135.2790  155.2877 H   0  0  0  0  0  0  0  0  0  0  0  0  # atno 10764 bound_to 10752
  154.5417  135.5759  153.6903 H   0  0  0  0  0  0  0  0  0  0  0  0  # atno 10765 bound_to 10752
  139.9007  134.9582  156.7029 H   0  0  0  0  0  0  0  0  0  0  0  0  # atno 11005 bound_to 11000
  145.4906  141.0438  143.2595 LP  0  0  0  0  0  0  0  0  0  0  0  0  # atno 17320 bound_to 7965
  144.7862  139.6422  143.7133 LP  0  0  0  0  0  0  0  0  0  0  0  0  # atno 17321 bound_to 7965
  140.7282  143.2660  151.4044 LP  0  0  0  0  0  0  0  0  0  0  0  0  # atno 17342 bound_to 10162
  139.6047  144.1222  152.2236 LP  0  0  0  0  0  0  0  0  0  0  0  0  # atno 17343 bound_to 10162
  157.5177  130.7978  149.7774 LP  0  0  0  0  0  0  0  0  0  0  0  0  # atno 17370 bound_to 10713
  156.0069  130.3851  150.2399 LP  0  0  0  0  0  0  0  0  0  0  0  0  # atno 17371 bound_to 10713
  140.7136  133.9202  155.8100 LP  0  0  0  0  0  0  0  0  0  0  0  0  # atno 17394 bound_to 11000
  141.0281  134.0794  157.4045 LP  0  0  0  0  0  0  0  0  0  0  0  0  # atno 17395 bound_to 11000

$$$$
