AV-unprocessed.smi:2001|AV-procd|sdf|8105|dock5
  -GOLD-   2272010333D 1   1.00000     0.00000
 Structure written by MMmdl.
 51 52  0  0  0  0  0  0  0  0  2 V2000
  152.3115  141.3622  159.6007 C   0  0  0  0  0  0  0  0  0  0  0  0
  151.3506  142.3414  159.2465 O   0  0  0  0  0  0  0  0  0  0  0  0
  150.5502  141.9441  158.1462 C   0  0  0  0  0  0  0  0  0  0  0  0
  151.4309  141.8826  156.8891 C   0  0  0  0  0  0  0  0  0  0  0  0
  151.1140  140.7121  156.0647 N   0  0  0  0  0  0  0  0  0  0  0  0
  149.9433  140.8355  155.3347 N   0  0  0  0  0  0  0  0  0  0  0  0
  149.5494  139.8691  154.5695 C   0  0  0  0  0  0  0  0  0  0  0  0
  148.2928  139.9594  153.7747 C   0  0  0  0  0  0  0  0  0  0  0  0
  147.4899  140.8817  153.9260 O   0  0  0  0  0  0  0  0  0  0  0  0
  148.1013  138.9709  152.8838 N   0  0  0  0  0  0  0  0  0  0  0  0
  146.9560  138.8741  151.9894 C   0  0  0  0  0  0  0  0  0  0  0  0
  145.8286  138.0610  152.6464 C   0  0  0  0  0  0  0  0  0  0  0  0
  145.9554  136.6017  152.4037 N   0  3  1  0  0  0  0  0  0  0  0  0
  145.9389  135.8224  153.6644 C   0  0  0  0  0  0  0  0  0  0  0  0
  146.1345  134.3212  153.3799 C   0  0  1  0  0  0  0  0  0  0  0  0
  146.0378  133.4752  154.6541 C   0  0  0  0  0  0  0  0  0  0  0  0
  145.1223  133.8838  152.4803 O   0  0  0  0  0  0  0  0  0  0  0  0
  145.1767  134.5552  151.2266 C   0  0  1  0  0  0  0  0  0  0  0  0
  144.1127  133.9412  150.3097 C   0  0  0  0  0  0  0  0  0  0  0  0
  144.9514  136.0625  151.4529 C   0  0  0  0  0  0  0  0  0  0  0  0
  150.3249  138.6453  154.4574 C   0  0  0  0  0  0  0  0  0  0  0  0
  151.4679  138.5424  155.1704 C   0  0  0  0  0  0  0  0  0  0  0  0
  151.9366  139.6202  156.0428 C   0  0  0  0  0  0  0  0  0  0  0  0
  152.9773  139.5530  156.6959 O   0  0  0  0  0  0  0  0  0  0  0  0
  152.9003  141.7163  160.4468 H   0  0  0  0  0  0  0  0  0  0  0  0
  152.9952  141.1628  158.7747 H   0  0  0  0  0  0  0  0  0  0  0  0
  151.8325  140.4266  159.8922 H   0  0  0  0  0  0  0  0  0  0  0  0
  150.1084  140.9656  158.3431 H   0  0  0  0  0  0  0  0  0  0  0  0
  149.7332  142.6536  158.0050 H   0  0  0  0  0  0  0  0  0  0  0  0
  151.3184  142.7998  156.3082 H   0  0  0  0  0  0  0  0  0  0  0  0
  152.4814  141.8551  157.1847 H   0  0  0  0  0  0  0  0  0  0  0  0
  148.8044  138.2484  152.8181 H   0  0  0  0  0  0  0  0  0  0  0  0
  146.6153  139.8802  151.7434 H   0  0  0  0  0  0  0  0  0  0  0  0
  147.2712  138.4009  151.0584 H   0  0  0  0  0  0  0  0  0  0  0  0
  145.8611  138.2433  153.7217 H   0  0  0  0  0  0  0  0  0  0  0  0
  144.8524  138.4077  152.3034 H   0  0  0  0  0  0  0  0  0  0  0  0
  146.7313  136.1757  154.3258 H   0  0  0  0  0  0  0  0  0  0  0  0
  144.9922  135.9885  154.1814 H   0  0  0  0  0  0  0  0  0  0  0  0
  147.1138  134.1560  152.9272 H   0  0  0  0  0  0  0  0  0  0  0  0
  146.7964  133.7697  155.3796 H   0  0  0  0  0  0  0  0  0  0  0  0
  146.1836  132.4178  154.4316 H   0  0  0  0  0  0  0  0  0  0  0  0
  145.0615  133.5838  155.1276 H   0  0  0  0  0  0  0  0  0  0  0  0
  146.1571  134.3938  150.7749 H   0  0  0  0  0  0  0  0  0  0  0  0
  144.1170  134.4168  149.3286 H   0  0  0  0  0  0  0  0  0  0  0  0
  143.1137  134.0538  150.7321 H   0  0  0  0  0  0  0  0  0  0  0  0
  144.2930  132.8762  150.1625 H   0  0  0  0  0  0  0  0  0  0  0  0
  143.9479  136.2391  151.8438 H   0  0  0  0  0  0  0  0  0  0  0  0
  145.0175  136.5795  150.4963 H   0  0  0  0  0  0  0  0  0  0  0  0
  150.0034  137.8337  153.8209 H   0  0  0  0  0  0  0  0  0  0  0  0
  152.0548  137.6387  155.0957 H   0  0  0  0  0  0  0  0  0  0  0  0
  146.8650  136.4532  151.9898 H   0  0  0  0  0  0  0  0  0  0  0  0
  1  2  1  0  0  0  0
  1 25  1  0  0  0  0
  1 26  1  0  0  0  0
  1 27  1  0  0  0  0
  2  3  1  0  0  0  0
  3  4  1  0  0  0  0
  3 28  1  0  0  0  0
  3 29  1  0  0  0  0
  4  5  1  0  0  0  0
  4 30  1  0  0  0  0
  4 31  1  0  0  0  0
  5 23  1  0  0  0  0
  5  6  1  0  0  0  0
  6  7  2  0  0  0  0
  7  8  1  0  0  0  0
  7 21  1  0  0  0  0
  8  9  2  0  0  0  0
  8 10  1  0  0  0  0
 10 11  1  0  0  0  0
 10 32  1  0  0  0  0
 11 12  1  0  0  0  0
 11 33  1  0  0  0  0
 11 34  1  0  0  0  0
 12 13  1  0  0  0  0
 12 35  1  0  0  0  0
 12 36  1  0  0  0  0
 13 20  1  0  0  0  0
 13 14  1  0  0  0  0
 13 51  1  0  0  0  0
 14 15  1  0  0  0  0
 14 37  1  0  0  0  0
 14 38  1  0  0  0  0
 15 16  1  0  0  0  0
 15 17  1  0  0  0  0
 15 39  1  0  0  0  0
 16 40  1  0  0  0  0
 16 41  1  0  0  0  0
 16 42  1  0  0  0  0
 17 18  1  0  0  0  0
 18 19  1  0  0  0  0
 18 20  1  0  0  0  0
 18 43  1  0  0  0  0
 19 44  1  0  0  0  0
 19 45  1  0  0  0  0
 19 46  1  0  0  0  0
 20 47  1  0  0  0  0
 20 48  1  0  0  0  0
 21 22  2  0  0  0  0
 21 49  1  0  0  0  0
 22 23  1  0  0  0  0
 22 50  1  0  0  0  0
 23 24  2  0  0  0  0
M  CHG  1  13   1
M  END
> <s_m_source_file>
AV-unprocessed.smi

> <i_m_source_file_index>
2001

> <i_lp_mmshare_version>
43012

> <i_f3d_flags>
0

> <s_epik_input>
W0NIM11PW0NIMl1bQ0gyXW4xbmMoW2NIXVtjSF1jMT1PKUMoPU8pW05IXVtDSDJdW0NIMl1OMltDSDJdW0NAQEhdKFtDSDNdKU9bQ0BASF0oW0NIM10pW0NIMl0y

> <s_epik_cmdline>
J2VwaWtfcHl0aG9uJywgJy1waCcsICc3LjAnLCAnLXRuJywgJzgnLCAnLW1hJywgJzIwMCcsICctbWV0YWxfYmluZGluZycsICctaW1hZScsICc8aW5maWxlLm1hZT4nLCAnLW9tYWUnLCAnPG91dGZpbGUubWFlPic=

> <r_lp_tautomer_probability>
1

> <r_epik_Ionization_Penalty>
0.724354

> <r_epik_Ionization_Penalty_Charging>
0.724348

> <r_epik_Ionization_Penalty_Neutral>
6.1656e-06

> <r_epik_State_Penalty>
0.749058

> <r_epik_Charging_Adjusted_Penalty>
1.47341

> <i_epik_Tot_Q>
1

> <i_epik_Tot_abs_Q>
1

> <r_epik_Metal_State_Penalty>
0.750779

> <b_epik_Metal_Only>
0

> <s_lp_Force_Field>
OPLS_2005

> <r_lp_Energy>
35.6345

> <b_lp_Chiralities_Consistent>
1

> <s_lp_Variant>
AV-unprocessed.smi:2001-4

> <Gold.Version>
5.8.1

> <Gold.Id.Protein>
6NUR|6NUR_protein|mol2

> <Gold.PLP.Fitness>
51.8255

> <Gold.PLP.PLP>
-43.6714

> <Gold.PLP.part.hbond>
-4.5212

> <Gold.PLP.part.metal>
0.0000

> <Gold.PLP.part.buried>
-3.6987

> <Gold.PLP.part.nonpolar>
-36.4416

> <Gold.PLP.part.repulsive>
0.4218

> <Gold.PLP.ligand.clash>
0.2381

> <Gold.PLP.ligand.torsion>
1.5965

> <Gold.PLP.Chemscore.Hbond>
3.7454

> <Gold.PLP.Chemscore.CHOScore>
0.0000

> <Gold.PLP.Chemscore.Metal>
0.0000

> <Gold.Chemscore.Hbonds>
donor molecule, donor type, donor heavy atom, donor atom, acceptor molecule, acceptor atom, score
      L1  H    10    32       P1  7948  0.41
      L1  H    13    51       P1  7948  1.76
      P1  H  7997  8010       L1    24  0.89

> <Gold.PLP.Chemscore.Internal.Correction>
0.3491

> <Gold.Rescore>
     Score         DG    S(hbond)    S(metal)    S(lipo)     H(rot)  DE(clash)    DE(int)     intcor
     17.29     -19.46       2.73        0.00      86.86       2.07       0.34       1.82       ----

> <Gold.Chemscore.Fitness>
17.2949

> <Gold.Chemscore.DG>
-19.4625

> <Gold.Chemscore.ZeroCoef>
-5.4800

> <Gold.Chemscore.Hbond>
2.7319

> <Gold.Chemscore.Metal>
0.0000

> <Gold.Chemscore.Lipo>
86.8605

> <Gold.Chemscore.Internal_Hbond>
0.0000

> <Gold.Chemscore.DEClash>
0.3445

> <Gold.Chemscore.DEInternal>
1.8231

> <Gold.Chemscore.Rot>
2.0721

> <Gold.Chemscore.Internal.Correction>
   9.000000E+99

> <Gold.Chemscore.Hbonds>
donor molecule, donor type, donor heavy atom, donor atom, acceptor molecule, acceptor atom, score
      L1  H    10    32       P1  7948  0.42
      L1  H    13    51       P1  7948  0.84
      P1  H  7997  8010       L1    24  0.86

> <Gold.Chemscore.Hbond.Weighted>
-9.1245

> <Gold.Chemscore.Metal.Weighted>
-0.0000

> <Gold.Chemscore.Lipo.Weighted>
-10.1627

> <Gold.Chemscore.Internal_Hbond.Weighted>
0.0000

> <Gold.Chemscore.DEClash.Weighted>
0.3445

> <Gold.Chemscore.DEInternal.Weighted>
1.8231

> <Gold.Chemscore.Rot.Weighted>
5.3047

> <Gold.Chemscore.Internal.Correction.Weighted>
   9.000000E+99

> <Gold.Protein.RotatedTorsions>
[ 6907 6896 6895 6894 ] final  160.63 input  -60.11 | X-H torsion
[ 7974 7965 7964 7962 ] final -150.57 input  175.53 | X-H torsion
[ 8008 7997 7996 7995 ] final   64.60 input   59.86 | X-H torsion
[ 10167 10162 10161 10158 ] final  -23.57 input  -65.29 | X-H torsion
[ 10718 10713 10712 10709 ] final  -11.00 input   66.30 | X-H torsion
[ 10763 10752 10751 10750 ] final   32.66 input  -60.55 | X-H torsion
[ 11005 11000 10999 10996 ] final  149.39 input  -57.11 | X-H torsion

> <Gold.Protein.ActiveResidues>
 VAL166  LYS551  ARG553  GLY616  TRP617  ASP618  TYR619  PRO620  LYS621  CYS622 
 ASP623  PHE694  ASN695  SER759  ASP760  ASP761  ALA762  ILE779  LEU786  VAL792 
 PHE793  MET794  SER795  GLU796  ALA797  LYS798  CYS799  TRP800  GLU811  SER814 

> <Gold.Protein.RotatedAtoms>
  151.9678  133.3716  159.4059 H   0  0  0  0  0  0  0  0  0  0  0  0  # atno 6907 bound_to 6896
  150.6954  134.4172  159.5198 H   0  0  0  0  0  0  0  0  0  0  0  0  # atno 6908 bound_to 6896
  152.1871  134.8704  160.0572 H   0  0  0  0  0  0  0  0  0  0  0  0  # atno 6909 bound_to 6896
  144.7900  140.4914  143.5779 H   0  0  0  0  0  0  0  0  0  0  0  0  # atno 7974 bound_to 7965
  155.6486  140.3497  155.4740 H   0  0  0  0  0  0  0  0  0  0  0  0  # atno 8008 bound_to 7997
  155.9866  140.1185  157.0700 H   0  0  0  0  0  0  0  0  0  0  0  0  # atno 8009 bound_to 7997
  154.4207  140.1127  156.5495 H   0  0  0  0  0  0  0  0  0  0  0  0  # atno 8010 bound_to 7997
  140.7288  143.4431  151.0628 H   0  0  0  0  0  0  0  0  0  0  0  0  # atno 10167 bound_to 10162
  156.6654  130.4994  149.6017 H   0  0  0  0  0  0  0  0  0  0  0  0  # atno 10718 bound_to 10713
  153.0251  135.6407  154.1390 H   0  0  0  0  0  0  0  0  0  0  0  0  # atno 10763 bound_to 10752
  154.1120  135.2852  155.3230 H   0  0  0  0  0  0  0  0  0  0  0  0  # atno 10764 bound_to 10752
  154.6324  135.5488  153.7759 H   0  0  0  0  0  0  0  0  0  0  0  0  # atno 10765 bound_to 10752
  140.1041  134.8965  157.1840 H   0  0  0  0  0  0  0  0  0  0  0  0  # atno 11005 bound_to 11000
  145.5820  139.1489  143.3230 LP  0  0  0  0  0  0  0  0  0  0  0  0  # atno 17320 bound_to 7965
  146.2148  140.5949  142.9043 LP  0  0  0  0  0  0  0  0  0  0  0  0  # atno 17321 bound_to 7965
  139.8100  143.7965  152.3170 LP  0  0  0  0  0  0  0  0  0  0  0  0  # atno 17342 bound_to 10162
  139.8011  144.7374  150.9824 LP  0  0  0  0  0  0  0  0  0  0  0  0  # atno 17343 bound_to 10162
  156.1979  130.6601  151.1135 LP  0  0  0  0  0  0  0  0  0  0  0  0  # atno 17370 bound_to 10713
  157.7095  131.0741  150.6549 LP  0  0  0  0  0  0  0  0  0  0  0  0  # atno 17371 bound_to 10713
  140.3180  134.2949  155.7252 LP  0  0  0  0  0  0  0  0  0  0  0  0  # atno 17394 bound_to 11000
  141.2113  133.7692  156.9870 LP  0  0  0  0  0  0  0  0  0  0  0  0  # atno 17395 bound_to 11000

$$$$
