AV-unprocessed.smi:1636|AV-procd|sdf|6543|dock5
  -GOLD-   22720 7223D 1   1.00000     0.00000
 Structure written by MMmdl.
 43 44  0  0  0  0  0  0  0  0  1 V2000
  152.5808  143.8267  159.6227 C   0  0  0  0  0  0  0  0  0  0  0  0
  151.9609  142.4690  159.2751 C   0  0  1  0  0  0  0  0  0  0  0  0
  151.2223  142.4997  157.9235 C   0  0  0  0  0  0  0  0  0  0  0  0
  150.7475  141.1666  157.5615 N   0  0  0  0  0  0  0  0  0  0  0  0
  149.8076  141.0435  156.5119 C   0  0  0  0  0  0  0  0  0  0  0  0
  148.4644  141.4805  156.6442 C   0  0  0  0  0  0  0  0  0  0  0  0
  147.5789  141.3220  155.5611 C   0  0  0  0  0  0  0  0  0  0  0  0
  148.0484  140.7357  154.3704 C   0  0  0  0  0  0  0  0  0  0  0  0
  147.1134  140.5460  153.1849 C   0  0  0  0  0  0  0  0  0  0  0  0
  146.4714  139.2363  153.1343 N   0  0  0  0  0  0  0  0  0  0  0  0
  146.4601  138.4320  152.0622 C   0  0  0  0  0  0  0  0  0  0  0  0
  146.9954  138.7071  150.9881 O   0  0  0  0  0  0  0  0  0  0  0  0
  145.7952  137.2932  152.3005 N   0  0  0  0  0  0  0  0  0  0  0  0
  145.6076  136.2188  151.3329 C   0  0  0  0  0  0  0  0  0  0  0  0
  144.1904  135.6301  151.4097 C   0  0  0  0  0  0  0  0  0  0  0  0
  144.0491  134.5995  150.4566 O   0  0  0  0  0  0  0  0  0  0  0  0
  149.3965  140.3236  154.3297 C   0  0  0  0  0  0  0  0  0  0  0  0
  150.2492  140.4720  155.3649 N   0  0  0  0  0  0  0  0  0  0  0  0
  151.7752  140.1291  157.6442 C   0  0  0  0  0  0  0  0  0  0  0  0
  152.4987  140.1893  158.9993 C   0  0  0  0  0  0  0  0  0  0  0  0
  153.0039  141.5013  159.2186 O   0  0  0  0  0  0  0  0  0  0  0  0
  151.8156  144.6003  159.6936 H   0  0  0  0  0  0  0  0  0  0  0  0
  153.3023  144.1374  158.8663 H   0  0  0  0  0  0  0  0  0  0  0  0
  153.0994  143.7840  160.5807 H   0  0  0  0  0  0  0  0  0  0  0  0
  151.2627  142.1955  160.0682 H   0  0  0  0  0  0  0  0  0  0  0  0
  150.3821  143.1899  158.0034 H   0  0  0  0  0  0  0  0  0  0  0  0
  151.8824  142.8700  157.1381 H   0  0  0  0  0  0  0  0  0  0  0  0
  148.0944  141.9424  157.5467 H   0  0  0  0  0  0  0  0  0  0  0  0
  146.5537  141.6511  155.6464 H   0  0  0  0  0  0  0  0  0  0  0  0
  146.3323  141.3041  153.2426 H   0  0  0  0  0  0  0  0  0  0  0  0
  147.6509  140.7277  152.2525 H   0  0  0  0  0  0  0  0  0  0  0  0
  146.0027  138.9241  153.9722 H   0  0  0  0  0  0  0  0  0  0  0  0
  145.3924  137.1574  153.2159 H   0  0  0  0  0  0  0  0  0  0  0  0
  145.8221  136.5778  150.3247 H   0  0  0  0  0  0  0  0  0  0  0  0
  146.3436  135.4440  151.5501 H   0  0  0  0  0  0  0  0  0  0  0  0
  143.9959  135.2204  152.4012 H   0  0  0  0  0  0  0  0  0  0  0  0
  143.4384  136.3961  151.2187 H   0  0  0  0  0  0  0  0  0  0  0  0
  143.2101  134.6955  150.0320 H   0  0  0  0  0  0  0  0  0  0  0  0
  149.8073  139.8580  153.4460 H   0  0  0  0  0  0  0  0  0  0  0  0
  151.3542  139.1317  157.5201 H   0  0  0  0  0  0  0  0  0  0  0  0
  152.4887  140.2774  156.8329 H   0  0  0  0  0  0  0  0  0  0  0  0
  151.8279  139.9041  159.8113 H   0  0  0  0  0  0  0  0  0  0  0  0
  153.3288  139.4833  159.0117 H   0  0  0  0  0  0  0  0  0  0  0  0
  1  2  1  0  0  0  0
  1 22  1  0  0  0  0
  1 23  1  0  0  0  0
  1 24  1  0  0  0  0
  2 21  1  0  0  0  0
  2  3  1  0  0  0  0
  2 25  1  0  0  0  0
  3  4  1  0  0  0  0
  3 26  1  0  0  0  0
  3 27  1  0  0  0  0
  4  5  1  0  0  0  0
  4 19  1  0  0  0  0
  5 18  1  0  0  0  0
  5  6  2  0  0  0  0
  6  7  1  0  0  0  0
  6 28  1  0  0  0  0
  7  8  2  0  0  0  0
  7 29  1  0  0  0  0
  8  9  1  0  0  0  0
  8 17  1  0  0  0  0
  9 10  1  0  0  0  0
  9 30  1  0  0  0  0
  9 31  1  0  0  0  0
 10 11  1  0  0  0  0
 10 32  1  0  0  0  0
 11 12  2  0  0  0  0
 11 13  1  0  0  0  0
 13 14  1  0  0  0  0
 13 33  1  0  0  0  0
 14 15  1  0  0  0  0
 14 34  1  0  0  0  0
 14 35  1  0  0  0  0
 15 16  1  0  0  0  0
 15 36  1  0  0  0  0
 15 37  1  0  0  0  0
 16 38  1  0  0  0  0
 17 18  2  0  0  0  0
 17 39  1  0  0  0  0
 19 20  1  0  0  0  0
 19 40  1  0  0  0  0
 19 41  1  0  0  0  0
 20 21  1  0  0  0  0
 20 42  1  0  0  0  0
 20 43  1  0  0  0  0
M  END
> <s_m_source_file>
AV-unprocessed.smi

> <i_m_source_file_index>
1636

> <i_lp_mmshare_version>
43012

> <i_f3d_flags>
0

> <s_epik_input>
W0NIM11bQ0BASF0xW0NIMl1OKFtDSDJdW0NIMl1PMSljMltjSF1bY0hdYyhbY0hdbjIpW0NIMl1bTkhdQyg9TylbTkhdW0NIMl1bQ0gyXVtPSF0=

> <s_epik_cmdline>
J2VwaWtfcHl0aG9uJywgJy1waCcsICc3LjAnLCAnLXRuJywgJzgnLCAnLW1hJywgJzIwMCcsICctbWV0YWxfYmluZGluZycsICctaW1hZScsICc8aW5maWxlLm1hZT4nLCAnLW9tYWUnLCAnPG91dGZpbGUubWFlPic=

> <r_lp_tautomer_probability>
1

> <r_epik_Ionization_Penalty>
0.00695222

> <r_epik_Ionization_Penalty_Charging>
0

> <r_epik_Ionization_Penalty_Neutral>
0.00695222

> <r_epik_State_Penalty>
0.00513345

> <r_epik_Charging_Adjusted_Penalty>
0.00513345

> <i_epik_Tot_Q>
0

> <i_epik_Tot_abs_Q>
0

> <r_epik_Metal_State_Penalty>
-0

> <b_epik_Metal_Only>
0

> <s_lp_Force_Field>
OPLS_2005

> <r_lp_Energy>
12.451

> <b_lp_Chiralities_Consistent>
1

> <s_lp_Variant>
AV-unprocessed.smi:1636-2

> <Gold.Version>
5.8.1

> <Gold.Id.Protein>
6NUR|6NUR_protein|mol2

> <Gold.PLP.Fitness>
43.4907

> <Gold.PLP.PLP>
-36.0560

> <Gold.PLP.part.hbond>
-3.0622

> <Gold.PLP.part.metal>
0.0000

> <Gold.PLP.part.buried>
-7.1100

> <Gold.PLP.part.nonpolar>
-28.9740

> <Gold.PLP.part.repulsive>
1.0043

> <Gold.PLP.ligand.clash>
0.0000

> <Gold.PLP.ligand.torsion>
0.9961

> <Gold.PLP.Chemscore.Hbond>
1.9913

> <Gold.PLP.Chemscore.CHOScore>
1.0000

> <Gold.PLP.Chemscore.Metal>
0.0000

> <Gold.Chemscore.Hbonds>
donor molecule, donor type, donor heavy atom, donor atom, acceptor molecule, acceptor atom, score
      L1  H    16    38       P1 10186  0.42
      P1  H  7954  7966       L1    12  0.93
      L1  C    17    39       P1  7957  1.00

> <Gold.PLP.Chemscore.Internal.Correction>
0.4532

> <Gold.Rescore>
     Score         DG    S(hbond)    S(metal)    S(lipo)     H(rot)  DE(clash)    DE(int)     intcor
     12.15     -13.15       1.62        0.00      80.21       2.78       0.13       0.87       ----

> <Gold.Chemscore.Fitness>
12.1505

> <Gold.Chemscore.DG>
-13.1518

> <Gold.Chemscore.ZeroCoef>
-5.4800

> <Gold.Chemscore.Hbond>
1.6201

> <Gold.Chemscore.Metal>
0.0000

> <Gold.Chemscore.Lipo>
80.2127

> <Gold.Chemscore.Internal_Hbond>
0.0000

> <Gold.Chemscore.DEClash>
0.1263

> <Gold.Chemscore.DEInternal>
0.8750

> <Gold.Chemscore.Rot>
2.7828

> <Gold.Chemscore.Internal.Correction>
   9.000000E+99

> <Gold.Chemscore.Hbonds>
donor molecule, donor type, donor heavy atom, donor atom, acceptor molecule, acceptor atom, score
      L1  H    16    38       P1 10186  0.31
      P1  H  7954  7966       L1    12  0.91

> <Gold.Chemscore.Hbond.Weighted>
-5.4110

> <Gold.Chemscore.Metal.Weighted>
-0.0000

> <Gold.Chemscore.Lipo.Weighted>
-9.3849

> <Gold.Chemscore.Internal_Hbond.Weighted>
0.0000

> <Gold.Chemscore.DEClash.Weighted>
0.1263

> <Gold.Chemscore.DEInternal.Weighted>
0.8750

> <Gold.Chemscore.Rot.Weighted>
7.1241

> <Gold.Chemscore.Internal.Correction.Weighted>
   9.000000E+99

> <Gold.Protein.RotatedTorsions>
[ 6907 6896 6895 6894 ] final -103.66 input  -60.11 | X-H torsion
[ 7974 7965 7964 7962 ] final   47.66 input  175.53 | X-H torsion
[ 8008 7997 7996 7995 ] final   71.11 input   59.86 | X-H torsion
[ 10167 10162 10161 10158 ] final  -36.87 input  -65.29 | X-H torsion
[ 10718 10713 10712 10709 ] final   99.43 input   66.30 | X-H torsion
[ 10763 10752 10751 10750 ] final  170.52 input  -60.55 | X-H torsion
[ 11005 11000 10999 10996 ] final -165.33 input  -57.11 | X-H torsion

> <Gold.Protein.ActiveResidues>
 VAL166  LYS551  ARG553  GLY616  TRP617  ASP618  TYR619  PRO620  LYS621  CYS622 
 ASP623  PHE694  ASN695  SER759  ASP760  ASP761  ALA762  ILE779  LEU786  VAL792 
 PHE793  MET794  SER795  GLU796  ALA797  LYS798  CYS799  TRP800  GLU811  SER814 

> <Gold.Protein.RotatedAtoms>
  150.7250  134.0396  159.3760 H   0  0  0  0  0  0  0  0  0  0  0  0  # atno 6907 bound_to 6896
  151.8368  135.0601  160.0453 H   0  0  0  0  0  0  0  0  0  0  0  0  # atno 6908 bound_to 6896
  152.2892  133.5509  159.5583 H   0  0  0  0  0  0  0  0  0  0  0  0  # atno 6909 bound_to 6896
  146.0277  139.4725  142.9857 H   0  0  0  0  0  0  0  0  0  0  0  0  # atno 7974 bound_to 7965
  155.7490  140.3489  155.5141 H   0  0  0  0  0  0  0  0  0  0  0  0  # atno 8008 bound_to 7997
  155.9022  140.1036  157.1362 H   0  0  0  0  0  0  0  0  0  0  0  0  # atno 8009 bound_to 7997
  154.4045  140.1284  156.4438 H   0  0  0  0  0  0  0  0  0  0  0  0  # atno 8010 bound_to 7997
  140.7132  143.3379  151.2421 H   0  0  0  0  0  0  0  0  0  0  0  0  # atno 10167 bound_to 10162
  157.6876  131.0669  150.4947 H   0  0  0  0  0  0  0  0  0  0  0  0  # atno 10718 bound_to 10713
  154.3988  135.2755  155.2109 H   0  0  0  0  0  0  0  0  0  0  0  0  # atno 10763 bound_to 10752
  154.4144  135.6015  153.5975 H   0  0  0  0  0  0  0  0  0  0  0  0  # atno 10764 bound_to 10752
  152.9831  135.5957  154.4253 H   0  0  0  0  0  0  0  0  0  0  0  0  # atno 10765 bound_to 10752
  140.5769  134.5181  157.5172 H   0  0  0  0  0  0  0  0  0  0  0  0  # atno 11005 bound_to 11000
  145.7092  141.0112  143.1462 LP  0  0  0  0  0  0  0  0  0  0  0  0  # atno 17320 bound_to 7965
  144.7016  139.8736  143.7442 LP  0  0  0  0  0  0  0  0  0  0  0  0  # atno 17321 bound_to 7965
  139.6879  143.9741  152.2844 LP  0  0  0  0  0  0  0  0  0  0  0  0  # atno 17342 bound_to 10162
  139.9393  144.6692  150.8282 LP  0  0  0  0  0  0  0  0  0  0  0  0  # atno 17343 bound_to 10162
  156.5272  130.4176  149.6220 LP  0  0  0  0  0  0  0  0  0  0  0  0  # atno 17370 bound_to 10713
  156.3101  130.7224  151.2115 LP  0  0  0  0  0  0  0  0  0  0  0  0  # atno 17371 bound_to 10713
  139.9335  134.7918  156.0865 LP  0  0  0  0  0  0  0  0  0  0  0  0  # atno 17394 bound_to 11000
  141.1021  133.6673  156.2778 LP  0  0  0  0  0  0  0  0  0  0  0  0  # atno 17395 bound_to 11000

$$$$
