AV-unprocessed.smi:1985|AV-procd|sdf|8042|dock5
  -GOLD-   2272010233D 1   1.00000     0.00000
 Structure written by MMmdl.
 50 51  0  0  0  0  0  0  0  0  1 V2000
  154.7175  134.7186  165.8262 C   0  0  0  0  0  0  0  0  0  0  0  0
  153.8894  135.7396  165.0276 C   0  0  0  0  0  0  0  0  0  0  0  0
  154.6912  136.5706  163.9710 C   0  0  1  0  0  0  0  0  0  0  0  0
  155.5169  135.5501  163.1433 C   0  0  0  0  0  0  0  0  0  0  0  0
  153.6769  137.2556  162.9976 C   0  0  0  0  0  0  0  0  0  0  0  0
  154.2331  138.4272  162.3344 N   0  0  0  0  0  0  0  0  0  0  0  0
  154.4396  138.5788  161.0179 C   0  0  0  0  0  0  0  0  0  0  0  0
  154.1857  137.7007  160.1949 O   0  0  0  0  0  0  0  0  0  0  0  0
  155.0234  139.9209  160.5409 C   0  0  0  0  0  0  0  0  0  0  0  0
  154.0112  140.9077  160.1281 N   0  0  0  0  0  0  0  0  0  0  0  0
  153.7747  142.0130  160.9256 C   0  0  0  0  0  0  0  0  0  0  0  0
  152.8243  142.9347  160.6589 C   0  0  0  0  0  0  0  0  0  0  0  0
  151.9726  142.8097  159.4832 C   0  0  0  0  0  0  0  0  0  0  0  0
  151.0799  143.6111  159.2042 O   0  0  0  0  0  0  0  0  0  0  0  0
  152.2427  141.6805  158.6770 N   0  0  0  0  0  0  0  0  0  0  0  0
  151.4073  141.5105  157.5064 C   0  0  0  0  0  0  0  0  0  0  0  0
  153.2383  140.7169  158.9606 C   0  0  0  0  0  0  0  0  0  0  0  0
  153.4276  139.7309  158.2449 O   0  0  0  0  0  0  0  0  0  0  0  0
  155.5548  137.5955  164.6300 N   0  0  0  0  0  0  0  0  0  0  0  0
  154.8339  138.6696  165.3276 C   0  0  0  0  0  0  0  0  0  0  0  0
  155.7825  139.7504  165.8728 C   0  0  0  0  0  0  0  0  0  0  0  0
  156.7400  139.1551  166.7382 O   0  0  0  0  0  0  0  0  0  0  0  0
  157.5091  138.1556  166.0820 C   0  0  0  0  0  0  0  0  0  0  0  0
  156.5794  137.0584  165.5358 C   0  0  0  0  0  0  0  0  0  0  0  0
  154.0762  134.1503  166.4998 H   0  0  0  0  0  0  0  0  0  0  0  0
  155.4776  135.2047  166.4374 H   0  0  0  0  0  0  0  0  0  0  0  0
  155.2174  134.0058  165.1708 H   0  0  0  0  0  0  0  0  0  0  0  0
  153.0551  135.2230  164.5552 H   0  0  0  0  0  0  0  0  0  0  0  0
  153.3931  136.4000  165.7397 H   0  0  0  0  0  0  0  0  0  0  0  0
  154.8779  134.7936  162.6864 H   0  0  0  0  0  0  0  0  0  0  0  0
  156.2380  135.0104  163.7559 H   0  0  0  0  0  0  0  0  0  0  0  0
  156.0640  136.0273  162.3308 H   0  0  0  0  0  0  0  0  0  0  0  0
  153.3389  136.5531  162.2346 H   0  0  0  0  0  0  0  0  0  0  0  0
  152.7878  137.5827  163.5376 H   0  0  0  0  0  0  0  0  0  0  0  0
  154.4739  139.2038  162.9329 H   0  0  0  0  0  0  0  0  0  0  0  0
  155.6269  140.3335  161.3507 H   0  0  0  0  0  0  0  0  0  0  0  0
  155.7228  139.7305  159.7253 H   0  0  0  0  0  0  0  0  0  0  0  0
  154.3744  142.1440  161.8151 H   0  0  0  0  0  0  0  0  0  0  0  0
  152.6875  143.7721  161.3275 H   0  0  0  0  0  0  0  0  0  0  0  0
  151.7598  140.6895  156.8829 H   0  0  0  0  0  0  0  0  0  0  0  0
  151.4509  142.4385  156.9331 H   0  0  0  0  0  0  0  0  0  0  0  0
  150.3955  141.3095  157.8628 H   0  0  0  0  0  0  0  0  0  0  0  0
  154.1309  139.1674  164.6634 H   0  0  0  0  0  0  0  0  0  0  0  0
  154.2554  138.2619  166.1565 H   0  0  0  0  0  0  0  0  0  0  0  0
  156.2888  140.2673  165.0563 H   0  0  0  0  0  0  0  0  0  0  0  0
  155.2204  140.5018  166.4272 H   0  0  0  0  0  0  0  0  0  0  0  0
  158.0912  138.6045  165.2756 H   0  0  0  0  0  0  0  0  0  0  0  0
  158.2197  137.7308  166.7912 H   0  0  0  0  0  0  0  0  0  0  0  0
  156.1104  136.5453  166.3752 H   0  0  0  0  0  0  0  0  0  0  0  0
  157.2084  136.3297  165.0288 H   0  0  0  0  0  0  0  0  0  0  0  0
  1  2  1  0  0  0  0
  1 25  1  0  0  0  0
  1 26  1  0  0  0  0
  1 27  1  0  0  0  0
  2  3  1  0  0  0  0
  2 28  1  0  0  0  0
  2 29  1  0  0  0  0
  3  4  1  0  0  0  0
  3  5  1  0  0  0  0
  3 19  1  0  0  0  0
  4 30  1  0  0  0  0
  4 31  1  0  0  0  0
  4 32  1  0  0  0  0
  5  6  1  0  0  0  0
  5 33  1  0  0  0  0
  5 34  1  0  0  0  0
  6  7  1  0  0  0  0
  6 35  1  0  0  0  0
  7  8  2  0  0  0  0
  7  9  1  0  0  0  0
  9 10  1  0  0  0  0
  9 36  1  0  0  0  0
  9 37  1  0  0  0  0
 10 17  1  0  0  0  0
 10 11  1  0  0  0  0
 11 12  2  0  0  0  0
 11 38  1  0  0  0  0
 12 13  1  0  0  0  0
 12 39  1  0  0  0  0
 13 14  2  0  0  0  0
 13 15  1  0  0  0  0
 15 16  1  0  0  0  0
 15 17  1  0  0  0  0
 16 40  1  0  0  0  0
 16 41  1  0  0  0  0
 16 42  1  0  0  0  0
 17 18  2  0  0  0  0
 19 24  1  0  0  0  0
 19 20  1  0  0  0  0
 20 21  1  0  0  0  0
 20 43  1  0  0  0  0
 20 44  1  0  0  0  0
 21 22  1  0  0  0  0
 21 45  1  0  0  0  0
 21 46  1  0  0  0  0
 22 23  1  0  0  0  0
 23 24  1  0  0  0  0
 23 47  1  0  0  0  0
 23 48  1  0  0  0  0
 24 49  1  0  0  0  0
 24 50  1  0  0  0  0
M  END
> <s_m_source_file>
AV-unprocessed.smi

> <i_m_source_file_index>
1985

> <i_lp_mmshare_version>
43012

> <i_f3d_flags>
0

> <s_epik_input>
W0NIMl0xW0NIMl1PW0NIMl1bQ0gyXU4xW0NAQF0oW0NIM10pKFtDSDJdW0NIM10pW0NIMl1bTkhdQyg9TylbQ0gyXW4yW2NIXVtjSF1jKD1PKW4oW0NIM10pYzI9Tw==

> <s_epik_cmdline>
J2VwaWtfcHl0aG9uJywgJy1waCcsICc3LjAnLCAnLXRuJywgJzgnLCAnLW1hJywgJzIwMCcsICctbWV0YWxfYmluZGluZycsICctaW1hZScsICc8aW5maWxlLm1hZT4nLCAnLW9tYWUnLCAnPG91dGZpbGUubWFlPic=

> <r_lp_tautomer_probability>
1

> <r_epik_Ionization_Penalty>
0.318667

> <r_epik_Ionization_Penalty_Charging>
1.17294e-08

> <r_epik_Ionization_Penalty_Neutral>
0.318667

> <r_epik_State_Penalty>
0.313095

> <r_epik_Charging_Adjusted_Penalty>
0.313095

> <i_epik_Tot_Q>
0

> <i_epik_Tot_abs_Q>
0

> <r_epik_Metal_State_Penalty>
0.313065

> <b_epik_Metal_Only>
0

> <s_lp_Force_Field>
OPLS_2005

> <r_lp_Energy>
50.9195

> <b_lp_Chiralities_Consistent>
1

> <s_lp_Variant>
AV-unprocessed.smi:1985-1

> <Gold.Version>
5.8.1

> <Gold.Id.Protein>
6NUR|6NUR_protein|mol2

> <Gold.PLP.Fitness>
44.3041

> <Gold.PLP.PLP>
-43.4175

> <Gold.PLP.part.hbond>
-1.6984

> <Gold.PLP.part.metal>
0.0000

> <Gold.PLP.part.buried>
-4.8263

> <Gold.PLP.part.nonpolar>
-36.5926

> <Gold.PLP.part.repulsive>
0.2325

> <Gold.PLP.ligand.clash>
0.0000

> <Gold.PLP.ligand.torsion>
1.0417

> <Gold.PLP.Chemscore.Hbond>
0.9280

> <Gold.PLP.Chemscore.CHOScore>
0.0000

> <Gold.PLP.Chemscore.Metal>
0.0000

> <Gold.Chemscore.Hbonds>
donor molecule, donor type, donor heavy atom, donor atom, acceptor molecule, acceptor atom, score
      P1  H  7997  8009       L1    18  1.00

> <Gold.PLP.Chemscore.Internal.Correction>
0.1859

> <Gold.Rescore>
     Score         DG    S(hbond)    S(metal)    S(lipo)     H(rot)  DE(clash)    DE(int)     intcor
     11.18     -13.64       0.97        0.00      90.22       2.20       0.09       2.37       ----

> <Gold.Chemscore.Fitness>
11.1813

> <Gold.Chemscore.DG>
-13.6399

> <Gold.Chemscore.ZeroCoef>
-5.4800

> <Gold.Chemscore.Hbond>
0.9651

> <Gold.Chemscore.Metal>
0.0000

> <Gold.Chemscore.Lipo>
90.2239

> <Gold.Chemscore.Internal_Hbond>
0.0000

> <Gold.Chemscore.DEClash>
0.0933

> <Gold.Chemscore.DEInternal>
2.3653

> <Gold.Chemscore.Rot>
2.1952

> <Gold.Chemscore.Internal.Correction>
   9.000000E+99

> <Gold.Chemscore.Hbonds>
donor molecule, donor type, donor heavy atom, donor atom, acceptor molecule, acceptor atom, score
      P1  H  7997  8009       L1    18  0.78

> <Gold.Chemscore.Hbond.Weighted>
-3.2234

> <Gold.Chemscore.Metal.Weighted>
-0.0000

> <Gold.Chemscore.Lipo.Weighted>
-10.5562

> <Gold.Chemscore.Internal_Hbond.Weighted>
0.0000

> <Gold.Chemscore.DEClash.Weighted>
0.0933

> <Gold.Chemscore.DEInternal.Weighted>
2.3653

> <Gold.Chemscore.Rot.Weighted>
5.6197

> <Gold.Chemscore.Internal.Correction.Weighted>
   9.000000E+99

> <Gold.Protein.RotatedTorsions>
[ 6907 6896 6895 6894 ] final  -16.53 input  -60.11 | X-H torsion
[ 7974 7965 7964 7962 ] final  114.77 input  175.53 | X-H torsion
[ 8008 7997 7996 7995 ] final  153.25 input   59.86 | X-H torsion
[ 10167 10162 10161 10158 ] final  -66.37 input  -65.29 | X-H torsion
[ 10718 10713 10712 10709 ] final   20.51 input   66.30 | X-H torsion
[ 10763 10752 10751 10750 ] final  -26.54 input  -60.55 | X-H torsion
[ 11005 11000 10999 10996 ] final -110.62 input  -57.11 | X-H torsion

> <Gold.Protein.ActiveResidues>
 VAL166  LYS551  ARG553  GLY616  TRP617  ASP618  TYR619  PRO620  LYS621  CYS622 
 ASP623  PHE694  ASN695  SER759  ASP760  ASP761  ALA762  ILE779  LEU786  VAL792 
 PHE793  MET794  SER795  GLU796  ALA797  LYS798  CYS799  TRP800  GLU811  SER814 

> <Gold.Protein.RotatedAtoms>
  151.3071  135.0784  159.9258 H   0  0  0  0  0  0  0  0  0  0  0  0  # atno 6907 bound_to 6896
  152.5285  133.9774  159.7800 H   0  0  0  0  0  0  0  0  0  0  0  0  # atno 6908 bound_to 6896
  151.0070  133.5949  159.2718 H   0  0  0  0  0  0  0  0  0  0  0  0  # atno 6909 bound_to 6896
  145.2002  139.2956  143.4322 H   0  0  0  0  0  0  0  0  0  0  0  0  # atno 7974 bound_to 7965
  156.2590  140.1999  156.6461 H   0  0  0  0  0  0  0  0  0  0  0  0  # atno 8008 bound_to 7997
  154.6572  140.0565  157.0047 H   0  0  0  0  0  0  0  0  0  0  0  0  # atno 8009 bound_to 7997
  155.1329  140.3235  155.4472 H   0  0  0  0  0  0  0  0  0  0  0  0  # atno 8010 bound_to 7997
  140.5661  143.2315  151.6631 H   0  0  0  0  0  0  0  0  0  0  0  0  # atno 10167 bound_to 10162
  157.1255  130.6568  149.5936 H   0  0  0  0  0  0  0  0  0  0  0  0  # atno 10718 bound_to 10713
  153.7176  135.6947  153.5021 H   0  0  0  0  0  0  0  0  0  0  0  0  # atno 10763 bound_to 10752
  153.2227  135.4364  155.0506 H   0  0  0  0  0  0  0  0  0  0  0  0  # atno 10764 bound_to 10752
  154.8295  135.3464  154.6711 H   0  0  0  0  0  0  0  0  0  0  0  0  # atno 10765 bound_to 10752
  141.0781  133.9266  157.2346 H   0  0  0  0  0  0  0  0  0  0  0  0  # atno 11005 bound_to 11000
  146.3419  140.2244  142.8592 LP  0  0  0  0  0  0  0  0  0  0  0  0  # atno 17320 bound_to 7965
  144.9955  140.8585  143.5313 LP  0  0  0  0  0  0  0  0  0  0  0  0  # atno 17321 bound_to 7965
  139.5094  144.3579  152.0590 LP  0  0  0  0  0  0  0  0  0  0  0  0  # atno 17342 bound_to 10162
  140.2711  144.3963  150.6151 LP  0  0  0  0  0  0  0  0  0  0  0  0  # atno 17343 bound_to 10162
  155.9819  130.4829  150.6853 LP  0  0  0  0  0  0  0  0  0  0  0  0  # atno 17370 bound_to 10713
  157.4439  131.0864  151.0915 LP  0  0  0  0  0  0  0  0  0  0  0  0  # atno 17371 bound_to 10713
  139.9594  135.0158  156.9219 LP  0  0  0  0  0  0  0  0  0  0  0  0  # atno 17394 bound_to 11000
  140.5528  134.0611  155.7374 LP  0  0  0  0  0  0  0  0  0  0  0  0  # atno 17395 bound_to 11000

$$$$
