AV-unprocessed.smi:1957|AV-procd|sdf|7904|dock5
  -GOLD-   2272010 63D 1   1.00000     0.00000
 Structure written by MMmdl.
 42 43  0  0  0  0  0  0  0  0  1 V2000
  156.6996  140.3811  166.6128 C   0  0  0  0  0  0  0  0  0  0  0  0
  156.1217  139.1284  166.2923 O   0  0  0  0  0  0  0  0  0  0  0  0
  156.0485  138.9044  164.8934 C   0  0  0  0  0  0  0  0  0  0  0  0
  155.1140  137.7160  164.6151 C   0  0  0  0  0  0  0  0  0  0  0  0
  154.9262  137.4950  163.1770 N   0  0  0  0  0  0  0  0  0  0  0  0
  154.6886  138.6532  162.4570 N   0  0  0  0  0  0  0  0  0  0  0  0
  154.5212  138.6004  161.1752 C   0  0  0  0  0  0  0  0  0  0  0  0
  154.2711  139.8251  160.3664 C   0  0  0  0  0  0  0  0  0  0  0  0
  154.6222  139.9114  159.1884 O   0  0  0  0  0  0  0  0  0  0  0  0
  153.6405  140.8203  161.0160 N   0  0  0  0  0  0  0  0  0  0  0  0
  153.2558  142.1119  160.4485 C   0  0  2  0  0  0  0  0  0  0  0  0
  152.7336  143.0626  161.5570 C   0  0  0  0  0  0  0  0  0  0  0  0
  151.7524  144.1633  161.1024 C   0  0  0  0  0  0  0  0  0  0  0  0
  152.2480  145.0623  159.9514 C   0  0  0  0  0  0  0  0  0  0  0  0
  152.7140  144.3455  158.6619 C   0  0  0  0  0  0  0  0  0  0  0  0
  152.1140  143.0280  158.4565 N   0  0  0  0  0  0  0  0  0  0  0  0
  152.3318  141.9475  159.2257 C   0  0  0  0  0  0  0  0  0  0  0  0
  151.7987  140.8663  158.9788 O   0  0  0  0  0  0  0  0  0  0  0  0
  154.5720  137.3308  160.4699 C   0  0  0  0  0  0  0  0  0  0  0  0
  154.8060  136.2090  161.1857 C   0  0  0  0  0  0  0  0  0  0  0  0
  155.0068  136.2424  162.6354 C   0  0  0  0  0  0  0  0  0  0  0  0
  155.2323  135.2361  163.3070 O   0  0  0  0  0  0  0  0  0  0  0  0
  156.7387  140.4991  167.6956 H   0  0  0  0  0  0  0  0  0  0  0  0
  156.1094  141.2031  166.2056 H   0  0  0  0  0  0  0  0  0  0  0  0
  157.7177  140.4561  166.2287 H   0  0  0  0  0  0  0  0  0  0  0  0
  155.6968  139.8006  164.3797 H   0  0  0  0  0  0  0  0  0  0  0  0
  157.0446  138.6810  164.5090 H   0  0  0  0  0  0  0  0  0  0  0  0
  155.5167  136.8150  165.0809 H   0  0  0  0  0  0  0  0  0  0  0  0
  154.1519  137.8860  165.1019 H   0  0  0  0  0  0  0  0  0  0  0  0
  153.3857  140.6625  161.9809 H   0  0  0  0  0  0  0  0  0  0  0  0
  154.1736  142.5478  160.0516 H   0  0  0  0  0  0  0  0  0  0  0  0
  152.2303  142.4764  162.3272 H   0  0  0  0  0  0  0  0  0  0  0  0
  153.5867  143.5259  162.0540 H   0  0  0  0  0  0  0  0  0  0  0  0
  150.8031  143.7067  160.8192 H   0  0  0  0  0  0  0  0  0  0  0  0
  151.5155  144.7938  161.9598 H   0  0  0  0  0  0  0  0  0  0  0  0
  151.4340  145.7403  159.6920 H   0  0  0  0  0  0  0  0  0  0  0  0
  153.0553  145.7018  160.3099 H   0  0  0  0  0  0  0  0  0  0  0  0
  152.4827  144.9672  157.7966 H   0  0  0  0  0  0  0  0  0  0  0  0
  153.8000  144.2473  158.6609 H   0  0  0  0  0  0  0  0  0  0  0  0
  151.4985  142.9248  157.6626 H   0  0  0  0  0  0  0  0  0  0  0  0
  154.4278  137.2772  159.4006 H   0  0  0  0  0  0  0  0  0  0  0  0
  154.8469  135.2582  160.6748 H   0  0  0  0  0  0  0  0  0  0  0  0
  1  2  1  0  0  0  0
  1 23  1  0  0  0  0
  1 24  1  0  0  0  0
  1 25  1  0  0  0  0
  2  3  1  0  0  0  0
  3  4  1  0  0  0  0
  3 26  1  0  0  0  0
  3 27  1  0  0  0  0
  4  5  1  0  0  0  0
  4 28  1  0  0  0  0
  4 29  1  0  0  0  0
  5 21  1  0  0  0  0
  5  6  1  0  0  0  0
  6  7  2  0  0  0  0
  7  8  1  0  0  0  0
  7 19  1  0  0  0  0
  8  9  2  0  0  0  0
  8 10  1  0  0  0  0
 10 11  1  0  0  0  0
 10 30  1  0  0  0  0
 11 17  1  0  0  0  0
 11 12  1  0  0  0  0
 11 31  1  0  0  0  0
 12 13  1  0  0  0  0
 12 32  1  0  0  0  0
 12 33  1  0  0  0  0
 13 14  1  0  0  0  0
 13 34  1  0  0  0  0
 13 35  1  0  0  0  0
 14 15  1  0  0  0  0
 14 36  1  0  0  0  0
 14 37  1  0  0  0  0
 15 16  1  0  0  0  0
 15 38  1  0  0  0  0
 15 39  1  0  0  0  0
 16 17  1  0  0  0  0
 16 40  1  0  0  0  0
 17 18  2  0  0  0  0
 19 20  2  0  0  0  0
 19 41  1  0  0  0  0
 20 21  1  0  0  0  0
 20 42  1  0  0  0  0
 21 22  2  0  0  0  0
M  END
> <s_m_source_file>
AV-unprocessed.smi

> <i_m_source_file_index>
1957

> <i_lp_mmshare_version>
43012

> <i_f3d_flags>
0

> <s_epik_input>
W0NIM11PW0NIMl1bQ0gyXW4xbmMoW2NIXVtjSF1jMT1PKUMoPU8pW05IXVtDQEBIXTJbQ0gyXVtDSDJdW0NIMl1bQ0gyXVtOSF1DMj1P

> <s_epik_cmdline>
J2VwaWtfcHl0aG9uJywgJy1waCcsICc3LjAnLCAnLXRuJywgJzgnLCAnLW1hJywgJzIwMCcsICctbWV0YWxfYmluZGluZycsICctaW1hZScsICc8aW5maWxlLm1hZT4nLCAnLW9tYWUnLCAnPG91dGZpbGUubWFlPic=

> <r_lp_tautomer_probability>
1

> <r_epik_Ionization_Penalty>
2.17512e-06

> <r_epik_Ionization_Penalty_Charging>
5.0222e-09

> <r_epik_Ionization_Penalty_Neutral>
2.1701e-06

> <r_epik_State_Penalty>
-0

> <r_epik_Charging_Adjusted_Penalty>
5.0222e-09

> <i_epik_Tot_Q>
0

> <i_epik_Tot_abs_Q>
0

> <r_epik_Metal_State_Penalty>
-0

> <b_epik_Metal_Only>
0

> <s_lp_Force_Field>
OPLS_2005

> <r_lp_Energy>
35.215

> <b_lp_Chiralities_Consistent>
1

> <s_lp_Variant>
AV-unprocessed.smi:1957-1

> <Gold.Version>
5.8.1

> <Gold.Id.Protein>
6NUR|6NUR_protein|mol2

> <Gold.PLP.Fitness>
45.8461

> <Gold.PLP.PLP>
-44.0015

> <Gold.PLP.part.hbond>
-1.5586

> <Gold.PLP.part.metal>
0.0000

> <Gold.PLP.part.buried>
-6.7770

> <Gold.PLP.part.nonpolar>
-35.4231

> <Gold.PLP.part.repulsive>
0.2423

> <Gold.PLP.ligand.clash>
0.0000

> <Gold.PLP.ligand.torsion>
0.6194

> <Gold.PLP.Chemscore.Hbond>
1.0000

> <Gold.PLP.Chemscore.CHOScore>
0.0000

> <Gold.PLP.Chemscore.Metal>
0.0000

> <Gold.Chemscore.Hbonds>
donor molecule, donor type, donor heavy atom, donor atom, acceptor molecule, acceptor atom, score
      P1  H  7997  8008       L1     9  1.00

> <Gold.PLP.Chemscore.Internal.Correction>
0.0832

> <Gold.Rescore>
     Score         DG    S(hbond)    S(metal)    S(lipo)     H(rot)  DE(clash)    DE(int)     intcor
     14.55     -15.19       0.99        0.00      93.52       1.78       0.12       0.52       ----

> <Gold.Chemscore.Fitness>
14.5497

> <Gold.Chemscore.DG>
-15.1863

> <Gold.Chemscore.ZeroCoef>
-5.4800

> <Gold.Chemscore.Hbond>
0.9937

> <Gold.Chemscore.Metal>
0.0000

> <Gold.Chemscore.Lipo>
93.5188

> <Gold.Chemscore.Internal_Hbond>
0.0000

> <Gold.Chemscore.DEClash>
0.1180

> <Gold.Chemscore.DEInternal>
0.5186

> <Gold.Chemscore.Rot>
1.7791

> <Gold.Chemscore.Internal.Correction>
   9.000000E+99

> <Gold.Chemscore.Hbonds>
donor molecule, donor type, donor heavy atom, donor atom, acceptor molecule, acceptor atom, score
      P1  H  7997  8008       L1     9  0.97

> <Gold.Chemscore.Hbond.Weighted>
-3.3190

> <Gold.Chemscore.Metal.Weighted>
-0.0000

> <Gold.Chemscore.Lipo.Weighted>
-10.9417

> <Gold.Chemscore.Internal_Hbond.Weighted>
0.0000

> <Gold.Chemscore.DEClash.Weighted>
0.1180

> <Gold.Chemscore.DEInternal.Weighted>
0.5186

> <Gold.Chemscore.Rot.Weighted>
4.5544

> <Gold.Chemscore.Internal.Correction.Weighted>
   9.000000E+99

> <Gold.Protein.RotatedTorsions>
[ 6907 6896 6895 6894 ] final -118.52 input  -60.11 | X-H torsion
[ 7974 7965 7964 7962 ] final  -34.91 input  175.53 | X-H torsion
[ 8008 7997 7996 7995 ] final -123.68 input   59.86 | X-H torsion
[ 10167 10162 10161 10158 ] final  -61.37 input  -65.29 | X-H torsion
[ 10718 10713 10712 10709 ] final  -97.77 input   66.30 | X-H torsion
[ 10763 10752 10751 10750 ] final   65.85 input  -60.55 | X-H torsion
[ 11005 11000 10999 10996 ] final  158.37 input  -57.11 | X-H torsion

> <Gold.Protein.ActiveResidues>
 VAL166  LYS551  ARG553  GLY616  TRP617  ASP618  TYR619  PRO620  LYS621  CYS622 
 ASP623  PHE694  ASN695  SER759  ASP760  ASP761  ALA762  ILE779  LEU786  VAL792 
 PHE793  MET794  SER795  GLU796  ALA797  LYS798  CYS799  TRP800  GLU811  SER814 

> <Gold.Protein.RotatedAtoms>
  150.8227  133.8226  159.3131 H   0  0  0  0  0  0  0  0  0  0  0  0  # atno 6907 bound_to 6896
  151.5979  135.1047  160.0063 H   0  0  0  0  0  0  0  0  0  0  0  0  # atno 6908 bound_to 6896
  152.4314  133.7244  159.6608 H   0  0  0  0  0  0  0  0  0  0  0  0  # atno 6909 bound_to 6896
  146.0790  140.6096  142.8917 H   0  0  0  0  0  0  0  0  0  0  0  0  # atno 7974 bound_to 7965
  155.1845  140.0411  157.2888 H   0  0  0  0  0  0  0  0  0  0  0  0  # atno 8008 bound_to 7997
  154.6181  140.2493  155.7556 H   0  0  0  0  0  0  0  0  0  0  0  0  # atno 8009 bound_to 7997
  156.2418  140.2901  156.0475 H   0  0  0  0  0  0  0  0  0  0  0  0  # atno 8010 bound_to 7997
  140.6010  143.2361  151.5928 H   0  0  0  0  0  0  0  0  0  0  0  0  # atno 10167 bound_to 10162
  156.0091  130.5209  150.6423 H   0  0  0  0  0  0  0  0  0  0  0  0  # atno 10718 bound_to 10713
  153.0114  135.5342  154.6731 H   0  0  0  0  0  0  0  0  0  0  0  0  # atno 10763 bound_to 10752
  154.5910  135.2859  155.0637 H   0  0  0  0  0  0  0  0  0  0  0  0  # atno 10764 bound_to 10752
  154.1730  135.6529  153.5067 H   0  0  0  0  0  0  0  0  0  0  0  0  # atno 10765 bound_to 10752
  140.1859  134.8442  157.2857 H   0  0  0  0  0  0  0  0  0  0  0  0  # atno 11005 bound_to 11000
  144.7281  140.4587  143.6958 LP  0  0  0  0  0  0  0  0  0  0  0  0  # atno 17320 bound_to 7965
  145.6252  139.1529  143.3000 LP  0  0  0  0  0  0  0  0  0  0  0  0  # atno 17321 bound_to 7965
  139.5291  144.2969  152.1105 LP  0  0  0  0  0  0  0  0  0  0  0  0  # atno 17342 bound_to 10162
  140.2150  144.4524  150.6368 LP  0  0  0  0  0  0  0  0  0  0  0  0  # atno 17343 bound_to 10162
  157.4201  131.0835  151.1139 LP  0  0  0  0  0  0  0  0  0  0  0  0  # atno 17370 bound_to 10713
  157.1744  130.6281  149.5651 LP  0  0  0  0  0  0  0  0  0  0  0  0  # atno 17371 bound_to 10713
  140.2214  134.4018  155.7564 LP  0  0  0  0  0  0  0  0  0  0  0  0  # atno 17394 bound_to 11000
  141.2225  133.7168  156.8497 LP  0  0  0  0  0  0  0  0  0  0  0  0  # atno 17395 bound_to 11000

$$$$
