AV-unprocessed.smi:2078|AV-procd|sdf|8470|dock4
  -GOLD-   2272011173D 1   1.00000     0.00000
 Structure written by MMmdl.
 41 42  0  0  0  0  0  0  0  0  3 V2000
  147.0188  136.5900  163.4078 C   0  0  0  0  0  0  0  0  0  0  0  0
  147.5666  136.3441  162.0436 C   0  0  0  0  0  0  0  0  0  0  0  0
  147.8674  135.2025  161.3566 C   0  0  0  0  0  0  0  0  0  0  0  0
  148.3451  135.6897  160.1097 C   0  0  0  0  0  0  0  0  0  0  0  0
  148.7840  134.9381  159.0883 N   0  5  0  0  0  0  0  0  0  0  0  0
  148.7297  135.4107  157.8221 C   0  0  0  0  0  0  0  0  0  0  0  0
  148.0923  136.3916  157.4321 O   0  0  0  0  0  0  0  0  0  0  0  0
  149.4577  134.6988  156.9517 N   0  0  0  0  0  0  0  0  0  0  0  0
  149.5722  134.9700  155.5250 C   0  0  0  0  0  0  0  0  0  0  0  0
  149.0361  133.7802  154.7140 C   0  0  0  0  0  0  0  0  0  0  0  0
  147.9307  134.1690  153.8027 N   0  3  2  0  0  0  0  0  0  0  0  0
  146.8585  134.9154  154.5102 C   0  0  0  0  0  0  0  0  0  0  0  0
  145.7975  135.4293  153.5243 C   0  0  0  0  0  0  0  0  0  0  0  0
  145.2063  134.2757  152.7048 C   0  0  0  0  0  0  0  0  0  0  0  0
  146.3272  133.4927  152.0007 C   0  0  2  0  0  0  0  0  0  0  0  0
  145.7652  132.3134  151.1941 C   0  0  0  0  0  0  0  0  0  0  0  0
  147.3800  133.0253  153.0265 C   0  0  0  0  0  0  0  0  0  0  0  0
  148.3479  137.0112  160.0504 N   0  0  0  0  0  0  0  0  0  0  0  0
  147.8424  137.4385  161.2841 O   0  0  0  0  0  0  0  0  0  0  0  0
  147.4472  135.8921  164.1272 H   0  0  0  0  0  0  0  0  0  0  0  0
  145.9362  136.4637  163.4165 H   0  0  0  0  0  0  0  0  0  0  0  0
  147.2448  137.6020  163.7445 H   0  0  0  0  0  0  0  0  0  0  0  0
  147.7617  134.1814  161.6917 H   0  0  0  0  0  0  0  0  0  0  0  0
  149.9675  133.9061  157.3140 H   0  0  0  0  0  0  0  0  0  0  0  0
  149.0131  135.8710  155.2667 H   0  0  0  0  0  0  0  0  0  0  0  0
  150.6209  135.1647  155.3018 H   0  0  0  0  0  0  0  0  0  0  0  0
  149.8358  133.3021  154.1460 H   0  0  0  0  0  0  0  0  0  0  0  0
  148.6712  133.0327  155.4204 H   0  0  0  0  0  0  0  0  0  0  0  0
  146.3970  134.2698  155.2594 H   0  0  0  0  0  0  0  0  0  0  0  0
  147.2885  135.7642  155.0434 H   0  0  0  0  0  0  0  0  0  0  0  0
  145.0044  135.9459  154.0656 H   0  0  0  0  0  0  0  0  0  0  0  0
  146.2448  136.1646  152.8540 H   0  0  0  0  0  0  0  0  0  0  0  0
  144.6421  133.6114  153.3612 H   0  0  0  0  0  0  0  0  0  0  0  0
  144.4984  134.6660  151.9728 H   0  0  0  0  0  0  0  0  0  0  0  0
  146.8195  134.1660  151.2971 H   0  0  0  0  0  0  0  0  0  0  0  0
  145.2575  131.5963  151.8398 H   0  0  0  0  0  0  0  0  0  0  0  0
  146.5593  131.7830  150.6677 H   0  0  0  0  0  0  0  0  0  0  0  0
  145.0473  132.6546  150.4475 H   0  0  0  0  0  0  0  0  0  0  0  0
  148.1827  132.5119  152.4984 H   0  0  0  0  0  0  0  0  0  0  0  0
  146.9414  132.2989  153.7131 H   0  0  0  0  0  0  0  0  0  0  0  0
  148.3287  134.8147  153.1356 H   0  0  0  0  0  0  0  0  0  0  0  0
  1  2  1  0  0  0  0
  1 20  1  0  0  0  0
  1 21  1  0  0  0  0
  1 22  1  0  0  0  0
  2 19  1  0  0  0  0
  2  3  2  0  0  0  0
  3  4  1  0  0  0  0
  3 23  1  0  0  0  0
  4  5  1  0  0  0  0
  4 18  2  0  0  0  0
  5  6  1  0  0  0  0
  6  7  2  0  0  0  0
  6  8  1  0  0  0  0
  8  9  1  0  0  0  0
  8 24  1  0  0  0  0
  9 10  1  0  0  0  0
  9 25  1  0  0  0  0
  9 26  1  0  0  0  0
 10 11  1  0  0  0  0
 10 27  1  0  0  0  0
 10 28  1  0  0  0  0
 11 17  1  0  0  0  0
 11 12  1  0  0  0  0
 11 41  1  0  0  0  0
 12 13  1  0  0  0  0
 12 29  1  0  0  0  0
 12 30  1  0  0  0  0
 13 14  1  0  0  0  0
 13 31  1  0  0  0  0
 13 32  1  0  0  0  0
 14 15  1  0  0  0  0
 14 33  1  0  0  0  0
 14 34  1  0  0  0  0
 15 16  1  0  0  0  0
 15 17  1  0  0  0  0
 15 35  1  0  0  0  0
 16 36  1  0  0  0  0
 16 37  1  0  0  0  0
 16 38  1  0  0  0  0
 17 39  1  0  0  0  0
 17 40  1  0  0  0  0
 18 19  1  0  0  0  0
M  CHG  1   5  -1
M  CHG  1  11   1
M  END
> <s_m_source_file>
AV-unprocessed.smi

> <i_m_source_file_index>
2078

> <i_lp_mmshare_version>
43012

> <i_f3d_flags>
0

> <s_epik_input>
W0NIM11jMVtjSF1jKG5vMSlbTkhdQyg9TylbTkhdW0NIMl1bQ0gyXU4yW0NIMl1bQ0gyXVtDSDJdW0NAQEhdKFtDSDNdKVtDSDJdMg==

> <s_epik_cmdline>
J2VwaWtfcHl0aG9uJywgJy1waCcsICc3LjAnLCAnLXRuJywgJzgnLCAnLW1hJywgJzIwMCcsICctbWV0YWxfYmluZGluZycsICctaW1hZScsICc8aW5maWxlLm1hZT4nLCAnLW9tYWUnLCAnPG91dGZpbGUubWFlPic=

> <r_epik_Ionization_Penalty>
6.22434

> <r_epik_Ionization_Penalty_Charging>
6.22425

> <r_epik_Ionization_Penalty_Neutral>
9.37855e-05

> <r_epik_State_Penalty>
6.22423

> <r_epik_Charging_Adjusted_Penalty>
12.4485

> <i_epik_Tot_Q>
0

> <i_epik_Tot_abs_Q>
2

> <r_epik_Metal_State_Penalty>
2.16764

> <b_epik_Metal_Only>
1

> <s_lp_Force_Field>
OPLS_2005

> <r_lp_Energy>
6.03682

> <b_lp_Chiralities_Consistent>
1

> <s_lp_Variant>
AV-unprocessed.smi:2078-8

> <Gold.Version>
5.8.1

> <Gold.Id.Protein>
6NUR|6NUR_protein|mol2

> <Gold.PLP.Fitness>
45.3814

> <Gold.PLP.PLP>
-29.4471

> <Gold.PLP.part.hbond>
-4.0000

> <Gold.PLP.part.metal>
0.0000

> <Gold.PLP.part.buried>
-3.5221

> <Gold.PLP.part.nonpolar>
-22.5779

> <Gold.PLP.part.repulsive>
0.0622

> <Gold.PLP.ligand.clash>
0.0000

> <Gold.PLP.ligand.torsion>
0.5825

> <Gold.PLP.Chemscore.Hbond>
5.6800

> <Gold.PLP.Chemscore.CHOScore>
0.0000

> <Gold.PLP.Chemscore.Metal>
0.0000

> <Gold.Chemscore.Hbonds>
donor molecule, donor type, donor heavy atom, donor atom, acceptor molecule, acceptor atom, score
      L1  H    11    41       P1  7948  2.00
      P1  H  6896  6907       L1     5  1.27
      P1  H  6931  6943       L1    19  0.88
      P1  H  6934  6947       L1    19  0.70

> <Gold.PLP.Chemscore.Internal.Correction>
0.0593

> <Gold.Rescore>
     Score         DG    S(hbond)    S(metal)    S(lipo)     H(rot)  DE(clash)    DE(int)     intcor
     14.54     -16.68       2.26        0.00      64.85       1.54       0.05       2.08       ----

> <Gold.Chemscore.Fitness>
14.5422

> <Gold.Chemscore.DG>
-16.6779

> <Gold.Chemscore.ZeroCoef>
-5.4800

> <Gold.Chemscore.Hbond>
2.2620

> <Gold.Chemscore.Metal>
0.0000

> <Gold.Chemscore.Lipo>
64.8505

> <Gold.Chemscore.Internal_Hbond>
0.0000

> <Gold.Chemscore.DEClash>
0.0515

> <Gold.Chemscore.DEInternal>
2.0842

> <Gold.Chemscore.Rot>
1.5409

> <Gold.Chemscore.Internal.Correction>
   9.000000E+99

> <Gold.Chemscore.Hbonds>
donor molecule, donor type, donor heavy atom, donor atom, acceptor molecule, acceptor atom, score
      L1  H    11    41       P1  7948  0.73
      P1  H  6896  6907       L1     5  0.38
      P1  H  6931  6943       L1    19  0.29
      P1  H  6934  6947       L1    19  0.31

> <Gold.Chemscore.Hbond.Weighted>
-7.5550

> <Gold.Chemscore.Metal.Weighted>
-0.0000

> <Gold.Chemscore.Lipo.Weighted>
-7.5875

> <Gold.Chemscore.Internal_Hbond.Weighted>
0.0000

> <Gold.Chemscore.DEClash.Weighted>
0.0515

> <Gold.Chemscore.DEInternal.Weighted>
2.0842

> <Gold.Chemscore.Rot.Weighted>
3.9446

> <Gold.Chemscore.Internal.Correction.Weighted>
   9.000000E+99

> <Gold.Protein.RotatedTorsions>
[ 6907 6896 6895 6894 ] final -105.45 input  -60.11 | X-H torsion
[ 7974 7965 7964 7962 ] final  -83.59 input  175.53 | X-H torsion
[ 8008 7997 7996 7995 ] final  -31.59 input   59.86 | X-H torsion
[ 10167 10162 10161 10158 ] final   67.78 input  -65.29 | X-H torsion
[ 10718 10713 10712 10709 ] final  -24.21 input   66.30 | X-H torsion
[ 10763 10752 10751 10750 ] final -107.85 input  -60.55 | X-H torsion
[ 11005 11000 10999 10996 ] final -168.43 input  -57.11 | X-H torsion

> <Gold.Protein.ActiveResidues>
 VAL166  LYS551  ARG553  GLY616  TRP617  ASP618  TYR619  PRO620  LYS621  CYS622 
 ASP623  PHE694  ASN695  SER759  ASP760  ASP761  ALA762  ILE779  LEU786  VAL792 
 PHE793  MET794  SER795  GLU796  ALA797  LYS798  CYS799  TRP800  GLU811  SER814 

> <Gold.Protein.RotatedAtoms>
  150.7337  134.0125  159.3674 H   0  0  0  0  0  0  0  0  0  0  0  0  # atno 6907 bound_to 6896
  151.8085  135.0685  160.0419 H   0  0  0  0  0  0  0  0  0  0  0  0  # atno 6908 bound_to 6896
  152.3089  133.5696  159.5704 H   0  0  0  0  0  0  0  0  0  0  0  0  # atno 6909 bound_to 6896
  145.5179  140.9534  143.1671 H   0  0  0  0  0  0  0  0  0  0  0  0  # atno 7974 bound_to 7965
  154.4208  140.1760  156.1591 H   0  0  0  0  0  0  0  0  0  0  0  0  # atno 8008 bound_to 7997
  155.9853  140.3374  155.6677 H   0  0  0  0  0  0  0  0  0  0  0  0  # atno 8009 bound_to 7997
  155.6446  140.0683  157.2598 H   0  0  0  0  0  0  0  0  0  0  0  0  # atno 8010 bound_to 7997
  140.0858  144.5031  150.7132 H   0  0  0  0  0  0  0  0  0  0  0  0  # atno 10167 bound_to 10162
  156.4807  130.4544  149.6813 H   0  0  0  0  0  0  0  0  0  0  0  0  # atno 10718 bound_to 10713
  154.8100  135.4659  154.0492 H   0  0  0  0  0  0  0  0  0  0  0  0  # atno 10763 bound_to 10752
  153.1930  135.6858  153.8334 H   0  0  0  0  0  0  0  0  0  0  0  0  # atno 10764 bound_to 10752
  153.7845  135.3252  155.3347 H   0  0  0  0  0  0  0  0  0  0  0  0  # atno 10765 bound_to 10752
  140.5420  134.5513  157.5102 H   0  0  0  0  0  0  0  0  0  0  0  0  # atno 11005 bound_to 11000
  144.7692  139.6774  143.7202 LP  0  0  0  0  0  0  0  0  0  0  0  0  # atno 17320 bound_to 7965
  146.2125  139.5491  142.9672 LP  0  0  0  0  0  0  0  0  0  0  0  0  # atno 17321 bound_to 7965
  140.7054  143.2464  151.4741 LP  0  0  0  0  0  0  0  0  0  0  0  0  # atno 17342 bound_to 10162
  139.5753  144.1833  152.1894 LP  0  0  0  0  0  0  0  0  0  0  0  0  # atno 17343 bound_to 10162
  156.3524  130.7439  151.2400 LP  0  0  0  0  0  0  0  0  0  0  0  0  # atno 17370 bound_to 10713
  157.7483  131.0373  150.4450 LP  0  0  0  0  0  0  0  0  0  0  0  0  # atno 17371 bound_to 10713
  139.9499  134.7636  156.0473 LP  0  0  0  0  0  0  0  0  0  0  0  0  # atno 17394 bound_to 11000
  141.1221  133.6610  156.3242 LP  0  0  0  0  0  0  0  0  0  0  0  0  # atno 17395 bound_to 11000

$$$$
