AV-unprocessed.smi:1552|AV-procd|sdf|6234|dock8
  -GOLD-   22720 6413D 1   1.00000     0.00000
 Structure written by MMmdl.
 50 51  0  0  0  0  0  0  0  0  2 V2000
  152.6212  144.3405  156.3636 C   0  0  0  0  0  0  0  0  0  0  0  0
  151.4721  144.2814  157.2983 N   0  3  0  0  0  0  0  0  0  0  0  0
  151.4884  145.4007  158.2689 C   0  0  0  0  0  0  0  0  0  0  0  0
  151.2052  142.9472  157.9217 C   0  0  2  0  0  0  0  0  0  0  0  0
  149.7807  142.8387  158.5349 C   0  0  0  0  0  0  0  0  0  0  0  0
  148.7181  143.0148  157.5481 N   0  0  0  0  0  0  0  0  0  0  0  0
  147.4103  143.1845  157.7969 C   0  0  0  0  0  0  0  0  0  0  0  0
  146.9944  143.2213  158.9538 O   0  0  0  0  0  0  0  0  0  0  0  0
  146.4394  143.3546  156.6121 C   0  0  0  0  0  0  0  0  0  0  0  0
  146.4526  142.2140  155.6839 N   0  0  0  0  0  0  0  0  0  0  0  0
  147.6033  141.9023  154.9731 C   0  0  0  0  0  0  0  0  0  0  0  0
  147.6824  140.8738  154.0958 C   0  0  0  0  0  0  0  0  0  0  0  0
  146.5243  140.0209  153.8509 C   0  0  0  0  0  0  0  0  0  0  0  0
  146.4976  139.0659  153.0778 O   0  0  0  0  0  0  0  0  0  0  0  0
  145.3852  140.3680  154.5824 N   0  0  0  0  0  0  0  0  0  0  0  0
  145.2962  141.4277  155.4863 C   0  0  0  0  0  0  0  0  0  0  0  0
  144.2397  141.6506  156.0764 O   0  0  0  0  0  0  0  0  0  0  0  0
  152.3615  142.5126  158.8726 C   0  0  0  0  0  0  0  0  0  0  0  0
  152.3617  140.9832  159.1195 C   0  0  0  0  0  0  0  0  0  0  0  0
  153.4986  140.5474  160.0574 C   0  0  0  0  0  0  0  0  0  0  0  0
  153.4296  141.2906  161.3976 C   0  0  0  0  0  0  0  0  0  0  0  0
  153.4372  142.8091  161.1784 C   0  0  0  0  0  0  0  0  0  0  0  0
  152.3027  143.2437  160.2366 C   0  0  0  0  0  0  0  0  0  0  0  0
  144.5574  139.8068  154.4434 H   0  0  0  0  0  0  0  0  0  0  0  0
  153.5714  144.2695  156.8935 H   0  0  0  0  0  0  0  0  0  0  0  0
  152.6157  145.2869  155.8223 H   0  0  0  0  0  0  0  0  0  0  0  0
  152.5768  143.5436  155.6220 H   0  0  0  0  0  0  0  0  0  0  0  0
  152.3519  145.3461  158.9319 H   0  0  0  0  0  0  0  0  0  0  0  0
  150.5850  145.4038  158.8794 H   0  0  0  0  0  0  0  0  0  0  0  0
  151.5294  146.3558  157.7446 H   0  0  0  0  0  0  0  0  0  0  0  0
  151.2280  142.2320  157.0979 H   0  0  0  0  0  0  0  0  0  0  0  0
  149.6593  141.8903  159.0580 H   0  0  0  0  0  0  0  0  0  0  0  0
  149.6584  143.6121  159.2941 H   0  0  0  0  0  0  0  0  0  0  0  0
  149.0019  143.0162  156.5789 H   0  0  0  0  0  0  0  0  0  0  0  0
  145.4336  143.4975  157.0100 H   0  0  0  0  0  0  0  0  0  0  0  0
  146.6694  144.2717  156.0669 H   0  0  0  0  0  0  0  0  0  0  0  0
  148.4851  142.5098  155.1188 H   0  0  0  0  0  0  0  0  0  0  0  0
  148.6074  140.6815  153.5713 H   0  0  0  0  0  0  0  0  0  0  0  0
  153.3144  142.7680  158.4084 H   0  0  0  0  0  0  0  0  0  0  0  0
  151.4047  140.6780  159.5451 H   0  0  0  0  0  0  0  0  0  0  0  0
  152.4671  140.4404  158.1802 H   0  0  0  0  0  0  0  0  0  0  0  0
  153.4483  139.4715  160.2276 H   0  0  0  0  0  0  0  0  0  0  0  0
  154.4606  140.7399  159.5805 H   0  0  0  0  0  0  0  0  0  0  0  0
  152.5239  141.0013  161.9321 H   0  0  0  0  0  0  0  0  0  0  0  0
  154.2692  140.9997  162.0296 H   0  0  0  0  0  0  0  0  0  0  0  0
  153.3412  143.3217  162.1362 H   0  0  0  0  0  0  0  0  0  0  0  0
  154.3973  143.1147  160.7601 H   0  0  0  0  0  0  0  0  0  0  0  0
  152.3690  144.3228  160.1011 H   0  0  0  0  0  0  0  0  0  0  0  0
  151.3414  143.0537  160.7158 H   0  0  0  0  0  0  0  0  0  0  0  0
  150.6582  144.4556  156.7260 H   0  0  0  0  0  0  0  0  0  0  0  0
  1  2  1  0  0  0  0
  1 25  1  0  0  0  0
  1 26  1  0  0  0  0
  1 27  1  0  0  0  0
  2  3  1  0  0  0  0
  2  4  1  0  0  0  0
  2 50  1  0  0  0  0
  3 28  1  0  0  0  0
  3 29  1  0  0  0  0
  3 30  1  0  0  0  0
  4  5  1  0  0  0  0
  4 18  1  0  0  0  0
  4 31  1  0  0  0  0
  5  6  1  0  0  0  0
  5 32  1  0  0  0  0
  5 33  1  0  0  0  0
  6  7  1  0  0  0  0
  6 34  1  0  0  0  0
  7  8  2  0  0  0  0
  7  9  1  0  0  0  0
  9 10  1  0  0  0  0
  9 35  1  0  0  0  0
  9 36  1  0  0  0  0
 10 16  1  0  0  0  0
 10 11  1  0  0  0  0
 11 12  2  0  0  0  0
 11 37  1  0  0  0  0
 12 13  1  0  0  0  0
 12 38  1  0  0  0  0
 13 14  2  0  0  0  0
 13 15  1  0  0  0  0
 15 24  1  0  0  0  0
 15 16  1  0  0  0  0
 16 17  2  0  0  0  0
 18 23  1  0  0  0  0
 18 19  1  0  0  0  0
 18 39  1  0  0  0  0
 19 20  1  0  0  0  0
 19 40  1  0  0  0  0
 19 41  1  0  0  0  0
 20 21  1  0  0  0  0
 20 42  1  0  0  0  0
 20 43  1  0  0  0  0
 21 22  1  0  0  0  0
 21 44  1  0  0  0  0
 21 45  1  0  0  0  0
 22 23  1  0  0  0  0
 22 46  1  0  0  0  0
 22 47  1  0  0  0  0
 23 48  1  0  0  0  0
 23 49  1  0  0  0  0
M  CHG  1   2   1
M  END
> <s_m_source_file>
AV-unprocessed.smi

> <i_m_source_file_index>
1552

> <i_lp_mmshare_version>
43012

> <i_f3d_flags>
0

> <s_epik_input>
W0NIMl0xW0NIMl1bQ0gyXVtDSDJdW0NIMl1bQ0hdMVtDQEhdKE4oW0NIM10pW0NIM10pW0NIMl1bTkhdQyg9TylbQ0gyXW4yW2NIXVtjSF1jKD1PKVtuSF1jMj1P

> <s_epik_cmdline>
J2VwaWtfcHl0aG9uJywgJy1waCcsICc3LjAnLCAnLXRuJywgJzgnLCAnLW1hJywgJzIwMCcsICctbWV0YWxfYmluZGluZycsICctaW1hZScsICc8aW5maWxlLm1hZT4nLCAnLW9tYWUnLCAnPG91dGZpbGUubWFlPic=

> <r_lp_tautomer_probability>
1

> <r_epik_Ionization_Penalty>
0.00705217

> <r_epik_Ionization_Penalty_Charging>
0.00705209

> <r_epik_Ionization_Penalty_Neutral>
7.66101e-08

> <r_epik_State_Penalty>
-0

> <r_epik_Charging_Adjusted_Penalty>
0.00705209

> <i_epik_Tot_Q>
1

> <i_epik_Tot_abs_Q>
1

> <r_epik_Metal_State_Penalty>
0.375122

> <b_epik_Metal_Only>
0

> <s_lp_Force_Field>
OPLS_2005

> <r_lp_Energy>
35.9588

> <b_lp_Chiralities_Consistent>
1

> <s_lp_Variant>
AV-unprocessed.smi:1552-1

> <Gold.Version>
5.8.1

> <Gold.Id.Protein>
6NUR|6NUR_protein|mol2

> <Gold.PLP.Fitness>
52.0167

> <Gold.PLP.PLP>
-39.2586

> <Gold.PLP.part.hbond>
-4.0000

> <Gold.PLP.part.metal>
0.0000

> <Gold.PLP.part.buried>
-6.0172

> <Gold.PLP.part.nonpolar>
-30.8247

> <Gold.PLP.part.repulsive>
1.7334

> <Gold.PLP.ligand.clash>
0.0000

> <Gold.PLP.ligand.torsion>
0.4035

> <Gold.PLP.Chemscore.Hbond>
3.4183

> <Gold.PLP.Chemscore.CHOScore>
1.0000

> <Gold.PLP.Chemscore.Metal>
0.0000

> <Gold.Chemscore.Hbonds>
donor molecule, donor type, donor heavy atom, donor atom, acceptor molecule, acceptor atom, score
      L1  H     2    50       P1  8028  1.89
      L1  H     6    34       P1  8028  0.30
      L1  H    15    24       P1 10175  0.06
      L1  C    11    37       P1  8028  1.00

> <Gold.PLP.Chemscore.Internal.Correction>
0.3103

> <Gold.Rescore>
     Score         DG    S(hbond)    S(metal)    S(lipo)     H(rot)  DE(clash)    DE(int)     intcor
     16.18     -18.08       1.85        0.00     109.56       2.50       1.37       0.53       ----

> <Gold.Chemscore.Fitness>
16.1785

> <Gold.Chemscore.DG>
-18.0838

> <Gold.Chemscore.ZeroCoef>
-5.4800

> <Gold.Chemscore.Hbond>
1.8493

> <Gold.Chemscore.Metal>
0.0000

> <Gold.Chemscore.Lipo>
109.5618

> <Gold.Chemscore.Internal_Hbond>
0.0000

> <Gold.Chemscore.DEClash>
1.3711

> <Gold.Chemscore.DEInternal>
0.5342

> <Gold.Chemscore.Rot>
2.4968

> <Gold.Chemscore.Internal.Correction>
   9.000000E+99

> <Gold.Chemscore.Hbonds>
donor molecule, donor type, donor heavy atom, donor atom, acceptor molecule, acceptor atom, score
      L1  H     2    50       P1  8028  0.88
      L1  H     6    34       P1  8028  0.29
      L1  H    15    24       P1 10175  0.06

> <Gold.Chemscore.Hbond.Weighted>
-6.1768

> <Gold.Chemscore.Metal.Weighted>
-0.0000

> <Gold.Chemscore.Lipo.Weighted>
-12.8187

> <Gold.Chemscore.Internal_Hbond.Weighted>
0.0000

> <Gold.Chemscore.DEClash.Weighted>
1.3711

> <Gold.Chemscore.DEInternal.Weighted>
0.5342

> <Gold.Chemscore.Rot.Weighted>
6.3917

> <Gold.Chemscore.Internal.Correction.Weighted>
   9.000000E+99

> <Gold.Protein.RotatedTorsions>
[ 6907 6896 6895 6894 ] final  -23.01 input  -60.11 | X-H torsion
[ 7974 7965 7964 7962 ] final  100.99 input  175.53 | X-H torsion
[ 8008 7997 7996 7995 ] final  168.87 input   59.86 | X-H torsion
[ 10167 10162 10161 10158 ] final -143.67 input  -65.29 | X-H torsion
[ 10718 10713 10712 10709 ] final  -59.33 input   66.30 | X-H torsion
[ 10763 10752 10751 10750 ] final  -95.75 input  -60.55 | X-H torsion
[ 11005 11000 10999 10996 ] final  -14.52 input  -57.11 | X-H torsion

> <Gold.Protein.ActiveResidues>
 VAL166  LYS551  ARG553  GLY616  TRP617  ASP618  TYR619  PRO620  LYS621  CYS622 
 ASP623  PHE694  ASN695  SER759  ASP760  ASP761  ALA762  ILE779  LEU786  VAL792 
 PHE793  MET794  SER795  GLU796  ALA797  LYS798  CYS799  TRP800  GLU811  SER814 

> <Gold.Protein.RotatedAtoms>
  151.2102  135.0478  159.8907 H   0  0  0  0  0  0  0  0  0  0  0  0  # atno 6907 bound_to 6896
  152.5425  134.0753  159.8222 H   0  0  0  0  0  0  0  0  0  0  0  0  # atno 6908 bound_to 6896
  151.0905  133.5271  159.2647 H   0  0  0  0  0  0  0  0  0  0  0  0  # atno 6909 bound_to 6896
  145.3783  139.2384  143.3417 H   0  0  0  0  0  0  0  0  0  0  0  0  # atno 7974 bound_to 7965
  156.1508  140.1579  156.8773 H   0  0  0  0  0  0  0  0  0  0  0  0  # atno 8008 bound_to 7997
  154.5069  140.0810  156.7950 H   0  0  0  0  0  0  0  0  0  0  0  0  # atno 8009 bound_to 7997
  155.3900  140.3409  155.4253 H   0  0  0  0  0  0  0  0  0  0  0  0  # atno 8010 bound_to 7997
  139.7971  143.7885  152.2655 H   0  0  0  0  0  0  0  0  0  0  0  0  # atno 10167 bound_to 10162
  156.1070  130.4179  150.0700 H   0  0  0  0  0  0  0  0  0  0  0  0  # atno 10718 bound_to 10713
  154.7177  135.5109  153.8763 H   0  0  0  0  0  0  0  0  0  0  0  0  # atno 10763 bound_to 10752
  153.0834  135.6638  154.0006 H   0  0  0  0  0  0  0  0  0  0  0  0  # atno 10764 bound_to 10752
  153.9836  135.3026  155.3397 H   0  0  0  0  0  0  0  0  0  0  0  0  # atno 10765 bound_to 10752
  140.7872  133.8316  155.9346 H   0  0  0  0  0  0  0  0  0  0  0  0  # atno 11005 bound_to 11000
  146.2854  140.4446  142.8760 LP  0  0  0  0  0  0  0  0  0  0  0  0  # atno 17320 bound_to 7965
  144.8526  140.7023  143.6158 LP  0  0  0  0  0  0  0  0  0  0  0  0  # atno 17321 bound_to 7965
  139.7994  144.7380  150.9846 LP  0  0  0  0  0  0  0  0  0  0  0  0  # atno 17342 bound_to 10162
  140.7820  143.4361  151.0622 LP  0  0  0  0  0  0  0  0  0  0  0  0  # atno 17343 bound_to 10162
  156.8673  130.9512  151.3612 LP  0  0  0  0  0  0  0  0  0  0  0  0  # atno 17370 bound_to 10713
  157.6247  130.8682  149.9169 LP  0  0  0  0  0  0  0  0  0  0  0  0  # atno 17371 bound_to 10713
  140.9425  134.1883  157.4787 LP  0  0  0  0  0  0  0  0  0  0  0  0  # atno 17394 bound_to 11000
  139.8735  134.9877  156.5380 LP  0  0  0  0  0  0  0  0  0  0  0  0  # atno 17395 bound_to 11000

$$$$
