AV-unprocessed.smi:2454|AV-procd|sdf|9695|dock9
  -GOLD-   2272013333D 1   1.00000     0.00000
 Structure written by MMmdl.
 42 43  0  0  0  0  0  0  0  0  1 V2000
  147.5013  133.0656  158.6192 C   0  0  0  0  0  0  0  0  0  0  0  0
  148.4688  133.7787  157.8691 O   0  0  0  0  0  0  0  0  0  0  0  0
  148.0430  135.0925  157.5374 C   0  0  0  0  0  0  0  0  0  0  0  0
  149.1827  135.9948  157.0973 C   0  0  0  0  0  0  0  0  0  0  0  0
  149.5809  137.0902  157.8927 C   0  0  0  0  0  0  0  0  0  0  0  0
  150.6436  137.8906  157.4158 C   0  0  0  0  0  0  0  0  0  0  0  0
  151.0151  138.9765  158.2619 N   0  0  0  0  0  0  0  0  0  0  0  0
  152.1081  139.7696  158.2617 C   0  0  0  0  0  0  0  0  0  0  0  0
  153.0062  139.6158  157.4356 O   0  0  0  0  0  0  0  0  0  0  0  0
  152.1488  140.7167  159.2129 N   0  0  0  0  0  0  0  0  0  0  0  0
  153.2046  141.7088  159.3993 C   0  0  2  0  0  0  0  0  0  0  0  0
  153.5049  141.8830  160.9000 C   0  0  0  0  0  0  0  0  0  0  0  0
  152.3518  142.5792  161.6425 C   0  0  0  0  0  0  0  0  0  0  0  0
  151.9966  143.9235  160.9881 C   0  0  0  0  0  0  0  0  0  0  0  0
  151.6563  143.7601  159.4914 C   0  0  1  0  0  0  0  0  0  0  0  0
  151.2853  145.1049  158.8333 C   0  0  0  0  0  0  0  0  0  0  0  0
  151.3469  145.0169  157.5041 F   0  0  0  0  0  0  0  0  0  0  0  0
  150.0492  145.4596  159.1850 F   0  0  0  0  0  0  0  0  0  0  0  0
  152.1222  146.0590  159.2411 F   0  0  0  0  0  0  0  0  0  0  0  0
  152.8207  143.0582  158.7553 C   0  0  0  0  0  0  0  0  0  0  0  0
  151.2384  137.5825  156.2348 N   0  0  0  0  0  0  0  0  0  0  0  0
  150.7854  136.5245  155.5587 C   0  0  0  0  0  0  0  0  0  0  0  0
  149.7909  135.7156  155.9234 N   0  0  0  0  0  0  0  0  0  0  0  0
  147.8783  132.0695  158.8503 H   0  0  0  0  0  0  0  0  0  0  0  0
  146.5727  132.9521  158.0583 H   0  0  0  0  0  0  0  0  0  0  0  0
  147.2824  133.5693  159.5615 H   0  0  0  0  0  0  0  0  0  0  0  0
  147.3095  135.0493  156.7308 H   0  0  0  0  0  0  0  0  0  0  0  0
  147.5538  135.5495  158.3992 H   0  0  0  0  0  0  0  0  0  0  0  0
  149.0876  137.3049  158.8299 H   0  0  0  0  0  0  0  0  0  0  0  0
  150.3674  139.1587  159.0147 H   0  0  0  0  0  0  0  0  0  0  0  0
  151.3663  140.7668  159.8504 H   0  0  0  0  0  0  0  0  0  0  0  0
  154.1111  141.3370  158.9184 H   0  0  0  0  0  0  0  0  0  0  0  0
  153.7148  140.9158  161.3586 H   0  0  0  0  0  0  0  0  0  0  0  0
  154.4125  142.4765  161.0163 H   0  0  0  0  0  0  0  0  0  0  0  0
  151.4730  141.9331  161.6528 H   0  0  0  0  0  0  0  0  0  0  0  0
  152.6270  142.7372  162.6857 H   0  0  0  0  0  0  0  0  0  0  0  0
  151.1546  144.3699  161.5176 H   0  0  0  0  0  0  0  0  0  0  0  0
  152.8332  144.6138  161.1033 H   0  0  0  0  0  0  0  0  0  0  0  0
  150.7781  143.1161  159.4210 H   0  0  0  0  0  0  0  0  0  0  0  0
  153.6942  143.7113  158.7606 H   0  0  0  0  0  0  0  0  0  0  0  0
  152.5672  142.9086  157.7051 H   0  0  0  0  0  0  0  0  0  0  0  0
  151.2749  136.3019  154.6221 H   0  0  0  0  0  0  0  0  0  0  0  0
  1  2  1  0  0  0  0
  1 24  1  0  0  0  0
  1 25  1  0  0  0  0
  1 26  1  0  0  0  0
  2  3  1  0  0  0  0
  3  4  1  0  0  0  0
  3 27  1  0  0  0  0
  3 28  1  0  0  0  0
  4 23  1  0  0  0  0
  4  5  2  0  0  0  0
  5  6  1  0  0  0  0
  5 29  1  0  0  0  0
  6  7  1  0  0  0  0
  6 21  2  0  0  0  0
  7  8  1  0  0  0  0
  7 30  1  0  0  0  0
  8  9  2  0  0  0  0
  8 10  1  0  0  0  0
 10 11  1  0  0  0  0
 10 31  1  0  0  0  0
 11 20  1  0  0  0  0
 11 12  1  0  0  0  0
 11 32  1  0  0  0  0
 12 13  1  0  0  0  0
 12 33  1  0  0  0  0
 12 34  1  0  0  0  0
 13 14  1  0  0  0  0
 13 35  1  0  0  0  0
 13 36  1  0  0  0  0
 14 15  1  0  0  0  0
 14 37  1  0  0  0  0
 14 38  1  0  0  0  0
 15 16  1  0  0  0  0
 15 20  1  0  0  0  0
 15 39  1  0  0  0  0
 16 17  1  0  0  0  0
 16 18  1  0  0  0  0
 16 19  1  0  0  0  0
 20 40  1  0  0  0  0
 20 41  1  0  0  0  0
 21 22  1  0  0  0  0
 22 23  2  0  0  0  0
 22 42  1  0  0  0  0
M  END
> <s_m_source_file>
AV-unprocessed.smi

> <i_m_source_file_index>
2454

> <i_lp_mmshare_version>
43012

> <i_f3d_flags>
0

> <s_epik_input>
W0NIM11PW0NIMl1jMVtjSF1jKG5bY0hdbjEpW05IXUMoPU8pW05IXVtDQEBIXTJbQ0gyXVtDSDJdW0NIMl1bQ0BASF0oQyhGKShGKUYpW0NIMl0y

> <s_epik_cmdline>
J2VwaWtfcHl0aG9uJywgJy1waCcsICc3LjAnLCAnLXRuJywgJzgnLCAnLW1hJywgJzIwMCcsICctbWV0YWxfYmluZGluZycsICctaW1hZScsICc8aW5maWxlLm1hZT4nLCAnLW9tYWUnLCAnPG91dGZpbGUubWFlPic=

> <r_lp_tautomer_probability>
1

> <r_epik_Ionization_Penalty>
3.01554e-05

> <r_epik_Ionization_Penalty_Charging>
0

> <r_epik_Ionization_Penalty_Neutral>
3.01554e-05

> <r_epik_State_Penalty>
-0

> <r_epik_Charging_Adjusted_Penalty>
0

> <i_epik_Tot_Q>
0

> <i_epik_Tot_abs_Q>
0

> <r_epik_Metal_State_Penalty>
-0

> <b_epik_Metal_Only>
0

> <s_lp_Force_Field>
OPLS_2005

> <r_lp_Energy>
13.8487

> <b_lp_Chiralities_Consistent>
1

> <s_lp_Variant>
AV-unprocessed.smi:2454-1

> <Gold.Version>
5.8.1

> <Gold.Id.Protein>
6NUR|6NUR_protein|mol2

> <Gold.PLP.Fitness>
49.2303

> <Gold.PLP.PLP>
-45.1433

> <Gold.PLP.part.hbond>
-2.0000

> <Gold.PLP.part.metal>
0.0000

> <Gold.PLP.part.buried>
-5.5078

> <Gold.PLP.part.nonpolar>
-38.3303

> <Gold.PLP.part.repulsive>
0.2733

> <Gold.PLP.ligand.clash>
0.0000

> <Gold.PLP.ligand.torsion>
0.9698

> <Gold.PLP.Chemscore.Hbond>
2.0000

> <Gold.PLP.Chemscore.CHOScore>
0.0000

> <Gold.PLP.Chemscore.Metal>
0.0000

> <Gold.Chemscore.Hbonds>
donor molecule, donor type, donor heavy atom, donor atom, acceptor molecule, acceptor atom, score
      P1  H  7997  8010       L1     9  1.00

> <Gold.PLP.Chemscore.Internal.Correction>
0.0266

> <Gold.Rescore>
     Score         DG    S(hbond)    S(metal)    S(lipo)     H(rot)  DE(clash)    DE(int)     intcor
     15.65     -17.54       1.65        0.00      90.99       1.60       0.02       1.88       ----

> <Gold.Chemscore.Fitness>
15.6456

> <Gold.Chemscore.DG>
-17.5413

> <Gold.Chemscore.ZeroCoef>
-5.4800

> <Gold.Chemscore.Hbond>
1.6528

> <Gold.Chemscore.Metal>
0.0000

> <Gold.Chemscore.Lipo>
90.9898

> <Gold.Chemscore.Internal_Hbond>
0.0000

> <Gold.Chemscore.DEClash>
0.0206

> <Gold.Chemscore.DEInternal>
1.8750

> <Gold.Chemscore.Rot>
1.6035

> <Gold.Chemscore.Internal.Correction>
   9.000000E+99

> <Gold.Chemscore.Hbonds>
donor molecule, donor type, donor heavy atom, donor atom, acceptor molecule, acceptor atom, score
      P1  H  7997  8010       L1     9  0.99

> <Gold.Chemscore.Hbond.Weighted>
-5.5205

> <Gold.Chemscore.Metal.Weighted>
-0.0000

> <Gold.Chemscore.Lipo.Weighted>
-10.6458

> <Gold.Chemscore.Internal_Hbond.Weighted>
0.0000

> <Gold.Chemscore.DEClash.Weighted>
0.0206

> <Gold.Chemscore.DEInternal.Weighted>
1.8750

> <Gold.Chemscore.Rot.Weighted>
4.1050

> <Gold.Chemscore.Internal.Correction.Weighted>
   9.000000E+99

> <Gold.Protein.RotatedTorsions>
[ 6907 6896 6895 6894 ] final  -13.47 input  -60.11 | X-H torsion
[ 7974 7965 7964 7962 ] final -172.27 input  175.53 | X-H torsion
[ 8008 7997 7996 7995 ] final   48.07 input   59.86 | X-H torsion
[ 10167 10162 10161 10158 ] final  -69.68 input  -65.29 | X-H torsion
[ 10718 10713 10712 10709 ] final   -4.51 input   66.30 | X-H torsion
[ 10763 10752 10751 10750 ] final  -25.65 input  -60.55 | X-H torsion
[ 11005 11000 10999 10996 ] final -134.35 input  -57.11 | X-H torsion

> <Gold.Protein.ActiveResidues>
 VAL166  LYS551  ARG553  GLY616  TRP617  ASP618  TYR619  PRO620  LYS621  CYS622 
 ASP623  PHE694  ASN695  SER759  ASP760  ASP761  ALA762  ILE779  LEU786  VAL792 
 PHE793  MET794  SER795  GLU796  ALA797  LYS798  CYS799  TRP800  GLU811  SER814 

> <Gold.Protein.RotatedAtoms>
  151.3545  135.0891  159.9413 H   0  0  0  0  0  0  0  0  0  0  0  0  # atno 6907 bound_to 6896
  152.5178  133.9320  159.7595 H   0  0  0  0  0  0  0  0  0  0  0  0  # atno 6908 bound_to 6896
  150.9702  133.6298  159.2769 H   0  0  0  0  0  0  0  0  0  0  0  0  # atno 6909 bound_to 6896
  144.7148  140.1798  143.6359 H   0  0  0  0  0  0  0  0  0  0  0  0  # atno 7974 bound_to 7965
  155.3796  140.3428  155.4246 H   0  0  0  0  0  0  0  0  0  0  0  0  # atno 8008 bound_to 7997
  156.1618  140.1603  156.8633 H   0  0  0  0  0  0  0  0  0  0  0  0  # atno 8009 bound_to 7997
  154.5146  140.0781  156.8039 H   0  0  0  0  0  0  0  0  0  0  0  0  # atno 8010 bound_to 7997
  140.5412  143.2315  151.7086 H   0  0  0  0  0  0  0  0  0  0  0  0  # atno 10167 bound_to 10162
  156.7602  130.5267  149.5786 H   0  0  0  0  0  0  0  0  0  0  0  0  # atno 10718 bound_to 10713
  153.7032  135.6955  153.5057 H   0  0  0  0  0  0  0  0  0  0  0  0  # atno 10763 bound_to 10752
  153.2327  135.4332  155.0611 H   0  0  0  0  0  0  0  0  0  0  0  0  # atno 10764 bound_to 10752
  154.8338  135.3488  154.6571 H   0  0  0  0  0  0  0  0  0  0  0  0  # atno 10765 bound_to 10752
  140.8998  134.1705  157.4469 H   0  0  0  0  0  0  0  0  0  0  0  0  # atno 11005 bound_to 11000
  145.8867  139.2353  143.1573 LP  0  0  0  0  0  0  0  0  0  0  0  0  # atno 17320 bound_to 7965
  145.9943  140.8576  143.0050 LP  0  0  0  0  0  0  0  0  0  0  0  0  # atno 17321 bound_to 7965
  139.4989  144.3966  152.0225 LP  0  0  0  0  0  0  0  0  0  0  0  0  # atno 17342 bound_to 10162
  140.3075  144.3576  150.6043 LP  0  0  0  0  0  0  0  0  0  0  0  0  # atno 17343 bound_to 10162
  156.1344  130.6200  151.0379 LP  0  0  0  0  0  0  0  0  0  0  0  0  # atno 17370 bound_to 10713
  157.6738  131.0855  150.7546 LP  0  0  0  0  0  0  0  0  0  0  0  0  # atno 17371 bound_to 10713
  139.8740  134.9893  156.5451 LP  0  0  0  0  0  0  0  0  0  0  0  0  # atno 17394 bound_to 11000
  140.8244  133.8328  155.8925 LP  0  0  0  0  0  0  0  0  0  0  0  0  # atno 17395 bound_to 11000

$$$$
