AV-unprocessed.smi:1748|AV-procd|sdf|7037|dock1
  -GOLD-   22720 8253D 1   1.00000     0.00000
 Structure written by MMmdl.
 40 41  0  0  0  0  0  0  0  0  2 V2000
  150.9599  138.0669  155.0056 C   0  0  0  0  0  0  0  0  0  0  0  0
  149.5968  137.9586  154.4434 N   0  3  2  0  0  0  0  0  0  0  0  0
  149.0860  139.2587  153.9408 C   0  0  0  0  0  0  0  0  0  0  0  0
  147.7236  139.0880  153.2467 C   0  0  0  0  0  0  0  0  0  0  0  0
  146.7079  138.3942  154.1708 C   0  0  0  0  0  0  0  0  0  0  0  0
  147.2731  137.0711  154.7192 C   0  0  1  0  0  0  0  0  0  0  0  0
  147.3633  136.0846  153.6423 N   0  0  0  0  0  0  0  0  0  0  0  0
  146.5850  135.0004  153.5152 C   0  0  0  0  0  0  0  0  0  0  0  0
  145.7089  134.7034  154.3263 O   0  0  0  0  0  0  0  0  0  0  0  0
  146.9135  134.3012  152.4135 N   0  0  0  0  0  0  0  0  0  0  0  0
  146.3455  133.1219  151.9020 C   0  0  0  0  0  0  0  0  0  0  0  0
  146.6263  131.8665  152.3400 C   0  0  0  0  0  0  0  0  0  0  0  0
  145.9888  130.6904  151.7720 C   0  0  0  0  0  0  0  0  0  0  0  0
  146.3720  129.2870  152.2153 C   0  0  0  0  0  0  0  0  0  0  0  0
  146.8867  128.6126  151.1882 F   0  0  0  0  0  0  0  0  0  0  0  0
  147.2810  129.3168  153.1909 F   0  0  0  0  0  0  0  0  0  0  0  0
  145.3061  128.6193  152.6569 F   0  0  0  0  0  0  0  0  0  0  0  0
  145.1062  130.9065  150.7793 C   0  0  0  0  0  0  0  0  0  0  0  0
  144.7962  132.1946  150.3376 N   0  0  0  0  0  0  0  0  0  0  0  0
  145.3553  133.3221  150.8308 C   0  0  0  0  0  0  0  0  0  0  0  0
  145.0318  134.4228  150.3854 O   0  0  0  0  0  0  0  0  0  0  0  0
  148.6442  137.3209  155.3869 C   0  0  0  0  0  0  0  0  0  0  0  0
  144.1117  132.2740  149.5993 H   0  0  0  0  0  0  0  0  0  0  0  0
  150.9714  138.7164  155.8819 H   0  0  0  0  0  0  0  0  0  0  0  0
  151.6499  138.4756  154.2667 H   0  0  0  0  0  0  0  0  0  0  0  0
  151.3333  137.0859  155.3011 H   0  0  0  0  0  0  0  0  0  0  0  0
  148.9985  139.9621  154.7704 H   0  0  0  0  0  0  0  0  0  0  0  0
  149.8015  139.6861  153.2369 H   0  0  0  0  0  0  0  0  0  0  0  0
  147.3396  140.0606  152.9378 H   0  0  0  0  0  0  0  0  0  0  0  0
  147.8503  138.5063  152.3327 H   0  0  0  0  0  0  0  0  0  0  0  0
  146.4696  139.0570  155.0038 H   0  0  0  0  0  0  0  0  0  0  0  0
  145.7703  138.2208  153.6410 H   0  0  0  0  0  0  0  0  0  0  0  0
  146.5783  136.6890  155.4695 H   0  0  0  0  0  0  0  0  0  0  0  0
  148.0554  136.2550  152.9270 H   0  0  0  0  0  0  0  0  0  0  0  0
  147.6980  134.6478  151.8804 H   0  0  0  0  0  0  0  0  0  0  0  0
  147.3222  131.6996  153.1455 H   0  0  0  0  0  0  0  0  0  0  0  0
  144.5816  130.1244  150.2501 H   0  0  0  0  0  0  0  0  0  0  0  0
  149.0628  136.3822  155.7522 H   0  0  0  0  0  0  0  0  0  0  0  0
  148.5202  137.9620  156.2611 H   0  0  0  0  0  0  0  0  0  0  0  0
  149.6648  137.3445  153.6443 H   0  0  0  0  0  0  0  0  0  0  0  0
  1  2  1  0  0  0  0
  1 24  1  0  0  0  0
  1 25  1  0  0  0  0
  1 26  1  0  0  0  0
  2 22  1  0  0  0  0
  2  3  1  0  0  0  0
  2 40  1  0  0  0  0
  3  4  1  0  0  0  0
  3 27  1  0  0  0  0
  3 28  1  0  0  0  0
  4  5  1  0  0  0  0
  4 29  1  0  0  0  0
  4 30  1  0  0  0  0
  5  6  1  0  0  0  0
  5 31  1  0  0  0  0
  5 32  1  0  0  0  0
  6  7  1  0  0  0  0
  6 22  1  0  0  0  0
  6 33  1  0  0  0  0
  7  8  1  0  0  0  0
  7 34  1  0  0  0  0
  8  9  2  0  0  0  0
  8 10  1  0  0  0  0
 10 11  1  0  0  0  0
 10 35  1  0  0  0  0
 11 20  1  0  0  0  0
 11 12  2  0  0  0  0
 12 13  1  0  0  0  0
 12 36  1  0  0  0  0
 13 14  1  0  0  0  0
 13 18  2  0  0  0  0
 14 15  1  0  0  0  0
 14 16  1  0  0  0  0
 14 17  1  0  0  0  0
 18 19  1  0  0  0  0
 18 37  1  0  0  0  0
 19 23  1  0  0  0  0
 19 20  1  0  0  0  0
 20 21  2  0  0  0  0
 22 38  1  0  0  0  0
 22 39  1  0  0  0  0
M  CHG  1   2   1
M  END
> <s_m_source_file>
AV-unprocessed.smi

> <i_m_source_file_index>
1748

> <i_lp_mmshare_version>
43012

> <i_f3d_flags>
0

> <s_epik_input>
W0NIM11OMVtDSDJdW0NIMl1bQ0gyXVtDQEhdKFtDSDJdMSlbTkhdQyg9TylbTkhdYzJbY0hdYyhDKEYpKEYpRilbY0hdW25IXWMyPU8=

> <s_epik_cmdline>
J2VwaWtfcHl0aG9uJywgJy1waCcsICc3LjAnLCAnLXRuJywgJzgnLCAnLW1hJywgJzIwMCcsICctbWV0YWxfYmluZGluZycsICctaW1hZScsICc8aW5maWxlLm1hZT4nLCAnLW9tYWUnLCAnPG91dGZpbGUubWFlPic=

> <r_lp_tautomer_probability>
1

> <r_epik_Ionization_Penalty>
0.00746315

> <r_epik_Ionization_Penalty_Charging>
0.00744398

> <r_epik_Ionization_Penalty_Neutral>
1.91704e-05

> <r_epik_State_Penalty>
-0

> <r_epik_Charging_Adjusted_Penalty>
0.00744398

> <i_epik_Tot_Q>
1

> <i_epik_Tot_abs_Q>
1

> <r_epik_Metal_State_Penalty>
0.379332

> <b_epik_Metal_Only>
0

> <s_lp_Force_Field>
OPLS_2005

> <r_lp_Energy>
33.6429

> <b_lp_Chiralities_Consistent>
1

> <s_lp_Variant>
AV-unprocessed.smi:1748-2

> <Gold.Version>
5.8.1

> <Gold.Id.Protein>
6NUR|6NUR_protein|mol2

> <Gold.PLP.Fitness>
40.4962

> <Gold.PLP.PLP>
-31.2356

> <Gold.PLP.part.hbond>
-2.8531

> <Gold.PLP.part.metal>
0.0000

> <Gold.PLP.part.buried>
-0.5459

> <Gold.PLP.part.nonpolar>
-27.4804

> <Gold.PLP.part.repulsive>
0.3351

> <Gold.PLP.ligand.clash>
0.0000

> <Gold.PLP.ligand.torsion>
0.8411

> <Gold.PLP.Chemscore.Hbond>
3.6370

> <Gold.PLP.Chemscore.CHOScore>
0.0000

> <Gold.PLP.Chemscore.Metal>
0.0000

> <Gold.Chemscore.Hbonds>
donor molecule, donor type, donor heavy atom, donor atom, acceptor molecule, acceptor atom, score
      L1  H     2    40       P1  7948  1.24
      L1  H     7    34       P1  7948  0.65
      L1  H    10    35       P1  7948  0.82

> <Gold.PLP.Chemscore.Internal.Correction>
0.0319

> <Gold.Rescore>
     Score         DG    S(hbond)    S(metal)    S(lipo)     H(rot)  DE(clash)    DE(int)     intcor
     16.08     -16.99       2.01        0.00      63.05       1.00       0.15       0.76       ----

> <Gold.Chemscore.Fitness>
16.0839

> <Gold.Chemscore.DG>
-16.9948

> <Gold.Chemscore.ZeroCoef>
-5.4800

> <Gold.Chemscore.Hbond>
2.0055

> <Gold.Chemscore.Metal>
0.0000

> <Gold.Chemscore.Lipo>
63.0461

> <Gold.Chemscore.Internal_Hbond>
0.0000

> <Gold.Chemscore.DEClash>
0.1486

> <Gold.Chemscore.DEInternal>
0.7623

> <Gold.Chemscore.Rot>
1.0000

> <Gold.Chemscore.Internal.Correction>
   9.000000E+99

> <Gold.Chemscore.Hbonds>
donor molecule, donor type, donor heavy atom, donor atom, acceptor molecule, acceptor atom, score
      L1  H     2    40       P1  7948  0.49
      L1  H     7    34       P1  7948  0.65
      L1  H    10    35       P1  7948  0.32

> <Gold.Chemscore.Hbond.Weighted>
-6.6984

> <Gold.Chemscore.Metal.Weighted>
-0.0000

> <Gold.Chemscore.Lipo.Weighted>
-7.3764

> <Gold.Chemscore.Internal_Hbond.Weighted>
0.0000

> <Gold.Chemscore.DEClash.Weighted>
0.1486

> <Gold.Chemscore.DEInternal.Weighted>
0.7623

> <Gold.Chemscore.Rot.Weighted>
2.5600

> <Gold.Chemscore.Internal.Correction.Weighted>
   9.000000E+99

> <Gold.Protein.RotatedTorsions>
[ 6907 6896 6895 6894 ] final  -77.39 input  -60.11 | X-H torsion
[ 7974 7965 7964 7962 ] final  102.22 input  175.53 | X-H torsion
[ 8008 7997 7996 7995 ] final   81.34 input   59.86 | X-H torsion
[ 10167 10162 10161 10158 ] final   35.60 input  -65.29 | X-H torsion
[ 10718 10713 10712 10709 ] final -176.73 input   66.30 | X-H torsion
[ 10763 10752 10751 10750 ] final  -78.41 input  -60.55 | X-H torsion
[ 11005 11000 10999 10996 ] final  -96.97 input  -57.11 | X-H torsion

> <Gold.Protein.ActiveResidues>
 VAL166  LYS551  ARG553  GLY616  TRP617  ASP618  TYR619  PRO620  LYS621  CYS622 
 ASP623  PHE694  ASN695  SER759  ASP760  ASP761  ALA762  ILE779  LEU786  VAL792 
 PHE793  MET794  SER795  GLU796  ALA797  LYS798  CYS799  TRP800  GLU811  SER814 

> <Gold.Protein.RotatedAtoms>
  150.7000  134.4429  159.5300 H   0  0  0  0  0  0  0  0  0  0  0  0  # atno 6907 bound_to 6896
  152.2136  134.8476  160.0503 H   0  0  0  0  0  0  0  0  0  0  0  0  # atno 6908 bound_to 6896
  151.9352  133.3587  159.3982 H   0  0  0  0  0  0  0  0  0  0  0  0  # atno 6909 bound_to 6896
  145.3619  139.2416  143.3502 H   0  0  0  0  0  0  0  0  0  0  0  0  # atno 7974 bound_to 7965
  155.8958  140.3436  155.5989 H   0  0  0  0  0  0  0  0  0  0  0  0  # atno 8008 bound_to 7997
  155.7558  140.0826  157.2198 H   0  0  0  0  0  0  0  0  0  0  0  0  # atno 8009 bound_to 7997
  154.4038  140.1545  156.2763 H   0  0  0  0  0  0  0  0  0  0  0  0  # atno 8010 bound_to 7997
  140.4207  144.1464  150.6147 H   0  0  0  0  0  0  0  0  0  0  0  0  # atno 10167 bound_to 10162
  156.8190  130.9613  151.3112 H   0  0  0  0  0  0  0  0  0  0  0  0  # atno 10718 bound_to 10713
  154.5255  135.5731  153.6716 H   0  0  0  0  0  0  0  0  0  0  0  0  # atno 10763 bound_to 10752
  152.9927  135.6192  154.2697 H   0  0  0  0  0  0  0  0  0  0  0  0  # atno 10764 bound_to 10752
  154.2621  135.2856  155.2753 H   0  0  0  0  0  0  0  0  0  0  0  0  # atno 10765 bound_to 10752
  141.1394  133.8136  157.0643 H   0  0  0  0  0  0  0  0  0  0  0  0  # atno 11005 bound_to 11000
  146.2923  140.4255  142.8735 LP  0  0  0  0  0  0  0  0  0  0  0  0  # atno 17320 bound_to 7965
  144.8640  140.7179  143.6089 LP  0  0  0  0  0  0  0  0  0  0  0  0  # atno 17321 bound_to 7965
  140.4537  143.2476  151.9313 LP  0  0  0  0  0  0  0  0  0  0  0  0  # atno 17342 bound_to 10162
  139.4782  144.5537  151.8347 LP  0  0  0  0  0  0  0  0  0  0  0  0  # atno 17343 bound_to 10162
  157.6467  130.8850  149.9552 LP  0  0  0  0  0  0  0  0  0  0  0  0  # atno 17370 bound_to 10713
  156.1000  130.3656  150.0236 LP  0  0  0  0  0  0  0  0  0  0  0  0  # atno 17371 bound_to 10713
  140.0552  134.9784  157.1207 LP  0  0  0  0  0  0  0  0  0  0  0  0  # atno 17394 bound_to 11000
  140.3931  134.2163  155.7165 LP  0  0  0  0  0  0  0  0  0  0  0  0  # atno 17395 bound_to 11000

$$$$
