AV-unprocessed.smi:1102|AV-procd|sdf|4768|dock7
  -GOLD-   22720 3303D 1   1.00000     0.00000
 Structure written by MMmdl.
 40 41  0  0  0  0  0  0  0  0  2 V2000
  151.2553  143.9884  157.7605 C   0  0  0  0  0  0  0  0  0  0  0  0
  151.4318  142.5419  157.8264 N   0  0  0  0  0  0  0  0  0  0  0  0
  152.2910  141.9509  158.8439 C   0  0  0  0  0  0  0  0  0  0  0  0
  150.7780  141.7123  156.8899 C   0  0  0  0  0  0  0  0  0  0  0  0
  151.2215  140.4064  156.5670 C   0  0  0  0  0  0  0  0  0  0  0  0
  150.5130  139.6390  155.6198 C   0  0  0  0  0  0  0  0  0  0  0  0
  149.3610  140.1705  155.0035 C   0  0  0  0  0  0  0  0  0  0  0  0
  148.6894  139.3626  154.0455 N   0  0  0  0  0  0  0  0  0  0  0  0
  147.4034  139.4132  153.6571 C   0  0  0  0  0  0  0  0  0  0  0  0
  146.5547  140.1833  154.1051 O   0  0  0  0  0  0  0  0  0  0  0  0
  147.1458  138.4918  152.7183 N   0  0  0  0  0  0  0  0  0  0  0  0
  145.8483  138.2629  152.0896 C   0  0  0  0  0  0  0  0  0  0  0  0
  145.3077  136.8542  152.3883 C   0  0  1  0  0  0  0  0  0  0  0  0
  143.7920  136.7637  152.5703 C   0  0  0  0  0  0  0  0  0  0  0  0
  143.5337  135.3130  152.2352 C   0  0  0  0  0  0  0  0  0  0  0  0
  144.5093  135.0815  151.0848 C   0  0  0  0  0  0  0  0  0  0  0  0
  145.5980  135.9761  151.3040 O   0  0  0  0  0  0  0  0  0  0  0  0
  148.9637  141.4834  155.3516 C   0  0  0  0  0  0  0  0  0  0  0  0
  149.6728  142.1840  156.2630 N   0  3  0  0  0  0  0  0  0  0  0  0
  151.5891  144.3710  156.7954 H   0  0  0  0  0  0  0  0  0  0  0  0
  151.8296  144.4950  158.5364 H   0  0  0  0  0  0  0  0  0  0  0  0
  150.2059  144.2531  157.8953 H   0  0  0  0  0  0  0  0  0  0  0  0
  153.1250  141.4219  158.3816 H   0  0  0  0  0  0  0  0  0  0  0  0
  151.7292  141.2481  159.4599 H   0  0  0  0  0  0  0  0  0  0  0  0
  152.7048  142.7131  159.5044 H   0  0  0  0  0  0  0  0  0  0  0  0
  152.0982  139.9782  157.0296 H   0  0  0  0  0  0  0  0  0  0  0  0
  150.8547  138.6441  155.3734 H   0  0  0  0  0  0  0  0  0  0  0  0
  149.2452  138.6280  153.6324 H   0  0  0  0  0  0  0  0  0  0  0  0
  147.9040  137.8988  152.4136 H   0  0  0  0  0  0  0  0  0  0  0  0
  145.1246  139.0227  152.3895 H   0  0  0  0  0  0  0  0  0  0  0  0
  145.9795  138.3778  151.0136 H   0  0  0  0  0  0  0  0  0  0  0  0
  145.7990  136.4474  153.2737 H   0  0  0  0  0  0  0  0  0  0  0  0
  143.4647  137.0370  153.5737 H   0  0  0  0  0  0  0  0  0  0  0  0
  143.2785  137.4075  151.8547 H   0  0  0  0  0  0  0  0  0  0  0  0
  143.7955  134.6806  153.0845 H   0  0  0  0  0  0  0  0  0  0  0  0
  142.4973  135.1111  151.9636 H   0  0  0  0  0  0  0  0  0  0  0  0
  144.8484  134.0467  151.0315 H   0  0  0  0  0  0  0  0  0  0  0  0
  144.0419  135.3337  150.1322 H   0  0  0  0  0  0  0  0  0  0  0  0
  148.1192  142.0114  154.9360 H   0  0  0  0  0  0  0  0  0  0  0  0
  149.3571  143.1269  156.4908 H   0  0  0  0  0  0  0  0  0  0  0  0
  1  2  1  0  0  0  0
  1 20  1  0  0  0  0
  1 21  1  0  0  0  0
  1 22  1  0  0  0  0
  2  3  1  0  0  0  0
  2  4  1  0  0  0  0
  3 23  1  0  0  0  0
  3 24  1  0  0  0  0
  3 25  1  0  0  0  0
  4 19  1  0  0  0  0
  4  5  2  0  0  0  0
  5  6  1  0  0  0  0
  5 26  1  0  0  0  0
  6  7  2  0  0  0  0
  6 27  1  0  0  0  0
  7  8  1  0  0  0  0
  7 18  1  0  0  0  0
  8  9  1  0  0  0  0
  8 28  1  0  0  0  0
  9 10  2  0  0  0  0
  9 11  1  0  0  0  0
 11 12  1  0  0  0  0
 11 29  1  0  0  0  0
 12 13  1  0  0  0  0
 12 30  1  0  0  0  0
 12 31  1  0  0  0  0
 13 17  1  0  0  0  0
 13 14  1  0  0  0  0
 13 32  1  0  0  0  0
 14 15  1  0  0  0  0
 14 33  1  0  0  0  0
 14 34  1  0  0  0  0
 15 16  1  0  0  0  0
 15 35  1  0  0  0  0
 15 36  1  0  0  0  0
 16 17  1  0  0  0  0
 16 37  1  0  0  0  0
 16 38  1  0  0  0  0
 18 19  2  0  0  0  0
 18 39  1  0  0  0  0
 19 40  1  0  0  0  0
M  CHG  1  19   1
M  END
> <s_m_source_file>
AV-unprocessed.smi

> <i_m_source_file_index>
1102

> <i_lp_mmshare_version>
43012

> <i_f3d_flags>
0

> <s_epik_input>
W0NIM11OKFtDSDNdKWMxW2NIXVtjSF1jKFtjSF1uMSlbTkhdQyg9TylbTkhdW0NIMl1bQ0BASF0yW0NIMl1bQ0gyXVtDSDJdTzI=

> <s_epik_cmdline>
J2VwaWtfcHl0aG9uJywgJy1waCcsICc3LjAnLCAnLXRuJywgJzgnLCAnLW1hJywgJzIwMCcsICctbWV0YWxfYmluZGluZycsICctaW1hZScsICc8aW5maWxlLm1hZT4nLCAnLW9tYWUnLCAnPG91dGZpbGUubWFlPic=

> <r_lp_tautomer_probability>
0.999994

> <r_epik_Ionization_Penalty>
0.265123

> <r_epik_Ionization_Penalty_Charging>
0.265104

> <r_epik_Ionization_Penalty_Neutral>
1.89079e-05

> <r_epik_State_Penalty>
0.257001

> <r_epik_Charging_Adjusted_Penalty>
0.522106

> <i_epik_Tot_Q>
1

> <i_epik_Tot_abs_Q>
1

> <r_epik_Metal_State_Penalty>
0.543599

> <b_epik_Metal_Only>
0

> <s_lp_Force_Field>
OPLS_2005

> <r_lp_Energy>
27.717

> <b_lp_Chiralities_Consistent>
1

> <s_lp_Variant>
AV-unprocessed.smi:1102-2

> <Gold.Version>
5.8.1

> <Gold.Id.Protein>
6NUR|6NUR_protein|mol2

> <Gold.PLP.Fitness>
43.9563

> <Gold.PLP.PLP>
-36.6609

> <Gold.PLP.part.hbond>
-4.0000

> <Gold.PLP.part.metal>
0.0000

> <Gold.PLP.part.buried>
-1.3056

> <Gold.PLP.part.nonpolar>
-33.0103

> <Gold.PLP.part.repulsive>
0.8189

> <Gold.PLP.ligand.clash>
0.0000

> <Gold.PLP.ligand.torsion>
0.8549

> <Gold.PLP.Chemscore.Hbond>
3.0000

> <Gold.PLP.Chemscore.CHOScore>
0.0000

> <Gold.PLP.Chemscore.Metal>
0.0000

> <Gold.Chemscore.Hbonds>
donor molecule, donor type, donor heavy atom, donor atom, acceptor molecule, acceptor atom, score
      L1  H    11    29       P1  7948  1.00
      L1  H    19    40       P1  8028  1.63

> <Gold.PLP.Chemscore.Internal.Correction>
0.0053

> <Gold.Rescore>
     Score         DG    S(hbond)    S(metal)    S(lipo)     H(rot)  DE(clash)    DE(int)     intcor
     16.08     -17.21       1.96        0.00      71.11       1.23       0.02       1.11       ----

> <Gold.Chemscore.Fitness>
16.0799

> <Gold.Chemscore.DG>
-17.2077

> <Gold.Chemscore.ZeroCoef>
-5.4800

> <Gold.Chemscore.Hbond>
1.9605

> <Gold.Chemscore.Metal>
0.0000

> <Gold.Chemscore.Lipo>
71.1122

> <Gold.Chemscore.Internal_Hbond>
0.0000

> <Gold.Chemscore.DEClash>
0.0181

> <Gold.Chemscore.DEInternal>
1.1097

> <Gold.Chemscore.Rot>
1.2268

> <Gold.Chemscore.Internal.Correction>
   9.000000E+99

> <Gold.Chemscore.Hbonds>
donor molecule, donor type, donor heavy atom, donor atom, acceptor molecule, acceptor atom, score
      L1  H    11    29       P1  7948  0.93
      L1  H    19    40       P1  8028  0.81

> <Gold.Chemscore.Hbond.Weighted>
-6.5482

> <Gold.Chemscore.Metal.Weighted>
-0.0000

> <Gold.Chemscore.Lipo.Weighted>
-8.3201

> <Gold.Chemscore.Internal_Hbond.Weighted>
0.0000

> <Gold.Chemscore.DEClash.Weighted>
0.0181

> <Gold.Chemscore.DEInternal.Weighted>
1.1097

> <Gold.Chemscore.Rot.Weighted>
3.1406

> <Gold.Chemscore.Internal.Correction.Weighted>
   9.000000E+99

> <Gold.Protein.RotatedTorsions>
[ 6907 6896 6895 6894 ] final -154.64 input  -60.11 | X-H torsion
[ 7974 7965 7964 7962 ] final  -28.63 input  175.53 | X-H torsion
[ 8008 7997 7996 7995 ] final  -36.02 input   59.86 | X-H torsion
[ 10167 10162 10161 10158 ] final  -94.51 input  -65.29 | X-H torsion
[ 10718 10713 10712 10709 ] final   76.34 input   66.30 | X-H torsion
[ 10763 10752 10751 10750 ] final  144.30 input  -60.55 | X-H torsion
[ 11005 11000 10999 10996 ] final   19.77 input  -57.11 | X-H torsion

> <Gold.Protein.ActiveResidues>
 VAL166  LYS551  ARG553  GLY616  TRP617  ASP618  TYR619  PRO620  LYS621  CYS622 
 ASP623  PHE694  ASN695  SER759  ASP760  ASP761  ALA762  ILE779  LEU786  VAL792 
 PHE793  MET794  SER795  GLU796  ALA797  LYS798  CYS799  TRP800  GLU811  SER814 

> <Gold.Protein.RotatedAtoms>
  151.2605  133.4304  159.2615 H   0  0  0  0  0  0  0  0  0  0  0  0  # atno 6907 bound_to 6896
  151.0535  134.9689  159.8234 H   0  0  0  0  0  0  0  0  0  0  0  0  # atno 6908 bound_to 6896
  152.5386  134.2558  159.8969 H   0  0  0  0  0  0  0  0  0  0  0  0  # atno 6909 bound_to 6896
  146.1274  140.5308  142.8708 H   0  0  0  0  0  0  0  0  0  0  0  0  # atno 7974 bound_to 7965
  154.4082  140.1642  156.2306 H   0  0  0  0  0  0  0  0  0  0  0  0  # atno 8008 bound_to 7997
  155.9285  140.3416  155.6207 H   0  0  0  0  0  0  0  0  0  0  0  0  # atno 8009 bound_to 7997
  155.7135  140.0759  157.2352 H   0  0  0  0  0  0  0  0  0  0  0  0  # atno 8010 bound_to 7997
  140.3137  143.3089  152.0121 H   0  0  0  0  0  0  0  0  0  0  0  0  # atno 10167 bound_to 10162
  157.6670  130.9769  150.1483 H   0  0  0  0  0  0  0  0  0  0  0  0  # atno 10718 bound_to 10713
  153.9866  135.2936  155.3415 H   0  0  0  0  0  0  0  0  0  0  0  0  # atno 10763 bound_to 10752
  154.7238  135.5097  153.8857 H   0  0  0  0  0  0  0  0  0  0  0  0  # atno 10764 bound_to 10752
  153.0829  135.6684  154.0123 H   0  0  0  0  0  0  0  0  0  0  0  0  # atno 10765 bound_to 10752
  140.4100  134.1628  155.7667 H   0  0  0  0  0  0  0  0  0  0  0  0  # atno 11005 bound_to 11000
  144.7656  140.5522  143.6705 LP  0  0  0  0  0  0  0  0  0  0  0  0  # atno 17320 bound_to 7965
  145.5335  139.1475  143.3486 LP  0  0  0  0  0  0  0  0  0  0  0  0  # atno 17321 bound_to 7965
  139.4888  144.6364  151.6966 LP  0  0  0  0  0  0  0  0  0  0  0  0  # atno 17342 bound_to 10162
  140.5545  144.0370  150.6141 LP  0  0  0  0  0  0  0  0  0  0  0  0  # atno 17343 bound_to 10162
  156.2288  130.3680  149.8469 LP  0  0  0  0  0  0  0  0  0  0  0  0  # atno 17370 bound_to 10713
  156.6301  130.8662  151.3493 LP  0  0  0  0  0  0  0  0  0  0  0  0  # atno 17371 bound_to 10713
  141.1824  133.8385  157.1209 LP  0  0  0  0  0  0  0  0  0  0  0  0  # atno 17394 bound_to 11000
  140.0274  134.9917  157.0713 LP  0  0  0  0  0  0  0  0  0  0  0  0  # atno 17395 bound_to 11000

$$$$
