AV-unprocessed.smi:2093|AV-procd|sdf|8547|dock1
  -GOLD-   2272011273D 1   1.00000     0.00000
 Structure written by MMmdl.
 31 32  0  0  0  0  0  0  0  0  1 V2000
  144.4233  136.3168  153.2554 C   0  0  0  0  0  0  0  0  0  0  0  0
  145.1800  136.6562  151.9620 C   0  0  1  0  0  0  0  0  0  0  0  0
  146.5084  137.1555  152.3112 N   0  0  0  0  0  0  0  0  0  0  0  0
  146.7719  138.1794  153.1364 C   0  0  0  0  0  0  0  0  0  0  0  0
  145.9040  138.8228  153.7271 O   0  0  0  0  0  0  0  0  0  0  0  0
  148.0953  138.4001  153.2244 N   0  0  0  0  0  0  0  0  0  0  0  0
  148.7728  139.3856  153.9890 C   0  0  0  0  0  0  0  0  0  0  0  0
  149.9547  139.1970  154.5879 N   0  0  0  0  0  0  0  0  0  0  0  0
  150.3845  140.3376  155.2710 C   0  0  0  0  0  0  0  0  0  0  0  0
  149.5117  141.3931  155.1805 C   0  0  0  0  0  0  0  0  0  0  0  0
  148.1069  140.9947  154.2279 S   0  0  0  0  0  0  0  0  0  0  0  0
  145.3241  135.4394  151.0275 C   0  0  1  0  0  0  0  0  0  0  0  0
  146.1815  134.3004  151.5834 C   0  0  0  0  0  0  0  0  0  0  0  0
  145.6425  133.0628  150.8815 C   0  0  0  0  0  0  0  0  0  0  0  0
  144.3256  133.5301  150.2566 C   0  0  0  0  0  0  0  0  0  0  0  0
  144.0712  134.7979  150.8428 O   0  0  0  0  0  0  0  0  0  0  0  0
  143.4077  135.9808  153.0452 H   0  0  0  0  0  0  0  0  0  0  0  0
  144.3481  137.1896  153.9050 H   0  0  0  0  0  0  0  0  0  0  0  0
  144.9264  135.5274  153.8150 H   0  0  0  0  0  0  0  0  0  0  0  0
  144.6122  137.4257  151.4360 H   0  0  0  0  0  0  0  0  0  0  0  0
  147.2903  136.6925  151.8721 H   0  0  0  0  0  0  0  0  0  0  0  0
  148.6881  137.7935  152.6776 H   0  0  0  0  0  0  0  0  0  0  0  0
  151.3274  140.3102  155.7969 H   0  0  0  0  0  0  0  0  0  0  0  0
  149.6100  142.3767  155.6150 H   0  0  0  0  0  0  0  0  0  0  0  0
  145.7066  135.7494  150.0528 H   0  0  0  0  0  0  0  0  0  0  0  0
  147.2468  134.4538  151.4084 H   0  0  0  0  0  0  0  0  0  0  0  0
  146.0288  134.2027  152.6592 H   0  0  0  0  0  0  0  0  0  0  0  0
  146.3287  132.7037  150.1137 H   0  0  0  0  0  0  0  0  0  0  0  0
  145.4826  132.2531  151.5946 H   0  0  0  0  0  0  0  0  0  0  0  0
  144.4341  133.6494  149.1775 H   0  0  0  0  0  0  0  0  0  0  0  0
  143.5037  132.8381  150.4418 H   0  0  0  0  0  0  0  0  0  0  0  0
  1  2  1  0  0  0  0
  1 17  1  0  0  0  0
  1 18  1  0  0  0  0
  1 19  1  0  0  0  0
  2  3  1  0  0  0  0
  2 12  1  0  0  0  0
  2 20  1  0  0  0  0
  3  4  1  0  0  0  0
  3 21  1  0  0  0  0
  4  5  2  0  0  0  0
  4  6  1  0  0  0  0
  6  7  1  0  0  0  0
  6 22  1  0  0  0  0
  7 11  1  0  0  0  0
  7  8  2  0  0  0  0
  8  9  1  0  0  0  0
  9 10  2  0  0  0  0
  9 23  1  0  0  0  0
 10 11  1  0  0  0  0
 10 24  1  0  0  0  0
 12 16  1  0  0  0  0
 12 13  1  0  0  0  0
 12 25  1  0  0  0  0
 13 14  1  0  0  0  0
 13 26  1  0  0  0  0
 13 27  1  0  0  0  0
 14 15  1  0  0  0  0
 14 28  1  0  0  0  0
 14 29  1  0  0  0  0
 15 16  1  0  0  0  0
 15 30  1  0  0  0  0
 15 31  1  0  0  0  0
M  END
> <s_m_source_file>
AV-unprocessed.smi

> <i_m_source_file_index>
2093

> <i_lp_mmshare_version>
43012

> <i_f3d_flags>
0

> <s_epik_input>
TzFbQ0gyXVtDSDJdW0NIMl1bQ0BIXTFbQ0BIXShbQ0gzXSlbTkhdQyg9TylbTkhdYzJuW2NIXVtjSF1zMg==

> <s_epik_cmdline>
J2VwaWtfcHl0aG9uJywgJy1waCcsICc3LjAnLCAnLXRuJywgJzgnLCAnLW1hJywgJzIwMCcsICctbWV0YWxfYmluZGluZycsICctaW1hZScsICc8aW5maWxlLm1hZT4nLCAnLW9tYWUnLCAnPG91dGZpbGUubWFlPic=

> <r_lp_tautomer_probability>
0.999

> <r_epik_Ionization_Penalty>
0.000334433

> <r_epik_Ionization_Penalty_Charging>
0

> <r_epik_Ionization_Penalty_Neutral>
0.000334433

> <r_epik_State_Penalty>
0.000177984

> <r_epik_Charging_Adjusted_Penalty>
0.000177984

> <i_epik_Tot_Q>
0

> <i_epik_Tot_abs_Q>
0

> <r_epik_Metal_State_Penalty>
0.00767616

> <b_epik_Metal_Only>
0

> <s_lp_Force_Field>
OPLS_2005

> <r_lp_Energy>
16.8099

> <b_lp_Chiralities_Consistent>
1

> <s_lp_Variant>
AV-unprocessed.smi:2093-4

> <Gold.Version>
5.8.1

> <Gold.Id.Protein>
6NUR|6NUR_protein|mol2

> <Gold.PLP.Fitness>
34.5713

> <Gold.PLP.PLP>
-26.2137

> <Gold.PLP.part.hbond>
-3.0000

> <Gold.PLP.part.metal>
0.0000

> <Gold.PLP.part.buried>
-2.7636

> <Gold.PLP.part.nonpolar>
-22.1942

> <Gold.PLP.part.repulsive>
0.9711

> <Gold.PLP.ligand.clash>
0.0000

> <Gold.PLP.ligand.torsion>
0.3336

> <Gold.PLP.Chemscore.Hbond>
2.0000

> <Gold.PLP.Chemscore.CHOScore>
1.0000

> <Gold.PLP.Chemscore.Metal>
0.0000

> <Gold.Chemscore.Hbonds>
donor molecule, donor type, donor heavy atom, donor atom, acceptor molecule, acceptor atom, score
      L1  H     3    21       P1  7948  1.00
      L1  H     6    22       P1  7948  1.00
      L1  C    10    24       P1  8028  1.00

> <Gold.PLP.Chemscore.Internal.Correction>
0.0247

> <Gold.Rescore>
     Score         DG    S(hbond)    S(metal)    S(lipo)     H(rot)  DE(clash)    DE(int)     intcor
     13.52     -15.04       1.95        0.00      54.26       1.29       0.05       1.46       ----

> <Gold.Chemscore.Fitness>
13.5231

> <Gold.Chemscore.DG>
-15.0354

> <Gold.Chemscore.ZeroCoef>
-5.4800

> <Gold.Chemscore.Hbond>
1.9518

> <Gold.Chemscore.Metal>
0.0000

> <Gold.Chemscore.Lipo>
54.2614

> <Gold.Chemscore.Internal_Hbond>
0.0000

> <Gold.Chemscore.DEClash>
0.0480

> <Gold.Chemscore.DEInternal>
1.4644

> <Gold.Chemscore.Rot>
1.2938

> <Gold.Chemscore.Internal.Correction>
   9.000000E+99

> <Gold.Chemscore.Hbonds>
donor molecule, donor type, donor heavy atom, donor atom, acceptor molecule, acceptor atom, score
      L1  H     3    21       P1  7948  0.96
      L1  H     6    22       P1  7948  0.95

> <Gold.Chemscore.Hbond.Weighted>
-6.5191

> <Gold.Chemscore.Metal.Weighted>
-0.0000

> <Gold.Chemscore.Lipo.Weighted>
-6.3486

> <Gold.Chemscore.Internal_Hbond.Weighted>
0.0000

> <Gold.Chemscore.DEClash.Weighted>
0.0480

> <Gold.Chemscore.DEInternal.Weighted>
1.4644

> <Gold.Chemscore.Rot.Weighted>
3.3122

> <Gold.Chemscore.Internal.Correction.Weighted>
   9.000000E+99

> <Gold.Protein.RotatedTorsions>
[ 6907 6896 6895 6894 ] final   15.36 input  -60.11 | X-H torsion
[ 7974 7965 7964 7962 ] final   67.13 input  175.53 | X-H torsion
[ 8008 7997 7996 7995 ] final  -81.33 input   59.86 | X-H torsion
[ 10167 10162 10161 10158 ] final   10.44 input  -65.29 | X-H torsion
[ 10718 10713 10712 10709 ] final  -96.31 input   66.30 | X-H torsion
[ 10763 10752 10751 10750 ] final  -40.36 input  -60.55 | X-H torsion
[ 11005 11000 10999 10996 ] final  160.20 input  -57.11 | X-H torsion

> <Gold.Protein.ActiveResidues>
 VAL166  LYS551  ARG553  GLY616  TRP617  ASP618  TYR619  PRO620  LYS621  CYS622 
 ASP623  PHE694  ASN695  SER759  ASP760  ASP761  ALA762  ILE779  LEU786  VAL792 
 PHE793  MET794  SER795  GLU796  ALA797  LYS798  CYS799  TRP800  GLU811  SER814 

> <Gold.Protein.RotatedAtoms>
  151.8168  135.0664  160.0419 H   0  0  0  0  0  0  0  0  0  0  0  0  # atno 6907 bound_to 6896
  152.2980  133.5622  159.5608 H   0  0  0  0  0  0  0  0  0  0  0  0  # atno 6908 bound_to 6896
  150.7260  134.0248  159.3756 H   0  0  0  0  0  0  0  0  0  0  0  0  # atno 6909 bound_to 6896
  145.8183  139.3070  143.1058 H   0  0  0  0  0  0  0  0  0  0  0  0  # atno 7974 bound_to 7965
  154.5972  140.0649  156.9320 H   0  0  0  0  0  0  0  0  0  0  0  0  # atno 8008 bound_to 7997
  155.2193  140.3329  155.4299 H   0  0  0  0  0  0  0  0  0  0  0  0  # atno 8009 bound_to 7997
  156.2295  140.1834  156.7263 H   0  0  0  0  0  0  0  0  0  0  0  0  # atno 8010 bound_to 7997
  140.6194  143.8237  150.7157 H   0  0  0  0  0  0  0  0  0  0  0  0  # atno 10167 bound_to 10162
  156.0060  130.5146  150.6207 H   0  0  0  0  0  0  0  0  0  0  0  0  # atno 10718 bound_to 10713
  153.9446  135.6757  153.4744 H   0  0  0  0  0  0  0  0  0  0  0  0  # atno 10763 bound_to 10752
  153.0914  135.4872  154.8694 H   0  0  0  0  0  0  0  0  0  0  0  0  # atno 10764 bound_to 10752
  154.7358  135.3149  154.8771 H   0  0  0  0  0  0  0  0  0  0  0  0  # atno 10765 bound_to 10752
  140.2036  134.8319  157.3045 H   0  0  0  0  0  0  0  0  0  0  0  0  # atno 11005 bound_to 11000
  145.9703  140.8766  143.0166 LP  0  0  0  0  0  0  0  0  0  0  0  0  # atno 17320 bound_to 7965
  144.6750  140.1936  143.7394 LP  0  0  0  0  0  0  0  0  0  0  0  0  # atno 17321 bound_to 7965
  140.1824  143.4104  152.1923 LP  0  0  0  0  0  0  0  0  0  0  0  0  # atno 17342 bound_to 10162
  139.5426  144.7270  151.4685 LP  0  0  0  0  0  0  0  0  0  0  0  0  # atno 17343 bound_to 10162
  157.4023  131.0811  151.1297 LP  0  0  0  0  0  0  0  0  0  0  0  0  # atno 17370 bound_to 10713
  157.1955  130.6371  149.5719 LP  0  0  0  0  0  0  0  0  0  0  0  0  # atno 17371 bound_to 10713
  140.2027  134.4235  155.7654 LP  0  0  0  0  0  0  0  0  0  0  0  0  # atno 17394 bound_to 11000
  141.2227  133.7080  156.8210 LP  0  0  0  0  0  0  0  0  0  0  0  0  # atno 17395 bound_to 11000

$$$$
