AV-unprocessed.smi:72|AV-procd|sdf|758|dock4
  -GOLD-   2262017 93D 1   1.00000     0.00000
 Structure written by MMmdl.
 29 30  0  0  0  0  0  0  0  0  1 V2000
  146.3345  143.1926  158.1874 N   0  0  0  0  0  0  0  0  0  0  0  0
  147.0129  142.4788  157.2215 C   0  0  0  0  0  0  0  0  0  0  0  0
  148.1568  141.7877  157.6448 N   0  0  0  0  0  0  0  0  0  0  0  0
  148.8012  141.1238  156.7382 C   0  0  0  0  0  0  0  0  0  0  0  0
  148.3574  141.1078  155.3563 N   0  0  0  0  0  0  0  0  0  0  0  0
  149.1071  140.3193  154.3060 C   0  0  1  0  0  0  0  0  0  0  0  0
  150.4640  140.2981  154.6393 O   0  0  0  0  0  0  0  0  0  0  0  0
  150.9838  138.9872  154.4443 C   0  0  1  0  0  0  0  0  0  0  0  0
  152.2227  138.7778  155.3290 C   0  0  0  0  0  0  0  0  0  0  0  0
  153.3192  139.4970  154.8064 O   0  0  0  0  0  0  0  0  0  0  0  0
  149.7951  138.1067  154.8332 C   0  0  2  0  0  0  0  0  0  0  0  0
  149.9040  136.7814  154.3486 O   0  0  0  0  0  0  0  0  0  0  0  0
  148.6058  138.8670  154.2526 C   0  0  2  0  0  0  0  0  0  0  0  0
  148.3151  138.4826  152.9216 O   0  0  0  0  0  0  0  0  0  0  0  0
  147.1737  141.8111  155.0005 C   0  0  0  0  0  0  0  0  0  0  0  0
  146.7540  141.7800  153.8438 O   0  0  0  0  0  0  0  0  0  0  0  0
  146.5199  142.5187  156.0168 N   0  0  0  0  0  0  0  0  0  0  0  0
  148.9965  140.8560  153.3629 H   0  0  0  0  0  0  0  0  0  0  0  0
  151.2189  138.8426  153.3877 H   0  0  0  0  0  0  0  0  0  0  0  0
  149.7035  138.0779  155.9199 H   0  0  0  0  0  0  0  0  0  0  0  0
  147.7067  138.7351  154.8564 H   0  0  0  0  0  0  0  0  0  0  0  0
  145.4984  143.7261  157.9991 H   0  0  0  0  0  0  0  0  0  0  0  0
  146.6217  143.2327  159.1546 H   0  0  0  0  0  0  0  0  0  0  0  0
  149.6996  140.5418  156.9480 H   0  0  0  0  0  0  0  0  0  0  0  0
  152.0290  139.0736  156.3606 H   0  0  0  0  0  0  0  0  0  0  0  0
  152.5015  137.7239  155.3412 H   0  0  0  0  0  0  0  0  0  0  0  0
  153.2808  139.4608  153.8629 H   0  0  0  0  0  0  0  0  0  0  0  0
  149.6238  136.7689  153.4463 H   0  0  0  0  0  0  0  0  0  0  0  0
  148.9324  138.9083  152.3463 H   0  0  0  0  0  0  0  0  0  0  0  0
  1  2  1  0  0  0  0
  1 22  1  0  0  0  0
  1 23  1  0  0  0  0
  2 17  2  0  0  0  0
  2  3  1  0  0  0  0
  3  4  2  0  0  0  0
  4  5  1  0  0  0  0
  4 24  1  0  0  0  0
  5  6  1  0  0  0  0
  5 15  1  0  0  0  0
  6 18  1  0  0  0  0
  6 13  1  0  0  0  0
  6  7  1  0  0  0  0
  7  8  1  0  0  0  0
  8 19  1  0  0  0  0
  8  9  1  0  0  0  0
  8 11  1  0  0  0  0
  9 10  1  0  0  0  0
  9 25  1  0  0  0  0
  9 26  1  0  0  0  0
 10 27  1  0  0  0  0
 11 20  1  0  0  0  0
 11 12  1  0  0  0  0
 11 13  1  0  0  0  0
 12 28  1  0  0  0  0
 13 21  1  0  0  0  0
 13 14  1  0  0  0  0
 14 29  1  0  0  0  0
 15 16  2  0  0  0  0
 15 17  1  0  0  0  0
M  END
> <s_m_source_file>
AV-unprocessed.smi

> <i_m_source_file_index>
72

> <i_lp_mmshare_version>
43012

> <i_f3d_flags>
0

> <s_epik_input>
W05IMl1jMW5bY0hdbihjKD1PKW4xKVtDQEBIXTJPW0NASF0oW0NIMl1bT0hdKVtDQEBIXShbT0hdKVtDQEhdMltPSF0=

> <s_epik_cmdline>
J2VwaWtfcHl0aG9uJywgJy1waCcsICc3LjAnLCAnLXRuJywgJzgnLCAnLW1hJywgJzIwMCcsICctbWV0YWxfYmluZGluZycsICctaW1hZScsICc8aW5maWxlLm1hZT4nLCAnLW9tYWUnLCAnPG91dGZpbGUubWFlPic=

> <r_lp_tautomer_probability>
4.77166e-05

> <r_epik_Ionization_Penalty>
1.3546

> <r_epik_Ionization_Penalty_Charging>
1.46833e-10

> <r_epik_Ionization_Penalty_Neutral>
1.3546

> <r_epik_State_Penalty>
3.51908

> <r_epik_Charging_Adjusted_Penalty>
3.51908

> <i_epik_Tot_Q>
0

> <i_epik_Tot_abs_Q>
0

> <r_epik_Metal_State_Penalty>
3.44088

> <b_epik_Metal_Only>
1

> <s_epik_Chemistry_Notes>
This compound contains an acetal/aminal-like group ( X-CH(R)-Y where X, Y are N, S, or O) that may be acid/base labile, releasing an aldehyde.

> <s_lp_Force_Field>
OPLS_2005

> <r_lp_Energy>
31.7119

> <b_lp_Chiralities_Consistent>
1

> <s_lp_Variant>
AV-unprocessed.smi:72-96

> <Gold.Version>
5.8.1

> <Gold.Id.Protein>
6NUR|6NUR_protein|mol2

> <Gold.PLP.Fitness>
35.1687

> <Gold.PLP.PLP>
-26.1085

> <Gold.PLP.part.hbond>
-7.1459

> <Gold.PLP.part.metal>
0.0000

> <Gold.PLP.part.buried>
-3.5655

> <Gold.PLP.part.nonpolar>
-15.9656

> <Gold.PLP.part.repulsive>
0.8173

> <Gold.PLP.ligand.clash>
0.0000

> <Gold.PLP.ligand.torsion>
0.8028

> <Gold.PLP.Chemscore.Hbond>
3.5500

> <Gold.PLP.Chemscore.CHOScore>
0.0000

> <Gold.PLP.Chemscore.Metal>
0.0000

> <Gold.Chemscore.Hbonds>
donor molecule, donor type, donor heavy atom, donor atom, acceptor molecule, acceptor atom, score
      L1  H    12    28       P1  7948  1.00
      L1  H    14    29       P1  7957  1.00
      P1  H  7989  7998       L1     7  0.45
      P1  H  7997  8009       L1    10  1.00

> <Gold.PLP.Chemscore.Internal.Correction>
0.0157

> <Gold.Rescore>
     Score         DG    S(hbond)    S(metal)    S(lipo)     H(rot)  DE(clash)    DE(int)     intcor
      7.28      -7.94       2.94        0.00      26.07       4.06       0.10       0.57       ----

> <Gold.Chemscore.Fitness>
7.2757

> <Gold.Chemscore.DG>
-7.9435

> <Gold.Chemscore.ZeroCoef>
-5.4800

> <Gold.Chemscore.Hbond>
2.9362

> <Gold.Chemscore.Metal>
0.0000

> <Gold.Chemscore.Lipo>
26.0691

> <Gold.Chemscore.Internal_Hbond>
0.0000

> <Gold.Chemscore.DEClash>
0.0980

> <Gold.Chemscore.DEInternal>
0.5698

> <Gold.Chemscore.Rot>
4.0600

> <Gold.Chemscore.Internal.Correction>
   9.000000E+99

> <Gold.Chemscore.Hbonds>
donor molecule, donor type, donor heavy atom, donor atom, acceptor molecule, acceptor atom, score
      L1  H    12    28       P1  7948  0.65
      L1  H    14    29       P1  7957  0.97
      P1  H  7989  7998       L1     7  0.02
      P1  H  7997  8009       L1    10  0.98

> <Gold.Chemscore.Hbond.Weighted>
-9.8070

> <Gold.Chemscore.Metal.Weighted>
-0.0000

> <Gold.Chemscore.Lipo.Weighted>
-3.0501

> <Gold.Chemscore.Internal_Hbond.Weighted>
0.0000

> <Gold.Chemscore.DEClash.Weighted>
0.0980

> <Gold.Chemscore.DEInternal.Weighted>
0.5698

> <Gold.Chemscore.Rot.Weighted>
10.3936

> <Gold.Chemscore.Internal.Correction.Weighted>
   9.000000E+99

> <Gold.Protein.RotatedTorsions>
[ 6907 6896 6895 6894 ] final   32.61 input  -60.11 | X-H torsion
[ 7974 7965 7964 7962 ] final    3.93 input  175.53 | X-H torsion
[ 8008 7997 7996 7995 ] final -132.42 input   59.86 | X-H torsion
[ 10167 10162 10161 10158 ] final   85.25 input  -65.29 | X-H torsion
[ 10718 10713 10712 10709 ] final -163.43 input   66.30 | X-H torsion
[ 10763 10752 10751 10750 ] final   -2.11 input  -60.55 | X-H torsion
[ 11005 11000 10999 10996 ] final   49.64 input  -57.11 | X-H torsion

> <Gold.Protein.ActiveResidues>
 VAL166  LYS551  ARG553  GLY616  TRP617  ASP618  TYR619  PRO620  LYS621  CYS622 
 ASP623  PHE694  ASN695  SER759  ASP760  ASP761  ALA762  ILE779  LEU786  VAL792 
 PHE793  MET794  SER795  GLU796  ALA797  LYS798  CYS799  TRP800  GLU811  SER814 

> <Gold.Protein.RotatedAtoms>
  152.0769  134.9497  160.0573 H   0  0  0  0  0  0  0  0  0  0  0  0  # atno 6907 bound_to 6896
  152.0801  133.4144  159.4505 H   0  0  0  0  0  0  0  0  0  0  0  0  # atno 6908 bound_to 6896
  150.6836  134.2912  159.4711 H   0  0  0  0  0  0  0  0  0  0  0  0  # atno 6909 bound_to 6896
  146.2445  140.0611  142.8368 H   0  0  0  0  0  0  0  0  0  0  0  0  # atno 7974 bound_to 7965
  155.3285  140.0466  157.3042 H   0  0  0  0  0  0  0  0  0  0  0  0  # atno 8008 bound_to 7997
  154.5341  140.2266  155.8719 H   0  0  0  0  0  0  0  0  0  0  0  0  # atno 8009 bound_to 7997
  156.1817  140.3072  155.9168 H   0  0  0  0  0  0  0  0  0  0  0  0  # atno 8010 bound_to 7997
  139.8997  144.6337  150.8650 H   0  0  0  0  0  0  0  0  0  0  0  0  # atno 10167 bound_to 10162
  156.6246  130.8904  151.2965 H   0  0  0  0  0  0  0  0  0  0  0  0  # atno 10718 bound_to 10713
  153.3537  135.6987  153.6768 H   0  0  0  0  0  0  0  0  0  0  0  0  # atno 10763 bound_to 10752
  153.5484  135.3558  155.2749 H   0  0  0  0  0  0  0  0  0  0  0  0  # atno 10764 bound_to 10752
  154.8657  135.4220  154.2778 H   0  0  0  0  0  0  0  0  0  0  0  0  # atno 10765 bound_to 10752
  140.1086  134.4985  155.8698 H   0  0  0  0  0  0  0  0  0  0  0  0  # atno 11005 bound_to 11000
  145.0899  140.9277  143.4775 LP  0  0  0  0  0  0  0  0  0  0  0  0  # atno 17320 bound_to 7965
  145.0782  139.2980  143.5797 LP  0  0  0  0  0  0  0  0  0  0  0  0  # atno 17321 bound_to 7965
  140.7709  143.3446  151.2137 LP  0  0  0  0  0  0  0  0  0  0  0  0  # atno 17342 bound_to 10162
  139.7036  143.9491  152.2917 LP  0  0  0  0  0  0  0  0  0  0  0  0  # atno 17343 bound_to 10162
  157.7218  130.9568  150.1468 LP  0  0  0  0  0  0  0  0  0  0  0  0  # atno 17370 bound_to 10713
  156.2283  130.3680  149.8474 LP  0  0  0  0  0  0  0  0  0  0  0  0  # atno 17371 bound_to 10713
  141.2124  133.6719  156.6660 LP  0  0  0  0  0  0  0  0  0  0  0  0  # atno 17394 bound_to 11000
  140.3122  134.8077  157.4185 LP  0  0  0  0  0  0  0  0  0  0  0  0  # atno 17395 bound_to 11000

$$$$
