AV-unprocessed.smi:2037|AV-procd|sdf|8279|dock6
  -GOLD-   2272010543D 1   1.00000     0.00000
 Structure written by MMmdl.
 38 39  0  0  0  0  0  0  0  0  3 V2000
  143.7759  133.0300  150.8279 C   0  0  0  0  0  0  0  0  0  0  0  0
  145.0884  133.7099  150.4007 C   0  0  2  0  0  0  0  0  0  0  0  0
  146.3239  133.1120  151.0973 C   0  0  0  0  0  0  0  0  0  0  0  0
  146.4246  133.5381  152.5730 C   0  0  0  0  0  0  0  0  0  0  0  0
  146.4143  135.0175  152.7109 N   0  3  2  0  0  0  0  0  0  0  0  0
  146.6444  135.4480  154.1129 C   0  0  0  0  0  0  0  0  0  0  0  0
  147.7795  134.6589  154.7918 C   0  0  0  0  0  0  0  0  0  0  0  0
  149.0798  135.2582  154.5168 N   0  0  0  0  0  0  0  0  0  0  0  0
  150.1863  135.0988  155.2565 C   0  0  0  0  0  0  0  0  0  0  0  0
  150.1512  134.3980  156.2709 O   0  0  0  0  0  0  0  0  0  0  0  0
  151.2610  135.7628  154.7758 N   0  5  0  0  0  0  0  0  0  0  0  0
  151.3379  137.0977  154.9015 C   0  0  0  0  0  0  0  0  0  0  0  0
  152.4774  137.7379  155.1877 N   0  0  0  0  0  0  0  0  0  0  0  0
  152.3313  139.1239  155.2654 C   0  0  0  0  0  0  0  0  0  0  0  0
  151.0522  139.5499  155.0237 C   0  0  0  0  0  0  0  0  0  0  0  0
  149.9868  138.2148  154.6893 S   0  0  0  0  0  0  0  0  0  0  0  0
  145.1951  135.6148  152.1036 C   0  0  0  0  0  0  0  0  0  0  0  0
  145.0675  135.2337  150.6175 C   0  0  0  0  0  0  0  0  0  0  0  0
  143.5715  133.1583  151.8906 H   0  0  0  0  0  0  0  0  0  0  0  0
  143.8076  131.9589  150.6262 H   0  0  0  0  0  0  0  0  0  0  0  0
  142.9284  133.4393  150.2777 H   0  0  0  0  0  0  0  0  0  0  0  0
  145.1940  133.5298  149.3301 H   0  0  0  0  0  0  0  0  0  0  0  0
  146.3117  132.0241  151.0216 H   0  0  0  0  0  0  0  0  0  0  0  0
  147.2227  133.4401  150.5734 H   0  0  0  0  0  0  0  0  0  0  0  0
  145.6064  133.1098  153.1534 H   0  0  0  0  0  0  0  0  0  0  0  0
  147.3484  133.1374  152.9922 H   0  0  0  0  0  0  0  0  0  0  0  0
  146.8439  136.5202  154.1444 H   0  0  0  0  0  0  0  0  0  0  0  0
  145.7284  135.2896  154.6841 H   0  0  0  0  0  0  0  0  0  0  0  0
  147.6153  134.5983  155.8690 H   0  0  0  0  0  0  0  0  0  0  0  0
  147.8169  133.6342  154.4250 H   0  0  0  0  0  0  0  0  0  0  0  0
  149.1542  135.8368  153.6926 H   0  0  0  0  0  0  0  0  0  0  0  0
  153.1934  139.7315  155.4972 H   0  0  0  0  0  0  0  0  0  0  0  0
  150.6736  140.5609  155.0206 H   0  0  0  0  0  0  0  0  0  0  0  0
  144.3129  135.2920  152.6580 H   0  0  0  0  0  0  0  0  0  0  0  0
  145.2276  136.7007  152.1786 H   0  0  0  0  0  0  0  0  0  0  0  0
  145.8944  135.6842  150.0666 H   0  0  0  0  0  0  0  0  0  0  0  0
  144.1569  135.6626  150.1975 H   0  0  0  0  0  0  0  0  0  0  0  0
  147.2045  135.3540  152.1795 H   0  0  0  0  0  0  0  0  0  0  0  0
  1  2  1  0  0  0  0
  1 19  1  0  0  0  0
  1 20  1  0  0  0  0
  1 21  1  0  0  0  0
  2 18  1  0  0  0  0
  2  3  1  0  0  0  0
  2 22  1  0  0  0  0
  3  4  1  0  0  0  0
  3 23  1  0  0  0  0
  3 24  1  0  0  0  0
  4  5  1  0  0  0  0
  4 25  1  0  0  0  0
  4 26  1  0  0  0  0
  5  6  1  0  0  0  0
  5 17  1  0  0  0  0
  5 38  1  0  0  0  0
  6  7  1  0  0  0  0
  6 27  1  0  0  0  0
  6 28  1  0  0  0  0
  7  8  1  0  0  0  0
  7 29  1  0  0  0  0
  7 30  1  0  0  0  0
  8  9  1  0  0  0  0
  8 31  1  0  0  0  0
  9 10  2  0  0  0  0
  9 11  1  0  0  0  0
 11 12  1  0  0  0  0
 12 16  1  0  0  0  0
 12 13  2  0  0  0  0
 13 14  1  0  0  0  0
 14 15  2  0  0  0  0
 14 32  1  0  0  0  0
 15 16  1  0  0  0  0
 15 33  1  0  0  0  0
 17 18  1  0  0  0  0
 17 34  1  0  0  0  0
 17 35  1  0  0  0  0
 18 36  1  0  0  0  0
 18 37  1  0  0  0  0
M  CHG  1   5   1
M  CHG  1  11  -1
M  END
> <s_m_source_file>
AV-unprocessed.smi

> <i_m_source_file_index>
2037

> <i_lp_mmshare_version>
43012

> <i_f3d_flags>
0

> <s_epik_input>
W0NIM11bQ0hdMVtDSDJdW0NIMl1OKFtDSDJdW0NIMl0xKVtDSDJdW0NIMl1bTkhdQyg9TylbTkhdYzJuW2NIXVtjSF1zMg==

> <s_epik_cmdline>
J2VwaWtfcHl0aG9uJywgJy1waCcsICc3LjAnLCAnLXRuJywgJzgnLCAnLW1hJywgJzIwMCcsICctbWV0YWxfYmluZGluZycsICctaW1hZScsICc8aW5maWxlLm1hZT4nLCAnLW9tYWUnLCAnPG91dGZpbGUubWFlPic=

> <r_lp_tautomer_probability>
0.999

> <r_epik_Ionization_Penalty>
6.22113

> <r_epik_Ionization_Penalty_Charging>
5.39005

> <r_epik_Ionization_Penalty_Neutral>
0.831074

> <r_epik_State_Penalty>
5.38997

> <r_epik_Charging_Adjusted_Penalty>
10.78

> <i_epik_Tot_Q>
0

> <i_epik_Tot_abs_Q>
2

> <r_epik_Metal_State_Penalty>
1.41601

> <b_epik_Metal_Only>
1

> <s_lp_Force_Field>
OPLS_2005

> <r_lp_Energy>
7.28937

> <b_lp_Chiralities_Consistent>
1

> <s_lp_Variant>
AV-unprocessed.smi:2037-4

> <Gold.Version>
5.8.1

> <Gold.Id.Protein>
6NUR|6NUR_protein|mol2

> <Gold.PLP.Fitness>
43.3360

> <Gold.PLP.PLP>
-31.0691

> <Gold.PLP.part.hbond>
-3.1518

> <Gold.PLP.part.metal>
0.0000

> <Gold.PLP.part.buried>
-2.5736

> <Gold.PLP.part.nonpolar>
-25.5262

> <Gold.PLP.part.repulsive>
0.2220

> <Gold.PLP.ligand.clash>
0.0000

> <Gold.PLP.ligand.torsion>
1.3875

> <Gold.PLP.Chemscore.Hbond>
5.0000

> <Gold.PLP.Chemscore.CHOScore>
0.0000

> <Gold.PLP.Chemscore.Metal>
0.0000

> <Gold.Chemscore.Hbonds>
donor molecule, donor type, donor heavy atom, donor atom, acceptor molecule, acceptor atom, score
      L1  H     5    38       P1  7948  2.00
      L1  H     8    31       P1  7948  1.00
      P1  H 10752 10764       L1    11  1.50

> <Gold.PLP.Chemscore.Internal.Correction>
0.0419

> <Gold.Rescore>
     Score         DG    S(hbond)    S(metal)    S(lipo)     H(rot)  DE(clash)    DE(int)     intcor
     16.37     -17.74       2.71        0.00      61.82       1.57       0.02       1.35       ----

> <Gold.Chemscore.Fitness>
16.3710

> <Gold.Chemscore.DG>
-17.7448

> <Gold.Chemscore.ZeroCoef>
-5.4800

> <Gold.Chemscore.Hbond>
2.7080

> <Gold.Chemscore.Metal>
0.0000

> <Gold.Chemscore.Lipo>
61.8211

> <Gold.Chemscore.Internal_Hbond>
0.0000

> <Gold.Chemscore.DEClash>
0.0214

> <Gold.Chemscore.DEInternal>
1.3525

> <Gold.Chemscore.Rot>
1.5676

> <Gold.Chemscore.Internal.Correction>
   9.000000E+99

> <Gold.Chemscore.Hbonds>
donor molecule, donor type, donor heavy atom, donor atom, acceptor molecule, acceptor atom, score
      L1  H     5    38       P1  7948  0.98
      L1  H     8    31       P1  7948  0.81
      P1  H 10752 10764       L1    11  0.09

> <Gold.Chemscore.Hbond.Weighted>
-9.0448

> <Gold.Chemscore.Metal.Weighted>
-0.0000

> <Gold.Chemscore.Lipo.Weighted>
-7.2331

> <Gold.Chemscore.Internal_Hbond.Weighted>
0.0000

> <Gold.Chemscore.DEClash.Weighted>
0.0214

> <Gold.Chemscore.DEInternal.Weighted>
1.3525

> <Gold.Chemscore.Rot.Weighted>
4.0130

> <Gold.Chemscore.Internal.Correction.Weighted>
   9.000000E+99

> <Gold.Protein.RotatedTorsions>
[ 6907 6896 6895 6894 ] final  155.66 input  -60.11 | X-H torsion
[ 7974 7965 7964 7962 ] final  -90.85 input  175.53 | X-H torsion
[ 8008 7997 7996 7995 ] final  -52.97 input   59.86 | X-H torsion
[ 10167 10162 10161 10158 ] final   94.95 input  -65.29 | X-H torsion
[ 10718 10713 10712 10709 ] final   68.48 input   66.30 | X-H torsion
[ 10763 10752 10751 10750 ] final  -46.75 input  -60.55 | X-H torsion
[ 11005 11000 10999 10996 ] final -132.59 input  -57.11 | X-H torsion

> <Gold.Protein.ActiveResidues>
 VAL166  LYS551  ARG553  GLY616  TRP617  ASP618  TYR619  PRO620  LYS621  CYS622 
 ASP623  PHE694  ASN695  SER759  ASP760  ASP761  ALA762  ILE779  LEU786  VAL792 
 PHE793  MET794  SER795  GLU796  ALA797  LYS798  CYS799  TRP800  GLU811  SER814 

> <Gold.Protein.RotatedAtoms>
  152.0410  133.3977  159.4336 H   0  0  0  0  0  0  0  0  0  0  0  0  # atno 6907 bound_to 6896
  150.6875  134.3415  159.4879 H   0  0  0  0  0  0  0  0  0  0  0  0  # atno 6908 bound_to 6896
  152.1213  134.9203  160.0613 H   0  0  0  0  0  0  0  0  0  0  0  0  # atno 6909 bound_to 6896
  145.4209  140.9551  143.2181 H   0  0  0  0  0  0  0  0  0  0  0  0  # atno 7974 bound_to 7965
  154.4120  140.1211  156.5078 H   0  0  0  0  0  0  0  0  0  0  0  0  # atno 8008 bound_to 7997
  155.6829  140.3496  155.4843 H   0  0  0  0  0  0  0  0  0  0  0  0  # atno 8009 bound_to 7997
  155.9535  140.1109  157.0946 H   0  0  0  0  0  0  0  0  0  0  0  0  # atno 8010 bound_to 7997
  139.8035  144.6804  150.9734 H   0  0  0  0  0  0  0  0  0  0  0  0  # atno 10167 bound_to 10162
  157.6292  130.9376  150.0383 H   0  0  0  0  0  0  0  0  0  0  0  0  # atno 10718 bound_to 10713
  154.0502  135.6632  153.4799 H   0  0  0  0  0  0  0  0  0  0  0  0  # atno 10763 bound_to 10752
  153.0467  135.5110  154.7758 H   0  0  0  0  0  0  0  0  0  0  0  0  # atno 10764 bound_to 10752
  154.6762  135.3037  154.9641 H   0  0  0  0  0  0  0  0  0  0  0  0  # atno 10765 bound_to 10752
  140.9156  134.1511  157.4355 H   0  0  0  0  0  0  0  0  0  0  0  0  # atno 11005 bound_to 11000
  144.8246  139.5733  143.6971 LP  0  0  0  0  0  0  0  0  0  0  0  0  # atno 17320 bound_to 7965
  146.2657  139.6514  142.9331 LP  0  0  0  0  0  0  0  0  0  0  0  0  # atno 17321 bound_to 7965
  140.7820  143.4257  151.0771 LP  0  0  0  0  0  0  0  0  0  0  0  0  # atno 17342 bound_to 10162
  139.7928  143.8194  152.3154 LP  0  0  0  0  0  0  0  0  0  0  0  0  # atno 17343 bound_to 10162
  156.1483  130.3642  149.9476 LP  0  0  0  0  0  0  0  0  0  0  0  0  # atno 17370 bound_to 10713
  156.7502  130.9112  151.3637 LP  0  0  0  0  0  0  0  0  0  0  0  0  # atno 17371 bound_to 10713
  139.8765  134.9952  156.5733 LP  0  0  0  0  0  0  0  0  0  0  0  0  # atno 17394 bound_to 11000
  140.8054  133.8472  155.8763 LP  0  0  0  0  0  0  0  0  0  0  0  0  # atno 17395 bound_to 11000

$$$$
