AV-unprocessed.smi:2118|AV-procd|sdf|8629|dock4
  -GOLD-   2272011373D 1   1.00000     0.00000
 Structure written by MMmdl.
 39 40  0  0  0  0  0  0  0  0  2 V2000
  151.9838  144.5591  160.6154 C   0  0  0  0  0  0  0  0  0  0  0  0
  152.4096  143.3033  159.8416 C   0  0  0  0  0  0  0  0  0  0  0  0
  151.2927  142.7926  158.9228 C   0  0  0  0  0  0  0  0  0  0  0  0
  151.7271  141.5368  158.1482 C   0  0  0  0  0  0  0  0  0  0  0  0
  152.1965  140.4670  159.0531 N   0  0  0  0  0  0  0  0  0  0  0  0
  152.3649  138.8789  158.3616 S   0  0  0  0  0  0  0  0  0  0  0  0
  153.5520  138.9232  157.4919 O   0  0  0  0  0  0  0  0  0  0  0  0
  152.3844  137.9463  159.5007 O   0  0  0  0  0  0  0  0  0  0  0  0
  150.9788  138.8601  157.5207 N   0  5  0  0  0  0  0  0  0  0  0  0
  151.0360  138.9548  156.0732 C   0  0  0  0  0  0  0  0  0  0  0  0
  150.5891  140.3603  155.6229 C   0  0  0  0  0  0  0  0  0  0  0  0
  149.2543  140.3741  154.8889 C   0  0  0  0  0  0  0  0  0  0  0  0
  148.6671  139.1756  154.4276 C   0  0  0  0  0  0  0  0  0  0  0  0
  147.4263  139.2361  153.7644 C   0  0  0  0  0  0  0  0  0  0  0  0
  146.8192  140.4957  153.5917 C   0  0  0  0  0  0  0  0  0  0  0  0
  147.3647  141.6491  154.0334 N   0  0  0  0  0  0  0  0  0  0  0  0
  148.5551  141.5825  154.6684 C   0  0  0  0  0  0  0  0  0  0  0  0
  153.2467  140.9118  159.9983 C   0  0  0  0  0  0  0  0  0  0  0  0
  152.8171  142.1624  160.7828 C   0  0  0  0  0  0  0  0  0  0  0  0
  151.1262  144.3578  161.2583 H   0  0  0  0  0  0  0  0  0  0  0  0
  151.7079  145.3647  159.9342 H   0  0  0  0  0  0  0  0  0  0  0  0
  152.7945  144.9247  161.2462 H   0  0  0  0  0  0  0  0  0  0  0  0
  153.2705  143.5661  159.2247 H   0  0  0  0  0  0  0  0  0  0  0  0
  150.4029  142.5649  159.5118 H   0  0  0  0  0  0  0  0  0  0  0  0
  151.0040  143.5726  158.2175 H   0  0  0  0  0  0  0  0  0  0  0  0
  150.8842  141.1786  157.5578 H   0  0  0  0  0  0  0  0  0  0  0  0
  152.5248  141.7795  157.4451 H   0  0  0  0  0  0  0  0  0  0  0  0
  152.0427  138.7680  155.6972 H   0  0  0  0  0  0  0  0  0  0  0  0
  150.3961  138.2085  155.6010 H   0  0  0  0  0  0  0  0  0  0  0  0
  150.5153  141.0207  156.4882 H   0  0  0  0  0  0  0  0  0  0  0  0
  151.3464  140.7986  154.9712 H   0  0  0  0  0  0  0  0  0  0  0  0
  149.1599  138.2260  154.5777 H   0  0  0  0  0  0  0  0  0  0  0  0
  146.9517  138.3385  153.3968 H   0  0  0  0  0  0  0  0  0  0  0  0
  145.8680  140.5788  153.0869 H   0  0  0  0  0  0  0  0  0  0  0  0
  148.9634  142.5226  155.0096 H   0  0  0  0  0  0  0  0  0  0  0  0
  153.4855  140.1159  160.7028 H   0  0  0  0  0  0  0  0  0  0  0  0
  154.1605  141.1146  159.4382 H   0  0  0  0  0  0  0  0  0  0  0  0
  153.6351  142.4844  161.4278 H   0  0  0  0  0  0  0  0  0  0  0  0
  151.9856  141.9090  161.4424 H   0  0  0  0  0  0  0  0  0  0  0  0
  1  2  1  0  0  0  0
  1 20  1  0  0  0  0
  1 21  1  0  0  0  0
  1 22  1  0  0  0  0
  2 19  1  0  0  0  0
  2  3  1  0  0  0  0
  2 23  1  0  0  0  0
  3  4  1  0  0  0  0
  3 24  1  0  0  0  0
  3 25  1  0  0  0  0
  4  5  1  0  0  0  0
  4 26  1  0  0  0  0
  4 27  1  0  0  0  0
  5  6  1  0  0  0  0
  5 18  1  0  0  0  0
  6  7  2  0  0  0  0
  6  8  2  0  0  0  0
  6  9  1  0  0  0  0
  9 10  1  0  0  0  0
 10 11  1  0  0  0  0
 10 28  1  0  0  0  0
 10 29  1  0  0  0  0
 11 12  1  0  0  0  0
 11 30  1  0  0  0  0
 11 31  1  0  0  0  0
 12 17  1  0  0  0  0
 12 13  2  0  0  0  0
 13 14  1  0  0  0  0
 13 32  1  0  0  0  0
 14 15  2  0  0  0  0
 14 33  1  0  0  0  0
 15 16  1  0  0  0  0
 15 34  1  0  0  0  0
 16 17  2  0  0  0  0
 17 35  1  0  0  0  0
 18 19  1  0  0  0  0
 18 36  1  0  0  0  0
 18 37  1  0  0  0  0
 19 38  1  0  0  0  0
 19 39  1  0  0  0  0
M  CHG  1   9  -1
M  END
> <s_m_source_file>
AV-unprocessed.smi

> <i_m_source_file_index>
2118

> <i_lp_mmshare_version>
43012

> <i_f3d_flags>
0

> <s_epik_input>
W0NIM11bQ0hdMVtDSDJdW0NIMl1OKFtDSDJdW0NIMl0xKVMoPU8pKD1PKVtOSF1bQ0gyXVtDSDJdYzJbY0hdW2NIXVtjSF1uW2NIXTI=

> <s_epik_cmdline>
J2VwaWtfcHl0aG9uJywgJy1waCcsICc3LjAnLCAnLXRuJywgJzgnLCAnLW1hJywgJzIwMCcsICctbWV0YWxfYmluZGluZycsICctaW1hZScsICc8aW5maWxlLm1hZT4nLCAnLW9tYWUnLCAnPG91dGZpbGUubWFlPic=

> <r_epik_Ionization_Penalty>
1.98317

> <r_epik_Ionization_Penalty_Charging>
1.95606

> <r_epik_Ionization_Penalty_Neutral>
0.0271171

> <r_epik_State_Penalty>
2.28376

> <r_epik_Charging_Adjusted_Penalty>
4.23982

> <i_epik_Tot_Q>
-1

> <i_epik_Tot_abs_Q>
1

> <r_epik_Metal_State_Penalty>
0.598332

> <b_epik_Metal_Only>
0

> <s_lp_Force_Field>
OPLS_2005

> <r_lp_Energy>
6.66289

> <b_lp_Chiralities_Consistent>
1

> <s_lp_Variant>
AV-unprocessed.smi:2118-2

> <Gold.Version>
5.8.1

> <Gold.Id.Protein>
6NUR|6NUR_protein|mol2

> <Gold.PLP.Fitness>
45.4225

> <Gold.PLP.PLP>
-37.7477

> <Gold.PLP.part.hbond>
-0.7835

> <Gold.PLP.part.metal>
0.0000

> <Gold.PLP.part.buried>
-2.8446

> <Gold.PLP.part.nonpolar>
-33.9391

> <Gold.PLP.part.repulsive>
0.1696

> <Gold.PLP.ligand.clash>
0.0000

> <Gold.PLP.ligand.torsion>
1.4293

> <Gold.PLP.Chemscore.Hbond>
1.0000

> <Gold.PLP.Chemscore.CHOScore>
2.0000

> <Gold.PLP.Chemscore.Metal>
0.0000

> <Gold.Chemscore.Hbonds>
donor molecule, donor type, donor heavy atom, donor atom, acceptor molecule, acceptor atom, score
      P1  H  7997  8008       L1     7  1.00
      L1  C    15    34       P1 10175  1.00
      L1  C    17    35       P1  8028  1.00

> <Gold.PLP.Chemscore.Internal.Correction>
1.5334

> <Gold.Rescore>
     Score         DG    S(hbond)    S(metal)    S(lipo)     H(rot)  DE(clash)    DE(int)     intcor
     16.25     -17.49       1.00        0.00     105.33       1.42       0.02       1.22       ----

> <Gold.Chemscore.Fitness>
16.2526

> <Gold.Chemscore.DG>
-17.4919

> <Gold.Chemscore.ZeroCoef>
-5.4800

> <Gold.Chemscore.Hbond>
0.9961

> <Gold.Chemscore.Metal>
0.0000

> <Gold.Chemscore.Lipo>
105.3342

> <Gold.Chemscore.Internal_Hbond>
0.0000

> <Gold.Chemscore.DEClash>
0.0159

> <Gold.Chemscore.DEInternal>
1.2234

> <Gold.Chemscore.Rot>
1.4216

> <Gold.Chemscore.Internal.Correction>
   9.000000E+99

> <Gold.Chemscore.Hbonds>
donor molecule, donor type, donor heavy atom, donor atom, acceptor molecule, acceptor atom, score
      P1  H  7997  8008       L1     7  0.97

> <Gold.Chemscore.Hbond.Weighted>
-3.3270

> <Gold.Chemscore.Metal.Weighted>
-0.0000

> <Gold.Chemscore.Lipo.Weighted>
-12.3241

> <Gold.Chemscore.Internal_Hbond.Weighted>
0.0000

> <Gold.Chemscore.DEClash.Weighted>
0.0159

> <Gold.Chemscore.DEInternal.Weighted>
1.2234

> <Gold.Chemscore.Rot.Weighted>
3.6392

> <Gold.Chemscore.Internal.Correction.Weighted>
   9.000000E+99

> <Gold.Protein.RotatedTorsions>
[ 6907 6896 6895 6894 ] final  -87.69 input  -60.11 | X-H torsion
[ 7974 7965 7964 7962 ] final  149.91 input  175.53 | X-H torsion
[ 8008 7997 7996 7995 ] final  -67.23 input   59.86 | X-H torsion
[ 10167 10162 10161 10158 ] final  169.32 input  -65.29 | X-H torsion
[ 10718 10713 10712 10709 ] final  139.73 input   66.30 | X-H torsion
[ 10763 10752 10751 10750 ] final -151.29 input  -60.55 | X-H torsion
[ 11005 11000 10999 10996 ] final  -30.45 input  -57.11 | X-H torsion

> <Gold.Protein.ActiveResidues>
 VAL166  LYS551  ARG553  GLY616  TRP617  ASP618  TYR619  PRO620  LYS621  CYS622 
 ASP623  PHE694  ASN695  SER759  ASP760  ASP761  ALA762  ILE779  LEU786  VAL792 
 PHE793  MET794  SER795  GLU796  ALA797  LYS798  CYS799  TRP800  GLU811  SER814 

> <Gold.Protein.RotatedAtoms>
  150.6867  134.2857  159.4645 H   0  0  0  0  0  0  0  0  0  0  0  0  # atno 6907 bound_to 6896
  152.0767  134.9495  160.0583 H   0  0  0  0  0  0  0  0  0  0  0  0  # atno 6908 bound_to 6896
  152.0864  133.4144  159.4561 H   0  0  0  0  0  0  0  0  0  0  0  0  # atno 6909 bound_to 6896
  144.8403  139.6341  143.6019 H   0  0  0  0  0  0  0  0  0  0  0  0  # atno 7974 bound_to 7965
  154.4786  140.0897  156.7323 H   0  0  0  0  0  0  0  0  0  0  0  0  # atno 8008 bound_to 7997
  155.4529  140.3458  155.4285 H   0  0  0  0  0  0  0  0  0  0  0  0  # atno 8009 bound_to 7997
  156.1156  140.1460  156.9265 H   0  0  0  0  0  0  0  0  0  0  0  0  # atno 8010 bound_to 7997
  139.4989  144.3718  151.9716 H   0  0  0  0  0  0  0  0  0  0  0  0  # atno 10167 bound_to 10162
  157.4111  131.1028  151.0453 H   0  0  0  0  0  0  0  0  0  0  0  0  # atno 10718 bound_to 10713
  154.8067  135.3263  154.7413 H   0  0  0  0  0  0  0  0  0  0  0  0  # atno 10763 bound_to 10752
  153.8070  135.6899  153.4851 H   0  0  0  0  0  0  0  0  0  0  0  0  # atno 10764 bound_to 10752
  153.1817  135.4584  154.9981 H   0  0  0  0  0  0  0  0  0  0  0  0  # atno 10765 bound_to 10752
  140.9383  133.7294  156.1038 H   0  0  0  0  0  0  0  0  0  0  0  0  # atno 11005 bound_to 11000
  146.2696  139.6603  142.9305 LP  0  0  0  0  0  0  0  0  0  0  0  0  # atno 17320 bound_to 7965
  145.4709  141.0436  143.2699 LP  0  0  0  0  0  0  0  0  0  0  0  0  # atno 17321 bound_to 7965
  140.3154  144.3489  150.6023 LP  0  0  0  0  0  0  0  0  0  0  0  0  # atno 17342 bound_to 10162
  140.5765  143.2176  151.7506 LP  0  0  0  0  0  0  0  0  0  0  0  0  # atno 17343 bound_to 10162
  157.1417  130.6146  149.5557 LP  0  0  0  0  0  0  0  0  0  0  0  0  # atno 17370 bound_to 10713
  155.9851  130.4879  150.7015 LP  0  0  0  0  0  0  0  0  0  0  0  0  # atno 17371 bound_to 10713
  140.7768  134.3770  157.5496 LP  0  0  0  0  0  0  0  0  0  0  0  0  # atno 17394 bound_to 11000
  139.8813  134.9057  156.2905 LP  0  0  0  0  0  0  0  0  0  0  0  0  # atno 17395 bound_to 11000

$$$$
