AV-unprocessed.smi:2198|AV-procd|sdf|8915|dock7
  -GOLD-   2272012133D 1   1.00000     0.00000
 Structure written by MMmdl.
 43 44  0  0  0  0  0  0  0  0  1 V2000
  153.6728  142.8492  163.3985 C   0  0  0  0  0  0  0  0  0  0  0  0
  153.0685  142.8751  162.0114 C   0  0  0  0  0  0  0  0  0  0  0  0
  152.5182  144.0986  161.6668 N   0  0  0  0  0  0  0  0  0  0  0  0
  151.9406  144.2192  160.4155 C   0  0  0  0  0  0  0  0  0  0  0  0
  151.3590  145.5905  160.1182 C   0  0  0  0  0  0  0  0  0  0  0  0
  151.9174  143.1750  159.5488 C   0  0  0  0  0  0  0  0  0  0  0  0
  151.2956  143.2706  158.1561 C   0  0  0  0  0  0  0  0  0  0  0  0
  150.0116  142.4653  157.9406 C   0  0  0  0  0  0  0  0  0  0  0  0
  148.9463  142.8467  158.4255 O   0  0  0  0  0  0  0  0  0  0  0  0
  150.1308  141.3474  157.2087 N   0  0  0  0  0  0  0  0  0  0  0  0
  149.0449  140.4217  156.8906 C   0  0  2  0  0  0  0  0  0  0  0  0
  149.5159  139.3835  155.8541 C   0  0  0  0  0  0  0  0  0  0  0  0
  149.7022  139.9989  154.4567 C   0  0  0  0  0  0  0  0  0  0  0  0
  148.4260  140.7139  153.9869 C   0  0  0  0  0  0  0  0  0  0  0  0
  147.9784  141.7897  154.9945 C   0  0  1  0  0  0  0  0  0  0  0  0
  146.7055  142.5062  154.5219 C   0  0  0  0  0  0  0  0  0  0  0  0
  147.7884  141.1710  156.3951 C   0  0  0  0  0  0  0  0  0  0  0  0
  152.5294  141.8929  159.9712 C   0  0  0  0  0  0  0  0  0  0  0  0
  152.5528  140.9143  159.2261 O   0  0  0  0  0  0  0  0  0  0  0  0
  153.0948  141.8204  161.2547 N   0  0  0  0  0  0  0  0  0  0  0  0
  152.5186  144.9023  162.2785 H   0  0  0  0  0  0  0  0  0  0  0  0
  153.9380  141.8319  163.6894 H   0  0  0  0  0  0  0  0  0  0  0  0
  152.9661  143.2382  164.1322 H   0  0  0  0  0  0  0  0  0  0  0  0
  154.5756  143.4596  163.4277 H   0  0  0  0  0  0  0  0  0  0  0  0
  150.2860  145.5183  159.9396 H   0  0  0  0  0  0  0  0  0  0  0  0
  151.8286  146.0207  159.2335 H   0  0  0  0  0  0  0  0  0  0  0  0
  151.5138  146.2814  160.9479 H   0  0  0  0  0  0  0  0  0  0  0  0
  152.0371  142.9390  157.4285 H   0  0  0  0  0  0  0  0  0  0  0  0
  151.0955  144.3099  157.8934 H   0  0  0  0  0  0  0  0  0  0  0  0
  151.0445  141.1150  156.8474 H   0  0  0  0  0  0  0  0  0  0  0  0
  148.7872  139.8810  157.8030 H   0  0  0  0  0  0  0  0  0  0  0  0
  150.4433  138.9136  156.1839 H   0  0  0  0  0  0  0  0  0  0  0  0
  148.7776  138.5831  155.7921 H   0  0  0  0  0  0  0  0  0  0  0  0
  150.5334  140.7048  154.4709 H   0  0  0  0  0  0  0  0  0  0  0  0
  149.9742  139.2200  153.7439 H   0  0  0  0  0  0  0  0  0  0  0  0
  148.5999  141.1655  153.0096 H   0  0  0  0  0  0  0  0  0  0  0  0
  147.6292  139.9813  153.8504 H   0  0  0  0  0  0  0  0  0  0  0  0
  148.7678  142.5400  155.0583 H   0  0  0  0  0  0  0  0  0  0  0  0
  145.8676  141.8136  154.4377 H   0  0  0  0  0  0  0  0  0  0  0  0
  146.8547  142.9688  153.5459 H   0  0  0  0  0  0  0  0  0  0  0  0
  146.4176  143.2941  155.2188 H   0  0  0  0  0  0  0  0  0  0  0  0
  146.9521  140.4713  156.3646 H   0  0  0  0  0  0  0  0  0  0  0  0
  147.5042  141.9436  157.1106 H   0  0  0  0  0  0  0  0  0  0  0  0
  1 22  1  0  0  0  0
  1 23  1  0  0  0  0
  1 24  1  0  0  0  0
  1  2  1  0  0  0  0
  2  3  1  0  0  0  0
  2 20  2  0  0  0  0
  3  4  1  0  0  0  0
  3 21  1  0  0  0  0
  4  6  2  0  0  0  0
  4  5  1  0  0  0  0
  5 25  1  0  0  0  0
  5 26  1  0  0  0  0
  5 27  1  0  0  0  0
  6 18  1  0  0  0  0
  6  7  1  0  0  0  0
  7  8  1  0  0  0  0
  7 28  1  0  0  0  0
  7 29  1  0  0  0  0
  8  9  2  0  0  0  0
  8 10  1  0  0  0  0
 10 11  1  0  0  0  0
 10 30  1  0  0  0  0
 11 17  1  0  0  0  0
 11 12  1  0  0  0  0
 11 31  1  0  0  0  0
 12 13  1  0  0  0  0
 12 32  1  0  0  0  0
 12 33  1  0  0  0  0
 13 14  1  0  0  0  0
 13 34  1  0  0  0  0
 13 35  1  0  0  0  0
 14 15  1  0  0  0  0
 14 36  1  0  0  0  0
 14 37  1  0  0  0  0
 15 16  1  0  0  0  0
 15 17  1  0  0  0  0
 15 38  1  0  0  0  0
 16 39  1  0  0  0  0
 16 40  1  0  0  0  0
 16 41  1  0  0  0  0
 17 42  1  0  0  0  0
 17 43  1  0  0  0  0
 18 19  2  0  0  0  0
 18 20  1  0  0  0  0
M  END
> <s_m_source_file>
AV-unprocessed.smi

> <i_m_source_file_index>
2198

> <i_lp_mmshare_version>
43012

> <i_f3d_flags>
0

> <s_epik_input>
W0NIM11jMW5jKFtDSDNdKWMoYyg9TylbbkhdMSlbQ0gyXUMoPU8pW05IXVtDQEBIXTJbQ0gyXVtDSDJdW0NIMl1bQ0BASF0oW0NIM10pW0NIMl0y

> <s_epik_cmdline>
J2VwaWtfcHl0aG9uJywgJy1waCcsICc3LjAnLCAnLXRuJywgJzgnLCAnLW1hJywgJzIwMCcsICctbWV0YWxfYmluZGluZycsICctaW1hZScsICc8aW5maWxlLm1hZT4nLCAnLW9tYWUnLCAnPG91dGZpbGUubWFlPic=

> <r_lp_tautomer_probability>
0.156392

> <r_epik_Ionization_Penalty>
0.0136514

> <r_epik_Ionization_Penalty_Charging>
0.0135207

> <r_epik_Ionization_Penalty_Neutral>
0.000130657

> <r_epik_State_Penalty>
1.15342

> <r_epik_Charging_Adjusted_Penalty>
1.16694

> <i_epik_Tot_Q>
0

> <i_epik_Tot_abs_Q>
0

> <r_epik_Metal_State_Penalty>
1.31404

> <b_epik_Metal_Only>
0

> <s_lp_Force_Field>
OPLS_2005

> <r_lp_Energy>
13.5111

> <b_lp_Chiralities_Consistent>
1

> <s_lp_Variant>
AV-unprocessed.smi:2198-5

> <Gold.Version>
5.8.1

> <Gold.Id.Protein>
6NUR|6NUR_protein|mol2

> <Gold.PLP.Fitness>
39.9754

> <Gold.PLP.PLP>
-40.6965

> <Gold.PLP.part.hbond>
0.0000

> <Gold.PLP.part.metal>
0.0000

> <Gold.PLP.part.buried>
-2.3631

> <Gold.PLP.part.nonpolar>
-36.5635

> <Gold.PLP.part.repulsive>
0.2676

> <Gold.PLP.ligand.clash>
0.0000

> <Gold.PLP.ligand.torsion>
0.3650

> <Gold.PLP.Chemscore.Hbond>
0.0000

> <Gold.PLP.Chemscore.CHOScore>
0.0000

> <Gold.PLP.Chemscore.Metal>
0.0000

> <Gold.PLP.Chemscore.Internal.Correction>
0.0089

> <Gold.Rescore>
     Score         DG    S(hbond)    S(metal)    S(lipo)     H(rot)  DE(clash)    DE(int)     intcor
     10.63     -12.63       0.00        0.00      93.51       1.48       0.34       1.66       ----

> <Gold.Chemscore.Fitness>
10.6275

> <Gold.Chemscore.DG>
-12.6312

> <Gold.Chemscore.ZeroCoef>
-5.4800

> <Gold.Chemscore.Hbond>
0.0000

> <Gold.Chemscore.Metal>
0.0000

> <Gold.Chemscore.Lipo>
93.5075

> <Gold.Chemscore.Internal_Hbond>
0.0000

> <Gold.Chemscore.DEClash>
0.3391

> <Gold.Chemscore.DEInternal>
1.6646

> <Gold.Chemscore.Rot>
1.4801

> <Gold.Chemscore.Internal.Correction>
   9.000000E+99

> <Gold.Chemscore.Hbond.Weighted>
-0.0000

> <Gold.Chemscore.Metal.Weighted>
-0.0000

> <Gold.Chemscore.Lipo.Weighted>
-10.9404

> <Gold.Chemscore.Internal_Hbond.Weighted>
0.0000

> <Gold.Chemscore.DEClash.Weighted>
0.3391

> <Gold.Chemscore.DEInternal.Weighted>
1.6646

> <Gold.Chemscore.Rot.Weighted>
3.7891

> <Gold.Chemscore.Internal.Correction.Weighted>
   9.000000E+99

> <Gold.Protein.RotatedTorsions>
[ 6907 6896 6895 6894 ] final   -4.58 input  -60.11 | X-H torsion
[ 7974 7965 7964 7962 ] final    7.25 input  175.53 | X-H torsion
[ 8008 7997 7996 7995 ] final   18.53 input   59.86 | X-H torsion
[ 10167 10162 10161 10158 ] final   35.95 input  -65.29 | X-H torsion
[ 10718 10713 10712 10709 ] final -137.58 input   66.30 | X-H torsion
[ 10763 10752 10751 10750 ] final  151.60 input  -60.55 | X-H torsion
[ 11005 11000 10999 10996 ] final   53.99 input  -57.11 | X-H torsion

> <Gold.Protein.ActiveResidues>
 VAL166  LYS551  ARG553  GLY616  TRP617  ASP618  TYR619  PRO620  LYS621  CYS622 
 ASP623  PHE694  ASN695  SER759  ASP760  ASP761  ALA762  ILE779  LEU786  VAL792 
 PHE793  MET794  SER795  GLU796  ALA797  LYS798  CYS799  TRP800  GLU811  SER814 

> <Gold.Protein.RotatedAtoms>
  151.4953  135.1059  159.9814 H   0  0  0  0  0  0  0  0  0  0  0  0  # atno 6907 bound_to 6896
  152.4724  133.8056  159.6986 H   0  0  0  0  0  0  0  0  0  0  0  0  # atno 6908 bound_to 6896
  150.8741  133.7401  159.2978 H   0  0  0  0  0  0  0  0  0  0  0  0  # atno 6909 bound_to 6896
  146.2428  140.0112  142.8406 H   0  0  0  0  0  0  0  0  0  0  0  0  # atno 7974 bound_to 7965
  154.9073  140.3009  155.5285 H   0  0  0  0  0  0  0  0  0  0  0  0  # atno 8008 bound_to 7997
  156.3016  140.2395  156.4043 H   0  0  0  0  0  0  0  0  0  0  0  0  # atno 8009 bound_to 7997
  154.8461  140.0411  157.1562 H   0  0  0  0  0  0  0  0  0  0  0  0  # atno 8010 bound_to 7997
  140.4174  144.1508  150.6144 H   0  0  0  0  0  0  0  0  0  0  0  0  # atno 10167 bound_to 10162
  156.2897  130.7368  151.1390 H   0  0  0  0  0  0  0  0  0  0  0  0  # atno 10718 bound_to 10713
  154.1064  135.2842  155.3240 H   0  0  0  0  0  0  0  0  0  0  0  0  # atno 10763 bound_to 10752
  154.6520  135.5365  153.7917 H   0  0  0  0  0  0  0  0  0  0  0  0  # atno 10764 bound_to 10752
  153.0361  135.6512  154.1225 H   0  0  0  0  0  0  0  0  0  0  0  0  # atno 10765 bound_to 10752
  140.0723  134.5453  155.9034 H   0  0  0  0  0  0  0  0  0  0  0  0  # atno 11005 bound_to 11000
  145.1326  140.9526  143.4535 LP  0  0  0  0  0  0  0  0  0  0  0  0  # atno 17320 bound_to 7965
  145.0373  139.3290  143.5994 LP  0  0  0  0  0  0  0  0  0  0  0  0  # atno 17321 bound_to 7965
  140.4572  143.2463  151.9269 LP  0  0  0  0  0  0  0  0  0  0  0  0  # atno 17342 bound_to 10162
  139.4782  144.5504  151.8395 LP  0  0  0  0  0  0  0  0  0  0  0  0  # atno 17343 bound_to 10162
  157.7339  131.0587  150.5553 LP  0  0  0  0  0  0  0  0  0  0  0  0  # atno 17370 bound_to 10713
  156.5668  130.4269  149.6037 LP  0  0  0  0  0  0  0  0  0  0  0  0  # atno 17371 bound_to 10713
  141.2016  133.6620  156.5961 LP  0  0  0  0  0  0  0  0  0  0  0  0  # atno 17394 bound_to 11000
  140.3609  134.7688  157.4533 LP  0  0  0  0  0  0  0  0  0  0  0  0  # atno 17395 bound_to 11000

$$$$
