AV-unprocessed.smi:3245|AV-procd|sdf|12403|dock1
  -GOLD-   2272018283D 1   1.00000     0.00000
 Structure written by MMmdl.
 36 37  0  0  0  0  0  0  0  0  2 V2000
  152.0168  144.2195  157.8191 C   0  0  0  0  0  0  0  0  0  0  0  0
  151.1183  143.0166  158.1367 C   0  0  1  0  0  0  0  0  0  0  0  0
  151.2902  142.5828  159.6089 C   0  0  0  0  0  0  0  0  0  0  0  0
  152.6464  142.1712  159.9250 N   0  0  0  0  0  0  0  0  0  0  0  0
  153.4740  142.6384  160.9242 C   0  0  0  0  0  0  0  0  0  0  0  0
  154.6587  141.9682  160.8159 C   0  0  0  0  0  0  0  0  0  0  0  0
  154.4555  141.0966  159.7096 C   0  0  0  0  0  0  0  0  0  0  0  0
  153.2498  141.2207  159.1782 N   0  0  0  0  0  0  0  0  0  0  0  0
  149.7093  143.3639  157.8421 N   0  3  0  0  0  0  0  0  0  0  0  0
  148.7489  142.2511  157.9887 C   0  0  0  0  0  0  0  0  0  0  0  0
  149.3301  140.9480  157.4220 C   0  0  0  0  0  0  0  0  0  0  0  0
  148.8876  140.7249  156.0435 N   0  0  0  0  0  0  0  0  0  0  0  0
  147.6653  141.0228  155.5848 C   0  0  0  0  0  0  0  0  0  0  0  0
  146.7297  141.5150  156.2143 O   0  0  0  0  0  0  0  0  0  0  0  0
  147.6043  140.6628  154.1164 C   0  0  0  0  0  0  0  0  0  0  0  0
  148.9550  140.1742  153.9381 N   0  0  0  0  0  0  0  0  0  0  0  0
  149.6705  140.2266  155.0689 C   0  0  0  0  0  0  0  0  0  0  0  0
  150.8460  139.8830  155.1826 O   0  0  0  0  0  0  0  0  0  0  0  0
  153.0671  143.9808  157.9904 H   0  0  0  0  0  0  0  0  0  0  0  0
  151.7660  145.0793  158.4415 H   0  0  0  0  0  0  0  0  0  0  0  0
  151.9159  144.5222  156.7763 H   0  0  0  0  0  0  0  0  0  0  0  0
  151.4305  142.1988  157.4847 H   0  0  0  0  0  0  0  0  0  0  0  0
  151.0306  143.4083  160.2730 H   0  0  0  0  0  0  0  0  0  0  0  0
  150.6066  141.7670  159.8508 H   0  0  0  0  0  0  0  0  0  0  0  0
  153.1568  143.4032  161.6178 H   0  0  0  0  0  0  0  0  0  0  0  0
  155.5375  142.0820  161.4334 H   0  0  0  0  0  0  0  0  0  0  0  0
  155.1442  140.3850  159.2786 H   0  0  0  0  0  0  0  0  0  0  0  0
  149.4355  144.1166  158.4580 H   0  0  0  0  0  0  0  0  0  0  0  0
  148.5018  142.1323  159.0445 H   0  0  0  0  0  0  0  0  0  0  0  0
  147.8202  142.4908  157.4715 H   0  0  0  0  0  0  0  0  0  0  0  0
  150.4206  140.9825  157.4536 H   0  0  0  0  0  0  0  0  0  0  0  0
  149.0419  140.1048  158.0523 H   0  0  0  0  0  0  0  0  0  0  0  0
  146.8654  139.8844  153.9227 H   0  0  0  0  0  0  0  0  0  0  0  0
  147.4059  141.5360  153.4943 H   0  0  0  0  0  0  0  0  0  0  0  0
  149.3065  139.8398  153.0523 H   0  0  0  0  0  0  0  0  0  0  0  0
  149.6527  143.6925  156.8886 H   0  0  0  0  0  0  0  0  0  0  0  0
  1  2  1  0  0  0  0
  1 19  1  0  0  0  0
  1 20  1  0  0  0  0
  1 21  1  0  0  0  0
  2  3  1  0  0  0  0
  2  9  1  0  0  0  0
  2 22  1  0  0  0  0
  3  4  1  0  0  0  0
  3 23  1  0  0  0  0
  3 24  1  0  0  0  0
  4  8  1  0  0  0  0
  4  5  1  0  0  0  0
  5  6  2  0  0  0  0
  5 25  1  0  0  0  0
  6  7  1  0  0  0  0
  6 26  1  0  0  0  0
  7  8  2  0  0  0  0
  7 27  1  0  0  0  0
  9 10  1  0  0  0  0
  9 28  1  0  0  0  0
  9 36  1  0  0  0  0
 10 11  1  0  0  0  0
 10 29  1  0  0  0  0
 10 30  1  0  0  0  0
 11 12  1  0  0  0  0
 11 31  1  0  0  0  0
 11 32  1  0  0  0  0
 12 17  1  0  0  0  0
 12 13  1  0  0  0  0
 13 14  2  0  0  0  0
 13 15  1  0  0  0  0
 15 16  1  0  0  0  0
 15 33  1  0  0  0  0
 15 34  1  0  0  0  0
 16 17  1  0  0  0  0
 16 35  1  0  0  0  0
 17 18  2  0  0  0  0
M  CHG  1   9   1
M  END
> <s_m_source_file>
AV-unprocessed.smi

> <i_m_source_file_index>
3245

> <i_lp_mmshare_version>
43012

> <i_f3d_flags>
0

> <s_epik_input>
bjFbY0hdW2NIXVtjSF1uMVtDSDJdW0NAQEhdKFtDSDNdKVtOSF1bQ0gyXVtDSDJdTjJDKD1PKVtDSDJdW05IXUMyPU8=

> <s_epik_cmdline>
J2VwaWtfcHl0aG9uJywgJy1waCcsICc3LjAnLCAnLXRuJywgJzgnLCAnLW1hJywgJzIwMCcsICctbWV0YWxfYmluZGluZycsICctaW1hZScsICc8aW5maWxlLm1hZT4nLCAnLW9tYWUnLCAnPG91dGZpbGUubWFlPic=

> <r_lp_tautomer_probability>
1

> <r_epik_Ionization_Penalty>
0.0160742

> <r_epik_Ionization_Penalty_Charging>
0.0159586

> <r_epik_Ionization_Penalty_Neutral>
0.000115543

> <r_epik_State_Penalty>
0.0125702

> <r_epik_Charging_Adjusted_Penalty>
0.0285288

> <i_epik_Tot_Q>
1

> <i_epik_Tot_abs_Q>
1

> <r_epik_Metal_State_Penalty>
0.0881892

> <b_epik_Metal_Only>
0

> <s_lp_Force_Field>
OPLS_2005

> <r_lp_Energy>
19.8129

> <b_lp_Chiralities_Consistent>
1

> <s_lp_Variant>
AV-unprocessed.smi:3245-2

> <Gold.Version>
5.8.1

> <Gold.Id.Protein>
6NUR|6NUR_protein|mol2

> <Gold.PLP.Fitness>
45.0557

> <Gold.PLP.PLP>
-34.3442

> <Gold.PLP.part.hbond>
-3.7829

> <Gold.PLP.part.metal>
0.0000

> <Gold.PLP.part.buried>
-0.8154

> <Gold.PLP.part.nonpolar>
-29.2020

> <Gold.PLP.part.repulsive>
0.8612

> <Gold.PLP.ligand.clash>
0.0000

> <Gold.PLP.ligand.torsion>
0.6817

> <Gold.PLP.Chemscore.Hbond>
3.9840

> <Gold.PLP.Chemscore.CHOScore>
0.0000

> <Gold.PLP.Chemscore.Metal>
0.0000

> <Gold.Chemscore.Hbonds>
donor molecule, donor type, donor heavy atom, donor atom, acceptor molecule, acceptor atom, score
      L1  H     9    36       P1  8028  1.95
      L1  H    16    35       P1  7957  1.00
      P1  H  7989  7998       L1    18  0.77

> <Gold.PLP.Chemscore.Internal.Correction>
0.1230

> <Gold.Rescore>
     Score         DG    S(hbond)    S(metal)    S(lipo)     H(rot)  DE(clash)    DE(int)     intcor
     13.64     -16.10       2.74        0.00      72.35       2.74       0.20       2.26       ----

> <Gold.Chemscore.Fitness>
13.6398

> <Gold.Chemscore.DG>
-16.0966

> <Gold.Chemscore.ZeroCoef>
-5.4800

> <Gold.Chemscore.Hbond>
2.7420

> <Gold.Chemscore.Metal>
0.0000

> <Gold.Chemscore.Lipo>
72.3486

> <Gold.Chemscore.Internal_Hbond>
0.0000

> <Gold.Chemscore.DEClash>
0.1970

> <Gold.Chemscore.DEInternal>
2.2598

> <Gold.Chemscore.Rot>
2.7369

> <Gold.Chemscore.Internal.Correction>
   9.000000E+99

> <Gold.Chemscore.Hbonds>
donor molecule, donor type, donor heavy atom, donor atom, acceptor molecule, acceptor atom, score
      L1  H     9    36       P1  8028  0.90
      L1  H    16    35       P1  7957  0.96
      P1  H  7989  7998       L1    18  0.17

> <Gold.Chemscore.Hbond.Weighted>
-9.1583

> <Gold.Chemscore.Metal.Weighted>
-0.0000

> <Gold.Chemscore.Lipo.Weighted>
-8.4648

> <Gold.Chemscore.Internal_Hbond.Weighted>
0.0000

> <Gold.Chemscore.DEClash.Weighted>
0.1970

> <Gold.Chemscore.DEInternal.Weighted>
2.2598

> <Gold.Chemscore.Rot.Weighted>
7.0065

> <Gold.Chemscore.Internal.Correction.Weighted>
   9.000000E+99

> <Gold.Protein.RotatedTorsions>
[ 6907 6896 6895 6894 ] final -170.95 input  -60.11 | X-H torsion
[ 7974 7965 7964 7962 ] final  -30.05 input  175.53 | X-H torsion
[ 8008 7997 7996 7995 ] final   79.86 input   59.86 | X-H torsion
[ 10167 10162 10161 10158 ] final   93.91 input  -65.29 | X-H torsion
[ 10718 10713 10712 10709 ] final  -28.56 input   66.30 | X-H torsion
[ 10763 10752 10751 10750 ] final -169.90 input  -60.55 | X-H torsion
[ 11005 11000 10999 10996 ] final   63.16 input  -57.11 | X-H torsion

> <Gold.Protein.ActiveResidues>
 VAL166  LYS551  ARG553  GLY616  TRP617  ASP618  TYR619  PRO620  LYS621  CYS622 
 ASP623  PHE694  ASN695  SER759  ASP760  ASP761  ALA762  ILE779  LEU786  VAL792 
 PHE793  MET794  SER795  GLU796  ALA797  LYS798  CYS799  TRP800  GLU811  SER814 

> <Gold.Protein.RotatedAtoms>
  151.5159  133.3476  159.2892 H   0  0  0  0  0  0  0  0  0  0  0  0  # atno 6907 bound_to 6896
  150.8683  134.8053  159.7146 H   0  0  0  0  0  0  0  0  0  0  0  0  # atno 6908 bound_to 6896
  152.4680  134.5039  159.9785 H   0  0  0  0  0  0  0  0  0  0  0  0  # atno 6909 bound_to 6896
  146.1171  140.5491  142.8752 H   0  0  0  0  0  0  0  0  0  0  0  0  # atno 7974 bound_to 7965
  155.8755  140.3447  155.5851 H   0  0  0  0  0  0  0  0  0  0  0  0  # atno 8008 bound_to 7997
  155.7779  140.0854  157.2094 H   0  0  0  0  0  0  0  0  0  0  0  0  # atno 8009 bound_to 7997
  154.4020  140.1506  156.3005 H   0  0  0  0  0  0  0  0  0  0  0  0  # atno 8010 bound_to 7997
  139.8135  144.6763  150.9610 H   0  0  0  0  0  0  0  0  0  0  0  0  # atno 10167 bound_to 10162
  156.4237  130.4431  149.7166 H   0  0  0  0  0  0  0  0  0  0  0  0  # atno 10718 bound_to 10713
  154.6474  135.2906  155.0030 H   0  0  0  0  0  0  0  0  0  0  0  0  # atno 10763 bound_to 10752
  154.1135  135.6559  153.4893 H   0  0  0  0  0  0  0  0  0  0  0  0  # atno 10764 bound_to 10752
  153.0358  135.5270  154.7366 H   0  0  0  0  0  0  0  0  0  0  0  0  # atno 10765 bound_to 10752
  140.0043  134.6393  155.9880 H   0  0  0  0  0  0  0  0  0  0  0  0  # atno 11005 bound_to 11000
  144.7563  140.5316  143.6766 LP  0  0  0  0  0  0  0  0  0  0  0  0  # atno 17320 bound_to 7965
  145.5543  139.1477  143.3377 LP  0  0  0  0  0  0  0  0  0  0  0  0  # atno 17321 bound_to 7965
  140.7817  143.4162  151.0914 LP  0  0  0  0  0  0  0  0  0  0  0  0  # atno 17342 bound_to 10162
  139.7827  143.8332  152.3140 LP  0  0  0  0  0  0  0  0  0  0  0  0  # atno 17343 bound_to 10162
  156.4096  130.7715  151.2728 LP  0  0  0  0  0  0  0  0  0  0  0  0  # atno 17370 bound_to 10713
  157.7508  131.0215  150.3754 LP  0  0  0  0  0  0  0  0  0  0  0  0  # atno 17371 bound_to 10713
  141.1665  133.6537  156.4500 LP  0  0  0  0  0  0  0  0  0  0  0  0  # atno 17394 bound_to 11000
  140.4669  134.6789  157.5111 LP  0  0  0  0  0  0  0  0  0  0  0  0  # atno 17395 bound_to 11000

$$$$
