AV-unprocessed.smi:144|AV-procd|sdf|1195|dock8
  -GOLD-   2262018353D 1   1.00000     0.00000
 Structure written by MMmdl.
 46 48  0  0  0  0  0  0  0  0  1 V2000
  150.6558  137.5972  159.8448 O   0  0  0  0  0  0  0  0  0  0  0  0
  150.1651  138.0972  158.8339 C   0  0  0  0  0  0  0  0  0  0  0  0
  149.1978  137.2450  157.9905 C   0  0  0  0  0  0  0  0  0  0  0  0
  148.7251  136.0018  158.6443 N   0  0  0  0  0  0  0  0  0  0  0  0
  148.7951  134.7833  157.9243 C   0  0  0  0  0  0  0  0  0  0  0  0
  149.2358  134.7454  156.7749 O   0  0  0  0  0  0  0  0  0  0  0  0
  148.3292  133.6008  158.6401 C   0  0  0  0  0  0  0  0  0  0  0  0
  148.3489  132.4037  158.0302 F   0  0  0  0  0  0  0  0  0  0  0  0
  147.8835  133.6873  159.9103 C   0  0  0  0  0  0  0  0  0  0  0  0
  147.8378  134.8813  160.6074 N   0  0  0  0  0  0  0  0  0  0  0  0
  147.3583  134.9576  162.0413 C   0  0  2  0  0  0  0  0  0  0  0  0
  146.9120  133.5689  162.5350 C   0  0  0  0  0  0  0  0  0  0  0  0
  145.5490  133.8528  163.1336 C   0  0  0  0  0  0  0  0  0  0  0  0
  145.0706  135.0190  162.2819 C   0  0  0  0  0  0  0  0  0  0  0  0
  146.2465  135.8030  162.1267 O   0  0  0  0  0  0  0  0  0  0  0  0
  148.2560  136.0730  159.9779 C   0  0  0  0  0  0  0  0  0  0  0  0
  148.2289  137.1465  160.5841 O   0  0  0  0  0  0  0  0  0  0  0  0
  150.4342  139.3443  158.3992 N   0  0  0  0  0  0  0  0  0  0  0  0
  151.3098  140.3177  158.9483 C   0  0  0  0  0  0  0  0  0  0  0  0
  150.9239  141.6668  158.8187 C   0  0  0  0  0  0  0  0  0  0  0  0
  151.7313  142.7005  159.3385 C   0  0  0  0  0  0  0  0  0  0  0  0
  151.3189  144.1574  159.1926 C   0  0  0  0  0  0  0  0  0  0  0  0
  152.1985  144.7855  158.4136 F   0  0  0  0  0  0  0  0  0  0  0  0
  150.1115  144.2424  158.6340 F   0  0  0  0  0  0  0  0  0  0  0  0
  151.2763  144.7745  160.3742 F   0  0  0  0  0  0  0  0  0  0  0  0
  152.9244  142.3724  160.0151 C   0  0  0  0  0  0  0  0  0  0  0  0
  153.3117  141.0249  160.1769 C   0  0  0  0  0  0  0  0  0  0  0  0
  154.5961  140.6694  160.9116 C   0  0  0  0  0  0  0  0  0  0  0  0
  155.6280  141.3380  160.3957 F   0  0  0  0  0  0  0  0  0  0  0  0
  154.4709  140.9975  162.1968 F   0  0  0  0  0  0  0  0  0  0  0  0
  154.8609  139.3653  160.8266 F   0  0  0  0  0  0  0  0  0  0  0  0
  152.5028  140.0009  159.6400 C   0  0  0  0  0  0  0  0  0  0  0  0
  148.3504  137.8731  157.7109 H   0  0  0  0  0  0  0  0  0  0  0  0
  149.6835  137.0287  157.0378 H   0  0  0  0  0  0  0  0  0  0  0  0
  147.5546  132.7749  160.3836 H   0  0  0  0  0  0  0  0  0  0  0  0
  148.1827  135.3915  162.6102 H   0  0  0  0  0  0  0  0  0  0  0  0
  146.8212  132.8800  161.6935 H   0  0  0  0  0  0  0  0  0  0  0  0
  147.6231  133.1603  163.2533 H   0  0  0  0  0  0  0  0  0  0  0  0
  144.8783  132.9939  163.0984 H   0  0  0  0  0  0  0  0  0  0  0  0
  145.6522  134.1665  164.1732 H   0  0  0  0  0  0  0  0  0  0  0  0
  144.7197  134.6700  161.3098 H   0  0  0  0  0  0  0  0  0  0  0  0
  144.2693  135.5873  162.7546 H   0  0  0  0  0  0  0  0  0  0  0  0
  150.0186  139.5918  157.5130 H   0  0  0  0  0  0  0  0  0  0  0  0
  150.0024  141.9071  158.3082 H   0  0  0  0  0  0  0  0  0  0  0  0
  153.5400  143.1639  160.4161 H   0  0  0  0  0  0  0  0  0  0  0  0
  152.8085  138.9760  159.7821 H   0  0  0  0  0  0  0  0  0  0  0  0
  1  2  2  0  0  0  0
  2  3  1  0  0  0  0
  2 18  1  0  0  0  0
  3  4  1  0  0  0  0
  3 33  1  0  0  0  0
  3 34  1  0  0  0  0
  4 16  1  0  0  0  0
  4  5  1  0  0  0  0
  5  6  2  0  0  0  0
  5  7  1  0  0  0  0
  7  8  1  0  0  0  0
  7  9  2  0  0  0  0
  9 10  1  0  0  0  0
  9 35  1  0  0  0  0
 10 11  1  0  0  0  0
 10 16  1  0  0  0  0
 11 15  1  0  0  0  0
 11 12  1  0  0  0  0
 11 36  1  0  0  0  0
 12 13  1  0  0  0  0
 12 37  1  0  0  0  0
 12 38  1  0  0  0  0
 13 14  1  0  0  0  0
 13 39  1  0  0  0  0
 13 40  1  0  0  0  0
 14 15  1  0  0  0  0
 14 41  1  0  0  0  0
 14 42  1  0  0  0  0
 16 17  2  0  0  0  0
 18 19  1  0  0  0  0
 18 43  1  0  0  0  0
 19 32  1  0  0  0  0
 19 20  2  0  0  0  0
 20 21  1  0  0  0  0
 20 44  1  0  0  0  0
 21 22  1  0  0  0  0
 21 26  2  0  0  0  0
 22 23  1  0  0  0  0
 22 24  1  0  0  0  0
 22 25  1  0  0  0  0
 26 27  1  0  0  0  0
 26 45  1  0  0  0  0
 27 28  1  0  0  0  0
 27 32  2  0  0  0  0
 28 29  1  0  0  0  0
 28 30  1  0  0  0  0
 28 31  1  0  0  0  0
 32 46  1  0  0  0  0
M  END
> <s_m_source_file>
AV-unprocessed.smi

> <i_m_source_file_index>
144

> <i_lp_mmshare_version>
43012

> <i_f3d_flags>
0

> <s_epik_input>
RkMoRikoRiljKFtjSF0xKVtjSF1jKEMoRikoRilGKVtjSF1jMVtOSF1DKD1PKVtDSDJdbjJjKD1PKWMoRilbY0hdbihjMj1PKVtDQEBIXTNbQ0gyXVtDSDJdW0NIMl1PMw==

> <s_epik_cmdline>
J2VwaWtfcHl0aG9uJywgJy1waCcsICc3LjAnLCAnLXRuJywgJzgnLCAnLW1hJywgJzIwMCcsICctbWV0YWxfYmluZGluZycsICctaW1hZScsICc8aW5maWxlLm1hZT4nLCAnLW9tYWUnLCAnPG91dGZpbGUubWFlPic=

> <r_lp_tautomer_probability>
1

> <r_epik_Ionization_Penalty>
3.68082e-06

> <r_epik_Ionization_Penalty_Charging>
3.88729e-08

> <r_epik_Ionization_Penalty_Neutral>
3.64194e-06

> <r_epik_State_Penalty>
-0

> <r_epik_Charging_Adjusted_Penalty>
3.88729e-08

> <i_epik_Tot_Q>
0

> <i_epik_Tot_abs_Q>
0

> <r_epik_Metal_State_Penalty>
-0

> <b_epik_Metal_Only>
0

> <s_epik_Chemistry_Notes>
This compound contains an acetal/aminal-like group ( X-CH(R)-Y where X, Y are N, S, or O) that may be acid/base labile, releasing an aldehyde.

> <s_lp_Force_Field>
OPLS_2005

> <r_lp_Energy>
34.4133

> <b_lp_Chiralities_Consistent>
1

> <s_lp_Variant>
AV-unprocessed.smi:144-1

> <Gold.Version>
5.8.1

> <Gold.Id.Protein>
6NUR|6NUR_protein|mol2

> <Gold.PLP.Fitness>
60.1730

> <Gold.PLP.PLP>
-58.9032

> <Gold.PLP.part.hbond>
-2.8506

> <Gold.PLP.part.metal>
0.0000

> <Gold.PLP.part.buried>
-4.2364

> <Gold.PLP.part.nonpolar>
-52.4182

> <Gold.PLP.part.repulsive>
0.1407

> <Gold.PLP.ligand.clash>
2.8041

> <Gold.PLP.ligand.torsion>
0.7020

> <Gold.PLP.Chemscore.Hbond>
1.3280

> <Gold.PLP.Chemscore.CHOScore>
0.0000

> <Gold.PLP.Chemscore.Metal>
0.0000

> <Gold.Chemscore.Hbonds>
donor molecule, donor type, donor heavy atom, donor atom, acceptor molecule, acceptor atom, score
      P1  H  6931  6943       L1    17  0.80
      P1  H  6934  6947       L1    17  0.44

> <Gold.PLP.Chemscore.Internal.Correction>
1.4939

> <Gold.Rescore>
     Score         DG    S(hbond)    S(metal)    S(lipo)     H(rot)  DE(clash)    DE(int)     intcor
      9.53     -15.85       1.15        0.00      95.80       1.83       0.04       6.28       ----

> <Gold.Chemscore.Fitness>
9.5300

> <Gold.Chemscore.DG>
-15.8530

> <Gold.Chemscore.ZeroCoef>
-5.4800

> <Gold.Chemscore.Hbond>
1.1542

> <Gold.Chemscore.Metal>
0.0000

> <Gold.Chemscore.Lipo>
95.8044

> <Gold.Chemscore.Internal_Hbond>
0.0000

> <Gold.Chemscore.DEClash>
0.0403

> <Gold.Chemscore.DEInternal>
6.2827

> <Gold.Chemscore.Rot>
1.8325

> <Gold.Chemscore.Internal.Correction>
   9.000000E+99

> <Gold.Chemscore.Hbonds>
donor molecule, donor type, donor heavy atom, donor atom, acceptor molecule, acceptor atom, score
      P1  H  6931  6943       L1    17  0.79
      P1  H  6934  6947       L1    17  0.44

> <Gold.Chemscore.Hbond.Weighted>
-3.8550

> <Gold.Chemscore.Metal.Weighted>
-0.0000

> <Gold.Chemscore.Lipo.Weighted>
-11.2091

> <Gold.Chemscore.Internal_Hbond.Weighted>
0.0000

> <Gold.Chemscore.DEClash.Weighted>
0.0403

> <Gold.Chemscore.DEInternal.Weighted>
6.2827

> <Gold.Chemscore.Rot.Weighted>
4.6911

> <Gold.Chemscore.Internal.Correction.Weighted>
   9.000000E+99

> <Gold.Protein.RotatedTorsions>
[ 6907 6896 6895 6894 ] final -169.63 input  -60.11 | X-H torsion
[ 7974 7965 7964 7962 ] final -132.91 input  175.53 | X-H torsion
[ 8008 7997 7996 7995 ] final   69.98 input   59.86 | X-H torsion
[ 10167 10162 10161 10158 ] final  -79.26 input  -65.29 | X-H torsion
[ 10718 10713 10712 10709 ] final  137.92 input   66.30 | X-H torsion
[ 10763 10752 10751 10750 ] final  -47.11 input  -60.55 | X-H torsion
[ 11005 11000 10999 10996 ] final   68.93 input  -57.11 | X-H torsion

> <Gold.Protein.ActiveResidues>
 VAL166  LYS551  ARG553  GLY616  TRP617  ASP618  TYR619  PRO620  LYS621  CYS622 
 ASP623  PHE694  ASN695  SER759  ASP760  ASP761  ALA762  ILE779  LEU786  VAL792 
 PHE793  MET794  SER795  GLU796  ALA797  LYS798  CYS799  TRP800  GLU811  SER814 

> <Gold.Protein.RotatedAtoms>
  151.4947  133.3517  159.2858 H   0  0  0  0  0  0  0  0  0  0  0  0  # atno 6907 bound_to 6896
  150.8812  134.8205  159.7237 H   0  0  0  0  0  0  0  0  0  0  0  0  # atno 6908 bound_to 6896
  152.4764  134.4844  159.9727 H   0  0  0  0  0  0  0  0  0  0  0  0  # atno 6909 bound_to 6896
  144.9242  140.7050  143.4946 H   0  0  0  0  0  0  0  0  0  0  0  0  # atno 7974 bound_to 7965
  155.7318  140.3492  155.5063 H   0  0  0  0  0  0  0  0  0  0  0  0  # atno 8008 bound_to 7997
  155.9175  140.1061  157.1254 H   0  0  0  0  0  0  0  0  0  0  0  0  # atno 8009 bound_to 7997
  154.4065  140.1256  156.4624 H   0  0  0  0  0  0  0  0  0  0  0  0  # atno 8010 bound_to 7997
  140.4609  143.2454  151.8350 H   0  0  0  0  0  0  0  0  0  0  0  0  # atno 10167 bound_to 10162
  157.4309  131.1048  151.0251 H   0  0  0  0  0  0  0  0  0  0  0  0  # atno 10718 bound_to 10713
  154.0560  135.6624  153.4806 H   0  0  0  0  0  0  0  0  0  0  0  0  # atno 10763 bound_to 10752
  153.0445  135.5123  154.7705 H   0  0  0  0  0  0  0  0  0  0  0  0  # atno 10764 bound_to 10752
  154.6726  135.3032  154.9688 H   0  0  0  0  0  0  0  0  0  0  0  0  # atno 10765 bound_to 10752
  139.9683  134.6943  156.0500 H   0  0  0  0  0  0  0  0  0  0  0  0  # atno 11005 bound_to 11000
  145.3247  139.1777  143.4569 LP  0  0  0  0  0  0  0  0  0  0  0  0  # atno 17320 bound_to 7965
  146.3218  140.3269  142.8637 LP  0  0  0  0  0  0  0  0  0  0  0  0  # atno 17321 bound_to 7965
  139.4806  144.5009  151.9062 LP  0  0  0  0  0  0  0  0  0  0  0  0  # atno 17342 bound_to 10162
  140.4095  144.2388  150.5889 LP  0  0  0  0  0  0  0  0  0  0  0  0  # atno 17343 bound_to 10162
  157.1148  130.6037  149.5490 LP  0  0  0  0  0  0  0  0  0  0  0  0  # atno 17370 bound_to 10713
  155.9913  130.4967  150.7293 LP  0  0  0  0  0  0  0  0  0  0  0  0  # atno 17371 bound_to 10713
  141.1363  133.6574  156.3602 LP  0  0  0  0  0  0  0  0  0  0  0  0  # atno 17394 bound_to 11000
  140.5349  134.6177  157.5361 LP  0  0  0  0  0  0  0  0  0  0  0  0  # atno 17395 bound_to 11000

$$$$
