AV-unprocessed.smi:283|AV-procd|sdf|2149|dock8
  -GOLD-   2262021483D 1   1.00000     0.00000
 Structure written by MMmdl.
 48 51  0  0  0  0  0  0  0  0  1 V2000
  151.1179  140.1665  156.2212 C   0  0  0  0  0  0  0  0  0  0  0  0
  150.1978  141.1233  156.9908 C   0  0  2  0  0  0  0  0  0  0  0  0
  149.2622  141.7663  156.0698 N   0  0  0  0  0  0  0  0  0  0  0  0
  148.5226  141.0270  155.2128 C   0  0  0  0  0  0  0  0  0  0  0  0
  148.3558  141.4097  153.9200 N   0  0  0  0  0  0  0  0  0  0  0  0
  147.6196  140.6628  153.0928 C   0  0  0  0  0  0  0  0  0  0  0  0
  146.9748  139.5234  153.3500 N   0  0  0  0  0  0  0  0  0  0  0  0
  147.1328  139.1355  154.6494 C   0  0  0  0  0  0  0  0  0  0  0  0
  147.8883  139.8303  155.6353 C   0  0  0  0  0  0  0  0  0  0  0  0
  147.8353  139.1451  156.8415 N   0  0  0  0  0  0  0  0  0  0  0  0
  147.0872  138.1072  156.5804 C   0  0  0  0  0  0  0  0  0  0  0  0
  146.6179  138.0233  155.2880 N   0  0  0  0  0  0  0  0  0  0  0  0
  145.7329  136.9578  154.7145 C   0  0  2  0  0  0  0  0  0  0  0  0
  146.4093  136.3312  153.6685 O   0  0  0  0  0  0  0  0  0  0  0  0
  145.5138  136.0965  152.5873 C   0  0  2  0  0  0  0  0  0  0  0  0
  146.2783  135.9239  151.2627 C   0  0  0  0  0  0  0  0  0  0  0  0
  145.3932  136.0446  150.1692 O   0  0  0  0  0  0  0  0  0  0  0  0
  144.5495  137.2905  152.6477 C   0  0  2  0  0  0  0  0  0  0  0  0
  145.0721  138.4198  151.9682 O   0  0  0  0  0  0  0  0  0  0  0  0
  144.4098  137.5177  154.1503 C   0  0  2  0  0  0  0  0  0  0  0  0
  144.1066  138.8589  154.4989 O   0  0  0  0  0  0  0  0  0  0  0  0
  151.0224  142.1059  157.8252 C   0  0  0  0  0  0  0  0  0  0  0  0
  151.0629  143.4707  157.4567 C   0  0  0  0  0  0  0  0  0  0  0  0
  151.8121  144.3957  158.2075 C   0  0  0  0  0  0  0  0  0  0  0  0
  152.5343  143.9642  159.3345 C   0  0  0  0  0  0  0  0  0  0  0  0
  152.5097  142.6069  159.7048 C   0  0  0  0  0  0  0  0  0  0  0  0
  151.7618  141.6758  158.9560 C   0  0  0  0  0  0  0  0  0  0  0  0
  151.7793  140.0195  159.4522 Cl  0  0  0  0  0  0  0  0  0  0  0  0
  145.5785  136.2620  155.5401 H   0  0  0  0  0  0  0  0  0  0  0  0
  144.9422  135.1932  152.8101 H   0  0  0  0  0  0  0  0  0  0  0  0
  143.5894  137.0476  152.1913 H   0  0  0  0  0  0  0  0  0  0  0  0
  143.6096  136.8791  154.5272 H   0  0  0  0  0  0  0  0  0  0  0  0
  151.7709  139.6204  156.9026 H   0  0  0  0  0  0  0  0  0  0  0  0
  151.7493  140.7041  155.5130 H   0  0  0  0  0  0  0  0  0  0  0  0
  150.5396  139.4311  155.6611 H   0  0  0  0  0  0  0  0  0  0  0  0
  149.5910  140.5116  157.6570 H   0  0  0  0  0  0  0  0  0  0  0  0
  149.0635  142.7381  156.2586 H   0  0  0  0  0  0  0  0  0  0  0  0
  147.5336  141.0310  152.0813 H   0  0  0  0  0  0  0  0  0  0  0  0
  146.8478  137.3698  157.3326 H   0  0  0  0  0  0  0  0  0  0  0  0
  147.0305  136.7065  151.1577 H   0  0  0  0  0  0  0  0  0  0  0  0
  146.7967  134.9652  151.2247 H   0  0  0  0  0  0  0  0  0  0  0  0
  145.3471  136.9539  149.9167 H   0  0  0  0  0  0  0  0  0  0  0  0
  144.5827  139.1847  152.2293 H   0  0  0  0  0  0  0  0  0  0  0  0
  143.8630  139.3250  153.7140 H   0  0  0  0  0  0  0  0  0  0  0  0
  150.5152  143.8169  156.5922 H   0  0  0  0  0  0  0  0  0  0  0  0
  151.8324  145.4359  157.9178 H   0  0  0  0  0  0  0  0  0  0  0  0
  153.1091  144.6725  159.9127 H   0  0  0  0  0  0  0  0  0  0  0  0
  153.0693  142.2786  160.5682 H   0  0  0  0  0  0  0  0  0  0  0  0
  1  2  1  0  0  0  0
  1 33  1  0  0  0  0
  1 34  1  0  0  0  0
  1 35  1  0  0  0  0
  2  3  1  0  0  0  0
  2 22  1  0  0  0  0
  2 36  1  0  0  0  0
  3  4  1  0  0  0  0
  3 37  1  0  0  0  0
  4  9  1  0  0  0  0
  4  5  2  0  0  0  0
  5  6  1  0  0  0  0
  6  7  2  0  0  0  0
  6 38  1  0  0  0  0
  7  8  1  0  0  0  0
  8 12  1  0  0  0  0
  8  9  2  0  0  0  0
  9 10  1  0  0  0  0
 10 11  2  0  0  0  0
 11 12  1  0  0  0  0
 11 39  1  0  0  0  0
 12 13  1  0  0  0  0
 13 29  1  0  0  0  0
 13 20  1  0  0  0  0
 13 14  1  0  0  0  0
 14 15  1  0  0  0  0
 15 30  1  0  0  0  0
 15 16  1  0  0  0  0
 15 18  1  0  0  0  0
 16 17  1  0  0  0  0
 16 40  1  0  0  0  0
 16 41  1  0  0  0  0
 17 42  1  0  0  0  0
 18 31  1  0  0  0  0
 18 19  1  0  0  0  0
 18 20  1  0  0  0  0
 19 43  1  0  0  0  0
 20 32  1  0  0  0  0
 20 21  1  0  0  0  0
 21 44  1  0  0  0  0
 22 27  1  0  0  0  0
 22 23  2  0  0  0  0
 23 24  1  0  0  0  0
 23 45  1  0  0  0  0
 24 25  2  0  0  0  0
 24 46  1  0  0  0  0
 25 26  1  0  0  0  0
 25 47  1  0  0  0  0
 26 27  2  0  0  0  0
 26 48  1  0  0  0  0
 27 28  1  0  0  0  0
M  END
> <s_m_source_file>
AV-unprocessed.smi

> <i_m_source_file_index>
283

> <i_lp_mmshare_version>
43012

> <i_f3d_flags>
0

> <s_epik_input>
Q2xjMVtjSF1bY0hdW2NIXVtjSF1jMVtDQEhdKFtDSDNdKVtOSF1jKG5bY0hdbjIpYyhjMjMpbltjSF1uM1tDQEBIXTRPW0NASF0oW0NIMl1bT0hdKVtDQEBIXShbT0hdKVtDQEhdNFtPSF0=

> <s_epik_cmdline>
J2VwaWtfcHl0aG9uJywgJy1waCcsICc3LjAnLCAnLXRuJywgJzgnLCAnLW1hJywgJzIwMCcsICctbWV0YWxfYmluZGluZycsICctaW1hZScsICc8aW5maWxlLm1hZT4nLCAnLW9tYWUnLCAnPG91dGZpbGUubWFlPic=

> <r_lp_tautomer_probability>
1

> <r_epik_Ionization_Penalty>
0.000266407

> <r_epik_Ionization_Penalty_Charging>
0

> <r_epik_Ionization_Penalty_Neutral>
0.000266407

> <r_epik_State_Penalty>
-0

> <r_epik_Charging_Adjusted_Penalty>
0

> <i_epik_Tot_Q>
0

> <i_epik_Tot_abs_Q>
0

> <r_epik_Metal_State_Penalty>
-0

> <b_epik_Metal_Only>
0

> <s_epik_Chemistry_Notes>
This compound contains an acetal/aminal-like group ( X-CH(R)-Y where X, Y are N, S, or O) that may be acid/base labile, releasing an aldehyde.

> <s_lp_Force_Field>
OPLS_2005

> <r_lp_Energy>
56.6736

> <b_lp_Chiralities_Consistent>
1

> <s_lp_Variant>
AV-unprocessed.smi:283-25

> <Gold.Version>
5.8.1

> <Gold.Id.Protein>
6NUR|6NUR_protein|mol2

> <Gold.PLP.Fitness>
51.7845

> <Gold.PLP.PLP>
-40.0437

> <Gold.PLP.part.hbond>
-6.5121

> <Gold.PLP.part.metal>
0.0000

> <Gold.PLP.part.buried>
-0.5579

> <Gold.PLP.part.nonpolar>
-34.0316

> <Gold.PLP.part.repulsive>
1.0261

> <Gold.PLP.ligand.clash>
0.0000

> <Gold.PLP.ligand.torsion>
0.7513

> <Gold.PLP.Chemscore.Hbond>
4.1125

> <Gold.PLP.Chemscore.CHOScore>
0.2825

> <Gold.PLP.Chemscore.Metal>
0.0000

> <Gold.Chemscore.Hbonds>
donor molecule, donor type, donor heavy atom, donor atom, acceptor molecule, acceptor atom, score
      L1  H     3    37       P1  8028  0.88
      L1  H    17    42       P1 10171  0.49
      L1  H    19    43       P1 10175  1.00
      L1  H    21    44       P1 10175  1.00
      P1  H  8011  8017       L1     5  0.12
      L1  C     6    38       P1  7957  0.39

> <Gold.PLP.Chemscore.Internal.Correction>
0.0583

> <Gold.Rescore>
     Score         DG    S(hbond)    S(metal)    S(lipo)     H(rot)  DE(clash)    DE(int)     intcor
     12.84     -15.01       2.95        0.00      86.95       4.10       0.79       1.38       ----

> <Gold.Chemscore.Fitness>
12.8352

> <Gold.Chemscore.DG>
-15.0072

> <Gold.Chemscore.ZeroCoef>
-5.4800

> <Gold.Chemscore.Hbond>
2.9468

> <Gold.Chemscore.Metal>
0.0000

> <Gold.Chemscore.Lipo>
86.9480

> <Gold.Chemscore.Internal_Hbond>
0.0000

> <Gold.Chemscore.DEClash>
0.7940

> <Gold.Chemscore.DEInternal>
1.3780

> <Gold.Chemscore.Rot>
4.0968

> <Gold.Chemscore.Internal.Correction>
   9.000000E+99

> <Gold.Chemscore.Hbonds>
donor molecule, donor type, donor heavy atom, donor atom, acceptor molecule, acceptor atom, score
      L1  H     3    37       P1  8028  0.82
      L1  H    17    42       P1 10171  0.48
      L1  H    19    43       P1 10175  0.97
      L1  H    21    44       P1 10175  1.00
      P1  H  8011  8017       L1     5  0.03

> <Gold.Chemscore.Hbond.Weighted>
-9.8422

> <Gold.Chemscore.Metal.Weighted>
-0.0000

> <Gold.Chemscore.Lipo.Weighted>
-10.1729

> <Gold.Chemscore.Internal_Hbond.Weighted>
0.0000

> <Gold.Chemscore.DEClash.Weighted>
0.7940

> <Gold.Chemscore.DEInternal.Weighted>
1.3780

> <Gold.Chemscore.Rot.Weighted>
10.4879

> <Gold.Chemscore.Internal.Correction.Weighted>
   9.000000E+99

> <Gold.Protein.RotatedTorsions>
[ 6907 6896 6895 6894 ] final  -41.65 input  -60.11 | X-H torsion
[ 7974 7965 7964 7962 ] final -107.79 input  175.53 | X-H torsion
[ 8008 7997 7996 7995 ] final  -86.80 input   59.86 | X-H torsion
[ 10167 10162 10161 10158 ] final   68.38 input  -65.29 | X-H torsion
[ 10718 10713 10712 10709 ] final  138.88 input   66.30 | X-H torsion
[ 10763 10752 10751 10750 ] final   43.35 input  -60.55 | X-H torsion
[ 11005 11000 10999 10996 ] final  -39.85 input  -57.11 | X-H torsion

> <Gold.Protein.ActiveResidues>
 VAL166  LYS551  ARG553  GLY616  TRP617  ASP618  TYR619  PRO620  LYS621  CYS622 
 ASP623  PHE694  ASN695  SER759  ASP760  ASP761  ALA762  ILE779  LEU786  VAL792 
 PHE793  MET794  SER795  GLU796  ALA797  LYS798  CYS799  TRP800  GLU811  SER814 

> <Gold.Protein.RotatedAtoms>
  150.9642  134.9026  159.7748 H   0  0  0  0  0  0  0  0  0  0  0  0  # atno 6907 bound_to 6896
  152.5167  134.3630  159.9301 H   0  0  0  0  0  0  0  0  0  0  0  0  # atno 6908 bound_to 6896
  151.3641  133.3838  159.2727 H   0  0  0  0  0  0  0  0  0  0  0  0  # atno 6909 bound_to 6896
  145.2010  140.9056  143.3370 H   0  0  0  0  0  0  0  0  0  0  0  0  # atno 7974 bound_to 7965
  154.6560  140.0574  157.0009 H   0  0  0  0  0  0  0  0  0  0  0  0  # atno 8008 bound_to 7997
  155.1300  140.3255  155.4458 H   0  0  0  0  0  0  0  0  0  0  0  0  # atno 8009 bound_to 7997
  156.2597  140.1982  156.6420 H   0  0  0  0  0  0  0  0  0  0  0  0  # atno 8010 bound_to 7997
  140.0793  144.5085  150.7173 H   0  0  0  0  0  0  0  0  0  0  0  0  # atno 10167 bound_to 10162
  157.4205  131.1038  151.0358 H   0  0  0  0  0  0  0  0  0  0  0  0  # atno 10718 bound_to 10713
  152.9862  135.6104  154.3097 H   0  0  0  0  0  0  0  0  0  0  0  0  # atno 10763 bound_to 10752
  154.2813  135.2777  155.2697 H   0  0  0  0  0  0  0  0  0  0  0  0  # atno 10764 bound_to 10752
  154.5035  135.5860  153.6606 H   0  0  0  0  0  0  0  0  0  0  0  0  # atno 10765 bound_to 10752
  141.0132  133.6898  156.2241 H   0  0  0  0  0  0  0  0  0  0  0  0  # atno 11005 bound_to 11000
  144.9948  139.3654  143.6197 LP  0  0  0  0  0  0  0  0  0  0  0  0  # atno 17320 bound_to 7965
  146.3417  139.9146  142.8775 LP  0  0  0  0  0  0  0  0  0  0  0  0  # atno 17321 bound_to 7965
  140.7086  143.2487  151.4651 LP  0  0  0  0  0  0  0  0  0  0  0  0  # atno 17342 bound_to 10162
  139.5789  144.1755  152.1941 LP  0  0  0  0  0  0  0  0  0  0  0  0  # atno 17343 bound_to 10162
  157.1290  130.6094  149.5524 LP  0  0  0  0  0  0  0  0  0  0  0  0  # atno 17370 bound_to 10713
  155.9879  130.4920  150.7146 LP  0  0  0  0  0  0  0  0  0  0  0  0  # atno 17371 bound_to 10713
  140.6699  134.4878  157.5587 LP  0  0  0  0  0  0  0  0  0  0  0  0  # atno 17394 bound_to 11000
  139.9101  134.8362  156.1558 LP  0  0  0  0  0  0  0  0  0  0  0  0  # atno 17395 bound_to 11000

$$$$
