AV-unprocessed.smi:3163|AV-procd|sdf|12075|dock3
  -GOLD-   2272017503D 1   1.00000     0.00000
 Structure written by MMmdl.
 37 38  0  0  0  0  0  0  0  0  3 V2000
  145.9812  131.9298  149.5112 C   0  0  0  0  0  0  0  0  0  0  0  0
  145.4697  133.2564  149.9135 N   0  3  1  0  0  0  0  0  0  0  0  0
  144.0261  133.2845  150.2463 C   0  0  0  0  0  0  0  0  0  0  0  0
  143.8966  134.0332  151.5781 C   0  0  0  0  0  0  0  0  0  0  0  0
  145.2019  134.8215  151.6996 C   0  0  1  0  0  0  0  0  0  0  0  0
  145.5924  135.2316  153.1327 C   0  0  0  0  0  0  0  0  0  0  0  0
  146.6451  136.2438  153.1468 N   0  0  0  0  0  0  0  0  0  0  0  0
  146.5100  137.4993  153.5992 C   0  0  0  0  0  0  0  0  0  0  0  0
  145.4538  137.9510  154.0405 O   0  0  0  0  0  0  0  0  0  0  0  0
  147.6598  138.1865  153.4829 N   0  0  0  0  0  0  0  0  0  0  0  0
  147.9318  139.5301  153.8613 C   0  0  0  0  0  0  0  0  0  0  0  0
  149.2152  139.8167  154.3776 C   0  0  0  0  0  0  0  0  0  0  0  0
  149.5259  141.1314  154.7813 C   0  0  0  0  0  0  0  0  0  0  0  0
  148.5943  142.1035  154.6810 N   0  3  0  0  0  0  0  0  0  0  0  0
  147.3504  141.8758  154.2074 C   0  0  0  0  0  0  0  0  0  0  0  0
  146.9817  140.5810  153.7887 C   0  0  0  0  0  0  0  0  0  0  0  0
  146.2034  133.8745  151.0372 C   0  0  0  0  0  0  0  0  0  0  0  0
  145.8790  131.2066  150.3215 H   0  0  0  0  0  0  0  0  0  0  0  0
  147.0351  131.9949  149.2389 H   0  0  0  0  0  0  0  0  0  0  0  0
  145.4319  131.5561  148.6466 H   0  0  0  0  0  0  0  0  0  0  0  0
  143.5002  133.8143  149.4514 H   0  0  0  0  0  0  0  0  0  0  0  0
  143.5943  132.2849  150.3182 H   0  0  0  0  0  0  0  0  0  0  0  0
  143.0120  134.6701  151.6161 H   0  0  0  0  0  0  0  0  0  0  0  0
  143.8215  133.3110  152.3925 H   0  0  0  0  0  0  0  0  0  0  0  0
  145.1216  135.7179  151.0819 H   0  0  0  0  0  0  0  0  0  0  0  0
  144.7170  135.5737  153.6878 H   0  0  0  0  0  0  0  0  0  0  0  0
  145.9676  134.3599  153.6694 H   0  0  0  0  0  0  0  0  0  0  0  0
  147.5489  135.9599  152.7973 H   0  0  0  0  0  0  0  0  0  0  0  0
  148.4184  137.7047  153.0228 H   0  0  0  0  0  0  0  0  0  0  0  0
  149.9611  139.0392  154.4604 H   0  0  0  0  0  0  0  0  0  0  0  0
  150.4838  141.4318  155.1806 H   0  0  0  0  0  0  0  0  0  0  0  0
  146.6883  142.7290  154.1833 H   0  0  0  0  0  0  0  0  0  0  0  0
  145.9756  140.4195  153.4334 H   0  0  0  0  0  0  0  0  0  0  0  0
  146.5084  133.1022  151.7461 H   0  0  0  0  0  0  0  0  0  0  0  0
  147.1019  134.3875  150.6928 H   0  0  0  0  0  0  0  0  0  0  0  0
  145.5853  133.8741  149.1227 H   0  0  0  0  0  0  0  0  0  0  0  0
  148.8388  143.0481  154.9797 H   0  0  0  0  0  0  0  0  0  0  0  0
  1  2  1  0  0  0  0
  1 18  1  0  0  0  0
  1 19  1  0  0  0  0
  1 20  1  0  0  0  0
  2 17  1  0  0  0  0
  2  3  1  0  0  0  0
  2 36  1  0  0  0  0
  3  4  1  0  0  0  0
  3 21  1  0  0  0  0
  3 22  1  0  0  0  0
  4  5  1  0  0  0  0
  4 23  1  0  0  0  0
  4 24  1  0  0  0  0
  5  6  1  0  0  0  0
  5 17  1  0  0  0  0
  5 25  1  0  0  0  0
  6  7  1  0  0  0  0
  6 26  1  0  0  0  0
  6 27  1  0  0  0  0
  7  8  1  0  0  0  0
  7 28  1  0  0  0  0
  8  9  2  0  0  0  0
  8 10  1  0  0  0  0
 10 11  1  0  0  0  0
 10 29  1  0  0  0  0
 11 16  1  0  0  0  0
 11 12  2  0  0  0  0
 12 13  1  0  0  0  0
 12 30  1  0  0  0  0
 13 14  2  0  0  0  0
 13 31  1  0  0  0  0
 14 15  1  0  0  0  0
 14 37  1  0  0  0  0
 15 16  2  0  0  0  0
 15 32  1  0  0  0  0
 16 33  1  0  0  0  0
 17 34  1  0  0  0  0
 17 35  1  0  0  0  0
M  CHG  1   2   1
M  CHG  1  14   1
M  END
> <s_m_source_file>
AV-unprocessed.smi

> <i_m_source_file_index>
3163

> <i_lp_mmshare_version>
43012

> <i_f3d_flags>
0

> <s_epik_input>
W0NIM11OMVtDSDJdW0NIMl1bQ0BIXShbQ0gyXTEpW0NIMl1bTkhdQyg9TylbTkhdYzJbY0hdW2NIXW5bY0hdW2NIXTI=

> <s_epik_cmdline>
J2VwaWtfcHl0aG9uJywgJy1waCcsICc3LjAnLCAnLXRuJywgJzgnLCAnLW1hJywgJzIwMCcsICctbWV0YWxfYmluZGluZycsICctaW1hZScsICc8aW5maWxlLm1hZT4nLCAnLW9tYWUnLCAnPG91dGZpbGUubWFlPic=

> <r_epik_Ionization_Penalty>
1.09034

> <r_epik_Ionization_Penalty_Charging>
1.09032

> <r_epik_Ionization_Penalty_Neutral>
1.86664e-05

> <r_epik_State_Penalty>
1.14521

> <r_epik_Charging_Adjusted_Penalty>
2.23553

> <i_epik_Tot_Q>
2

> <i_epik_Tot_abs_Q>
2

> <r_epik_Metal_State_Penalty>
1.23399

> <b_epik_Metal_Only>
0

> <s_lp_Force_Field>
OPLS_2005

> <r_lp_Energy>
38.8173

> <b_lp_Chiralities_Consistent>
1

> <s_lp_Variant>
AV-unprocessed.smi:3163-5

> <Gold.Version>
5.8.1

> <Gold.Id.Protein>
6NUR|6NUR_protein|mol2

> <Gold.PLP.Fitness>
45.5956

> <Gold.PLP.PLP>
-31.4702

> <Gold.PLP.part.hbond>
-4.0000

> <Gold.PLP.part.metal>
0.0000

> <Gold.PLP.part.buried>
-3.0662

> <Gold.PLP.part.nonpolar>
-24.7385

> <Gold.PLP.part.repulsive>
0.5588

> <Gold.PLP.ligand.clash>
0.0000

> <Gold.PLP.ligand.torsion>
0.3805

> <Gold.PLP.Chemscore.Hbond>
4.9600

> <Gold.PLP.Chemscore.CHOScore>
0.0000

> <Gold.PLP.Chemscore.Metal>
0.0000

> <Gold.Chemscore.Hbonds>
donor molecule, donor type, donor heavy atom, donor atom, acceptor molecule, acceptor atom, score
      L1  H     2    36       P1  7921  1.00
      L1  H     7    28       P1  7948  1.00
      L1  H    10    29       P1  7948  0.96
      L1  H    14    37       P1  8028  2.00

> <Gold.PLP.Chemscore.Internal.Correction>
0.0065

> <Gold.Rescore>
     Score         DG    S(hbond)    S(metal)    S(lipo)     H(rot)  DE(clash)    DE(int)     intcor
     22.20     -23.38       3.75        0.00      73.75       1.27       0.06       1.12       ----

> <Gold.Chemscore.Fitness>
22.2015

> <Gold.Chemscore.DG>
-23.3795

> <Gold.Chemscore.ZeroCoef>
-5.4800

> <Gold.Chemscore.Hbond>
3.7506

> <Gold.Chemscore.Metal>
0.0000

> <Gold.Chemscore.Lipo>
73.7516

> <Gold.Chemscore.Internal_Hbond>
0.0000

> <Gold.Chemscore.DEClash>
0.0602

> <Gold.Chemscore.DEInternal>
1.1177

> <Gold.Chemscore.Rot>
1.2721

> <Gold.Chemscore.Internal.Correction>
   9.000000E+99

> <Gold.Chemscore.Hbonds>
donor molecule, donor type, donor heavy atom, donor atom, acceptor molecule, acceptor atom, score
      L1  H     2    36       P1  7921  0.55
      L1  H     7    28       P1  7948  0.96
      L1  H    10    29       P1  7948  0.92
      L1  H    14    37       P1  8028  1.00

> <Gold.Chemscore.Hbond.Weighted>
-12.5270

> <Gold.Chemscore.Metal.Weighted>
-0.0000

> <Gold.Chemscore.Lipo.Weighted>
-8.6289

> <Gold.Chemscore.Internal_Hbond.Weighted>
0.0000

> <Gold.Chemscore.DEClash.Weighted>
0.0602

> <Gold.Chemscore.DEInternal.Weighted>
1.1177

> <Gold.Chemscore.Rot.Weighted>
3.2565

> <Gold.Chemscore.Internal.Correction.Weighted>
   9.000000E+99

> <Gold.Protein.RotatedTorsions>
[ 6907 6896 6895 6894 ] final  -56.81 input  -60.11 | X-H torsion
[ 7974 7965 7964 7962 ] final -155.64 input  175.53 | X-H torsion
[ 8008 7997 7996 7995 ] final  104.91 input   59.86 | X-H torsion
[ 10167 10162 10161 10158 ] final  -97.06 input  -65.29 | X-H torsion
[ 10718 10713 10712 10709 ] final   38.11 input   66.30 | X-H torsion
[ 10763 10752 10751 10750 ] final   11.16 input  -60.55 | X-H torsion
[ 11005 11000 10999 10996 ] final   61.22 input  -57.11 | X-H torsion

> <Gold.Protein.ActiveResidues>
 VAL166  LYS551  ARG553  GLY616  TRP617  ASP618  TYR619  PRO620  LYS621  CYS622 
 ASP623  PHE694  ASN695  SER759  ASP760  ASP761  ALA762  ILE779  LEU786  VAL792 
 PHE793  MET794  SER795  GLU796  ALA797  LYS798  CYS799  TRP800  GLU811  SER814 

> <Gold.Protein.RotatedAtoms>
  150.8137  134.7306  159.6710 H   0  0  0  0  0  0  0  0  0  0  0  0  # atno 6907 bound_to 6896
  152.4256  134.5871  159.9973 H   0  0  0  0  0  0  0  0  0  0  0  0  # atno 6908 bound_to 6896
  151.6073  133.3313  159.3096 H   0  0  0  0  0  0  0  0  0  0  0  0  # atno 6909 bound_to 6896
  144.7630  140.4221  143.5962 H   0  0  0  0  0  0  0  0  0  0  0  0  # atno 7974 bound_to 7965
  156.1613  140.3139  155.8813 H   0  0  0  0  0  0  0  0  0  0  0  0  # atno 8008 bound_to 7997
  155.3775  140.0486  157.3061 H   0  0  0  0  0  0  0  0  0  0  0  0  # atno 8009 bound_to 7997
  154.5150  140.2178  155.9095 H   0  0  0  0  0  0  0  0  0  0  0  0  # atno 8010 bound_to 7997
  140.2874  143.3243  152.0381 H   0  0  0  0  0  0  0  0  0  0  0  0  # atno 10167 bound_to 10162
  157.3549  130.7618  149.7005 H   0  0  0  0  0  0  0  0  0  0  0  0  # atno 10718 bound_to 10713
  153.1955  135.6848  153.8297 H   0  0  0  0  0  0  0  0  0  0  0  0  # atno 10763 bound_to 10752
  153.7582  135.3214  155.3333 H   0  0  0  0  0  0  0  0  0  0  0  0  # atno 10764 bound_to 10752
  154.8142  135.4697  154.0698 H   0  0  0  0  0  0  0  0  0  0  0  0  # atno 10765 bound_to 10752
  140.0177  134.6200  155.9686 H   0  0  0  0  0  0  0  0  0  0  0  0  # atno 11005 bound_to 11000
  145.6557  139.1572  143.2836 LP  0  0  0  0  0  0  0  0  0  0  0  0  # atno 17320 bound_to 7965
  146.1712  140.6642  142.9232 LP  0  0  0  0  0  0  0  0  0  0  0  0  # atno 17321 bound_to 7965
  139.4947  144.6549  151.6594 LP  0  0  0  0  0  0  0  0  0  0  0  0  # atno 17342 bound_to 10162
  140.5761  144.0026  150.6242 LP  0  0  0  0  0  0  0  0  0  0  0  0  # atno 17343 bound_to 10162
  155.9727  130.4130  150.4061 LP  0  0  0  0  0  0  0  0  0  0  0  0  # atno 17370 bound_to 10713
  157.2129  131.0464  151.2589 LP  0  0  0  0  0  0  0  0  0  0  0  0  # atno 17371 bound_to 10713
  141.1753  133.6540  156.4806 LP  0  0  0  0  0  0  0  0  0  0  0  0  # atno 17394 bound_to 11000
  140.4442  134.6987  157.5007 LP  0  0  0  0  0  0  0  0  0  0  0  0  # atno 17395 bound_to 11000

$$$$
