AV-unprocessed.smi:793|AV-procd|sdf|3753|dock6
  -GOLD-   22720 1183D 1   1.00000     0.00000
 Structure written by MMmdl.
 39 40  0  0  0  0  0  0  0  0  1 V2000
  147.9020  140.3841  153.2982 C   0  0  0  0  0  0  0  0  0  0  0  0
  148.9692  141.2602  153.9662 C   0  0  0  0  0  0  0  0  0  0  0  0
  149.6726  140.5516  155.1390 C   0  0  1  0  0  0  0  0  0  0  0  0
  150.9614  140.1370  154.6883 O   0  0  0  0  0  0  0  0  0  0  0  0
  151.0763  138.7823  154.2570 C   0  0  0  0  0  0  0  0  0  0  0  0
  150.4248  137.8474  155.2824 C   0  0  0  0  0  0  0  0  0  0  0  0
  151.4715  137.6414  156.3857 C   0  0  0  0  0  0  0  0  0  0  0  0
  152.8165  138.0959  155.8001 C   0  0  0  0  0  0  0  0  0  0  0  0
  152.5533  138.3956  154.3221 C   0  0  0  0  0  0  0  0  0  0  0  0
  149.8065  141.4793  156.3584 C   0  0  0  0  0  0  0  0  0  0  0  0
  148.7943  141.9671  156.8604 O   0  0  0  0  0  0  0  0  0  0  0  0
  151.0670  141.6942  156.7836 N   0  0  0  0  0  0  0  0  0  0  0  0
  151.5317  142.4965  157.8386 C   0  0  0  0  0  0  0  0  0  0  0  0
  151.1525  143.7752  158.0941 C   0  0  0  0  0  0  0  0  0  0  0  0
  151.6428  144.5298  159.1505 N   0  0  0  0  0  0  0  0  0  0  0  0
  152.5746  143.9624  160.0045 C   0  0  0  0  0  0  0  0  0  0  0  0
  153.0373  142.7051  159.8611 C   0  0  0  0  0  0  0  0  0  0  0  0
  152.5380  141.8728  158.7435 C   0  0  0  0  0  0  0  0  0  0  0  0
  152.9432  140.7219  158.5804 O   0  0  0  0  0  0  0  0  0  0  0  0
  147.4160  140.9198  152.4826 H   0  0  0  0  0  0  0  0  0  0  0  0
  147.1304  140.0913  154.0106 H   0  0  0  0  0  0  0  0  0  0  0  0
  148.3390  139.4747  152.8846 H   0  0  0  0  0  0  0  0  0  0  0  0
  149.7029  141.5645  153.2183 H   0  0  0  0  0  0  0  0  0  0  0  0
  148.4945  142.1763  154.3208 H   0  0  0  0  0  0  0  0  0  0  0  0
  149.0838  139.6732  155.4112 H   0  0  0  0  0  0  0  0  0  0  0  0
  150.6800  138.6356  153.2507 H   0  0  0  0  0  0  0  0  0  0  0  0
  149.4804  138.2277  155.6716 H   0  0  0  0  0  0  0  0  0  0  0  0
  150.2140  136.8886  154.8070 H   0  0  0  0  0  0  0  0  0  0  0  0
  151.2259  138.2392  157.2641 H   0  0  0  0  0  0  0  0  0  0  0  0
  151.5032  136.5977  156.7004 H   0  0  0  0  0  0  0  0  0  0  0  0
  153.1436  139.0056  156.3052 H   0  0  0  0  0  0  0  0  0  0  0  0
  153.6002  137.3497  155.9316 H   0  0  0  0  0  0  0  0  0  0  0  0
  152.7169  137.4911  153.7347 H   0  0  0  0  0  0  0  0  0  0  0  0
  153.2111  139.1692  153.9247 H   0  0  0  0  0  0  0  0  0  0  0  0
  151.7939  141.2069  156.2796 H   0  0  0  0  0  0  0  0  0  0  0  0
  150.4406  144.3257  157.5012 H   0  0  0  0  0  0  0  0  0  0  0  0
  152.9014  144.6162  160.7999 H   0  0  0  0  0  0  0  0  0  0  0  0
  153.7644  142.2899  160.5434 H   0  0  0  0  0  0  0  0  0  0  0  0
  151.3244  145.4780  159.2938 H   0  0  0  0  0  0  0  0  0  0  0  0
  1  2  1  0  0  0  0
  1 20  1  0  0  0  0
  1 21  1  0  0  0  0
  1 22  1  0  0  0  0
  2  3  1  0  0  0  0
  2 23  1  0  0  0  0
  2 24  1  0  0  0  0
  3  4  1  0  0  0  0
  3 10  1  0  0  0  0
  3 25  1  0  0  0  0
  4  5  1  0  0  0  0
  5  9  1  0  0  0  0
  5  6  1  0  0  0  0
  5 26  1  0  0  0  0
  6  7  1  0  0  0  0
  6 27  1  0  0  0  0
  6 28  1  0  0  0  0
  7  8  1  0  0  0  0
  7 29  1  0  0  0  0
  7 30  1  0  0  0  0
  8  9  1  0  0  0  0
  8 31  1  0  0  0  0
  8 32  1  0  0  0  0
  9 33  1  0  0  0  0
  9 34  1  0  0  0  0
 10 11  2  0  0  0  0
 10 12  1  0  0  0  0
 12 35  1  0  0  0  0
 12 13  1  0  0  0  0
 13 18  1  0  0  0  0
 13 14  2  0  0  0  0
 14 36  1  0  0  0  0
 14 15  1  0  0  0  0
 15 39  1  0  0  0  0
 15 16  1  0  0  0  0
 16 37  1  0  0  0  0
 16 17  2  0  0  0  0
 17 18  1  0  0  0  0
 17 38  1  0  0  0  0
 18 19  2  0  0  0  0
M  END
> <s_m_source_file>
AV-unprocessed.smi

> <i_m_source_file_index>
793

> <i_lp_mmshare_version>
43012

> <i_f3d_flags>
0

> <s_epik_input>
W0NIMl0xW0NIMl1bQ0gyXVtDSDJdW0NIXTFPW0NAQEhdKFtDSDJdW0NIM10pQyg9TylbTkhdYzJbY0hdbltjSF1bY0hdYzJbT0hd

> <s_epik_cmdline>
J2VwaWtfcHl0aG9uJywgJy1waCcsICc3LjAnLCAnLXRuJywgJzgnLCAnLW1hJywgJzIwMCcsICctbWV0YWxfYmluZGluZycsICctaW1hZScsICc8aW5maWxlLm1hZT4nLCAnLW9tYWUnLCAnPG91dGZpbGUubWFlPic=

> <r_lp_tautomer_probability>
1

> <r_epik_Ionization_Penalty>
0.000234492

> <r_epik_Ionization_Penalty_Charging>
0.000234447

> <r_epik_Ionization_Penalty_Neutral>
4.48517e-08

> <r_epik_State_Penalty>
-0

> <r_epik_Charging_Adjusted_Penalty>
0.000234447

> <i_epik_Tot_Q>
0

> <i_epik_Tot_abs_Q>
0

> <r_epik_Metal_State_Penalty>
0.110344

> <b_epik_Metal_Only>
0

> <s_lp_Force_Field>
OPLS_2005

> <r_lp_Energy>
26.0672

> <b_lp_Chiralities_Consistent>
1

> <s_lp_Variant>
AV-unprocessed.smi:793-2

> <Gold.Version>
5.8.1

> <Gold.Id.Protein>
6NUR|6NUR_protein|mol2

> <Gold.PLP.Fitness>
37.6692

> <Gold.PLP.PLP>
-34.9654

> <Gold.PLP.part.hbond>
-1.0319

> <Gold.PLP.part.metal>
0.0000

> <Gold.PLP.part.buried>
-5.9727

> <Gold.PLP.part.nonpolar>
-29.1183

> <Gold.PLP.part.repulsive>
0.8272

> <Gold.PLP.ligand.clash>
0.0000

> <Gold.PLP.ligand.torsion>
1.7054

> <Gold.PLP.Chemscore.Hbond>
1.0000

> <Gold.PLP.Chemscore.CHOScore>
1.0000

> <Gold.PLP.Chemscore.Metal>
0.0000

> <Gold.Chemscore.Hbonds>
donor molecule, donor type, donor heavy atom, donor atom, acceptor molecule, acceptor atom, score
      P1  H  7989  7998       L1     4  1.00
      L1  C    14    36       P1  8028  1.00

> <Gold.PLP.Chemscore.Internal.Correction>
0.1146

> <Gold.Rescore>
     Score         DG    S(hbond)    S(metal)    S(lipo)     H(rot)  DE(clash)    DE(int)     intcor
     12.74     -14.02       0.45        0.00      95.42       1.61       0.08       1.20       ----

> <Gold.Chemscore.Fitness>
12.7372

> <Gold.Chemscore.DG>
-14.0193

> <Gold.Chemscore.ZeroCoef>
-5.4800

> <Gold.Chemscore.Hbond>
0.4453

> <Gold.Chemscore.Metal>
0.0000

> <Gold.Chemscore.Lipo>
95.4153

> <Gold.Chemscore.Internal_Hbond>
0.0000

> <Gold.Chemscore.DEClash>
0.0789

> <Gold.Chemscore.DEInternal>
1.2032

> <Gold.Chemscore.Rot>
1.6061

> <Gold.Chemscore.Internal.Correction>
   9.000000E+99

> <Gold.Chemscore.Hbonds>
donor molecule, donor type, donor heavy atom, donor atom, acceptor molecule, acceptor atom, score
      P1  H  7989  7998       L1     4  0.28

> <Gold.Chemscore.Hbond.Weighted>
-1.4873

> <Gold.Chemscore.Metal.Weighted>
-0.0000

> <Gold.Chemscore.Lipo.Weighted>
-11.1636

> <Gold.Chemscore.Internal_Hbond.Weighted>
0.0000

> <Gold.Chemscore.DEClash.Weighted>
0.0789

> <Gold.Chemscore.DEInternal.Weighted>
1.2032

> <Gold.Chemscore.Rot.Weighted>
4.1116

> <Gold.Chemscore.Internal.Correction.Weighted>
   9.000000E+99

> <Gold.Protein.RotatedTorsions>
[ 6907 6896 6895 6894 ] final   -0.94 input  -60.11 | X-H torsion
[ 7974 7965 7964 7962 ] final   18.83 input  175.53 | X-H torsion
[ 8008 7997 7996 7995 ] final  -55.10 input   59.86 | X-H torsion
[ 10167 10162 10161 10158 ] final  141.48 input  -65.29 | X-H torsion
[ 10718 10713 10712 10709 ] final -173.34 input   66.30 | X-H torsion
[ 10763 10752 10751 10750 ] final -163.92 input  -60.55 | X-H torsion
[ 11005 11000 10999 10996 ] final  -28.78 input  -57.11 | X-H torsion

> <Gold.Protein.ActiveResidues>
 VAL166  LYS551  ARG553  GLY616  TRP617  ASP618  TYR619  PRO620  LYS621  CYS622 
 ASP623  PHE694  ASN695  SER759  ASP760  ASP761  ALA762  ILE779  LEU786  VAL792 
 PHE793  MET794  SER795  GLU796  ALA797  LYS798  CYS799  TRP800  GLU811  SER814 

> <Gold.Protein.RotatedAtoms>
  151.5540  135.1067  159.9956 H   0  0  0  0  0  0  0  0  0  0  0  0  # atno 6907 bound_to 6896
  152.4478  133.7565  159.6734 H   0  0  0  0  0  0  0  0  0  0  0  0  # atno 6908 bound_to 6896
  150.8398  133.7887  159.3089 H   0  0  0  0  0  0  0  0  0  0  0  0  # atno 6909 bound_to 6896
  146.2171  139.8401  142.8643 H   0  0  0  0  0  0  0  0  0  0  0  0  # atno 7974 bound_to 7965
  154.4184  140.1161  156.5422 H   0  0  0  0  0  0  0  0  0  0  0  0  # atno 8008 bound_to 7997
  155.6496  140.3496  155.4724 H   0  0  0  0  0  0  0  0  0  0  0  0  # atno 8009 bound_to 7997
  155.9803  140.1159  157.0722 H   0  0  0  0  0  0  0  0  0  0  0  0  # atno 8010 bound_to 7997
  139.5019  144.6169  151.6143 H   0  0  0  0  0  0  0  0  0  0  0  0  # atno 10167 bound_to 10162
  156.7689  130.9441  151.3119 H   0  0  0  0  0  0  0  0  0  0  0  0  # atno 10718 bound_to 10713
  154.7077  135.3000  154.9245 H   0  0  0  0  0  0  0  0  0  0  0  0  # atno 10763 bound_to 10752
  154.0157  135.6689  153.4772 H   0  0  0  0  0  0  0  0  0  0  0  0  # atno 10764 bound_to 10752
  153.0730  135.5050  154.8257 H   0  0  0  0  0  0  0  0  0  0  0  0  # atno 10765 bound_to 10752
  140.9238  133.7382  156.0839 H   0  0  0  0  0  0  0  0  0  0  0  0  # atno 11005 bound_to 11000
  145.2908  141.0166  143.3664 LP  0  0  0  0  0  0  0  0  0  0  0  0  # atno 17320 bound_to 7965
  144.9079  139.4566  143.6601 LP  0  0  0  0  0  0  0  0  0  0  0  0  # atno 17321 bound_to 7965
  140.5859  143.9865  150.6295 LP  0  0  0  0  0  0  0  0  0  0  0  0  # atno 17342 bound_to 10162
  140.3029  143.3248  152.0954 LP  0  0  0  0  0  0  0  0  0  0  0  0  # atno 17343 bound_to 10162
  157.6700  130.9042  150.0019 LP  0  0  0  0  0  0  0  0  0  0  0  0  # atno 17370 bound_to 10713
  156.1291  130.3644  149.9761 LP  0  0  0  0  0  0  0  0  0  0  0  0  # atno 17371 bound_to 10713
  140.7953  134.3571  157.5454 LP  0  0  0  0  0  0  0  0  0  0  0  0  # atno 17394 bound_to 11000
  139.8781  134.9165  156.3155 LP  0  0  0  0  0  0  0  0  0  0  0  0  # atno 17395 bound_to 11000

$$$$
