AV-unprocessed.smi:1217|AV-procd|sdf|5102|dock9
  -GOLD-   22720 4153D 1   1.00000     0.00000
 Structure written by MMmdl.
 34 35  0  0  0  0  0  0  0  0  1 V2000
  145.6205  138.4570  154.6467 C   0  0  0  0  0  0  0  0  0  0  0  0
  146.1669  138.7013  153.2317 C   0  0  2  0  0  0  0  0  0  0  0  0
  146.5338  137.4135  152.6462 N   0  0  0  0  0  0  0  0  0  0  0  0
  145.6792  136.4356  152.3098 C   0  0  0  0  0  0  0  0  0  0  0  0
  144.4597  136.5132  152.4620 O   0  0  0  0  0  0  0  0  0  0  0  0
  146.3306  135.3819  151.7870 N   0  0  0  0  0  0  0  0  0  0  0  0
  145.7904  134.1397  151.3593 C   0  0  0  0  0  0  0  0  0  0  0  0
  144.4177  134.1677  151.0240 C   0  0  0  0  0  0  0  0  0  0  0  0
  143.7879  132.9881  150.5820 C   0  0  0  0  0  0  0  0  0  0  0  0
  144.5486  131.8095  150.4836 C   0  0  0  0  0  0  0  0  0  0  0  0
  145.9096  131.8677  150.8357 C   0  0  0  0  0  0  0  0  0  0  0  0
  146.5148  132.9969  151.2608 N   0  0  0  0  0  0  0  0  0  0  0  0
  147.3885  139.6427  153.2317 C   0  0  2  0  0  0  0  0  0  0  0  0
  148.5632  139.1669  154.0890 C   0  0  0  0  0  0  0  0  0  0  0  0
  149.2842  140.4524  154.4672 C   0  0  0  0  0  0  0  0  0  0  0  0
  148.2983  141.5596  154.0875 C   0  0  0  0  0  0  0  0  0  0  0  0
  147.0732  140.8871  153.8377 O   0  0  0  0  0  0  0  0  0  0  0  0
  145.2873  139.3855  155.1104 H   0  0  0  0  0  0  0  0  0  0  0  0
  146.3780  138.0148  155.2948 H   0  0  0  0  0  0  0  0  0  0  0  0
  144.7651  137.7809  154.6245 H   0  0  0  0  0  0  0  0  0  0  0  0
  145.3692  139.1606  152.6451 H   0  0  0  0  0  0  0  0  0  0  0  0
  147.5170  137.2594  152.4789 H   0  0  0  0  0  0  0  0  0  0  0  0
  147.3314  135.4736  151.6968 H   0  0  0  0  0  0  0  0  0  0  0  0
  143.8485  135.0824  151.1040 H   0  0  0  0  0  0  0  0  0  0  0  0
  142.7397  132.9888  150.3223 H   0  0  0  0  0  0  0  0  0  0  0  0
  144.1015  130.8859  150.1472 H   0  0  0  0  0  0  0  0  0  0  0  0
  146.5292  130.9854  150.7734 H   0  0  0  0  0  0  0  0  0  0  0  0
  147.7273  139.8266  152.2101 H   0  0  0  0  0  0  0  0  0  0  0  0
  148.1972  138.6784  154.9932 H   0  0  0  0  0  0  0  0  0  0  0  0
  149.2070  138.4607  153.5639 H   0  0  0  0  0  0  0  0  0  0  0  0
  149.5113  140.4676  155.5336 H   0  0  0  0  0  0  0  0  0  0  0  0
  150.2218  140.5654  153.9220 H   0  0  0  0  0  0  0  0  0  0  0  0
  148.1852  142.3091  154.8712 H   0  0  0  0  0  0  0  0  0  0  0  0
  148.6212  142.0653  153.1763 H   0  0  0  0  0  0  0  0  0  0  0  0
  1  2  1  0  0  0  0
  1 18  1  0  0  0  0
  1 19  1  0  0  0  0
  1 20  1  0  0  0  0
  2  3  1  0  0  0  0
  2 13  1  0  0  0  0
  2 21  1  0  0  0  0
  3  4  1  0  0  0  0
  3 22  1  0  0  0  0
  4  5  2  0  0  0  0
  4  6  1  0  0  0  0
  6  7  1  0  0  0  0
  6 23  1  0  0  0  0
  7 12  1  0  0  0  0
  7  8  2  0  0  0  0
  8  9  1  0  0  0  0
  8 24  1  0  0  0  0
  9 10  2  0  0  0  0
  9 25  1  0  0  0  0
 10 11  1  0  0  0  0
 10 26  1  0  0  0  0
 11 12  2  0  0  0  0
 11 27  1  0  0  0  0
 13 17  1  0  0  0  0
 13 14  1  0  0  0  0
 13 28  1  0  0  0  0
 14 15  1  0  0  0  0
 14 29  1  0  0  0  0
 14 30  1  0  0  0  0
 15 16  1  0  0  0  0
 15 31  1  0  0  0  0
 15 32  1  0  0  0  0
 16 17  1  0  0  0  0
 16 33  1  0  0  0  0
 16 34  1  0  0  0  0
M  END
> <s_m_source_file>
AV-unprocessed.smi

> <i_m_source_file_index>
1217

> <i_lp_mmshare_version>
43012

> <i_f3d_flags>
0

> <s_epik_input>
TzFbQ0gyXVtDSDJdW0NIMl1bQ0BIXTFbQ0BIXShbQ0gzXSlbTkhdQyg9TylbTkhdYzJbY0hdW2NIXVtjSF1bY0hdbjI=

> <s_epik_cmdline>
J2VwaWtfcHl0aG9uJywgJy1waCcsICc3LjAnLCAnLXRuJywgJzgnLCAnLW1hJywgJzIwMCcsICctbWV0YWxfYmluZGluZycsICctaW1hZScsICc8aW5maWxlLm1hZT4nLCAnLW9tYWUnLCAnPG91dGZpbGUubWFlPic=

> <r_lp_tautomer_probability>
1

> <r_epik_Ionization_Penalty>
4.51768e-05

> <r_epik_Ionization_Penalty_Charging>
0

> <r_epik_Ionization_Penalty_Neutral>
4.51768e-05

> <r_epik_State_Penalty>
-0

> <r_epik_Charging_Adjusted_Penalty>
0

> <i_epik_Tot_Q>
0

> <i_epik_Tot_abs_Q>
0

> <r_epik_Metal_State_Penalty>
-0

> <b_epik_Metal_Only>
0

> <s_lp_Force_Field>
OPLS_2005

> <r_lp_Energy>
20.7335

> <b_lp_Chiralities_Consistent>
1

> <s_lp_Variant>
AV-unprocessed.smi:1217-1

> <Gold.Version>
5.8.1

> <Gold.Id.Protein>
6NUR|6NUR_protein|mol2

> <Gold.PLP.Fitness>
37.0959

> <Gold.PLP.PLP>
-28.5357

> <Gold.PLP.part.hbond>
-2.0000

> <Gold.PLP.part.metal>
0.0000

> <Gold.PLP.part.buried>
-2.4522

> <Gold.PLP.part.nonpolar>
-24.4081

> <Gold.PLP.part.repulsive>
0.5823

> <Gold.PLP.ligand.clash>
0.0000

> <Gold.PLP.ligand.torsion>
0.1944

> <Gold.PLP.Chemscore.Hbond>
2.0000

> <Gold.PLP.Chemscore.CHOScore>
0.9760

> <Gold.PLP.Chemscore.Metal>
0.0000

> <Gold.Chemscore.Hbonds>
donor molecule, donor type, donor heavy atom, donor atom, acceptor molecule, acceptor atom, score
      L1  H     3    22       P1  7948  1.00
      L1  H     6    23       P1  7948  1.00
      L1  C    11    27       P1 10747  0.97

> <Gold.PLP.Chemscore.Internal.Correction>
0.0210

> <Gold.Rescore>
     Score         DG    S(hbond)    S(metal)    S(lipo)     H(rot)  DE(clash)    DE(int)     intcor
     15.09     -16.75       1.93        0.00      68.64       1.25       0.01       1.65       ----

> <Gold.Chemscore.Fitness>
15.0879

> <Gold.Chemscore.DG>
-16.7472

> <Gold.Chemscore.ZeroCoef>
-5.4800

> <Gold.Chemscore.Hbond>
1.9276

> <Gold.Chemscore.Metal>
0.0000

> <Gold.Chemscore.Lipo>
68.6379

> <Gold.Chemscore.Internal_Hbond>
0.0000

> <Gold.Chemscore.DEClash>
0.0134

> <Gold.Chemscore.DEInternal>
1.6458

> <Gold.Chemscore.Rot>
1.2506

> <Gold.Chemscore.Internal.Correction>
   9.000000E+99

> <Gold.Chemscore.Hbonds>
donor molecule, donor type, donor heavy atom, donor atom, acceptor molecule, acceptor atom, score
      L1  H     3    22       P1  7948  0.96
      L1  H     6    23       P1  7948  0.98

> <Gold.Chemscore.Hbond.Weighted>
-6.4382

> <Gold.Chemscore.Metal.Weighted>
-0.0000

> <Gold.Chemscore.Lipo.Weighted>
-8.0306

> <Gold.Chemscore.Internal_Hbond.Weighted>
0.0000

> <Gold.Chemscore.DEClash.Weighted>
0.0134

> <Gold.Chemscore.DEInternal.Weighted>
1.6458

> <Gold.Chemscore.Rot.Weighted>
3.2016

> <Gold.Chemscore.Internal.Correction.Weighted>
   9.000000E+99

> <Gold.Protein.RotatedTorsions>
[ 6907 6896 6895 6894 ] final  -31.00 input  -60.11 | X-H torsion
[ 7974 7965 7964 7962 ] final  -90.07 input  175.53 | X-H torsion
[ 8008 7997 7996 7995 ] final -109.69 input   59.86 | X-H torsion
[ 10167 10162 10161 10158 ] final   30.40 input  -65.29 | X-H torsion
[ 10718 10713 10712 10709 ] final   48.03 input   66.30 | X-H torsion
[ 10763 10752 10751 10750 ] final  158.93 input  -60.55 | X-H torsion
[ 11005 11000 10999 10996 ] final  101.81 input  -57.11 | X-H torsion

> <Gold.Protein.ActiveResidues>
 VAL166  LYS551  ARG553  GLY616  TRP617  ASP618  TYR619  PRO620  LYS621  CYS622 
 ASP623  PHE694  ASN695  SER759  ASP760  ASP761  ALA762  ILE779  LEU786  VAL792 
 PHE793  MET794  SER795  GLU796  ALA797  LYS798  CYS799  TRP800  GLU811  SER814 

> <Gold.Protein.RotatedAtoms>
  151.0980  134.9955  159.8434 H   0  0  0  0  0  0  0  0  0  0  0  0  # atno 6907 bound_to 6896
  152.5434  134.1985  159.8712 H   0  0  0  0  0  0  0  0  0  0  0  0  # atno 6908 bound_to 6896
  151.2026  133.4558  159.2630 H   0  0  0  0  0  0  0  0  0  0  0  0  # atno 6909 bound_to 6896
  145.4314  140.9556  143.2126 H   0  0  0  0  0  0  0  0  0  0  0  0  # atno 7974 bound_to 7965
  154.9632  140.0399  157.2200 H   0  0  0  0  0  0  0  0  0  0  0  0  # atno 8008 bound_to 7997
  154.7869  140.2828  155.5998 H   0  0  0  0  0  0  0  0  0  0  0  0  # atno 8009 bound_to 7997
  156.2944  140.2581  156.2708 H   0  0  0  0  0  0  0  0  0  0  0  0  # atno 8010 bound_to 7997
  140.4681  144.0804  150.6230 H   0  0  0  0  0  0  0  0  0  0  0  0  # atno 10167 bound_to 10162
  157.4645  130.8217  149.7922 H   0  0  0  0  0  0  0  0  0  0  0  0  # atno 10718 bound_to 10713
  154.2237  135.2781  155.2915 H   0  0  0  0  0  0  0  0  0  0  0  0  # atno 10763 bound_to 10752
  154.5680  135.5627  153.7072 H   0  0  0  0  0  0  0  0  0  0  0  0  # atno 10764 bound_to 10752
  153.0036  135.6314  154.2378 H   0  0  0  0  0  0  0  0  0  0  0  0  # atno 10765 bound_to 10752
  139.8775  134.9198  156.4963 H   0  0  0  0  0  0  0  0  0  0  0  0  # atno 11005 bound_to 11000
  144.8180  139.5842  143.6999 LP  0  0  0  0  0  0  0  0  0  0  0  0  # atno 17320 bound_to 7965
  146.2605  139.6399  142.9365 LP  0  0  0  0  0  0  0  0  0  0  0  0  # atno 17321 bound_to 7965
  140.4011  143.2703  151.9947 LP  0  0  0  0  0  0  0  0  0  0  0  0  # atno 17342 bound_to 10162
  139.4815  144.5997  151.7628 LP  0  0  0  0  0  0  0  0  0  0  0  0  # atno 17343 bound_to 10162
  156.0044  130.3863  150.2485 LP  0  0  0  0  0  0  0  0  0  0  0  0  # atno 17370 bound_to 10713
  157.0665  131.0104  151.3205 LP  0  0  0  0  0  0  0  0  0  0  0  0  # atno 17371 bound_to 10713
  140.8621  133.8051  155.9276 LP  0  0  0  0  0  0  0  0  0  0  0  0  # atno 17394 bound_to 11000
  140.9038  134.2345  157.5026 LP  0  0  0  0  0  0  0  0  0  0  0  0  # atno 17395 bound_to 11000

$$$$
