AV-unprocessed.smi:315|AV-procd|sdf|2316|dock4
  -GOLD-   2262022223D 1   1.00000     0.00000
 Structure written by MMmdl.
 47 49  0  0  0  0  0  0  0  0  2 V2000
  148.1147  141.2458  155.2016 C   0  0  0  0  0  0  0  0  0  0  0  0
  148.5003  140.6089  153.8642 C   0  0  0  0  0  0  0  0  0  0  0  0
  148.9867  139.2949  154.1151 O   0  0  0  0  0  0  0  0  0  0  0  0
  150.1235  139.1409  154.8859 C   0  0  0  0  0  0  0  0  0  0  0  0
  150.6824  140.2433  155.4442 N   0  0  0  0  0  0  0  0  0  0  0  0
  151.7928  140.0886  156.1947 C   0  0  0  0  0  0  0  0  0  0  0  0
  152.4025  138.8406  156.4208 C   0  0  0  0  0  0  0  0  0  0  0  0
  151.8243  137.6956  155.8417 C   0  0  0  0  0  0  0  0  0  0  0  0
  150.6510  137.8410  155.0627 C   0  0  0  0  0  0  0  0  0  0  0  0
  149.9828  136.7661  154.4166 N   0  0  0  0  0  0  0  0  0  0  0  0
  149.7920  135.5010  154.8362 C   0  0  0  0  0  0  0  0  0  0  0  0
  150.2541  135.0237  155.8695 O   0  0  0  0  0  0  0  0  0  0  0  0
  149.0174  134.7684  154.0161 N   0  0  0  0  0  0  0  0  0  0  0  0
  148.6153  133.3690  154.1745 C   0  0  2  0  0  0  0  0  0  0  0  0
  149.6694  132.4810  154.8588 C   0  0  0  0  0  0  0  0  0  0  0  0
  149.6164  131.1319  154.1151 C   0  0  0  0  0  0  0  0  0  0  0  0
  148.5176  131.2333  153.1275 N   0  3  1  0  0  0  0  0  0  0  0  0
  147.2577  130.6173  153.6272 C   0  0  0  0  0  0  0  0  0  0  0  0
  146.0634  130.9235  152.7144 C   0  0  0  0  0  0  0  0  0  0  0  0
  145.8746  132.4367  152.5822 C   0  0  0  0  0  0  0  0  0  0  0  0
  147.1550  133.0654  152.0218 C   0  0  0  0  0  0  0  0  0  0  0  0
  148.4217  132.6810  152.8196 C   0  0  1  0  0  0  0  0  0  0  0  0
  147.7395  142.2591  155.0563 H   0  0  0  0  0  0  0  0  0  0  0  0
  148.9732  141.2994  155.8714 H   0  0  0  0  0  0  0  0  0  0  0  0
  147.3357  140.6683  155.6997 H   0  0  0  0  0  0  0  0  0  0  0  0
  147.6287  140.5736  153.2088 H   0  0  0  0  0  0  0  0  0  0  0  0
  149.2668  141.2144  153.3780 H   0  0  0  0  0  0  0  0  0  0  0  0
  152.2107  140.9874  156.6230 H   0  0  0  0  0  0  0  0  0  0  0  0
  153.2965  138.7641  157.0218 H   0  0  0  0  0  0  0  0  0  0  0  0
  152.2986  136.7395  155.9968 H   0  0  0  0  0  0  0  0  0  0  0  0
  149.5011  137.0192  153.5665 H   0  0  0  0  0  0  0  0  0  0  0  0
  148.6661  135.2385  153.1940 H   0  0  0  0  0  0  0  0  0  0  0  0
  147.6811  133.3188  154.7364 H   0  0  0  0  0  0  0  0  0  0  0  0
  150.6694  132.9098  154.7758 H   0  0  0  0  0  0  0  0  0  0  0  0
  149.4520  132.3633  155.9211 H   0  0  0  0  0  0  0  0  0  0  0  0
  150.5500  130.9761  153.5733 H   0  0  0  0  0  0  0  0  0  0  0  0
  149.4928  130.2863  154.7936 H   0  0  0  0  0  0  0  0  0  0  0  0
  147.3967  129.5384  153.7041 H   0  0  0  0  0  0  0  0  0  0  0  0
  147.0428  130.9752  154.6356 H   0  0  0  0  0  0  0  0  0  0  0  0
  146.2204  130.4778  151.7312 H   0  0  0  0  0  0  0  0  0  0  0  0
  145.1589  130.4701  153.1211 H   0  0  0  0  0  0  0  0  0  0  0  0
  145.0320  132.6552  151.9257 H   0  0  0  0  0  0  0  0  0  0  0  0
  145.6334  132.8711  153.5530 H   0  0  0  0  0  0  0  0  0  0  0  0
  147.2792  132.7331  150.9903 H   0  0  0  0  0  0  0  0  0  0  0  0
  147.0520  134.1500  151.9759 H   0  0  0  0  0  0  0  0  0  0  0  0
  149.2862  132.9232  152.1975 H   0  0  0  0  0  0  0  0  0  0  0  0
  148.7777  130.7400  152.2853 H   0  0  0  0  0  0  0  0  0  0  0  0
  1  2  1  0  0  0  0
  1 23  1  0  0  0  0
  1 24  1  0  0  0  0
  1 25  1  0  0  0  0
  2  3  1  0  0  0  0
  2 26  1  0  0  0  0
  2 27  1  0  0  0  0
  3  4  1  0  0  0  0
  4  9  1  0  0  0  0
  4  5  2  0  0  0  0
  5  6  1  0  0  0  0
  6  7  2  0  0  0  0
  6 28  1  0  0  0  0
  7  8  1  0  0  0  0
  7 29  1  0  0  0  0
  8  9  2  0  0  0  0
  8 30  1  0  0  0  0
  9 10  1  0  0  0  0
 10 11  1  0  0  0  0
 10 31  1  0  0  0  0
 11 12  2  0  0  0  0
 11 13  1  0  0  0  0
 13 14  1  0  0  0  0
 13 32  1  0  0  0  0
 14 22  1  0  0  0  0
 14 15  1  0  0  0  0
 14 33  1  0  0  0  0
 15 16  1  0  0  0  0
 15 34  1  0  0  0  0
 15 35  1  0  0  0  0
 16 17  1  0  0  0  0
 16 36  1  0  0  0  0
 16 37  1  0  0  0  0
 17 22  1  0  0  0  0
 17 18  1  0  0  0  0
 17 47  1  0  0  0  0
 18 19  1  0  0  0  0
 18 38  1  0  0  0  0
 18 39  1  0  0  0  0
 19 20  1  0  0  0  0
 19 40  1  0  0  0  0
 19 41  1  0  0  0  0
 20 21  1  0  0  0  0
 20 42  1  0  0  0  0
 20 43  1  0  0  0  0
 21 22  1  0  0  0  0
 21 44  1  0  0  0  0
 21 45  1  0  0  0  0
 22 46  1  0  0  0  0
M  CHG  1  17   1
M  END
> <s_m_source_file>
AV-unprocessed.smi

> <i_m_source_file_index>
315

> <i_lp_mmshare_version>
43012

> <i_f3d_flags>
0

> <s_epik_input>
W0NIM11bQ0gyXU9jMW5bY0hdW2NIXVtjSF1jMVtOSF1DKD1PKVtOSF1bQ0BIXShbQ0gyXVtDSDJdMilbQ0BASF0oTjIzKVtDSDJdW0NIMl1bQ0gyXVtDSDJdMw==

> <s_epik_cmdline>
J2VwaWtfcHl0aG9uJywgJy1waCcsICc3LjAnLCAnLXRuJywgJzgnLCAnLW1hJywgJzIwMCcsICctbWV0YWxfYmluZGluZycsICctaW1hZScsICc8aW5maWxlLm1hZT4nLCAnLW9tYWUnLCAnPG91dGZpbGUubWFlPic=

> <r_lp_tautomer_probability>
1

> <r_epik_Ionization_Penalty>
0.00106455

> <r_epik_Ionization_Penalty_Charging>
0.000974069

> <r_epik_Ionization_Penalty_Neutral>
9.04821e-05

> <r_epik_State_Penalty>
0.000633842

> <r_epik_Charging_Adjusted_Penalty>
0.00160791

> <i_epik_Tot_Q>
1

> <i_epik_Tot_abs_Q>
1

> <r_epik_Metal_State_Penalty>
-0

> <b_epik_Metal_Only>
0

> <s_lp_Force_Field>
OPLS_2005

> <r_lp_Energy>
51.3526

> <b_lp_Chiralities_Consistent>
1

> <s_lp_Variant>
AV-unprocessed.smi:315-1

> <Gold.Version>
5.8.1

> <Gold.Id.Protein>
6NUR|6NUR_protein|mol2

> <Gold.PLP.Fitness>
44.0362

> <Gold.PLP.PLP>
-35.0961

> <Gold.PLP.part.hbond>
-4.6304

> <Gold.PLP.part.metal>
0.0000

> <Gold.PLP.part.buried>
0.2412

> <Gold.PLP.part.nonpolar>
-31.5735

> <Gold.PLP.part.repulsive>
1.2835

> <Gold.PLP.ligand.clash>
0.0000

> <Gold.PLP.ligand.torsion>
0.6542

> <Gold.PLP.Chemscore.Hbond>
3.4119

> <Gold.PLP.Chemscore.CHOScore>
0.0000

> <Gold.PLP.Chemscore.Metal>
0.0000

> <Gold.Chemscore.Hbonds>
donor molecule, donor type, donor heavy atom, donor atom, acceptor molecule, acceptor atom, score
      L1  H    10    31       P1  7948  0.78
      L1  H    13    32       P1  7948  0.96
      L1  H    17    47       P1 10747  0.93
      P1  H  7989  7998       L1     5  0.27

> <Gold.PLP.Chemscore.Internal.Correction>
0.0130

> <Gold.Rescore>
     Score         DG    S(hbond)    S(metal)    S(lipo)     H(rot)  DE(clash)    DE(int)     intcor
     16.50     -19.22       2.47        0.00      77.10       1.38       0.07       2.65       ----

> <Gold.Chemscore.Fitness>
16.5015

> <Gold.Chemscore.DG>
-19.2218

> <Gold.Chemscore.ZeroCoef>
-5.4800

> <Gold.Chemscore.Hbond>
2.4688

> <Gold.Chemscore.Metal>
0.0000

> <Gold.Chemscore.Lipo>
77.1043

> <Gold.Chemscore.Internal_Hbond>
0.0000

> <Gold.Chemscore.DEClash>
0.0732

> <Gold.Chemscore.DEInternal>
2.6470

> <Gold.Chemscore.Rot>
1.3770

> <Gold.Chemscore.Internal.Correction>
   9.000000E+99

> <Gold.Chemscore.Hbonds>
donor molecule, donor type, donor heavy atom, donor atom, acceptor molecule, acceptor atom, score
      L1  H    10    31       P1  7948  0.70
      L1  H    13    32       P1  7948  0.72
      L1  H    17    47       P1 10747  0.53
      P1  H  7989  7998       L1     5  0.01

> <Gold.Chemscore.Hbond.Weighted>
-8.2457

> <Gold.Chemscore.Metal.Weighted>
-0.0000

> <Gold.Chemscore.Lipo.Weighted>
-9.0212

> <Gold.Chemscore.Internal_Hbond.Weighted>
0.0000

> <Gold.Chemscore.DEClash.Weighted>
0.0732

> <Gold.Chemscore.DEInternal.Weighted>
2.6470

> <Gold.Chemscore.Rot.Weighted>
3.5252

> <Gold.Chemscore.Internal.Correction.Weighted>
   9.000000E+99

> <Gold.Protein.RotatedTorsions>
[ 6907 6896 6895 6894 ] final -109.92 input  -60.11 | X-H torsion
[ 7974 7965 7964 7962 ] final  -95.17 input  175.53 | X-H torsion
[ 8008 7997 7996 7995 ] final  122.32 input   59.86 | X-H torsion
[ 10167 10162 10161 10158 ] final  -16.41 input  -65.29 | X-H torsion
[ 10718 10713 10712 10709 ] final -138.43 input   66.30 | X-H torsion
[ 10763 10752 10751 10750 ] final  175.14 input  -60.55 | X-H torsion
[ 11005 11000 10999 10996 ] final  -89.09 input  -57.11 | X-H torsion

> <Gold.Protein.ActiveResidues>
 VAL166  LYS551  ARG553  GLY616  TRP617  ASP618  TYR619  PRO620  LYS621  CYS622 
 ASP623  PHE694  ASN695  SER759  ASP760  ASP761  ALA762  ILE779  LEU786  VAL792 
 PHE793  MET794  SER795  GLU796  ALA797  LYS798  CYS799  TRP800  GLU811  SER814 

> <Gold.Protein.RotatedAtoms>
  150.7592  133.9458  159.3470 H   0  0  0  0  0  0  0  0  0  0  0  0  # atno 6907 bound_to 6896
  151.7371  135.0860  160.0319 H   0  0  0  0  0  0  0  0  0  0  0  0  # atno 6908 bound_to 6896
  152.3553  133.6191  159.6010 H   0  0  0  0  0  0  0  0  0  0  0  0  # atno 6909 bound_to 6896
  145.3636  140.9495  143.2487 H   0  0  0  0  0  0  0  0  0  0  0  0  # atno 7974 bound_to 7965
  156.2723  140.2788  156.1449 H   0  0  0  0  0  0  0  0  0  0  0  0  # atno 8008 bound_to 7997
  155.0914  140.0388  157.2687 H   0  0  0  0  0  0  0  0  0  0  0  0  # atno 8009 bound_to 7997
  154.6886  140.2624  155.6841 H   0  0  0  0  0  0  0  0  0  0  0  0  # atno 8010 bound_to 7997
  140.7233  143.5119  150.9740 H   0  0  0  0  0  0  0  0  0  0  0  0  # atno 10167 bound_to 10162
  156.2992  130.7419  151.1466 H   0  0  0  0  0  0  0  0  0  0  0  0  # atno 10718 bound_to 10713
  154.4635  135.2768  155.1695 H   0  0  0  0  0  0  0  0  0  0  0  0  # atno 10763 bound_to 10752
  154.3473  135.6157  153.5629 H   0  0  0  0  0  0  0  0  0  0  0  0  # atno 10764 bound_to 10752
  152.9857  135.5803  154.5003 H   0  0  0  0  0  0  0  0  0  0  0  0  # atno 10765 bound_to 10752
  141.1591  133.7609  156.9544 H   0  0  0  0  0  0  0  0  0  0  0  0  # atno 11005 bound_to 11000
  144.8628  139.5152  143.6804 LP  0  0  0  0  0  0  0  0  0  0  0  0  # atno 17320 bound_to 7965
  146.2916  139.7157  142.9156 LP  0  0  0  0  0  0  0  0  0  0  0  0  # atno 17321 bound_to 7965
  139.8833  143.7045  152.3154 LP  0  0  0  0  0  0  0  0  0  0  0  0  # atno 17342 bound_to 10162
  139.7335  144.7577  151.0764 LP  0  0  0  0  0  0  0  0  0  0  0  0  # atno 17343 bound_to 10162
  157.7363  131.0563  150.5419 LP  0  0  0  0  0  0  0  0  0  0  0  0  # atno 17370 bound_to 10713
  156.5544  130.4240  149.6092 LP  0  0  0  0  0  0  0  0  0  0  0  0  # atno 17371 bound_to 10713
  140.1235  134.9402  157.2237 LP  0  0  0  0  0  0  0  0  0  0  0  0  # atno 17394 bound_to 11000
  140.3042  134.3097  155.7282 LP  0  0  0  0  0  0  0  0  0  0  0  0  # atno 17395 bound_to 11000

$$$$
