AV-unprocessed.smi:49|AV-procd|sdf|474|dock6
  -GOLD-   2262016343D 1   1.00000     0.00000
 Structure written by MMmdl.
 27 28  0  0  0  0  0  0  0  0  1 V2000
  152.1296  144.4780  158.7200 C   0  0  0  0  0  0  0  0  0  0  0  0
  151.1971  143.2744  158.8942 C   0  0  0  0  0  0  0  0  0  0  0  0
  151.5000  142.1682  157.9373 C   0  0  0  0  0  0  0  0  0  0  0  0
  150.7827  141.8714  156.8590 N   0  0  0  0  0  0  0  0  0  0  0  0
  151.4942  140.8077  156.3772 C   0  0  0  0  0  0  0  0  0  0  0  0
  151.1140  140.1039  155.1098 C   0  0  1  0  0  0  0  0  0  0  0  0
  152.0322  138.9020  154.8128 C   0  0  0  0  0  0  0  0  0  0  0  0
  151.1039  137.6915  154.8797 C   0  0  2  0  0  0  0  0  0  0  0  0
  151.5019  136.6438  154.0211 O   0  0  0  0  0  0  0  0  0  0  0  0
  149.7564  138.2830  154.4877 C   0  0  0  0  0  0  0  0  0  0  0  0
  149.7391  139.5916  155.1235 N   0  0  0  0  0  0  0  0  0  0  0  0
  152.5853  140.4763  157.0700 N   0  0  0  0  0  0  0  0  0  0  0  0
  152.5606  141.3710  158.0798 N   0  0  0  0  0  0  0  0  0  0  0  0
  151.2150  140.8150  154.2888 H   0  0  0  0  0  0  0  0  0  0  0  0
  151.0561  137.3205  155.9048 H   0  0  0  0  0  0  0  0  0  0  0  0
  153.2598  141.4005  158.8083 H   0  0  0  0  0  0  0  0  0  0  0  0
  151.8815  145.2671  159.4301 H   0  0  0  0  0  0  0  0  0  0  0  0
  152.0484  144.8961  157.7162 H   0  0  0  0  0  0  0  0  0  0  0  0
  153.1702  144.1966  158.8831 H   0  0  0  0  0  0  0  0  0  0  0  0
  151.2701  142.8934  159.9136 H   0  0  0  0  0  0  0  0  0  0  0  0
  150.1615  143.5843  158.7517 H   0  0  0  0  0  0  0  0  0  0  0  0
  152.4432  139.0085  153.8076 H   0  0  0  0  0  0  0  0  0  0  0  0
  152.8743  138.8134  155.5008 H   0  0  0  0  0  0  0  0  0  0  0  0
  151.0716  136.7595  153.1876 H   0  0  0  0  0  0  0  0  0  0  0  0
  149.7008  138.4009  153.4045 H   0  0  0  0  0  0  0  0  0  0  0  0
  148.9154  137.6647  154.8023 H   0  0  0  0  0  0  0  0  0  0  0  0
  149.1384  140.2072  154.5850 H   0  0  0  0  0  0  0  0  0  0  0  0
  1  2  1  0  0  0  0
  1 17  1  0  0  0  0
  1 18  1  0  0  0  0
  1 19  1  0  0  0  0
  2  3  1  0  0  0  0
  2 20  1  0  0  0  0
  2 21  1  0  0  0  0
  3 13  1  0  0  0  0
  3  4  2  0  0  0  0
  4  5  1  0  0  0  0
  5  6  1  0  0  0  0
  5 12  2  0  0  0  0
  6 14  1  0  0  0  0
  6 11  1  0  0  0  0
  6  7  1  0  0  0  0
  7  8  1  0  0  0  0
  7 22  1  0  0  0  0
  7 23  1  0  0  0  0
  8 15  1  0  0  0  0
  8  9  1  0  0  0  0
  8 10  1  0  0  0  0
  9 24  1  0  0  0  0
 10 11  1  0  0  0  0
 10 25  1  0  0  0  0
 10 26  1  0  0  0  0
 11 27  1  0  0  0  0
 12 13  1  0  0  0  0
 13 16  1  0  0  0  0
M  END
> <s_m_source_file>
AV-unprocessed.smi

> <i_m_source_file_index>
49

> <i_lp_mmshare_version>
43012

> <i_f3d_flags>
0

> <s_epik_input>
W0NIM11bQ0gyXWMxbmMobltuSF0xKVtDQEBIXTJbQ0gyXVtDQEBIXShbT0hdKVtDSDJdW05IXTI=

> <s_epik_cmdline>
J2VwaWtfcHl0aG9uJywgJy1waCcsICc3LjAnLCAnLXRuJywgJzgnLCAnLW1hJywgJzIwMCcsICctbWV0YWxfYmluZGluZycsICctaW1hZScsICc8aW5maWxlLm1hZT4nLCAnLW9tYWUnLCAnPG91dGZpbGUubWFlPic=

> <r_lp_tautomer_probability>
0.948284

> <r_epik_Ionization_Penalty>
1.6657

> <r_epik_Ionization_Penalty_Charging>
0

> <r_epik_Ionization_Penalty_Neutral>
1.6657

> <r_epik_State_Penalty>
2.01417

> <r_epik_Charging_Adjusted_Penalty>
2.01417

> <i_epik_Tot_Q>
0

> <i_epik_Tot_abs_Q>
0

> <r_epik_Metal_State_Penalty>
2.28256

> <b_epik_Metal_Only>
0

> <s_lp_Force_Field>
OPLS_2005

> <r_lp_Energy>
18.9317

> <b_lp_Chiralities_Consistent>
1

> <s_lp_Variant>
AV-unprocessed.smi:49-12

> <Gold.Version>
5.8.1

> <Gold.Id.Protein>
6NUR|6NUR_protein|mol2

> <Gold.PLP.Fitness>
33.2813

> <Gold.PLP.PLP>
-25.0063

> <Gold.PLP.part.hbond>
-3.1466

> <Gold.PLP.part.metal>
0.0000

> <Gold.PLP.part.buried>
-1.3169

> <Gold.PLP.part.nonpolar>
-20.4579

> <Gold.PLP.part.repulsive>
0.1595

> <Gold.PLP.ligand.clash>
0.0000

> <Gold.PLP.ligand.torsion>
0.2369

> <Gold.PLP.Chemscore.Hbond>
2.9120

> <Gold.PLP.Chemscore.CHOScore>
0.0000

> <Gold.PLP.Chemscore.Metal>
0.0000

> <Gold.Chemscore.Hbonds>
donor molecule, donor type, donor heavy atom, donor atom, acceptor molecule, acceptor atom, score
      L1  H     9    24       P1  7949  0.74
      P1  H  7997  8010       L1    12  0.88
      P1  H 10752 10765       L1     9  1.00

> <Gold.PLP.Chemscore.Internal.Correction>
0.0128

> <Gold.Rescore>
     Score         DG    S(hbond)    S(metal)    S(lipo)     H(rot)  DE(clash)    DE(int)     intcor
     13.60     -15.16       2.46        0.00      53.02       1.86       1.20       0.35       ----

> <Gold.Chemscore.Fitness>
13.6034

> <Gold.Chemscore.DG>
-15.1567

> <Gold.Chemscore.ZeroCoef>
-5.4800

> <Gold.Chemscore.Hbond>
2.4624

> <Gold.Chemscore.Metal>
0.0000

> <Gold.Chemscore.Lipo>
53.0164

> <Gold.Chemscore.Internal_Hbond>
0.0000

> <Gold.Chemscore.DEClash>
1.1987

> <Gold.Chemscore.DEInternal>
0.3547

> <Gold.Chemscore.Rot>
1.8558

> <Gold.Chemscore.Internal.Correction>
   9.000000E+99

> <Gold.Chemscore.Hbonds>
donor molecule, donor type, donor heavy atom, donor atom, acceptor molecule, acceptor atom, score
      L1  H     9    24       P1  7949  0.26
      P1  H  7997  8010       L1    12  0.61
      P1  H 10752 10765       L1     9  0.86

> <Gold.Chemscore.Hbond.Weighted>
-8.2245

> <Gold.Chemscore.Metal.Weighted>
-0.0000

> <Gold.Chemscore.Lipo.Weighted>
-6.2029

> <Gold.Chemscore.Internal_Hbond.Weighted>
0.0000

> <Gold.Chemscore.DEClash.Weighted>
1.1987

> <Gold.Chemscore.DEInternal.Weighted>
0.3547

> <Gold.Chemscore.Rot.Weighted>
4.7507

> <Gold.Chemscore.Internal.Correction.Weighted>
   9.000000E+99

> <Gold.Protein.RotatedTorsions>
[ 6907 6896 6895 6894 ] final   59.58 input  -60.11 | X-H torsion
[ 7974 7965 7964 7962 ] final   13.79 input  175.53 | X-H torsion
[ 8008 7997 7996 7995 ] final   60.31 input   59.86 | X-H torsion
[ 10167 10162 10161 10158 ] final  130.02 input  -65.29 | X-H torsion
[ 10718 10713 10712 10709 ] final  -69.52 input   66.30 | X-H torsion
[ 10763 10752 10751 10750 ] final  139.10 input  -60.55 | X-H torsion
[ 11005 11000 10999 10996 ] final   99.39 input  -57.11 | X-H torsion

> <Gold.Protein.ActiveResidues>
 VAL166  LYS551  ARG553  GLY616  TRP617  ASP618  TYR619  PRO620  LYS621  CYS622 
 ASP623  PHE694  ASN695  SER759  ASP760  ASP761  ALA762  ILE779  LEU786  VAL792 
 PHE793  MET794  SER795  GLU796  ALA797  LYS798  CYS799  TRP800  GLU811  SER814 

> <Gold.Protein.RotatedAtoms>
  152.3928  134.6414  160.0100 H   0  0  0  0  0  0  0  0  0  0  0  0  # atno 6907 bound_to 6896
  151.6643  133.3310  159.3189 H   0  0  0  0  0  0  0  0  0  0  0  0  # atno 6908 bound_to 6896
  150.7841  134.6854  159.6512 H   0  0  0  0  0  0  0  0  0  0  0  0  # atno 6909 bound_to 6896
  146.2321  139.9137  142.8520 H   0  0  0  0  0  0  0  0  0  0  0  0  # atno 7974 bound_to 7965
  155.5803  140.3491  155.4538 H   0  0  0  0  0  0  0  0  0  0  0  0  # atno 8008 bound_to 7997
  156.0378  140.1289  157.0213 H   0  0  0  0  0  0  0  0  0  0  0  0  # atno 8009 bound_to 7997
  154.4379  140.1030  156.6179 H   0  0  0  0  0  0  0  0  0  0  0  0  # atno 8010 bound_to 7997
  139.5450  144.6765  151.4503 H   0  0  0  0  0  0  0  0  0  0  0  0  # atno 10167 bound_to 10162
  156.0452  130.4314  150.2159 H   0  0  0  0  0  0  0  0  0  0  0  0  # atno 10718 bound_to 10713
  153.9005  135.3022  155.3448 H   0  0  0  0  0  0  0  0  0  0  0  0  # atno 10763 bound_to 10752
  154.7672  135.4904  153.9581 H   0  0  0  0  0  0  0  0  0  0  0  0  # atno 10764 bound_to 10752
  153.1247  135.6790  153.9376 H   0  0  0  0  0  0  0  0  0  0  0  0  # atno 10765 bound_to 10752
  139.8771  134.9093  156.4598 H   0  0  0  0  0  0  0  0  0  0  0  0  # atno 11005 bound_to 11000
  145.2205  140.9933  143.4048 LP  0  0  0  0  0  0  0  0  0  0  0  0  # atno 17320 bound_to 7965
  144.9614  139.3975  143.6354 LP  0  0  0  0  0  0  0  0  0  0  0  0  # atno 17321 bound_to 7965
  140.6694  143.8326  150.6981 LP  0  0  0  0  0  0  0  0  0  0  0  0  # atno 17342 bound_to 10162
  140.1746  143.4166  152.1977 LP  0  0  0  0  0  0  0  0  0  0  0  0  # atno 17343 bound_to 10162
  157.0250  130.9990  151.3329 LP  0  0  0  0  0  0  0  0  0  0  0  0  # atno 17370 bound_to 10713
  157.5318  130.8063  149.7925 LP  0  0  0  0  0  0  0  0  0  0  0  0  # atno 17371 bound_to 10713
  140.8872  133.7874  155.9531 LP  0  0  0  0  0  0  0  0  0  0  0  0  # atno 17394 bound_to 11000
  140.8792  134.2632  157.5152 LP  0  0  0  0  0  0  0  0  0  0  0  0  # atno 17395 bound_to 11000

$$$$
