AV-unprocessed.smi:2568|AV-procd|sdf|10089|dock4
  -GOLD-   2272014113D 1   1.00000     0.00000
 Structure written by MMmdl.
 25 26  0  0  0  0  0  0  0  0  2 V2000
  151.6875  142.9979  158.0517 C   0  0  0  0  0  0  0  0  0  0  0  0
  151.2203  141.9289  157.1229 C   0  0  0  0  0  0  0  0  0  0  0  0
  151.5805  140.6528  157.2718 N   0  0  0  0  0  0  0  0  0  0  0  0
  151.0101  139.9115  156.2985 N   0  0  0  0  0  0  0  0  0  0  0  0
  150.3415  140.8310  155.6035 C   0  0  0  0  0  0  0  0  0  0  0  0
  149.5032  140.4391  154.4267 C   0  0  1  0  0  0  0  0  0  0  0  0
  149.5973  138.9324  154.1209 C   0  0  0  0  0  0  0  0  0  0  0  0
  148.6815  138.5872  153.0166 N   0  3  0  0  0  0  0  0  0  0  0  0
  147.2982  139.0135  153.3084 C   0  0  0  0  0  0  0  0  0  0  0  0
  147.2658  140.5119  153.6595 C   0  0  0  0  0  0  0  0  0  0  0  0
  148.1532  140.7741  154.7421 O   0  0  0  0  0  0  0  0  0  0  0  0
  150.4176  142.1119  156.0802 N   0  0  0  0  0  0  0  0  0  0  0  0
  152.1756  140.2612  157.9882 H   0  0  0  0  0  0  0  0  0  0  0  0
  151.2973  143.9686  157.7442 H   0  0  0  0  0  0  0  0  0  0  0  0
  152.7769  143.0446  158.0516 H   0  0  0  0  0  0  0  0  0  0  0  0
  151.3446  142.7892  159.0653 H   0  0  0  0  0  0  0  0  0  0  0  0
  149.8237  141.0208  153.5598 H   0  0  0  0  0  0  0  0  0  0  0  0
  150.6159  138.6564  153.8463 H   0  0  0  0  0  0  0  0  0  0  0  0
  149.3304  138.3462  155.0016 H   0  0  0  0  0  0  0  0  0  0  0  0
  148.9951  139.0558  152.1782 H   0  0  0  0  0  0  0  0  0  0  0  0
  146.6662  138.8078  152.4444 H   0  0  0  0  0  0  0  0  0  0  0  0
  146.9097  138.4234  154.1394 H   0  0  0  0  0  0  0  0  0  0  0  0
  147.5402  141.1204  152.7963 H   0  0  0  0  0  0  0  0  0  0  0  0
  146.2576  140.8082  153.9489 H   0  0  0  0  0  0  0  0  0  0  0  0
  148.7009  137.5890  152.8628 H   0  0  0  0  0  0  0  0  0  0  0  0
  1 14  1  0  0  0  0
  1 15  1  0  0  0  0
  1 16  1  0  0  0  0
  1  2  1  0  0  0  0
  2 12  2  0  0  0  0
  2  3  1  0  0  0  0
  3  4  1  0  0  0  0
  3 13  1  0  0  0  0
  4  5  2  0  0  0  0
  5 12  1  0  0  0  0
  5  6  1  0  0  0  0
  6 11  1  0  0  0  0
  6  7  1  0  0  0  0
  6 17  1  0  0  0  0
  7  8  1  0  0  0  0
  7 18  1  0  0  0  0
  7 19  1  0  0  0  0
  8  9  1  0  0  0  0
  8 20  1  0  0  0  0
  8 25  1  0  0  0  0
  9 10  1  0  0  0  0
  9 21  1  0  0  0  0
  9 22  1  0  0  0  0
 10 11  1  0  0  0  0
 10 23  1  0  0  0  0
 10 24  1  0  0  0  0
M  CHG  1   8   1
M  END
> <s_m_source_file>
AV-unprocessed.smi

> <i_m_source_file_index>
2568

> <i_lp_mmshare_version>
43012

> <i_f3d_flags>
0

> <s_epik_input>
W0NIM11jMW5bbkhdYyhuMSlbQ0BASF0yW0NIMl1bTkhdW0NIMl1bQ0gyXU8y

> <s_epik_cmdline>
J2VwaWtfcHl0aG9uJywgJy1waCcsICc3LjAnLCAnLXRuJywgJzgnLCAnLW1hJywgJzIwMCcsICctbWV0YWxfYmluZGluZycsICctaW1hZScsICc8aW5maWxlLm1hZT4nLCAnLW9tYWUnLCAnPG91dGZpbGUubWFlPic=

> <r_lp_tautomer_probability>
0.948284

> <r_epik_Ionization_Penalty>
0.107151

> <r_epik_Ionization_Penalty_Charging>
0.100865

> <r_epik_Ionization_Penalty_Neutral>
0.00628602

> <r_epik_State_Penalty>
0.200426

> <r_epik_Charging_Adjusted_Penalty>
0.30129

> <i_epik_Tot_Q>
1

> <i_epik_Tot_abs_Q>
1

> <r_epik_Metal_State_Penalty>
0.501686

> <b_epik_Metal_Only>
0

> <s_lp_Force_Field>
OPLS_2005

> <r_lp_Energy>
11.0041

> <b_lp_Chiralities_Consistent>
1

> <s_lp_Variant>
AV-unprocessed.smi:2568-2

> <Gold.Version>
5.8.1

> <Gold.Id.Protein>
6NUR|6NUR_protein|mol2

> <Gold.PLP.Fitness>
28.7733

> <Gold.PLP.PLP>
-19.8053

> <Gold.PLP.part.hbond>
-1.9637

> <Gold.PLP.part.metal>
0.0000

> <Gold.PLP.part.buried>
-2.7225

> <Gold.PLP.part.nonpolar>
-15.6724

> <Gold.PLP.part.repulsive>
0.8718

> <Gold.PLP.ligand.clash>
0.0000

> <Gold.PLP.ligand.torsion>
0.0100

> <Gold.PLP.Chemscore.Hbond>
2.9913

> <Gold.PLP.Chemscore.CHOScore>
0.0000

> <Gold.PLP.Chemscore.Metal>
0.0000

> <Gold.Chemscore.Hbonds>
donor molecule, donor type, donor heavy atom, donor atom, acceptor molecule, acceptor atom, score
      L1  H     8    20       P1  7957  0.99
      L1  H     8    25       P1  7948  2.00

> <Gold.PLP.Chemscore.Internal.Correction>
0.0143

> <Gold.Rescore>
     Score         DG    S(hbond)    S(metal)    S(lipo)     H(rot)  DE(clash)    DE(int)     intcor
     13.63     -13.77       1.91        0.00      38.22       1.00       0.12       0.02       ----

> <Gold.Chemscore.Fitness>
13.6267

> <Gold.Chemscore.DG>
-13.7657

> <Gold.Chemscore.ZeroCoef>
-5.4800

> <Gold.Chemscore.Hbond>
1.9085

> <Gold.Chemscore.Metal>
0.0000

> <Gold.Chemscore.Lipo>
38.2160

> <Gold.Chemscore.Internal_Hbond>
0.0000

> <Gold.Chemscore.DEClash>
0.1230

> <Gold.Chemscore.DEInternal>
0.0160

> <Gold.Chemscore.Rot>
1.0000

> <Gold.Chemscore.Internal.Correction>
   9.000000E+99

> <Gold.Chemscore.Hbonds>
donor molecule, donor type, donor heavy atom, donor atom, acceptor molecule, acceptor atom, score
      L1  H     8    20       P1  7957  0.89
      L1  H     8    25       P1  7948  0.94

> <Gold.Chemscore.Hbond.Weighted>
-6.3744

> <Gold.Chemscore.Metal.Weighted>
-0.0000

> <Gold.Chemscore.Lipo.Weighted>
-4.4713

> <Gold.Chemscore.Internal_Hbond.Weighted>
0.0000

> <Gold.Chemscore.DEClash.Weighted>
0.1230

> <Gold.Chemscore.DEInternal.Weighted>
0.0160

> <Gold.Chemscore.Rot.Weighted>
2.5600

> <Gold.Chemscore.Internal.Correction.Weighted>
   9.000000E+99

> <Gold.Protein.RotatedTorsions>
[ 6907 6896 6895 6894 ] final   72.44 input  -60.11 | X-H torsion
[ 7974 7965 7964 7962 ] final  165.00 input  175.53 | X-H torsion
[ 8008 7997 7996 7995 ] final   74.35 input   59.86 | X-H torsion
[ 10167 10162 10161 10158 ] final   72.79 input  -65.29 | X-H torsion
[ 10718 10713 10712 10709 ] final -109.24 input   66.30 | X-H torsion
[ 10763 10752 10751 10750 ] final  -74.46 input  -60.55 | X-H torsion
[ 11005 11000 10999 10996 ] final   28.84 input  -57.11 | X-H torsion

> <Gold.Protein.ActiveResidues>
 VAL166  LYS551  ARG553  GLY616  TRP617  ASP618  TYR619  PRO620  LYS621  CYS622 
 ASP623  PHE694  ASN695  SER759  ASP760  ASP761  ALA762  ILE779  LEU786  VAL792 
 PHE793  MET794  SER795  GLU796  ALA797  LYS798  CYS799  TRP800  GLU811  SER814 

> <Gold.Protein.RotatedAtoms>
  152.4868  134.4571  159.9592 H   0  0  0  0  0  0  0  0  0  0  0  0  # atno 6907 bound_to 6896
  151.4566  133.3597  159.2811 H   0  0  0  0  0  0  0  0  0  0  0  0  # atno 6908 bound_to 6896
  150.8985  134.8420  159.7404 H   0  0  0  0  0  0  0  0  0  0  0  0  # atno 6909 bound_to 6896
  144.7521  139.8407  143.6362 H   0  0  0  0  0  0  0  0  0  0  0  0  # atno 7974 bound_to 7965
  155.7971  140.3477  155.5381 H   0  0  0  0  0  0  0  0  0  0  0  0  # atno 8008 bound_to 7997
  155.8576  140.0966  157.1655 H   0  0  0  0  0  0  0  0  0  0  0  0  # atno 8009 bound_to 7997
  154.4010  140.1364  156.3908 H   0  0  0  0  0  0  0  0  0  0  0  0  # atno 8010 bound_to 7997
  140.0314  144.5462  150.7504 H   0  0  0  0  0  0  0  0  0  0  0  0  # atno 10167 bound_to 10162
  156.0527  130.5754  150.8073 H   0  0  0  0  0  0  0  0  0  0  0  0  # atno 10718 bound_to 10713
  154.4734  135.5863  153.6337 H   0  0  0  0  0  0  0  0  0  0  0  0  # atno 10763 bound_to 10752
  152.9837  135.6072  154.3338 H   0  0  0  0  0  0  0  0  0  0  0  0  # atno 10764 bound_to 10752
  154.3222  135.2843  155.2493 H   0  0  0  0  0  0  0  0  0  0  0  0  # atno 10765 bound_to 10752
  140.3113  134.2647  155.7734 H   0  0  0  0  0  0  0  0  0  0  0  0  # atno 11005 bound_to 11000
  146.1485  139.4561  143.0064 LP  0  0  0  0  0  0  0  0  0  0  0  0  # atno 17320 bound_to 7965
  145.6907  141.0165  143.1557 LP  0  0  0  0  0  0  0  0  0  0  0  0  # atno 17321 bound_to 7965
  140.7300  143.2679  151.3985 LP  0  0  0  0  0  0  0  0  0  0  0  0  # atno 17342 bound_to 10162
  139.6073  144.1170  152.2262 LP  0  0  0  0  0  0  0  0  0  0  0  0  # atno 17343 bound_to 10162
  157.5468  131.0942  150.9751 LP  0  0  0  0  0  0  0  0  0  0  0  0  # atno 17370 bound_to 10713
  157.0020  130.5604  149.5312 LP  0  0  0  0  0  0  0  0  0  0  0  0  # atno 17371 bound_to 10713
  141.2107  133.7710  156.9911 LP  0  0  0  0  0  0  0  0  0  0  0  0  # atno 17394 bound_to 11000
  140.1022  134.9528  157.1941 LP  0  0  0  0  0  0  0  0  0  0  0  0  # atno 17395 bound_to 11000

$$$$
