AV-unprocessed.smi:1093|AV-procd|sdf|4740|dock3
  -GOLD-   22720 3273D 1   1.00000     0.00000
 Structure written by MMmdl.
 48 49  0  0  0  0  0  0  0  0  3 V2000
  144.3791  134.7280  155.6961 C   0  0  0  0  0  0  0  0  0  0  0  0
  143.8805  135.7793  154.6940 C   0  0  0  0  0  0  0  0  0  0  0  0
  144.7857  135.9171  153.5263 N   0  3  1  0  0  0  0  0  0  0  0  0
  144.8569  134.6753  152.7132 C   0  0  0  0  0  0  0  0  0  0  0  0
  145.9171  134.7964  151.6046 C   0  0  0  0  0  0  0  0  0  0  0  0
  145.6714  136.0343  150.7260 C   0  0  0  0  0  0  0  0  0  0  0  0
  145.5468  137.3050  151.5855 C   0  0  2  0  0  0  0  0  0  0  0  0
  146.8481  137.6511  152.1600 N   0  0  0  0  0  0  0  0  0  0  0  0
  147.0675  138.6408  153.0380 C   0  0  0  0  0  0  0  0  0  0  0  0
  146.1727  139.3572  153.4851 O   0  0  0  0  0  0  0  0  0  0  0  0
  148.3686  138.7230  153.3673 N   0  0  0  0  0  0  0  0  0  0  0  0
  149.0048  139.6399  154.2488 C   0  0  0  0  0  0  0  0  0  0  0  0
  150.1877  139.2202  154.8928 C   0  0  0  0  0  0  0  0  0  0  0  0
  150.8615  140.0969  155.7677 C   0  0  0  0  0  0  0  0  0  0  0  0
  150.3535  141.4003  155.9890 C   0  0  0  0  0  0  0  0  0  0  0  0
  150.9709  142.3356  156.8475 N   0  0  0  0  0  0  0  0  0  0  0  0
  150.8122  143.7637  156.5955 C   0  0  0  0  0  0  0  0  0  0  0  0
  151.6454  141.8744  158.0543 C   0  0  0  0  0  0  0  0  0  0  0  0
  149.2216  141.7629  155.3375 N   0  3  0  0  0  0  0  0  0  0  0  0
  148.5433  140.9553  154.4939 C   0  0  0  0  0  0  0  0  0  0  0  0
  144.4725  137.0967  152.6763 C   0  0  0  0  0  0  0  0  0  0  0  0
  143.6523  134.5877  156.4965 H   0  0  0  0  0  0  0  0  0  0  0  0
  145.3201  135.0175  156.1629 H   0  0  0  0  0  0  0  0  0  0  0  0
  144.5267  133.7620  155.2123 H   0  0  0  0  0  0  0  0  0  0  0  0
  142.8936  135.4660  154.3505 H   0  0  0  0  0  0  0  0  0  0  0  0
  143.7449  136.7457  155.1814 H   0  0  0  0  0  0  0  0  0  0  0  0
  145.1058  133.8271  153.3523 H   0  0  0  0  0  0  0  0  0  0  0  0
  143.8778  134.4677  152.2781 H   0  0  0  0  0  0  0  0  0  0  0  0
  146.9094  134.8530  152.0539 H   0  0  0  0  0  0  0  0  0  0  0  0
  145.9130  133.8976  150.9874 H   0  0  0  0  0  0  0  0  0  0  0  0
  146.4705  136.1431  149.9916 H   0  0  0  0  0  0  0  0  0  0  0  0
  144.7513  135.8930  150.1576 H   0  0  0  0  0  0  0  0  0  0  0  0
  145.2366  138.1256  150.9356 H   0  0  0  0  0  0  0  0  0  0  0  0
  147.6420  137.1150  151.8406 H   0  0  0  0  0  0  0  0  0  0  0  0
  148.9729  138.0214  152.9651 H   0  0  0  0  0  0  0  0  0  0  0  0
  150.5801  138.2281  154.7232 H   0  0  0  0  0  0  0  0  0  0  0  0
  151.7629  139.7535  156.2534 H   0  0  0  0  0  0  0  0  0  0  0  0
  151.1847  144.0231  155.6040 H   0  0  0  0  0  0  0  0  0  0  0  0
  151.3644  144.3589  157.3230 H   0  0  0  0  0  0  0  0  0  0  0  0
  149.7615  144.0488  156.6578 H   0  0  0  0  0  0  0  0  0  0  0  0
  150.9575  141.3146  158.6888 H   0  0  0  0  0  0  0  0  0  0  0  0
  152.0298  142.7113  158.6378 H   0  0  0  0  0  0  0  0  0  0  0  0
  152.4890  141.2316  157.8006 H   0  0  0  0  0  0  0  0  0  0  0  0
  147.6702  141.4053  154.0464 H   0  0  0  0  0  0  0  0  0  0  0  0
  143.4952  136.9559  152.2117 H   0  0  0  0  0  0  0  0  0  0  0  0
  144.3895  137.9957  153.2856 H   0  0  0  0  0  0  0  0  0  0  0  0
  145.7120  136.0623  153.9016 H   0  0  0  0  0  0  0  0  0  0  0  0
  148.8597  142.7042  155.4907 H   0  0  0  0  0  0  0  0  0  0  0  0
  1  2  1  0  0  0  0
  1 22  1  0  0  0  0
  1 23  1  0  0  0  0
  1 24  1  0  0  0  0
  2  3  1  0  0  0  0
  2 25  1  0  0  0  0
  2 26  1  0  0  0  0
  3 21  1  0  0  0  0
  3  4  1  0  0  0  0
  3 47  1  0  0  0  0
  4  5  1  0  0  0  0
  4 27  1  0  0  0  0
  4 28  1  0  0  0  0
  5  6  1  0  0  0  0
  5 29  1  0  0  0  0
  5 30  1  0  0  0  0
  6  7  1  0  0  0  0
  6 31  1  0  0  0  0
  6 32  1  0  0  0  0
  7  8  1  0  0  0  0
  7 21  1  0  0  0  0
  7 33  1  0  0  0  0
  8  9  1  0  0  0  0
  8 34  1  0  0  0  0
  9 10  2  0  0  0  0
  9 11  1  0  0  0  0
 11 12  1  0  0  0  0
 11 35  1  0  0  0  0
 12 20  1  0  0  0  0
 12 13  2  0  0  0  0
 13 14  1  0  0  0  0
 13 36  1  0  0  0  0
 14 15  2  0  0  0  0
 14 37  1  0  0  0  0
 15 16  1  0  0  0  0
 15 19  1  0  0  0  0
 16 17  1  0  0  0  0
 16 18  1  0  0  0  0
 17 38  1  0  0  0  0
 17 39  1  0  0  0  0
 17 40  1  0  0  0  0
 18 41  1  0  0  0  0
 18 42  1  0  0  0  0
 18 43  1  0  0  0  0
 19 20  2  0  0  0  0
 19 48  1  0  0  0  0
 20 44  1  0  0  0  0
 21 45  1  0  0  0  0
 21 46  1  0  0  0  0
M  CHG  1   3   1
M  CHG  1  19   1
M  END
> <s_m_source_file>
AV-unprocessed.smi

> <i_m_source_file_index>
1093

> <i_lp_mmshare_version>
43012

> <i_f3d_flags>
0

> <s_epik_input>
W0NIM11bQ0gyXU4xW0NIMl1bQ0gyXVtDSDJdW0NASF0oW0NIMl0xKVtOSF1DKD1PKVtOSF1jMltjSF1bY0hdYyhOKFtDSDNdKVtDSDNdKW5bY0hdMg==

> <s_epik_cmdline>
J2VwaWtfcHl0aG9uJywgJy1waCcsICc3LjAnLCAnLXRuJywgJzgnLCAnLW1hJywgJzIwMCcsICctbWV0YWxfYmluZGluZycsICctaW1hZScsICc8aW5maWxlLm1hZT4nLCAnLW9tYWUnLCAnPG91dGZpbGUubWFlPic=

> <r_lp_tautomer_probability>
0.999994

> <r_epik_Ionization_Penalty>
0.346711

> <r_epik_Ionization_Penalty_Charging>
0.346691

> <r_epik_Ionization_Penalty_Neutral>
1.93006e-05

> <r_epik_State_Penalty>
0.339838

> <r_epik_Charging_Adjusted_Penalty>
0.68653

> <i_epik_Tot_Q>
2

> <i_epik_Tot_abs_Q>
2

> <r_epik_Metal_State_Penalty>
0.600835

> <b_epik_Metal_Only>
0

> <s_lp_Force_Field>
OPLS_2005

> <r_lp_Energy>
35.5794

> <b_lp_Chiralities_Consistent>
1

> <s_lp_Variant>
AV-unprocessed.smi:1093-3

> <Gold.Version>
5.8.1

> <Gold.Id.Protein>
6NUR|6NUR_protein|mol2

> <Gold.PLP.Fitness>
40.3667

> <Gold.PLP.PLP>
-30.0428

> <Gold.PLP.part.hbond>
-3.9784

> <Gold.PLP.part.metal>
0.0000

> <Gold.PLP.part.buried>
2.5179

> <Gold.PLP.part.nonpolar>
-30.9605

> <Gold.PLP.part.repulsive>
1.4754

> <Gold.PLP.ligand.clash>
0.0000

> <Gold.PLP.ligand.torsion>
0.6487

> <Gold.PLP.Chemscore.Hbond>
3.8580

> <Gold.PLP.Chemscore.CHOScore>
0.0000

> <Gold.PLP.Chemscore.Metal>
0.0000

> <Gold.Chemscore.Hbonds>
donor molecule, donor type, donor heavy atom, donor atom, acceptor molecule, acceptor atom, score
      L1  H     8    34       P1  7948  1.00
      L1  H    11    35       P1  7948  0.79
      L1  H    19    48       P1  8028  2.00

> <Gold.PLP.Chemscore.Internal.Correction>
0.0473

> <Gold.Rescore>
     Score         DG    S(hbond)    S(metal)    S(lipo)     H(rot)  DE(clash)    DE(int)     intcor
     14.51     -20.29       2.58        0.00      79.14       1.19       3.10       2.68       ----

> <Gold.Chemscore.Fitness>
14.5133

> <Gold.Chemscore.DG>
-20.2929

> <Gold.Chemscore.ZeroCoef>
-5.4800

> <Gold.Chemscore.Hbond>
2.5785

> <Gold.Chemscore.Metal>
0.0000

> <Gold.Chemscore.Lipo>
79.1434

> <Gold.Chemscore.Internal_Hbond>
0.0000

> <Gold.Chemscore.DEClash>
3.1031

> <Gold.Chemscore.DEInternal>
2.6765

> <Gold.Chemscore.Rot>
1.1949

> <Gold.Chemscore.Internal.Correction>
   9.000000E+99

> <Gold.Chemscore.Hbonds>
donor molecule, donor type, donor heavy atom, donor atom, acceptor molecule, acceptor atom, score
      L1  H     8    34       P1  7948  0.96
      L1  H    11    35       P1  7948  0.74
      L1  H    19    48       P1  8028  0.94

> <Gold.Chemscore.Hbond.Weighted>
-8.6121

> <Gold.Chemscore.Metal.Weighted>
-0.0000

> <Gold.Chemscore.Lipo.Weighted>
-9.2598

> <Gold.Chemscore.Internal_Hbond.Weighted>
0.0000

> <Gold.Chemscore.DEClash.Weighted>
3.1031

> <Gold.Chemscore.DEInternal.Weighted>
2.6765

> <Gold.Chemscore.Rot.Weighted>
3.0590

> <Gold.Chemscore.Internal.Correction.Weighted>
   9.000000E+99

> <Gold.Protein.RotatedTorsions>
[ 6907 6896 6895 6894 ] final -112.09 input  -60.11 | X-H torsion
[ 7974 7965 7964 7962 ] final  110.06 input  175.53 | X-H torsion
[ 8008 7997 7996 7995 ] final   74.57 input   59.86 | X-H torsion
[ 10167 10162 10161 10158 ] final  -74.88 input  -65.29 | X-H torsion
[ 10718 10713 10712 10709 ] final  112.67 input   66.30 | X-H torsion
[ 10763 10752 10751 10750 ] final   -5.42 input  -60.55 | X-H torsion
[ 11005 11000 10999 10996 ] final    6.74 input  -57.11 | X-H torsion

> <Gold.Protein.ActiveResidues>
 VAL166  LYS551  ARG553  GLY616  TRP617  ASP618  TYR619  PRO620  LYS621  CYS622 
 ASP623  PHE694  ASN695  SER759  ASP760  ASP761  ALA762  ILE779  LEU786  VAL792 
 PHE793  MET794  SER795  GLU796  ALA797  LYS798  CYS799  TRP800  GLU811  SER814 

> <Gold.Protein.RotatedAtoms>
  150.7734  133.9141  159.3377 H   0  0  0  0  0  0  0  0  0  0  0  0  # atno 6907 bound_to 6896
  151.7021  135.0926  160.0262 H   0  0  0  0  0  0  0  0  0  0  0  0  # atno 6908 bound_to 6896
  152.3761  133.6445  159.6160 H   0  0  0  0  0  0  0  0  0  0  0  0  # atno 6909 bound_to 6896
  145.2598  139.2707  143.4023 H   0  0  0  0  0  0  0  0  0  0  0  0  # atno 7974 bound_to 7965
  155.8003  140.3476  155.5399 H   0  0  0  0  0  0  0  0  0  0  0  0  # atno 8008 bound_to 7997
  155.8545  140.0961  157.1674 H   0  0  0  0  0  0  0  0  0  0  0  0  # atno 8009 bound_to 7997
  154.4009  140.1370  156.3872 H   0  0  0  0  0  0  0  0  0  0  0  0  # atno 8010 bound_to 7997
  140.4989  143.2365  151.7784 H   0  0  0  0  0  0  0  0  0  0  0  0  # atno 10167 bound_to 10162
  157.6380  131.0971  150.6929 H   0  0  0  0  0  0  0  0  0  0  0  0  # atno 10718 bound_to 10713
  153.3983  135.7004  153.6445 H   0  0  0  0  0  0  0  0  0  0  0  0  # atno 10763 bound_to 10752
  153.4989  135.3656  155.2530 H   0  0  0  0  0  0  0  0  0  0  0  0  # atno 10764 bound_to 10752
  154.8708  135.4107  154.3312 H   0  0  0  0  0  0  0  0  0  0  0  0  # atno 10765 bound_to 10752
  140.5561  134.0237  155.7954 H   0  0  0  0  0  0  0  0  0  0  0  0  # atno 11005 bound_to 11000
  146.3278  140.3012  142.8621 LP  0  0  0  0  0  0  0  0  0  0  0  0  # atno 17320 bound_to 7965
  144.9428  140.8097  143.5620 LP  0  0  0  0  0  0  0  0  0  0  0  0  # atno 17321 bound_to 7965
  139.4867  144.4548  151.9611 LP  0  0  0  0  0  0  0  0  0  0  0  0  # atno 17342 bound_to 10162
  140.3637  144.2941  150.5929 LP  0  0  0  0  0  0  0  0  0  0  0  0  # atno 17343 bound_to 10162
  156.7258  130.4694  149.5511 LP  0  0  0  0  0  0  0  0  0  0  0  0  # atno 17370 bound_to 10713
  156.1635  130.6390  151.0749 LP  0  0  0  0  0  0  0  0  0  0  0  0  # atno 17371 bound_to 10713
  141.1142  133.9566  157.2853 LP  0  0  0  0  0  0  0  0  0  0  0  0  # atno 17394 bound_to 11000
  139.9431  135.0188  156.8769 LP  0  0  0  0  0  0  0  0  0  0  0  0  # atno 17395 bound_to 11000

$$$$
