AV-unprocessed.smi:2477|AV-procd|sdf|9759|dock3
  -GOLD-   2272013403D 1   1.00000     0.00000
 Structure written by MMmdl.
 51 53  0  0  0  0  0  0  0  0  1 V2000
  144.4405  143.6345  162.5304 C   0  0  0  0  0  0  0  0  0  0  0  0
  144.6189  143.5457  161.0787 N   0  0  0  0  0  0  0  0  0  0  0  0
  143.4647  143.4095  160.2891 C   0  0  0  0  0  0  0  0  0  0  0  0
  143.5330  143.3190  158.9537 C   0  0  0  0  0  0  0  0  0  0  0  0
  144.8328  143.3646  158.3281 C   0  0  0  0  0  0  0  0  0  0  0  0
  145.9600  143.5059  159.0706 C   0  0  0  0  0  0  0  0  0  0  0  0
  147.2643  143.5551  158.5476 N   0  0  0  0  0  0  0  0  0  0  0  0
  148.1482  142.5592  158.3531 C   0  0  0  0  0  0  0  0  0  0  0  0
  147.9602  141.3685  158.5998 O   0  0  0  0  0  0  0  0  0  0  0  0
  149.2803  143.0295  157.8094 N   0  0  0  0  0  0  0  0  0  0  0  0
  150.4274  142.2222  157.3987 C   0  0  2  0  0  0  0  0  0  0  0  0
  150.1069  141.5576  156.0452 C   0  0  0  0  0  0  0  0  0  0  0  0
  151.2344  140.6193  155.5876 C   0  0  0  0  0  0  0  0  0  0  0  0
  151.5404  139.5601  156.6563 C   0  0  0  0  0  0  0  0  0  0  0  0
  151.8818  140.2205  157.9995 C   0  0  0  0  0  0  0  0  0  0  0  0
  150.7556  141.1571  158.4725 C   0  0  1  0  0  0  0  0  0  0  0  0
  151.2177  141.8004  159.6550 O   0  0  0  0  0  0  0  0  0  0  0  0
  152.4159  142.5531  159.5034 C   0  0  0  0  0  0  0  0  0  0  0  0
  153.0767  142.6707  160.8775 C   0  0  0  0  0  0  0  0  0  0  0  0
  152.3780  143.8466  161.5733 C   0  0  0  0  0  0  0  0  0  0  0  0
  151.6764  144.6509  160.4677 C   0  0  0  0  0  0  0  0  0  0  0  0
  152.0951  144.0065  159.1434 C   0  0  0  0  0  0  0  0  0  0  0  0
  145.8742  143.5988  160.5415 C   0  0  0  0  0  0  0  0  0  0  0  0
  146.8703  143.7187  161.2595 O   0  0  0  0  0  0  0  0  0  0  0  0
  143.3935  143.5828  162.8303 H   0  0  0  0  0  0  0  0  0  0  0  0
  144.8395  144.5768  162.9086 H   0  0  0  0  0  0  0  0  0  0  0  0
  144.9621  142.8182  163.0319 H   0  0  0  0  0  0  0  0  0  0  0  0
  142.5306  143.3837  160.8309 H   0  0  0  0  0  0  0  0  0  0  0  0
  142.6368  143.2159  158.3597 H   0  0  0  0  0  0  0  0  0  0  0  0
  144.8632  143.2679  157.2554 H   0  0  0  0  0  0  0  0  0  0  0  0
  147.5526  144.4716  158.2370 H   0  0  0  0  0  0  0  0  0  0  0  0
  149.3441  144.0220  157.6375 H   0  0  0  0  0  0  0  0  0  0  0  0
  151.3010  142.8616  157.2575 H   0  0  0  0  0  0  0  0  0  0  0  0
  149.1786  140.9896  156.1227 H   0  0  0  0  0  0  0  0  0  0  0  0
  149.9373  142.3218  155.2857 H   0  0  0  0  0  0  0  0  0  0  0  0
  150.9574  140.1338  154.6513 H   0  0  0  0  0  0  0  0  0  0  0  0
  152.1332  141.2013  155.3802 H   0  0  0  0  0  0  0  0  0  0  0  0
  150.6795  138.9019  156.7796 H   0  0  0  0  0  0  0  0  0  0  0  0
  152.3685  138.9303  156.3303 H   0  0  0  0  0  0  0  0  0  0  0  0
  152.0678  139.4533  158.7516 H   0  0  0  0  0  0  0  0  0  0  0  0
  152.8099  140.7849  157.9002 H   0  0  0  0  0  0  0  0  0  0  0  0
  149.8664  140.5524  158.6653 H   0  0  0  0  0  0  0  0  0  0  0  0
  153.0873  142.0801  158.7852 H   0  0  0  0  0  0  0  0  0  0  0  0
  153.0203  141.7454  161.4520 H   0  0  0  0  0  0  0  0  0  0  0  0
  154.1333  142.9075  160.7481 H   0  0  0  0  0  0  0  0  0  0  0  0
  151.6428  143.4828  162.2921 H   0  0  0  0  0  0  0  0  0  0  0  0
  153.0965  144.4566  162.1221 H   0  0  0  0  0  0  0  0  0  0  0  0
  150.5953  144.5697  160.5890 H   0  0  0  0  0  0  0  0  0  0  0  0
  151.9304  145.7107  160.5020 H   0  0  0  0  0  0  0  0  0  0  0  0
  152.9996  144.4925  158.7750 H   0  0  0  0  0  0  0  0  0  0  0  0
  151.3348  144.1061  158.3686 H   0  0  0  0  0  0  0  0  0  0  0  0
  1  2  1  0  0  0  0
  1 25  1  0  0  0  0
  1 26  1  0  0  0  0
  1 27  1  0  0  0  0
  2 23  1  0  0  0  0
  2  3  1  0  0  0  0
  3  4  2  0  0  0  0
  3 28  1  0  0  0  0
  4  5  1  0  0  0  0
  4 29  1  0  0  0  0
  5  6  2  0  0  0  0
  5 30  1  0  0  0  0
  6  7  1  0  0  0  0
  6 23  1  0  0  0  0
  7  8  1  0  0  0  0
  7 31  1  0  0  0  0
  8  9  2  0  0  0  0
  8 10  1  0  0  0  0
 10 11  1  0  0  0  0
 10 32  1  0  0  0  0
 11 16  1  0  0  0  0
 11 12  1  0  0  0  0
 11 33  1  0  0  0  0
 12 13  1  0  0  0  0
 12 34  1  0  0  0  0
 12 35  1  0  0  0  0
 13 14  1  0  0  0  0
 13 36  1  0  0  0  0
 13 37  1  0  0  0  0
 14 15  1  0  0  0  0
 14 38  1  0  0  0  0
 14 39  1  0  0  0  0
 15 16  1  0  0  0  0
 15 40  1  0  0  0  0
 15 41  1  0  0  0  0
 16 17  1  0  0  0  0
 16 42  1  0  0  0  0
 17 18  1  0  0  0  0
 18 22  1  0  0  0  0
 18 19  1  0  0  0  0
 18 43  1  0  0  0  0
 19 20  1  0  0  0  0
 19 44  1  0  0  0  0
 19 45  1  0  0  0  0
 20 21  1  0  0  0  0
 20 46  1  0  0  0  0
 20 47  1  0  0  0  0
 21 22  1  0  0  0  0
 21 48  1  0  0  0  0
 21 49  1  0  0  0  0
 22 50  1  0  0  0  0
 22 51  1  0  0  0  0
 23 24  2  0  0  0  0
M  END
> <s_m_source_file>
AV-unprocessed.smi

> <i_m_source_file_index>
2477

> <i_lp_mmshare_version>
43012

> <i_f3d_flags>
0

> <s_epik_input>
W0NIM11uMVtjSF1bY0hdW2NIXWMoYzE9TylbTkhdQyg9TylbTkhdW0NAQEhdMltDSDJdW0NIMl1bQ0gyXVtDSDJdW0NASF0yT1tDSF0zW0NIMl1bQ0gyXVtDSDJdW0NIMl0z

> <s_epik_cmdline>
J2VwaWtfcHl0aG9uJywgJy1waCcsICc3LjAnLCAnLXRuJywgJzgnLCAnLW1hJywgJzIwMCcsICctbWV0YWxfYmluZGluZycsICctaW1hZScsICc8aW5maWxlLm1hZT4nLCAnLW9tYWUnLCAnPG91dGZpbGUubWFlPic=

> <r_lp_tautomer_probability>
1

> <r_epik_Ionization_Penalty>
2.40753e-05

> <r_epik_Ionization_Penalty_Charging>
4.84018e-06

> <r_epik_Ionization_Penalty_Neutral>
1.92352e-05

> <r_epik_State_Penalty>
-0

> <r_epik_Charging_Adjusted_Penalty>
4.84018e-06

> <i_epik_Tot_Q>
0

> <i_epik_Tot_abs_Q>
0

> <r_epik_Metal_State_Penalty>
-0

> <b_epik_Metal_Only>
0

> <s_lp_Force_Field>
OPLS_2005

> <r_lp_Energy>
41.4176

> <b_lp_Chiralities_Consistent>
1

> <s_lp_Variant>
AV-unprocessed.smi:2477-1

> <Gold.Version>
5.8.1

> <Gold.Id.Protein>
6NUR|6NUR_protein|mol2

> <Gold.PLP.Fitness>
51.3637

> <Gold.PLP.PLP>
-47.4739

> <Gold.PLP.part.hbond>
-5.3069

> <Gold.PLP.part.metal>
0.0000

> <Gold.PLP.part.buried>
-4.8758

> <Gold.PLP.part.nonpolar>
-37.6969

> <Gold.PLP.part.repulsive>
0.2441

> <Gold.PLP.ligand.clash>
0.0000

> <Gold.PLP.ligand.torsion>
1.3016

> <Gold.PLP.Chemscore.Hbond>
2.1201

> <Gold.PLP.Chemscore.CHOScore>
0.0000

> <Gold.PLP.Chemscore.Metal>
0.0000

> <Gold.Chemscore.Hbonds>
donor molecule, donor type, donor heavy atom, donor atom, acceptor molecule, acceptor atom, score
      L1  H     7    31       P1  8029  1.00
      L1  H    10    32       P1  8028  0.24
      P1  H  6933  6944       L1    24  0.76
      P1  H  6934  6946       L1     9  0.01

> <Gold.PLP.Chemscore.Internal.Correction>
0.1326

> <Gold.Rescore>
     Score         DG    S(hbond)    S(metal)    S(lipo)     H(rot)  DE(clash)    DE(int)     intcor
     18.69     -21.43       1.92        0.00     111.25       1.36       0.12       2.62       ----

> <Gold.Chemscore.Fitness>
18.6897

> <Gold.Chemscore.DG>
-21.4270

> <Gold.Chemscore.ZeroCoef>
-5.4800

> <Gold.Chemscore.Hbond>
1.9172

> <Gold.Chemscore.Metal>
0.0000

> <Gold.Chemscore.Lipo>
111.2473

> <Gold.Chemscore.Internal_Hbond>
0.0000

> <Gold.Chemscore.DEClash>
0.1191

> <Gold.Chemscore.DEInternal>
2.6182

> <Gold.Chemscore.Rot>
1.3564

> <Gold.Chemscore.Internal.Correction>
   9.000000E+99

> <Gold.Chemscore.Hbonds>
donor molecule, donor type, donor heavy atom, donor atom, acceptor molecule, acceptor atom, score
      L1  H     7    31       P1  8029  0.74
      L1  H    10    32       P1  8028  0.03
      P1  H  6933  6944       L1    24  0.77
      P1  H  6934  6946       L1     9  0.01

> <Gold.Chemscore.Hbond.Weighted>
-6.4035

> <Gold.Chemscore.Metal.Weighted>
-0.0000

> <Gold.Chemscore.Lipo.Weighted>
-13.0159

> <Gold.Chemscore.Internal_Hbond.Weighted>
0.0000

> <Gold.Chemscore.DEClash.Weighted>
0.1191

> <Gold.Chemscore.DEInternal.Weighted>
2.6182

> <Gold.Chemscore.Rot.Weighted>
3.4724

> <Gold.Chemscore.Internal.Correction.Weighted>
   9.000000E+99

> <Gold.Protein.RotatedTorsions>
[ 6907 6896 6895 6894 ] final  -38.77 input  -60.11 | X-H torsion
[ 7974 7965 7964 7962 ] final -179.81 input  175.53 | X-H torsion
[ 8008 7997 7996 7995 ] final    5.25 input   59.86 | X-H torsion
[ 10167 10162 10161 10158 ] final   -5.03 input  -65.29 | X-H torsion
[ 10718 10713 10712 10709 ] final  -57.77 input   66.30 | X-H torsion
[ 10763 10752 10751 10750 ] final   -6.90 input  -60.55 | X-H torsion
[ 11005 11000 10999 10996 ] final  -77.71 input  -57.11 | X-H torsion

> <Gold.Protein.ActiveResidues>
 VAL166  LYS551  ARG553  GLY616  TRP617  ASP618  TYR619  PRO620  LYS621  CYS622 
 ASP623  PHE694  ASN695  SER759  ASP760  ASP761  ALA762  ILE779  LEU786  VAL792 
 PHE793  MET794  SER795  GLU796  ALA797  LYS798  CYS799  TRP800  GLU811  SER814 

> <Gold.Protein.RotatedAtoms>
  150.9984  134.9302  159.7939 H   0  0  0  0  0  0  0  0  0  0  0  0  # atno 6907 bound_to 6896
  152.5271  134.3188  159.9150 H   0  0  0  0  0  0  0  0  0  0  0  0  # atno 6908 bound_to 6896
  151.3193  133.4005  159.2687 H   0  0  0  0  0  0  0  0  0  0  0  0  # atno 6909 bound_to 6896
  144.7139  140.0662  143.6431 H   0  0  0  0  0  0  0  0  0  0  0  0  # atno 7974 bound_to 7965
  154.7260  140.2721  155.6499 H   0  0  0  0  0  0  0  0  0  0  0  0  # atno 8008 bound_to 7997
  156.2837  140.2725  156.1870 H   0  0  0  0  0  0  0  0  0  0  0  0  # atno 8009 bound_to 7997
  155.0445  140.0371  157.2511 H   0  0  0  0  0  0  0  0  0  0  0  0  # atno 8010 bound_to 7997
  140.6949  143.6355  150.8483 H   0  0  0  0  0  0  0  0  0  0  0  0  # atno 10167 bound_to 10162
  156.1185  130.4168  150.0486 H   0  0  0  0  0  0  0  0  0  0  0  0  # atno 10718 bound_to 10713
  153.4188  135.7009  153.6308 H   0  0  0  0  0  0  0  0  0  0  0  0  # atno 10763 bound_to 10752
  153.4771  135.3702  155.2422 H   0  0  0  0  0  0  0  0  0  0  0  0  # atno 10764 bound_to 10752
  154.8721  135.4057  154.3553 H   0  0  0  0  0  0  0  0  0  0  0  0  # atno 10765 bound_to 10752
  141.1661  133.7033  156.7862 H   0  0  0  0  0  0  0  0  0  0  0  0  # atno 11005 bound_to 11000
  145.9822  139.2950  143.1035 LP  0  0  0  0  0  0  0  0  0  0  0  0  # atno 17320 bound_to 7965
  145.8998  140.9250  143.0509 LP  0  0  0  0  0  0  0  0  0  0  0  0  # atno 17321 bound_to 7965
  140.0072  143.5681  152.2853 LP  0  0  0  0  0  0  0  0  0  0  0  0  # atno 17342 bound_to 10162
  139.6392  144.7653  151.2374 LP  0  0  0  0  0  0  0  0  0  0  0  0  # atno 17343 bound_to 10162
  156.8431  130.9432  151.3630 LP  0  0  0  0  0  0  0  0  0  0  0  0  # atno 17370 bound_to 10713
  157.6369  130.8774  149.9375 LP  0  0  0  0  0  0  0  0  0  0  0  0  # atno 17371 bound_to 10713
  140.2359  134.8651  157.3524 LP  0  0  0  0  0  0  0  0  0  0  0  0  # atno 17394 bound_to 11000
  140.1844  134.4449  155.7752 LP  0  0  0  0  0  0  0  0  0  0  0  0  # atno 17395 bound_to 11000

$$$$
