AV-unprocessed.smi:1082|AV-procd|sdf|4712|dock3
  -GOLD-   22720 3233D 1   1.00000     0.00000
 Structure written by MMmdl.
 48 50  0  0  0  0  0  0  0  0  2 V2000
  145.1903  137.7317  153.7654 O   0  0  0  0  0  0  0  0  0  0  0  0
  146.1919  137.2630  153.2243 C   0  0  0  0  0  0  0  0  0  0  0  0
  146.2317  136.0397  152.6782 N   0  0  0  0  0  0  0  0  0  0  0  0
  145.1106  135.1084  152.6394 C   0  0  0  0  0  0  0  0  0  0  0  0
  144.1308  135.4603  151.5051 C   0  0  0  0  0  0  0  0  0  0  0  0
  143.6857  134.2618  150.7558 N   0  3  0  0  0  0  0  0  0  0  0  0
  144.4987  133.9607  149.5526 C   0  0  0  0  0  0  0  0  0  0  0  0
  144.7789  132.4526  149.5667 C   0  0  0  0  0  0  0  0  0  0  0  0
  143.7597  131.8859  150.5479 C   0  0  0  0  0  0  0  0  0  0  0  0
  143.5946  133.0199  151.5539 C   0  0  0  0  0  0  0  0  0  0  0  0
  147.3642  137.9014  153.0764 N   0  0  0  0  0  0  0  0  0  0  0  0
  147.7026  139.2176  153.4988 C   0  0  0  0  0  0  0  0  0  0  0  0
  146.7966  140.3020  153.4106 C   0  0  0  0  0  0  0  0  0  0  0  0
  147.1964  141.5680  153.8752 C   0  0  0  0  0  0  0  0  0  0  0  0
  148.4855  141.7040  154.4204 C   0  0  0  0  0  0  0  0  0  0  0  0
  149.3544  140.6777  154.5255 N   0  0  0  0  0  0  0  0  0  0  0  0
  148.9770  139.4567  154.0747 C   0  0  0  0  0  0  0  0  0  0  0  0
  149.8905  138.3967  154.2205 N   0  0  0  0  0  0  0  0  0  0  0  0
  149.4610  137.3599  155.1526 C   0  0  0  0  0  0  0  0  0  0  0  0
  150.6459  137.0933  156.0855 C   0  0  0  0  0  0  0  0  0  0  0  0
  151.8486  137.5521  155.2693 C   0  0  0  0  0  0  0  0  0  0  0  0
  151.2834  138.7382  154.4919 C   0  0  0  0  0  0  0  0  0  0  0  0
  147.0957  135.7356  152.2531 H   0  0  0  0  0  0  0  0  0  0  0  0
  145.5192  134.1084  152.4950 H   0  0  0  0  0  0  0  0  0  0  0  0
  144.5962  135.0987  153.6020 H   0  0  0  0  0  0  0  0  0  0  0  0
  143.2493  135.9445  151.9285 H   0  0  0  0  0  0  0  0  0  0  0  0
  144.5828  136.1773  150.8179 H   0  0  0  0  0  0  0  0  0  0  0  0
  143.9269  134.2435  148.6683 H   0  0  0  0  0  0  0  0  0  0  0  0
  145.4340  134.5224  149.5333 H   0  0  0  0  0  0  0  0  0  0  0  0
  144.7075  132.0009  148.5769 H   0  0  0  0  0  0  0  0  0  0  0  0
  145.7864  132.2704  149.9434 H   0  0  0  0  0  0  0  0  0  0  0  0
  142.8140  131.6988  150.0373 H   0  0  0  0  0  0  0  0  0  0  0  0
  144.0858  130.9530  151.0087 H   0  0  0  0  0  0  0  0  0  0  0  0
  144.4086  132.9837  152.2801 H   0  0  0  0  0  0  0  0  0  0  0  0
  142.6521  132.9572  152.0988 H   0  0  0  0  0  0  0  0  0  0  0  0
  148.0628  137.4345  152.5165 H   0  0  0  0  0  0  0  0  0  0  0  0
  145.8011  140.1797  153.0119 H   0  0  0  0  0  0  0  0  0  0  0  0
  146.5270  142.4139  153.8207 H   0  0  0  0  0  0  0  0  0  0  0  0
  148.8254  142.6600  154.7900 H   0  0  0  0  0  0  0  0  0  0  0  0
  148.5685  137.6393  155.7150 H   0  0  0  0  0  0  0  0  0  0  0  0
  149.2225  136.4647  154.5781 H   0  0  0  0  0  0  0  0  0  0  0  0
  150.5545  137.7100  156.9808 H   0  0  0  0  0  0  0  0  0  0  0  0
  150.7135  136.0513  156.3993 H   0  0  0  0  0  0  0  0  0  0  0  0
  152.7086  137.8174  155.8845 H   0  0  0  0  0  0  0  0  0  0  0  0
  152.1528  136.7631  154.5800 H   0  0  0  0  0  0  0  0  0  0  0  0
  151.8297  138.9017  153.5629 H   0  0  0  0  0  0  0  0  0  0  0  0
  151.3669  139.6456  155.0906 H   0  0  0  0  0  0  0  0  0  0  0  0
  142.7540  134.4524  150.4153 H   0  0  0  0  0  0  0  0  0  0  0  0
  1  2  2  0  0  0  0
  2  3  1  0  0  0  0
  2 11  1  0  0  0  0
  3  4  1  0  0  0  0
  3 23  1  0  0  0  0
  4  5  1  0  0  0  0
  4 24  1  0  0  0  0
  4 25  1  0  0  0  0
  5  6  1  0  0  0  0
  5 26  1  0  0  0  0
  5 27  1  0  0  0  0
  6 10  1  0  0  0  0
  6  7  1  0  0  0  0
  6 48  1  0  0  0  0
  7  8  1  0  0  0  0
  7 28  1  0  0  0  0
  7 29  1  0  0  0  0
  8  9  1  0  0  0  0
  8 30  1  0  0  0  0
  8 31  1  0  0  0  0
  9 10  1  0  0  0  0
  9 32  1  0  0  0  0
  9 33  1  0  0  0  0
 10 34  1  0  0  0  0
 10 35  1  0  0  0  0
 11 12  1  0  0  0  0
 11 36  1  0  0  0  0
 12 17  1  0  0  0  0
 12 13  2  0  0  0  0
 13 14  1  0  0  0  0
 13 37  1  0  0  0  0
 14 15  2  0  0  0  0
 14 38  1  0  0  0  0
 15 16  1  0  0  0  0
 15 39  1  0  0  0  0
 16 17  2  0  0  0  0
 17 18  1  0  0  0  0
 18 22  1  0  0  0  0
 18 19  1  0  0  0  0
 19 20  1  0  0  0  0
 19 40  1  0  0  0  0
 19 41  1  0  0  0  0
 20 21  1  0  0  0  0
 20 42  1  0  0  0  0
 20 43  1  0  0  0  0
 21 22  1  0  0  0  0
 21 44  1  0  0  0  0
 21 45  1  0  0  0  0
 22 46  1  0  0  0  0
 22 47  1  0  0  0  0
M  CHG  1   6   1
M  END
> <s_m_source_file>
AV-unprocessed.smi

> <i_m_source_file_index>
1082

> <i_lp_mmshare_version>
43012

> <i_f3d_flags>
0

> <s_epik_input>
W0NIMl0xW0NIMl1bQ0gyXVtDSDJdTjFbQ0gyXVtDSDJdW05IXUMoPU8pW05IXWMyW2NIXVtjSF1bY0hdbmMyTjNbQ0gyXVtDSDJdW0NIMl1bQ0gyXTM=

> <s_epik_cmdline>
J2VwaWtfcHl0aG9uJywgJy1waCcsICc3LjAnLCAnLXRuJywgJzgnLCAnLW1hJywgJzIwMCcsICctbWV0YWxfYmluZGluZycsICctaW1hZScsICc8aW5maWxlLm1hZT4nLCAnLW9tYWUnLCAnPG91dGZpbGUubWFlPic=

> <r_lp_tautomer_probability>
1

> <r_epik_Ionization_Penalty>
0.0844881

> <r_epik_Ionization_Penalty_Charging>
0.00210487

> <r_epik_Ionization_Penalty_Neutral>
0.0823833

> <r_epik_State_Penalty>
0.0725565

> <r_epik_Charging_Adjusted_Penalty>
0.0746613

> <i_epik_Tot_Q>
1

> <i_epik_Tot_abs_Q>
1

> <r_epik_Metal_State_Penalty>
0.064294

> <b_epik_Metal_Only>
0

> <s_lp_Force_Field>
OPLS_2005

> <r_lp_Energy>
55.3809

> <b_lp_Chiralities_Consistent>
1

> <s_lp_Variant>
AV-unprocessed.smi:1082-1

> <Gold.Version>
5.8.1

> <Gold.Id.Protein>
6NUR|6NUR_protein|mol2

> <Gold.PLP.Fitness>
47.0504

> <Gold.PLP.PLP>
-34.9116

> <Gold.PLP.part.hbond>
-3.2104

> <Gold.PLP.part.metal>
0.0000

> <Gold.PLP.part.buried>
0.1402

> <Gold.PLP.part.nonpolar>
-31.4932

> <Gold.PLP.part.repulsive>
0.5541

> <Gold.PLP.ligand.clash>
0.0000

> <Gold.PLP.ligand.torsion>
1.3917

> <Gold.PLP.Chemscore.Hbond>
3.9280

> <Gold.PLP.Chemscore.CHOScore>
1.0000

> <Gold.PLP.Chemscore.Metal>
0.0000

> <Gold.Chemscore.Hbonds>
donor molecule, donor type, donor heavy atom, donor atom, acceptor molecule, acceptor atom, score
      L1  H     3    23       P1  7948  0.93
      L1  H     6    48       P1 10186  2.00
      L1  H    11    36       P1  7948  1.00
      L1  C    15    39       P1  8028  1.00

> <Gold.PLP.Chemscore.Internal.Correction>
0.1382

> <Gold.Rescore>
     Score         DG    S(hbond)    S(metal)    S(lipo)     H(rot)  DE(clash)    DE(int)     intcor
     18.03     -21.75       2.77        0.00      94.97       1.60       1.40       2.31       ----

> <Gold.Chemscore.Fitness>
18.0336

> <Gold.Chemscore.DG>
-21.7478

> <Gold.Chemscore.ZeroCoef>
-5.4800

> <Gold.Chemscore.Hbond>
2.7699

> <Gold.Chemscore.Metal>
0.0000

> <Gold.Chemscore.Lipo>
94.9745

> <Gold.Chemscore.Internal_Hbond>
0.0000

> <Gold.Chemscore.DEClash>
1.4017

> <Gold.Chemscore.DEInternal>
2.3125

> <Gold.Chemscore.Rot>
1.5998

> <Gold.Chemscore.Internal.Correction>
   9.000000E+99

> <Gold.Chemscore.Hbonds>
donor molecule, donor type, donor heavy atom, donor atom, acceptor molecule, acceptor atom, score
      L1  H     3    23       P1  7948  0.89
      L1  H     6    48       P1 10186  0.60
      L1  H    11    36       P1  7948  0.99

> <Gold.Chemscore.Hbond.Weighted>
-9.2514

> <Gold.Chemscore.Metal.Weighted>
-0.0000

> <Gold.Chemscore.Lipo.Weighted>
-11.1120

> <Gold.Chemscore.Internal_Hbond.Weighted>
0.0000

> <Gold.Chemscore.DEClash.Weighted>
1.4017

> <Gold.Chemscore.DEInternal.Weighted>
2.3125

> <Gold.Chemscore.Rot.Weighted>
4.0956

> <Gold.Chemscore.Internal.Correction.Weighted>
   9.000000E+99

> <Gold.Protein.RotatedTorsions>
[ 6907 6896 6895 6894 ] final  -23.81 input  -60.11 | X-H torsion
[ 7974 7965 7964 7962 ] final  105.31 input  175.53 | X-H torsion
[ 8008 7997 7996 7995 ] final  -12.10 input   59.86 | X-H torsion
[ 10167 10162 10161 10158 ] final   97.73 input  -65.29 | X-H torsion
[ 10718 10713 10712 10709 ] final  112.27 input   66.30 | X-H torsion
[ 10763 10752 10751 10750 ] final  -63.55 input  -60.55 | X-H torsion
[ 11005 11000 10999 10996 ] final  -43.56 input  -57.11 | X-H torsion

> <Gold.Protein.ActiveResidues>
 VAL166  LYS551  ARG553  GLY616  TRP617  ASP618  TYR619  PRO620  LYS621  CYS622 
 ASP623  PHE694  ASN695  SER759  ASP760  ASP761  ALA762  ILE779  LEU786  VAL792 
 PHE793  MET794  SER795  GLU796  ALA797  LYS798  CYS799  TRP800  GLU811  SER814 

> <Gold.Protein.RotatedAtoms>
  151.1985  135.0433  159.8862 H   0  0  0  0  0  0  0  0  0  0  0  0  # atno 6907 bound_to 6896
  152.5434  134.0876  159.8273 H   0  0  0  0  0  0  0  0  0  0  0  0  # atno 6908 bound_to 6896
  151.1014  133.5193  159.2642 H   0  0  0  0  0  0  0  0  0  0  0  0  # atno 6909 bound_to 6896
  145.3213  139.2512  143.3710 H   0  0  0  0  0  0  0  0  0  0  0  0  # atno 7974 bound_to 7965
  154.5407  140.2285  155.8647 H   0  0  0  0  0  0  0  0  0  0  0  0  # atno 8008 bound_to 7997
  156.1855  140.3090  155.9192 H   0  0  0  0  0  0  0  0  0  0  0  0  # atno 8009 bound_to 7997
  155.3264  140.0443  157.3032 H   0  0  0  0  0  0  0  0  0  0  0  0  # atno 8010 bound_to 7997
  139.7774  144.6901  151.0070 H   0  0  0  0  0  0  0  0  0  0  0  0  # atno 10167 bound_to 10162
  157.6401  131.0965  150.6871 H   0  0  0  0  0  0  0  0  0  0  0  0  # atno 10718 bound_to 10713
  154.3167  135.6204  153.5489 H   0  0  0  0  0  0  0  0  0  0  0  0  # atno 10763 bound_to 10752
  152.9824  135.5714  154.5116 H   0  0  0  0  0  0  0  0  0  0  0  0  # atno 10764 bound_to 10752
  154.4776  135.2862  155.1572 H   0  0  0  0  0  0  0  0  0  0  0  0  # atno 10765 bound_to 10752
  141.0392  133.6787  156.2750 H   0  0  0  0  0  0  0  0  0  0  0  0  # atno 11005 bound_to 11000
  146.3081  140.3771  142.8680 LP  0  0  0  0  0  0  0  0  0  0  0  0  # atno 17320 bound_to 7965
  144.8937  140.7556  143.5911 LP  0  0  0  0  0  0  0  0  0  0  0  0  # atno 17321 bound_to 7965
  140.7817  143.4521  151.0398 LP  0  0  0  0  0  0  0  0  0  0  0  0  # atno 17342 bound_to 10162
  139.8202  143.7830  152.3176 LP  0  0  0  0  0  0  0  0  0  0  0  0  # atno 17343 bound_to 10162
  156.7196  130.4676  149.5526 LP  0  0  0  0  0  0  0  0  0  0  0  0  # atno 17370 bound_to 10713
  156.1674  130.6414  151.0795 LP  0  0  0  0  0  0  0  0  0  0  0  0  # atno 17371 bound_to 10713
  140.6265  134.5307  157.5554 LP  0  0  0  0  0  0  0  0  0  0  0  0  # atno 17394 bound_to 11000
  139.9263  134.8049  156.1059 LP  0  0  0  0  0  0  0  0  0  0  0  0  # atno 17395 bound_to 11000

$$$$
