AV-unprocessed.smi:3274|AV-procd|sdf|12526|dock2
  -GOLD-   2272018443D 1   1.00000     0.00000
 Structure written by MMmdl.
 43 44  0  0  0  0  0  0  0  0  2 V2000
  145.1395  134.8958  153.3460 C   0  0  0  0  0  0  0  0  0  0  0  0
  145.0666  133.8627  152.2335 C   0  0  0  0  0  0  0  0  0  0  0  0
  144.2260  134.0269  151.1929 C   0  0  0  0  0  0  0  0  0  0  0  0
  144.0361  133.0266  150.0657 C   0  0  0  0  0  0  0  0  0  0  0  0
  145.0310  131.8551  150.1197 C   0  0  0  0  0  0  0  0  0  0  0  0
  145.3294  131.4346  151.5694 C   0  0  1  0  0  0  0  0  0  0  0  0
  146.1346  130.1256  151.6396 C   0  0  0  0  0  0  0  0  0  0  0  0
  145.9465  132.6135  152.3739 C   0  0  1  0  0  0  0  0  0  0  0  0
  147.4240  132.8956  151.9955 C   0  0  0  0  0  0  0  0  0  0  0  0
  148.0827  133.8387  152.9228 N   0  3  0  0  0  0  0  0  0  0  0  0
  149.2576  133.2993  153.6449 C   0  0  1  0  0  0  0  0  0  0  0  0
  149.6128  134.1863  154.8495 C   0  0  0  0  0  0  0  0  0  0  0  0
  148.9848  131.8496  154.0985 C   0  0  0  0  0  0  0  0  0  0  0  0
  150.1547  131.1893  154.6548 N   0  0  0  0  0  0  0  0  0  0  0  0
  151.0489  131.6239  155.5443 C   0  0  0  0  0  0  0  0  0  0  0  0
  152.0155  130.7542  155.8015 N   0  0  0  0  0  0  0  0  0  0  0  0
  151.6415  129.7415  154.9644 C   0  0  0  0  0  0  0  0  0  0  0  0
  150.5369  129.9547  154.2492 N   0  0  0  0  0  0  0  0  0  0  0  0
  145.0570  134.4150  154.3210 H   0  0  0  0  0  0  0  0  0  0  0  0
  144.3248  135.6161  153.2636 H   0  0  0  0  0  0  0  0  0  0  0  0
  146.0708  135.4580  153.3104 H   0  0  0  0  0  0  0  0  0  0  0  0
  143.6044  134.9091  151.1427 H   0  0  0  0  0  0  0  0  0  0  0  0
  143.0175  132.6446  150.1400 H   0  0  0  0  0  0  0  0  0  0  0  0
  144.1104  133.5396  149.1066 H   0  0  0  0  0  0  0  0  0  0  0  0
  144.6284  131.0150  149.5529 H   0  0  0  0  0  0  0  0  0  0  0  0
  145.9575  132.1373  149.6191 H   0  0  0  0  0  0  0  0  0  0  0  0
  144.3676  131.2107  152.0349 H   0  0  0  0  0  0  0  0  0  0  0  0
  147.0665  130.1869  151.0781 H   0  0  0  0  0  0  0  0  0  0  0  0
  145.5622  129.2984  151.2187 H   0  0  0  0  0  0  0  0  0  0  0  0
  146.3749  129.8649  152.6707 H   0  0  0  0  0  0  0  0  0  0  0  0
  145.9207  132.3187  153.4243 H   0  0  0  0  0  0  0  0  0  0  0  0
  148.0081  131.9766  152.0165 H   0  0  0  0  0  0  0  0  0  0  0  0
  147.4789  133.2840  150.9791 H   0  0  0  0  0  0  0  0  0  0  0  0
  148.3622  134.6657  152.4148 H   0  0  0  0  0  0  0  0  0  0  0  0
  150.1111  133.2905  152.9650 H   0  0  0  0  0  0  0  0  0  0  0  0
  150.4624  133.7773  155.3973 H   0  0  0  0  0  0  0  0  0  0  0  0
  148.7769  134.2629  155.5458 H   0  0  0  0  0  0  0  0  0  0  0  0
  149.8852  135.1962  154.5440 H   0  0  0  0  0  0  0  0  0  0  0  0
  148.2021  131.8339  154.8581 H   0  0  0  0  0  0  0  0  0  0  0  0
  148.6181  131.2541  153.2609 H   0  0  0  0  0  0  0  0  0  0  0  0
  150.9922  132.5947  156.0144 H   0  0  0  0  0  0  0  0  0  0  0  0
  152.2002  128.8210  154.8779 H   0  0  0  0  0  0  0  0  0  0  0  0
  147.3941  134.1037  153.6128 H   0  0  0  0  0  0  0  0  0  0  0  0
  1  2  1  0  0  0  0
  1 19  1  0  0  0  0
  1 20  1  0  0  0  0
  1 21  1  0  0  0  0
  2  8  1  0  0  0  0
  2  3  2  0  0  0  0
  3  4  1  0  0  0  0
  3 22  1  0  0  0  0
  4  5  1  0  0  0  0
  4 23  1  0  0  0  0
  4 24  1  0  0  0  0
  5  6  1  0  0  0  0
  5 25  1  0  0  0  0
  5 26  1  0  0  0  0
  6  7  1  0  0  0  0
  6  8  1  0  0  0  0
  6 27  1  0  0  0  0
  7 28  1  0  0  0  0
  7 29  1  0  0  0  0
  7 30  1  0  0  0  0
  8  9  1  0  0  0  0
  8 31  1  0  0  0  0
  9 10  1  0  0  0  0
  9 32  1  0  0  0  0
  9 33  1  0  0  0  0
 10 11  1  0  0  0  0
 10 34  1  0  0  0  0
 10 43  1  0  0  0  0
 11 12  1  0  0  0  0
 11 13  1  0  0  0  0
 11 35  1  0  0  0  0
 12 36  1  0  0  0  0
 12 37  1  0  0  0  0
 12 38  1  0  0  0  0
 13 14  1  0  0  0  0
 13 39  1  0  0  0  0
 13 40  1  0  0  0  0
 14 18  1  0  0  0  0
 14 15  1  0  0  0  0
 15 16  2  0  0  0  0
 15 41  1  0  0  0  0
 16 17  1  0  0  0  0
 17 18  2  0  0  0  0
 17 42  1  0  0  0  0
M  CHG  1  10   1
M  END
> <s_m_source_file>
AV-unprocessed.smi

> <i_m_source_file_index>
3274

> <i_lp_mmshare_version>
43012

> <i_f3d_flags>
0

> <s_epik_input>
W0NIM11DMT1bQ0hdW0NIMl1bQ0gyXVtDQEBIXShbQ0gzXSlbQ0BIXTFbQ0gyXVtOSF1bQ0BIXShbQ0gzXSlbQ0gyXW4yW2NIXW5bY0hdbjI=

> <s_epik_cmdline>
J2VwaWtfcHl0aG9uJywgJy1waCcsICc3LjAnLCAnLXRuJywgJzgnLCAnLW1hJywgJzIwMCcsICctbWV0YWxfYmluZGluZycsICctaW1hZScsICc8aW5maWxlLm1hZT4nLCAnLW9tYWUnLCAnPG91dGZpbGUubWFlPic=

> <r_lp_tautomer_probability>
1

> <r_epik_Ionization_Penalty>
0.0017527

> <r_epik_Ionization_Penalty_Charging>
0.00175191

> <r_epik_Ionization_Penalty_Neutral>
7.94565e-07

> <r_epik_State_Penalty>
0.00118605

> <r_epik_Charging_Adjusted_Penalty>
0.00293796

> <i_epik_Tot_Q>
1

> <i_epik_Tot_abs_Q>
1

> <r_epik_Metal_State_Penalty>
-0

> <b_epik_Metal_Only>
0

> <s_lp_Force_Field>
OPLS_2005

> <r_lp_Energy>
18.0154

> <b_lp_Chiralities_Consistent>
1

> <s_lp_Variant>
AV-unprocessed.smi:3274-5

> <Gold.Version>
5.8.1

> <Gold.Id.Protein>
6NUR|6NUR_protein|mol2

> <Gold.PLP.Fitness>
39.9504

> <Gold.PLP.PLP>
-35.2851

> <Gold.PLP.part.hbond>
-1.0000

> <Gold.PLP.part.metal>
0.0000

> <Gold.PLP.part.buried>
-3.6936

> <Gold.PLP.part.nonpolar>
-29.9235

> <Gold.PLP.part.repulsive>
0.0880

> <Gold.PLP.ligand.clash>
0.0000

> <Gold.PLP.ligand.torsion>
0.7212

> <Gold.PLP.Chemscore.Hbond>
2.0000

> <Gold.PLP.Chemscore.CHOScore>
0.0000

> <Gold.PLP.Chemscore.Metal>
0.0000

> <Gold.Chemscore.Hbonds>
donor molecule, donor type, donor heavy atom, donor atom, acceptor molecule, acceptor atom, score
      L1  H    10    34       P1  7948  1.80

> <Gold.PLP.Chemscore.Internal.Correction>
0.1077

> <Gold.Rescore>
     Score         DG    S(hbond)    S(metal)    S(lipo)     H(rot)  DE(clash)    DE(int)     intcor
      9.41     -11.35       0.65        0.00      83.46       2.36       0.14       1.81       ----

> <Gold.Chemscore.Fitness>
9.4086

> <Gold.Chemscore.DG>
-11.3546

> <Gold.Chemscore.ZeroCoef>
-5.4800

> <Gold.Chemscore.Hbond>
0.6454

> <Gold.Chemscore.Metal>
0.0000

> <Gold.Chemscore.Lipo>
83.4572

> <Gold.Chemscore.Internal_Hbond>
0.0000

> <Gold.Chemscore.DEClash>
0.1407

> <Gold.Chemscore.DEInternal>
1.8053

> <Gold.Chemscore.Rot>
2.3615

> <Gold.Chemscore.Internal.Correction>
   9.000000E+99

> <Gold.Chemscore.Hbonds>
donor molecule, donor type, donor heavy atom, donor atom, acceptor molecule, acceptor atom, score
      L1  H    10    34       P1  7948  0.18

> <Gold.Chemscore.Hbond.Weighted>
-2.1556

> <Gold.Chemscore.Metal.Weighted>
-0.0000

> <Gold.Chemscore.Lipo.Weighted>
-9.7645

> <Gold.Chemscore.Internal_Hbond.Weighted>
0.0000

> <Gold.Chemscore.DEClash.Weighted>
0.1407

> <Gold.Chemscore.DEInternal.Weighted>
1.8053

> <Gold.Chemscore.Rot.Weighted>
6.0454

> <Gold.Chemscore.Internal.Correction.Weighted>
   9.000000E+99

> <Gold.Protein.RotatedTorsions>
[ 6907 6896 6895 6894 ] final -127.95 input  -60.11 | X-H torsion
[ 7974 7965 7964 7962 ] final -155.72 input  175.53 | X-H torsion
[ 8008 7997 7996 7995 ] final -141.95 input   59.86 | X-H torsion
[ 10167 10162 10161 10158 ] final   68.13 input  -65.29 | X-H torsion
[ 10718 10713 10712 10709 ] final  -45.56 input   66.30 | X-H torsion
[ 10763 10752 10751 10750 ] final  179.27 input  -60.55 | X-H torsion
[ 11005 11000 10999 10996 ] final  -89.10 input  -57.11 | X-H torsion

> <Gold.Protein.ActiveResidues>
 VAL166  LYS551  ARG553  GLY616  TRP617  ASP618  TYR619  PRO620  LYS621  CYS622 
 ASP623  PHE694  ASN695  SER759  ASP760  ASP761  ALA762  ILE779  LEU786  VAL792 
 PHE793  MET794  SER795  GLU796  ALA797  LYS798  CYS799  TRP800  GLU811  SER814 

> <Gold.Protein.RotatedAtoms>
  150.9127  133.6977  159.2850 H   0  0  0  0  0  0  0  0  0  0  0  0  # atno 6907 bound_to 6896
  151.4458  135.1023  159.9693 H   0  0  0  0  0  0  0  0  0  0  0  0  # atno 6908 bound_to 6896
  152.4938  133.8525  159.7264 H   0  0  0  0  0  0  0  0  0  0  0  0  # atno 6909 bound_to 6896
  144.7627  140.4210  143.5965 H   0  0  0  0  0  0  0  0  0  0  0  0  # atno 7974 bound_to 7965
  155.4862  140.0564  157.2960 H   0  0  0  0  0  0  0  0  0  0  0  0  # atno 8008 bound_to 7997
  154.4641  140.2010  156.0117 H   0  0  0  0  0  0  0  0  0  0  0  0  # atno 8009 bound_to 7997
  156.0943  140.3229  155.7861 H   0  0  0  0  0  0  0  0  0  0  0  0  # atno 8010 bound_to 7997
  140.0820  144.5063  150.7156 H   0  0  0  0  0  0  0  0  0  0  0  0  # atno 10167 bound_to 10162
  156.2271  130.4170  149.8920 H   0  0  0  0  0  0  0  0  0  0  0  0  # atno 10718 bound_to 10713
  154.5185  135.2792  155.1282 H   0  0  0  0  0  0  0  0  0  0  0  0  # atno 10763 bound_to 10752
  154.2849  135.6278  153.5365 H   0  0  0  0  0  0  0  0  0  0  0  0  # atno 10764 bound_to 10752
  152.9932  135.5660  154.5668 H   0  0  0  0  0  0  0  0  0  0  0  0  # atno 10765 bound_to 10752
  141.1590  133.7610  156.9547 H   0  0  0  0  0  0  0  0  0  0  0  0  # atno 11005 bound_to 11000
  145.6569  139.1574  143.2830 LP  0  0  0  0  0  0  0  0  0  0  0  0  # atno 17320 bound_to 7965
  146.1705  140.6652  142.9235 LP  0  0  0  0  0  0  0  0  0  0  0  0  # atno 17321 bound_to 7965
  140.7073  143.2477  151.4688 LP  0  0  0  0  0  0  0  0  0  0  0  0  # atno 17342 bound_to 10162
  139.5774  144.1787  152.1922 LP  0  0  0  0  0  0  0  0  0  0  0  0  # atno 17343 bound_to 10162
  156.6547  130.8758  151.3537 LP  0  0  0  0  0  0  0  0  0  0  0  0  # atno 17370 bound_to 10713
  157.7116  130.9447  150.1108 LP  0  0  0  0  0  0  0  0  0  0  0  0  # atno 17371 bound_to 10713
  140.1233  134.9403  157.2235 LP  0  0  0  0  0  0  0  0  0  0  0  0  # atno 17394 bound_to 11000
  140.3044  134.3095  155.7282 LP  0  0  0  0  0  0  0  0  0  0  0  0  # atno 17395 bound_to 11000

$$$$
