AV-unprocessed.smi:2085|AV-procd|sdf|8516|dock6
  -GOLD-   2272011233D 1   1.00000     0.00000
 Structure written by MMmdl.
 30 31  0  0  0  0  0  0  0  0  1 V2000
  153.0355  138.5412  154.8704 C   0  0  0  0  0  0  0  0  0  0  0  0
  152.6934  139.5577  155.8067 O   0  0  0  0  0  0  0  0  0  0  0  0
  151.4955  140.2278  155.6453 C   0  0  0  0  0  0  0  0  0  0  0  0
  150.7304  139.9290  154.5653 N   0  0  0  0  0  0  0  0  0  0  0  0
  149.5638  140.5857  154.4022 C   0  0  0  0  0  0  0  0  0  0  0  0
  149.1035  141.5706  155.2946 C   0  0  0  0  0  0  0  0  0  0  0  0
  149.8949  141.8827  156.4155 C   0  0  0  0  0  0  0  0  0  0  0  0
  151.1160  141.1918  156.6087 C   0  0  0  0  0  0  0  0  0  0  0  0
  152.0030  141.4415  157.6929 N   0  0  0  0  0  0  0  0  0  0  0  0
  151.8777  142.3162  158.7084 C   0  0  0  0  0  0  0  0  0  0  0  0
  150.8959  143.0358  158.8897 O   0  0  0  0  0  0  0  0  0  0  0  0
  153.0355  142.3522  159.7171 C   0  0  2  0  0  0  0  0  0  0  0  0
  153.2902  141.0140  160.4245 C   0  0  0  0  0  0  0  0  0  0  0  0
  153.7906  141.4585  161.7805 C   0  0  0  0  0  0  0  0  0  0  0  0
  152.9330  142.6913  162.0340 C   0  0  0  0  0  0  0  0  0  0  0  0
  152.7597  143.2952  160.7569 O   0  0  0  0  0  0  0  0  0  0  0  0
  154.0020  138.1151  155.1387 H   0  0  0  0  0  0  0  0  0  0  0  0
  153.1202  138.9414  153.8593 H   0  0  0  0  0  0  0  0  0  0  0  0
  152.3043  137.7314  154.8755 H   0  0  0  0  0  0  0  0  0  0  0  0
  148.9831  140.3232  153.5303 H   0  0  0  0  0  0  0  0  0  0  0  0
  148.1673  142.0800  155.1204 H   0  0  0  0  0  0  0  0  0  0  0  0
  149.5568  142.6531  157.0906 H   0  0  0  0  0  0  0  0  0  0  0  0
  152.8191  140.8471  157.7275 H   0  0  0  0  0  0  0  0  0  0  0  0
  153.9420  142.6786  159.2057 H   0  0  0  0  0  0  0  0  0  0  0  0
  152.3677  140.4422  160.5414 H   0  0  0  0  0  0  0  0  0  0  0  0
  154.0122  140.3899  159.8972 H   0  0  0  0  0  0  0  0  0  0  0  0
  153.6809  140.6950  162.5512 H   0  0  0  0  0  0  0  0  0  0  0  0
  154.8433  141.7379  161.7195 H   0  0  0  0  0  0  0  0  0  0  0  0
  151.9548  142.4011  162.4196 H   0  0  0  0  0  0  0  0  0  0  0  0
  153.3879  143.3815  162.7447 H   0  0  0  0  0  0  0  0  0  0  0  0
  1  2  1  0  0  0  0
  1 17  1  0  0  0  0
  1 18  1  0  0  0  0
  1 19  1  0  0  0  0
  2  3  1  0  0  0  0
  3  8  1  0  0  0  0
  3  4  2  0  0  0  0
  4  5  1  0  0  0  0
  5  6  2  0  0  0  0
  5 20  1  0  0  0  0
  6  7  1  0  0  0  0
  6 21  1  0  0  0  0
  7  8  2  0  0  0  0
  7 22  1  0  0  0  0
  8  9  1  0  0  0  0
  9 10  1  0  0  0  0
  9 23  1  0  0  0  0
 10 11  2  0  0  0  0
 10 12  1  0  0  0  0
 12 16  1  0  0  0  0
 12 13  1  0  0  0  0
 12 24  1  0  0  0  0
 13 14  1  0  0  0  0
 13 25  1  0  0  0  0
 13 26  1  0  0  0  0
 14 15  1  0  0  0  0
 14 27  1  0  0  0  0
 14 28  1  0  0  0  0
 15 16  1  0  0  0  0
 15 29  1  0  0  0  0
 15 30  1  0  0  0  0
M  END
> <s_m_source_file>
AV-unprocessed.smi

> <i_m_source_file_index>
2085

> <i_lp_mmshare_version>
43012

> <i_f3d_flags>
0

> <s_epik_input>
W0NIM11PYzFuW2NIXVtjSF1bY0hdYzFbTkhdQyg9TylbQ0BASF0yW0NIMl1bQ0gyXVtDSDJdTzI=

> <s_epik_cmdline>
J2VwaWtfcHl0aG9uJywgJy1waCcsICc3LjAnLCAnLXRuJywgJzgnLCAnLW1hJywgJzIwMCcsICctbWV0YWxfYmluZGluZycsICctaW1hZScsICc8aW5maWxlLm1hZT4nLCAnLW9tYWUnLCAnPG91dGZpbGUubWFlPic=

> <r_lp_tautomer_probability>
1

> <r_epik_Ionization_Penalty>
2.59253e-05

> <r_epik_Ionization_Penalty_Charging>
0

> <r_epik_Ionization_Penalty_Neutral>
2.59253e-05

> <r_epik_State_Penalty>
-0

> <r_epik_Charging_Adjusted_Penalty>
0

> <i_epik_Tot_Q>
0

> <i_epik_Tot_abs_Q>
0

> <r_epik_Metal_State_Penalty>
-0

> <b_epik_Metal_Only>
0

> <s_lp_Force_Field>
OPLS_2005

> <r_lp_Energy>
24.0215

> <b_lp_Chiralities_Consistent>
1

> <s_lp_Variant>
AV-unprocessed.smi:2085-1

> <Gold.Version>
5.8.1

> <Gold.Id.Protein>
6NUR|6NUR_protein|mol2

> <Gold.PLP.Fitness>
44.4000

> <Gold.PLP.PLP>
-36.6649

> <Gold.PLP.part.hbond>
-2.0000

> <Gold.PLP.part.metal>
0.0000

> <Gold.PLP.part.buried>
-2.4546

> <Gold.PLP.part.nonpolar>
-30.5467

> <Gold.PLP.part.repulsive>
0.2714

> <Gold.PLP.ligand.clash>
0.0000

> <Gold.PLP.ligand.torsion>
0.0133

> <Gold.PLP.Chemscore.Hbond>
1.6000

> <Gold.PLP.Chemscore.CHOScore>
0.9848

> <Gold.PLP.Chemscore.Metal>
0.0000

> <Gold.Chemscore.Hbonds>
donor molecule, donor type, donor heavy atom, donor atom, acceptor molecule, acceptor atom, score
      P1  H  7989  7998       L1     4  0.60
      P1  H  7997  8010       L1     2  0.95
      L1  C     5    20       P1  7957  1.00

> <Gold.PLP.Chemscore.Internal.Correction>
0.0072

> <Gold.Rescore>
     Score         DG    S(hbond)    S(metal)    S(lipo)     H(rot)  DE(clash)    DE(int)     intcor
     12.48     -13.92       0.74        0.00      78.17       1.24       0.10       1.35       ----

> <Gold.Chemscore.Fitness>
12.4751

> <Gold.Chemscore.DG>
-13.9245

> <Gold.Chemscore.ZeroCoef>
-5.4800

> <Gold.Chemscore.Hbond>
0.7388

> <Gold.Chemscore.Metal>
0.0000

> <Gold.Chemscore.Lipo>
78.1723

> <Gold.Chemscore.Internal_Hbond>
0.0000

> <Gold.Chemscore.DEClash>
0.0982

> <Gold.Chemscore.DEInternal>
1.3511

> <Gold.Chemscore.Rot>
1.2381

> <Gold.Chemscore.Internal.Correction>
   9.000000E+99

> <Gold.Chemscore.Hbonds>
donor molecule, donor type, donor heavy atom, donor atom, acceptor molecule, acceptor atom, score
      P1  H  7989  7998       L1     4  0.01
      P1  H  7997  8010       L1     2  0.22

> <Gold.Chemscore.Hbond.Weighted>
-2.4677

> <Gold.Chemscore.Metal.Weighted>
-0.0000

> <Gold.Chemscore.Lipo.Weighted>
-9.1462

> <Gold.Chemscore.Internal_Hbond.Weighted>
0.0000

> <Gold.Chemscore.DEClash.Weighted>
0.0982

> <Gold.Chemscore.DEInternal.Weighted>
1.3511

> <Gold.Chemscore.Rot.Weighted>
3.1694

> <Gold.Chemscore.Internal.Correction.Weighted>
   9.000000E+99

> <Gold.Protein.RotatedTorsions>
[ 6907 6896 6895 6894 ] final  -59.89 input  -60.11 | X-H torsion
[ 7974 7965 7964 7962 ] final  115.79 input  175.53 | X-H torsion
[ 8008 7997 7996 7995 ] final   85.04 input   59.86 | X-H torsion
[ 10167 10162 10161 10158 ] final  -39.78 input  -65.29 | X-H torsion
[ 10718 10713 10712 10709 ] final  -86.95 input   66.30 | X-H torsion
[ 10763 10752 10751 10750 ] final   65.51 input  -60.55 | X-H torsion
[ 11005 11000 10999 10996 ] final  -75.33 input  -57.11 | X-H torsion

> <Gold.Protein.ActiveResidues>
 VAL166  LYS551  ARG553  GLY616  TRP617  ASP618  TYR619  PRO620  LYS621  CYS622 
 ASP623  PHE694  ASN695  SER759  ASP760  ASP761  ALA762  ILE779  LEU786  VAL792 
 PHE793  MET794  SER795  GLU796  ALA797  LYS798  CYS799  TRP800  GLU811  SER814 

> <Gold.Protein.RotatedAtoms>
  150.7897  134.6910  159.6496 H   0  0  0  0  0  0  0  0  0  0  0  0  # atno 6907 bound_to 6896
  152.4000  134.6299  160.0082 H   0  0  0  0  0  0  0  0  0  0  0  0  # atno 6908 bound_to 6896
  151.6573  133.3281  159.3202 H   0  0  0  0  0  0  0  0  0  0  0  0  # atno 6909 bound_to 6896
  145.1876  139.3017  143.4385 H   0  0  0  0  0  0  0  0  0  0  0  0  # atno 7974 bound_to 7965
  155.9449  140.3405  155.6359 H   0  0  0  0  0  0  0  0  0  0  0  0  # atno 8008 bound_to 7997
  155.6993  140.0758  157.2435 H   0  0  0  0  0  0  0  0  0  0  0  0  # atno 8009 bound_to 7997
  154.4110  140.1643  156.2160 H   0  0  0  0  0  0  0  0  0  0  0  0  # atno 8010 bound_to 7997
  140.7054  143.3193  151.2831 H   0  0  0  0  0  0  0  0  0  0  0  0  # atno 10167 bound_to 10162
  155.9987  130.4783  150.4793 H   0  0  0  0  0  0  0  0  0  0  0  0  # atno 10718 bound_to 10713
  153.0099  135.5354  154.6678 H   0  0  0  0  0  0  0  0  0  0  0  0  # atno 10763 bound_to 10752
  154.5870  135.2855  155.0676 H   0  0  0  0  0  0  0  0  0  0  0  0  # atno 10764 bound_to 10752
  154.1784  135.6520  153.5080 H   0  0  0  0  0  0  0  0  0  0  0  0  # atno 10765 bound_to 10752
  141.1644  133.6942  156.7500 H   0  0  0  0  0  0  0  0  0  0  0  0  # atno 11005 bound_to 11000
  146.3442  140.2077  142.8590 LP  0  0  0  0  0  0  0  0  0  0  0  0  # atno 17320 bound_to 7965
  145.0073  140.8684  143.5245 LP  0  0  0  0  0  0  0  0  0  0  0  0  # atno 17321 bound_to 7965
  139.6642  144.0134  152.2712 LP  0  0  0  0  0  0  0  0  0  0  0  0  # atno 17342 bound_to 10162
  139.9712  144.6492  150.7987 LP  0  0  0  0  0  0  0  0  0  0  0  0  # atno 17343 bound_to 10162
  157.2800  131.0605  151.2204 LP  0  0  0  0  0  0  0  0  0  0  0  0  # atno 17370 bound_to 10713
  157.3254  130.6958  149.6293 LP  0  0  0  0  0  0  0  0  0  0  0  0  # atno 17371 bound_to 10713
  140.2611  134.8466  157.3759 LP  0  0  0  0  0  0  0  0  0  0  0  0  # atno 17394 bound_to 11000
  140.1610  134.4729  155.7895 LP  0  0  0  0  0  0  0  0  0  0  0  0  # atno 17395 bound_to 11000

$$$$
