AV-unprocessed.smi:1289|AV-procd|sdf|5386|dock3
  -GOLD-   22720 4533D 1   1.00000     0.00000
 Structure written by MMmdl.
 37 39  0  0  0  0  0  0  0  0  1 V2000
  142.0177  145.1689  154.6135 N   0  0  0  0  0  0  0  0  0  0  0  0
  142.9297  144.4788  154.7891 C   0  0  0  0  0  0  0  0  0  0  0  0
  144.0754  143.6122  155.0098 C   0  0  0  0  0  0  0  0  0  0  0  0
  144.3639  143.1353  156.3035 C   0  0  0  0  0  0  0  0  0  0  0  0
  145.4730  142.2931  156.5131 C   0  0  0  0  0  0  0  0  0  0  0  0
  146.3059  141.9141  155.4401 C   0  0  0  0  0  0  0  0  0  0  0  0
  147.3642  141.0808  155.7334 O   0  0  0  0  0  0  0  0  0  0  0  0
  148.0792  140.4966  154.6525 C   0  0  0  0  0  0  0  0  0  0  0  0
  149.5507  140.3214  155.0599 C   0  0  1  0  0  0  0  0  0  0  0  0
  150.3092  140.0628  153.8940 O   0  0  0  0  0  0  0  0  0  0  0  0
  150.1064  141.5836  155.7485 C   0  0  0  0  0  0  0  0  0  0  0  0
  151.1441  141.2821  156.7192 N   0  0  0  0  0  0  0  0  0  0  0  0
  151.9966  140.2392  156.6998 C   0  0  0  0  0  0  0  0  0  0  0  0
  152.8745  140.1506  157.6948 N   0  0  0  0  0  0  0  0  0  0  0  0
  152.5584  141.2693  158.4465 C   0  0  0  0  0  0  0  0  0  0  0  0
  153.1244  141.7590  159.6454 C   0  0  0  0  0  0  0  0  0  0  0  0
  152.6299  142.9392  160.2387 C   0  0  0  0  0  0  0  0  0  0  0  0
  151.5644  143.6466  159.6445 C   0  0  0  0  0  0  0  0  0  0  0  0
  150.9836  143.1775  158.4505 C   0  0  0  0  0  0  0  0  0  0  0  0
  151.4799  141.9999  157.8617 C   0  0  0  0  0  0  0  0  0  0  0  0
  146.0117  142.4029  154.1418 C   0  0  0  0  0  0  0  0  0  0  0  0
  144.9028  143.2451  153.9303 C   0  0  0  0  0  0  0  0  0  0  0  0
  143.7376  143.4098  157.1405 H   0  0  0  0  0  0  0  0  0  0  0  0
  145.6845  141.9310  157.5085 H   0  0  0  0  0  0  0  0  0  0  0  0
  147.6490  139.5392  154.3518 H   0  0  0  0  0  0  0  0  0  0  0  0
  148.0174  141.1730  153.7984 H   0  0  0  0  0  0  0  0  0  0  0  0
  149.6455  139.4733  155.7396 H   0  0  0  0  0  0  0  0  0  0  0  0
  149.7367  140.1261  153.1448 H   0  0  0  0  0  0  0  0  0  0  0  0
  150.5131  142.2728  155.0067 H   0  0  0  0  0  0  0  0  0  0  0  0
  149.3054  142.1169  156.2622 H   0  0  0  0  0  0  0  0  0  0  0  0
  151.9674  139.5002  155.9123 H   0  0  0  0  0  0  0  0  0  0  0  0
  153.9409  141.2256  160.1094 H   0  0  0  0  0  0  0  0  0  0  0  0
  153.0707  143.3040  161.1550 H   0  0  0  0  0  0  0  0  0  0  0  0
  151.1932  144.5497  160.1064 H   0  0  0  0  0  0  0  0  0  0  0  0
  150.1668  143.7152  157.9924 H   0  0  0  0  0  0  0  0  0  0  0  0
  146.6219  142.1465  153.2891 H   0  0  0  0  0  0  0  0  0  0  0  0
  144.6922  143.6060  152.9335 H   0  0  0  0  0  0  0  0  0  0  0  0
  1  2  3  0  0  0  0
  2  3  1  0  0  0  0
  3 22  1  0  0  0  0
  3  4  2  0  0  0  0
  4  5  1  0  0  0  0
  4 23  1  0  0  0  0
  5  6  2  0  0  0  0
  5 24  1  0  0  0  0
  6  7  1  0  0  0  0
  6 21  1  0  0  0  0
  7  8  1  0  0  0  0
  8  9  1  0  0  0  0
  8 25  1  0  0  0  0
  8 26  1  0  0  0  0
  9 10  1  0  0  0  0
  9 11  1  0  0  0  0
  9 27  1  0  0  0  0
 10 28  1  0  0  0  0
 11 12  1  0  0  0  0
 11 29  1  0  0  0  0
 11 30  1  0  0  0  0
 12 20  1  0  0  0  0
 12 13  1  0  0  0  0
 13 14  2  0  0  0  0
 13 31  1  0  0  0  0
 14 15  1  0  0  0  0
 15 20  2  0  0  0  0
 15 16  1  0  0  0  0
 16 17  2  0  0  0  0
 16 32  1  0  0  0  0
 17 18  1  0  0  0  0
 17 33  1  0  0  0  0
 18 19  2  0  0  0  0
 18 34  1  0  0  0  0
 19 20  1  0  0  0  0
 19 35  1  0  0  0  0
 21 22  2  0  0  0  0
 21 36  1  0  0  0  0
 22 37  1  0  0  0  0
M  END
> <s_m_source_file>
AV-unprocessed.smi

> <i_m_source_file_index>
1289

> <i_lp_mmshare_version>
43012

> <i_f3d_flags>
0

> <s_epik_input>
TiNDYzFbY0hdW2NIXWMoW2NIXVtjSF0xKU9bQ0gyXVtDQEhdKFtPSF0pW0NIMl1uKFtjSF1uMiljKGMyMylbY0hdW2NIXVtjSF1bY0hdMw==

> <s_epik_cmdline>
J2VwaWtfcHl0aG9uJywgJy1waCcsICc3LjAnLCAnLXRuJywgJzgnLCAnLW1hJywgJzIwMCcsICctbWV0YWxfYmluZGluZycsICctaW1hZScsICc8aW5maWxlLm1hZT4nLCAnLW9tYWUnLCAnPG91dGZpbGUubWFlPic=

> <r_epik_Ionization_Penalty>
0.0590811

> <r_epik_Ionization_Penalty_Charging>
0

> <r_epik_Ionization_Penalty_Neutral>
0.0590811

> <r_epik_State_Penalty>
0.0511328

> <r_epik_Charging_Adjusted_Penalty>
0.0511328

> <i_epik_Tot_Q>
0

> <i_epik_Tot_abs_Q>
0

> <r_epik_Metal_State_Penalty>
5.34017e-05

> <b_epik_Metal_Only>
0

> <s_lp_Force_Field>
OPLS_2005

> <r_lp_Energy>
16.0199

> <b_lp_Chiralities_Consistent>
1

> <s_lp_Variant>
AV-unprocessed.smi:1289-2

> <Gold.Version>
5.8.1

> <Gold.Id.Protein>
6NUR|6NUR_protein|mol2

> <Gold.PLP.Fitness>
55.8060

> <Gold.PLP.PLP>
-49.1457

> <Gold.PLP.part.hbond>
-4.0000

> <Gold.PLP.part.metal>
0.0000

> <Gold.PLP.part.buried>
-7.3384

> <Gold.PLP.part.nonpolar>
-38.3488

> <Gold.PLP.part.repulsive>
0.1645

> <Gold.PLP.ligand.clash>
0.0000

> <Gold.PLP.ligand.torsion>
1.1677

> <Gold.PLP.Chemscore.Hbond>
2.9520

> <Gold.PLP.Chemscore.CHOScore>
0.0000

> <Gold.PLP.Chemscore.Metal>
0.0000

> <Gold.Chemscore.Hbonds>
donor molecule, donor type, donor heavy atom, donor atom, acceptor molecule, acceptor atom, score
      L1  H    10    28       P1  7957  0.91
      P1  H  7989  7998       L1    10  0.94
      P1  H  7997  8010       L1    14  1.00

> <Gold.PLP.Chemscore.Internal.Correction>
0.1398

> <Gold.Rescore>
     Score         DG    S(hbond)    S(metal)    S(lipo)     H(rot)  DE(clash)    DE(int)     intcor
     17.58     -19.44       2.11        0.00     113.77       2.50       0.74       1.12       ----

> <Gold.Chemscore.Fitness>
17.5839

> <Gold.Chemscore.DG>
-19.4397

> <Gold.Chemscore.ZeroCoef>
-5.4800

> <Gold.Chemscore.Hbond>
2.1067

> <Gold.Chemscore.Metal>
0.0000

> <Gold.Chemscore.Lipo>
113.7732

> <Gold.Chemscore.Internal_Hbond>
0.0000

> <Gold.Chemscore.DEClash>
0.7363

> <Gold.Chemscore.DEInternal>
1.1195

> <Gold.Chemscore.Rot>
2.4954

> <Gold.Chemscore.Internal.Correction>
   9.000000E+99

> <Gold.Chemscore.Hbonds>
donor molecule, donor type, donor heavy atom, donor atom, acceptor molecule, acceptor atom, score
      L1  H    10    28       P1  7957  0.86
      P1  H  7989  7998       L1    10  0.40
      P1  H  7997  8010       L1    14  0.41

> <Gold.Chemscore.Hbond.Weighted>
-7.0365

> <Gold.Chemscore.Metal.Weighted>
-0.0000

> <Gold.Chemscore.Lipo.Weighted>
-13.3115

> <Gold.Chemscore.Internal_Hbond.Weighted>
0.0000

> <Gold.Chemscore.DEClash.Weighted>
0.7363

> <Gold.Chemscore.DEInternal.Weighted>
1.1195

> <Gold.Chemscore.Rot.Weighted>
6.3883

> <Gold.Chemscore.Internal.Correction.Weighted>
   9.000000E+99

> <Gold.Protein.RotatedTorsions>
[ 6907 6896 6895 6894 ] final   -3.78 input  -60.11 | X-H torsion
[ 7974 7965 7964 7962 ] final  -85.22 input  175.53 | X-H torsion
[ 8008 7997 7996 7995 ] final   46.39 input   59.86 | X-H torsion
[ 10167 10162 10161 10158 ] final  -39.72 input  -65.29 | X-H torsion
[ 10718 10713 10712 10709 ] final   13.96 input   66.30 | X-H torsion
[ 10763 10752 10751 10750 ] final  -22.68 input  -60.55 | X-H torsion
[ 11005 11000 10999 10996 ] final -105.19 input  -57.11 | X-H torsion

> <Gold.Protein.ActiveResidues>
 VAL166  LYS551  ARG553  GLY616  TRP617  ASP618  TYR619  PRO620  LYS621  CYS622 
 ASP623  PHE694  ASN695  SER759  ASP760  ASP761  ALA762  ILE779  LEU786  VAL792 
 PHE793  MET794  SER795  GLU796  ALA797  LYS798  CYS799  TRP800  GLU811  SER814 

> <Gold.Protein.RotatedAtoms>
  151.5082  135.1064  159.9846 H   0  0  0  0  0  0  0  0  0  0  0  0  # atno 6907 bound_to 6896
  152.4673  133.7947  159.6931 H   0  0  0  0  0  0  0  0  0  0  0  0  # atno 6908 bound_to 6896
  150.8663  133.7506  159.3001 H   0  0  0  0  0  0  0  0  0  0  0  0  # atno 6909 bound_to 6896
  145.4961  140.9550  143.1785 H   0  0  0  0  0  0  0  0  0  0  0  0  # atno 7974 bound_to 7965
  155.3516  140.3414  155.4239 H   0  0  0  0  0  0  0  0  0  0  0  0  # atno 8008 bound_to 7997
  156.1761  140.1648  156.8396 H   0  0  0  0  0  0  0  0  0  0  0  0  # atno 8009 bound_to 7997
  154.5283  140.0751  156.8281 H   0  0  0  0  0  0  0  0  0  0  0  0  # atno 8010 bound_to 7997
  140.7056  143.3197  151.2822 H   0  0  0  0  0  0  0  0  0  0  0  0  # atno 10167 bound_to 10162
  157.0322  130.6197  149.5737 H   0  0  0  0  0  0  0  0  0  0  0  0  # atno 10718 bound_to 10713
  153.6558  135.6979  153.5194 H   0  0  0  0  0  0  0  0  0  0  0  0  # atno 10763 bound_to 10752
  153.2670  135.4226  155.0950 H   0  0  0  0  0  0  0  0  0  0  0  0  # atno 10764 bound_to 10752
  154.8465  135.3569  154.6103 H   0  0  0  0  0  0  0  0  0  0  0  0  # atno 10765 bound_to 10752
  141.1065  133.8786  157.1703 H   0  0  0  0  0  0  0  0  0  0  0  0  # atno 11005 bound_to 11000
  144.7806  139.6534  143.7156 LP  0  0  0  0  0  0  0  0  0  0  0  0  # atno 17320 bound_to 7965
  146.2254  139.5713  142.9590 LP  0  0  0  0  0  0  0  0  0  0  0  0  # atno 17321 bound_to 7965
  139.6647  144.0126  152.2715 LP  0  0  0  0  0  0  0  0  0  0  0  0  # atno 17342 bound_to 10162
  139.9705  144.6497  150.7993 LP  0  0  0  0  0  0  0  0  0  0  0  0  # atno 17343 bound_to 10162
  156.0065  130.5153  150.7849 LP  0  0  0  0  0  0  0  0  0  0  0  0  # atno 17370 bound_to 10713
  157.5168  131.0929  151.0128 LP  0  0  0  0  0  0  0  0  0  0  0  0  # atno 17371 bound_to 10713
  139.9938  135.0054  157.0036 LP  0  0  0  0  0  0  0  0  0  0  0  0  # atno 17394 bound_to 11000
  140.4888  134.1214  155.7229 LP  0  0  0  0  0  0  0  0  0  0  0  0  # atno 17395 bound_to 11000

$$$$
