AV-unprocessed.smi:2155|AV-procd|sdf|8778|dock3
  -GOLD-   2272011553D 1   1.00000     0.00000
 Structure written by MMmdl.
 42 43  0  0  0  0  0  0  0  0  1 V2000
  145.2319  138.8594  156.8481 C   0  0  0  0  0  0  0  0  0  0  0  0
  145.9195  139.1879  155.6166 N   0  0  0  0  0  0  0  0  0  0  0  0
  145.6044  138.4675  154.4387 C   0  0  0  0  0  0  0  0  0  0  0  0
  144.7646  137.5672  154.4147 O   0  0  0  0  0  0  0  0  0  0  0  0
  146.3511  138.8862  153.2585 C   0  0  0  0  0  0  0  0  0  0  0  0
  147.2538  139.8888  153.3272 C   0  0  0  0  0  0  0  0  0  0  0  0
  147.5354  140.5833  154.4897 N   0  0  0  0  0  0  0  0  0  0  0  0
  148.5398  141.6549  154.4712 C   0  0  0  0  0  0  0  0  0  0  0  0
  149.7320  141.3857  155.4002 C   0  0  0  0  0  0  0  0  0  0  0  0
  150.4954  140.4406  155.1956 O   0  0  0  0  0  0  0  0  0  0  0  0
  149.8886  142.2459  156.4156 N   0  0  0  0  0  0  0  0  0  0  0  0
  150.9577  142.1693  157.4036 C   0  0  0  0  0  0  0  0  0  0  0  0
  150.8386  143.2899  158.4507 C   0  0  0  0  0  0  0  0  0  0  0  0
  151.6930  143.0636  159.6893 C   0  0  0  0  0  0  0  0  0  0  0  0
  151.6633  143.9056  160.7409 C   0  0  0  0  0  0  0  0  0  0  0  0
  152.4791  143.7177  162.0078 C   0  0  0  0  0  0  0  0  0  0  0  0
  153.0761  142.3046  162.1161 C   0  0  0  0  0  0  0  0  0  0  0  0
  153.6581  141.8451  160.7736 C   0  0  0  0  0  0  0  0  0  0  0  0
  152.5817  141.8252  159.6736 C   0  0  0  0  0  0  0  0  0  0  0  0
  146.8584  140.2411  155.6796 C   0  0  0  0  0  0  0  0  0  0  0  0
  147.0848  140.8478  156.7299 O   0  0  0  0  0  0  0  0  0  0  0  0
  144.6595  137.9378  156.7466 H   0  0  0  0  0  0  0  0  0  0  0  0
  144.5719  139.6973  157.0776 H   0  0  0  0  0  0  0  0  0  0  0  0
  145.9873  138.7223  157.6242 H   0  0  0  0  0  0  0  0  0  0  0  0
  146.1786  138.3864  152.3164 H   0  0  0  0  0  0  0  0  0  0  0  0
  147.7831  140.1588  152.4250 H   0  0  0  0  0  0  0  0  0  0  0  0
  148.9214  141.7865  153.4577 H   0  0  0  0  0  0  0  0  0  0  0  0
  148.0778  142.6077  154.7369 H   0  0  0  0  0  0  0  0  0  0  0  0
  149.2212  142.9968  156.5168 H   0  0  0  0  0  0  0  0  0  0  0  0
  150.9288  141.1930  157.8894 H   0  0  0  0  0  0  0  0  0  0  0  0
  151.9231  142.2418  156.9006 H   0  0  0  0  0  0  0  0  0  0  0  0
  151.1223  144.2428  158.0030 H   0  0  0  0  0  0  0  0  0  0  0  0
  149.7936  143.3940  158.7458 H   0  0  0  0  0  0  0  0  0  0  0  0
  151.0351  144.7838  160.7089 H   0  0  0  0  0  0  0  0  0  0  0  0
  153.2744  144.4636  162.0086 H   0  0  0  0  0  0  0  0  0  0  0  0
  151.8505  143.9220  162.8749 H   0  0  0  0  0  0  0  0  0  0  0  0
  153.8428  142.2825  162.8912 H   0  0  0  0  0  0  0  0  0  0  0  0
  152.3008  141.6036  162.4277 H   0  0  0  0  0  0  0  0  0  0  0  0
  154.4632  142.5214  160.4827 H   0  0  0  0  0  0  0  0  0  0  0  0
  154.1065  140.8562  160.8726 H   0  0  0  0  0  0  0  0  0  0  0  0
  151.9452  140.9485  159.7987 H   0  0  0  0  0  0  0  0  0  0  0  0
  153.0607  141.7317  158.6985 H   0  0  0  0  0  0  0  0  0  0  0  0
  1  2  1  0  0  0  0
  1 22  1  0  0  0  0
  1 23  1  0  0  0  0
  1 24  1  0  0  0  0
  2 20  1  0  0  0  0
  2  3  1  0  0  0  0
  3  4  2  0  0  0  0
  3  5  1  0  0  0  0
  5  6  2  0  0  0  0
  5 25  1  0  0  0  0
  6  7  1  0  0  0  0
  6 26  1  0  0  0  0
  7  8  1  0  0  0  0
  7 20  1  0  0  0  0
  8  9  1  0  0  0  0
  8 27  1  0  0  0  0
  8 28  1  0  0  0  0
  9 10  2  0  0  0  0
  9 11  1  0  0  0  0
 11 12  1  0  0  0  0
 11 29  1  0  0  0  0
 12 13  1  0  0  0  0
 12 30  1  0  0  0  0
 12 31  1  0  0  0  0
 13 14  1  0  0  0  0
 13 32  1  0  0  0  0
 13 33  1  0  0  0  0
 14 19  1  0  0  0  0
 14 15  2  0  0  0  0
 15 16  1  0  0  0  0
 15 34  1  0  0  0  0
 16 17  1  0  0  0  0
 16 35  1  0  0  0  0
 16 36  1  0  0  0  0
 17 18  1  0  0  0  0
 17 37  1  0  0  0  0
 17 38  1  0  0  0  0
 18 19  1  0  0  0  0
 18 39  1  0  0  0  0
 18 40  1  0  0  0  0
 19 41  1  0  0  0  0
 19 42  1  0  0  0  0
 20 21  2  0  0  0  0
M  END
> <s_m_source_file>
AV-unprocessed.smi

> <i_m_source_file_index>
2155

> <i_lp_mmshare_version>
43012

> <i_f3d_flags>
0

> <s_epik_input>
W0NIM11uMWMoPU8pW2NIXVtjSF1uKGMxPU8pW0NIMl1DKD1PKVtOSF1bQ0gyXVtDSDJdQzI9W0NIXVtDSDJdW0NIMl1bQ0gyXVtDSDJdMg==

> <s_epik_cmdline>
J2VwaWtfcHl0aG9uJywgJy1waCcsICc3LjAnLCAnLXRuJywgJzgnLCAnLW1hJywgJzIwMCcsICctbWV0YWxfYmluZGluZycsICctaW1hZScsICc8aW5maWxlLm1hZT4nLCAnLW9tYWUnLCAnPG91dGZpbGUubWFlPic=

> <r_lp_tautomer_probability>
1

> <r_epik_Ionization_Penalty>
3.01725e-08

> <r_epik_Ionization_Penalty_Charging>
1.20689e-08

> <r_epik_Ionization_Penalty_Neutral>
1.81035e-08

> <r_epik_State_Penalty>
-0

> <r_epik_Charging_Adjusted_Penalty>
1.20689e-08

> <i_epik_Tot_Q>
0

> <i_epik_Tot_abs_Q>
0

> <r_epik_Metal_State_Penalty>
-0

> <b_epik_Metal_Only>
0

> <s_lp_Force_Field>
OPLS_2005

> <r_lp_Energy>
16.2907

> <b_lp_Chiralities_Consistent>
1

> <s_lp_Variant>
AV-unprocessed.smi:2155-1

> <Gold.Version>
5.8.1

> <Gold.Id.Protein>
6NUR|6NUR_protein|mol2

> <Gold.PLP.Fitness>
49.2992

> <Gold.PLP.PLP>
-40.8113

> <Gold.PLP.part.hbond>
-2.0000

> <Gold.PLP.part.metal>
0.0000

> <Gold.PLP.part.buried>
-3.9924

> <Gold.PLP.part.nonpolar>
-34.4444

> <Gold.PLP.part.repulsive>
0.2618

> <Gold.PLP.ligand.clash>
0.0000

> <Gold.PLP.ligand.torsion>
0.0844

> <Gold.PLP.Chemscore.Hbond>
1.8640

> <Gold.PLP.Chemscore.CHOScore>
1.0000

> <Gold.PLP.Chemscore.Metal>
0.0000

> <Gold.Chemscore.Hbonds>
donor molecule, donor type, donor heavy atom, donor atom, acceptor molecule, acceptor atom, score
      L1  H    11    29       P1  8028  0.74
      P1  H  7989  7998       L1    10  0.86
      L1  C     6    26       P1  7957  1.00

> <Gold.PLP.Chemscore.Internal.Correction>
0.0647

> <Gold.Rescore>
     Score         DG    S(hbond)    S(metal)    S(lipo)     H(rot)  DE(clash)    DE(int)     intcor
     17.80     -18.00       1.58        0.00     104.23       1.94       0.05       0.15       ----

> <Gold.Chemscore.Fitness>
17.8011

> <Gold.Chemscore.DG>
-18.0039

> <Gold.Chemscore.ZeroCoef>
-5.4800

> <Gold.Chemscore.Hbond>
1.5847

> <Gold.Chemscore.Metal>
0.0000

> <Gold.Chemscore.Lipo>
104.2299

> <Gold.Chemscore.Internal_Hbond>
0.0000

> <Gold.Chemscore.DEClash>
0.0509

> <Gold.Chemscore.DEInternal>
0.1519

> <Gold.Chemscore.Rot>
1.9390

> <Gold.Chemscore.Internal.Correction>
   9.000000E+99

> <Gold.Chemscore.Hbonds>
donor molecule, donor type, donor heavy atom, donor atom, acceptor molecule, acceptor atom, score
      L1  H    11    29       P1  8028  0.73
      P1  H  7989  7998       L1    10  0.52

> <Gold.Chemscore.Hbond.Weighted>
-5.2929

> <Gold.Chemscore.Metal.Weighted>
-0.0000

> <Gold.Chemscore.Lipo.Weighted>
-12.1949

> <Gold.Chemscore.Internal_Hbond.Weighted>
0.0000

> <Gold.Chemscore.DEClash.Weighted>
0.0509

> <Gold.Chemscore.DEInternal.Weighted>
0.1519

> <Gold.Chemscore.Rot.Weighted>
4.9639

> <Gold.Chemscore.Internal.Correction.Weighted>
   9.000000E+99

> <Gold.Protein.RotatedTorsions>
[ 6907 6896 6895 6894 ] final  141.12 input  -60.11 | X-H torsion
[ 7974 7965 7964 7962 ] final   22.83 input  175.53 | X-H torsion
[ 8008 7997 7996 7995 ] final -176.73 input   59.86 | X-H torsion
[ 10167 10162 10161 10158 ] final -141.35 input  -65.29 | X-H torsion
[ 10718 10713 10712 10709 ] final  -52.44 input   66.30 | X-H torsion
[ 10763 10752 10751 10750 ] final -168.20 input  -60.55 | X-H torsion
[ 11005 11000 10999 10996 ] final   78.12 input  -57.11 | X-H torsion

> <Gold.Protein.ActiveResidues>
 VAL166  LYS551  ARG553  GLY616  TRP617  ASP618  TYR619  PRO620  LYS621  CYS622 
 ASP623  PHE694  ASN695  SER759  ASP760  ASP761  ALA762  ILE779  LEU786  VAL792 
 PHE793  MET794  SER795  GLU796  ALA797  LYS798  CYS799  TRP800  GLU811  SER814 

> <Gold.Protein.RotatedAtoms>
  152.2348  133.5087  159.5235 H   0  0  0  0  0  0  0  0  0  0  0  0  # atno 6907 bound_to 6896
  150.7047  134.1168  159.4029 H   0  0  0  0  0  0  0  0  0  0  0  0  # atno 6908 bound_to 6896
  151.9090  135.0347  160.0563 H   0  0  0  0  0  0  0  0  0  0  0  0  # atno 6909 bound_to 6896
  146.2011  139.7829  142.8760 H   0  0  0  0  0  0  0  0  0  0  0  0  # atno 7974 bound_to 7965
  155.9984  140.1215  157.0571 H   0  0  0  0  0  0  0  0  0  0  0  0  # atno 8008 bound_to 7997
  154.4234  140.1111  156.5731 H   0  0  0  0  0  0  0  0  0  0  0  0  # atno 8009 bound_to 7997
  155.6246  140.3472  155.4665 H   0  0  0  0  0  0  0  0  0  0  0  0  # atno 8010 bound_to 7997
  139.8193  143.7596  152.2666 H   0  0  0  0  0  0  0  0  0  0  0  0  # atno 10167 bound_to 10162
  156.1621  130.4149  149.9776 H   0  0  0  0  0  0  0  0  0  0  0  0  # atno 10718 bound_to 10713
  154.6653  135.2931  154.9814 H   0  0  0  0  0  0  0  0  0  0  0  0  # atno 10763 bound_to 10752
  154.0859  135.6597  153.4849 H   0  0  0  0  0  0  0  0  0  0  0  0  # atno 10764 bound_to 10752
  153.0453  135.5208  154.7623 H   0  0  0  0  0  0  0  0  0  0  0  0  # atno 10765 bound_to 10752
  139.9226  134.7738  156.1609 H   0  0  0  0  0  0  0  0  0  0  0  0  # atno 11005 bound_to 11000
  145.3479  141.0301  143.3355 LP  0  0  0  0  0  0  0  0  0  0  0  0  # atno 17320 bound_to 7965
  144.8686  139.5071  143.6778 LP  0  0  0  0  0  0  0  0  0  0  0  0  # atno 17321 bound_to 7965
  139.7769  144.7458  151.0144 LP  0  0  0  0  0  0  0  0  0  0  0  0  # atno 17342 bound_to 10162
  140.7814  143.4584  151.0313 LP  0  0  0  0  0  0  0  0  0  0  0  0  # atno 17343 bound_to 10162
  156.7602  130.9148  151.3641 LP  0  0  0  0  0  0  0  0  0  0  0  0  # atno 17370 bound_to 10713
  157.6740  130.9077  150.0107 LP  0  0  0  0  0  0  0  0  0  0  0  0  # atno 17371 bound_to 10713
  141.0758  133.6776  156.2234 LP  0  0  0  0  0  0  0  0  0  0  0  0  # atno 17394 bound_to 11000
  140.6430  134.5146  157.5571 LP  0  0  0  0  0  0  0  0  0  0  0  0  # atno 17395 bound_to 11000

$$$$
