AV-unprocessed.smi:1803|AV-procd|sdf|7286|dock6
  -GOLD-   22720 8543D 1   1.00000     0.00000
 Structure written by MMmdl.
 36 38  0  0  0  0  0  0  0  0  2 V2000
  147.7659  133.3672  154.9907 O   0  0  0  0  0  0  0  0  0  0  0  0
  148.2014  134.0917  154.0976 C   0  0  0  0  0  0  0  0  0  0  0  0
  149.1861  134.9825  154.3431 N   0  0  0  0  0  0  0  0  0  0  0  0
  149.9074  135.2956  155.5324 C   0  0  0  0  0  0  0  0  0  0  0  0
  149.5647  134.8809  156.7630 N   0  0  0  0  0  0  0  0  0  0  0  0
  150.4408  135.3452  157.7345 N   0  0  0  0  0  0  0  0  0  0  0  0
  151.4071  136.0985  157.2029 C   0  0  0  0  0  0  0  0  0  0  0  0
  151.3392  136.3141  155.4630 S   0  0  0  0  0  0  0  0  0  0  0  0
  147.7327  134.0515  152.8394 N   0  0  0  0  0  0  0  0  0  0  0  0
  146.6815  133.1658  152.3501 C   0  0  1  0  0  0  0  0  0  0  0  0
  146.3286  133.4106  150.8878 C   0  0  0  0  0  0  0  0  0  0  0  0
  145.6356  132.1035  150.4999 C   0  0  0  0  0  0  0  0  0  0  0  0
  146.3097  131.0388  151.2777 N   0  3  2  0  0  0  0  0  0  0  0  0
  145.4199  129.9337  151.7110 C   0  0  0  0  0  0  0  0  0  0  0  0
  146.2113  128.8724  152.4977 C   0  0  0  0  0  0  0  0  0  0  0  0
  147.0804  129.4748  153.6217 C   0  0  0  0  0  0  0  0  0  0  0  0
  146.9216  130.9989  153.7331 C   0  0  0  0  0  0  0  0  0  0  0  0
  147.1032  131.6865  152.3607 C   0  0  2  0  0  0  0  0  0  0  0  0
  149.4462  135.5431  153.5443 H   0  0  0  0  0  0  0  0  0  0  0  0
  152.1641  136.5318  157.8396 H   0  0  0  0  0  0  0  0  0  0  0  0
  148.1444  134.6845  152.1679 H   0  0  0  0  0  0  0  0  0  0  0  0
  145.7710  133.2957  152.9389 H   0  0  0  0  0  0  0  0  0  0  0  0
  145.6936  134.2852  150.7431 H   0  0  0  0  0  0  0  0  0  0  0  0
  147.2333  133.5450  150.2924 H   0  0  0  0  0  0  0  0  0  0  0  0
  144.5827  132.1598  150.7811 H   0  0  0  0  0  0  0  0  0  0  0  0
  145.6839  131.9062  149.4288 H   0  0  0  0  0  0  0  0  0  0  0  0
  144.6115  130.3317  152.3268 H   0  0  0  0  0  0  0  0  0  0  0  0
  144.9529  129.4790  150.8367 H   0  0  0  0  0  0  0  0  0  0  0  0
  145.5193  128.1403  152.9153 H   0  0  0  0  0  0  0  0  0  0  0  0
  146.8527  128.3194  151.8104 H   0  0  0  0  0  0  0  0  0  0  0  0
  146.8378  129.0066  154.5764 H   0  0  0  0  0  0  0  0  0  0  0  0
  148.1275  129.2391  153.4282 H   0  0  0  0  0  0  0  0  0  0  0  0
  145.9359  131.2288  154.1402 H   0  0  0  0  0  0  0  0  0  0  0  0
  147.6419  131.3937  154.4499 H   0  0  0  0  0  0  0  0  0  0  0  0
  148.1483  131.6047  152.0569 H   0  0  0  0  0  0  0  0  0  0  0  0
  146.9925  130.6230  150.6604 H   0  0  0  0  0  0  0  0  0  0  0  0
  1  2  2  0  0  0  0
  2  3  1  0  0  0  0
  2  9  1  0  0  0  0
  3  4  1  0  0  0  0
  3 19  1  0  0  0  0
  4  8  1  0  0  0  0
  4  5  2  0  0  0  0
  5  6  1  0  0  0  0
  6  7  2  0  0  0  0
  7  8  1  0  0  0  0
  7 20  1  0  0  0  0
  9 10  1  0  0  0  0
  9 21  1  0  0  0  0
 10 18  1  0  0  0  0
 10 11  1  0  0  0  0
 10 22  1  0  0  0  0
 11 12  1  0  0  0  0
 11 23  1  0  0  0  0
 11 24  1  0  0  0  0
 12 13  1  0  0  0  0
 12 25  1  0  0  0  0
 12 26  1  0  0  0  0
 13 18  1  0  0  0  0
 13 14  1  0  0  0  0
 13 36  1  0  0  0  0
 14 15  1  0  0  0  0
 14 27  1  0  0  0  0
 14 28  1  0  0  0  0
 15 16  1  0  0  0  0
 15 29  1  0  0  0  0
 15 30  1  0  0  0  0
 16 17  1  0  0  0  0
 16 31  1  0  0  0  0
 16 32  1  0  0  0  0
 17 18  1  0  0  0  0
 17 33  1  0  0  0  0
 17 34  1  0  0  0  0
 18 35  1  0  0  0  0
M  CHG  1  13   1
M  END
> <s_m_source_file>
AV-unprocessed.smi

> <i_m_source_file_index>
1803

> <i_lp_mmshare_version>
43012

> <i_f3d_flags>
0

> <s_epik_input>
czFbY0hdbm5jMVtOSF1DKD1PKVtOSF1bQ0BIXShbQ0gyXVtDSDJdMilbQ0BASF0oTjIzKVtDSDJdW0NIMl1bQ0gyXVtDSDJdMw==

> <s_epik_cmdline>
J2VwaWtfcHl0aG9uJywgJy1waCcsICc3LjAnLCAnLXRuJywgJzgnLCAnLW1hJywgJzIwMCcsICctbWV0YWxfYmluZGluZycsICctaW1hZScsICc8aW5maWxlLm1hZT4nLCAnLW9tYWUnLCAnPG91dGZpbGUubWFlPic=

> <r_lp_tautomer_probability>
1

> <r_epik_Ionization_Penalty>
0.00213286

> <r_epik_Ionization_Penalty_Charging>
0.00107044

> <r_epik_Ionization_Penalty_Neutral>
0.00106242

> <r_epik_State_Penalty>
-0

> <r_epik_Charging_Adjusted_Penalty>
0.00107044

> <i_epik_Tot_Q>
1

> <i_epik_Tot_abs_Q>
1

> <r_epik_Metal_State_Penalty>
0.292783

> <b_epik_Metal_Only>
0

> <s_lp_Force_Field>
OPLS_2005

> <r_lp_Energy>
41.2336

> <b_lp_Chiralities_Consistent>
1

> <s_lp_Variant>
AV-unprocessed.smi:1803-8

> <Gold.Version>
5.8.1

> <Gold.Id.Protein>
6NUR|6NUR_protein|mol2

> <Gold.PLP.Fitness>
35.9441

> <Gold.PLP.PLP>
-25.0769

> <Gold.PLP.part.hbond>
-4.0000

> <Gold.PLP.part.metal>
0.0000

> <Gold.PLP.part.buried>
-2.5442

> <Gold.PLP.part.nonpolar>
-18.8682

> <Gold.PLP.part.repulsive>
0.0593

> <Gold.PLP.ligand.clash>
0.0000

> <Gold.PLP.ligand.torsion>
0.0557

> <Gold.PLP.Chemscore.Hbond>
3.6569

> <Gold.PLP.Chemscore.CHOScore>
0.0000

> <Gold.PLP.Chemscore.Metal>
0.0000

> <Gold.Chemscore.Hbonds>
donor molecule, donor type, donor heavy atom, donor atom, acceptor molecule, acceptor atom, score
      L1  H     3    19       P1  7948  0.91
      L1  H     9    21       P1  7948  0.94
      L1  H    13    36       P1 10747  0.75
      P1  H  6896  6909       L1     6  0.59

> <Gold.PLP.Chemscore.Internal.Correction>
0.0080

> <Gold.Rescore>
     Score         DG    S(hbond)    S(metal)    S(lipo)     H(rot)  DE(clash)    DE(int)     intcor
     19.35     -21.91       3.51        0.00      62.06       1.00       0.11       2.45       ----

> <Gold.Chemscore.Fitness>
19.3530

> <Gold.Chemscore.DG>
-21.9098

> <Gold.Chemscore.ZeroCoef>
-5.4800

> <Gold.Chemscore.Hbond>
3.5115

> <Gold.Chemscore.Metal>
0.0000

> <Gold.Chemscore.Lipo>
62.0618

> <Gold.Chemscore.Internal_Hbond>
0.0000

> <Gold.Chemscore.DEClash>
0.1087

> <Gold.Chemscore.DEInternal>
2.4481

> <Gold.Chemscore.Rot>
1.0000

> <Gold.Chemscore.Internal.Correction>
   9.000000E+99

> <Gold.Chemscore.Hbonds>
donor molecule, donor type, donor heavy atom, donor atom, acceptor molecule, acceptor atom, score
      L1  H     3    19       P1  7948  0.20
      L1  H     9    21       P1  7948  0.20
      L1  H    13    36       P1 10747  0.71
      P1  H  6896  6909       L1     6  0.55

> <Gold.Chemscore.Hbond.Weighted>
-11.7285

> <Gold.Chemscore.Metal.Weighted>
-0.0000

> <Gold.Chemscore.Lipo.Weighted>
-7.2612

> <Gold.Chemscore.Internal_Hbond.Weighted>
0.0000

> <Gold.Chemscore.DEClash.Weighted>
0.1087

> <Gold.Chemscore.DEInternal.Weighted>
2.4481

> <Gold.Chemscore.Rot.Weighted>
2.5600

> <Gold.Chemscore.Internal.Correction.Weighted>
   9.000000E+99

> <Gold.Protein.RotatedTorsions>
[ 6907 6896 6895 6894 ] final   48.95 input  -60.11 | X-H torsion
[ 7974 7965 7964 7962 ] final  -39.09 input  175.53 | X-H torsion
[ 8008 7997 7996 7995 ] final   89.52 input   59.86 | X-H torsion
[ 10167 10162 10161 10158 ] final   27.46 input  -65.29 | X-H torsion
[ 10718 10713 10712 10709 ] final -156.26 input   66.30 | X-H torsion
[ 10763 10752 10751 10750 ] final  -96.38 input  -60.55 | X-H torsion
[ 11005 11000 10999 10996 ] final  123.20 input  -57.11 | X-H torsion

> <Gold.Protein.ActiveResidues>
 VAL166  LYS551  ARG553  GLY616  TRP617  ASP618  TYR619  PRO620  LYS621  CYS622 
 ASP623  PHE694  ASN695  SER759  ASP760  ASP761  ALA762  ILE779  LEU786  VAL792 
 PHE793  MET794  SER795  GLU796  ALA797  LYS798  CYS799  TRP800  GLU811  SER814 

> <Gold.Protein.RotatedAtoms>
  152.2852  134.7783  160.0388 H   0  0  0  0  0  0  0  0  0  0  0  0  # atno 6907 bound_to 6896
  151.8348  133.3409  159.3633 H   0  0  0  0  0  0  0  0  0  0  0  0  # atno 6908 bound_to 6896
  150.7206  134.5376  159.5775 H   0  0  0  0  0  0  0  0  0  0  0  0  # atno 6909 bound_to 6896
  146.0428  140.6586  142.9079 H   0  0  0  0  0  0  0  0  0  0  0  0  # atno 7974 bound_to 7965
  156.0009  140.3360  155.6845 H   0  0  0  0  0  0  0  0  0  0  0  0  # atno 8008 bound_to 7997
  155.6291  140.0683  157.2672 H   0  0  0  0  0  0  0  0  0  0  0  0  # atno 8009 bound_to 7997
  154.4249  140.1763  156.1441 H   0  0  0  0  0  0  0  0  0  0  0  0  # atno 8010 bound_to 7997
  140.4936  144.0428  150.6306 H   0  0  0  0  0  0  0  0  0  0  0  0  # atno 10167 bound_to 10162
  156.5241  130.8491  151.2692 H   0  0  0  0  0  0  0  0  0  0  0  0  # atno 10718 bound_to 10713
  154.7234  135.5085  153.8848 H   0  0  0  0  0  0  0  0  0  0  0  0  # atno 10763 bound_to 10752
  153.0883  135.6652  153.9913 H   0  0  0  0  0  0  0  0  0  0  0  0  # atno 10764 bound_to 10752
  153.9731  135.3036  155.3405 H   0  0  0  0  0  0  0  0  0  0  0  0  # atno 10765 bound_to 10752
  139.9302  134.9641  156.8223 H   0  0  0  0  0  0  0  0  0  0  0  0  # atno 11005 bound_to 11000
  144.7083  140.3939  143.7101 LP  0  0  0  0  0  0  0  0  0  0  0  0  # atno 17320 bound_to 7965
  145.6856  139.1628  143.2676 LP  0  0  0  0  0  0  0  0  0  0  0  0  # atno 17321 bound_to 7965
  140.3704  143.2858  152.0285 LP  0  0  0  0  0  0  0  0  0  0  0  0  # atno 17342 bound_to 10162
  139.4856  144.6234  151.7211 LP  0  0  0  0  0  0  0  0  0  0  0  0  # atno 17343 bound_to 10162
  157.7432  130.9907  150.2576 LP  0  0  0  0  0  0  0  0  0  0  0  0  # atno 17370 bound_to 10713
  156.3122  130.3773  149.7651 LP  0  0  0  0  0  0  0  0  0  0  0  0  # atno 17371 bound_to 10713
  140.6224  133.9982  155.7624 LP  0  0  0  0  0  0  0  0  0  0  0  0  # atno 17394 bound_to 11000
  141.0885  133.9953  157.3274 LP  0  0  0  0  0  0  0  0  0  0  0  0  # atno 17395 bound_to 11000

$$$$
