AV-unprocessed.smi:2154|AV-procd|sdf|8775|dock2
  -GOLD-   2272011553D 1   1.00000     0.00000
 Structure written by MMmdl.
 31 32  0  0  0  0  0  0  0  0  2 V2000
  153.2903  143.2093  160.1492 C   0  0  0  0  0  0  0  0  0  0  0  0
  152.1817  144.2299  160.3131 C   0  0  1  0  0  0  0  0  0  0  0  0
  152.4136  145.6825  159.9674 C   0  0  0  0  0  0  0  0  0  0  0  0
  151.4686  144.8526  159.1292 C   0  0  1  0  0  0  0  0  0  0  0  0
  151.8131  144.4834  157.6960 C   0  0  0  0  0  0  0  0  0  0  0  0
  150.9882  143.4306  157.1182 N   0  0  0  0  0  0  0  0  0  0  0  0
  150.9784  142.1510  157.5206 C   0  0  0  0  0  0  0  0  0  0  0  0
  151.6694  141.7312  158.4499 O   0  0  0  0  0  0  0  0  0  0  0  0
  150.0157  141.2166  156.7749 C   0  0  0  0  0  0  0  0  0  0  0  0
  150.6155  139.9118  156.4521 N   0  0  0  0  0  0  0  0  0  0  0  0
  151.1680  139.1664  157.5086 C   0  0  0  0  0  0  0  0  0  0  0  0
  151.7396  137.9640  157.3065 C   0  0  0  0  0  0  0  0  0  0  0  0
  151.7766  137.4366  155.9481 C   0  0  0  0  0  0  0  0  0  0  0  0
  152.2891  136.3375  155.7460 O   0  0  0  0  0  0  0  0  0  0  0  0
  151.2324  138.2001  154.9559 N   0  5  0  0  0  0  0  0  0  0  0  0
  150.6568  139.4231  155.1758 C   0  0  0  0  0  0  0  0  0  0  0  0
  150.1734  140.0970  154.2653 O   0  0  0  0  0  0  0  0  0  0  0  0
  153.9723  143.4892  159.3467 H   0  0  0  0  0  0  0  0  0  0  0  0
  152.8674  142.2303  159.9235 H   0  0  0  0  0  0  0  0  0  0  0  0
  153.8645  143.1340  161.0726 H   0  0  0  0  0  0  0  0  0  0  0  0
  151.5547  144.0414  161.1823 H   0  0  0  0  0  0  0  0  0  0  0  0
  151.9748  146.4316  160.6234 H   0  0  0  0  0  0  0  0  0  0  0  0
  153.3732  145.9534  159.5311 H   0  0  0  0  0  0  0  0  0  0  0  0
  150.4054  145.0267  159.2860 H   0  0  0  0  0  0  0  0  0  0  0  0
  151.7177  145.3629  157.0595 H   0  0  0  0  0  0  0  0  0  0  0  0
  152.8625  144.1877  157.6541 H   0  0  0  0  0  0  0  0  0  0  0  0
  150.3861  143.6900  156.3503 H   0  0  0  0  0  0  0  0  0  0  0  0
  149.1273  141.0837  157.3933 H   0  0  0  0  0  0  0  0  0  0  0  0
  149.6596  141.7014  155.8638 H   0  0  0  0  0  0  0  0  0  0  0  0
  151.1053  139.6310  158.4813 H   0  0  0  0  0  0  0  0  0  0  0  0
  152.1628  137.4053  158.1283 H   0  0  0  0  0  0  0  0  0  0  0  0
  1  2  1  0  0  0  0
  1 18  1  0  0  0  0
  1 19  1  0  0  0  0
  1 20  1  0  0  0  0
  2  4  1  0  0  0  0
  2  3  1  0  0  0  0
  2 21  1  0  0  0  0
  3  4  1  0  0  0  0
  3 22  1  0  0  0  0
  3 23  1  0  0  0  0
  4  5  1  0  0  0  0
  4 24  1  0  0  0  0
  5  6  1  0  0  0  0
  5 25  1  0  0  0  0
  5 26  1  0  0  0  0
  6  7  1  0  0  0  0
  6 27  1  0  0  0  0
  7  8  2  0  0  0  0
  7  9  1  0  0  0  0
  9 10  1  0  0  0  0
  9 28  1  0  0  0  0
  9 29  1  0  0  0  0
 10 16  1  0  0  0  0
 10 11  1  0  0  0  0
 11 12  2  0  0  0  0
 11 30  1  0  0  0  0
 12 13  1  0  0  0  0
 12 31  1  0  0  0  0
 13 14  2  0  0  0  0
 13 15  1  0  0  0  0
 15 16  1  0  0  0  0
 16 17  2  0  0  0  0
M  CHG  1  15  -1
M  END
> <s_m_source_file>
AV-unprocessed.smi

> <i_m_source_file_index>
2154

> <i_lp_mmshare_version>
43012

> <i_f3d_flags>
0

> <s_epik_input>
W0NIM11bQ0BASF0xW0NIMl1bQ0BIXTFbQ0gyXVtOSF1DKD1PKVtDSDJdbjJbY0hdW2NIXWMoPU8pW25IXWMyPU8=

> <s_epik_cmdline>
J2VwaWtfcHl0aG9uJywgJy1waCcsICc3LjAnLCAnLXRuJywgJzgnLCAnLW1hJywgJzIwMCcsICctbWV0YWxfYmluZGluZycsICctaW1hZScsICc8aW5maWxlLm1hZT4nLCAnLW9tYWUnLCAnPG91dGZpbGUubWFlPic=

> <r_lp_tautomer_probability>
0.999537

> <r_epik_Ionization_Penalty>
3.12283

> <r_epik_Ionization_Penalty_Charging>
2.83566e-08

> <r_epik_Ionization_Penalty_Neutral>
3.12283

> <r_epik_State_Penalty>
3.12192

> <r_epik_Charging_Adjusted_Penalty>
3.12192

> <i_epik_Tot_Q>
-1

> <i_epik_Tot_abs_Q>
1

> <r_epik_Metal_State_Penalty>
0.463748

> <b_epik_Metal_Only>
1

> <s_lp_Force_Field>
OPLS_2005

> <r_lp_Energy>
25.8954

> <b_lp_Chiralities_Consistent>
1

> <s_lp_Variant>
AV-unprocessed.smi:2154-6

> <Gold.Version>
5.8.1

> <Gold.Id.Protein>
6NUR|6NUR_protein|mol2

> <Gold.PLP.Fitness>
42.7127

> <Gold.PLP.PLP>
-34.6949

> <Gold.PLP.part.hbond>
-2.7651

> <Gold.PLP.part.metal>
0.0000

> <Gold.PLP.part.buried>
-6.6210

> <Gold.PLP.part.nonpolar>
-26.1488

> <Gold.PLP.part.repulsive>
0.5062

> <Gold.PLP.ligand.clash>
0.0000

> <Gold.PLP.ligand.torsion>
0.5354

> <Gold.PLP.Chemscore.Hbond>
2.8480

> <Gold.PLP.Chemscore.CHOScore>
0.0000

> <Gold.PLP.Chemscore.Metal>
0.0000

> <Gold.Chemscore.Hbonds>
donor molecule, donor type, donor heavy atom, donor atom, acceptor molecule, acceptor atom, score
      L1  H     6    27       P1  8028  0.99
      P1  H  7989  7998       L1    17  1.00
      P1  H 10752 10763       L1    14  0.67

> <Gold.PLP.Chemscore.Internal.Correction>
0.5447

> <Gold.Rescore>
     Score         DG    S(hbond)    S(metal)    S(lipo)     H(rot)  DE(clash)    DE(int)     intcor
     15.78     -18.61       2.91        0.00      72.05       1.96       0.00       2.82       ----

> <Gold.Chemscore.Fitness>
15.7792

> <Gold.Chemscore.DG>
-18.6061

> <Gold.Chemscore.ZeroCoef>
-5.4800

> <Gold.Chemscore.Hbond>
2.9090

> <Gold.Chemscore.Metal>
0.0000

> <Gold.Chemscore.Lipo>
72.0506

> <Gold.Chemscore.Internal_Hbond>
0.0000

> <Gold.Chemscore.DEClash>
0.0029

> <Gold.Chemscore.DEInternal>
2.8240

> <Gold.Chemscore.Rot>
1.9609

> <Gold.Chemscore.Internal.Correction>
   9.000000E+99

> <Gold.Chemscore.Hbonds>
donor molecule, donor type, donor heavy atom, donor atom, acceptor molecule, acceptor atom, score
      L1  H     6    27       P1  8028  0.94
      P1  H  7989  7998       L1    17  0.43
      P1  H 10752 10763       L1    14  0.66

> <Gold.Chemscore.Hbond.Weighted>
-9.7161

> <Gold.Chemscore.Metal.Weighted>
-0.0000

> <Gold.Chemscore.Lipo.Weighted>
-8.4299

> <Gold.Chemscore.Internal_Hbond.Weighted>
0.0000

> <Gold.Chemscore.DEClash.Weighted>
0.0029

> <Gold.Chemscore.DEInternal.Weighted>
2.8240

> <Gold.Chemscore.Rot.Weighted>
5.0200

> <Gold.Chemscore.Internal.Correction.Weighted>
   9.000000E+99

> <Gold.Protein.RotatedTorsions>
[ 6907 6896 6895 6894 ] final -175.68 input  -60.11 | X-H torsion
[ 7974 7965 7964 7962 ] final   88.36 input  175.53 | X-H torsion
[ 8008 7997 7996 7995 ] final   68.80 input   59.86 | X-H torsion
[ 10167 10162 10161 10158 ] final  150.84 input  -65.29 | X-H torsion
[ 10718 10713 10712 10709 ] final  -87.44 input   66.30 | X-H torsion
[ 10763 10752 10751 10750 ] final   90.91 input  -60.55 | X-H torsion
[ 11005 11000 10999 10996 ] final  -40.68 input  -57.11 | X-H torsion

> <Gold.Protein.ActiveResidues>
 VAL166  LYS551  ARG553  GLY616  TRP617  ASP618  TYR619  PRO620  LYS621  CYS622 
 ASP623  PHE694  ASN695  SER759  ASP760  ASP761  ALA762  ILE779  LEU786  VAL792 
 PHE793  MET794  SER795  GLU796  ALA797  LYS798  CYS799  TRP800  GLU811  SER814 

> <Gold.Protein.RotatedAtoms>
  151.5926  133.3365  159.3030 H   0  0  0  0  0  0  0  0  0  0  0  0  # atno 6907 bound_to 6896
  150.8252  134.7482  159.6818 H   0  0  0  0  0  0  0  0  0  0  0  0  # atno 6908 bound_to 6896
  152.4342  134.5725  159.9977 H   0  0  0  0  0  0  0  0  0  0  0  0  # atno 6909 bound_to 6896
  145.5467  139.2292  143.2535 H   0  0  0  0  0  0  0  0  0  0  0  0  # atno 7974 bound_to 7965
  155.7139  140.3494  155.4986 H   0  0  0  0  0  0  0  0  0  0  0  0  # atno 8008 bound_to 7997
  155.9331  140.1088  157.1138 H   0  0  0  0  0  0  0  0  0  0  0  0  # atno 8009 bound_to 7997
  154.4089  140.1227  156.4815 H   0  0  0  0  0  0  0  0  0  0  0  0  # atno 8010 bound_to 7997
  139.4846  144.5489  151.7435 H   0  0  0  0  0  0  0  0  0  0  0  0  # atno 10167 bound_to 10162
  155.9985  130.4800  150.4867 H   0  0  0  0  0  0  0  0  0  0  0  0  # atno 10718 bound_to 10713
  153.2026  135.4417  155.0284 H   0  0  0  0  0  0  0  0  0  0  0  0  # atno 10763 bound_to 10752
  154.8155  135.3313  154.7189 H   0  0  0  0  0  0  0  0  0  0  0  0  # atno 10764 bound_to 10752
  153.7633  135.6990  153.4976 H   0  0  0  0  0  0  0  0  0  0  0  0  # atno 10765 bound_to 10752
  141.0192  133.6871  156.2354 H   0  0  0  0  0  0  0  0  0  0  0  0  # atno 11005 bound_to 11000
  146.1944  140.6289  142.9131 LP  0  0  0  0  0  0  0  0  0  0  0  0  # atno 17320 bound_to 7965
  144.7549  140.5284  143.6775 LP  0  0  0  0  0  0  0  0  0  0  0  0  # atno 17321 bound_to 7965
  140.5040  144.1126  150.5978 LP  0  0  0  0  0  0  0  0  0  0  0  0  # atno 17342 bound_to 10162
  140.4029  143.2695  151.9926 LP  0  0  0  0  0  0  0  0  0  0  0  0  # atno 17343 bound_to 10162
  157.2867  131.0618  151.2162 LP  0  0  0  0  0  0  0  0  0  0  0  0  # atno 17370 bound_to 10713
  157.3189  130.6927  149.6258 LP  0  0  0  0  0  0  0  0  0  0  0  0  # atno 17371 bound_to 10713
  140.6602  134.4975  157.5583 LP  0  0  0  0  0  0  0  0  0  0  0  0  # atno 17394 bound_to 11000
  139.9135  134.8294  156.1444 LP  0  0  0  0  0  0  0  0  0  0  0  0  # atno 17395 bound_to 11000

$$$$
