AV-unprocessed.smi:54|AV-procd|sdf|554|dock6
  -GOLD-   2262016453D 1   1.00000     0.00000
 Structure written by MMmdl.
 43 45  0  0  0  0  0  0  0  0  2 V2000
  146.2859  135.2890  162.4758 C   0  0  0  0  0  0  0  0  0  0  0  0
  147.0130  135.0184  161.1484 C   0  0  0  0  0  0  0  0  0  0  0  0
  147.8034  133.7005  161.2038 C   0  0  0  0  0  0  0  0  0  0  0  0
  147.9332  136.1927  160.7852 C   0  0  0  0  0  0  0  0  0  0  0  0
  147.9798  137.1714  161.5337 O   0  0  0  0  0  0  0  0  0  0  0  0
  148.6232  136.0490  159.6320 N   0  0  0  0  0  0  0  0  0  0  0  0
  149.5225  136.9314  159.0219 C   0  0  0  0  0  0  0  0  0  0  0  0
  149.0178  137.5332  157.9720 N   0  0  0  0  0  0  0  0  0  0  0  0
  149.9195  138.3842  157.3614 C   0  0  0  0  0  0  0  0  0  0  0  0
  151.2101  138.6420  157.7330 C   0  0  0  0  0  0  0  0  0  0  0  0
  151.8038  139.5736  156.8908 N   0  0  0  0  0  0  0  0  0  0  0  0
  150.8210  139.8381  156.0314 C   0  0  0  0  0  0  0  0  0  0  0  0
  149.6740  139.1533  156.2282 N   0  0  0  0  0  0  0  0  0  0  0  0
  148.3854  139.2455  155.4610 C   0  0  1  0  0  0  0  0  0  0  0  0
  147.4339  139.8998  156.2421 O   0  0  0  0  0  0  0  0  0  0  0  0
  147.5306  141.3013  156.0227 C   0  0  2  0  0  0  0  0  0  0  0  0
  146.2266  141.9911  156.4519 C   0  0  0  0  0  0  0  0  0  0  0  0
  146.0085  141.7995  157.8333 O   0  0  0  0  0  0  0  0  0  0  0  0
  147.7991  141.3846  154.5153 C   0  0  1  0  0  0  0  0  0  0  0  0
  148.5909  142.5206  154.2309 O   0  0  0  0  0  0  0  0  0  0  0  0
  148.5676  140.1008  154.1938 C   0  0  2  0  0  0  0  0  0  0  0  0
  148.0165  139.4598  153.0615 O   0  0  0  0  0  0  0  0  0  0  0  0
  151.7205  137.9233  158.9240 C   0  0  0  0  0  0  0  0  0  0  0  0
  152.8763  138.1220  159.2936 O   0  0  0  0  0  0  0  0  0  0  0  0
  150.8320  137.0754  159.5232 N   0  5  0  0  0  0  0  0  0  0  0  0
  148.1149  138.2051  155.2765 H   0  0  0  0  0  0  0  0  0  0  0  0
  148.3824  141.7031  156.5750 H   0  0  0  0  0  0  0  0  0  0  0  0
  146.8598  141.4306  153.9616 H   0  0  0  0  0  0  0  0  0  0  0  0
  149.6263  140.2924  154.0118 H   0  0  0  0  0  0  0  0  0  0  0  0
  145.7269  136.2249  162.4374 H   0  0  0  0  0  0  0  0  0  0  0  0
  146.9845  135.3524  163.3111 H   0  0  0  0  0  0  0  0  0  0  0  0
  145.5755  134.4929  162.6998 H   0  0  0  0  0  0  0  0  0  0  0  0
  146.2568  134.9192  160.3677 H   0  0  0  0  0  0  0  0  0  0  0  0
  148.3313  133.5149  160.2674 H   0  0  0  0  0  0  0  0  0  0  0  0
  147.1375  132.8545  161.3764 H   0  0  0  0  0  0  0  0  0  0  0  0
  148.5417  133.7079  162.0068 H   0  0  0  0  0  0  0  0  0  0  0  0
  148.4115  135.2075  159.1166 H   0  0  0  0  0  0  0  0  0  0  0  0
  150.9450  140.5566  155.2348 H   0  0  0  0  0  0  0  0  0  0  0  0
  146.2966  143.0654  156.2789 H   0  0  0  0  0  0  0  0  0  0  0  0
  145.3751  141.6252  155.8776 H   0  0  0  0  0  0  0  0  0  0  0  0
  145.1797  142.1908  158.0636 H   0  0  0  0  0  0  0  0  0  0  0  0
  148.4347  143.1691  154.9006 H   0  0  0  0  0  0  0  0  0  0  0  0
  148.4531  139.7876  152.2905 H   0  0  0  0  0  0  0  0  0  0  0  0
  1  2  1  0  0  0  0
  1 30  1  0  0  0  0
  1 31  1  0  0  0  0
  1 32  1  0  0  0  0
  2  3  1  0  0  0  0
  2  4  1  0  0  0  0
  2 33  1  0  0  0  0
  3 34  1  0  0  0  0
  3 35  1  0  0  0  0
  3 36  1  0  0  0  0
  4  5  2  0  0  0  0
  4  6  1  0  0  0  0
  6 37  1  0  0  0  0
  6  7  1  0  0  0  0
  7 25  1  0  0  0  0
  7  8  2  0  0  0  0
  8  9  1  0  0  0  0
  9 13  1  0  0  0  0
  9 10  2  0  0  0  0
 10 11  1  0  0  0  0
 10 23  1  0  0  0  0
 11 12  2  0  0  0  0
 12 13  1  0  0  0  0
 12 38  1  0  0  0  0
 13 14  1  0  0  0  0
 14 26  1  0  0  0  0
 14 21  1  0  0  0  0
 14 15  1  0  0  0  0
 15 16  1  0  0  0  0
 16 27  1  0  0  0  0
 16 17  1  0  0  0  0
 16 19  1  0  0  0  0
 17 18  1  0  0  0  0
 17 39  1  0  0  0  0
 17 40  1  0  0  0  0
 18 41  1  0  0  0  0
 19 28  1  0  0  0  0
 19 20  1  0  0  0  0
 19 21  1  0  0  0  0
 20 42  1  0  0  0  0
 21 29  1  0  0  0  0
 21 22  1  0  0  0  0
 22 43  1  0  0  0  0
 23 24  2  0  0  0  0
 23 25  1  0  0  0  0
M  CHG  1  25  -1
M  END
> <s_m_source_file>
AV-unprocessed.smi

> <i_m_source_file_index>
54

> <i_lp_mmshare_version>
43012

> <i_f3d_flags>
0

> <s_epik_input>
W0NIM11bQ0hdKFtDSDNdKUMoPU8pW05IXWMobjEpW25IXWMoPU8pYyhjMTIpbltjSF1uMltDQEBIXTNPW0NASF0oW0NIMl1bT0hdKVtDQEBIXShbT0hdKVtDQEhdM1tPSF0=

> <s_epik_cmdline>
J2VwaWtfcHl0aG9uJywgJy1waCcsICc3LjAnLCAnLXRuJywgJzgnLCAnLW1hJywgJzIwMCcsICctbWV0YWxfYmluZGluZycsICctaW1hZScsICc8aW5maWxlLm1hZT4nLCAnLW9tYWUnLCAnPG91dGZpbGUubWFlPic=

> <r_lp_tautomer_probability>
0.85571

> <r_epik_Ionization_Penalty>
1.75936

> <r_epik_Ionization_Penalty_Charging>
4.55893e-11

> <r_epik_Ionization_Penalty_Neutral>
1.75936

> <r_epik_State_Penalty>
1.72072

> <r_epik_Charging_Adjusted_Penalty>
1.72072

> <i_epik_Tot_Q>
-1

> <i_epik_Tot_abs_Q>
1

> <r_epik_Metal_State_Penalty>
0.400338

> <b_epik_Metal_Only>
1

> <s_epik_Chemistry_Notes>
This compound contains an acetal/aminal-like group ( X-CH(R)-Y where X, Y are N, S, or O) that may be acid/base labile, releasing an aldehyde.

> <s_lp_Force_Field>
OPLS_2005

> <r_lp_Energy>
54.6298

> <b_lp_Chiralities_Consistent>
1

> <s_lp_Variant>
AV-unprocessed.smi:54-26

> <Gold.Version>
5.8.1

> <Gold.Id.Protein>
6NUR|6NUR_protein|mol2

> <Gold.PLP.Fitness>
46.7454

> <Gold.PLP.PLP>
-31.0244

> <Gold.PLP.part.hbond>
-5.7800

> <Gold.PLP.part.metal>
0.0000

> <Gold.PLP.part.buried>
-4.7232

> <Gold.PLP.part.nonpolar>
-19.7278

> <Gold.PLP.part.repulsive>
0.1650

> <Gold.PLP.ligand.clash>
0.0000

> <Gold.PLP.ligand.torsion>
0.8918

> <Gold.PLP.Chemscore.Hbond>
5.8143

> <Gold.PLP.Chemscore.CHOScore>
0.0000

> <Gold.PLP.Chemscore.Metal>
0.0000

> <Gold.Chemscore.Hbonds>
donor molecule, donor type, donor heavy atom, donor atom, acceptor molecule, acceptor atom, score
      L1  H    20    42       P1  8028  0.98
      L1  H    22    43       P1  7957  1.00
      P1  H  6896  6907       L1    25  2.00
      P1  H  6931  6943       L1     5  1.00
      P1  H  6934  6947       L1     5  0.55
      P1  H  8011  8017       L1    20  0.06

> <Gold.PLP.Chemscore.Internal.Correction>
0.0618

> <Gold.Rescore>
     Score         DG    S(hbond)    S(metal)    S(lipo)     H(rot)  DE(clash)    DE(int)     intcor
     14.64     -15.61       4.65        0.00      41.67       4.02       0.01       0.96       ----

> <Gold.Chemscore.Fitness>
14.6398

> <Gold.Chemscore.DG>
-15.6141

> <Gold.Chemscore.ZeroCoef>
-5.4800

> <Gold.Chemscore.Hbond>
4.6550

> <Gold.Chemscore.Metal>
0.0000

> <Gold.Chemscore.Lipo>
41.6731

> <Gold.Chemscore.Internal_Hbond>
0.0000

> <Gold.Chemscore.DEClash>
0.0096

> <Gold.Chemscore.DEInternal>
0.9646

> <Gold.Chemscore.Rot>
4.0192

> <Gold.Chemscore.Internal.Correction>
   9.000000E+99

> <Gold.Chemscore.Hbonds>
donor molecule, donor type, donor heavy atom, donor atom, acceptor molecule, acceptor atom, score
      L1  H    20    42       P1  8028  0.93
      L1  H    22    43       P1  7957  0.99
      P1  H  6896  6907       L1    25  0.24
      P1  H  6931  6943       L1     5  0.94
      P1  H  6934  6947       L1     5  0.52
      P1  H  8011  8017       L1    20  0.07

> <Gold.Chemscore.Hbond.Weighted>
-15.5476

> <Gold.Chemscore.Metal.Weighted>
-0.0000

> <Gold.Chemscore.Lipo.Weighted>
-4.8758

> <Gold.Chemscore.Internal_Hbond.Weighted>
0.0000

> <Gold.Chemscore.DEClash.Weighted>
0.0096

> <Gold.Chemscore.DEInternal.Weighted>
0.9646

> <Gold.Chemscore.Rot.Weighted>
10.2893

> <Gold.Chemscore.Internal.Correction.Weighted>
   9.000000E+99

> <Gold.Protein.RotatedTorsions>
[ 6907 6896 6895 6894 ] final  -17.66 input  -60.11 | X-H torsion
[ 7974 7965 7964 7962 ] final  -17.58 input  175.53 | X-H torsion
[ 8008 7997 7996 7995 ] final  177.83 input   59.86 | X-H torsion
[ 10167 10162 10161 10158 ] final -139.34 input  -65.29 | X-H torsion
[ 10718 10713 10712 10709 ] final -103.68 input   66.30 | X-H torsion
[ 10763 10752 10751 10750 ] final   96.69 input  -60.55 | X-H torsion
[ 11005 11000 10999 10996 ] final   41.73 input  -57.11 | X-H torsion

> <Gold.Protein.ActiveResidues>
 VAL166  LYS551  ARG553  GLY616  TRP617  ASP618  TYR619  PRO620  LYS621  CYS622 
 ASP623  PHE694  ASN695  SER759  ASP760  ASP761  ALA762  ILE779  LEU786  VAL792 
 PHE793  MET794  SER795  GLU796  ALA797  LYS798  CYS799  TRP800  GLU811  SER814 

> <Gold.Protein.RotatedAtoms>
  151.2900  135.0739  159.9200 H   0  0  0  0  0  0  0  0  0  0  0  0  # atno 6907 bound_to 6896
  152.5318  133.9942  159.7875 H   0  0  0  0  0  0  0  0  0  0  0  0  # atno 6908 bound_to 6896
  151.0210  133.5825  159.2702 H   0  0  0  0  0  0  0  0  0  0  0  0  # atno 6909 bound_to 6896
  146.1934  140.3799  142.8449 H   0  0  0  0  0  0  0  0  0  0  0  0  # atno 7974 bound_to 7965
  156.0614  140.1348  156.9937 H   0  0  0  0  0  0  0  0  0  0  0  0  # atno 8008 bound_to 7997
  154.4483  140.0990  156.6593 H   0  0  0  0  0  0  0  0  0  0  0  0  # atno 8009 bound_to 7997
  155.5372  140.3460  155.4441 H   0  0  0  0  0  0  0  0  0  0  0  0  # atno 8010 bound_to 7997
  139.8389  143.7348  152.2664 H   0  0  0  0  0  0  0  0  0  0  0  0  # atno 10167 bound_to 10162
  156.0275  130.5479  150.7288 H   0  0  0  0  0  0  0  0  0  0  0  0  # atno 10718 bound_to 10713
  153.2680  135.4209  155.0960 H   0  0  0  0  0  0  0  0  0  0  0  0  # atno 10763 bound_to 10752
  154.8445  135.3465  154.6284 H   0  0  0  0  0  0  0  0  0  0  0  0  # atno 10764 bound_to 10752
  153.6704  135.7044  153.5206 H   0  0  0  0  0  0  0  0  0  0  0  0  # atno 10765 bound_to 10752
  140.1807  134.4108  155.8202 H   0  0  0  0  0  0  0  0  0  0  0  0  # atno 11005 bound_to 11000
  144.8532  140.7031  143.6155 LP  0  0  0  0  0  0  0  0  0  0  0  0  # atno 17320 bound_to 7965
  145.3721  139.1656  143.4326 LP  0  0  0  0  0  0  0  0  0  0  0  0  # atno 17321 bound_to 7965
  139.7579  144.7515  151.0408 LP  0  0  0  0  0  0  0  0  0  0  0  0  # atno 17342 bound_to 10162
  140.7800  143.4784  151.0050 LP  0  0  0  0  0  0  0  0  0  0  0  0  # atno 17343 bound_to 10162
  157.4886  131.0909  151.0453 LP  0  0  0  0  0  0  0  0  0  0  0  0  # atno 17370 bound_to 10713
  157.0867  130.5925  149.5431 LP  0  0  0  0  0  0  0  0  0  0  0  0  # atno 17371 bound_to 10713
  141.2223  133.6999  156.7925 LP  0  0  0  0  0  0  0  0  0  0  0  0  # atno 17394 bound_to 11000
  140.2271  134.8714  157.3438 LP  0  0  0  0  0  0  0  0  0  0  0  0  # atno 17395 bound_to 11000

$$$$
