AV-unprocessed.smi:1290|AV-procd|sdf|5389|dock10
  -GOLD-   22720 4543D 1   1.00000     0.00000
 Structure written by MMmdl.
 38 40  0  0  0  0  0  0  0  0  1 V2000
  147.6993  135.0329  160.0416 C   0  0  0  0  0  0  0  0  0  0  0  0
  148.5737  135.4637  158.9346 N   0  0  0  0  0  0  0  0  0  0  0  0
  149.2066  136.6742  159.0425 C   0  0  0  0  0  0  0  0  0  0  0  0
  149.1055  137.4420  160.0005 O   0  0  0  0  0  0  0  0  0  0  0  0
  150.0462  137.0078  157.8890 C   0  0  0  0  0  0  0  0  0  0  0  0
  150.1854  136.1929  156.8162 C   0  0  0  0  0  0  0  0  0  0  0  0
  151.0352  136.7475  155.8655 N   0  0  0  0  0  0  0  0  0  0  0  0
  151.3713  137.9056  156.4358 C   0  0  0  0  0  0  0  0  0  0  0  0
  150.8220  138.1391  157.6455 N   0  0  0  0  0  0  0  0  0  0  0  0
  151.0221  139.3179  158.4742 C   0  0  0  0  0  0  0  0  0  0  0  0
  152.2483  140.1480  158.0442 C   0  0  2  0  0  0  0  0  0  0  0  0
  153.4379  139.4917  158.4400 O   0  0  0  0  0  0  0  0  0  0  0  0
  152.1666  141.5682  158.5818 C   0  0  0  0  0  0  0  0  0  0  0  0
  153.1938  142.0663  159.4117 C   0  0  0  0  0  0  0  0  0  0  0  0
  153.1311  143.3836  159.9065 C   0  0  0  0  0  0  0  0  0  0  0  0
  152.0419  144.2116  159.5718 C   0  0  0  0  0  0  0  0  0  0  0  0
  151.9652  145.8254  160.1777 Cl  0  0  0  0  0  0  0  0  0  0  0  0
  151.0161  143.7216  158.7407 C   0  0  0  0  0  0  0  0  0  0  0  0
  151.0786  142.4044  158.2459 C   0  0  0  0  0  0  0  0  0  0  0  0
  149.4872  134.9600  156.8050 N   0  0  0  0  0  0  0  0  0  0  0  0
  149.6615  134.1039  155.6279 C   0  0  0  0  0  0  0  0  0  0  0  0
  148.6822  134.5982  157.8584 C   0  0  0  0  0  0  0  0  0  0  0  0
  148.0702  133.5266  157.8443 O   0  0  0  0  0  0  0  0  0  0  0  0
  147.6545  135.7212  160.8863 H   0  0  0  0  0  0  0  0  0  0  0  0
  148.0350  134.0752  160.4430 H   0  0  0  0  0  0  0  0  0  0  0  0
  146.6747  134.9071  159.6878 H   0  0  0  0  0  0  0  0  0  0  0  0
  152.0359  138.6096  155.9569 H   0  0  0  0  0  0  0  0  0  0  0  0
  150.1165  139.9240  158.4373 H   0  0  0  0  0  0  0  0  0  0  0  0
  151.1297  138.9967  159.5114 H   0  0  0  0  0  0  0  0  0  0  0  0
  152.2768  140.2005  156.9556 H   0  0  0  0  0  0  0  0  0  0  0  0
  153.3411  138.5677  158.2670 H   0  0  0  0  0  0  0  0  0  0  0  0
  154.0352  141.4400  159.6707 H   0  0  0  0  0  0  0  0  0  0  0  0
  153.9203  143.7577  160.5421 H   0  0  0  0  0  0  0  0  0  0  0  0
  150.1806  144.3548  158.4803 H   0  0  0  0  0  0  0  0  0  0  0  0
  150.2889  142.0394  157.6054 H   0  0  0  0  0  0  0  0  0  0  0  0
  149.1017  133.1690  155.6627 H   0  0  0  0  0  0  0  0  0  0  0  0
  150.7145  133.8463  155.5089 H   0  0  0  0  0  0  0  0  0  0  0  0
  149.3451  134.6372  154.7310 H   0  0  0  0  0  0  0  0  0  0  0  0
  1  2  1  0  0  0  0
  1 24  1  0  0  0  0
  1 25  1  0  0  0  0
  1 26  1  0  0  0  0
  2 22  1  0  0  0  0
  2  3  1  0  0  0  0
  3  4  2  0  0  0  0
  3  5  1  0  0  0  0
  5  9  1  0  0  0  0
  5  6  2  0  0  0  0
  6  7  1  0  0  0  0
  6 20  1  0  0  0  0
  7  8  2  0  0  0  0
  8  9  1  0  0  0  0
  8 27  1  0  0  0  0
  9 10  1  0  0  0  0
 10 11  1  0  0  0  0
 10 28  1  0  0  0  0
 10 29  1  0  0  0  0
 11 12  1  0  0  0  0
 11 13  1  0  0  0  0
 11 30  1  0  0  0  0
 12 31  1  0  0  0  0
 13 19  1  0  0  0  0
 13 14  2  0  0  0  0
 14 15  1  0  0  0  0
 14 32  1  0  0  0  0
 15 16  2  0  0  0  0
 15 33  1  0  0  0  0
 16 17  1  0  0  0  0
 16 18  1  0  0  0  0
 18 19  2  0  0  0  0
 18 34  1  0  0  0  0
 19 35  1  0  0  0  0
 20 21  1  0  0  0  0
 20 22  1  0  0  0  0
 21 36  1  0  0  0  0
 21 37  1  0  0  0  0
 21 38  1  0  0  0  0
 22 23  2  0  0  0  0
M  END
> <s_m_source_file>
AV-unprocessed.smi

> <i_m_source_file_index>
1290

> <i_lp_mmshare_version>
43012

> <i_f3d_flags>
0

> <s_epik_input>
Tz1jMW4oW0NIM10pYyg9TyluKFtDSDNdKWMoYzEyKW5bY0hdbjJbQ0gyXVtDQEhdKFtPSF0pYzNbY0hdW2NIXWMoQ2wpW2NIXVtjSF0z

> <s_epik_cmdline>
J2VwaWtfcHl0aG9uJywgJy1waCcsICc3LjAnLCAnLXRuJywgJzgnLCAnLW1hJywgJzIwMCcsICctbWV0YWxfYmluZGluZycsICctaW1hZScsICc8aW5maWxlLm1hZT4nLCAnLW9tYWUnLCAnPG91dGZpbGUubWFlPic=

> <r_lp_tautomer_probability>
1

> <r_epik_Ionization_Penalty>
1.48293e-06

> <r_epik_Ionization_Penalty_Charging>
3.74189e-09

> <r_epik_Ionization_Penalty_Neutral>
1.47919e-06

> <r_epik_State_Penalty>
-0

> <r_epik_Charging_Adjusted_Penalty>
3.74189e-09

> <i_epik_Tot_Q>
0

> <i_epik_Tot_abs_Q>
0

> <r_epik_Metal_State_Penalty>
-0

> <b_epik_Metal_Only>
0

> <s_lp_Force_Field>
OPLS_2005

> <r_lp_Energy>
35.4502

> <b_lp_Chiralities_Consistent>
1

> <s_lp_Variant>
AV-unprocessed.smi:1290-1

> <Gold.Version>
5.8.1

> <Gold.Id.Protein>
6NUR|6NUR_protein|mol2

> <Gold.PLP.Fitness>
39.9939

> <Gold.PLP.PLP>
-36.7018

> <Gold.PLP.part.hbond>
-2.6312

> <Gold.PLP.part.metal>
0.0000

> <Gold.PLP.part.buried>
-4.7616

> <Gold.PLP.part.nonpolar>
-29.2489

> <Gold.PLP.part.repulsive>
0.0493

> <Gold.PLP.ligand.clash>
0.0000

> <Gold.PLP.ligand.torsion>
0.3659

> <Gold.PLP.Chemscore.Hbond>
1.3331

> <Gold.PLP.Chemscore.CHOScore>
0.0000

> <Gold.PLP.Chemscore.Metal>
0.0000

> <Gold.Chemscore.Hbonds>
donor molecule, donor type, donor heavy atom, donor atom, acceptor molecule, acceptor atom, score
      P1  H  6931  6943       L1     4  0.33
      P1  H  7997  8010       L1    12  1.00

> <Gold.PLP.Chemscore.Internal.Correction>
0.0246

> <Gold.Rescore>
     Score         DG    S(hbond)    S(metal)    S(lipo)     H(rot)  DE(clash)    DE(int)     intcor
     15.12     -15.67       1.36        0.00      95.14       2.15       0.25       0.31       ----

> <Gold.Chemscore.Fitness>
15.1189

> <Gold.Chemscore.DG>
-15.6708

> <Gold.Chemscore.ZeroCoef>
-5.4800

> <Gold.Chemscore.Hbond>
1.3643

> <Gold.Chemscore.Metal>
0.0000

> <Gold.Chemscore.Lipo>
95.1411

> <Gold.Chemscore.Internal_Hbond>
0.0000

> <Gold.Chemscore.DEClash>
0.2454

> <Gold.Chemscore.DEInternal>
0.3066

> <Gold.Chemscore.Rot>
2.1474

> <Gold.Chemscore.Internal.Correction>
   9.000000E+99

> <Gold.Chemscore.Hbonds>
donor molecule, donor type, donor heavy atom, donor atom, acceptor molecule, acceptor atom, score
      P1  H  6931  6943       L1     4  0.31
      P1  H  7997  8010       L1    12  0.12

> <Gold.Chemscore.Hbond.Weighted>
-4.5567

> <Gold.Chemscore.Metal.Weighted>
-0.0000

> <Gold.Chemscore.Lipo.Weighted>
-11.1315

> <Gold.Chemscore.Internal_Hbond.Weighted>
0.0000

> <Gold.Chemscore.DEClash.Weighted>
0.2454

> <Gold.Chemscore.DEInternal.Weighted>
0.3066

> <Gold.Chemscore.Rot.Weighted>
5.4974

> <Gold.Chemscore.Internal.Correction.Weighted>
   9.000000E+99

> <Gold.Protein.RotatedTorsions>
[ 6907 6896 6895 6894 ] final  112.14 input  -60.11 | X-H torsion
[ 7974 7965 7964 7962 ] final   86.29 input  175.53 | X-H torsion
[ 8008 7997 7996 7995 ] final   28.71 input   59.86 | X-H torsion
[ 10167 10162 10161 10158 ] final  120.05 input  -65.29 | X-H torsion
[ 10718 10713 10712 10709 ] final  -34.76 input   66.30 | X-H torsion
[ 10763 10752 10751 10750 ] final   46.72 input  -60.55 | X-H torsion
[ 11005 11000 10999 10996 ] final  133.63 input  -57.11 | X-H torsion

> <Gold.Protein.ActiveResidues>
 VAL166  LYS551  ARG553  GLY616  TRP617  ASP618  TYR619  PRO620  LYS621  CYS622 
 ASP623  PHE694  ASN695  SER759  ASP760  ASP761  ALA762  ILE779  LEU786  VAL792 
 PHE793  MET794  SER795  GLU796  ALA797  LYS798  CYS799  TRP800  GLU811  SER814 

> <Gold.Protein.RotatedAtoms>
  152.4932  133.8559  159.7224 H   0  0  0  0  0  0  0  0  0  0  0  0  # atno 6907 bound_to 6896
  150.9083  133.7020  159.2868 H   0  0  0  0  0  0  0  0  0  0  0  0  # atno 6908 bound_to 6896
  151.4438  135.1027  159.9730 H   0  0  0  0  0  0  0  0  0  0  0  0  # atno 6909 bound_to 6896
  145.5742  139.2317  143.2389 H   0  0  0  0  0  0  0  0  0  0  0  0  # atno 7974 bound_to 7965
  155.0629  140.3192  155.4655 H   0  0  0  0  0  0  0  0  0  0  0  0  # atno 8008 bound_to 7997
  156.2809  140.2125  156.5701 H   0  0  0  0  0  0  0  0  0  0  0  0  # atno 8009 bound_to 7997
  154.7117  140.0497  157.0544 H   0  0  0  0  0  0  0  0  0  0  0  0  # atno 8010 bound_to 7997
  139.6007  144.7056  151.3070 H   0  0  0  0  0  0  0  0  0  0  0  0  # atno 10167 bound_to 10162
  156.3467  130.4302  149.7739 H   0  0  0  0  0  0  0  0  0  0  0  0  # atno 10718 bound_to 10713
  152.9807  135.5999  154.3645 H   0  0  0  0  0  0  0  0  0  0  0  0  # atno 10763 bound_to 10752
  154.3324  135.2768  155.2467 H   0  0  0  0  0  0  0  0  0  0  0  0  # atno 10764 bound_to 10752
  154.4584  135.5972  153.6294 H   0  0  0  0  0  0  0  0  0  0  0  0  # atno 10765 bound_to 10752
  139.9864  134.9531  156.9752 H   0  0  0  0  0  0  0  0  0  0  0  0  # atno 11005 bound_to 11000
  146.1763  140.6568  142.9210 LP  0  0  0  0  0  0  0  0  0  0  0  0  # atno 17320 bound_to 7965
  144.7424  140.4977  143.6860 LP  0  0  0  0  0  0  0  0  0  0  0  0  # atno 17321 bound_to 7965
  140.7247  143.7037  150.7824 LP  0  0  0  0  0  0  0  0  0  0  0  0  # atno 17342 bound_to 10162
  140.0613  143.5152  152.2626 LP  0  0  0  0  0  0  0  0  0  0  0  0  # atno 17343 bound_to 10162
  156.4955  130.8105  151.3112 LP  0  0  0  0  0  0  0  0  0  0  0  0  # atno 17370 bound_to 10713
  157.7455  130.9961  150.2769 LP  0  0  0  0  0  0  0  0  0  0  0  0  # atno 17371 bound_to 10713
  140.4994  134.1112  155.7247 LP  0  0  0  0  0  0  0  0  0  0  0  0  # atno 17394 bound_to 11000
  141.1528  133.8938  157.2055 LP  0  0  0  0  0  0  0  0  0  0  0  0  # atno 17395 bound_to 11000

$$$$
