AV-unprocessed.smi:2742|AV-procd|sdf|10562|dock9
  -GOLD-   2272015 13D 1   1.00000     0.00000
 Structure written by MMmdl.
 37 38  0  0  0  0  0  0  0  0  1 V2000
  144.1001  133.0625  149.7202 C   0  0  0  0  0  0  0  0  0  0  0  0
  145.8441  133.0515  150.2158 S   0  0  0  0  0  0  0  0  0  0  0  0
  145.8501  134.3653  151.4708 C   0  0  2  0  0  0  0  0  0  0  0  0
  144.9173  133.9942  152.6367 C   0  0  0  0  0  0  0  0  0  0  0  0
  144.8886  135.0965  153.7064 C   0  0  0  0  0  0  0  0  0  0  0  0
  144.4790  136.4494  153.1007 C   0  0  0  0  0  0  0  0  0  0  0  0
  145.3782  136.8506  151.9120 C   0  0  1  0  0  0  0  0  0  0  0  0
  146.7230  137.2116  152.3606 N   0  0  0  0  0  0  0  0  0  0  0  0
  147.0342  138.2899  153.0947 C   0  0  0  0  0  0  0  0  0  0  0  0
  146.2036  139.1201  153.4623 O   0  0  0  0  0  0  0  0  0  0  0  0
  148.3525  138.3336  153.3549 N   0  0  0  0  0  0  0  0  0  0  0  0
  149.0940  139.2919  154.1011 C   0  0  0  0  0  0  0  0  0  0  0  0
  148.6717  140.6220  154.3445 C   0  0  0  0  0  0  0  0  0  0  0  0
  149.5001  141.4638  155.1138 C   0  0  0  0  0  0  0  0  0  0  0  0
  150.6782  141.0695  155.6412 N   0  0  0  0  0  0  0  0  0  0  0  0
  151.0729  139.7987  155.4169 C   0  0  0  0  0  0  0  0  0  0  0  0
  150.3210  138.8766  154.6615 C   0  0  0  0  0  0  0  0  0  0  0  0
  150.7750  137.6130  154.4784 F   0  0  0  0  0  0  0  0  0  0  0  0
  145.4457  135.7241  150.8610 C   0  0  0  0  0  0  0  0  0  0  0  0
  143.9328  132.3290  148.9315 H   0  0  0  0  0  0  0  0  0  0  0  0
  143.8173  134.0449  149.3419 H   0  0  0  0  0  0  0  0  0  0  0  0
  143.4546  132.8120  150.5614 H   0  0  0  0  0  0  0  0  0  0  0  0
  146.8664  134.4341  151.8605 H   0  0  0  0  0  0  0  0  0  0  0  0
  143.9067  133.8260  152.2617 H   0  0  0  0  0  0  0  0  0  0  0  0
  145.2395  133.0550  153.0878 H   0  0  0  0  0  0  0  0  0  0  0  0
  144.1957  134.8225  154.5023 H   0  0  0  0  0  0  0  0  0  0  0  0
  145.8716  135.1816  154.1713 H   0  0  0  0  0  0  0  0  0  0  0  0
  143.4456  136.3848  152.7582 H   0  0  0  0  0  0  0  0  0  0  0  0
  144.4926  137.2230  153.8694 H   0  0  0  0  0  0  0  0  0  0  0  0
  144.9379  137.7238  151.4271 H   0  0  0  0  0  0  0  0  0  0  0  0
  147.4699  136.5848  152.0993 H   0  0  0  0  0  0  0  0  0  0  0  0
  148.9081  137.6038  152.9329 H   0  0  0  0  0  0  0  0  0  0  0  0
  147.7377  141.0125  153.9735 H   0  0  0  0  0  0  0  0  0  0  0  0
  149.2039  142.4826  155.3149 H   0  0  0  0  0  0  0  0  0  0  0  0
  152.0161  139.5065  155.8543 H   0  0  0  0  0  0  0  0  0  0  0  0
  146.1343  136.0072  150.0650 H   0  0  0  0  0  0  0  0  0  0  0  0
  144.4669  135.6241  150.3895 H   0  0  0  0  0  0  0  0  0  0  0  0
  1  2  1  0  0  0  0
  1 20  1  0  0  0  0
  1 21  1  0  0  0  0
  1 22  1  0  0  0  0
  2  3  1  0  0  0  0
  3 19  1  0  0  0  0
  3  4  1  0  0  0  0
  3 23  1  0  0  0  0
  4  5  1  0  0  0  0
  4 24  1  0  0  0  0
  4 25  1  0  0  0  0
  5  6  1  0  0  0  0
  5 26  1  0  0  0  0
  5 27  1  0  0  0  0
  6  7  1  0  0  0  0
  6 28  1  0  0  0  0
  6 29  1  0  0  0  0
  7  8  1  0  0  0  0
  7 19  1  0  0  0  0
  7 30  1  0  0  0  0
  8  9  1  0  0  0  0
  8 31  1  0  0  0  0
  9 10  2  0  0  0  0
  9 11  1  0  0  0  0
 11 12  1  0  0  0  0
 11 32  1  0  0  0  0
 12 17  1  0  0  0  0
 12 13  2  0  0  0  0
 13 14  1  0  0  0  0
 13 33  1  0  0  0  0
 14 15  2  0  0  0  0
 14 34  1  0  0  0  0
 15 16  1  0  0  0  0
 16 17  2  0  0  0  0
 16 35  1  0  0  0  0
 17 18  1  0  0  0  0
 19 36  1  0  0  0  0
 19 37  1  0  0  0  0
M  END
> <s_m_source_file>
AV-unprocessed.smi

> <i_m_source_file_index>
2742

> <i_lp_mmshare_version>
43012

> <i_f3d_flags>
0

> <s_epik_input>
W0NIM11TW0NAQEhdMVtDSDJdW0NIMl1bQ0gyXVtDQEhdKFtDSDJdMSlbTkhdQyg9TylbTkhdYzJbY0hdW2NIXW5bY0hdYzJG

> <s_epik_cmdline>
J2VwaWtfcHl0aG9uJywgJy1waCcsICc3LjAnLCAnLXRuJywgJzgnLCAnLW1hJywgJzIwMCcsICctbWV0YWxfYmluZGluZycsICctaW1hZScsICc8aW5maWxlLm1hZT4nLCAnLW9tYWUnLCAnPG91dGZpbGUubWFlPic=

> <r_epik_Ionization_Penalty>
0.00344009

> <r_epik_Ionization_Penalty_Charging>
0

> <r_epik_Ionization_Penalty_Neutral>
0.00344009

> <r_epik_State_Penalty>
0.0024078

> <r_epik_Charging_Adjusted_Penalty>
0.0024078

> <i_epik_Tot_Q>
0

> <i_epik_Tot_abs_Q>
0

> <r_epik_Metal_State_Penalty>
-0

> <b_epik_Metal_Only>
0

> <s_lp_Force_Field>
OPLS_2005

> <r_lp_Energy>
13.9457

> <b_lp_Chiralities_Consistent>
1

> <s_lp_Variant>
AV-unprocessed.smi:2742-1

> <Gold.Version>
5.8.1

> <Gold.Id.Protein>
6NUR|6NUR_protein|mol2

> <Gold.PLP.Fitness>
43.0032

> <Gold.PLP.PLP>
-34.5078

> <Gold.PLP.part.hbond>
-3.5712

> <Gold.PLP.part.metal>
0.0000

> <Gold.PLP.part.buried>
-1.9160

> <Gold.PLP.part.nonpolar>
-30.7283

> <Gold.PLP.part.repulsive>
0.6323

> <Gold.PLP.ligand.clash>
0.0000

> <Gold.PLP.ligand.torsion>
0.2093

> <Gold.PLP.Chemscore.Hbond>
1.9673

> <Gold.PLP.Chemscore.CHOScore>
1.0000

> <Gold.PLP.Chemscore.Metal>
0.0000

> <Gold.Chemscore.Hbonds>
donor molecule, donor type, donor heavy atom, donor atom, acceptor molecule, acceptor atom, score
      L1  H     8    31       P1  7948  0.99
      L1  H    11    32       P1  7948  0.96
      L1  C    14    34       P1  8028  1.00

> <Gold.PLP.Chemscore.Internal.Correction>
0.0124

> <Gold.Rescore>
     Score         DG    S(hbond)    S(metal)    S(lipo)     H(rot)  DE(clash)    DE(int)     intcor
     16.69     -17.97       1.96        0.00      76.78       1.19       0.10       1.19       ----

> <Gold.Chemscore.Fitness>
16.6892

> <Gold.Chemscore.DG>
-17.9701

> <Gold.Chemscore.ZeroCoef>
-5.4800

> <Gold.Chemscore.Hbond>
1.9603

> <Gold.Chemscore.Metal>
0.0000

> <Gold.Chemscore.Lipo>
76.7762

> <Gold.Chemscore.Internal_Hbond>
0.0000

> <Gold.Chemscore.DEClash>
0.0950

> <Gold.Chemscore.DEInternal>
1.1858

> <Gold.Chemscore.Rot>
1.1875

> <Gold.Chemscore.Internal.Correction>
   9.000000E+99

> <Gold.Chemscore.Hbonds>
donor molecule, donor type, donor heavy atom, donor atom, acceptor molecule, acceptor atom, score
      L1  H     8    31       P1  7948  0.90
      L1  H    11    32       P1  7948  0.92

> <Gold.Chemscore.Hbond.Weighted>
-6.5472

> <Gold.Chemscore.Metal.Weighted>
-0.0000

> <Gold.Chemscore.Lipo.Weighted>
-8.9828

> <Gold.Chemscore.Internal_Hbond.Weighted>
0.0000

> <Gold.Chemscore.DEClash.Weighted>
0.0950

> <Gold.Chemscore.DEInternal.Weighted>
1.1858

> <Gold.Chemscore.Rot.Weighted>
3.0400

> <Gold.Chemscore.Internal.Correction.Weighted>
   9.000000E+99

> <Gold.Protein.RotatedTorsions>
[ 6907 6896 6895 6894 ] final   -8.42 input  -60.11 | X-H torsion
[ 7974 7965 7964 7962 ] final -149.04 input  175.53 | X-H torsion
[ 8008 7997 7996 7995 ] final   -0.31 input   59.86 | X-H torsion
[ 10167 10162 10161 10158 ] final  -68.94 input  -65.29 | X-H torsion
[ 10718 10713 10712 10709 ] final   -2.99 input   66.30 | X-H torsion
[ 10763 10752 10751 10750 ] final  -30.60 input  -60.55 | X-H torsion
[ 11005 11000 10999 10996 ] final  -74.14 input  -57.11 | X-H torsion

> <Gold.Protein.ActiveResidues>
 VAL166  LYS551  ARG553  GLY616  TRP617  ASP618  TYR619  PRO620  LYS621  CYS622 
 ASP623  PHE694  ASN695  SER759  ASP760  ASP761  ALA762  ILE779  LEU786  VAL792 
 PHE793  MET794  SER795  GLU796  ALA797  LYS798  CYS799  TRP800  GLU811  SER814 

> <Gold.Protein.RotatedAtoms>
  151.4339  135.1013  159.9650 H   0  0  0  0  0  0  0  0  0  0  0  0  # atno 6907 bound_to 6896
  152.4946  133.8592  159.7252 H   0  0  0  0  0  0  0  0  0  0  0  0  # atno 6908 bound_to 6896
  150.9136  133.6909  159.2876 H   0  0  0  0  0  0  0  0  0  0  0  0  # atno 6909 bound_to 6896
  144.7992  140.5117  143.5719 H   0  0  0  0  0  0  0  0  0  0  0  0  # atno 7974 bound_to 7965
  154.6595  140.2587  155.7124 H   0  0  0  0  0  0  0  0  0  0  0  0  # atno 8008 bound_to 7997
  156.2612  140.2851  156.0983 H   0  0  0  0  0  0  0  0  0  0  0  0  # atno 8009 bound_to 7997
  155.1329  140.0379  157.2769 H   0  0  0  0  0  0  0  0  0  0  0  0  # atno 8010 bound_to 7997
  140.5469  143.2313  151.6985 H   0  0  0  0  0  0  0  0  0  0  0  0  # atno 10167 bound_to 10162
  156.7826  130.5335  149.5748 H   0  0  0  0  0  0  0  0  0  0  0  0  # atno 10718 bound_to 10713
  153.7836  135.6903  153.4884 H   0  0  0  0  0  0  0  0  0  0  0  0  # atno 10763 bound_to 10752
  153.1795  135.4511  155.0008 H   0  0  0  0  0  0  0  0  0  0  0  0  # atno 10764 bound_to 10752
  154.8072  135.3362  154.7337 H   0  0  0  0  0  0  0  0  0  0  0  0  # atno 10765 bound_to 10752
  141.1631  133.6901  156.7319 H   0  0  0  0  0  0  0  0  0  0  0  0  # atno 11005 bound_to 11000
  145.5596  139.1479  143.3348 LP  0  0  0  0  0  0  0  0  0  0  0  0  # atno 17320 bound_to 7965
  146.2269  140.5732  142.8992 LP  0  0  0  0  0  0  0  0  0  0  0  0  # atno 17321 bound_to 7965
  139.5011  144.3881  152.0308 LP  0  0  0  0  0  0  0  0  0  0  0  0  # atno 17342 bound_to 10162
  140.2994  144.3663  150.6064 LP  0  0  0  0  0  0  0  0  0  0  0  0  # atno 17343 bound_to 10162
  156.1208  130.6109  151.0191 LP  0  0  0  0  0  0  0  0  0  0  0  0  # atno 17370 bound_to 10713
  157.6639  131.0875  150.7774 LP  0  0  0  0  0  0  0  0  0  0  0  0  # atno 17371 bound_to 10713
  140.2739  134.8371  157.3872 LP  0  0  0  0  0  0  0  0  0  0  0  0  # atno 17394 bound_to 11000
  140.1496  134.4867  155.7971 LP  0  0  0  0  0  0  0  0  0  0  0  0  # atno 17395 bound_to 11000

$$$$
