AV-unprocessed.smi:1843|AV-procd|sdf|7505|dock2
  -GOLD-   22720 9213D 1   1.00000     0.00000
 Structure written by MMmdl.
 36 38  0  0  0  0  0  0  0  0  2 V2000
  145.3642  128.8164  152.3334 O   0  0  0  0  0  0  0  0  0  0  0  0
  146.4799  129.3050  152.1407 C   0  0  0  0  0  0  0  0  0  0  0  0
  147.6686  128.7179  152.4067 N   0  5  0  0  0  0  0  0  0  0  0  0
  147.8717  127.4320  152.0754 C   0  0  0  0  0  0  0  0  0  0  0  0
  147.6925  126.4274  152.9446 N   0  0  0  0  0  0  0  0  0  0  0  0
  147.9616  125.1806  152.3987 N   0  0  0  0  0  0  0  0  0  0  0  0
  148.3491  125.2621  151.1235 C   0  0  0  0  0  0  0  0  0  0  0  0
  148.6949  124.0575  150.3137 C   0  0  0  0  0  0  0  0  0  0  0  0
  148.0341  123.7832  148.9802 C   0  0  0  0  0  0  0  0  0  0  0  0
  147.7159  122.9147  150.1705 C   0  0  0  0  0  0  0  0  0  0  0  0
  148.4208  126.8976  150.4874 S   0  0  0  0  0  0  0  0  0  0  0  0
  146.5921  130.5312  151.6102 N   0  0  0  0  0  0  0  0  0  0  0  0
  145.4896  131.3970  151.1944 C   0  0  1  0  0  0  0  0  0  0  0  0
  145.4185  132.6428  152.0988 C   0  0  0  0  0  0  0  0  0  0  0  0
  144.2643  133.5690  151.6830 C   0  0  0  0  0  0  0  0  0  0  0  0
  144.3780  133.9736  150.2048 C   0  0  0  0  0  0  0  0  0  0  0  0
  144.4580  132.7389  149.2882 C   0  0  0  0  0  0  0  0  0  0  0  0
  145.5942  131.7814  149.6973 C   0  0  1  0  0  0  0  0  0  0  0  0
  146.8396  132.3952  149.4198 O   0  0  0  0  0  0  0  0  0  0  0  0
  149.7506  123.8147  150.4180 H   0  0  0  0  0  0  0  0  0  0  0  0
  147.2563  124.4639  148.6400 H   0  0  0  0  0  0  0  0  0  0  0  0
  148.6521  123.3532  148.1948 H   0  0  0  0  0  0  0  0  0  0  0  0
  148.1196  121.9044  150.1792 H   0  0  0  0  0  0  0  0  0  0  0  0
  146.7349  123.0295  150.6277 H   0  0  0  0  0  0  0  0  0  0  0  0
  147.5258  130.8903  151.4748 H   0  0  0  0  0  0  0  0  0  0  0  0
  144.5594  130.8435  151.3373 H   0  0  0  0  0  0  0  0  0  0  0  0
  145.2873  132.3405  153.1385 H   0  0  0  0  0  0  0  0  0  0  0  0
  146.3603  133.1919  152.0550 H   0  0  0  0  0  0  0  0  0  0  0  0
  143.3121  133.0644  151.8512 H   0  0  0  0  0  0  0  0  0  0  0  0
  144.2580  134.4591  152.3127 H   0  0  0  0  0  0  0  0  0  0  0  0
  143.5242  134.5896  149.9214 H   0  0  0  0  0  0  0  0  0  0  0  0
  145.2636  134.5945  150.0640 H   0  0  0  0  0  0  0  0  0  0  0  0
  143.5090  132.2028  149.3332 H   0  0  0  0  0  0  0  0  0  0  0  0
  144.5813  133.0502  148.2503 H   0  0  0  0  0  0  0  0  0  0  0  0
  145.5334  130.8831  149.0818 H   0  0  0  0  0  0  0  0  0  0  0  0
  147.5034  131.7219  149.4119 H   0  0  0  0  0  0  0  0  0  0  0  0
  1  2  2  0  0  0  0
  2  3  1  0  0  0  0
  2 12  1  0  0  0  0
  3  4  1  0  0  0  0
  4 11  1  0  0  0  0
  4  5  2  0  0  0  0
  5  6  1  0  0  0  0
  6  7  2  0  0  0  0
  7  8  1  0  0  0  0
  7 11  1  0  0  0  0
  8 10  1  0  0  0  0
  8  9  1  0  0  0  0
  8 20  1  0  0  0  0
  9 10  1  0  0  0  0
  9 21  1  0  0  0  0
  9 22  1  0  0  0  0
 10 23  1  0  0  0  0
 10 24  1  0  0  0  0
 12 13  1  0  0  0  0
 12 25  1  0  0  0  0
 13 18  1  0  0  0  0
 13 14  1  0  0  0  0
 13 26  1  0  0  0  0
 14 15  1  0  0  0  0
 14 27  1  0  0  0  0
 14 28  1  0  0  0  0
 15 16  1  0  0  0  0
 15 29  1  0  0  0  0
 15 30  1  0  0  0  0
 16 17  1  0  0  0  0
 16 31  1  0  0  0  0
 16 32  1  0  0  0  0
 17 18  1  0  0  0  0
 17 33  1  0  0  0  0
 17 34  1  0  0  0  0
 18 19  1  0  0  0  0
 18 35  1  0  0  0  0
 19 36  1  0  0  0  0
M  CHG  1   3  -1
M  END
> <s_m_source_file>
AV-unprocessed.smi

> <i_m_source_file_index>
1843

> <i_lp_mmshare_version>
43012

> <i_f3d_flags>
0

> <s_epik_input>
W09IXVtDQEBIXTFbQ0gyXVtDSDJdW0NIMl1bQ0gyXVtDQEhdMVtOSF1DKD1PKVtOSF1jMm5uYyhzMilbQ0hdM1tDSDJdW0NIMl0z

> <s_epik_cmdline>
J2VwaWtfcHl0aG9uJywgJy1waCcsICc3LjAnLCAnLXRuJywgJzgnLCAnLW1hJywgJzIwMCcsICctbWV0YWxfYmluZGluZycsICctaW1hZScsICc8aW5maWxlLm1hZT4nLCAnLW9tYWUnLCAnPG91dGZpbGUubWFlPic=

> <r_lp_tautomer_probability>
1

> <r_epik_Ionization_Penalty>
4.7996

> <r_epik_Ionization_Penalty_Charging>
4.64516

> <r_epik_Ionization_Penalty_Neutral>
0.154442

> <r_epik_State_Penalty>
4.64493

> <r_epik_Charging_Adjusted_Penalty>
9.29009

> <i_epik_Tot_Q>
-1

> <i_epik_Tot_abs_Q>
1

> <r_epik_Metal_State_Penalty>
0.896144

> <b_epik_Metal_Only>
1

> <s_lp_Force_Field>
OPLS_2005

> <r_lp_Energy>
9.18757

> <b_lp_Chiralities_Consistent>
1

> <s_lp_Variant>
AV-unprocessed.smi:1843-6

> <Gold.Version>
5.8.1

> <Gold.Id.Protein>
6NUR|6NUR_protein|mol2

> <Gold.PLP.Fitness>
43.4158

> <Gold.PLP.PLP>
-40.1532

> <Gold.PLP.part.hbond>
-5.4426

> <Gold.PLP.part.metal>
0.0000

> <Gold.PLP.part.buried>
-4.6289

> <Gold.PLP.part.nonpolar>
-30.2149

> <Gold.PLP.part.repulsive>
0.2961

> <Gold.PLP.ligand.clash>
0.0000

> <Gold.PLP.ligand.torsion>
1.1993

> <Gold.PLP.Chemscore.Hbond>
1.8320

> <Gold.PLP.Chemscore.CHOScore>
0.0000

> <Gold.PLP.Chemscore.Metal>
0.0000

> <Gold.Chemscore.Hbonds>
donor molecule, donor type, donor heavy atom, donor atom, acceptor molecule, acceptor atom, score
      L1  H    12    25       P1 10747  0.85
      L1  H    19    36       P1 10747  1.00

> <Gold.PLP.Chemscore.Internal.Correction>
0.1652

> <Gold.Rescore>
     Score         DG    S(hbond)    S(metal)    S(lipo)     H(rot)  DE(clash)    DE(int)     intcor
     15.28     -16.65       1.74        0.00      83.30       1.72       0.21       1.16       ----

> <Gold.Chemscore.Fitness>
15.2778

> <Gold.Chemscore.DG>
-16.6481

> <Gold.Chemscore.ZeroCoef>
-5.4800

> <Gold.Chemscore.Hbond>
1.7412

> <Gold.Chemscore.Metal>
0.0000

> <Gold.Chemscore.Lipo>
83.2956

> <Gold.Chemscore.Internal_Hbond>
0.0000

> <Gold.Chemscore.DEClash>
0.2059

> <Gold.Chemscore.DEInternal>
1.1645

> <Gold.Chemscore.Rot>
1.7160

> <Gold.Chemscore.Internal.Correction>
   9.000000E+99

> <Gold.Chemscore.Hbonds>
donor molecule, donor type, donor heavy atom, donor atom, acceptor molecule, acceptor atom, score
      L1  H    12    25       P1 10747  0.83
      L1  H    19    36       P1 10747  0.95

> <Gold.Chemscore.Hbond.Weighted>
-5.8155

> <Gold.Chemscore.Metal.Weighted>
-0.0000

> <Gold.Chemscore.Lipo.Weighted>
-9.7456

> <Gold.Chemscore.Internal_Hbond.Weighted>
0.0000

> <Gold.Chemscore.DEClash.Weighted>
0.2059

> <Gold.Chemscore.DEInternal.Weighted>
1.1645

> <Gold.Chemscore.Rot.Weighted>
4.3930

> <Gold.Chemscore.Internal.Correction.Weighted>
   9.000000E+99

> <Gold.Protein.RotatedTorsions>
[ 6907 6896 6895 6894 ] final  143.87 input  -60.11 | X-H torsion
[ 7974 7965 7964 7962 ] final   60.10 input  175.53 | X-H torsion
[ 8008 7997 7996 7995 ] final  142.01 input   59.86 | X-H torsion
[ 10167 10162 10161 10158 ] final   37.81 input  -65.29 | X-H torsion
[ 10718 10713 10712 10709 ] final  164.61 input   66.30 | X-H torsion
[ 10763 10752 10751 10750 ] final   42.91 input  -60.55 | X-H torsion
[ 11005 11000 10999 10996 ] final  169.77 input  -57.11 | X-H torsion

> <Gold.Protein.ActiveResidues>
 VAL166  LYS551  ARG553  GLY616  TRP617  ASP618  TYR619  PRO620  LYS621  CYS622 
 ASP623  PHE694  ASN695  SER759  ASP760  ASP761  ALA762  ILE779  LEU786  VAL792 
 PHE793  MET794  SER795  GLU796  ALA797  LYS798  CYS799  TRP800  GLU811  SER814 

> <Gold.Protein.RotatedAtoms>
  152.2008  133.4840  159.5057 H   0  0  0  0  0  0  0  0  0  0  0  0  # atno 6907 bound_to 6896
  150.6969  134.1592  159.4179 H   0  0  0  0  0  0  0  0  0  0  0  0  # atno 6908 bound_to 6896
  151.9510  135.0169  160.0592 H   0  0  0  0  0  0  0  0  0  0  0  0  # atno 6909 bound_to 6896
  145.8998  139.3573  143.0599 H   0  0  0  0  0  0  0  0  0  0  0  0  # atno 7974 bound_to 7965
  156.2956  140.2300  156.4658 H   0  0  0  0  0  0  0  0  0  0  0  0  # atno 8008 bound_to 7997
  154.7978  140.0450  157.1271 H   0  0  0  0  0  0  0  0  0  0  0  0  # atno 8009 bound_to 7997
  154.9569  140.3049  155.5052 H   0  0  0  0  0  0  0  0  0  0  0  0  # atno 8010 bound_to 7997
  140.3996  144.1741  150.6133 H   0  0  0  0  0  0  0  0  0  0  0  0  # atno 10167 bound_to 10162
  157.0919  131.0420  151.2534 H   0  0  0  0  0  0  0  0  0  0  0  0  # atno 10718 bound_to 10713
  152.9872  135.6117  154.3026 H   0  0  0  0  0  0  0  0  0  0  0  0  # atno 10763 bound_to 10752
  154.2746  135.2778  155.2725 H   0  0  0  0  0  0  0  0  0  0  0  0  # atno 10764 bound_to 10752
  154.5092  135.5845  153.6648 H   0  0  0  0  0  0  0  0  0  0  0  0  # atno 10765 bound_to 10752
  140.3012  134.7593  157.3918 H   0  0  0  0  0  0  0  0  0  0  0  0  # atno 11005 bound_to 11000
  145.8805  140.9366  143.0604 LP  0  0  0  0  0  0  0  0  0  0  0  0  # atno 17320 bound_to 7965
  144.6735  140.0773  143.7470 LP  0  0  0  0  0  0  0  0  0  0  0  0  # atno 17321 bound_to 7965
  140.4753  143.2398  151.9031 LP  0  0  0  0  0  0  0  0  0  0  0  0  # atno 17342 bound_to 10162
  139.4785  144.5326  151.8644 LP  0  0  0  0  0  0  0  0  0  0  0  0  # atno 17343 bound_to 10162
  157.4714  130.7711  149.7327 LP  0  0  0  0  0  0  0  0  0  0  0  0  # atno 17370 bound_to 10713
  155.9896  130.3951  150.3066 LP  0  0  0  0  0  0  0  0  0  0  0  0  # atno 17371 bound_to 10713
  140.1107  134.5349  155.8268 LP  0  0  0  0  0  0  0  0  0  0  0  0  # atno 17394 bound_to 11000
  141.2127  133.6724  156.6684 LP  0  0  0  0  0  0  0  0  0  0  0  0  # atno 17395 bound_to 11000

$$$$
