AV-unprocessed.smi:674|AV-procd|sdf|3301|dock1
  -GOLD-   22720 0263D 1   1.00000     0.00000
 Structure written by MMmdl.
 47 48  0  0  0  0  0  0  0  0  1 V2000
  145.8785  128.8954  152.3002 C   0  0  0  0  0  0  0  0  0  0  0  0
  145.6064  130.3898  152.0926 C   0  0  0  0  0  0  0  0  0  0  0  0
  146.6684  131.2469  152.7214 C   0  0  0  0  0  0  0  0  0  0  0  0
  146.7783  132.6672  152.6901 C   0  0  0  0  0  0  0  0  0  0  0  0
  147.9239  132.8980  153.4016 C   0  0  0  0  0  0  0  0  0  0  0  0
  148.5273  134.0837  153.6819 N   0  0  0  0  0  0  0  0  0  0  0  0
  149.0845  134.4915  154.8356 C   0  0  0  0  0  0  0  0  0  0  0  0
  149.1803  133.8176  155.8616 O   0  0  0  0  0  0  0  0  0  0  0  0
  149.5421  135.7465  154.7342 N   0  0  0  0  0  0  0  0  0  0  0  0
  150.2019  136.4708  155.8151 C   0  0  2  0  0  0  0  0  0  0  0  0
  149.2173  137.0215  156.8439 C   0  0  0  0  0  0  0  0  0  0  0  0
  150.1487  138.2433  156.9480 C   0  0  2  0  0  0  0  0  0  0  0  0
  151.2144  138.2433  158.0554 C   0  0  0  0  0  0  0  0  0  0  0  0
  149.4227  139.4732  156.9695 O   0  0  0  0  0  0  0  0  0  0  0  0
  150.1969  140.6630  156.8836 C   0  0  0  0  0  0  0  0  0  0  0  0
  150.5850  137.9341  155.4783 C   0  0  0  0  0  0  0  0  0  0  0  0
  152.0568  138.1743  155.1276 C   0  0  0  0  0  0  0  0  0  0  0  0
  149.7702  138.6263  154.3668 C   0  0  0  0  0  0  0  0  0  0  0  0
  148.4411  131.6888  153.8156 N   0  0  0  0  0  0  0  0  0  0  0  0
  149.6328  131.3936  154.5875 C   0  0  0  0  0  0  0  0  0  0  0  0
  147.6598  130.6720  153.3937 N   0  0  0  0  0  0  0  0  0  0  0  0
  145.0993  128.2904  151.8368 H   0  0  0  0  0  0  0  0  0  0  0  0
  145.9082  128.6434  153.3608 H   0  0  0  0  0  0  0  0  0  0  0  0
  146.8330  128.6046  151.8601 H   0  0  0  0  0  0  0  0  0  0  0  0
  145.5457  130.5999  151.0243 H   0  0  0  0  0  0  0  0  0  0  0  0
  144.6290  130.6419  152.5056 H   0  0  0  0  0  0  0  0  0  0  0  0
  146.1196  133.3771  152.2130 H   0  0  0  0  0  0  0  0  0  0  0  0
  148.5527  134.7438  152.9188 H   0  0  0  0  0  0  0  0  0  0  0  0
  149.4314  136.2318  153.8561 H   0  0  0  0  0  0  0  0  0  0  0  0
  151.0134  135.9148  156.2908 H   0  0  0  0  0  0  0  0  0  0  0  0
  148.2335  137.2529  156.4311 H   0  0  0  0  0  0  0  0  0  0  0  0
  149.1379  136.4282  157.7550 H   0  0  0  0  0  0  0  0  0  0  0  0
  151.8789  137.3827  157.9803 H   0  0  0  0  0  0  0  0  0  0  0  0
  150.7689  138.1985  159.0488 H   0  0  0  0  0  0  0  0  0  0  0  0
  151.8341  139.1389  158.0097 H   0  0  0  0  0  0  0  0  0  0  0  0
  149.5413  141.5241  157.0107 H   0  0  0  0  0  0  0  0  0  0  0  0
  150.6800  140.7655  155.9123 H   0  0  0  0  0  0  0  0  0  0  0  0
  150.9588  140.7123  157.6618 H   0  0  0  0  0  0  0  0  0  0  0  0
  152.3167  139.2307  155.2017 H   0  0  0  0  0  0  0  0  0  0  0  0
  152.2847  137.8488  154.1121 H   0  0  0  0  0  0  0  0  0  0  0  0
  152.7293  137.6265  155.7874 H   0  0  0  0  0  0  0  0  0  0  0  0
  149.9779  139.6961  154.3285 H   0  0  0  0  0  0  0  0  0  0  0  0
  148.6952  138.5163  154.5107 H   0  0  0  0  0  0  0  0  0  0  0  0
  150.0030  138.2177  153.3829 H   0  0  0  0  0  0  0  0  0  0  0  0
  150.1092  132.3123  154.9297 H   0  0  0  0  0  0  0  0  0  0  0  0
  150.3395  130.8374  153.9710 H   0  0  0  0  0  0  0  0  0  0  0  0
  149.3677  130.7916  155.4570 H   0  0  0  0  0  0  0  0  0  0  0  0
  1  2  1  0  0  0  0
  1 22  1  0  0  0  0
  1 23  1  0  0  0  0
  1 24  1  0  0  0  0
  2  3  1  0  0  0  0
  2 25  1  0  0  0  0
  2 26  1  0  0  0  0
  3 21  2  0  0  0  0
  3  4  1  0  0  0  0
  4  5  2  0  0  0  0
  4 27  1  0  0  0  0
  5  6  1  0  0  0  0
  5 19  1  0  0  0  0
  6  7  1  0  0  0  0
  6 28  1  0  0  0  0
  7  8  2  0  0  0  0
  7  9  1  0  0  0  0
  9 10  1  0  0  0  0
  9 29  1  0  0  0  0
 10 16  1  0  0  0  0
 10 11  1  0  0  0  0
 10 30  1  0  0  0  0
 11 12  1  0  0  0  0
 11 31  1  0  0  0  0
 11 32  1  0  0  0  0
 12 13  1  0  0  0  0
 12 14  1  0  0  0  0
 12 16  1  0  0  0  0
 13 33  1  0  0  0  0
 13 34  1  0  0  0  0
 13 35  1  0  0  0  0
 14 15  1  0  0  0  0
 15 36  1  0  0  0  0
 15 37  1  0  0  0  0
 15 38  1  0  0  0  0
 16 17  1  0  0  0  0
 16 18  1  0  0  0  0
 17 39  1  0  0  0  0
 17 40  1  0  0  0  0
 17 41  1  0  0  0  0
 18 42  1  0  0  0  0
 18 43  1  0  0  0  0
 18 44  1  0  0  0  0
 19 20  1  0  0  0  0
 19 21  1  0  0  0  0
 20 45  1  0  0  0  0
 20 46  1  0  0  0  0
 20 47  1  0  0  0  0
M  END
> <s_m_source_file>
AV-unprocessed.smi

> <i_m_source_file_index>
674

> <i_lp_mmshare_version>
43012

> <i_f3d_flags>
0

> <s_epik_input>
W0NIM11bQ0gyXWMxW2NIXWMobihuMSlbQ0gzXSlbTkhdQyg9TylbTkhdW0NAQEhdKEMyKFtDSDNdKVtDSDNdKVtDSDJdW0NAQF0yKFtDSDNdKU9bQ0gzXQ==

> <s_epik_cmdline>
J2VwaWtfcHl0aG9uJywgJy1waCcsICc3LjAnLCAnLXRuJywgJzgnLCAnLW1hJywgJzIwMCcsICctbWV0YWxfYmluZGluZycsICctaW1hZScsICc8aW5maWxlLm1hZT4nLCAnLW9tYWUnLCAnPG91dGZpbGUubWFlPic=

> <r_lp_tautomer_probability>
1

> <r_epik_Ionization_Penalty>
0.000101626

> <r_epik_Ionization_Penalty_Charging>
0

> <r_epik_Ionization_Penalty_Neutral>
0.000101626

> <r_epik_State_Penalty>
-0

> <r_epik_Charging_Adjusted_Penalty>
0

> <i_epik_Tot_Q>
0

> <i_epik_Tot_abs_Q>
0

> <r_epik_Metal_State_Penalty>
-0

> <b_epik_Metal_Only>
0

> <s_lp_Force_Field>
OPLS_2005

> <r_lp_Energy>
22.7641

> <b_lp_Chiralities_Consistent>
1

> <s_lp_Variant>
AV-unprocessed.smi:674-3

> <Gold.Version>
5.8.1

> <Gold.Id.Protein>
6NUR|6NUR_protein|mol2

> <Gold.PLP.Fitness>
37.5684

> <Gold.PLP.PLP>
-32.4749

> <Gold.PLP.part.hbond>
-2.0000

> <Gold.PLP.part.metal>
0.0000

> <Gold.PLP.part.buried>
-4.6458

> <Gold.PLP.part.nonpolar>
-26.7643

> <Gold.PLP.part.repulsive>
0.1629

> <Gold.PLP.ligand.clash>
0.0000

> <Gold.PLP.ligand.torsion>
0.5715

> <Gold.PLP.Chemscore.Hbond>
1.9420

> <Gold.PLP.Chemscore.CHOScore>
0.0000

> <Gold.PLP.Chemscore.Metal>
0.0000

> <Gold.Chemscore.Hbonds>
donor molecule, donor type, donor heavy atom, donor atom, acceptor molecule, acceptor atom, score
      L1  H     6    28       P1  7948  1.00
      L1  H     9    29       P1  7948  1.00

> <Gold.PLP.Chemscore.Internal.Correction>
0.4105

> <Gold.Rescore>
     Score         DG    S(hbond)    S(metal)    S(lipo)     H(rot)  DE(clash)    DE(int)     intcor
     13.41     -15.30       1.47        0.00      71.90       1.37       0.04       1.85       ----

> <Gold.Chemscore.Fitness>
13.4063

> <Gold.Chemscore.DG>
-15.2975

> <Gold.Chemscore.ZeroCoef>
-5.4800

> <Gold.Chemscore.Hbond>
1.4674

> <Gold.Chemscore.Metal>
0.0000

> <Gold.Chemscore.Lipo>
71.9039

> <Gold.Chemscore.Internal_Hbond>
0.0000

> <Gold.Chemscore.DEClash>
0.0406

> <Gold.Chemscore.DEInternal>
1.8506

> <Gold.Chemscore.Rot>
1.3658

> <Gold.Chemscore.Internal.Correction>
   9.000000E+99

> <Gold.Chemscore.Hbonds>
donor molecule, donor type, donor heavy atom, donor atom, acceptor molecule, acceptor atom, score
      L1  H     6    28       P1  7948  0.35
      L1  H     9    29       P1  7948  0.66

> <Gold.Chemscore.Hbond.Weighted>
-4.9010

> <Gold.Chemscore.Metal.Weighted>
-0.0000

> <Gold.Chemscore.Lipo.Weighted>
-8.4128

> <Gold.Chemscore.Internal_Hbond.Weighted>
0.0000

> <Gold.Chemscore.DEClash.Weighted>
0.0406

> <Gold.Chemscore.DEInternal.Weighted>
1.8506

> <Gold.Chemscore.Rot.Weighted>
3.4963

> <Gold.Chemscore.Internal.Correction.Weighted>
   9.000000E+99

> <Gold.Protein.RotatedTorsions>
[ 6907 6896 6895 6894 ] final -157.25 input  -60.11 | X-H torsion
[ 7974 7965 7964 7962 ] final  176.39 input  175.53 | X-H torsion
[ 8008 7997 7996 7995 ] final   98.89 input   59.86 | X-H torsion
[ 10167 10162 10161 10158 ] final  -48.41 input  -65.29 | X-H torsion
[ 10718 10713 10712 10709 ] final   75.62 input   66.30 | X-H torsion
[ 10763 10752 10751 10750 ] final   46.99 input  -60.55 | X-H torsion
[ 11005 11000 10999 10996 ] final -158.64 input  -57.11 | X-H torsion

> <Gold.Protein.ActiveResidues>
 VAL166  LYS551  ARG553  GLY616  TRP617  ASP618  TYR619  PRO620  LYS621  CYS622 
 ASP623  PHE694  ASN695  SER759  ASP760  ASP761  ALA762  ILE779  LEU786  VAL792 
 PHE793  MET794  SER795  GLU796  ALA797  LYS798  CYS799  TRP800  GLU811  SER814 

> <Gold.Protein.RotatedAtoms>
  151.3001  133.4126  159.2638 H   0  0  0  0  0  0  0  0  0  0  0  0  # atno 6907 bound_to 6896
  151.0203  134.9464  159.8066 H   0  0  0  0  0  0  0  0  0  0  0  0  # atno 6908 bound_to 6896
  152.5322  134.2964  159.9114 H   0  0  0  0  0  0  0  0  0  0  0  0  # atno 6909 bound_to 6896
  144.7185  140.0089  143.6440 H   0  0  0  0  0  0  0  0  0  0  0  0  # atno 7974 bound_to 7965
  156.1050  140.3237  155.7993 H   0  0  0  0  0  0  0  0  0  0  0  0  # atno 8008 bound_to 7997
  155.4772  140.0551  157.2989 H   0  0  0  0  0  0  0  0  0  0  0  0  # atno 8009 bound_to 7997
  154.4721  140.2016  155.9982 H   0  0  0  0  0  0  0  0  0  0  0  0  # atno 8010 bound_to 7997
  140.6732  143.2741  151.4067 H   0  0  0  0  0  0  0  0  0  0  0  0  # atno 10167 bound_to 10162
  157.6641  130.9735  150.1380 H   0  0  0  0  0  0  0  0  0  0  0  0  # atno 10718 bound_to 10713
  152.9804  135.5990  154.3689 H   0  0  0  0  0  0  0  0  0  0  0  0  # atno 10763 bound_to 10752
  154.3365  135.2768  155.2447 H   0  0  0  0  0  0  0  0  0  0  0  0  # atno 10764 bound_to 10752
  154.4548  135.5981  153.6271 H   0  0  0  0  0  0  0  0  0  0  0  0  # atno 10765 bound_to 10752
  140.6514  134.4447  157.5235 H   0  0  0  0  0  0  0  0  0  0  0  0  # atno 11005 bound_to 11000
  146.0274  139.3304  143.0776 LP  0  0  0  0  0  0  0  0  0  0  0  0  # atno 17320 bound_to 7965
  145.8494  140.9537  143.0757 LP  0  0  0  0  0  0  0  0  0  0  0  0  # atno 17321 bound_to 7965
  139.6011  144.1294  152.2198 LP  0  0  0  0  0  0  0  0  0  0  0  0  # atno 17342 bound_to 10162
  140.0679  144.5803  150.7214 LP  0  0  0  0  0  0  0  0  0  0  0  0  # atno 17343 bound_to 10162
  156.2210  130.3674  149.8556 LP  0  0  0  0  0  0  0  0  0  0  0  0  # atno 17370 bound_to 10713
  156.6409  130.8704  151.3513 LP  0  0  0  0  0  0  0  0  0  0  0  0  # atno 17371 bound_to 10713
  139.9045  134.8481  156.1762 LP  0  0  0  0  0  0  0  0  0  0  0  0  # atno 17394 bound_to 11000
  141.0534  133.6877  156.1815 LP  0  0  0  0  0  0  0  0  0  0  0  0  # atno 17395 bound_to 11000

$$$$
