AV-unprocessed.smi:3316|AV-procd|sdf|12757|dock2
  -GOLD-   2272019 93D 1   1.00000     0.00000
 Structure written by MMmdl.
 41 43  0  0  0  0  0  0  0  0  2 V2000
  147.9408  139.3620  155.4366 C   0  0  0  0  0  0  0  0  0  0  0  0
  149.2342  140.1181  155.7791 C   0  0  2  0  0  0  0  0  0  0  0  0
  149.1791  141.5793  155.2931 C   0  0  0  0  0  0  0  0  0  0  0  0
  150.2108  142.4104  155.9466 N   0  3  0  0  0  0  0  0  0  0  0  0
  150.2847  142.2349  157.4098 C   0  0  0  0  0  0  0  0  0  0  0  0
  150.6447  143.5568  158.1121 C   0  0  2  0  0  0  0  0  0  0  0  0
  151.7598  144.3755  157.3866 C   0  0  0  0  0  0  0  0  0  0  0  0
  152.8222  144.5800  158.4912 C   0  0  1  0  0  0  0  0  0  0  0  0
  152.2153  145.4463  159.5744 C   0  0  0  0  0  0  0  0  0  0  0  0
  151.2885  144.7137  160.1949 C   0  0  0  0  0  0  0  0  0  0  0  0
  151.2613  143.3571  159.5214 C   0  0  2  0  0  0  0  0  0  0  0  0
  152.7484  143.2108  159.1725 C   0  0  0  0  0  0  0  0  0  0  0  0
  150.4601  139.3824  155.2516 C   0  0  0  0  0  0  0  0  0  0  0  0
  151.7577  139.8619  155.5295 C   0  0  0  0  0  0  0  0  0  0  0  0
  152.8634  139.1530  155.0186 C   0  0  0  0  0  0  0  0  0  0  0  0
  152.7457  138.0354  154.2707 N   0  0  0  0  0  0  0  0  0  0  0  0
  151.5027  137.5789  154.0081 C   0  0  0  0  0  0  0  0  0  0  0  0
  150.3321  138.2132  154.4704 C   0  0  0  0  0  0  0  0  0  0  0  0
  147.9652  138.3465  155.8334 H   0  0  0  0  0  0  0  0  0  0  0  0
  147.7859  139.2940  154.3594 H   0  0  0  0  0  0  0  0  0  0  0  0
  147.0704  139.8601  155.8643 H   0  0  0  0  0  0  0  0  0  0  0  0
  149.3070  140.1402  156.8678 H   0  0  0  0  0  0  0  0  0  0  0  0
  149.3081  141.6285  154.2110 H   0  0  0  0  0  0  0  0  0  0  0  0
  148.1988  142.0030  155.5145 H   0  0  0  0  0  0  0  0  0  0  0  0
  151.1105  142.1774  155.5510 H   0  0  0  0  0  0  0  0  0  0  0  0
  149.3157  141.8836  157.7669 H   0  0  0  0  0  0  0  0  0  0  0  0
  151.0118  141.4572  157.6450 H   0  0  0  0  0  0  0  0  0  0  0  0
  149.7360  144.1555  158.2020 H   0  0  0  0  0  0  0  0  0  0  0  0
  152.1852  143.8209  156.5490 H   0  0  0  0  0  0  0  0  0  0  0  0
  151.3870  145.3244  156.9989 H   0  0  0  0  0  0  0  0  0  0  0  0
  153.8147  144.8859  158.1595 H   0  0  0  0  0  0  0  0  0  0  0  0
  152.4830  146.4751  159.7651 H   0  0  0  0  0  0  0  0  0  0  0  0
  150.6350  145.0171  160.9994 H   0  0  0  0  0  0  0  0  0  0  0  0
  150.8394  142.5577  160.1313 H   0  0  0  0  0  0  0  0  0  0  0  0
  152.9767  142.3744  158.5102 H   0  0  0  0  0  0  0  0  0  0  0  0
  153.3875  143.1394  160.0551 H   0  0  0  0  0  0  0  0  0  0  0  0
  151.9106  140.7512  156.1232 H   0  0  0  0  0  0  0  0  0  0  0  0
  153.8691  139.4942  155.2147 H   0  0  0  0  0  0  0  0  0  0  0  0
  151.4382  136.6820  153.4102 H   0  0  0  0  0  0  0  0  0  0  0  0
  149.3617  137.8041  154.2299 H   0  0  0  0  0  0  0  0  0  0  0  0
  150.0132  143.3812  155.7485 H   0  0  0  0  0  0  0  0  0  0  0  0
  1  2  1  0  0  0  0
  1 19  1  0  0  0  0
  1 20  1  0  0  0  0
  1 21  1  0  0  0  0
  2  3  1  0  0  0  0
  2 13  1  0  0  0  0
  2 22  1  0  0  0  0
  3  4  1  0  0  0  0
  3 23  1  0  0  0  0
  3 24  1  0  0  0  0
  4  5  1  0  0  0  0
  4 25  1  0  0  0  0
  4 41  1  0  0  0  0
  5  6  1  0  0  0  0
  5 26  1  0  0  0  0
  5 27  1  0  0  0  0
  6 11  1  0  0  0  0
  6  7  1  0  0  0  0
  6 28  1  0  0  0  0
  7  8  1  0  0  0  0
  7 29  1  0  0  0  0
  7 30  1  0  0  0  0
  8 12  1  0  0  0  0
  8  9  1  0  0  0  0
  8 31  1  0  0  0  0
  9 10  2  0  0  0  0
  9 32  1  0  0  0  0
 10 11  1  0  0  0  0
 10 33  1  0  0  0  0
 11 12  1  0  0  0  0
 11 34  1  0  0  0  0
 12 35  1  0  0  0  0
 12 36  1  0  0  0  0
 13 18  1  0  0  0  0
 13 14  2  0  0  0  0
 14 15  1  0  0  0  0
 14 37  1  0  0  0  0
 15 16  2  0  0  0  0
 15 38  1  0  0  0  0
 16 17  1  0  0  0  0
 17 18  2  0  0  0  0
 17 39  1  0  0  0  0
 18 40  1  0  0  0  0
M  CHG  1   4   1
M  END
> <s_m_source_file>
AV-unprocessed.smi

> <i_m_source_file_index>
3316

> <i_lp_mmshare_version>
43012

> <i_f3d_flags>
0

> <s_epik_input>
W2NIXTFbY0hdbltjSF1bY0hdYzFbQ0BIXShbQ0gzXSlbQ0gyXVtOSF1bQ0gyXVtDQEhdKFtDSDJdW0NASF0yMylbQ0BIXShbQ0gyXTMpW0NIXT1bQ0hdMg==

> <s_epik_cmdline>
J2VwaWtfcHl0aG9uJywgJy1waCcsICc3LjAnLCAnLXRuJywgJzgnLCAnLW1hJywgJzIwMCcsICctbWV0YWxfYmluZGluZycsICctaW1hZScsICc8aW5maWxlLm1hZT4nLCAnLW9tYWUnLCAnPG91dGZpbGUubWFlPic=

> <r_lp_tautomer_probability>
1

> <r_epik_Ionization_Penalty>
0.00280406

> <r_epik_Ionization_Penalty_Charging>
0.000446589

> <r_epik_Ionization_Penalty_Neutral>
0.00235747

> <r_epik_State_Penalty>
-0

> <r_epik_Charging_Adjusted_Penalty>
0.000446589

> <i_epik_Tot_Q>
1

> <i_epik_Tot_abs_Q>
1

> <r_epik_Metal_State_Penalty>
-0

> <b_epik_Metal_Only>
0

> <s_lp_Force_Field>
OPLS_2005

> <r_lp_Energy>
65.5539

> <b_lp_Chiralities_Consistent>
1

> <s_lp_Variant>
AV-unprocessed.smi:3316-5

> <Gold.Version>
5.8.1

> <Gold.Id.Protein>
6NUR|6NUR_protein|mol2

> <Gold.PLP.Fitness>
50.0920

> <Gold.PLP.PLP>
-42.1172

> <Gold.PLP.part.hbond>
-2.0000

> <Gold.PLP.part.metal>
0.0000

> <Gold.PLP.part.buried>
-0.7920

> <Gold.PLP.part.nonpolar>
-38.9237

> <Gold.PLP.part.repulsive>
0.2049

> <Gold.PLP.ligand.clash>
0.0000

> <Gold.PLP.ligand.torsion>
0.5810

> <Gold.PLP.Chemscore.Hbond>
2.0018

> <Gold.PLP.Chemscore.CHOScore>
1.0000

> <Gold.PLP.Chemscore.Metal>
0.0000

> <Gold.Chemscore.Hbonds>
donor molecule, donor type, donor heavy atom, donor atom, acceptor molecule, acceptor atom, score
      L1  H     4    41       P1  8028  2.00
      L1  C    17    39       P1  7949  1.00

> <Gold.PLP.Chemscore.Internal.Correction>
0.1316

> <Gold.Rescore>
     Score         DG    S(hbond)    S(metal)    S(lipo)     H(rot)  DE(clash)    DE(int)     intcor
     20.13     -21.28       0.94        0.00     137.93       1.36       0.08       1.07       ----

> <Gold.Chemscore.Fitness>
20.1277

> <Gold.Chemscore.DG>
-21.2763

> <Gold.Chemscore.ZeroCoef>
-5.4800

> <Gold.Chemscore.Hbond>
0.9432

> <Gold.Chemscore.Metal>
0.0000

> <Gold.Chemscore.Lipo>
137.9298

> <Gold.Chemscore.Internal_Hbond>
0.0000

> <Gold.Chemscore.DEClash>
0.0805

> <Gold.Chemscore.DEInternal>
1.0681

> <Gold.Chemscore.Rot>
1.3640

> <Gold.Chemscore.Internal.Correction>
   9.000000E+99

> <Gold.Chemscore.Hbonds>
donor molecule, donor type, donor heavy atom, donor atom, acceptor molecule, acceptor atom, score
      L1  H     4    41       P1  8028  0.95

> <Gold.Chemscore.Hbond.Weighted>
-3.1504

> <Gold.Chemscore.Metal.Weighted>
-0.0000

> <Gold.Chemscore.Lipo.Weighted>
-16.1378

> <Gold.Chemscore.Internal_Hbond.Weighted>
0.0000

> <Gold.Chemscore.DEClash.Weighted>
0.0805

> <Gold.Chemscore.DEInternal.Weighted>
1.0681

> <Gold.Chemscore.Rot.Weighted>
3.4919

> <Gold.Chemscore.Internal.Correction.Weighted>
   9.000000E+99

> <Gold.Protein.RotatedTorsions>
[ 6907 6896 6895 6894 ] final   35.62 input  -60.11 | X-H torsion
[ 7974 7965 7964 7962 ] final   71.46 input  175.53 | X-H torsion
[ 8008 7997 7996 7995 ] final   83.41 input   59.86 | X-H torsion
[ 10167 10162 10161 10158 ] final  -46.59 input  -65.29 | X-H torsion
[ 10718 10713 10712 10709 ] final  -23.19 input   66.30 | X-H torsion
[ 10763 10752 10751 10750 ] final -124.41 input  -60.55 | X-H torsion
[ 11005 11000 10999 10996 ] final  -33.15 input  -57.11 | X-H torsion

> <Gold.Protein.ActiveResidues>
 VAL166  LYS551  ARG553  GLY616  TRP617  ASP618  TYR619  PRO620  LYS621  CYS622 
 ASP623  PHE694  ASN695  SER759  ASP760  ASP761  ALA762  ILE779  LEU786  VAL792 
 PHE793  MET794  SER795  GLU796  ALA797  LYS798  CYS799  TRP800  GLU811  SER814 

> <Gold.Protein.RotatedAtoms>
  152.1186  134.9222  160.0563 H   0  0  0  0  0  0  0  0  0  0  0  0  # atno 6907 bound_to 6896
  152.0372  133.3957  159.4330 H   0  0  0  0  0  0  0  0  0  0  0  0  # atno 6908 bound_to 6896
  150.6847  134.3376  159.4898 H   0  0  0  0  0  0  0  0  0  0  0  0  # atno 6909 bound_to 6896
  145.7655  139.2819  143.1351 H   0  0  0  0  0  0  0  0  0  0  0  0  # atno 7974 bound_to 7965
  155.9235  140.3419  155.6192 H   0  0  0  0  0  0  0  0  0  0  0  0  # atno 8008 bound_to 7997
  155.7245  140.0787  157.2335 H   0  0  0  0  0  0  0  0  0  0  0  0  # atno 8009 bound_to 7997
  154.4073  140.1599  156.2426 H   0  0  0  0  0  0  0  0  0  0  0  0  # atno 8010 bound_to 7997
  140.6811  143.2824  151.3804 H   0  0  0  0  0  0  0  0  0  0  0  0  # atno 10167 bound_to 10162
  156.4943  130.4573  149.6737 H   0  0  0  0  0  0  0  0  0  0  0  0  # atno 10718 bound_to 10713
  154.8723  135.4065  154.3101 H   0  0  0  0  0  0  0  0  0  0  0  0  # atno 10763 bound_to 10752
  153.3946  135.7016  153.6475 H   0  0  0  0  0  0  0  0  0  0  0  0  # atno 10764 bound_to 10752
  153.5244  135.3680  155.2618 H   0  0  0  0  0  0  0  0  0  0  0  0  # atno 10765 bound_to 10752
  140.9611  133.7164  156.1371 H   0  0  0  0  0  0  0  0  0  0  0  0  # atno 11005 bound_to 11000
  146.0222  140.8337  142.9918 LP  0  0  0  0  0  0  0  0  0  0  0  0  # atno 17320 bound_to 7965
  144.6822  140.2645  143.7314 LP  0  0  0  0  0  0  0  0  0  0  0  0  # atno 17321 bound_to 7965
  139.6134  144.1051  152.2322 LP  0  0  0  0  0  0  0  0  0  0  0  0  # atno 17342 bound_to 10162
  140.0473  144.5961  150.7364 LP  0  0  0  0  0  0  0  0  0  0  0  0  # atno 17343 bound_to 10162
  156.3395  130.7374  151.2317 LP  0  0  0  0  0  0  0  0  0  0  0  0  # atno 17370 bound_to 10713
  157.7470  131.0407  150.4613 LP  0  0  0  0  0  0  0  0  0  0  0  0  # atno 17371 bound_to 10713
  140.7466  134.4091  157.5547 LP  0  0  0  0  0  0  0  0  0  0  0  0  # atno 17394 bound_to 11000
  139.8878  134.8872  156.2506 LP  0  0  0  0  0  0  0  0  0  0  0  0  # atno 17395 bound_to 11000

$$$$
