AV-unprocessed.smi:315|AV-procd|sdf|2323|dock4
  -GOLD-   2262022223D 1   1.00000     0.00000
 Structure written by MMmdl.
 47 49  0  0  0  0  0  0  0  0  2 V2000
  152.1370  138.1007  154.4130 C   0  0  0  0  0  0  0  0  0  0  0  0
  151.1256  139.2037  154.7345 C   0  0  0  0  0  0  0  0  0  0  0  0
  149.8795  138.8621  154.1366 O   0  0  0  0  0  0  0  0  0  0  0  0
  148.8108  139.7259  154.2851 C   0  0  0  0  0  0  0  0  0  0  0  0
  149.0325  140.9422  154.8432 N   0  0  0  0  0  0  0  0  0  0  0  0
  147.9869  141.7823  154.9869 C   0  0  0  0  0  0  0  0  0  0  0  0
  146.6757  141.4557  154.5936 C   0  0  0  0  0  0  0  0  0  0  0  0
  146.4434  140.1941  154.0152 C   0  0  0  0  0  0  0  0  0  0  0  0
  147.5342  139.3083  153.8442 C   0  0  0  0  0  0  0  0  0  0  0  0
  147.4147  138.0059  153.2900 N   0  0  0  0  0  0  0  0  0  0  0  0
  146.2988  137.3150  152.9884 C   0  0  0  0  0  0  0  0  0  0  0  0
  145.1526  137.7144  153.1789 O   0  0  0  0  0  0  0  0  0  0  0  0
  146.5344  136.1179  152.4226 N   0  0  0  0  0  0  0  0  0  0  0  0
  145.5516  135.1278  151.9781 C   0  0  1  0  0  0  0  0  0  0  0  0
  144.4701  135.6959  151.0440 C   0  0  0  0  0  0  0  0  0  0  0  0
  144.2427  134.6123  149.9718 C   0  0  0  0  0  0  0  0  0  0  0  0
  145.0690  133.4479  150.3635 N   0  3  2  0  0  0  0  0  0  0  0  0
  144.2788  132.4248  151.1023 C   0  0  0  0  0  0  0  0  0  0  0  0
  145.1711  131.3360  151.7117 C   0  0  0  0  0  0  0  0  0  0  0  0
  146.2012  131.9640  152.6537 C   0  0  0  0  0  0  0  0  0  0  0  0
  147.0473  132.9820  151.8808 C   0  0  0  0  0  0  0  0  0  0  0  0
  146.1988  134.0309  151.1271 C   0  0  2  0  0  0  0  0  0  0  0  0
  153.1087  138.3229  154.8544 H   0  0  0  0  0  0  0  0  0  0  0  0
  152.2746  137.9972  153.3364 H   0  0  0  0  0  0  0  0  0  0  0  0
  151.8041  137.1388  154.8034 H   0  0  0  0  0  0  0  0  0  0  0  0
  151.0169  139.2983  155.8161 H   0  0  0  0  0  0  0  0  0  0  0  0
  151.4868  140.1567  154.3447 H   0  0  0  0  0  0  0  0  0  0  0  0
  148.2004  142.7419  155.4344 H   0  0  0  0  0  0  0  0  0  0  0  0
  145.8659  142.1558  154.7360 H   0  0  0  0  0  0  0  0  0  0  0  0
  145.4380  139.9272  153.7284 H   0  0  0  0  0  0  0  0  0  0  0  0
  148.2851  137.5822  153.0047 H   0  0  0  0  0  0  0  0  0  0  0  0
  147.5037  135.8734  152.2785 H   0  0  0  0  0  0  0  0  0  0  0  0
  145.0735  134.6659  152.8437 H   0  0  0  0  0  0  0  0  0  0  0  0
  143.5557  135.9130  151.5970 H   0  0  0  0  0  0  0  0  0  0  0  0
  144.7939  136.6245  150.5710 H   0  0  0  0  0  0  0  0  0  0  0  0
  143.1886  134.3582  149.8512 H   0  0  0  0  0  0  0  0  0  0  0  0
  144.5993  134.9744  149.0067 H   0  0  0  0  0  0  0  0  0  0  0  0
  143.6999  132.9018  151.8949 H   0  0  0  0  0  0  0  0  0  0  0  0
  143.5578  131.9729  150.4202 H   0  0  0  0  0  0  0  0  0  0  0  0
  144.5596  130.6155  152.2560 H   0  0  0  0  0  0  0  0  0  0  0  0
  145.6768  130.7810  150.9203 H   0  0  0  0  0  0  0  0  0  0  0  0
  145.6980  132.4474  153.4918 H   0  0  0  0  0  0  0  0  0  0  0  0
  146.8422  131.1918  153.0797 H   0  0  0  0  0  0  0  0  0  0  0  0
  147.7484  133.4763  152.5541 H   0  0  0  0  0  0  0  0  0  0  0  0
  147.6584  132.4427  151.1557 H   0  0  0  0  0  0  0  0  0  0  0  0
  146.8496  134.5160  150.3963 H   0  0  0  0  0  0  0  0  0  0  0  0
  145.4345  133.0021  149.5341 H   0  0  0  0  0  0  0  0  0  0  0  0
  1  2  1  0  0  0  0
  1 23  1  0  0  0  0
  1 24  1  0  0  0  0
  1 25  1  0  0  0  0
  2  3  1  0  0  0  0
  2 26  1  0  0  0  0
  2 27  1  0  0  0  0
  3  4  1  0  0  0  0
  4  9  1  0  0  0  0
  4  5  2  0  0  0  0
  5  6  1  0  0  0  0
  6  7  2  0  0  0  0
  6 28  1  0  0  0  0
  7  8  1  0  0  0  0
  7 29  1  0  0  0  0
  8  9  2  0  0  0  0
  8 30  1  0  0  0  0
  9 10  1  0  0  0  0
 10 11  1  0  0  0  0
 10 31  1  0  0  0  0
 11 12  2  0  0  0  0
 11 13  1  0  0  0  0
 13 14  1  0  0  0  0
 13 32  1  0  0  0  0
 14 22  1  0  0  0  0
 14 15  1  0  0  0  0
 14 33  1  0  0  0  0
 15 16  1  0  0  0  0
 15 34  1  0  0  0  0
 15 35  1  0  0  0  0
 16 17  1  0  0  0  0
 16 36  1  0  0  0  0
 16 37  1  0  0  0  0
 17 22  1  0  0  0  0
 17 18  1  0  0  0  0
 17 47  1  0  0  0  0
 18 19  1  0  0  0  0
 18 38  1  0  0  0  0
 18 39  1  0  0  0  0
 19 20  1  0  0  0  0
 19 40  1  0  0  0  0
 19 41  1  0  0  0  0
 20 21  1  0  0  0  0
 20 42  1  0  0  0  0
 20 43  1  0  0  0  0
 21 22  1  0  0  0  0
 21 44  1  0  0  0  0
 21 45  1  0  0  0  0
 22 46  1  0  0  0  0
M  CHG  1  17   1
M  END
> <s_m_source_file>
AV-unprocessed.smi

> <i_m_source_file_index>
315

> <i_lp_mmshare_version>
43012

> <i_f3d_flags>
0

> <s_epik_input>
W0NIM11bQ0gyXU9jMW5bY0hdW2NIXVtjSF1jMVtOSF1DKD1PKVtOSF1bQ0BIXShbQ0gyXVtDSDJdMilbQ0BASF0oTjIzKVtDSDJdW0NIMl1bQ0gyXVtDSDJdMw==

> <s_epik_cmdline>
J2VwaWtfcHl0aG9uJywgJy1waCcsICc3LjAnLCAnLXRuJywgJzgnLCAnLW1hJywgJzIwMCcsICctbWV0YWxfYmluZGluZycsICctaW1hZScsICc8aW5maWxlLm1hZT4nLCAnLW9tYWUnLCAnPG91dGZpbGUubWFlPic=

> <r_lp_tautomer_probability>
1

> <r_epik_Ionization_Penalty>
0.00106455

> <r_epik_Ionization_Penalty_Charging>
0.000974069

> <r_epik_Ionization_Penalty_Neutral>
9.04821e-05

> <r_epik_State_Penalty>
0.000633842

> <r_epik_Charging_Adjusted_Penalty>
0.00160791

> <i_epik_Tot_Q>
1

> <i_epik_Tot_abs_Q>
1

> <r_epik_Metal_State_Penalty>
-0

> <b_epik_Metal_Only>
0

> <s_lp_Force_Field>
OPLS_2005

> <r_lp_Energy>
51.0433

> <b_lp_Chiralities_Consistent>
1

> <s_lp_Variant>
AV-unprocessed.smi:315-8

> <Gold.Version>
5.8.1

> <Gold.Id.Protein>
6NUR|6NUR_protein|mol2

> <Gold.PLP.Fitness>
42.1274

> <Gold.PLP.PLP>
-33.9839

> <Gold.PLP.part.hbond>
-2.1651

> <Gold.PLP.part.metal>
0.0000

> <Gold.PLP.part.buried>
-0.7922

> <Gold.PLP.part.nonpolar>
-31.5787

> <Gold.PLP.part.repulsive>
0.6537

> <Gold.PLP.ligand.clash>
0.0000

> <Gold.PLP.ligand.torsion>
0.1858

> <Gold.PLP.Chemscore.Hbond>
1.8320

> <Gold.PLP.Chemscore.CHOScore>
1.0000

> <Gold.PLP.Chemscore.Metal>
0.0000

> <Gold.Chemscore.Hbonds>
donor molecule, donor type, donor heavy atom, donor atom, acceptor molecule, acceptor atom, score
      L1  H    10    31       P1  7948  0.83
      L1  H    13    32       P1  7948  1.00
      L1  C     6    28       P1  8028  1.00

> <Gold.PLP.Chemscore.Internal.Correction>
0.0190

> <Gold.Rescore>
     Score         DG    S(hbond)    S(metal)    S(lipo)     H(rot)  DE(clash)    DE(int)     intcor
     16.35     -18.19       1.82        0.00      86.69       1.38       0.46       1.38       ----

> <Gold.Chemscore.Fitness>
16.3536

> <Gold.Chemscore.DG>
-18.1901

> <Gold.Chemscore.ZeroCoef>
-5.4800

> <Gold.Chemscore.Hbond>
1.8242

> <Gold.Chemscore.Metal>
0.0000

> <Gold.Chemscore.Lipo>
86.6864

> <Gold.Chemscore.Internal_Hbond>
0.0000

> <Gold.Chemscore.DEClash>
0.4599

> <Gold.Chemscore.DEInternal>
1.3766

> <Gold.Chemscore.Rot>
1.3770

> <Gold.Chemscore.Internal.Correction>
   9.000000E+99

> <Gold.Chemscore.Hbonds>
donor molecule, donor type, donor heavy atom, donor atom, acceptor molecule, acceptor atom, score
      L1  H    10    31       P1  7948  0.81
      L1  H    13    32       P1  7948  0.90

> <Gold.Chemscore.Hbond.Weighted>
-6.0929

> <Gold.Chemscore.Metal.Weighted>
-0.0000

> <Gold.Chemscore.Lipo.Weighted>
-10.1423

> <Gold.Chemscore.Internal_Hbond.Weighted>
0.0000

> <Gold.Chemscore.DEClash.Weighted>
0.4599

> <Gold.Chemscore.DEInternal.Weighted>
1.3766

> <Gold.Chemscore.Rot.Weighted>
3.5252

> <Gold.Chemscore.Internal.Correction.Weighted>
   9.000000E+99

> <Gold.Protein.RotatedTorsions>
[ 6907 6896 6895 6894 ] final  -94.53 input  -60.11 | X-H torsion
[ 7974 7965 7964 7962 ] final  -52.05 input  175.53 | X-H torsion
[ 8008 7997 7996 7995 ] final  102.21 input   59.86 | X-H torsion
[ 10167 10162 10161 10158 ] final  154.92 input  -65.29 | X-H torsion
[ 10718 10713 10712 10709 ] final  130.79 input   66.30 | X-H torsion
[ 10763 10752 10751 10750 ] final  111.62 input  -60.55 | X-H torsion
[ 11005 11000 10999 10996 ] final  134.85 input  -57.11 | X-H torsion

> <Gold.Protein.ActiveResidues>
 VAL166  LYS551  ARG553  GLY616  TRP617  ASP618  TYR619  PRO620  LYS621  CYS622 
 ASP623  PHE694  ASN695  SER759  ASP760  ASP761  ALA762  ILE779  LEU786  VAL792 
 PHE793  MET794  SER795  GLU796  ALA797  LYS798  CYS799  TRP800  GLU811  SER814 

> <Gold.Protein.RotatedAtoms>
  150.6944  134.1798  159.4243 H   0  0  0  0  0  0  0  0  0  0  0  0  # atno 6907 bound_to 6896
  151.9772  135.0044  160.0565 H   0  0  0  0  0  0  0  0  0  0  0  0  # atno 6908 bound_to 6896
  152.1788  133.4658  159.4984 H   0  0  0  0  0  0  0  0  0  0  0  0  # atno 6909 bound_to 6896
  145.9122  140.7905  142.9689 H   0  0  0  0  0  0  0  0  0  0  0  0  # atno 7974 bound_to 7965
  156.1372  140.3185  155.8439 H   0  0  0  0  0  0  0  0  0  0  0  0  # atno 8008 bound_to 7997
  155.4222  140.0513  157.3042 H   0  0  0  0  0  0  0  0  0  0  0  0  # atno 8009 bound_to 7997
  154.4946  140.2106  155.9486 H   0  0  0  0  0  0  0  0  0  0  0  0  # atno 8010 bound_to 7997
  139.4822  144.5145  151.7974 H   0  0  0  0  0  0  0  0  0  0  0  0  # atno 10167 bound_to 10162
  157.5029  131.1095  150.9402 H   0  0  0  0  0  0  0  0  0  0  0  0  # atno 10718 bound_to 10713
  153.4659  135.3711  155.2364 H   0  0  0  0  0  0  0  0  0  0  0  0  # atno 10763 bound_to 10752
  154.8757  135.3920  154.3869 H   0  0  0  0  0  0  0  0  0  0  0  0  # atno 10764 bound_to 10752
  153.4450  135.7085  153.6209 H   0  0  0  0  0  0  0  0  0  0  0  0  # atno 10765 bound_to 10752
  139.9941  134.9504  156.9925 H   0  0  0  0  0  0  0  0  0  0  0  0  # atno 11005 bound_to 11000
  144.6744  140.1843  143.7403 LP  0  0  0  0  0  0  0  0  0  0  0  0  # atno 17320 bound_to 7965
  145.8657  139.2246  143.1690 LP  0  0  0  0  0  0  0  0  0  0  0  0  # atno 17321 bound_to 7965
  140.4651  144.1666  150.5911 LP  0  0  0  0  0  0  0  0  0  0  0  0  # atno 17342 bound_to 10162
  140.4442  143.2513  151.9433 LP  0  0  0  0  0  0  0  0  0  0  0  0  # atno 17343 bound_to 10162
  157.0067  130.5621  149.5316 LP  0  0  0  0  0  0  0  0  0  0  0  0  # atno 17370 bound_to 10713
  156.0240  130.5334  150.8356 LP  0  0  0  0  0  0  0  0  0  0  0  0  # atno 17371 bound_to 10713
  140.4851  134.1250  155.7223 LP  0  0  0  0  0  0  0  0  0  0  0  0  # atno 17394 bound_to 11000
  141.1590  133.8828  157.1899 LP  0  0  0  0  0  0  0  0  0  0  0  0  # atno 17395 bound_to 11000

$$$$
