AV-unprocessed.smi:743|AV-procd|sdf|3567|dock4
  -GOLD-   22720 0563D 1   1.00000     0.00000
 Structure written by MMmdl.
 28 29  0  0  0  0  0  0  0  0  1 V2000
  152.4300  143.7469  161.6938 C   0  0  0  0  0  0  0  0  0  0  0  0
  151.7768  143.5579  160.4164 N   0  0  0  0  0  0  0  0  0  0  0  0
  151.9973  142.5776  159.4740 C   0  0  0  0  0  0  0  0  0  0  0  0
  151.1389  142.8019  158.4317 C   0  0  0  0  0  0  0  0  0  0  0  0
  150.9591  142.0246  157.1417 C   0  0  1  0  0  0  0  0  0  0  0  0
  151.9899  140.9906  157.0131 N   0  0  0  0  0  0  0  0  0  0  0  0
  151.8570  139.6832  157.3070 C   0  0  0  0  0  0  0  0  0  0  0  0
  152.8192  138.9197  157.2750 O   0  0  0  0  0  0  0  0  0  0  0  0
  150.4630  139.1237  157.6399 C   0  0  0  0  0  0  0  0  0  0  0  0
  149.4063  140.1984  157.9521 C   0  0  0  0  0  0  0  0  0  0  0  0
  149.5509  141.3951  157.0037 C   0  0  1  0  0  0  0  0  0  0  0  0
  148.4861  142.3585  157.2185 N   0  0  0  0  0  0  0  0  0  0  0  0
  150.4310  143.9680  158.8447 C   0  0  0  0  0  0  0  0  0  0  0  0
  150.8132  144.4169  160.0289 N   0  0  0  0  0  0  0  0  0  0  0  0
  149.4377  141.0284  155.9825 H   0  0  0  0  0  0  0  0  0  0  0  0
  153.1604  142.9548  161.8611 H   0  0  0  0  0  0  0  0  0  0  0  0
  151.6902  143.7208  162.4943 H   0  0  0  0  0  0  0  0  0  0  0  0
  152.9415  144.7098  161.7083 H   0  0  0  0  0  0  0  0  0  0  0  0
  152.7368  141.8044  159.6226 H   0  0  0  0  0  0  0  0  0  0  0  0
  151.1032  142.6991  156.2970 H   0  0  0  0  0  0  0  0  0  0  0  0
  152.9117  141.3121  156.7549 H   0  0  0  0  0  0  0  0  0  0  0  0
  150.1370  138.5433  156.7762 H   0  0  0  0  0  0  0  0  0  0  0  0
  150.5398  138.4230  158.4716 H   0  0  0  0  0  0  0  0  0  0  0  0
  148.4110  139.7623  157.8600 H   0  0  0  0  0  0  0  0  0  0  0  0
  149.5027  140.5211  158.9898 H   0  0  0  0  0  0  0  0  0  0  0  0
  148.6259  143.1608  156.6212 H   0  0  0  0  0  0  0  0  0  0  0  0
  147.5998  141.9519  156.9550 H   0  0  0  0  0  0  0  0  0  0  0  0
  149.6505  144.4978  158.3188 H   0  0  0  0  0  0  0  0  0  0  0  0
  1  2  1  0  0  0  0
  1 16  1  0  0  0  0
  1 17  1  0  0  0  0
  1 18  1  0  0  0  0
  2 14  1  0  0  0  0
  2  3  1  0  0  0  0
  3  4  2  0  0  0  0
  3 19  1  0  0  0  0
  4  5  1  0  0  0  0
  4 13  1  0  0  0  0
  5 11  1  0  0  0  0
  5  6  1  0  0  0  0
  5 20  1  0  0  0  0
  6  7  1  0  0  0  0
  6 21  1  0  0  0  0
  7  8  2  0  0  0  0
  7  9  1  0  0  0  0
  9 10  1  0  0  0  0
  9 22  1  0  0  0  0
  9 23  1  0  0  0  0
 10 11  1  0  0  0  0
 10 24  1  0  0  0  0
 10 25  1  0  0  0  0
 11 15  1  0  0  0  0
 11 12  1  0  0  0  0
 12 26  1  0  0  0  0
 12 27  1  0  0  0  0
 13 14  2  0  0  0  0
 13 28  1  0  0  0  0
M  END
> <s_m_source_file>
AV-unprocessed.smi

> <i_m_source_file_index>
743

> <i_lp_mmshare_version>
43012

> <i_f3d_flags>
0

> <s_epik_input>
W0NIM11uMVtjSF1jKFtjSF1uMSlbQ0BASF0yW05IXUMoPU8pW0NIMl1bQ0gyXVtDQEBIXTJbTkgyXQ==

> <s_epik_cmdline>
J2VwaWtfcHl0aG9uJywgJy1waCcsICc3LjAnLCAnLXRuJywgJzgnLCAnLW1hJywgJzIwMCcsICctbWV0YWxfYmluZGluZycsICctaW1hZScsICc8aW5maWxlLm1hZT4nLCAnLW9tYWUnLCAnPG91dGZpbGUubWFlPic=

> <r_lp_tautomer_probability>
1

> <r_epik_Ionization_Penalty>
2.50279

> <r_epik_Ionization_Penalty_Charging>
0

> <r_epik_Ionization_Penalty_Neutral>
2.50279

> <r_epik_State_Penalty>
2.66754

> <r_epik_Charging_Adjusted_Penalty>
2.66754

> <i_epik_Tot_Q>
0

> <i_epik_Tot_abs_Q>
0

> <r_epik_Metal_State_Penalty>
2.66721

> <b_epik_Metal_Only>
0

> <s_lp_Force_Field>
OPLS_2005

> <r_lp_Energy>
9.07018

> <b_lp_Chiralities_Consistent>
1

> <s_lp_Variant>
AV-unprocessed.smi:743-8

> <Gold.Version>
5.8.1

> <Gold.Id.Protein>
6NUR|6NUR_protein|mol2

> <Gold.PLP.Fitness>
31.5580

> <Gold.PLP.PLP>
-22.3129

> <Gold.PLP.part.hbond>
-2.0000

> <Gold.PLP.part.metal>
0.0000

> <Gold.PLP.part.buried>
-2.5643

> <Gold.PLP.part.nonpolar>
-17.7759

> <Gold.PLP.part.repulsive>
0.2538

> <Gold.PLP.ligand.clash>
0.0000

> <Gold.PLP.ligand.torsion>
0.0582

> <Gold.PLP.Chemscore.Hbond>
2.0000

> <Gold.PLP.Chemscore.CHOScore>
1.1145

> <Gold.PLP.Chemscore.Metal>
0.0000

> <Gold.Chemscore.Hbonds>
donor molecule, donor type, donor heavy atom, donor atom, acceptor molecule, acceptor atom, score
      L1  H    12    26       P1  8028  1.00
      P1  H  7997  8010       L1     8  0.99
      L1  C    13    28       P1  8028  0.18
      L1  C    13    28       P1  8029  0.94

> <Gold.PLP.Chemscore.Internal.Correction>
0.0179

> <Gold.Rescore>
     Score         DG    S(hbond)    S(metal)    S(lipo)     H(rot)  DE(clash)    DE(int)     intcor
     13.92     -14.84       1.57        0.00      57.04       1.00       0.49       0.43       ----

> <Gold.Chemscore.Fitness>
13.9191

> <Gold.Chemscore.DG>
-14.8370

> <Gold.Chemscore.ZeroCoef>
-5.4800

> <Gold.Chemscore.Hbond>
1.5700

> <Gold.Chemscore.Metal>
0.0000

> <Gold.Chemscore.Lipo>
57.0368

> <Gold.Chemscore.Internal_Hbond>
0.0000

> <Gold.Chemscore.DEClash>
0.4887

> <Gold.Chemscore.DEInternal>
0.4292

> <Gold.Chemscore.Rot>
1.0000

> <Gold.Chemscore.Internal.Correction>
   9.000000E+99

> <Gold.Chemscore.Hbonds>
donor molecule, donor type, donor heavy atom, donor atom, acceptor molecule, acceptor atom, score
      L1  H    12    26       P1  8028  0.78
      P1  H  7997  8010       L1     8  0.56

> <Gold.Chemscore.Hbond.Weighted>
-5.2437

> <Gold.Chemscore.Metal.Weighted>
-0.0000

> <Gold.Chemscore.Lipo.Weighted>
-6.6733

> <Gold.Chemscore.Internal_Hbond.Weighted>
0.0000

> <Gold.Chemscore.DEClash.Weighted>
0.4887

> <Gold.Chemscore.DEInternal.Weighted>
0.4292

> <Gold.Chemscore.Rot.Weighted>
2.5600

> <Gold.Chemscore.Internal.Correction.Weighted>
   9.000000E+99

> <Gold.Protein.RotatedTorsions>
[ 6907 6896 6895 6894 ] final   -9.26 input  -60.11 | X-H torsion
[ 7974 7965 7964 7962 ] final -126.86 input  175.53 | X-H torsion
[ 8008 7997 7996 7995 ] final   48.63 input   59.86 | X-H torsion
[ 10167 10162 10161 10158 ] final  141.84 input  -65.29 | X-H torsion
[ 10718 10713 10712 10709 ] final  -48.40 input   66.30 | X-H torsion
[ 10763 10752 10751 10750 ] final   -8.54 input  -60.55 | X-H torsion
[ 11005 11000 10999 10996 ] final  179.42 input  -57.11 | X-H torsion

> <Gold.Protein.ActiveResidues>
 VAL166  LYS551  ARG553  GLY616  TRP617  ASP618  TYR619  PRO620  LYS621  CYS622 
 ASP623  PHE694  ASN695  SER759  ASP760  ASP761  ALA762  ILE779  LEU786  VAL792 
 PHE793  MET794  SER795  GLU796  ALA797  LYS798  CYS799  TRP800  GLU811  SER814 

> <Gold.Protein.RotatedAtoms>
  151.4206  135.0997  159.9612 H   0  0  0  0  0  0  0  0  0  0  0  0  # atno 6907 bound_to 6896
  152.4989  133.8710  159.7309 H   0  0  0  0  0  0  0  0  0  0  0  0  # atno 6908 bound_to 6896
  150.9226  133.6805  159.2856 H   0  0  0  0  0  0  0  0  0  0  0  0  # atno 6909 bound_to 6896
  144.9829  140.7658  143.4601 H   0  0  0  0  0  0  0  0  0  0  0  0  # atno 7974 bound_to 7965
  155.3889  140.3432  155.4250 H   0  0  0  0  0  0  0  0  0  0  0  0  # atno 8008 bound_to 7997
  156.1569  140.1588  156.8711 H   0  0  0  0  0  0  0  0  0  0  0  0  # atno 8009 bound_to 7997
  154.5103  140.0792  156.7957 H   0  0  0  0  0  0  0  0  0  0  0  0  # atno 8010 bound_to 7997
  139.5010  144.6145  151.6194 H   0  0  0  0  0  0  0  0  0  0  0  0  # atno 10167 bound_to 10162
  156.1991  130.4155  149.9265 H   0  0  0  0  0  0  0  0  0  0  0  0  # atno 10718 bound_to 10713
  153.4419  135.7014  153.6163 H   0  0  0  0  0  0  0  0  0  0  0  0  # atno 10763 bound_to 10752
  153.4534  135.3753  155.2297 H   0  0  0  0  0  0  0  0  0  0  0  0  # atno 10764 bound_to 10752
  154.8727  135.4002  154.3819 H   0  0  0  0  0  0  0  0  0  0  0  0  # atno 10765 bound_to 10752
  140.4060  134.6735  157.4588 H   0  0  0  0  0  0  0  0  0  0  0  0  # atno 11005 bound_to 11000
  145.2394  139.2079  143.5000 LP  0  0  0  0  0  0  0  0  0  0  0  0  # atno 17320 bound_to 7965
  146.3413  140.2287  142.8593 LP  0  0  0  0  0  0  0  0  0  0  0  0  # atno 17321 bound_to 7965
  140.5830  143.9913  150.6279 LP  0  0  0  0  0  0  0  0  0  0  0  0  # atno 17342 bound_to 10162
  140.3069  143.3224  152.0917 LP  0  0  0  0  0  0  0  0  0  0  0  0  # atno 17343 bound_to 10162
  156.6980  130.8922  151.3596 LP  0  0  0  0  0  0  0  0  0  0  0  0  # atno 17370 bound_to 10713
  157.6975  130.9298  150.0688 LP  0  0  0  0  0  0  0  0  0  0  0  0  # atno 17371 bound_to 10713
  140.0302  134.6418  155.9117 LP  0  0  0  0  0  0  0  0  0  0  0  0  # atno 17394 bound_to 11000
  141.1839  133.6552  156.5135 LP  0  0  0  0  0  0  0  0  0  0  0  0  # atno 17395 bound_to 11000

$$$$
