AV-unprocessed.smi:1999|AV-procd|sdf|8096|dock6
  -GOLD-   2272010313D 1   1.00000     0.00000
 Structure written by MMmdl.
 37 38  0  0  0  0  0  0  0  0  2 V2000
  152.5268  143.7102  162.0413 C   0  0  0  0  0  0  0  0  0  0  0  0
  153.0178  142.5499  161.2452 C   0  0  0  0  0  0  0  0  0  0  0  0
  154.0218  141.7685  161.6500 N   0  0  0  0  0  0  0  0  0  0  0  0
  154.2929  140.7544  160.7428 N   0  0  0  0  0  0  0  0  0  0  0  0
  153.4853  140.7757  159.6729 C   0  0  0  0  0  0  0  0  0  0  0  0
  153.5842  139.8785  158.6782 N   0  5  0  0  0  0  0  0  0  0  0  0
  152.4658  139.3992  158.0872 C   0  0  0  0  0  0  0  0  0  0  0  0
  151.5513  138.7873  158.6440 O   0  0  0  0  0  0  0  0  0  0  0  0
  152.4036  139.6444  156.7704 N   0  0  0  0  0  0  0  0  0  0  0  0
  151.3134  139.2678  155.8718 C   0  0  2  0  0  0  0  0  0  0  0  0
  151.8659  138.4803  154.6737 C   0  0  0  0  0  0  0  0  0  0  0  0
  150.5548  140.5283  155.4075 C   0  0  0  0  0  0  0  0  0  0  0  0
  149.1602  140.3227  155.0103 N   0  0  0  0  0  0  0  0  0  0  0  0
  148.9850  139.1704  154.1292 C   0  0  0  0  0  0  0  0  0  0  0  0
  147.5168  138.9904  153.7059 C   0  0  0  0  0  0  0  0  0  0  0  0
  147.0458  140.1827  153.0861 O   0  0  0  0  0  0  0  0  0  0  0  0
  147.1548  141.3203  153.9353 C   0  0  0  0  0  0  0  0  0  0  0  0
  148.6226  141.5097  154.3552 C   0  0  0  0  0  0  0  0  0  0  0  0
  152.3177  142.0971  159.7003 S   0  0  0  0  0  0  0  0  0  0  0  0
  151.8075  143.3713  162.7867 H   0  0  0  0  0  0  0  0  0  0  0  0
  152.0413  144.4368  161.3896 H   0  0  0  0  0  0  0  0  0  0  0  0
  153.3573  144.1999  162.5505 H   0  0  0  0  0  0  0  0  0  0  0  0
  153.1729  140.1528  156.3597 H   0  0  0  0  0  0  0  0  0  0  0  0
  150.6168  138.6156  156.3996 H   0  0  0  0  0  0  0  0  0  0  0  0
  151.0644  138.1857  153.9960 H   0  0  0  0  0  0  0  0  0  0  0  0
  152.3710  137.5701  154.9979 H   0  0  0  0  0  0  0  0  0  0  0  0
  152.5825  139.0738  154.1048 H   0  0  0  0  0  0  0  0  0  0  0  0
  150.5809  141.2504  156.2251 H   0  0  0  0  0  0  0  0  0  0  0  0
  151.1012  140.9928  154.5853 H   0  0  0  0  0  0  0  0  0  0  0  0
  149.6068  139.2854  153.2402 H   0  0  0  0  0  0  0  0  0  0  0  0
  149.3140  138.2590  154.6273 H   0  0  0  0  0  0  0  0  0  0  0  0
  147.4238  138.1624  153.0031 H   0  0  0  0  0  0  0  0  0  0  0  0
  146.8935  138.7504  154.5688 H   0  0  0  0  0  0  0  0  0  0  0  0
  146.7970  142.2000  153.4003 H   0  0  0  0  0  0  0  0  0  0  0  0
  146.5156  141.1941  154.8103 H   0  0  0  0  0  0  0  0  0  0  0  0
  148.6967  142.3673  155.0247 H   0  0  0  0  0  0  0  0  0  0  0  0
  149.2208  141.7490  153.4747 H   0  0  0  0  0  0  0  0  0  0  0  0
  1  2  1  0  0  0  0
  1 20  1  0  0  0  0
  1 21  1  0  0  0  0
  1 22  1  0  0  0  0
  2 19  1  0  0  0  0
  2  3  2  0  0  0  0
  3  4  1  0  0  0  0
  4  5  2  0  0  0  0
  5  6  1  0  0  0  0
  5 19  1  0  0  0  0
  6  7  1  0  0  0  0
  7  8  2  0  0  0  0
  7  9  1  0  0  0  0
  9 10  1  0  0  0  0
  9 23  1  0  0  0  0
 10 11  1  0  0  0  0
 10 12  1  0  0  0  0
 10 24  1  0  0  0  0
 11 25  1  0  0  0  0
 11 26  1  0  0  0  0
 11 27  1  0  0  0  0
 12 13  1  0  0  0  0
 12 28  1  0  0  0  0
 12 29  1  0  0  0  0
 13 18  1  0  0  0  0
 13 14  1  0  0  0  0
 14 15  1  0  0  0  0
 14 30  1  0  0  0  0
 14 31  1  0  0  0  0
 15 16  1  0  0  0  0
 15 32  1  0  0  0  0
 15 33  1  0  0  0  0
 16 17  1  0  0  0  0
 17 18  1  0  0  0  0
 17 34  1  0  0  0  0
 17 35  1  0  0  0  0
 18 36  1  0  0  0  0
 18 37  1  0  0  0  0
M  CHG  1   6  -1
M  END
> <s_m_source_file>
AV-unprocessed.smi

> <i_m_source_file_index>
1999

> <i_lp_mmshare_version>
43012

> <i_f3d_flags>
0

> <s_epik_input>
W0NIM11jMW5uYyhzMSlbTkhdQyg9TylbTkhdW0NASF0oW0NIM10pW0NIMl1OMltDSDJdW0NIMl1PW0NIMl1bQ0gyXTI=

> <s_epik_cmdline>
J2VwaWtfcHl0aG9uJywgJy1waCcsICc3LjAnLCAnLXRuJywgJzgnLCAnLW1hJywgJzIwMCcsICctbWV0YWxfYmluZGluZycsICctaW1hZScsICc8aW5maWxlLm1hZT4nLCAnLW9tYWUnLCAnPG91dGZpbGUubWFlPic=

> <r_lp_tautomer_probability>
1

> <r_epik_Ionization_Penalty>
3.74165

> <r_epik_Ionization_Penalty_Charging>
3.28066

> <r_epik_Ionization_Penalty_Neutral>
0.460988

> <r_epik_State_Penalty>
3.48767

> <r_epik_Charging_Adjusted_Penalty>
6.76834

> <i_epik_Tot_Q>
-1

> <i_epik_Tot_abs_Q>
1

> <r_epik_Metal_State_Penalty>
0.700129

> <b_epik_Metal_Only>
1

> <s_lp_Force_Field>
OPLS_2005

> <r_lp_Energy>
23.1925

> <b_lp_Chiralities_Consistent>
1

> <s_lp_Variant>
AV-unprocessed.smi:1999-5

> <Gold.Version>
5.8.1

> <Gold.Id.Protein>
6NUR|6NUR_protein|mol2

> <Gold.PLP.Fitness>
39.5025

> <Gold.PLP.PLP>
-35.9355

> <Gold.PLP.part.hbond>
-1.7555

> <Gold.PLP.part.metal>
0.0000

> <Gold.PLP.part.buried>
-3.6011

> <Gold.PLP.part.nonpolar>
-30.6744

> <Gold.PLP.part.repulsive>
1.4382

> <Gold.PLP.ligand.clash>
0.0000

> <Gold.PLP.ligand.torsion>
1.2563

> <Gold.PLP.Chemscore.Hbond>
2.0000

> <Gold.PLP.Chemscore.CHOScore>
0.0000

> <Gold.PLP.Chemscore.Metal>
0.0000

> <Gold.Chemscore.Hbonds>
donor molecule, donor type, donor heavy atom, donor atom, acceptor molecule, acceptor atom, score
      P1  H  7997  8010       L1     6  2.00

> <Gold.PLP.Chemscore.Internal.Correction>
0.0796

> <Gold.Rescore>
     Score         DG    S(hbond)    S(metal)    S(lipo)     H(rot)  DE(clash)    DE(int)     intcor
     11.81     -13.45       0.77        0.00      80.21       1.56       0.27       1.36       ----

> <Gold.Chemscore.Fitness>
11.8124

> <Gold.Chemscore.DG>
-13.4497

> <Gold.Chemscore.ZeroCoef>
-5.4800

> <Gold.Chemscore.Hbond>
0.7687

> <Gold.Chemscore.Metal>
0.0000

> <Gold.Chemscore.Lipo>
80.2099

> <Gold.Chemscore.Internal_Hbond>
0.0000

> <Gold.Chemscore.DEClash>
0.2749

> <Gold.Chemscore.DEInternal>
1.3624

> <Gold.Chemscore.Rot>
1.5556

> <Gold.Chemscore.Internal.Correction>
   9.000000E+99

> <Gold.Chemscore.Hbonds>
donor molecule, donor type, donor heavy atom, donor atom, acceptor molecule, acceptor atom, score
      P1  H  7997  8010       L1     6  0.43

> <Gold.Chemscore.Hbond.Weighted>
-2.5674

> <Gold.Chemscore.Metal.Weighted>
-0.0000

> <Gold.Chemscore.Lipo.Weighted>
-9.3846

> <Gold.Chemscore.Internal_Hbond.Weighted>
0.0000

> <Gold.Chemscore.DEClash.Weighted>
0.2749

> <Gold.Chemscore.DEInternal.Weighted>
1.3624

> <Gold.Chemscore.Rot.Weighted>
3.9823

> <Gold.Chemscore.Internal.Correction.Weighted>
   9.000000E+99

> <Gold.Protein.RotatedTorsions>
[ 6907 6896 6895 6894 ] final   10.27 input  -60.11 | X-H torsion
[ 7974 7965 7964 7962 ] final   85.22 input  175.53 | X-H torsion
[ 8008 7997 7996 7995 ] final   16.20 input   59.86 | X-H torsion
[ 10167 10162 10161 10158 ] final  160.05 input  -65.29 | X-H torsion
[ 10718 10713 10712 10709 ] final  118.00 input   66.30 | X-H torsion
[ 10763 10752 10751 10750 ] final  107.22 input  -60.55 | X-H torsion
[ 11005 11000 10999 10996 ] final -151.29 input  -57.11 | X-H torsion

> <Gold.Protein.ActiveResidues>
 VAL166  LYS551  ARG553  GLY616  TRP617  ASP618  TYR619  PRO620  LYS621  CYS622 
 ASP623  PHE694  ASN695  SER759  ASP760  ASP761  ALA762  ILE779  LEU786  VAL792 
 PHE793  MET794  SER795  GLU796  ALA797  LYS798  CYS799  TRP800  GLU811  SER814 

> <Gold.Protein.RotatedAtoms>
  151.7355  135.0865  160.0306 H   0  0  0  0  0  0  0  0  0  0  0  0  # atno 6907 bound_to 6896
  152.3513  133.6179  159.5955 H   0  0  0  0  0  0  0  0  0  0  0  0  # atno 6908 bound_to 6896
  150.7542  133.9485  159.3520 H   0  0  0  0  0  0  0  0  0  0  0  0  # atno 6909 bound_to 6896
  145.5883  139.2334  143.2313 H   0  0  0  0  0  0  0  0  0  0  0  0  # atno 7974 bound_to 7965
  154.8736  140.2962  155.5466 H   0  0  0  0  0  0  0  0  0  0  0  0  # atno 8008 bound_to 7997
  156.3022  140.2455  156.3662 H   0  0  0  0  0  0  0  0  0  0  0  0  # atno 8009 bound_to 7997
  154.8791  140.0398  157.1760 H   0  0  0  0  0  0  0  0  0  0  0  0  # atno 8010 bound_to 7997
  139.4837  144.4671  151.8626 H   0  0  0  0  0  0  0  0  0  0  0  0  # atno 10167 bound_to 10162
  157.6059  131.1043  150.7694 H   0  0  0  0  0  0  0  0  0  0  0  0  # atno 10718 bound_to 10713
  153.4037  135.3851  155.2005 H   0  0  0  0  0  0  0  0  0  0  0  0  # atno 10763 bound_to 10752
  154.8732  135.3777  154.4586 H   0  0  0  0  0  0  0  0  0  0  0  0  # atno 10764 bound_to 10752
  153.5087  135.7087  153.5855 H   0  0  0  0  0  0  0  0  0  0  0  0  # atno 10765 bound_to 10752
  140.7311  134.3620  157.5166 H   0  0  0  0  0  0  0  0  0  0  0  0  # atno 11005 bound_to 11000
  146.1665  140.6710  142.9253 LP  0  0  0  0  0  0  0  0  0  0  0  0  # atno 17320 bound_to 7965
  144.7362  140.4816  143.6902 LP  0  0  0  0  0  0  0  0  0  0  0  0  # atno 17321 bound_to 7965
  140.4137  144.2335  150.5888 LP  0  0  0  0  0  0  0  0  0  0  0  0  # atno 17342 bound_to 10162
  140.4941  143.2338  151.8775 LP  0  0  0  0  0  0  0  0  0  0  0  0  # atno 17343 bound_to 10162
  156.8083  130.4944  149.5359 LP  0  0  0  0  0  0  0  0  0  0  0  0  # atno 17370 bound_to 10713
  156.1146  130.6065  151.0100 LP  0  0  0  0  0  0  0  0  0  0  0  0  # atno 17371 bound_to 10713
  139.8826  134.9019  156.2821 LP  0  0  0  0  0  0  0  0  0  0  0  0  # atno 17394 bound_to 11000
  140.9920  133.7203  156.0828 LP  0  0  0  0  0  0  0  0  0  0  0  0  # atno 17395 bound_to 11000

$$$$
