AV-unprocessed.smi:1705|AV-procd|sdf|6882|dock9
  -GOLD-   22720 8 83D 1   1.00000     0.00000
 Structure written by MMmdl.
 38 39  0  0  0  0  0  0  0  0  1 V2000
  151.3321  141.0510  157.6102 C   0  0  0  0  0  0  0  0  0  0  0  0
  152.0749  139.8549  158.2255 C   0  0  2  0  0  0  0  0  0  0  0  0
  151.1294  138.7902  158.5257 N   0  0  0  0  0  0  0  0  0  0  0  0
  150.7698  137.7391  157.6879 C   0  0  0  0  0  0  0  0  0  0  0  0
  151.2969  137.6019  156.4385 C   0  0  0  0  0  0  0  0  0  0  0  0
  152.2176  138.5298  155.8612 C   0  0  0  0  0  0  0  0  0  0  0  0
  152.9521  139.3049  155.4127 N   0  0  0  0  0  0  0  0  0  0  0  0
  150.9298  136.4929  155.5605 C   0  0  0  0  0  0  0  0  0  0  0  0
  151.3897  136.3326  154.4272 O   0  0  0  0  0  0  0  0  0  0  0  0
  149.9962  135.5895  156.1069 N   0  0  0  0  0  0  0  0  0  0  0  0
  149.6208  134.4679  155.2685 C   0  0  0  0  0  0  0  0  0  0  0  0
  149.4381  135.7054  157.3970 C   0  0  0  0  0  0  0  0  0  0  0  0
  148.6391  134.8727  157.8361 O   0  0  0  0  0  0  0  0  0  0  0  0
  149.8369  136.8191  158.1764 N   0  0  0  0  0  0  0  0  0  0  0  0
  149.2356  136.8783  159.4938 C   0  0  0  0  0  0  0  0  0  0  0  0
  152.8382  140.2386  159.5066 C   0  0  2  0  0  0  0  0  0  0  0  0
  152.4600  141.5953  160.0989 C   0  0  0  0  0  0  0  0  0  0  0  0
  153.6871  141.9743  160.9105 C   0  0  0  0  0  0  0  0  0  0  0  0
  154.8060  141.1172  160.3113 C   0  0  0  0  0  0  0  0  0  0  0  0
  154.2146  140.4313  159.2158 O   0  0  0  0  0  0  0  0  0  0  0  0
  152.0255  141.8315  157.2972 H   0  0  0  0  0  0  0  0  0  0  0  0
  150.6335  141.4911  158.3226 H   0  0  0  0  0  0  0  0  0  0  0  0
  150.7610  140.7539  156.7308 H   0  0  0  0  0  0  0  0  0  0  0  0
  152.8048  139.4910  157.5030 H   0  0  0  0  0  0  0  0  0  0  0  0
  151.1429  138.5440  159.5050 H   0  0  0  0  0  0  0  0  0  0  0  0
  148.8258  133.8769  155.7215 H   0  0  0  0  0  0  0  0  0  0  0  0
  150.5146  133.8565  155.1334 H   0  0  0  0  0  0  0  0  0  0  0  0
  149.2672  134.8716  154.3180 H   0  0  0  0  0  0  0  0  0  0  0  0
  149.6156  136.0265  160.0604 H   0  0  0  0  0  0  0  0  0  0  0  0
  148.1516  136.8347  159.3704 H   0  0  0  0  0  0  0  0  0  0  0  0
  149.4964  137.8073  159.9955 H   0  0  0  0  0  0  0  0  0  0  0  0
  152.7387  139.4592  160.2650 H   0  0  0  0  0  0  0  0  0  0  0  0
  152.3091  142.3241  159.3012 H   0  0  0  0  0  0  0  0  0  0  0  0
  151.5513  141.5583  160.7002 H   0  0  0  0  0  0  0  0  0  0  0  0
  153.9002  143.0411  160.8372 H   0  0  0  0  0  0  0  0  0  0  0  0
  153.5477  141.7307  161.9644 H   0  0  0  0  0  0  0  0  0  0  0  0
  155.6543  141.7146  159.9766 H   0  0  0  0  0  0  0  0  0  0  0  0
  155.1675  140.3912  161.0409 H   0  0  0  0  0  0  0  0  0  0  0  0
  1  2  1  0  0  0  0
  1 21  1  0  0  0  0
  1 22  1  0  0  0  0
  1 23  1  0  0  0  0
  2  3  1  0  0  0  0
  2 16  1  0  0  0  0
  2 24  1  0  0  0  0
  3  4  1  0  0  0  0
  3 25  1  0  0  0  0
  4 14  1  0  0  0  0
  4  5  2  0  0  0  0
  5  6  1  0  0  0  0
  5  8  1  0  0  0  0
  6  7  3  0  0  0  0
  8  9  2  0  0  0  0
  8 10  1  0  0  0  0
 10 11  1  0  0  0  0
 10 12  1  0  0  0  0
 11 26  1  0  0  0  0
 11 27  1  0  0  0  0
 11 28  1  0  0  0  0
 12 13  2  0  0  0  0
 12 14  1  0  0  0  0
 14 15  1  0  0  0  0
 15 29  1  0  0  0  0
 15 30  1  0  0  0  0
 15 31  1  0  0  0  0
 16 20  1  0  0  0  0
 16 17  1  0  0  0  0
 16 32  1  0  0  0  0
 17 18  1  0  0  0  0
 17 33  1  0  0  0  0
 17 34  1  0  0  0  0
 18 19  1  0  0  0  0
 18 35  1  0  0  0  0
 18 36  1  0  0  0  0
 19 20  1  0  0  0  0
 19 37  1  0  0  0  0
 19 38  1  0  0  0  0
M  END
> <s_m_source_file>
AV-unprocessed.smi

> <i_m_source_file_index>
1705

> <i_lp_mmshare_version>
43012

> <i_f3d_flags>
0

> <s_epik_input>
TzFbQ0gyXVtDSDJdW0NIMl1bQ0BIXTFbQ0BIXShbQ0gzXSlbTkhdYzJjKEMjTiljKD1PKW4oW0NIM10pYyg9TyluMltDSDNd

> <s_epik_cmdline>
J2VwaWtfcHl0aG9uJywgJy1waCcsICc3LjAnLCAnLXRuJywgJzgnLCAnLW1hJywgJzIwMCcsICctbWV0YWxfYmluZGluZycsICctaW1hZScsICc8aW5maWxlLm1hZT4nLCAnLW9tYWUnLCAnPG91dGZpbGUubWFlPic=

> <r_epik_Ionization_Penalty>
0.000446268

> <r_epik_Ionization_Penalty_Charging>
9.41922e-10

> <r_epik_Ionization_Penalty_Neutral>
0.000446267

> <r_epik_State_Penalty>
0.000275531

> <r_epik_Charging_Adjusted_Penalty>
0.000275532

> <i_epik_Tot_Q>
0

> <i_epik_Tot_abs_Q>
0

> <r_epik_Metal_State_Penalty>
-0

> <b_epik_Metal_Only>
0

> <s_lp_Force_Field>
OPLS_2005

> <r_lp_Energy>
37.8394

> <b_lp_Chiralities_Consistent>
1

> <s_lp_Variant>
AV-unprocessed.smi:1705-1

> <Gold.Version>
5.8.1

> <Gold.Id.Protein>
6NUR|6NUR_protein|mol2

> <Gold.PLP.Fitness>
34.4418

> <Gold.PLP.PLP>
-29.6618

> <Gold.PLP.part.hbond>
-3.0000

> <Gold.PLP.part.metal>
0.0000

> <Gold.PLP.part.buried>
-4.2889

> <Gold.PLP.part.nonpolar>
-23.0621

> <Gold.PLP.part.repulsive>
1.4962

> <Gold.PLP.ligand.clash>
9.0766

> <Gold.PLP.ligand.torsion>
1.6109

> <Gold.PLP.Chemscore.Hbond>
2.6574

> <Gold.PLP.Chemscore.CHOScore>
0.0000

> <Gold.PLP.Chemscore.Metal>
0.0000

> <Gold.Chemscore.Hbonds>
donor molecule, donor type, donor heavy atom, donor atom, acceptor molecule, acceptor atom, score
      P1  H  7997  8008       L1     7  0.93
      P1  H  7997  8010       L1    20  0.60
      P1  H 10752 10764       L1     9  1.00

> <Gold.PLP.Chemscore.Internal.Correction>
9.1059

> <Gold.Rescore>
     Score         DG    S(hbond)    S(metal)    S(lipo)     H(rot)  DE(clash)    DE(int)     intcor
     13.41     -18.61       2.77        0.00      61.22       1.28       1.05       4.15       ----

> <Gold.Chemscore.Fitness>
13.4132

> <Gold.Chemscore.DG>
-18.6113

> <Gold.Chemscore.ZeroCoef>
-5.4800

> <Gold.Chemscore.Hbond>
2.7664

> <Gold.Chemscore.Metal>
0.0000

> <Gold.Chemscore.Lipo>
61.2229

> <Gold.Chemscore.Internal_Hbond>
0.0000

> <Gold.Chemscore.DEClash>
1.0477

> <Gold.Chemscore.DEInternal>
4.1505

> <Gold.Chemscore.Rot>
1.2780

> <Gold.Chemscore.Internal.Correction>
   9.000000E+99

> <Gold.Chemscore.Hbonds>
donor molecule, donor type, donor heavy atom, donor atom, acceptor molecule, acceptor atom, score
      P1  H  7997  8008       L1     7  0.89
      P1  H  7997  8010       L1    20  0.58
      P1  H 10752 10764       L1     9  0.91

> <Gold.Chemscore.Hbond.Weighted>
-9.2399

> <Gold.Chemscore.Metal.Weighted>
-0.0000

> <Gold.Chemscore.Lipo.Weighted>
-7.1631

> <Gold.Chemscore.Internal_Hbond.Weighted>
0.0000

> <Gold.Chemscore.DEClash.Weighted>
1.0477

> <Gold.Chemscore.DEInternal.Weighted>
4.1505

> <Gold.Chemscore.Rot.Weighted>
3.2717

> <Gold.Chemscore.Internal.Correction.Weighted>
   9.000000E+99

> <Gold.Protein.RotatedTorsions>
[ 6907 6896 6895 6894 ] final   19.77 input  -60.11 | X-H torsion
[ 7974 7965 7964 7962 ] final -154.37 input  175.53 | X-H torsion
[ 8008 7997 7996 7995 ] final   -2.18 input   59.86 | X-H torsion
[ 10167 10162 10161 10158 ] final   67.95 input  -65.29 | X-H torsion
[ 10718 10713 10712 10709 ] final  148.22 input   66.30 | X-H torsion
[ 10763 10752 10751 10750 ] final  -72.37 input  -60.55 | X-H torsion
[ 11005 11000 10999 10996 ] final   15.41 input  -57.11 | X-H torsion

> <Gold.Protein.ActiveResidues>
 VAL166  LYS551  ARG553  GLY616  TRP617  ASP618  TYR619  PRO620  LYS621  CYS622 
 ASP623  PHE694  ASN695  SER759  ASP760  ASP761  ALA762  ILE779  LEU786  VAL792 
 PHE793  MET794  SER795  GLU796  ALA797  LYS798  CYS799  TRP800  GLU811  SER814 

> <Gold.Protein.RotatedAtoms>
  151.8860  135.0435  160.0493 H   0  0  0  0  0  0  0  0  0  0  0  0  # atno 6907 bound_to 6896
  152.2474  133.5182  159.5314 H   0  0  0  0  0  0  0  0  0  0  0  0  # atno 6908 bound_to 6896
  150.7073  134.0922  159.3978 H   0  0  0  0  0  0  0  0  0  0  0  0  # atno 6909 bound_to 6896
  144.7692  140.4397  143.5919 H   0  0  0  0  0  0  0  0  0  0  0  0  # atno 7974 bound_to 7965
  154.6385  140.2541  155.7349 H   0  0  0  0  0  0  0  0  0  0  0  0  # atno 8008 bound_to 7997
  156.2517  140.2892  156.0689 H   0  0  0  0  0  0  0  0  0  0  0  0  # atno 8009 bound_to 7997
  155.1633  140.0385  157.2837 H   0  0  0  0  0  0  0  0  0  0  0  0  # atno 8010 bound_to 7997
  140.0839  144.5047  150.7143 H   0  0  0  0  0  0  0  0  0  0  0  0  # atno 10167 bound_to 10162
  157.3113  131.0888  151.1314 H   0  0  0  0  0  0  0  0  0  0  0  0  # atno 10718 bound_to 10713
  154.4448  135.5932  153.6153 H   0  0  0  0  0  0  0  0  0  0  0  0  # atno 10763 bound_to 10752
  152.9808  135.6007  154.3678 H   0  0  0  0  0  0  0  0  0  0  0  0  # atno 10764 bound_to 10752
  154.3532  135.2841  155.2339 H   0  0  0  0  0  0  0  0  0  0  0  0  # atno 10765 bound_to 10752
  140.4586  134.1151  155.7713 H   0  0  0  0  0  0  0  0  0  0  0  0  # atno 11005 bound_to 11000
  145.6374  139.1545  143.2935 LP  0  0  0  0  0  0  0  0  0  0  0  0  # atno 17320 bound_to 7965
  146.1826  140.6473  142.9182 LP  0  0  0  0  0  0  0  0  0  0  0  0  # atno 17321 bound_to 7965
  140.7063  143.2471  151.4715 LP  0  0  0  0  0  0  0  0  0  0  0  0  # atno 17342 bound_to 10162
  139.5763  144.1811  152.1908 LP  0  0  0  0  0  0  0  0  0  0  0  0  # atno 17343 bound_to 10162
  157.2635  130.6670  149.5986 LP  0  0  0  0  0  0  0  0  0  0  0  0  # atno 17370 bound_to 10713
  155.9678  130.4501  150.5685 LP  0  0  0  0  0  0  0  0  0  0  0  0  # atno 17371 bound_to 10713
  141.1632  133.8754  157.1790 LP  0  0  0  0  0  0  0  0  0  0  0  0  # atno 17394 bound_to 11000
  139.9960  135.0046  157.0083 LP  0  0  0  0  0  0  0  0  0  0  0  0  # atno 17395 bound_to 11000

$$$$
