AV-unprocessed.smi:2438|AV-procd|sdf|9595|dock8
  -GOLD-   2272013223D 1   1.00000     0.00000
 Structure written by MMmdl.
 43 44  0  0  0  0  0  0  0  0  1 V2000
  145.4838  148.0382  159.4518 C   0  0  0  0  0  0  0  0  0  0  0  0
  145.2407  146.7502  158.8166 N   0  0  0  0  0  0  0  0  0  0  0  0
  144.4181  146.7725  157.6135 C   0  0  0  0  0  0  0  0  0  0  0  0
  144.9720  145.7180  159.7381 C   0  0  0  0  0  0  0  0  0  0  0  0
  143.6887  145.5399  160.1360 N   0  0  0  0  0  0  0  0  0  0  0  0
  143.4450  144.5736  161.0226 C   0  0  0  0  0  0  0  0  0  0  0  0
  144.3384  143.7463  161.5645 N   0  0  0  0  0  0  0  0  0  0  0  0
  145.6225  143.9037  161.1817 C   0  0  0  0  0  0  0  0  0  0  0  0
  146.0130  144.9022  160.2550 C   0  0  0  0  0  0  0  0  0  0  0  0
  147.3489  145.0635  159.7926 N   0  0  0  0  0  0  0  0  0  0  0  0
  148.4875  144.7017  160.4056 C   0  0  0  0  0  0  0  0  0  0  0  0
  148.5586  144.1325  161.4943 O   0  0  0  0  0  0  0  0  0  0  0  0
  149.5584  145.0637  159.6855 N   0  0  0  0  0  0  0  0  0  0  0  0
  150.9529  144.8534  160.0722 C   0  0  2  0  0  0  0  0  0  0  0  0
  151.9090  145.7343  159.2406 C   0  0  0  0  0  0  0  0  0  0  0  0
  151.9919  145.2728  157.7767 C   0  0  0  0  0  0  0  0  0  0  0  0
  152.3850  143.7903  157.6816 C   0  0  0  0  0  0  0  0  0  0  0  0
  151.4133  142.8899  158.4735 C   0  0  1  0  0  0  0  0  0  0  0  0
  151.7930  141.3982  158.3695 C   0  0  0  0  0  0  0  0  0  0  0  0
  151.8596  141.0119  157.0951 F   0  0  0  0  0  0  0  0  0  0  0  0
  152.9764  141.1882  158.9463 F   0  0  0  0  0  0  0  0  0  0  0  0
  150.8859  140.6516  158.9995 F   0  0  0  0  0  0  0  0  0  0  0  0
  151.3251  143.3626  159.9433 C   0  0  0  0  0  0  0  0  0  0  0  0
  146.3203  147.9924  160.1490 H   0  0  0  0  0  0  0  0  0  0  0  0
  144.5997  148.3659  160.0000 H   0  0  0  0  0  0  0  0  0  0  0  0
  145.7177  148.7948  158.7022 H   0  0  0  0  0  0  0  0  0  0  0  0
  144.3159  145.7718  157.1920 H   0  0  0  0  0  0  0  0  0  0  0  0
  144.8759  147.4090  156.8559 H   0  0  0  0  0  0  0  0  0  0  0  0
  143.4226  147.1623  157.8297 H   0  0  0  0  0  0  0  0  0  0  0  0
  142.4178  144.4462  161.3298 H   0  0  0  0  0  0  0  0  0  0  0  0
  146.3228  143.2015  161.6067 H   0  0  0  0  0  0  0  0  0  0  0  0
  147.4491  145.5992  158.9426 H   0  0  0  0  0  0  0  0  0  0  0  0
  149.3990  145.5300  158.8046 H   0  0  0  0  0  0  0  0  0  0  0  0
  151.0542  145.1300  161.1233 H   0  0  0  0  0  0  0  0  0  0  0  0
  151.6059  146.7810  159.2861 H   0  0  0  0  0  0  0  0  0  0  0  0
  152.9054  145.6917  159.6822 H   0  0  0  0  0  0  0  0  0  0  0  0
  151.0318  145.4308  157.2839 H   0  0  0  0  0  0  0  0  0  0  0  0
  152.7170  145.8834  157.2379 H   0  0  0  0  0  0  0  0  0  0  0  0
  152.4060  143.4900  156.6338 H   0  0  0  0  0  0  0  0  0  0  0  0
  153.4002  143.6603  158.0588 H   0  0  0  0  0  0  0  0  0  0  0  0
  150.4243  143.0002  158.0261 H   0  0  0  0  0  0  0  0  0  0  0  0
  152.2871  143.1977  160.4301 H   0  0  0  0  0  0  0  0  0  0  0  0
  150.6039  142.7559  160.4924 H   0  0  0  0  0  0  0  0  0  0  0  0
  1  2  1  0  0  0  0
  1 24  1  0  0  0  0
  1 25  1  0  0  0  0
  1 26  1  0  0  0  0
  2  3  1  0  0  0  0
  2  4  1  0  0  0  0
  3 27  1  0  0  0  0
  3 28  1  0  0  0  0
  3 29  1  0  0  0  0
  4  9  1  0  0  0  0
  4  5  2  0  0  0  0
  5  6  1  0  0  0  0
  6  7  2  0  0  0  0
  6 30  1  0  0  0  0
  7  8  1  0  0  0  0
  8  9  2  0  0  0  0
  8 31  1  0  0  0  0
  9 10  1  0  0  0  0
 10 11  1  0  0  0  0
 10 32  1  0  0  0  0
 11 12  2  0  0  0  0
 11 13  1  0  0  0  0
 13 14  1  0  0  0  0
 13 33  1  0  0  0  0
 14 23  1  0  0  0  0
 14 15  1  0  0  0  0
 14 34  1  0  0  0  0
 15 16  1  0  0  0  0
 15 35  1  0  0  0  0
 15 36  1  0  0  0  0
 16 17  1  0  0  0  0
 16 37  1  0  0  0  0
 16 38  1  0  0  0  0
 17 18  1  0  0  0  0
 17 39  1  0  0  0  0
 17 40  1  0  0  0  0
 18 19  1  0  0  0  0
 18 23  1  0  0  0  0
 18 41  1  0  0  0  0
 19 20  1  0  0  0  0
 19 21  1  0  0  0  0
 19 22  1  0  0  0  0
 23 42  1  0  0  0  0
 23 43  1  0  0  0  0
M  END
> <s_m_source_file>
AV-unprocessed.smi

> <i_m_source_file_index>
2438

> <i_lp_mmshare_version>
43012

> <i_f3d_flags>
0

> <s_epik_input>
W0NIM11OKFtDSDNdKWMxbltjSF1uW2NIXWMxW05IXUMoPU8pW05IXVtDQEBIXTJbQ0gyXVtDSDJdW0NIMl1bQ0BASF0oQyhGKShGKUYpW0NIMl0y

> <s_epik_cmdline>
J2VwaWtfcHl0aG9uJywgJy1waCcsICc3LjAnLCAnLXRuJywgJzgnLCAnLW1hJywgJzIwMCcsICctbWV0YWxfYmluZGluZycsICctaW1hZScsICc8aW5maWxlLm1hZT4nLCAnLW9tYWUnLCAnPG91dGZpbGUubWFlPic=

> <r_lp_tautomer_probability>
1

> <r_epik_Ionization_Penalty>
0.01759

> <r_epik_Ionization_Penalty_Charging>
0

> <r_epik_Ionization_Penalty_Neutral>
0.01759

> <r_epik_State_Penalty>
0.0133536

> <r_epik_Charging_Adjusted_Penalty>
0.0133536

> <i_epik_Tot_Q>
0

> <i_epik_Tot_abs_Q>
0

> <r_epik_Metal_State_Penalty>
0.0129828

> <b_epik_Metal_Only>
0

> <s_lp_Force_Field>
OPLS_2005

> <r_lp_Energy>
11.7103

> <b_lp_Chiralities_Consistent>
1

> <s_lp_Variant>
AV-unprocessed.smi:2438-1

> <Gold.Version>
5.8.1

> <Gold.Id.Protein>
6NUR|6NUR_protein|mol2

> <Gold.PLP.Fitness>
41.3526

> <Gold.PLP.PLP>
-35.2224

> <Gold.PLP.part.hbond>
-3.0000

> <Gold.PLP.part.metal>
0.0000

> <Gold.PLP.part.buried>
-7.4815

> <Gold.PLP.part.nonpolar>
-25.2274

> <Gold.PLP.part.repulsive>
1.0482

> <Gold.PLP.ligand.clash>
0.0000

> <Gold.PLP.ligand.torsion>
0.7686

> <Gold.PLP.Chemscore.Hbond>
2.4406

> <Gold.PLP.Chemscore.CHOScore>
0.0000

> <Gold.PLP.Chemscore.Metal>
0.0000

> <Gold.Chemscore.Hbonds>
donor molecule, donor type, donor heavy atom, donor atom, acceptor molecule, acceptor atom, score
      L1  H    10    32       P1  8029  1.00
      L1  H    13    33       P1  8029  0.57
      P1  H  6933  6944       L1    12  0.78

> <Gold.PLP.Chemscore.Internal.Correction>
0.3456

> <Gold.Rescore>
     Score         DG    S(hbond)    S(metal)    S(lipo)     H(rot)  DE(clash)    DE(int)     intcor
     17.47     -22.31       2.81        0.00      92.11       1.30       3.10       1.74       ----

> <Gold.Chemscore.Fitness>
17.4669

> <Gold.Chemscore.DG>
-22.3085

> <Gold.Chemscore.ZeroCoef>
-5.4800

> <Gold.Chemscore.Hbond>
2.8074

> <Gold.Chemscore.Metal>
0.0000

> <Gold.Chemscore.Lipo>
92.1061

> <Gold.Chemscore.Internal_Hbond>
0.0000

> <Gold.Chemscore.DEClash>
3.1046

> <Gold.Chemscore.DEInternal>
1.7371

> <Gold.Chemscore.Rot>
1.2987

> <Gold.Chemscore.Internal.Correction>
   9.000000E+99

> <Gold.Chemscore.Hbonds>
donor molecule, donor type, donor heavy atom, donor atom, acceptor molecule, acceptor atom, score
      L1  H    10    32       P1  8029  0.99
      L1  H    13    33       P1  8029  0.56
      P1  H  6933  6944       L1    12  0.73

> <Gold.Chemscore.Hbond.Weighted>
-9.3766

> <Gold.Chemscore.Metal.Weighted>
-0.0000

> <Gold.Chemscore.Lipo.Weighted>
-10.7764

> <Gold.Chemscore.Internal_Hbond.Weighted>
0.0000

> <Gold.Chemscore.DEClash.Weighted>
3.1046

> <Gold.Chemscore.DEInternal.Weighted>
1.7371

> <Gold.Chemscore.Rot.Weighted>
3.3246

> <Gold.Chemscore.Internal.Correction.Weighted>
   9.000000E+99

> <Gold.Protein.RotatedTorsions>
[ 6907 6896 6895 6894 ] final -134.09 input  -60.11 | X-H torsion
[ 7974 7965 7964 7962 ] final -178.21 input  175.53 | X-H torsion
[ 8008 7997 7996 7995 ] final -102.84 input   59.86 | X-H torsion
[ 10167 10162 10161 10158 ] final -106.12 input  -65.29 | X-H torsion
[ 10718 10713 10712 10709 ] final -103.54 input   66.30 | X-H torsion
[ 10763 10752 10751 10750 ] final -114.01 input  -60.55 | X-H torsion
[ 11005 11000 10999 10996 ] final  120.34 input  -57.11 | X-H torsion

> <Gold.Protein.ActiveResidues>
 VAL166  LYS551  ARG553  GLY616  TRP617  ASP618  TYR619  PRO620  LYS621  CYS622 
 ASP623  PHE694  ASN695  SER759  ASP760  ASP761  ALA762  ILE779  LEU786  VAL792 
 PHE793  MET794  SER795  GLU796  ALA797  LYS798  CYS799  TRP800  GLU811  SER814 

> <Gold.Protein.RotatedAtoms>
  150.9817  133.6239  159.2721 H   0  0  0  0  0  0  0  0  0  0  0  0  # atno 6907 bound_to 6896
  151.3491  135.0879  159.9407 H   0  0  0  0  0  0  0  0  0  0  0  0  # atno 6908 bound_to 6896
  152.5217  133.9413  159.7682 H   0  0  0  0  0  0  0  0  0  0  0  0  # atno 6909 bound_to 6896
  144.7130  140.0903  143.6421 H   0  0  0  0  0  0  0  0  0  0  0  0  # atno 7974 bound_to 7965
  154.8624  140.0426  157.1673 H   0  0  0  0  0  0  0  0  0  0  0  0  # atno 8008 bound_to 7997
  154.8826  140.2975  155.5396 H   0  0  0  0  0  0  0  0  0  0  0  0  # atno 8009 bound_to 7997
  156.2998  140.2408  156.3831 H   0  0  0  0  0  0  0  0  0  0  0  0  # atno 8010 bound_to 7997
  140.1912  143.3891  152.1205 H   0  0  0  0  0  0  0  0  0  0  0  0  # atno 10167 bound_to 10162
  156.0269  130.5472  150.7267 H   0  0  0  0  0  0  0  0  0  0  0  0  # atno 10718 bound_to 10713
  154.8421  135.4433  154.1438 H   0  0  0  0  0  0  0  0  0  0  0  0  # atno 10763 bound_to 10752
  153.2617  135.6936  153.7578 H   0  0  0  0  0  0  0  0  0  0  0  0  # atno 10764 bound_to 10752
  153.6852  135.3396  155.3164 H   0  0  0  0  0  0  0  0  0  0  0  0  # atno 10765 bound_to 10752
  139.9181  134.9634  156.7791 H   0  0  0  0  0  0  0  0  0  0  0  0  # atno 11005 bound_to 11000
  145.9626  139.2811  143.1146 LP  0  0  0  0  0  0  0  0  0  0  0  0  # atno 17320 bound_to 7965
  145.9204  140.9119  143.0408 LP  0  0  0  0  0  0  0  0  0  0  0  0  # atno 17321 bound_to 7965
  139.5255  144.7097  151.5245 LP  0  0  0  0  0  0  0  0  0  0  0  0  # atno 17342 bound_to 10162
  140.6455  143.8804  150.6733 LP  0  0  0  0  0  0  0  0  0  0  0  0  # atno 17343 bound_to 10162
  157.4870  131.0907  151.0471 LP  0  0  0  0  0  0  0  0  0  0  0  0  # atno 17370 bound_to 10713
  157.0889  130.5934  149.5435 LP  0  0  0  0  0  0  0  0  0  0  0  0  # atno 17371 bound_to 10713
  140.6558  133.9690  155.7779 LP  0  0  0  0  0  0  0  0  0  0  0  0  # atno 17394 bound_to 11000
  141.0677  134.0252  157.3571 LP  0  0  0  0  0  0  0  0  0  0  0  0  # atno 17395 bound_to 11000

$$$$
