AV-unprocessed.smi:2473|AV-procd|sdf|9749|dock6
  -GOLD-   2272013393D 1   1.00000     0.00000
 Structure written by MMmdl.
 47 48  0  0  0  0  0  0  0  0  1 V2000
  153.0329  143.6549  162.9541 C   0  0  0  0  0  0  0  0  0  0  0  0
  152.4445  143.1109  161.6445 C   0  0  2  0  0  0  0  0  0  0  0  0
  153.1631  141.8245  161.2038 C   0  0  0  0  0  0  0  0  0  0  0  0
  152.5724  141.2660  159.8943 C   0  0  2  0  0  0  0  0  0  0  0  0
  153.3111  139.9878  159.4766 C   0  0  0  0  0  0  0  0  0  0  0  0
  153.8110  139.8992  158.3549 O   0  0  0  0  0  0  0  0  0  0  0  0
  153.3990  139.0182  160.4017 N   0  0  0  0  0  0  0  0  0  0  0  0
  154.1649  137.7819  160.2641 C   0  0  0  0  0  0  0  0  0  0  0  0
  154.0577  136.8878  161.5153 C   0  0  0  0  0  0  0  0  0  0  0  0
  154.6082  137.5166  162.7622 C   0  0  0  0  0  0  0  0  0  0  0  0
  155.1776  138.7178  162.7859 N   0  0  0  0  0  0  0  0  0  0  0  0
  155.5042  138.9307  164.1205 C   0  0  0  0  0  0  0  0  0  0  0  0
  155.1227  137.8397  164.8629 C   0  0  0  0  0  0  0  0  0  0  0  0
  154.5488  136.9367  163.9782 N   0  0  0  0  0  0  0  0  0  0  0  0
  154.0006  135.6400  164.3282 C   0  0  0  0  0  0  0  0  0  0  0  0
  152.6368  142.3351  158.7808 C   0  0  0  0  0  0  0  0  0  0  0  0
  151.9450  143.6676  159.1639 C   0  0  0  0  0  0  0  0  0  0  0  0
  152.2605  144.7189  158.0817 C   0  0  0  0  0  0  0  0  0  0  0  0
  150.4107  143.4985  159.2216 C   0  0  0  0  0  0  0  0  0  0  0  0
  152.5000  144.1678  160.5217 C   0  0  0  0  0  0  0  0  0  0  0  0
  154.0847  143.9177  162.8374 H   0  0  0  0  0  0  0  0  0  0  0  0
  152.9610  142.9164  163.7530 H   0  0  0  0  0  0  0  0  0  0  0  0
  152.5005  144.5478  163.2826 H   0  0  0  0  0  0  0  0  0  0  0  0
  151.4009  142.8659  161.8428 H   0  0  0  0  0  0  0  0  0  0  0  0
  154.2277  142.0299  161.0771 H   0  0  0  0  0  0  0  0  0  0  0  0
  153.0889  141.0761  161.9935 H   0  0  0  0  0  0  0  0  0  0  0  0
  151.5288  141.0048  160.0738 H   0  0  0  0  0  0  0  0  0  0  0  0
  152.9494  139.1758  161.2920 H   0  0  0  0  0  0  0  0  0  0  0  0
  153.7887  137.2410  159.3958 H   0  0  0  0  0  0  0  0  0  0  0  0
  155.2131  137.9996  160.0529 H   0  0  0  0  0  0  0  0  0  0  0  0
  153.0183  136.6022  161.6768 H   0  0  0  0  0  0  0  0  0  0  0  0
  154.5954  135.9560  161.3384 H   0  0  0  0  0  0  0  0  0  0  0  0
  155.9835  139.8440  164.4402 H   0  0  0  0  0  0  0  0  0  0  0  0
  155.2081  137.6378  165.9203 H   0  0  0  0  0  0  0  0  0  0  0  0
  154.0258  135.5008  165.4092 H   0  0  0  0  0  0  0  0  0  0  0  0
  154.5881  134.8517  163.8572 H   0  0  0  0  0  0  0  0  0  0  0  0
  152.9666  135.5681  163.9918 H   0  0  0  0  0  0  0  0  0  0  0  0
  153.6833  142.5375  158.5451 H   0  0  0  0  0  0  0  0  0  0  0  0
  152.1966  141.9410  157.8635 H   0  0  0  0  0  0  0  0  0  0  0  0
  151.7982  145.6792  158.3132 H   0  0  0  0  0  0  0  0  0  0  0  0
  151.8936  144.4052  157.1037 H   0  0  0  0  0  0  0  0  0  0  0  0
  153.3338  144.8884  157.9879 H   0  0  0  0  0  0  0  0  0  0  0  0
  149.9198  144.4410  159.4666 H   0  0  0  0  0  0  0  0  0  0  0  0
  150.0951  142.7705  159.9671 H   0  0  0  0  0  0  0  0  0  0  0  0
  150.0154  143.1664  158.2612 H   0  0  0  0  0  0  0  0  0  0  0  0
  151.9615  145.0639  160.8334 H   0  0  0  0  0  0  0  0  0  0  0  0
  153.5385  144.4759  160.3908 H   0  0  0  0  0  0  0  0  0  0  0  0
  1  2  1  0  0  0  0
  1 21  1  0  0  0  0
  1 22  1  0  0  0  0
  1 23  1  0  0  0  0
  2 20  1  0  0  0  0
  2  3  1  0  0  0  0
  2 24  1  0  0  0  0
  3  4  1  0  0  0  0
  3 25  1  0  0  0  0
  3 26  1  0  0  0  0
  4  5  1  0  0  0  0
  4 16  1  0  0  0  0
  4 27  1  0  0  0  0
  5  6  2  0  0  0  0
  5  7  1  0  0  0  0
  7  8  1  0  0  0  0
  7 28  1  0  0  0  0
  8  9  1  0  0  0  0
  8 29  1  0  0  0  0
  8 30  1  0  0  0  0
  9 10  1  0  0  0  0
  9 31  1  0  0  0  0
  9 32  1  0  0  0  0
 10 14  1  0  0  0  0
 10 11  2  0  0  0  0
 11 12  1  0  0  0  0
 12 13  2  0  0  0  0
 12 33  1  0  0  0  0
 13 14  1  0  0  0  0
 13 34  1  0  0  0  0
 14 15  1  0  0  0  0
 15 35  1  0  0  0  0
 15 36  1  0  0  0  0
 15 37  1  0  0  0  0
 16 17  1  0  0  0  0
 16 38  1  0  0  0  0
 16 39  1  0  0  0  0
 17 18  1  0  0  0  0
 17 19  1  0  0  0  0
 17 20  1  0  0  0  0
 18 40  1  0  0  0  0
 18 41  1  0  0  0  0
 18 42  1  0  0  0  0
 19 43  1  0  0  0  0
 19 44  1  0  0  0  0
 19 45  1  0  0  0  0
 20 46  1  0  0  0  0
 20 47  1  0  0  0  0
M  END
> <s_m_source_file>
AV-unprocessed.smi

> <i_m_source_file_index>
2473

> <i_lp_mmshare_version>
43012

> <i_f3d_flags>
0

> <s_epik_input>
W0NIM11bQ0BASF0oW0NIMl0xKVtDSDJdW0NASF0oW0NIMl1DMShbQ0gzXSlbQ0gzXSlDKD1PKVtOSF1bQ0gyXVtDSDJdYzJuW2NIXVtjSF1uMltDSDNd

> <s_epik_cmdline>
J2VwaWtfcHl0aG9uJywgJy1waCcsICc3LjAnLCAnLXRuJywgJzgnLCAnLW1hJywgJzIwMCcsICctbWV0YWxfYmluZGluZycsICctaW1hZScsICc8aW5maWxlLm1hZT4nLCAnLW9tYWUnLCAnPG91dGZpbGUubWFlPic=

> <r_lp_tautomer_probability>
1

> <r_epik_Ionization_Penalty>
1.22858

> <r_epik_Ionization_Penalty_Charging>
1.22858

> <r_epik_Ionization_Penalty_Neutral>
2.12671e-08

> <r_epik_State_Penalty>
1.2965

> <r_epik_Charging_Adjusted_Penalty>
2.52508

> <i_epik_Tot_Q>
0

> <i_epik_Tot_abs_Q>
0

> <r_epik_Metal_State_Penalty>
0.411461

> <b_epik_Metal_Only>
0

> <s_lp_Force_Field>
OPLS_2005

> <r_lp_Energy>
12.8127

> <b_lp_Chiralities_Consistent>
1

> <s_lp_Variant>
AV-unprocessed.smi:2473-7

> <Gold.Version>
5.8.1

> <Gold.Id.Protein>
6NUR|6NUR_protein|mol2

> <Gold.PLP.Fitness>
51.0292

> <Gold.PLP.PLP>
-48.1380

> <Gold.PLP.part.hbond>
-0.8094

> <Gold.PLP.part.metal>
0.0000

> <Gold.PLP.part.buried>
-3.7140

> <Gold.PLP.part.nonpolar>
-42.4153

> <Gold.PLP.part.repulsive>
0.0584

> <Gold.PLP.ligand.clash>
0.0000

> <Gold.PLP.ligand.torsion>
0.0624

> <Gold.PLP.Chemscore.Hbond>
1.0000

> <Gold.PLP.Chemscore.CHOScore>
0.0000

> <Gold.PLP.Chemscore.Metal>
0.0000

> <Gold.Chemscore.Hbonds>
donor molecule, donor type, donor heavy atom, donor atom, acceptor molecule, acceptor atom, score
      P1  H  7997  8010       L1     6  1.00

> <Gold.PLP.Chemscore.Internal.Correction>
0.0160

> <Gold.Rescore>
     Score         DG    S(hbond)    S(metal)    S(lipo)     H(rot)  DE(clash)    DE(int)     intcor
     18.95     -19.23       0.99        0.00     122.40       1.51       0.18       0.11       ----

> <Gold.Chemscore.Fitness>
18.9472

> <Gold.Chemscore.DG>
-19.2337

> <Gold.Chemscore.ZeroCoef>
-5.4800

> <Gold.Chemscore.Hbond>
0.9885

> <Gold.Chemscore.Metal>
0.0000

> <Gold.Chemscore.Lipo>
122.3951

> <Gold.Chemscore.Internal_Hbond>
0.0000

> <Gold.Chemscore.DEClash>
0.1813

> <Gold.Chemscore.DEInternal>
0.1053

> <Gold.Chemscore.Rot>
1.5109

> <Gold.Chemscore.Internal.Correction>
   9.000000E+99

> <Gold.Chemscore.Hbonds>
donor molecule, donor type, donor heavy atom, donor atom, acceptor molecule, acceptor atom, score
      P1  H  7997  8010       L1     6  0.90

> <Gold.Chemscore.Hbond.Weighted>
-3.3015

> <Gold.Chemscore.Metal.Weighted>
-0.0000

> <Gold.Chemscore.Lipo.Weighted>
-14.3202

> <Gold.Chemscore.Internal_Hbond.Weighted>
0.0000

> <Gold.Chemscore.DEClash.Weighted>
0.1813

> <Gold.Chemscore.DEInternal.Weighted>
0.1053

> <Gold.Chemscore.Rot.Weighted>
3.8680

> <Gold.Chemscore.Internal.Correction.Weighted>
   9.000000E+99

> <Gold.Protein.RotatedTorsions>
[ 6907 6896 6895 6894 ] final  124.61 input  -60.11 | X-H torsion
[ 7974 7965 7964 7962 ] final  -98.20 input  175.53 | X-H torsion
[ 8008 7997 7996 7995 ] final   35.12 input   59.86 | X-H torsion
[ 10167 10162 10161 10158 ] final  -51.01 input  -65.29 | X-H torsion
[ 10718 10713 10712 10709 ] final  -17.76 input   66.30 | X-H torsion
[ 10763 10752 10751 10750 ] final   64.01 input  -60.55 | X-H torsion
[ 11005 11000 10999 10996 ] final -175.49 input  -57.11 | X-H torsion

> <Gold.Protein.ActiveResidues>
 VAL166  LYS551  ARG553  GLY616  TRP617  ASP618  TYR619  PRO620  LYS621  CYS622 
 ASP623  PHE694  ASN695  SER759  ASP760  ASP761  ALA762  ILE779  LEU786  VAL792 
 PHE793  MET794  SER795  GLU796  ALA797  LYS798  CYS799  TRP800  GLU811  SER814 

> <Gold.Protein.RotatedAtoms>
  152.4063  133.6894  159.6358 H   0  0  0  0  0  0  0  0  0  0  0  0  # atno 6907 bound_to 6896
  150.7948  133.8703  159.3265 H   0  0  0  0  0  0  0  0  0  0  0  0  # atno 6908 bound_to 6896
  151.6457  135.1009  160.0202 H   0  0  0  0  0  0  0  0  0  0  0  0  # atno 6909 bound_to 6896
  145.3238  140.9427  143.2700 H   0  0  0  0  0  0  0  0  0  0  0  0  # atno 7974 bound_to 7965
  155.1660  140.3287  155.4402 H   0  0  0  0  0  0  0  0  0  0  0  0  # atno 8008 bound_to 7997
  156.2526  140.1952  156.6715 H   0  0  0  0  0  0  0  0  0  0  0  0  # atno 8009 bound_to 7997
  154.6371  140.0575  156.9788 H   0  0  0  0  0  0  0  0  0  0  0  0  # atno 8010 bound_to 7997
  140.6610  143.2636  151.4441 H   0  0  0  0  0  0  0  0  0  0  0  0  # atno 10167 bound_to 10162
  156.5690  130.4745  149.6371 H   0  0  0  0  0  0  0  0  0  0  0  0  # atno 10718 bound_to 10713
  153.0039  135.5408  154.6442 H   0  0  0  0  0  0  0  0  0  0  0  0  # atno 10763 bound_to 10752
  154.5690  135.2840  155.0848 H   0  0  0  0  0  0  0  0  0  0  0  0  # atno 10764 bound_to 10752
  154.2021  135.6482  153.5143 H   0  0  0  0  0  0  0  0  0  0  0  0  # atno 10765 bound_to 10752
  140.4627  134.6239  157.4849 H   0  0  0  0  0  0  0  0  0  0  0  0  # atno 11005 bound_to 11000
  144.8918  139.4764  143.6674 LP  0  0  0  0  0  0  0  0  0  0  0  0  # atno 17320 bound_to 7965
  146.3072  139.7621  142.9047 LP  0  0  0  0  0  0  0  0  0  0  0  0  # atno 17321 bound_to 7965
  139.5843  144.1638  152.2009 LP  0  0  0  0  0  0  0  0  0  0  0  0  # atno 17342 bound_to 10162
  140.0973  144.5569  150.7013 LP  0  0  0  0  0  0  0  0  0  0  0  0  # atno 17343 bound_to 10162
  156.2731  130.7028  151.1831 LP  0  0  0  0  0  0  0  0  0  0  0  0  # atno 17370 bound_to 10713
  157.7352  131.0574  150.5482 LP  0  0  0  0  0  0  0  0  0  0  0  0  # atno 17371 bound_to 10713
  139.9935  134.6948  155.9649 LP  0  0  0  0  0  0  0  0  0  0  0  0  # atno 17394 bound_to 11000
  141.1613  133.6539  156.4330 LP  0  0  0  0  0  0  0  0  0  0  0  0  # atno 17395 bound_to 11000

$$$$
