AV-unprocessed.smi:2239|AV-procd|sdf|9056|dock4
  -GOLD-   2272012263D 1   1.00000     0.00000
 Structure written by MMmdl.
 33 34  0  0  0  0  0  0  0  0  1 V2000
  153.6789  141.5957  160.7184 C   0  0  0  0  0  0  0  0  0  0  0  0
  152.7075  142.6534  160.2381 C   0  0  0  0  0  0  0  0  0  0  0  0
  152.4724  143.8191  160.9930 C   0  0  0  0  0  0  0  0  0  0  0  0
  151.5545  144.7592  160.4914 C   0  0  0  0  0  0  0  0  0  0  0  0
  150.9142  144.4970  159.2647 C   0  0  0  0  0  0  0  0  0  0  0  0
  151.2069  143.3022  158.5694 C   0  0  0  0  0  0  0  0  0  0  0  0
  150.5069  143.1295  157.3456 N   0  0  0  0  0  0  0  0  0  0  0  0
  150.4137  142.0196  156.5920 C   0  0  0  0  0  0  0  0  0  0  0  0
  150.9574  140.9424  156.8386 O   0  0  0  0  0  0  0  0  0  0  0  0
  149.6398  142.2263  155.5167 N   0  0  0  0  0  0  0  0  0  0  0  0
  149.3231  141.2212  154.5067 C   0  0  0  0  0  0  0  0  0  0  0  0
  148.3266  141.7361  153.4518 C   0  0  0  0  0  0  0  0  0  0  0  0
  146.8873  141.7431  153.9345 C   0  0  0  0  0  0  0  0  0  0  0  0
  145.9719  142.9146  153.6631 C   0  0  0  0  0  0  0  0  0  0  0  0
  146.4601  142.6457  155.0674 C   0  0  0  0  0  0  0  0  0  0  0  0
  152.0935  142.4017  159.0621 N   0  0  0  0  0  0  0  0  0  0  0  0
  154.2441  141.9423  161.5841 H   0  0  0  0  0  0  0  0  0  0  0  0
  154.3879  141.3420  159.9297 H   0  0  0  0  0  0  0  0  0  0  0  0
  153.1409  140.6908  161.0017 H   0  0  0  0  0  0  0  0  0  0  0  0
  152.9791  143.9905  161.9314 H   0  0  0  0  0  0  0  0  0  0  0  0
  151.3440  145.6666  161.0379 H   0  0  0  0  0  0  0  0  0  0  0  0
  150.2065  145.2091  158.8657 H   0  0  0  0  0  0  0  0  0  0  0  0
  150.0140  143.9432  157.0092 H   0  0  0  0  0  0  0  0  0  0  0  0
  149.2337  143.1418  155.3900 H   0  0  0  0  0  0  0  0  0  0  0  0
  150.2525  140.9222  154.0217 H   0  0  0  0  0  0  0  0  0  0  0  0
  148.9280  140.3259  154.9892 H   0  0  0  0  0  0  0  0  0  0  0  0
  148.5953  142.7547  153.1709 H   0  0  0  0  0  0  0  0  0  0  0  0
  148.3995  141.1397  152.5415 H   0  0  0  0  0  0  0  0  0  0  0  0
  146.4193  140.7607  153.9170 H   0  0  0  0  0  0  0  0  0  0  0  0
  146.3882  143.7759  153.1441 H   0  0  0  0  0  0  0  0  0  0  0  0
  144.9296  142.6954  153.4413 H   0  0  0  0  0  0  0  0  0  0  0  0
  145.7422  142.2489  155.7825 H   0  0  0  0  0  0  0  0  0  0  0  0
  147.1988  143.3303  155.4794 H   0  0  0  0  0  0  0  0  0  0  0  0
  1  2  1  0  0  0  0
  1 17  1  0  0  0  0
  1 18  1  0  0  0  0
  1 19  1  0  0  0  0
  2 16  1  0  0  0  0
  2  3  2  0  0  0  0
  3  4  1  0  0  0  0
  3 20  1  0  0  0  0
  4  5  2  0  0  0  0
  4 21  1  0  0  0  0
  5  6  1  0  0  0  0
  5 22  1  0  0  0  0
  6  7  1  0  0  0  0
  6 16  2  0  0  0  0
  7  8  1  0  0  0  0
  7 23  1  0  0  0  0
  8  9  2  0  0  0  0
  8 10  1  0  0  0  0
 10 11  1  0  0  0  0
 10 24  1  0  0  0  0
 11 12  1  0  0  0  0
 11 25  1  0  0  0  0
 11 26  1  0  0  0  0
 12 13  1  0  0  0  0
 12 27  1  0  0  0  0
 12 28  1  0  0  0  0
 13 15  1  0  0  0  0
 13 14  1  0  0  0  0
 13 29  1  0  0  0  0
 14 15  1  0  0  0  0
 14 30  1  0  0  0  0
 14 31  1  0  0  0  0
 15 32  1  0  0  0  0
 15 33  1  0  0  0  0
M  END
> <s_m_source_file>
AV-unprocessed.smi

> <i_m_source_file_index>
2239

> <i_lp_mmshare_version>
43012

> <i_f3d_flags>
0

> <s_epik_input>
W0NIM11jMVtjSF1bY0hdW2NIXWMobjEpW05IXUMoPU8pW05IXVtDSDJdW0NIMl1bQ0hdMltDSDJdW0NIMl0y

> <s_epik_cmdline>
J2VwaWtfcHl0aG9uJywgJy1waCcsICc3LjAnLCAnLXRuJywgJzgnLCAnLW1hJywgJzIwMCcsICctbWV0YWxfYmluZGluZycsICctaW1hZScsICc8aW5maWxlLm1hZT4nLCAnLW9tYWUnLCAnPG91dGZpbGUubWFlPic=

> <r_lp_tautomer_probability>
1

> <r_epik_Ionization_Penalty>
8.79162e-05

> <r_epik_Ionization_Penalty_Charging>
0

> <r_epik_Ionization_Penalty_Neutral>
8.79162e-05

> <r_epik_State_Penalty>
-0

> <r_epik_Charging_Adjusted_Penalty>
0

> <i_epik_Tot_Q>
0

> <i_epik_Tot_abs_Q>
0

> <r_epik_Metal_State_Penalty>
-0

> <b_epik_Metal_Only>
0

> <s_lp_Force_Field>
OPLS_2005

> <r_lp_Energy>
14.6393

> <b_lp_Chiralities_Consistent>
1

> <s_lp_Variant>
AV-unprocessed.smi:2239-1

> <Gold.Version>
5.8.1

> <Gold.Id.Protein>
6NUR|6NUR_protein|mol2

> <Gold.PLP.Fitness>
45.1191

> <Gold.PLP.PLP>
-39.4646

> <Gold.PLP.part.hbond>
-2.0000

> <Gold.PLP.part.metal>
0.0000

> <Gold.PLP.part.buried>
-5.4928

> <Gold.PLP.part.nonpolar>
-32.3069

> <Gold.PLP.part.repulsive>
0.1757

> <Gold.PLP.ligand.clash>
0.0000

> <Gold.PLP.ligand.torsion>
0.4383

> <Gold.PLP.Chemscore.Hbond>
1.9920

> <Gold.PLP.Chemscore.CHOScore>
0.0000

> <Gold.PLP.Chemscore.Metal>
0.0000

> <Gold.Chemscore.Hbonds>
donor molecule, donor type, donor heavy atom, donor atom, acceptor molecule, acceptor atom, score
      L1  H     7    23       P1  8028  0.98
      L1  H    10    24       P1  8028  1.00

> <Gold.PLP.Chemscore.Internal.Correction>
0.5550

> <Gold.Rescore>
     Score         DG    S(hbond)    S(metal)    S(lipo)     H(rot)  DE(clash)    DE(int)     intcor
     17.18     -18.99       1.94        0.00      90.16       1.37       0.08       1.73       ----

> <Gold.Chemscore.Fitness>
17.1789

> <Gold.Chemscore.DG>
-18.9913

> <Gold.Chemscore.ZeroCoef>
-5.4800

> <Gold.Chemscore.Hbond>
1.9357

> <Gold.Chemscore.Metal>
0.0000

> <Gold.Chemscore.Lipo>
90.1605

> <Gold.Chemscore.Internal_Hbond>
0.0000

> <Gold.Chemscore.DEClash>
0.0844

> <Gold.Chemscore.DEInternal>
1.7280

> <Gold.Chemscore.Rot>
1.3682

> <Gold.Chemscore.Internal.Correction>
   9.000000E+99

> <Gold.Chemscore.Hbonds>
donor molecule, donor type, donor heavy atom, donor atom, acceptor molecule, acceptor atom, score
      L1  H     7    23       P1  8028  0.88
      L1  H    10    24       P1  8028  0.99

> <Gold.Chemscore.Hbond.Weighted>
-6.4651

> <Gold.Chemscore.Metal.Weighted>
-0.0000

> <Gold.Chemscore.Lipo.Weighted>
-10.5488

> <Gold.Chemscore.Internal_Hbond.Weighted>
0.0000

> <Gold.Chemscore.DEClash.Weighted>
0.0844

> <Gold.Chemscore.DEInternal.Weighted>
1.7280

> <Gold.Chemscore.Rot.Weighted>
3.5027

> <Gold.Chemscore.Internal.Correction.Weighted>
   9.000000E+99

> <Gold.Protein.RotatedTorsions>
[ 6907 6896 6895 6894 ] final   82.08 input  -60.11 | X-H torsion
[ 7974 7965 7964 7962 ] final -168.12 input  175.53 | X-H torsion
[ 8008 7997 7996 7995 ] final -128.21 input   59.86 | X-H torsion
[ 10167 10162 10161 10158 ] final -137.43 input  -65.29 | X-H torsion
[ 10718 10713 10712 10709 ] final  -56.93 input   66.30 | X-H torsion
[ 10763 10752 10751 10750 ] final -172.01 input  -60.55 | X-H torsion
[ 11005 11000 10999 10996 ] final  109.21 input  -57.11 | X-H torsion

> <Gold.Protein.ActiveResidues>
 VAL166  LYS551  ARG553  GLY616  TRP617  ASP618  TYR619  PRO620  LYS621  CYS622 
 ASP623  PHE694  ASN695  SER759  ASP760  ASP761  ALA762  ILE779  LEU786  VAL792 
 PHE793  MET794  SER795  GLU796  ALA797  LYS798  CYS799  TRP800  GLU811  SER814 

> <Gold.Protein.RotatedAtoms>
  152.5288  134.3105  159.9111 H   0  0  0  0  0  0  0  0  0  0  0  0  # atno 6907 bound_to 6896
  151.3054  133.4097  159.2650 H   0  0  0  0  0  0  0  0  0  0  0  0  # atno 6908 bound_to 6896
  151.0083  134.9393  159.8050 H   0  0  0  0  0  0  0  0  0  0  0  0  # atno 6909 bound_to 6896
  144.7209  140.2417  143.6290 H   0  0  0  0  0  0  0  0  0  0  0  0  # atno 7974 bound_to 7965
  155.2589  140.0435  157.2995 H   0  0  0  0  0  0  0  0  0  0  0  0  # atno 8008 bound_to 7997
  154.5723  140.2377  155.8143 H   0  0  0  0  0  0  0  0  0  0  0  0  # atno 8009 bound_to 7997
  156.2132  140.2992  155.9787 H   0  0  0  0  0  0  0  0  0  0  0  0  # atno 8010 bound_to 7997
  139.8579  143.7115  152.2652 H   0  0  0  0  0  0  0  0  0  0  0  0  # atno 10167 bound_to 10162
  156.1250  130.4163  150.0371 H   0  0  0  0  0  0  0  0  0  0  0  0  # atno 10718 bound_to 10713
  154.6241  135.2878  155.0293 H   0  0  0  0  0  0  0  0  0  0  0  0  # atno 10763 bound_to 10752
  154.1477  135.6508  153.4960 H   0  0  0  0  0  0  0  0  0  0  0  0  # atno 10764 bound_to 10752
  153.0249  135.5348  154.7042 H   0  0  0  0  0  0  0  0  0  0  0  0  # atno 10765 bound_to 10752
  139.8858  134.9452  156.6091 H   0  0  0  0  0  0  0  0  0  0  0  0  # atno 11005 bound_to 11000
  145.8313  139.2087  143.1881 LP  0  0  0  0  0  0  0  0  0  0  0  0  # atno 17320 bound_to 7965
  146.0428  140.8148  142.9820 LP  0  0  0  0  0  0  0  0  0  0  0  0  # atno 17321 bound_to 7965
  139.7402  144.7561  151.0664 LP  0  0  0  0  0  0  0  0  0  0  0  0  # atno 17342 bound_to 10162
  140.7779  143.4981  150.9806 LP  0  0  0  0  0  0  0  0  0  0  0  0  # atno 17343 bound_to 10162
  156.8299  130.9388  151.3637 LP  0  0  0  0  0  0  0  0  0  0  0  0  # atno 17370 bound_to 10713
  157.6432  130.8823  149.9488 LP  0  0  0  0  0  0  0  0  0  0  0  0  # atno 17371 bound_to 10713
  140.7825  133.8648  155.8579 LP  0  0  0  0  0  0  0  0  0  0  0  0  # atno 17394 bound_to 11000
  140.9748  134.1484  157.4546 LP  0  0  0  0  0  0  0  0  0  0  0  0  # atno 17395 bound_to 11000

$$$$
