AV-unprocessed.smi:2886|AV-procd|sdf|11097|dock10
  -GOLD-   2272015563D 1   1.00000     0.00000
 Structure written by MMmdl.
 27 29  0  0  0  0  0  0  0  0  2 V2000
  152.5549  137.0162  156.0308 O   0  0  0  0  0  0  0  0  0  0  0  0
  151.9934  138.1059  155.9318 C   0  0  0  0  0  0  0  0  0  0  0  0
  151.3609  138.4973  154.7841 N   0  5  0  0  0  0  0  0  0  0  0  0
  150.7050  139.7844  154.7193 N   0  0  0  0  0  0  0  0  0  0  0  0
  150.7119  140.5763  155.7177 C   0  0  0  0  0  0  0  0  0  0  0  0
  151.3876  140.2391  156.9948 C   0  0  0  0  0  0  0  0  0  0  0  0
  151.3946  141.1016  158.0837 N   0  0  0  0  0  0  0  0  0  0  0  0
  150.7893  142.4210  158.2032 C   0  0  2  0  0  0  0  0  0  0  0  0
  151.2219  143.3820  157.0947 C   0  0  0  0  0  0  0  0  0  0  0  0
  151.7349  144.5798  157.9071 C   0  0  2  0  0  0  0  0  0  0  0  0
  153.1024  144.2877  158.5379 C   0  0  0  0  0  0  0  0  0  0  0  0
  152.7293  143.3070  159.6481 C   0  0  0  0  0  0  0  0  0  0  0  0
  151.2063  143.1880  159.4699 C   0  0  1  0  0  0  0  0  0  0  0  0
  150.9032  144.5094  159.0543 O   0  0  0  0  0  0  0  0  0  0  0  0
  151.9956  139.0283  157.0739 C   0  0  0  0  0  0  0  0  0  0  0  0
  152.8001  138.5374  158.5291 Cl  0  0  0  0  0  0  0  0  0  0  0  0
  150.2091  141.5450  155.6742 H   0  0  0  0  0  0  0  0  0  0  0  0
  152.0020  140.8466  158.8491 H   0  0  0  0  0  0  0  0  0  0  0  0
  149.7029  142.3394  158.1712 H   0  0  0  0  0  0  0  0  0  0  0  0
  151.9905  142.9757  156.4355 H   0  0  0  0  0  0  0  0  0  0  0  0
  150.3647  143.6631  156.4821 H   0  0  0  0  0  0  0  0  0  0  0  0
  151.6884  145.5294  157.3734 H   0  0  0  0  0  0  0  0  0  0  0  0
  153.8102  143.8687  157.8220 H   0  0  0  0  0  0  0  0  0  0  0  0
  153.5380  145.1941  158.9597 H   0  0  0  0  0  0  0  0  0  0  0  0
  153.2460  142.3505  159.5641 H   0  0  0  0  0  0  0  0  0  0  0  0
  152.9681  143.7320  160.6236 H   0  0  0  0  0  0  0  0  0  0  0  0
  150.6799  142.8691  160.3699 H   0  0  0  0  0  0  0  0  0  0  0  0
  1  2  2  0  0  0  0
  2 15  1  0  0  0  0
  2  3  1  0  0  0  0
  3  4  1  0  0  0  0
  4  5  2  0  0  0  0
  5  6  1  0  0  0  0
  5 17  1  0  0  0  0
  6  7  1  0  0  0  0
  6 15  2  0  0  0  0
  7  8  1  0  0  0  0
  7 18  1  0  0  0  0
  8 13  1  0  0  0  0
  8  9  1  0  0  0  0
  8 19  1  0  0  0  0
  9 10  1  0  0  0  0
  9 20  1  0  0  0  0
  9 21  1  0  0  0  0
 10 14  1  0  0  0  0
 10 11  1  0  0  0  0
 10 22  1  0  0  0  0
 11 12  1  0  0  0  0
 11 23  1  0  0  0  0
 11 24  1  0  0  0  0
 12 13  1  0  0  0  0
 12 25  1  0  0  0  0
 12 26  1  0  0  0  0
 13 14  1  0  0  0  0
 13 27  1  0  0  0  0
 15 16  1  0  0  0  0
M  CHG  1   3  -1
M  END
> <s_m_source_file>
AV-unprocessed.smi

> <i_m_source_file_index>
2886

> <i_lp_mmshare_version>
43012

> <i_f3d_flags>
0

> <s_epik_input>
Tz1jMVtuSF1uW2NIXWMoYzFDbClbTkhdW0NASF0oW0NIMl1bQ0BASF0yMylbQ0BASF0oTzMpW0NIMl1bQ0gyXTI=

> <s_epik_cmdline>
J2VwaWtfcHl0aG9uJywgJy1waCcsICc3LjAnLCAnLXRuJywgJzgnLCAnLW1hJywgJzIwMCcsICctbWV0YWxfYmluZGluZycsICctaW1hZScsICc8aW5maWxlLm1hZT4nLCAnLW9tYWUnLCAnPG91dGZpbGUubWFlPic=

> <r_lp_tautomer_probability>
0.986175

> <r_epik_Ionization_Penalty>
3.84253

> <r_epik_Ionization_Penalty_Charging>
0.0129711

> <r_epik_Ionization_Penalty_Neutral>
3.82956

> <r_epik_State_Penalty>
3.8249

> <r_epik_Charging_Adjusted_Penalty>
3.83787

> <i_epik_Tot_Q>
-1

> <i_epik_Tot_abs_Q>
1

> <r_epik_Metal_State_Penalty>
0.57612

> <b_epik_Metal_Only>
1

> <s_lp_Force_Field>
OPLS_2005

> <r_lp_Energy>
60.9826

> <b_lp_Chiralities_Consistent>
1

> <s_lp_Variant>
AV-unprocessed.smi:2886-11

> <Gold.Version>
5.8.1

> <Gold.Id.Protein>
6NUR|6NUR_protein|mol2

> <Gold.PLP.Fitness>
34.0933

> <Gold.PLP.PLP>
-29.1508

> <Gold.PLP.part.hbond>
-2.0000

> <Gold.PLP.part.metal>
0.0000

> <Gold.PLP.part.buried>
-3.4869

> <Gold.PLP.part.nonpolar>
-23.2237

> <Gold.PLP.part.repulsive>
0.4065

> <Gold.PLP.ligand.clash>
0.0000

> <Gold.PLP.ligand.torsion>
0.0653

> <Gold.PLP.Chemscore.Hbond>
1.6880

> <Gold.PLP.Chemscore.CHOScore>
0.0000

> <Gold.PLP.Chemscore.Metal>
0.0000

> <Gold.Chemscore.Hbonds>
donor molecule, donor type, donor heavy atom, donor atom, acceptor molecule, acceptor atom, score
      P1  H  7989  7998       L1     4  0.95
      P1  H 10752 10763       L1     1  0.83

> <Gold.PLP.Chemscore.Internal.Correction>
0.0091

> <Gold.Rescore>
     Score         DG    S(hbond)    S(metal)    S(lipo)     H(rot)  DE(clash)    DE(int)     intcor
     17.16     -17.39       1.11        0.00      91.88       1.00       0.16       0.07       ----

> <Gold.Chemscore.Fitness>
17.1564

> <Gold.Chemscore.DG>
-17.3880

> <Gold.Chemscore.ZeroCoef>
-5.4800

> <Gold.Chemscore.Hbond>
1.1132

> <Gold.Chemscore.Metal>
0.0000

> <Gold.Chemscore.Lipo>
91.8804

> <Gold.Chemscore.Internal_Hbond>
0.0000

> <Gold.Chemscore.DEClash>
0.1590

> <Gold.Chemscore.DEInternal>
0.0726

> <Gold.Chemscore.Rot>
1.0000

> <Gold.Chemscore.Internal.Correction>
   9.000000E+99

> <Gold.Chemscore.Hbonds>
donor molecule, donor type, donor heavy atom, donor atom, acceptor molecule, acceptor atom, score
      P1  H  7989  7998       L1     4  0.15
      P1  H 10752 10763       L1     1  0.83

> <Gold.Chemscore.Hbond.Weighted>
-3.7180

> <Gold.Chemscore.Metal.Weighted>
-0.0000

> <Gold.Chemscore.Lipo.Weighted>
-10.7500

> <Gold.Chemscore.Internal_Hbond.Weighted>
0.0000

> <Gold.Chemscore.DEClash.Weighted>
0.1590

> <Gold.Chemscore.DEInternal.Weighted>
0.0726

> <Gold.Chemscore.Rot.Weighted>
2.5600

> <Gold.Chemscore.Internal.Correction.Weighted>
   9.000000E+99

> <Gold.Protein.RotatedTorsions>
[ 6907 6896 6895 6894 ] final   89.86 input  -60.11 | X-H torsion
[ 7974 7965 7964 7962 ] final   40.01 input  175.53 | X-H torsion
[ 8008 7997 7996 7995 ] final  -57.57 input   59.86 | X-H torsion
[ 10167 10162 10161 10158 ] final  -36.46 input  -65.29 | X-H torsion
[ 10718 10713 10712 10709 ] final  162.98 input   66.30 | X-H torsion
[ 10763 10752 10751 10750 ] final   94.46 input  -60.55 | X-H torsion
[ 11005 11000 10999 10996 ] final  126.05 input  -57.11 | X-H torsion

> <Gold.Protein.ActiveResidues>
 VAL166  LYS551  ARG553  GLY616  TRP617  ASP618  TYR619  PRO620  LYS621  CYS622 
 ASP623  PHE694  ASN695  SER759  ASP760  ASP761  ALA762  ILE779  LEU786  VAL792 
 PHE793  MET794  SER795  GLU796  ALA797  LYS798  CYS799  TRP800  GLU811  SER814 

> <Gold.Protein.RotatedAtoms>
  152.5440  134.1902  159.8670 H   0  0  0  0  0  0  0  0  0  0  0  0  # atno 6907 bound_to 6896
  151.1898  133.4667  159.2602 H   0  0  0  0  0  0  0  0  0  0  0  0  # atno 6908 bound_to 6896
  151.1095  135.0030  159.8542 H   0  0  0  0  0  0  0  0  0  0  0  0  # atno 6909 bound_to 6896
  146.0939  139.5584  142.9458 H   0  0  0  0  0  0  0  0  0  0  0  0  # atno 7974 bound_to 7965
  154.4273  140.1104  156.5819 H   0  0  0  0  0  0  0  0  0  0  0  0  # atno 8008 bound_to 7997
  155.6103  140.3494  155.4601 H   0  0  0  0  0  0  0  0  0  0  0  0  # atno 8009 bound_to 7997
  156.0104  140.1218  157.0449 H   0  0  0  0  0  0  0  0  0  0  0  0  # atno 8010 bound_to 7997
  140.7142  143.3407  151.2363 H   0  0  0  0  0  0  0  0  0  0  0  0  # atno 10167 bound_to 10162
  157.1149  131.0477  151.2441 H   0  0  0  0  0  0  0  0  0  0  0  0  # atno 10718 bound_to 10713
  153.2419  135.4289  155.0707 H   0  0  0  0  0  0  0  0  0  0  0  0  # atno 10763 bound_to 10752
  154.8344  135.3405  154.6636 H   0  0  0  0  0  0  0  0  0  0  0  0  # atno 10764 bound_to 10752
  153.7060  135.7025  153.5107 H   0  0  0  0  0  0  0  0  0  0  0  0  # atno 10765 bound_to 10752
  139.9437  134.9632  156.8650 H   0  0  0  0  0  0  0  0  0  0  0  0  # atno 11005 bound_to 11000
  145.5986  141.0359  143.2031 LP  0  0  0  0  0  0  0  0  0  0  0  0  # atno 17320 bound_to 7965
  144.7381  139.7528  143.7321 LP  0  0  0  0  0  0  0  0  0  0  0  0  # atno 17321 bound_to 7965
  139.6914  143.9685  152.2861 LP  0  0  0  0  0  0  0  0  0  0  0  0  # atno 17342 bound_to 10162
  139.9348  144.6719  150.8326 LP  0  0  0  0  0  0  0  0  0  0  0  0  # atno 17343 bound_to 10162
  157.4527  130.7607  149.7165 LP  0  0  0  0  0  0  0  0  0  0  0  0  # atno 17370 bound_to 10713
  155.9842  130.3994  150.3325 LP  0  0  0  0  0  0  0  0  0  0  0  0  # atno 17371 bound_to 10713
  140.5888  134.0282  155.7491 LP  0  0  0  0  0  0  0  0  0  0  0  0  # atno 17394 bound_to 11000
  141.1080  133.9662  157.2961 LP  0  0  0  0  0  0  0  0  0  0  0  0  # atno 17395 bound_to 11000

$$$$
