AV-unprocessed.smi:69|AV-procd|sdf|650|dock9
  -GOLD-   2262016543D 1   1.00000     0.00000
 Structure written by MMmdl.
 32 34  0  0  0  0  0  0  0  0  1 V2000
  150.3329  130.7971  156.1316 N   0  0  0  0  0  0  0  0  0  0  0  0
  149.8556  131.7425  155.3107 C   0  0  0  0  0  0  0  0  0  0  0  0
  150.3392  133.0019  155.4282 N   0  0  0  0  0  0  0  0  0  0  0  0
  149.8763  133.9639  154.6223 C   0  0  0  0  0  0  0  0  0  0  0  0
  148.9548  133.8767  153.6585 N   0  0  0  0  0  0  0  0  0  0  0  0
  148.4728  132.6047  153.5427 C   0  0  0  0  0  0  0  0  0  0  0  0
  148.8671  131.4865  154.3270 C   0  0  0  0  0  0  0  0  0  0  0  0
  148.1596  130.3586  153.9307 N   0  0  0  0  0  0  0  0  0  0  0  0
  147.3910  130.7918  152.9664 C   0  0  0  0  0  0  0  0  0  0  0  0
  147.5199  132.1320  152.6690 N   0  0  0  0  0  0  0  0  0  0  0  0
  146.7953  132.9397  151.6424 C   0  0  1  0  0  0  0  0  0  0  0  0
  145.8615  132.1272  151.0121 O   0  0  0  0  0  0  0  0  0  0  0  0
  144.8286  132.9503  150.4833 C   0  0  1  0  0  0  0  0  0  0  0  0
  143.4893  132.1939  150.5406 C   0  0  0  0  0  0  0  0  0  0  0  0
  142.8653  132.1328  149.2745 O   0  0  0  0  0  0  0  0  0  0  0  0
  144.8837  134.2945  151.2426 C   0  0  2  0  0  0  0  0  0  0  0  0
  145.2245  135.3306  150.3410 O   0  0  0  0  0  0  0  0  0  0  0  0
  146.0077  134.1045  152.2561 C   0  0  1  0  0  0  0  0  0  0  0  0
  145.4885  133.8079  153.5402 O   0  0  0  0  0  0  0  0  0  0  0  0
  147.5521  133.2609  150.9242 H   0  0  0  0  0  0  0  0  0  0  0  0
  145.0800  133.1074  149.4327 H   0  0  0  0  0  0  0  0  0  0  0  0
  143.9395  134.5595  151.7203 H   0  0  0  0  0  0  0  0  0  0  0  0
  146.6554  134.9777  152.3474 H   0  0  0  0  0  0  0  0  0  0  0  0
  149.9859  129.8510  156.0634 H   0  0  0  0  0  0  0  0  0  0  0  0
  151.0360  131.0322  156.8171 H   0  0  0  0  0  0  0  0  0  0  0  0
  150.3044  134.9441  154.7715 H   0  0  0  0  0  0  0  0  0  0  0  0
  146.7005  130.1432  152.4464 H   0  0  0  0  0  0  0  0  0  0  0  0
  143.6592  131.1716  150.8789 H   0  0  0  0  0  0  0  0  0  0  0  0
  142.8145  132.6603  151.2589 H   0  0  0  0  0  0  0  0  0  0  0  0
  142.1569  132.7581  149.2572 H   0  0  0  0  0  0  0  0  0  0  0  0
  145.6109  134.9426  149.5707 H   0  0  0  0  0  0  0  0  0  0  0  0
  146.1375  134.0467  154.1845 H   0  0  0  0  0  0  0  0  0  0  0  0
  1  2  1  0  0  0  0
  1 24  1  0  0  0  0
  1 25  1  0  0  0  0
  2  7  1  0  0  0  0
  2  3  2  0  0  0  0
  3  4  1  0  0  0  0
  4  5  2  0  0  0  0
  4 26  1  0  0  0  0
  5  6  1  0  0  0  0
  6 10  1  0  0  0  0
  6  7  2  0  0  0  0
  7  8  1  0  0  0  0
  8  9  2  0  0  0  0
  9 10  1  0  0  0  0
  9 27  1  0  0  0  0
 10 11  1  0  0  0  0
 11 20  1  0  0  0  0
 11 18  1  0  0  0  0
 11 12  1  0  0  0  0
 12 13  1  0  0  0  0
 13 21  1  0  0  0  0
 13 14  1  0  0  0  0
 13 16  1  0  0  0  0
 14 15  1  0  0  0  0
 14 28  1  0  0  0  0
 14 29  1  0  0  0  0
 15 30  1  0  0  0  0
 16 22  1  0  0  0  0
 16 17  1  0  0  0  0
 16 18  1  0  0  0  0
 17 31  1  0  0  0  0
 18 23  1  0  0  0  0
 18 19  1  0  0  0  0
 19 32  1  0  0  0  0
M  END
> <s_m_source_file>
AV-unprocessed.smi

> <i_m_source_file_index>
69

> <i_lp_mmshare_version>
43012

> <i_f3d_flags>
0

> <s_epik_input>
bjFbY0hdbmMoW05IMl0pYyhjMTIpbltjSF1uMltDQEBIXTNPW0NASF0oW0NIMl1bT0hdKVtDQEBIXShbT0hdKVtDQEhdM1tPSF0=

> <s_epik_cmdline>
J2VwaWtfcHl0aG9uJywgJy1waCcsICc3LjAnLCAnLXRuJywgJzgnLCAnLW1hJywgJzIwMCcsICctbWV0YWxfYmluZGluZycsICctaW1hZScsICc8aW5maWxlLm1hZT4nLCAnLW9tYWUnLCAnPG91dGZpbGUubWFlPic=

> <r_lp_tautomer_probability>
1

> <r_epik_Ionization_Penalty>
0.000428445

> <r_epik_Ionization_Penalty_Charging>
0

> <r_epik_Ionization_Penalty_Neutral>
0.000428445

> <r_epik_State_Penalty>
-0

> <r_epik_Charging_Adjusted_Penalty>
0

> <i_epik_Tot_Q>
0

> <i_epik_Tot_abs_Q>
0

> <r_epik_Metal_State_Penalty>
-0

> <b_epik_Metal_Only>
0

> <s_epik_Chemistry_Notes>
This compound contains an acetal/aminal-like group ( X-CH(R)-Y where X, Y are N, S, or O) that may be acid/base labile, releasing an aldehyde.

> <s_lp_Force_Field>
OPLS_2005

> <r_lp_Energy>
41.0304

> <b_lp_Chiralities_Consistent>
1

> <s_lp_Variant>
AV-unprocessed.smi:69-8

> <Gold.Version>
5.8.1

> <Gold.Id.Protein>
6NUR|6NUR_protein|mol2

> <Gold.PLP.Fitness>
37.9429

> <Gold.PLP.PLP>
-30.9102

> <Gold.PLP.part.hbond>
-4.0000

> <Gold.PLP.part.metal>
0.0000

> <Gold.PLP.part.buried>
-6.1151

> <Gold.PLP.part.nonpolar>
-22.5651

> <Gold.PLP.part.repulsive>
1.4542

> <Gold.PLP.ligand.clash>
0.0000

> <Gold.PLP.ligand.torsion>
0.7421

> <Gold.PLP.Chemscore.Hbond>
2.8363

> <Gold.PLP.Chemscore.CHOScore>
0.0000

> <Gold.PLP.Chemscore.Metal>
0.0000

> <Gold.Chemscore.Hbonds>
donor molecule, donor type, donor heavy atom, donor atom, acceptor molecule, acceptor atom, score
      L1  H    15    30       P1 10186  1.00
      L1  H    17    31       P1  7921  1.00
      P1  H 10785 10796       L1    15  0.86

> <Gold.PLP.Chemscore.Internal.Correction>
0.0082

> <Gold.Rescore>
     Score         DG    S(hbond)    S(metal)    S(lipo)     H(rot)  DE(clash)    DE(int)     intcor
      5.93      -7.01       2.45        0.00      31.23       4.03       0.29       0.79       ----

> <Gold.Chemscore.Fitness>
5.9280

> <Gold.Chemscore.DG>
-7.0147

> <Gold.Chemscore.ZeroCoef>
-5.4800

> <Gold.Chemscore.Hbond>
2.4525

> <Gold.Chemscore.Metal>
0.0000

> <Gold.Chemscore.Lipo>
31.2340

> <Gold.Chemscore.Internal_Hbond>
0.0000

> <Gold.Chemscore.DEClash>
0.2946

> <Gold.Chemscore.DEInternal>
0.7921

> <Gold.Chemscore.Rot>
4.0277

> <Gold.Chemscore.Internal.Correction>
   9.000000E+99

> <Gold.Chemscore.Hbonds>
donor molecule, donor type, donor heavy atom, donor atom, acceptor molecule, acceptor atom, score
      L1  H    15    30       P1 10186  0.93
      L1  H    17    31       P1  7921  0.92
      P1  H 10785 10796       L1    15  0.29

> <Gold.Chemscore.Hbond.Weighted>
-8.1913

> <Gold.Chemscore.Metal.Weighted>
-0.0000

> <Gold.Chemscore.Lipo.Weighted>
-3.6544

> <Gold.Chemscore.Internal_Hbond.Weighted>
0.0000

> <Gold.Chemscore.DEClash.Weighted>
0.2946

> <Gold.Chemscore.DEInternal.Weighted>
0.7921

> <Gold.Chemscore.Rot.Weighted>
10.3110

> <Gold.Chemscore.Internal.Correction.Weighted>
   9.000000E+99

> <Gold.Protein.RotatedTorsions>
[ 6907 6896 6895 6894 ] final   15.15 input  -60.11 | X-H torsion
[ 7974 7965 7964 7962 ] final  166.65 input  175.53 | X-H torsion
[ 8008 7997 7996 7995 ] final  179.91 input   59.86 | X-H torsion
[ 10167 10162 10161 10158 ] final  -39.20 input  -65.29 | X-H torsion
[ 10718 10713 10712 10709 ] final  158.54 input   66.30 | X-H torsion
[ 10763 10752 10751 10750 ] final  -19.48 input  -60.55 | X-H torsion
[ 11005 11000 10999 10996 ] final  150.97 input  -57.11 | X-H torsion

> <Gold.Protein.ActiveResidues>
 VAL166  LYS551  ARG553  GLY616  TRP617  ASP618  TYR619  PRO620  LYS621  CYS622 
 ASP623  PHE694  ASN695  SER759  ASP760  ASP761  ALA762  ILE779  LEU786  VAL792 
 PHE793  MET794  SER795  GLU796  ALA797  LYS798  CYS799  TRP800  GLU811  SER814 

> <Gold.Protein.RotatedAtoms>
  151.8135  135.0673  160.0415 H   0  0  0  0  0  0  0  0  0  0  0  0  # atno 6907 bound_to 6896
  152.3003  133.5644  159.5622 H   0  0  0  0  0  0  0  0  0  0  0  0  # atno 6908 bound_to 6896
  150.7270  134.0217  159.3745 H   0  0  0  0  0  0  0  0  0  0  0  0  # atno 6909 bound_to 6896
  144.7454  139.8646  143.6384 H   0  0  0  0  0  0  0  0  0  0  0  0  # atno 7974 bound_to 7965
  156.0380  140.1297  157.0187 H   0  0  0  0  0  0  0  0  0  0  0  0  # atno 8008 bound_to 7997
  154.4378  140.1036  156.6266 H   0  0  0  0  0  0  0  0  0  0  0  0  # atno 8009 bound_to 7997
  155.5709  140.3466  155.4517 H   0  0  0  0  0  0  0  0  0  0  0  0  # atno 8010 bound_to 7997
  140.7071  143.3229  151.2749 H   0  0  0  0  0  0  0  0  0  0  0  0  # atno 10167 bound_to 10162
  157.1765  131.0622  151.2155 H   0  0  0  0  0  0  0  0  0  0  0  0  # atno 10718 bound_to 10713
  153.6055  135.6998  153.5367 H   0  0  0  0  0  0  0  0  0  0  0  0  # atno 10763 bound_to 10752
  153.3061  135.4115  155.1294 H   0  0  0  0  0  0  0  0  0  0  0  0  # atno 10764 bound_to 10752
  154.8574  135.3660  154.5592 H   0  0  0  0  0  0  0  0  0  0  0  0  # atno 10765 bound_to 10752
  140.1178  134.8883  157.2028 H   0  0  0  0  0  0  0  0  0  0  0  0  # atno 11005 bound_to 11000
  146.1324  139.4362  143.0160 LP  0  0  0  0  0  0  0  0  0  0  0  0  # atno 17320 bound_to 7965
  145.7143  141.0096  143.1436 LP  0  0  0  0  0  0  0  0  0  0  0  0  # atno 17321 bound_to 7965
  139.6689  144.0056  152.2740 LP  0  0  0  0  0  0  0  0  0  0  0  0  # atno 17342 bound_to 10162
  139.9648  144.6533  150.8045 LP  0  0  0  0  0  0  0  0  0  0  0  0  # atno 17343 bound_to 10162
  157.3994  130.7325  149.6756 LP  0  0  0  0  0  0  0  0  0  0  0  0  # atno 17370 bound_to 10713
  155.9730  130.4125  150.4034 LP  0  0  0  0  0  0  0  0  0  0  0  0  # atno 17371 bound_to 10713
  140.3006  134.3136  155.7291 LP  0  0  0  0  0  0  0  0  0  0  0  0  # atno 17394 bound_to 11000
  141.2145  133.7589  156.9634 LP  0  0  0  0  0  0  0  0  0  0  0  0  # atno 17395 bound_to 11000

$$$$
