AV-unprocessed.smi:746|AV-procd|sdf|3578|dock6
  -GOLD-   22720 0573D 1   1.00000     0.00000
 Structure written by MMmdl.
 48 50  0  0  0  0  0  0  0  0  1 V2000
  157.4714  136.5503  154.2601 C   0  0  0  0  0  0  0  0  0  0  0  0
  156.7203  135.6328  155.0356 O   0  0  0  0  0  0  0  0  0  0  0  0
  157.2109  135.5139  156.3605 C   0  0  0  0  0  0  0  0  0  0  0  0
  156.4154  134.4343  157.0996 C   0  0  0  0  0  0  0  0  0  0  0  0
  155.0512  134.8380  157.1759 O   0  0  0  0  0  0  0  0  0  0  0  0
  154.7516  136.0293  157.8046 C   0  0  0  0  0  0  0  0  0  0  0  0
  153.5960  136.7296  157.4054 C   0  0  0  0  0  0  0  0  0  0  0  0
  153.2781  137.9381  158.0529 C   0  0  0  0  0  0  0  0  0  0  0  0
  154.1161  138.4059  159.0847 C   0  0  0  0  0  0  0  0  0  0  0  0
  153.7794  139.6334  159.7154 N   0  0  0  0  0  0  0  0  0  0  0  0
  153.1605  140.7092  159.1867 C   0  0  0  0  0  0  0  0  0  0  0  0
  152.8351  140.7719  158.0000 O   0  0  0  0  0  0  0  0  0  0  0  0
  152.9958  141.7502  160.0509 N   0  0  0  0  0  0  0  0  0  0  0  0
  153.6794  141.8258  161.3656 C   0  0  0  0  0  0  0  0  0  0  0  0
  152.9004  142.5980  162.4371 C   0  0  0  0  0  0  0  0  0  0  0  0
  152.4995  143.9746  161.9279 C   0  0  0  0  0  0  0  0  0  0  0  0
  151.5813  143.8123  160.7147 C   0  0  1  0  0  0  0  0  0  0  0  0
  151.3061  145.1556  160.0123 C   0  0  0  0  0  0  0  0  0  0  0  0
  152.0931  145.1410  158.6912 C   0  0  0  0  0  0  0  0  0  0  0  0
  152.9695  143.8879  158.7307 C   0  0  0  0  0  0  0  0  0  0  0  0
  152.1858  142.9163  159.6171 C   0  0  1  0  0  0  0  0  0  0  0  0
  155.2655  137.6412  159.3992 C   0  0  0  0  0  0  0  0  0  0  0  0
  155.5766  136.4821  158.7808 N   0  0  0  0  0  0  0  0  0  0  0  0
  157.0548  136.6071  153.2545 H   0  0  0  0  0  0  0  0  0  0  0  0
  158.5121  136.2349  154.1754 H   0  0  0  0  0  0  0  0  0  0  0  0
  157.4427  137.5508  154.6936 H   0  0  0  0  0  0  0  0  0  0  0  0
  158.2753  135.2732  156.3646 H   0  0  0  0  0  0  0  0  0  0  0  0
  157.0894  136.4690  156.8738 H   0  0  0  0  0  0  0  0  0  0  0  0
  156.4874  133.4987  156.5427 H   0  0  0  0  0  0  0  0  0  0  0  0
  156.8349  134.2672  158.0933 H   0  0  0  0  0  0  0  0  0  0  0  0
  152.9636  136.3450  156.6188 H   0  0  0  0  0  0  0  0  0  0  0  0
  152.3965  138.4918  157.7646 H   0  0  0  0  0  0  0  0  0  0  0  0
  154.1037  139.7369  160.6658 H   0  0  0  0  0  0  0  0  0  0  0  0
  153.8773  140.8383  161.7848 H   0  0  0  0  0  0  0  0  0  0  0  0
  154.6510  142.2970  161.2107 H   0  0  0  0  0  0  0  0  0  0  0  0
  152.0115  142.0365  162.7279 H   0  0  0  0  0  0  0  0  0  0  0  0
  153.5110  142.6983  163.3349 H   0  0  0  0  0  0  0  0  0  0  0  0
  151.9896  144.5330  162.7134 H   0  0  0  0  0  0  0  0  0  0  0  0
  153.3911  144.5442  161.6631 H   0  0  0  0  0  0  0  0  0  0  0  0
  150.6418  143.3765  161.0584 H   0  0  0  0  0  0  0  0  0  0  0  0
  150.2408  145.2697  159.8080 H   0  0  0  0  0  0  0  0  0  0  0  0
  151.5998  146.0019  160.6349 H   0  0  0  0  0  0  0  0  0  0  0  0
  151.3973  145.0744  157.8539 H   0  0  0  0  0  0  0  0  0  0  0  0
  152.6848  146.0461  158.5523 H   0  0  0  0  0  0  0  0  0  0  0  0
  153.1636  143.4881  157.7349 H   0  0  0  0  0  0  0  0  0  0  0  0
  153.9315  144.1227  159.1886 H   0  0  0  0  0  0  0  0  0  0  0  0
  151.3302  142.5616  159.0376 H   0  0  0  0  0  0  0  0  0  0  0  0
  155.9744  137.9583  160.1480 H   0  0  0  0  0  0  0  0  0  0  0  0
  1  2  1  0  0  0  0
  1 24  1  0  0  0  0
  1 25  1  0  0  0  0
  1 26  1  0  0  0  0
  2  3  1  0  0  0  0
  3  4  1  0  0  0  0
  3 27  1  0  0  0  0
  3 28  1  0  0  0  0
  4  5  1  0  0  0  0
  4 29  1  0  0  0  0
  4 30  1  0  0  0  0
  5  6  1  0  0  0  0
  6 23  1  0  0  0  0
  6  7  2  0  0  0  0
  7  8  1  0  0  0  0
  7 31  1  0  0  0  0
  8  9  2  0  0  0  0
  8 32  1  0  0  0  0
  9 10  1  0  0  0  0
  9 22  1  0  0  0  0
 10 11  1  0  0  0  0
 10 33  1  0  0  0  0
 11 12  2  0  0  0  0
 11 13  1  0  0  0  0
 13 21  1  0  0  0  0
 13 14  1  0  0  0  0
 14 15  1  0  0  0  0
 14 34  1  0  0  0  0
 14 35  1  0  0  0  0
 15 16  1  0  0  0  0
 15 36  1  0  0  0  0
 15 37  1  0  0  0  0
 16 17  1  0  0  0  0
 16 38  1  0  0  0  0
 16 39  1  0  0  0  0
 17 21  1  0  0  0  0
 17 18  1  0  0  0  0
 17 40  1  0  0  0  0
 18 19  1  0  0  0  0
 18 41  1  0  0  0  0
 18 42  1  0  0  0  0
 19 20  1  0  0  0  0
 19 43  1  0  0  0  0
 19 44  1  0  0  0  0
 20 21  1  0  0  0  0
 20 45  1  0  0  0  0
 20 46  1  0  0  0  0
 21 47  1  0  0  0  0
 22 23  2  0  0  0  0
 22 48  1  0  0  0  0
M  END
> <s_m_source_file>
AV-unprocessed.smi

> <i_m_source_file_index>
746

> <i_lp_mmshare_version>
43012

> <i_f3d_flags>
0

> <s_epik_input>
W0NIM11PW0NIMl1bQ0gyXU9jMVtjSF1bY0hdYyhbY0hdbjEpW05IXUMoPU8pTihbQ0gyXVtDSDJdW0NIMl0yKVtDQEhdKFtDQEBIXTIzKVtDSDJdW0NIMl1bQ0gyXTM=

> <s_epik_cmdline>
J2VwaWtfcHl0aG9uJywgJy1waCcsICc3LjAnLCAnLXRuJywgJzgnLCAnLW1hJywgJzIwMCcsICctbWV0YWxfYmluZGluZycsICctaW1hZScsICc8aW5maWxlLm1hZT4nLCAnLW9tYWUnLCAnPG91dGZpbGUubWFlPic=

> <r_lp_tautomer_probability>
1

> <r_epik_Ionization_Penalty>
8.29966e-05

> <r_epik_Ionization_Penalty_Charging>
0

> <r_epik_Ionization_Penalty_Neutral>
8.29966e-05

> <r_epik_State_Penalty>
-0

> <r_epik_Charging_Adjusted_Penalty>
0

> <i_epik_Tot_Q>
0

> <i_epik_Tot_abs_Q>
0

> <r_epik_Metal_State_Penalty>
-0

> <b_epik_Metal_Only>
0

> <s_lp_Force_Field>
OPLS_2005

> <r_lp_Energy>
59.487

> <b_lp_Chiralities_Consistent>
1

> <s_lp_Variant>
AV-unprocessed.smi:746-3

> <Gold.Version>
5.8.1

> <Gold.Id.Protein>
6NUR|6NUR_protein|mol2

> <Gold.PLP.Fitness>
48.5413

> <Gold.PLP.PLP>
-45.0130

> <Gold.PLP.part.hbond>
-3.0000

> <Gold.PLP.part.metal>
0.0000

> <Gold.PLP.part.buried>
-2.9623

> <Gold.PLP.part.nonpolar>
-37.9021

> <Gold.PLP.part.repulsive>
0.0740

> <Gold.PLP.ligand.clash>
0.1493

> <Gold.PLP.ligand.torsion>
0.6553

> <Gold.PLP.Chemscore.Hbond>
1.5925

> <Gold.PLP.Chemscore.CHOScore>
0.0000

> <Gold.PLP.Chemscore.Metal>
0.0000

> <Gold.Chemscore.Hbonds>
donor molecule, donor type, donor heavy atom, donor atom, acceptor molecule, acceptor atom, score
      P1  H  7997  8009       L1    12  0.57
      P1  H 10752 10763       L1     2  1.00

> <Gold.PLP.Chemscore.Internal.Correction>
0.2107

> <Gold.Rescore>
     Score         DG    S(hbond)    S(metal)    S(lipo)     H(rot)  DE(clash)    DE(int)     intcor
     18.35     -20.70       1.44        0.00     122.10       1.52       0.36       1.98       ----

> <Gold.Chemscore.Fitness>
18.3543

> <Gold.Chemscore.DG>
-20.6968

> <Gold.Chemscore.ZeroCoef>
-5.4800

> <Gold.Chemscore.Hbond>
1.4415

> <Gold.Chemscore.Metal>
0.0000

> <Gold.Chemscore.Lipo>
122.1035

> <Gold.Chemscore.Internal_Hbond>
0.0000

> <Gold.Chemscore.DEClash>
0.3597

> <Gold.Chemscore.DEInternal>
1.9828

> <Gold.Chemscore.Rot>
1.5172

> <Gold.Chemscore.Internal.Correction>
   9.000000E+99

> <Gold.Chemscore.Hbonds>
donor molecule, donor type, donor heavy atom, donor atom, acceptor molecule, acceptor atom, score
      P1  H  7997  8009       L1    12  0.33
      P1  H 10752 10763       L1     2  0.86

> <Gold.Chemscore.Hbond.Weighted>
-4.8148

> <Gold.Chemscore.Metal.Weighted>
-0.0000

> <Gold.Chemscore.Lipo.Weighted>
-14.2861

> <Gold.Chemscore.Internal_Hbond.Weighted>
0.0000

> <Gold.Chemscore.DEClash.Weighted>
0.3597

> <Gold.Chemscore.DEInternal.Weighted>
1.9828

> <Gold.Chemscore.Rot.Weighted>
3.8841

> <Gold.Chemscore.Internal.Correction.Weighted>
   9.000000E+99

> <Gold.Protein.RotatedTorsions>
[ 6907 6896 6895 6894 ] final -167.86 input  -60.11 | X-H torsion
[ 7974 7965 7964 7962 ] final  146.88 input  175.53 | X-H torsion
[ 8008 7997 7996 7995 ] final  165.53 input   59.86 | X-H torsion
[ 10167 10162 10161 10158 ] final -131.15 input  -65.29 | X-H torsion
[ 10718 10713 10712 10709 ] final   56.16 input   66.30 | X-H torsion
[ 10763 10752 10751 10750 ] final -158.76 input  -60.55 | X-H torsion
[ 11005 11000 10999 10996 ] final -118.51 input  -57.11 | X-H torsion

> <Gold.Protein.ActiveResidues>
 VAL166  LYS551  ARG553  GLY616  TRP617  ASP618  TYR619  PRO620  LYS621  CYS622 
 ASP623  PHE694  ASN695  SER759  ASP760  ASP761  ALA762  ILE779  LEU786  VAL792 
 PHE793  MET794  SER795  GLU796  ALA797  LYS798  CYS799  TRP800  GLU811  SER814 

> <Gold.Protein.RotatedAtoms>
  151.4663  133.3580  159.2816 H   0  0  0  0  0  0  0  0  0  0  0  0  # atno 6907 bound_to 6896
  150.8991  134.8404  159.7358 H   0  0  0  0  0  0  0  0  0  0  0  0  # atno 6908 bound_to 6896
  152.4869  134.4581  159.9648 H   0  0  0  0  0  0  0  0  0  0  0  0  # atno 6909 bound_to 6896
  144.8636  139.5959  143.5919 H   0  0  0  0  0  0  0  0  0  0  0  0  # atno 7974 bound_to 7965
  156.1793  140.1667  156.8304 H   0  0  0  0  0  0  0  0  0  0  0  0  # atno 8008 bound_to 7997
  154.5342  140.0750  156.8432 H   0  0  0  0  0  0  0  0  0  0  0  0  # atno 8009 bound_to 7997
  155.3345  140.3381  155.4241 H   0  0  0  0  0  0  0  0  0  0  0  0  # atno 8010 bound_to 7997
  139.9219  143.6372  152.2551 H   0  0  0  0  0  0  0  0  0  0  0  0  # atno 10167 bound_to 10162
  157.5407  130.8695  149.8817 H   0  0  0  0  0  0  0  0  0  0  0  0  # atno 10718 bound_to 10713
  154.7530  135.3097  154.8522 H   0  0  0  0  0  0  0  0  0  0  0  0  # atno 10763 bound_to 10752
  153.9303  135.6786  153.4750 H   0  0  0  0  0  0  0  0  0  0  0  0  # atno 10764 bound_to 10752
  153.1127  135.4859  154.8991 H   0  0  0  0  0  0  0  0  0  0  0  0  # atno 10765 bound_to 10752
  141.0280  134.0024  157.3185 H   0  0  0  0  0  0  0  0  0  0  0  0  # atno 11005 bound_to 11000
  146.2879  139.7055  142.9182 LP  0  0  0  0  0  0  0  0  0  0  0  0  # atno 17320 bound_to 7965
  145.4265  141.0411  143.2934 LP  0  0  0  0  0  0  0  0  0  0  0  0  # atno 17321 bound_to 7965
  139.6854  144.7652  151.1533 LP  0  0  0  0  0  0  0  0  0  0  0  0  # atno 17342 bound_to 10162
  140.7660  143.5664  150.9043 LP  0  0  0  0  0  0  0  0  0  0  0  0  # atno 17343 bound_to 10162
  156.0494  130.3721  150.1238 LP  0  0  0  0  0  0  0  0  0  0  0  0  # atno 17370 bound_to 10713
  156.9417  130.9746  151.3515 LP  0  0  0  0  0  0  0  0  0  0  0  0  # atno 17371 bound_to 10713
  139.9189  135.0199  156.7988 LP  0  0  0  0  0  0  0  0  0  0  0  0  # atno 17394 bound_to 11000
  140.6456  133.9778  155.7729 LP  0  0  0  0  0  0  0  0  0  0  0  0  # atno 17395 bound_to 11000

$$$$
