AV-unprocessed.smi:450|AV-procd|sdf|2608|dock3
  -GOLD-   2262023 03D 1   1.00000     0.00000
 Structure written by MMmdl.
 32 32  0  0  0  0  0  0  0  0  1 V2000
  153.1317  142.5737  160.1770 C   0  0  0  0  0  0  0  0  0  0  0  0
  152.6072  142.5731  158.7332 C   0  0  0  0  0  0  0  0  0  0  0  0
  151.3558  143.4476  158.5270 C   0  0  1  0  0  0  0  0  0  0  0  0
  151.6802  144.9432  158.6692 C   0  0  0  0  0  0  0  0  0  0  0  0
  150.7711  143.1798  157.2162 N   0  0  0  0  0  0  0  0  0  0  0  0
  150.3500  141.9839  156.7768 C   0  0  0  0  0  0  0  0  0  0  0  0
  150.3623  140.9628  157.4632 O   0  0  0  0  0  0  0  0  0  0  0  0
  149.8496  141.9288  155.3328 C   0  0  0  0  0  0  0  0  0  0  0  0
  149.6781  140.5460  154.8936 N   0  0  0  0  0  0  0  0  0  0  0  0
  148.6147  139.9897  154.2777 C   0  0  0  0  0  0  0  0  0  0  0  0
  147.4802  140.7349  153.9913 N   0  0  0  0  0  0  0  0  0  0  0  0
  148.7627  138.7015  153.9816 N   0  0  0  0  0  0  0  0  0  0  0  0
  150.0356  138.3678  154.4395 C   0  0  0  0  0  0  0  0  0  0  0  0
  150.5661  137.0538  154.2998 C   0  0  0  0  0  0  0  0  0  0  0  0
  150.9996  135.9873  154.1852 N   0  0  0  0  0  0  0  0  0  0  0  0
  150.5918  139.4992  154.9965 C   0  0  0  0  0  0  0  0  0  0  0  0
  151.8749  139.6033  155.5748 C   0  0  0  0  0  0  0  0  0  0  0  0
  152.9265  139.6894  156.0486 N   0  0  0  0  0  0  0  0  0  0  0  0
  154.0430  141.9807  160.2567 H   0  0  0  0  0  0  0  0  0  0  0  0
  152.4044  142.1510  160.8708 H   0  0  0  0  0  0  0  0  0  0  0  0
  153.3641  143.5856  160.5100 H   0  0  0  0  0  0  0  0  0  0  0  0
  153.4019  142.9256  158.0749 H   0  0  0  0  0  0  0  0  0  0  0  0
  152.3956  141.5472  158.4288 H   0  0  0  0  0  0  0  0  0  0  0  0
  150.6313  143.1800  159.2986 H   0  0  0  0  0  0  0  0  0  0  0  0
  152.1168  145.1577  159.6448 H   0  0  0  0  0  0  0  0  0  0  0  0
  150.7826  145.5547  158.5727 H   0  0  0  0  0  0  0  0  0  0  0  0
  152.3892  145.2703  157.9080 H   0  0  0  0  0  0  0  0  0  0  0  0
  150.7254  143.9594  156.5763 H   0  0  0  0  0  0  0  0  0  0  0  0
  148.8992  142.4564  155.2447 H   0  0  0  0  0  0  0  0  0  0  0  0
  150.5491  142.4442  154.6737 H   0  0  0  0  0  0  0  0  0  0  0  0
  147.4212  141.7131  154.2366 H   0  0  0  0  0  0  0  0  0  0  0  0
  146.7009  140.3423  153.4837 H   0  0  0  0  0  0  0  0  0  0  0  0
  1  2  1  0  0  0  0
  1 19  1  0  0  0  0
  1 20  1  0  0  0  0
  1 21  1  0  0  0  0
  2  3  1  0  0  0  0
  2 22  1  0  0  0  0
  2 23  1  0  0  0  0
  3  4  1  0  0  0  0
  3  5  1  0  0  0  0
  3 24  1  0  0  0  0
  4 25  1  0  0  0  0
  4 26  1  0  0  0  0
  4 27  1  0  0  0  0
  5  6  1  0  0  0  0
  5 28  1  0  0  0  0
  6  7  2  0  0  0  0
  6  8  1  0  0  0  0
  8  9  1  0  0  0  0
  8 29  1  0  0  0  0
  8 30  1  0  0  0  0
  9 16  1  0  0  0  0
  9 10  1  0  0  0  0
 10 11  1  0  0  0  0
 10 12  2  0  0  0  0
 11 31  1  0  0  0  0
 11 32  1  0  0  0  0
 12 13  1  0  0  0  0
 13 14  1  0  0  0  0
 13 16  2  0  0  0  0
 14 15  3  0  0  0  0
 16 17  1  0  0  0  0
 17 18  3  0  0  0  0
M  END
> <s_m_source_file>
AV-unprocessed.smi

> <i_m_source_file_index>
450

> <i_lp_mmshare_version>
43012

> <i_f3d_flags>
0

> <s_epik_input>
W0NIM11bQ0gyXVtDQEhdKFtDSDNdKVtOSF1DKD1PKVtDSDJdbjFjKFtOSDJdKW5jKEMjTiljMUMjTg==

> <s_epik_cmdline>
J2VwaWtfcHl0aG9uJywgJy1waCcsICc3LjAnLCAnLXRuJywgJzgnLCAnLW1hJywgJzIwMCcsICctbWV0YWxfYmluZGluZycsICctaW1hZScsICc8aW5maWxlLm1hZT4nLCAnLW9tYWUnLCAnPG91dGZpbGUubWFlPic=

> <r_epik_Ionization_Penalty>
0.000482749

> <r_epik_Ionization_Penalty_Charging>
7.71074e-10

> <r_epik_Ionization_Penalty_Neutral>
0.000482748

> <r_epik_State_Penalty>
0.000433536

> <r_epik_Charging_Adjusted_Penalty>
0.000433537

> <i_epik_Tot_Q>
0

> <i_epik_Tot_abs_Q>
0

> <r_epik_Metal_State_Penalty>
-0

> <b_epik_Metal_Only>
0

> <s_lp_Force_Field>
OPLS_2005

> <r_lp_Energy>
5.27204

> <b_lp_Chiralities_Consistent>
1

> <s_lp_Variant>
AV-unprocessed.smi:450-2

> <Gold.Version>
5.8.1

> <Gold.Id.Protein>
6NUR|6NUR_protein|mol2

> <Gold.PLP.Fitness>
41.6389

> <Gold.PLP.PLP>
-36.0103

> <Gold.PLP.part.hbond>
-2.8710

> <Gold.PLP.part.metal>
0.0000

> <Gold.PLP.part.buried>
-3.5419

> <Gold.PLP.part.nonpolar>
-30.6220

> <Gold.PLP.part.repulsive>
0.5039

> <Gold.PLP.ligand.clash>
0.0000

> <Gold.PLP.ligand.torsion>
0.2724

> <Gold.PLP.Chemscore.Hbond>
2.0511

> <Gold.PLP.Chemscore.CHOScore>
0.0000

> <Gold.PLP.Chemscore.Metal>
0.0000

> <Gold.Chemscore.Hbonds>
donor molecule, donor type, donor heavy atom, donor atom, acceptor molecule, acceptor atom, score
      L1  H     5    28       P1  8028  0.33
      P1  H  7997  8008       L1    18  0.93
      P1  H 10752 10763       L1    15  1.00

> <Gold.PLP.Chemscore.Internal.Correction>
0.0202

> <Gold.Rescore>
     Score         DG    S(hbond)    S(metal)    S(lipo)     H(rot)  DE(clash)    DE(int)     intcor
     11.95     -15.02       2.30        0.00      64.42       2.21       0.28       2.80       ----

> <Gold.Chemscore.Fitness>
11.9508

> <Gold.Chemscore.DG>
-15.0238

> <Gold.Chemscore.ZeroCoef>
-5.4800

> <Gold.Chemscore.Hbond>
2.2963

> <Gold.Chemscore.Metal>
0.0000

> <Gold.Chemscore.Lipo>
64.4196

> <Gold.Chemscore.Internal_Hbond>
0.0000

> <Gold.Chemscore.DEClash>
0.2765

> <Gold.Chemscore.DEInternal>
2.7965

> <Gold.Chemscore.Rot>
2.2121

> <Gold.Chemscore.Internal.Correction>
   9.000000E+99

> <Gold.Chemscore.Hbonds>
donor molecule, donor type, donor heavy atom, donor atom, acceptor molecule, acceptor atom, score
      L1  H     5    28       P1  8028  0.34
      P1  H  7997  8008       L1    18  0.89
      P1  H 10752 10763       L1    15  0.97

> <Gold.Chemscore.Hbond.Weighted>
-7.6695

> <Gold.Chemscore.Metal.Weighted>
-0.0000

> <Gold.Chemscore.Lipo.Weighted>
-7.5371

> <Gold.Chemscore.Internal_Hbond.Weighted>
0.0000

> <Gold.Chemscore.DEClash.Weighted>
0.2765

> <Gold.Chemscore.DEInternal.Weighted>
2.7965

> <Gold.Chemscore.Rot.Weighted>
5.6629

> <Gold.Chemscore.Internal.Correction.Weighted>
   9.000000E+99

> <Gold.Protein.RotatedTorsions>
[ 6907 6896 6895 6894 ] final -121.77 input  -60.11 | X-H torsion
[ 7974 7965 7964 7962 ] final -179.78 input  175.53 | X-H torsion
[ 8008 7997 7996 7995 ] final  -34.30 input   59.86 | X-H torsion
[ 10167 10162 10161 10158 ] final   76.46 input  -65.29 | X-H torsion
[ 10718 10713 10712 10709 ] final -165.95 input   66.30 | X-H torsion
[ 10763 10752 10751 10750 ] final   49.50 input  -60.55 | X-H torsion
[ 11005 11000 10999 10996 ] final -115.74 input  -57.11 | X-H torsion

> <Gold.Protein.ActiveResidues>
 VAL166  LYS551  ARG553  GLY616  TRP617  ASP618  TYR619  PRO620  LYS621  CYS622 
 ASP623  PHE694  ASN695  SER759  ASP760  ASP761  ALA762  ILE779  LEU786  VAL792 
 PHE793  MET794  SER795  GLU796  ALA797  LYS798  CYS799  TRP800  GLU811  SER814 

> <Gold.Protein.RotatedAtoms>
  150.8514  133.7781  159.3023 H   0  0  0  0  0  0  0  0  0  0  0  0  # atno 6907 bound_to 6896
  151.5452  135.1066  159.9946 H   0  0  0  0  0  0  0  0  0  0  0  0  # atno 6908 bound_to 6896
  152.4555  133.7672  159.6835 H   0  0  0  0  0  0  0  0  0  0  0  0  # atno 6909 bound_to 6896
  144.7139  140.0666  143.6431 H   0  0  0  0  0  0  0  0  0  0  0  0  # atno 7974 bound_to 7965
  154.4124  140.1687  156.2027 H   0  0  0  0  0  0  0  0  0  0  0  0  # atno 8008 bound_to 7997
  155.9510  140.3401  155.6384 H   0  0  0  0  0  0  0  0  0  0  0  0  # atno 8009 bound_to 7997
  155.6870  140.0729  157.2454 H   0  0  0  0  0  0  0  0  0  0  0  0  # atno 8010 bound_to 7997
  139.9920  144.5750  150.7809 H   0  0  0  0  0  0  0  0  0  0  0  0  # atno 10167 bound_to 10162
  156.6608  130.9045  151.3029 H   0  0  0  0  0  0  0  0  0  0  0  0  # atno 10718 bound_to 10713
  152.9786  135.5909  154.4099 H   0  0  0  0  0  0  0  0  0  0  0  0  # atno 10763 bound_to 10752
  154.3736  135.2767  155.2254 H   0  0  0  0  0  0  0  0  0  0  0  0  # atno 10764 bound_to 10752
  154.4199  135.6061  153.6058 H   0  0  0  0  0  0  0  0  0  0  0  0  # atno 10765 bound_to 10752
  141.0468  133.9750  157.2904 H   0  0  0  0  0  0  0  0  0  0  0  0  # atno 11005 bound_to 11000
  145.9819  139.2948  143.1037 LP  0  0  0  0  0  0  0  0  0  0  0  0  # atno 17320 bound_to 7965
  145.9001  140.9248  143.0507 LP  0  0  0  0  0  0  0  0  0  0  0  0  # atno 17321 bound_to 7965
  140.7451  143.2870  151.3435 LP  0  0  0  0  0  0  0  0  0  0  0  0  # atno 17342 bound_to 10162
  139.6333  144.0679  152.2494 LP  0  0  0  0  0  0  0  0  0  0  0  0  # atno 17343 bound_to 10162
  157.7110  130.9440  150.1090 LP  0  0  0  0  0  0  0  0  0  0  0  0  # atno 17370 bound_to 10713
  156.2012  130.3660  149.8785 LP  0  0  0  0  0  0  0  0  0  0  0  0  # atno 17371 bound_to 10713
  139.9318  135.0199  156.8425 LP  0  0  0  0  0  0  0  0  0  0  0  0  # atno 17394 bound_to 11000
  140.6131  134.0063  155.7585 LP  0  0  0  0  0  0  0  0  0  0  0  0  # atno 17395 bound_to 11000

$$$$
