AV-unprocessed.smi:1624|AV-procd|sdf|6504|dock10
  -GOLD-   22720 7173D 1   1.00000     0.00000
 Structure written by MMmdl.
 35 36  0  0  0  0  0  0  0  0  2 V2000
  149.2560  135.7128  158.7957 O   0  0  0  0  0  0  0  0  0  0  0  0
  148.9038  136.7727  159.3190 C   0  0  0  0  0  0  0  0  0  0  0  0
  149.3327  137.9403  158.8178 N   0  0  0  0  0  0  0  0  0  0  0  0
  150.2048  138.1005  157.6596 C   0  0  0  0  0  0  0  0  0  0  0  0
  150.1040  139.5191  157.0695 C   0  0  0  0  0  0  0  0  0  0  0  0
  149.1898  139.5579  155.9231 N   0  0  0  0  0  0  0  0  0  0  0  0
  147.7582  139.4421  156.2404 C   0  0  0  0  0  0  0  0  0  0  0  0
  146.9737  140.7586  156.0441 C   0  0  0  0  0  0  0  0  0  0  0  0
  147.4753  141.6843  154.9182 C   0  0  0  0  0  0  0  0  0  0  0  0
  147.6731  140.9999  153.5493 C   0  0  0  0  0  0  0  0  0  0  0  0
  148.6044  139.7628  153.5176 C   0  0  0  0  0  0  0  0  0  0  0  0
  149.6399  139.7072  154.6534 C   0  0  0  0  0  0  0  0  0  0  0  0
  150.8348  139.7978  154.3704 O   0  0  0  0  0  0  0  0  0  0  0  0
  148.0897  136.9041  160.3912 N   0  5  0  0  0  0  0  0  0  0  0  0
  147.5451  135.8140  160.9565 C   0  0  0  0  0  0  0  0  0  0  0  0
  147.1274  134.7614  160.2351 N   0  0  0  0  0  0  0  0  0  0  0  0
  146.5987  133.7408  161.0143 N   0  0  0  0  0  0  0  0  0  0  0  0
  146.6404  134.0477  162.3105 C   0  0  0  0  0  0  0  0  0  0  0  0
  147.3308  135.6097  162.6973 S   0  0  0  0  0  0  0  0  0  0  0  0
  149.0213  138.7845  159.2755 H   0  0  0  0  0  0  0  0  0  0  0  0
  151.2277  137.8953  157.9759 H   0  0  0  0  0  0  0  0  0  0  0  0
  149.9590  137.3522  156.9042 H   0  0  0  0  0  0  0  0  0  0  0  0
  149.7682  140.2234  157.8319 H   0  0  0  0  0  0  0  0  0  0  0  0
  151.0942  139.8719  156.7757 H   0  0  0  0  0  0  0  0  0  0  0  0
  147.3172  138.6557  155.6276 H   0  0  0  0  0  0  0  0  0  0  0  0
  147.6141  139.0878  157.2620 H   0  0  0  0  0  0  0  0  0  0  0  0
  145.9224  140.5199  155.8805 H   0  0  0  0  0  0  0  0  0  0  0  0
  147.0054  141.3231  156.9765 H   0  0  0  0  0  0  0  0  0  0  0  0
  146.7704  142.5081  154.8022 H   0  0  0  0  0  0  0  0  0  0  0  0
  148.4097  142.1555  155.2269 H   0  0  0  0  0  0  0  0  0  0  0  0
  146.6982  140.7097  153.1565 H   0  0  0  0  0  0  0  0  0  0  0  0
  148.0582  141.7435  152.8509 H   0  0  0  0  0  0  0  0  0  0  0  0
  148.0122  138.8480  153.5390 H   0  0  0  0  0  0  0  0  0  0  0  0
  149.1249  139.7327  152.5596 H   0  0  0  0  0  0  0  0  0  0  0  0
  146.2654  133.3493  163.0436 H   0  0  0  0  0  0  0  0  0  0  0  0
  1  2  2  0  0  0  0
  2  3  1  0  0  0  0
  2 14  1  0  0  0  0
  3  4  1  0  0  0  0
  3 20  1  0  0  0  0
  4  5  1  0  0  0  0
  4 21  1  0  0  0  0
  4 22  1  0  0  0  0
  5  6  1  0  0  0  0
  5 23  1  0  0  0  0
  5 24  1  0  0  0  0
  6 12  1  0  0  0  0
  6  7  1  0  0  0  0
  7  8  1  0  0  0  0
  7 25  1  0  0  0  0
  7 26  1  0  0  0  0
  8  9  1  0  0  0  0
  8 27  1  0  0  0  0
  8 28  1  0  0  0  0
  9 10  1  0  0  0  0
  9 29  1  0  0  0  0
  9 30  1  0  0  0  0
 10 11  1  0  0  0  0
 10 31  1  0  0  0  0
 10 32  1  0  0  0  0
 11 12  1  0  0  0  0
 11 33  1  0  0  0  0
 11 34  1  0  0  0  0
 12 13  2  0  0  0  0
 14 15  1  0  0  0  0
 15 19  1  0  0  0  0
 15 16  2  0  0  0  0
 16 17  1  0  0  0  0
 17 18  2  0  0  0  0
 18 19  1  0  0  0  0
 18 35  1  0  0  0  0
M  CHG  1  14  -1
M  END
> <s_m_source_file>
AV-unprocessed.smi

> <i_m_source_file_index>
1624

> <i_lp_mmshare_version>
43012

> <i_f3d_flags>
0

> <s_epik_input>
czFbY0hdbm5jMVtOSF1DKD1PKVtOSF1bQ0gyXVtDSDJdTjJbQ0gyXVtDSDJdW0NIMl1bQ0gyXVtDSDJdQzI9Tw==

> <s_epik_cmdline>
J2VwaWtfcHl0aG9uJywgJy1waCcsICc3LjAnLCAnLXRuJywgJzgnLCAnLW1hJywgJzIwMCcsICctbWV0YWxfYmluZGluZycsICctaW1hZScsICc8aW5maWxlLm1hZT4nLCAnLW9tYWUnLCAnPG91dGZpbGUubWFlPic=

> <r_lp_tautomer_probability>
1

> <r_epik_Ionization_Penalty>
3.35684

> <r_epik_Ionization_Penalty_Charging>
3.31562

> <r_epik_Ionization_Penalty_Neutral>
0.0412242

> <r_epik_State_Penalty>
3.31341

> <r_epik_Charging_Adjusted_Penalty>
6.62903

> <i_epik_Tot_Q>
-1

> <i_epik_Tot_abs_Q>
1

> <r_epik_Metal_State_Penalty>
0.484053

> <b_epik_Metal_Only>
1

> <s_lp_Force_Field>
OPLS_2005

> <r_lp_Energy>
19.6576

> <b_lp_Chiralities_Consistent>
1

> <s_lp_Variant>
AV-unprocessed.smi:1624-2

> <Gold.Version>
5.8.1

> <Gold.Id.Protein>
6NUR|6NUR_protein|mol2

> <Gold.PLP.Fitness>
41.0638

> <Gold.PLP.PLP>
-28.4323

> <Gold.PLP.part.hbond>
-4.0000

> <Gold.PLP.part.metal>
0.0000

> <Gold.PLP.part.buried>
-1.0685

> <Gold.PLP.part.nonpolar>
-24.4490

> <Gold.PLP.part.repulsive>
0.3439

> <Gold.PLP.ligand.clash>
0.0000

> <Gold.PLP.ligand.torsion>
0.8172

> <Gold.PLP.Chemscore.Hbond>
4.7486

> <Gold.PLP.Chemscore.CHOScore>
0.0000

> <Gold.PLP.Chemscore.Metal>
0.0000

> <Gold.Chemscore.Hbonds>
donor molecule, donor type, donor heavy atom, donor atom, acceptor molecule, acceptor atom, score
      P1  H  6896  6907       L1     1  1.00
      P1  H  6931  6943       L1    14  0.84
      P1  H  6934  6947       L1    14  0.28
      P1  H  7989  7998       L1    13  1.00

> <Gold.PLP.Chemscore.Internal.Correction>
0.0200

> <Gold.Rescore>
     Score         DG    S(hbond)    S(metal)    S(lipo)     H(rot)  DE(clash)    DE(int)     intcor
     13.29     -16.85       3.02        0.00      48.84       1.73       1.30       2.26       ----

> <Gold.Chemscore.Fitness>
13.2911

> <Gold.Chemscore.DG>
-16.8523

> <Gold.Chemscore.ZeroCoef>
-5.4800

> <Gold.Chemscore.Hbond>
3.0234

> <Gold.Chemscore.Metal>
0.0000

> <Gold.Chemscore.Lipo>
48.8447

> <Gold.Chemscore.Internal_Hbond>
0.0000

> <Gold.Chemscore.DEClash>
1.2985

> <Gold.Chemscore.DEInternal>
2.2627

> <Gold.Chemscore.Rot>
1.7346

> <Gold.Chemscore.Internal.Correction>
   9.000000E+99

> <Gold.Chemscore.Hbonds>
donor molecule, donor type, donor heavy atom, donor atom, acceptor molecule, acceptor atom, score
      P1  H  6896  6907       L1     1  0.98
      P1  H  6931  6943       L1    14  0.25
      P1  H  6934  6947       L1    14  0.14
      P1  H  7989  7998       L1    13  0.98

> <Gold.Chemscore.Hbond.Weighted>
-10.0981

> <Gold.Chemscore.Metal.Weighted>
-0.0000

> <Gold.Chemscore.Lipo.Weighted>
-5.7148

> <Gold.Chemscore.Internal_Hbond.Weighted>
0.0000

> <Gold.Chemscore.DEClash.Weighted>
1.2985

> <Gold.Chemscore.DEInternal.Weighted>
2.2627

> <Gold.Chemscore.Rot.Weighted>
4.4406

> <Gold.Chemscore.Internal.Correction.Weighted>
   9.000000E+99

> <Gold.Protein.RotatedTorsions>
[ 6907 6896 6895 6894 ] final  -69.66 input  -60.11 | X-H torsion
[ 7974 7965 7964 7962 ] final   18.26 input  175.53 | X-H torsion
[ 8008 7997 7996 7995 ] final   -1.03 input   59.86 | X-H torsion
[ 10167 10162 10161 10158 ] final   80.32 input  -65.29 | X-H torsion
[ 10718 10713 10712 10709 ] final  -42.40 input   66.30 | X-H torsion
[ 10763 10752 10751 10750 ] final  100.14 input  -60.55 | X-H torsion
[ 11005 11000 10999 10996 ] final   52.79 input  -57.11 | X-H torsion

> <Gold.Protein.ActiveResidues>
 VAL166  LYS551  ARG553  GLY616  TRP617  ASP618  TYR619  PRO620  LYS621  CYS622 
 ASP623  PHE694  ASN695  SER759  ASP760  ASP761  ALA762  ILE779  LEU786  VAL792 
 PHE793  MET794  SER795  GLU796  ALA797  LYS798  CYS799  TRP800  GLU811  SER814 

> <Gold.Protein.RotatedAtoms>
  150.7295  134.5565  159.5820 H   0  0  0  0  0  0  0  0  0  0  0  0  # atno 6907 bound_to 6896
  152.3039  134.7575  160.0361 H   0  0  0  0  0  0  0  0  0  0  0  0  # atno 6908 bound_to 6896
  151.8147  133.3351  159.3602 H   0  0  0  0  0  0  0  0  0  0  0  0  # atno 6909 bound_to 6896
  146.2191  139.8483  142.8627 H   0  0  0  0  0  0  0  0  0  0  0  0  # atno 7974 bound_to 7965
  154.6513  140.2569  155.7210 H   0  0  0  0  0  0  0  0  0  0  0  0  # atno 8008 bound_to 7997
  156.2576  140.2867  156.0869 H   0  0  0  0  0  0  0  0  0  0  0  0  # atno 8009 bound_to 7997
  155.1446  140.0381  157.2797 H   0  0  0  0  0  0  0  0  0  0  0  0  # atno 8010 bound_to 7997
  139.9510  144.6026  150.8161 H   0  0  0  0  0  0  0  0  0  0  0  0  # atno 10167 bound_to 10162
  156.2600  130.4196  149.8553 H   0  0  0  0  0  0  0  0  0  0  0  0  # atno 10718 bound_to 10713
  153.3102  135.4089  155.1329 H   0  0  0  0  0  0  0  0  0  0  0  0  # atno 10763 bound_to 10752
  154.8574  135.3562  154.5734 H   0  0  0  0  0  0  0  0  0  0  0  0  # atno 10764 bound_to 10752
  153.6162  135.7066  153.5386 H   0  0  0  0  0  0  0  0  0  0  0  0  # atno 10765 bound_to 10752
  140.0820  134.5326  155.8937 H   0  0  0  0  0  0  0  0  0  0  0  0  # atno 11005 bound_to 11000
  145.2827  141.0143  143.3708 LP  0  0  0  0  0  0  0  0  0  0  0  0  # atno 17320 bound_to 7965
  144.9137  139.4496  143.6574 LP  0  0  0  0  0  0  0  0  0  0  0  0  # atno 17321 bound_to 7965
  140.7583  143.3104  151.2859 LP  0  0  0  0  0  0  0  0  0  0  0  0  # atno 17342 bound_to 10162
  139.6629  144.0158  152.2704 LP  0  0  0  0  0  0  0  0  0  0  0  0  # atno 17343 bound_to 10162
  156.6071  130.8571  151.3446 LP  0  0  0  0  0  0  0  0  0  0  0  0  # atno 17370 bound_to 10713
  157.7247  130.9606  150.1584 LP  0  0  0  0  0  0  0  0  0  0  0  0  # atno 17371 bound_to 10713
  141.2050  133.6643  156.6153 LP  0  0  0  0  0  0  0  0  0  0  0  0  # atno 17394 bound_to 11000
  140.3474  134.7797  157.4442 LP  0  0  0  0  0  0  0  0  0  0  0  0  # atno 17395 bound_to 11000

$$$$
