AV-unprocessed.smi:287|AV-procd|sdf|2195|dock5
  -GOLD-   2262021593D 1   1.00000     0.00000
 Structure written by MMmdl.
 55 58  0  0  0  0  0  0  0  0  1 V2000
  148.7612  125.7919  150.0406 C   0  0  0  0  0  0  0  0  0  0  0  0
  148.2507  126.6496  151.1472 C   0  0  0  0  0  0  0  0  0  0  0  0
  147.2144  127.5303  151.2574 C   0  0  0  0  0  0  0  0  0  0  0  0
  147.2422  128.0577  152.5836 C   0  0  0  0  0  0  0  0  0  0  0  0
  146.2745  129.0737  153.1760 C   0  0  1  0  0  0  0  0  0  0  0  0
  145.2611  129.5066  152.1042 C   0  0  0  0  0  0  0  0  0  0  0  0
  145.5028  128.5361  154.2330 O   0  0  0  0  0  0  0  0  0  0  0  0
  146.9894  130.3136  153.7614 C   0  0  0  0  0  0  0  0  0  0  0  0
  147.5243  131.1979  152.7339 N   0  0  0  0  0  0  0  0  0  0  0  0
  146.9666  132.4030  152.4942 C   0  0  0  0  0  0  0  0  0  0  0  0
  146.4702  132.5730  151.2468 N   0  0  0  0  0  0  0  0  0  0  0  0
  145.8938  133.7276  150.9079 C   0  0  0  0  0  0  0  0  0  0  0  0
  145.7145  134.8173  151.6538 N   0  0  0  0  0  0  0  0  0  0  0  0
  146.2130  134.6654  152.9153 C   0  0  0  0  0  0  0  0  0  0  0  0
  146.8552  133.4913  153.4107 C   0  0  0  0  0  0  0  0  0  0  0  0
  147.2421  133.7013  154.7281 N   0  0  0  0  0  0  0  0  0  0  0  0
  146.8537  134.9180  154.9887 C   0  0  0  0  0  0  0  0  0  0  0  0
  146.2107  135.5737  153.9634 N   0  0  0  0  0  0  0  0  0  0  0  0
  145.7012  136.9899  154.0147 C   0  0  1  0  0  0  0  0  0  0  0  0
  146.6819  137.7886  154.5942 O   0  0  0  0  0  0  0  0  0  0  0  0
  147.4714  138.3913  153.5791 C   0  0  2  0  0  0  0  0  0  0  0  0
  148.1447  139.6571  154.1309 C   0  0  0  0  0  0  0  0  0  0  0  0
  149.3100  139.3119  154.8489 O   0  0  0  0  0  0  0  0  0  0  0  0
  146.4458  138.6784  152.4707 C   0  0  1  0  0  0  0  0  0  0  0  0
  147.0587  138.5921  151.2000 O   0  0  0  0  0  0  0  0  0  0  0  0
  145.3784  137.5914  152.6356 C   0  0  2  0  0  0  0  0  0  0  0  0
  144.0895  138.1716  152.6219 O   0  0  0  0  0  0  0  0  0  0  0  0
  148.3001  127.4244  153.1893 C   0  0  0  0  0  0  0  0  0  0  0  0
  148.8836  127.4718  154.5628 C   0  0  0  0  0  0  0  0  0  0  0  0
  148.9215  126.5751  152.3243 O   0  0  0  0  0  0  0  0  0  0  0  0
  144.8319  136.9276  154.6711 H   0  0  0  0  0  0  0  0  0  0  0  0
  148.2230  137.6810  153.2343 H   0  0  0  0  0  0  0  0  0  0  0  0
  146.0139  139.6716  152.6060 H   0  0  0  0  0  0  0  0  0  0  0  0
  145.4107  136.8259  151.8610 H   0  0  0  0  0  0  0  0  0  0  0  0
  148.2671  126.0360  149.1001 H   0  0  0  0  0  0  0  0  0  0  0  0
  148.5808  124.7384  150.2542 H   0  0  0  0  0  0  0  0  0  0  0  0
  149.8337  125.9322  149.9042 H   0  0  0  0  0  0  0  0  0  0  0  0
  146.5168  127.7759  150.4703 H   0  0  0  0  0  0  0  0  0  0  0  0
  145.7617  129.9674  151.2518 H   0  0  0  0  0  0  0  0  0  0  0  0
  144.5481  130.2325  152.4967 H   0  0  0  0  0  0  0  0  0  0  0  0
  144.6925  128.6547  151.7283 H   0  0  0  0  0  0  0  0  0  0  0  0
  144.9090  129.2039  154.5404 H   0  0  0  0  0  0  0  0  0  0  0  0
  146.2645  130.8862  154.3414 H   0  0  0  0  0  0  0  0  0  0  0  0
  147.7815  130.0147  154.4496 H   0  0  0  0  0  0  0  0  0  0  0  0
  148.2483  130.8003  152.1527 H   0  0  0  0  0  0  0  0  0  0  0  0
  145.5215  133.7866  149.8959 H   0  0  0  0  0  0  0  0  0  0  0  0
  147.0299  135.3770  155.9506 H   0  0  0  0  0  0  0  0  0  0  0  0
  148.4476  140.3077  153.3098 H   0  0  0  0  0  0  0  0  0  0  0  0
  147.4629  140.2271  154.7628 H   0  0  0  0  0  0  0  0  0  0  0  0
  149.7787  140.1041  155.0620 H   0  0  0  0  0  0  0  0  0  0  0  0
  147.5650  137.7947  151.1651 H   0  0  0  0  0  0  0  0  0  0  0  0
  143.8140  138.2683  151.7231 H   0  0  0  0  0  0  0  0  0  0  0  0
  148.1060  127.3535  155.3174 H   0  0  0  0  0  0  0  0  0  0  0  0
  149.3828  128.4251  154.7367 H   0  0  0  0  0  0  0  0  0  0  0  0
  149.6156  126.6770  154.7093 H   0  0  0  0  0  0  0  0  0  0  0  0
  1  2  1  0  0  0  0
  1 35  1  0  0  0  0
  1 36  1  0  0  0  0
  1 37  1  0  0  0  0
  2 30  1  0  0  0  0
  2  3  2  0  0  0  0
  3  4  1  0  0  0  0
  3 38  1  0  0  0  0
  4  5  1  0  0  0  0
  4 28  2  0  0  0  0
  5  6  1  0  0  0  0
  5  7  1  0  0  0  0
  5  8  1  0  0  0  0
  6 39  1  0  0  0  0
  6 40  1  0  0  0  0
  6 41  1  0  0  0  0
  7 42  1  0  0  0  0
  8  9  1  0  0  0  0
  8 43  1  0  0  0  0
  8 44  1  0  0  0  0
  9 10  1  0  0  0  0
  9 45  1  0  0  0  0
 10 15  1  0  0  0  0
 10 11  2  0  0  0  0
 11 12  1  0  0  0  0
 12 13  2  0  0  0  0
 12 46  1  0  0  0  0
 13 14  1  0  0  0  0
 14 18  1  0  0  0  0
 14 15  2  0  0  0  0
 15 16  1  0  0  0  0
 16 17  2  0  0  0  0
 17 18  1  0  0  0  0
 17 47  1  0  0  0  0
 18 19  1  0  0  0  0
 19 31  1  0  0  0  0
 19 26  1  0  0  0  0
 19 20  1  0  0  0  0
 20 21  1  0  0  0  0
 21 32  1  0  0  0  0
 21 22  1  0  0  0  0
 21 24  1  0  0  0  0
 22 23  1  0  0  0  0
 22 48  1  0  0  0  0
 22 49  1  0  0  0  0
 23 50  1  0  0  0  0
 24 33  1  0  0  0  0
 24 25  1  0  0  0  0
 24 26  1  0  0  0  0
 25 51  1  0  0  0  0
 26 34  1  0  0  0  0
 26 27  1  0  0  0  0
 27 52  1  0  0  0  0
 28 29  1  0  0  0  0
 28 30  1  0  0  0  0
 29 53  1  0  0  0  0
 29 54  1  0  0  0  0
 29 55  1  0  0  0  0
M  END
> <s_m_source_file>
AV-unprocessed.smi

> <i_m_source_file_index>
287

> <i_lp_mmshare_version>
43012

> <i_f3d_flags>
0

> <s_epik_input>
W0NIM11jMVtjSF1jKGMobzEpW0NIM10pW0NAQF0oW0NIM10pKFtPSF0pW0NIMl1bTkhdYyhuW2NIXW4yKWMoYzIzKW5bY0hdbjNbQ0BASF00T1tDQEhdKFtDSDJdW09IXSlbQ0BASF0oW09IXSlbQ0BIXTRbT0hd

> <s_epik_cmdline>
J2VwaWtfcHl0aG9uJywgJy1waCcsICc3LjAnLCAnLXRuJywgJzgnLCAnLW1hJywgJzIwMCcsICctbWV0YWxfYmluZGluZycsICctaW1hZScsICc8aW5maWxlLm1hZT4nLCAnLW9tYWUnLCAnPG91dGZpbGUubWFlPic=

> <r_lp_tautomer_probability>
1

> <r_epik_Ionization_Penalty>
0.000992612

> <r_epik_Ionization_Penalty_Charging>
0

> <r_epik_Ionization_Penalty_Neutral>
0.000992612

> <r_epik_State_Penalty>
-0

> <r_epik_Charging_Adjusted_Penalty>
0

> <i_epik_Tot_Q>
0

> <i_epik_Tot_abs_Q>
0

> <r_epik_Metal_State_Penalty>
-0

> <b_epik_Metal_Only>
0

> <s_epik_Chemistry_Notes>
This compound contains an acetal/aminal-like group ( X-CH(R)-Y where X, Y are N, S, or O) that may be acid/base labile, releasing an aldehyde.

> <s_lp_Force_Field>
OPLS_2005

> <r_lp_Energy>
36.8397

> <b_lp_Chiralities_Consistent>
1

> <s_lp_Variant>
AV-unprocessed.smi:287-19

> <Gold.Version>
5.8.1

> <Gold.Id.Protein>
6NUR|6NUR_protein|mol2

> <Gold.PLP.Fitness>
55.9602

> <Gold.PLP.PLP>
-44.2499

> <Gold.PLP.part.hbond>
-6.5586

> <Gold.PLP.part.metal>
0.0000

> <Gold.PLP.part.buried>
-7.9370

> <Gold.PLP.part.nonpolar>
-32.3105

> <Gold.PLP.part.repulsive>
1.7551

> <Gold.PLP.ligand.clash>
0.0000

> <Gold.PLP.ligand.torsion>
1.3115

> <Gold.PLP.Chemscore.Hbond>
3.7360

> <Gold.PLP.Chemscore.CHOScore>
1.0000

> <Gold.PLP.Chemscore.Metal>
0.0000

> <Gold.Chemscore.Hbonds>
donor molecule, donor type, donor heavy atom, donor atom, acceptor molecule, acceptor atom, score
      L1  H     7    42       P1 10956  0.86
      L1  H     9    45       P1 10747  0.86
      L1  H    25    51       P1  7948  0.68
      L1  H    27    52       P1 10171  1.00
      L1  C    12    46       P1  7921  0.94

> <Gold.PLP.Chemscore.Internal.Correction>
0.1252

> <Gold.Rescore>
     Score         DG    S(hbond)    S(metal)    S(lipo)     H(rot)  DE(clash)    DE(int)     intcor
     10.92     -14.47       3.52        0.00      91.68       5.27       1.17       2.37       ----

> <Gold.Chemscore.Fitness>
10.9216

> <Gold.Chemscore.DG>
-14.4670

> <Gold.Chemscore.ZeroCoef>
-5.4800

> <Gold.Chemscore.Hbond>
3.5164

> <Gold.Chemscore.Metal>
0.0000

> <Gold.Chemscore.Lipo>
91.6774

> <Gold.Chemscore.Internal_Hbond>
0.0000

> <Gold.Chemscore.DEClash>
1.1736

> <Gold.Chemscore.DEInternal>
2.3717

> <Gold.Chemscore.Rot>
5.2672

> <Gold.Chemscore.Internal.Correction>
   9.000000E+99

> <Gold.Chemscore.Hbonds>
donor molecule, donor type, donor heavy atom, donor atom, acceptor molecule, acceptor atom, score
      L1  H     7    42       P1 10956  0.85
      L1  H     9    45       P1 10747  0.81
      L1  H    25    51       P1  7948  0.68
      L1  H    27    52       P1 10171  0.96

> <Gold.Chemscore.Hbond.Weighted>
-11.7446

> <Gold.Chemscore.Metal.Weighted>
-0.0000

> <Gold.Chemscore.Lipo.Weighted>
-10.7263

> <Gold.Chemscore.Internal_Hbond.Weighted>
0.0000

> <Gold.Chemscore.DEClash.Weighted>
1.1736

> <Gold.Chemscore.DEInternal.Weighted>
2.3717

> <Gold.Chemscore.Rot.Weighted>
13.4839

> <Gold.Chemscore.Internal.Correction.Weighted>
   9.000000E+99

> <Gold.Protein.RotatedTorsions>
[ 6907 6896 6895 6894 ] final   82.73 input  -60.11 | X-H torsion
[ 7974 7965 7964 7962 ] final   34.57 input  175.53 | X-H torsion
[ 8008 7997 7996 7995 ] final  -72.38 input   59.86 | X-H torsion
[ 10167 10162 10161 10158 ] final -118.17 input  -65.29 | X-H torsion
[ 10718 10713 10712 10709 ] final   56.85 input   66.30 | X-H torsion
[ 10763 10752 10751 10750 ] final -173.81 input  -60.55 | X-H torsion
[ 11005 11000 10999 10996 ] final   52.00 input  -57.11 | X-H torsion

> <Gold.Protein.ActiveResidues>
 VAL166  LYS551  ARG553  GLY616  TRP617  ASP618  TYR619  PRO620  LYS621  CYS622 
 ASP623  PHE694  ASN695  SER759  ASP760  ASP761  ALA762  ILE779  LEU786  VAL792 
 PHE793  MET794  SER795  GLU796  ALA797  LYS798  CYS799  TRP800  GLU811  SER814 

> <Gold.Protein.RotatedAtoms>
  152.5307  134.3005  159.9076 H   0  0  0  0  0  0  0  0  0  0  0  0  # atno 6907 bound_to 6896
  151.2955  133.4139  159.2643 H   0  0  0  0  0  0  0  0  0  0  0  0  # atno 6908 bound_to 6896
  151.0163  134.9452  159.8092 H   0  0  0  0  0  0  0  0  0  0  0  0  # atno 6909 bound_to 6896
  146.1344  139.6253  142.9205 H   0  0  0  0  0  0  0  0  0  0  0  0  # atno 7974 bound_to 7965
  154.5162  140.0798  156.8085 H   0  0  0  0  0  0  0  0  0  0  0  0  # atno 8008 bound_to 7997
  155.3676  140.3421  155.4224 H   0  0  0  0  0  0  0  0  0  0  0  0  # atno 8009 bound_to 7997
  156.1630  140.1594  156.8567 H   0  0  0  0  0  0  0  0  0  0  0  0  # atno 8010 bound_to 7997
  140.0604  143.4973  152.2035 H   0  0  0  0  0  0  0  0  0  0  0  0  # atno 10167 bound_to 10162
  157.5466  130.8735  149.8900 H   0  0  0  0  0  0  0  0  0  0  0  0  # atno 10718 bound_to 10713
  154.6035  135.2857  155.0509 H   0  0  0  0  0  0  0  0  0  0  0  0  # atno 10763 bound_to 10752
  154.1765  135.6464  153.5027 H   0  0  0  0  0  0  0  0  0  0  0  0  # atno 10764 bound_to 10752
  153.0166  135.5413  154.6763 H   0  0  0  0  0  0  0  0  0  0  0  0  # atno 10765 bound_to 10752
  140.0886  134.5241  155.8875 H   0  0  0  0  0  0  0  0  0  0  0  0  # atno 11005 bound_to 11000
  145.5189  141.0432  143.2446 LP  0  0  0  0  0  0  0  0  0  0  0  0  # atno 17320 bound_to 7965
  144.7724  139.6705  143.7189 LP  0  0  0  0  0  0  0  0  0  0  0  0  # atno 17321 bound_to 7965
  139.5897  144.7545  151.3431 LP  0  0  0  0  0  0  0  0  0  0  0  0  # atno 17342 bound_to 10162
  140.7174  143.7228  150.7683 LP  0  0  0  0  0  0  0  0  0  0  0  0  # atno 17343 bound_to 10162
  156.0541  130.3712  150.1133 LP  0  0  0  0  0  0  0  0  0  0  0  0  # atno 17370 bound_to 10713
  156.9309  130.9713  151.3533 LP  0  0  0  0  0  0  0  0  0  0  0  0  # atno 17371 bound_to 10713
  141.2070  133.6660  156.6280 LP  0  0  0  0  0  0  0  0  0  0  0  0  # atno 17394 bound_to 11000
  140.3385  134.7869  157.4380 LP  0  0  0  0  0  0  0  0  0  0  0  0  # atno 17395 bound_to 11000

$$$$
