AV-unprocessed.smi:1844|AV-procd|sdf|7510|dock7
  -GOLD-   22720 9213D 1   1.00000     0.00000
 Structure written by MMmdl.
 45 46  0  0  0  0  0  0  0  0  1 V2000
  149.4717  133.4524  154.5429 C   0  0  0  0  0  0  0  0  0  0  0  0
  149.4649  134.9040  154.4425 N   0  0  0  0  0  0  0  0  0  0  0  0
  150.0594  135.7304  155.3187 C   0  0  0  0  0  0  0  0  0  0  0  0
  150.6706  135.3019  156.2994 O   0  0  0  0  0  0  0  0  0  0  0  0
  149.9084  137.1503  154.9903 C   0  0  0  0  0  0  0  0  0  0  0  0
  148.8156  137.6683  154.1804 C   0  0  0  0  0  0  0  0  0  0  0  0
  148.7236  138.9862  153.9154 C   0  0  0  0  0  0  0  0  0  0  0  0
  149.7088  139.9463  154.4215 C   0  0  0  0  0  0  0  0  0  0  0  0
  149.6283  141.1519  154.1840 O   0  0  0  0  0  0  0  0  0  0  0  0
  150.7221  139.4177  155.1726 N   0  0  0  0  0  0  0  0  0  0  0  0
  151.7722  140.2832  155.7355 C   0  0  0  0  0  0  0  0  0  0  0  0
  151.6060  140.5466  157.2389 C   0  0  0  0  0  0  0  0  0  0  0  0
  151.7784  139.6461  158.0614 O   0  0  0  0  0  0  0  0  0  0  0  0
  151.2891  141.8063  157.5761 N   0  0  0  0  0  0  0  0  0  0  0  0
  151.0762  142.3129  158.9336 C   0  0  2  0  0  0  0  0  0  0  0  0
  150.2175  143.5929  158.8844 C   0  0  0  0  0  0  0  0  0  0  0  0
  150.9820  144.7847  158.2822 C   0  0  0  0  0  0  0  0  0  0  0  0
  152.3020  145.0324  159.0271 C   0  0  0  0  0  0  0  0  0  0  0  0
  153.1739  143.7668  159.0570 C   0  0  0  0  0  0  0  0  0  0  0  0
  152.4165  142.5699  159.6691 C   0  0  2  0  0  0  0  0  0  0  0  0
  153.3087  141.3195  159.7528 C   0  0  0  0  0  0  0  0  0  0  0  0
  150.8105  138.0393  155.4504 C   0  0  0  0  0  0  0  0  0  0  0  0
  148.9340  133.0195  153.6995 H   0  0  0  0  0  0  0  0  0  0  0  0
  148.9846  133.1248  155.4620 H   0  0  0  0  0  0  0  0  0  0  0  0
  150.4916  133.0662  154.5317 H   0  0  0  0  0  0  0  0  0  0  0  0
  148.9771  135.3099  153.6572 H   0  0  0  0  0  0  0  0  0  0  0  0
  148.0565  137.0149  153.7762 H   0  0  0  0  0  0  0  0  0  0  0  0
  147.9030  139.3473  153.3131 H   0  0  0  0  0  0  0  0  0  0  0  0
  152.7577  139.8436  155.5761 H   0  0  0  0  0  0  0  0  0  0  0  0
  151.7974  141.2359  155.2029 H   0  0  0  0  0  0  0  0  0  0  0  0
  151.1805  142.4760  156.8281 H   0  0  0  0  0  0  0  0  0  0  0  0
  150.5151  141.5742  159.5084 H   0  0  0  0  0  0  0  0  0  0  0  0
  149.3021  143.4123  158.3194 H   0  0  0  0  0  0  0  0  0  0  0  0
  149.9013  143.8495  159.8963 H   0  0  0  0  0  0  0  0  0  0  0  0
  151.1865  144.5990  157.2271 H   0  0  0  0  0  0  0  0  0  0  0  0
  150.3609  145.6800  158.3205 H   0  0  0  0  0  0  0  0  0  0  0  0
  152.8480  145.8491  158.5542 H   0  0  0  0  0  0  0  0  0  0  0  0
  152.0898  145.3534  160.0476 H   0  0  0  0  0  0  0  0  0  0  0  0
  153.5000  143.5237  158.0450 H   0  0  0  0  0  0  0  0  0  0  0  0
  154.0802  143.9663  159.6300 H   0  0  0  0  0  0  0  0  0  0  0  0
  152.1666  142.8414  160.6959 H   0  0  0  0  0  0  0  0  0  0  0  0
  153.6662  141.0112  158.7700 H   0  0  0  0  0  0  0  0  0  0  0  0
  152.7663  140.4800  160.1888 H   0  0  0  0  0  0  0  0  0  0  0  0
  154.1836  141.5057  160.3761 H   0  0  0  0  0  0  0  0  0  0  0  0
  151.6556  137.7629  156.0654 H   0  0  0  0  0  0  0  0  0  0  0  0
  1  2  1  0  0  0  0
  1 23  1  0  0  0  0
  1 24  1  0  0  0  0
  1 25  1  0  0  0  0
  2  3  1  0  0  0  0
  2 26  1  0  0  0  0
  3  4  2  0  0  0  0
  3  5  1  0  0  0  0
  5 22  2  0  0  0  0
  5  6  1  0  0  0  0
  6  7  2  0  0  0  0
  6 27  1  0  0  0  0
  7  8  1  0  0  0  0
  7 28  1  0  0  0  0
  8  9  2  0  0  0  0
  8 10  1  0  0  0  0
 10 11  1  0  0  0  0
 10 22  1  0  0  0  0
 11 12  1  0  0  0  0
 11 29  1  0  0  0  0
 11 30  1  0  0  0  0
 12 13  2  0  0  0  0
 12 14  1  0  0  0  0
 14 15  1  0  0  0  0
 14 31  1  0  0  0  0
 15 20  1  0  0  0  0
 15 16  1  0  0  0  0
 15 32  1  0  0  0  0
 16 17  1  0  0  0  0
 16 33  1  0  0  0  0
 16 34  1  0  0  0  0
 17 18  1  0  0  0  0
 17 35  1  0  0  0  0
 17 36  1  0  0  0  0
 18 19  1  0  0  0  0
 18 37  1  0  0  0  0
 18 38  1  0  0  0  0
 19 20  1  0  0  0  0
 19 39  1  0  0  0  0
 19 40  1  0  0  0  0
 20 21  1  0  0  0  0
 20 41  1  0  0  0  0
 21 42  1  0  0  0  0
 21 43  1  0  0  0  0
 21 44  1  0  0  0  0
 22 45  1  0  0  0  0
M  END
> <s_m_source_file>
AV-unprocessed.smi

> <i_m_source_file_index>
1844

> <i_lp_mmshare_version>
43012

> <i_f3d_flags>
0

> <s_epik_input>
W0NIM11bTkhdQyg9TyljMVtjSF1bY0hdYyg9TyluKFtjSF0xKVtDSDJdQyg9TylbTkhdW0NAQEhdMltDSDJdW0NIMl1bQ0gyXVtDSDJdW0NASF0yW0NIM10=

> <s_epik_cmdline>
J2VwaWtfcHl0aG9uJywgJy1waCcsICc3LjAnLCAnLXRuJywgJzgnLCAnLW1hJywgJzIwMCcsICctbWV0YWxfYmluZGluZycsICctaW1hZScsICc8aW5maWxlLm1hZT4nLCAnLW9tYWUnLCAnPG91dGZpbGUubWFlPic=

> <r_lp_tautomer_probability>
1

> <r_epik_Ionization_Penalty>
3.66612e-07

> <r_epik_Ionization_Penalty_Charging>
5.18929e-08

> <r_epik_Ionization_Penalty_Neutral>
3.14719e-07

> <r_epik_State_Penalty>
-0

> <r_epik_Charging_Adjusted_Penalty>
5.18929e-08

> <i_epik_Tot_Q>
0

> <i_epik_Tot_abs_Q>
0

> <r_epik_Metal_State_Penalty>
-0

> <b_epik_Metal_Only>
0

> <s_lp_Force_Field>
OPLS_2005

> <r_lp_Energy>
22.5965

> <b_lp_Chiralities_Consistent>
1

> <s_lp_Variant>
AV-unprocessed.smi:1844-3

> <Gold.Version>
5.8.1

> <Gold.Id.Protein>
6NUR|6NUR_protein|mol2

> <Gold.PLP.Fitness>
43.2887

> <Gold.PLP.PLP>
-40.5622

> <Gold.PLP.part.hbond>
-2.9641

> <Gold.PLP.part.metal>
0.0000

> <Gold.PLP.part.buried>
1.1968

> <Gold.PLP.part.nonpolar>
-38.4293

> <Gold.PLP.part.repulsive>
0.2782

> <Gold.PLP.ligand.clash>
0.0000

> <Gold.PLP.ligand.torsion>
0.8202

> <Gold.PLP.Chemscore.Hbond>
1.4519

> <Gold.PLP.Chemscore.CHOScore>
0.0000

> <Gold.PLP.Chemscore.Metal>
0.0000

> <Gold.Chemscore.Hbonds>
donor molecule, donor type, donor heavy atom, donor atom, acceptor molecule, acceptor atom, score
      L1  H     2    26       P1  7948  1.00
      P1  H  7989  7998       L1     9  0.07
      P1  H  8011  8017       L1     9  0.35

> <Gold.PLP.Chemscore.Internal.Correction>
0.0111

> <Gold.Rescore>
     Score         DG    S(hbond)    S(metal)    S(lipo)     H(rot)  DE(clash)    DE(int)     intcor
     15.49     -18.40       1.27        0.00     106.84       1.49       1.37       1.54       ----

> <Gold.Chemscore.Fitness>
15.4890

> <Gold.Chemscore.DG>
-18.3951

> <Gold.Chemscore.ZeroCoef>
-5.4800

> <Gold.Chemscore.Hbond>
1.2680

> <Gold.Chemscore.Metal>
0.0000

> <Gold.Chemscore.Lipo>
106.8408

> <Gold.Chemscore.Internal_Hbond>
0.0000

> <Gold.Chemscore.DEClash>
1.3657

> <Gold.Chemscore.DEInternal>
1.5404

> <Gold.Chemscore.Rot>
1.4923

> <Gold.Chemscore.Internal.Correction>
   9.000000E+99

> <Gold.Chemscore.Hbonds>
donor molecule, donor type, donor heavy atom, donor atom, acceptor molecule, acceptor atom, score
      L1  H     2    26       P1  7948  0.60
      P1  H  8011  8017       L1     9  0.35

> <Gold.Chemscore.Hbond.Weighted>
-4.2352

> <Gold.Chemscore.Metal.Weighted>
-0.0000

> <Gold.Chemscore.Lipo.Weighted>
-12.5004

> <Gold.Chemscore.Internal_Hbond.Weighted>
0.0000

> <Gold.Chemscore.DEClash.Weighted>
1.3657

> <Gold.Chemscore.DEInternal.Weighted>
1.5404

> <Gold.Chemscore.Rot.Weighted>
3.8204

> <Gold.Chemscore.Internal.Correction.Weighted>
   9.000000E+99

> <Gold.Protein.RotatedTorsions>
[ 6907 6896 6895 6894 ] final   36.83 input  -60.11 | X-H torsion
[ 7974 7965 7964 7962 ] final  -65.31 input  175.53 | X-H torsion
[ 8008 7997 7996 7995 ] final  127.73 input   59.86 | X-H torsion
[ 10167 10162 10161 10158 ] final   84.66 input  -65.29 | X-H torsion
[ 10718 10713 10712 10709 ] final -147.09 input   66.30 | X-H torsion
[ 10763 10752 10751 10750 ] final -153.78 input  -60.55 | X-H torsion
[ 11005 11000 10999 10996 ] final  -92.73 input  -57.11 | X-H torsion

> <Gold.Protein.ActiveResidues>
 VAL166  LYS551  ARG553  GLY616  TRP617  ASP618  TYR619  PRO620  LYS621  CYS622 
 ASP623  PHE694  ASN695  SER759  ASP760  ASP761  ALA762  ILE779  LEU786  VAL792 
 PHE793  MET794  SER795  GLU796  ALA797  LYS798  CYS799  TRP800  GLU811  SER814 

> <Gold.Protein.RotatedAtoms>
  152.1350  134.9106  160.0556 H   0  0  0  0  0  0  0  0  0  0  0  0  # atno 6907 bound_to 6896
  152.0196  133.3888  159.4261 H   0  0  0  0  0  0  0  0  0  0  0  0  # atno 6908 bound_to 6896
  150.6859  134.3562  159.4974 H   0  0  0  0  0  0  0  0  0  0  0  0  # atno 6909 bound_to 6896
  145.7558  140.8886  143.0456 H   0  0  0  0  0  0  0  0  0  0  0  0  # atno 7974 bound_to 7965
  156.2898  140.2662  156.2320 H   0  0  0  0  0  0  0  0  0  0  0  0  # atno 8008 bound_to 7997
  155.0063  140.0387  157.2399 H   0  0  0  0  0  0  0  0  0  0  0  0  # atno 8009 bound_to 7997
  154.7557  140.2751  155.6260 H   0  0  0  0  0  0  0  0  0  0  0  0  # atno 8010 bound_to 7997
  139.9058  144.6302  150.8589 H   0  0  0  0  0  0  0  0  0  0  0  0  # atno 10167 bound_to 10162
  156.4032  130.7944  151.2156 H   0  0  0  0  0  0  0  0  0  0  0  0  # atno 10718 bound_to 10713
  154.7904  135.3205  154.7790 H   0  0  0  0  0  0  0  0  0  0  0  0  # atno 10763 bound_to 10752
  153.8480  135.6865  153.4800 H   0  0  0  0  0  0  0  0  0  0  0  0  # atno 10764 bound_to 10752
  153.1572  135.4675  154.9661 H   0  0  0  0  0  0  0  0  0  0  0  0  # atno 10765 bound_to 10752
  141.1515  133.7840  157.0061 H   0  0  0  0  0  0  0  0  0  0  0  0  # atno 11005 bound_to 11000
  144.6840  139.9654  143.7481 LP  0  0  0  0  0  0  0  0  0  0  0  0  # atno 17320 bound_to 7965
  146.0312  139.3337  143.0754 LP  0  0  0  0  0  0  0  0  0  0  0  0  # atno 17321 bound_to 7965
  140.7697  143.3403  151.2223 LP  0  0  0  0  0  0  0  0  0  0  0  0  # atno 17342 bound_to 10162
  139.6986  143.9571  152.2894 LP  0  0  0  0  0  0  0  0  0  0  0  0  # atno 17343 bound_to 10162
  157.7504  131.0280  150.4031 LP  0  0  0  0  0  0  0  0  0  0  0  0  # atno 17370 bound_to 10713
  156.4315  130.3973  149.6757 LP  0  0  0  0  0  0  0  0  0  0  0  0  # atno 17371 bound_to 10713
  140.0908  134.9593  157.1773 LP  0  0  0  0  0  0  0  0  0  0  0  0  # atno 17394 bound_to 11000
  140.3448  134.2663  155.7206 LP  0  0  0  0  0  0  0  0  0  0  0  0  # atno 17395 bound_to 11000

$$$$
