AV-unprocessed.smi:2966|AV-procd|sdf|11325|dock5
  -GOLD-   2272016233D 1   1.00000     0.00000
 Structure written by MMmdl.
 41 43  0  0  0  0  0  0  0  0  2 V2000
  140.4125  136.4783  154.0949 C   0  0  0  0  0  0  0  0  0  0  0  0
  140.6560  135.1088  153.8279 O   0  0  0  0  0  0  0  0  0  0  0  0
  142.0338  134.8269  153.6440 C   0  0  0  0  0  0  0  0  0  0  0  0
  142.6357  135.8020  152.6232 C   0  0  0  0  0  0  0  0  0  0  0  0
  144.0329  135.4786  152.2995 N   0  0  0  0  0  0  0  0  0  0  0  0
  145.1748  136.1804  152.5374 C   0  0  0  0  0  0  0  0  0  0  0  0
  145.2905  137.7521  153.3260 S   0  0  0  0  0  0  0  0  0  0  0  0
  146.7673  138.5113  152.5942 C   0  0  0  0  0  0  0  0  0  0  0  0
  147.2716  139.7040  153.4049 C   0  0  0  0  0  0  0  0  0  0  0  0
  148.3370  139.6240  154.0158 O   0  0  0  0  0  0  0  0  0  0  0  0
  146.5091  140.8069  153.3785 N   0  0  0  0  0  0  0  0  0  0  0  0
  146.8167  142.0430  154.0206 C   0  0  0  0  0  0  0  0  0  0  0  0
  145.9175  142.4891  155.1528 C   0  0  0  0  0  0  0  0  0  0  0  0
  145.8527  143.1932  153.8256 C   0  0  0  0  0  0  0  0  0  0  0  0
  146.2165  135.4675  152.0297 N   0  3  0  0  0  0  0  0  0  0  0  0
  145.7371  134.2832  151.4677 C   0  0  0  0  0  0  0  0  0  0  0  0
  146.4069  133.2384  150.8383 C   0  0  0  0  0  0  0  0  0  0  0  0
  145.6154  132.1669  150.3754 C   0  0  0  0  0  0  0  0  0  0  0  0
  144.2157  132.1607  150.5454 C   0  0  0  0  0  0  0  0  0  0  0  0
  143.5470  133.2260  151.1836 C   0  0  0  0  0  0  0  0  0  0  0  0
  144.3359  134.2826  151.6380 C   0  0  0  0  0  0  0  0  0  0  0  0
  139.3434  136.6404  154.2316 H   0  0  0  0  0  0  0  0  0  0  0  0
  140.7459  137.1066  153.2679 H   0  0  0  0  0  0  0  0  0  0  0  0
  140.9203  136.7989  155.0055 H   0  0  0  0  0  0  0  0  0  0  0  0
  142.5634  134.9151  154.5938 H   0  0  0  0  0  0  0  0  0  0  0  0
  142.1605  133.8010  153.2940 H   0  0  0  0  0  0  0  0  0  0  0  0
  142.0482  135.8235  151.7054 H   0  0  0  0  0  0  0  0  0  0  0  0
  142.6145  136.8162  153.0215 H   0  0  0  0  0  0  0  0  0  0  0  0
  147.5548  137.7612  152.5175 H   0  0  0  0  0  0  0  0  0  0  0  0
  146.5314  138.8324  151.5790 H   0  0  0  0  0  0  0  0  0  0  0  0
  145.6513  140.7740  152.8465 H   0  0  0  0  0  0  0  0  0  0  0  0
  147.8685  142.3106  154.1142 H   0  0  0  0  0  0  0  0  0  0  0  0
  145.0801  141.8478  155.4217 H   0  0  0  0  0  0  0  0  0  0  0  0
  146.3804  143.0213  155.9815 H   0  0  0  0  0  0  0  0  0  0  0  0
  146.2737  144.1948  153.7662 H   0  0  0  0  0  0  0  0  0  0  0  0
  144.9708  143.0223  153.2109 H   0  0  0  0  0  0  0  0  0  0  0  0
  147.4793  133.2399  150.7079 H   0  0  0  0  0  0  0  0  0  0  0  0
  146.0913  131.3323  149.8812 H   0  0  0  0  0  0  0  0  0  0  0  0
  143.6422  131.3212  150.1798 H   0  0  0  0  0  0  0  0  0  0  0  0
  142.4750  133.2079  151.3128 H   0  0  0  0  0  0  0  0  0  0  0  0
  147.1812  135.7700  152.0669 H   0  0  0  0  0  0  0  0  0  0  0  0
  1  2  1  0  0  0  0
  1 22  1  0  0  0  0
  1 23  1  0  0  0  0
  1 24  1  0  0  0  0
  2  3  1  0  0  0  0
  3  4  1  0  0  0  0
  3 25  1  0  0  0  0
  3 26  1  0  0  0  0
  4  5  1  0  0  0  0
  4 27  1  0  0  0  0
  4 28  1  0  0  0  0
  5 21  1  0  0  0  0
  5  6  1  0  0  0  0
  6  7  1  0  0  0  0
  6 15  2  0  0  0  0
  7  8  1  0  0  0  0
  8  9  1  0  0  0  0
  8 29  1  0  0  0  0
  8 30  1  0  0  0  0
  9 10  2  0  0  0  0
  9 11  1  0  0  0  0
 11 12  1  0  0  0  0
 11 31  1  0  0  0  0
 12 14  1  0  0  0  0
 12 13  1  0  0  0  0
 12 32  1  0  0  0  0
 13 14  1  0  0  0  0
 13 33  1  0  0  0  0
 13 34  1  0  0  0  0
 14 35  1  0  0  0  0
 14 36  1  0  0  0  0
 15 16  1  0  0  0  0
 15 41  1  0  0  0  0
 16 21  2  0  0  0  0
 16 17  1  0  0  0  0
 17 18  2  0  0  0  0
 17 37  1  0  0  0  0
 18 19  1  0  0  0  0
 18 38  1  0  0  0  0
 19 20  2  0  0  0  0
 19 39  1  0  0  0  0
 20 21  1  0  0  0  0
 20 40  1  0  0  0  0
M  CHG  1  15   1
M  END
> <s_m_source_file>
AV-unprocessed.smi

> <i_m_source_file_index>
2966

> <i_lp_mmshare_version>
43012

> <i_f3d_flags>
0

> <s_epik_input>
W2NIXTFbY0hdW2NIXVtjSF1jKGMxMiluKFtDSDJdW0NIMl1PW0NIM10pYyhuMilTW0NIMl1DKD1PKVtOSF1bQ0hdM1tDSDJdW0NIMl0z

> <s_epik_cmdline>
J2VwaWtfcHl0aG9uJywgJy1waCcsICc3LjAnLCAnLXRuJywgJzgnLCAnLW1hJywgJzIwMCcsICctbWV0YWxfYmluZGluZycsICctaW1hZScsICc8aW5maWxlLm1hZT4nLCAnLW9tYWUnLCAnPG91dGZpbGUubWFlPic=

> <r_epik_Ionization_Penalty>
1.66257

> <r_epik_Ionization_Penalty_Charging>
1.66257

> <r_epik_Ionization_Penalty_Neutral>
8.69326e-08

> <r_epik_State_Penalty>
1.76557

> <r_epik_Charging_Adjusted_Penalty>
3.42813

> <i_epik_Tot_Q>
1

> <i_epik_Tot_abs_Q>
1

> <r_epik_Metal_State_Penalty>
1.80073

> <b_epik_Metal_Only>
0

> <s_lp_Force_Field>
OPLS_2005

> <r_lp_Energy>
20.3811

> <b_lp_Chiralities_Consistent>
1

> <s_lp_Variant>
AV-unprocessed.smi:2966-2

> <Gold.Version>
5.8.1

> <Gold.Id.Protein>
6NUR|6NUR_protein|mol2

> <Gold.PLP.Fitness>
55.0849

> <Gold.PLP.PLP>
-44.2644

> <Gold.PLP.part.hbond>
-3.4740

> <Gold.PLP.part.metal>
0.0000

> <Gold.PLP.part.buried>
-7.6699

> <Gold.PLP.part.nonpolar>
-34.7226

> <Gold.PLP.part.repulsive>
1.1441

> <Gold.PLP.ligand.clash>
0.0000

> <Gold.PLP.ligand.torsion>
0.6005

> <Gold.PLP.Chemscore.Hbond>
3.9588

> <Gold.PLP.Chemscore.CHOScore>
0.0000

> <Gold.PLP.Chemscore.Metal>
0.0000

> <Gold.Chemscore.Hbonds>
donor molecule, donor type, donor heavy atom, donor atom, acceptor molecule, acceptor atom, score
      L1  H    11    31       P1 10175  1.00
      L1  H    15    41       P1  7948  2.00
      P1  H 11000 11005       L1     2  0.83

> <Gold.PLP.Chemscore.Internal.Correction>
0.1453

> <Gold.Rescore>
     Score         DG    S(hbond)    S(metal)    S(lipo)     H(rot)  DE(clash)    DE(int)     intcor
     16.45     -16.98       1.99        0.00      89.98       2.21       0.02       0.51       ----

> <Gold.Chemscore.Fitness>
16.4530

> <Gold.Chemscore.DG>
-16.9788

> <Gold.Chemscore.ZeroCoef>
-5.4800

> <Gold.Chemscore.Hbond>
1.9883

> <Gold.Chemscore.Metal>
0.0000

> <Gold.Chemscore.Lipo>
89.9818

> <Gold.Chemscore.Internal_Hbond>
0.0000

> <Gold.Chemscore.DEClash>
0.0166

> <Gold.Chemscore.DEInternal>
0.5092

> <Gold.Chemscore.Rot>
2.2149

> <Gold.Chemscore.Internal.Correction>
   9.000000E+99

> <Gold.Chemscore.Hbonds>
donor molecule, donor type, donor heavy atom, donor atom, acceptor molecule, acceptor atom, score
      L1  H    11    31       P1 10175  0.42
      L1  H    15    41       P1  7948  1.00
      P1  H 11000 11005       L1     2  0.06

> <Gold.Chemscore.Hbond.Weighted>
-6.6409

> <Gold.Chemscore.Metal.Weighted>
-0.0000

> <Gold.Chemscore.Lipo.Weighted>
-10.5279

> <Gold.Chemscore.Internal_Hbond.Weighted>
0.0000

> <Gold.Chemscore.DEClash.Weighted>
0.0166

> <Gold.Chemscore.DEInternal.Weighted>
0.5092

> <Gold.Chemscore.Rot.Weighted>
5.6700

> <Gold.Chemscore.Internal.Correction.Weighted>
   9.000000E+99

> <Gold.Protein.RotatedTorsions>
[ 6907 6896 6895 6894 ] final   -7.04 input  -60.11 | X-H torsion
[ 7974 7965 7964 7962 ] final  164.30 input  175.53 | X-H torsion
[ 8008 7997 7996 7995 ] final  126.29 input   59.86 | X-H torsion
[ 10167 10162 10161 10158 ] final   18.36 input  -65.29 | X-H torsion
[ 10718 10713 10712 10709 ] final   -7.79 input   66.30 | X-H torsion
[ 10763 10752 10751 10750 ] final  -47.00 input  -60.55 | X-H torsion
[ 11005 11000 10999 10996 ] final   31.94 input  -57.11 | X-H torsion

> <Gold.Protein.ActiveResidues>
 VAL166  LYS551  ARG553  GLY616  TRP617  ASP618  TYR619  PRO620  LYS621  CYS622 
 ASP623  PHE694  ASN695  SER759  ASP760  ASP761  ALA762  ILE779  LEU786  VAL792 
 PHE793  MET794  SER795  GLU796  ALA797  LYS798  CYS799  TRP800  GLU811  SER814 

> <Gold.Protein.RotatedAtoms>
  151.4559  135.1034  159.9710 H   0  0  0  0  0  0  0  0  0  0  0  0  # atno 6907 bound_to 6896
  152.4871  133.8397  159.7157 H   0  0  0  0  0  0  0  0  0  0  0  0  # atno 6908 bound_to 6896
  150.8990  133.7083  159.2911 H   0  0  0  0  0  0  0  0  0  0  0  0  # atno 6909 bound_to 6896
  144.7551  139.8306  143.6352 H   0  0  0  0  0  0  0  0  0  0  0  0  # atno 7974 bound_to 7965
  156.2859  140.2696  156.2087 H   0  0  0  0  0  0  0  0  0  0  0  0  # atno 8008 bound_to 7997
  155.0286  140.0386  157.2483 H   0  0  0  0  0  0  0  0  0  0  0  0  # atno 8009 bound_to 7997
  154.7374  140.2718  155.6408 H   0  0  0  0  0  0  0  0  0  0  0  0  # atno 8010 bound_to 7997
  140.5659  143.9252  150.6676 H   0  0  0  0  0  0  0  0  0  0  0  0  # atno 10167 bound_to 10162
  156.7121  130.5125  149.5889 H   0  0  0  0  0  0  0  0  0  0  0  0  # atno 10718 bound_to 10713
  154.0543  135.6627  153.4804 H   0  0  0  0  0  0  0  0  0  0  0  0  # atno 10763 bound_to 10752
  153.0451  135.5119  154.7721 H   0  0  0  0  0  0  0  0  0  0  0  0  # atno 10764 bound_to 10752
  154.6737  135.3033  154.9674 H   0  0  0  0  0  0  0  0  0  0  0  0  # atno 10765 bound_to 10752
  140.2787  134.2998  155.7807 H   0  0  0  0  0  0  0  0  0  0  0  0  # atno 11005 bound_to 11000
  146.1551  139.4647  143.0024 LP  0  0  0  0  0  0  0  0  0  0  0  0  # atno 17320 bound_to 7965
  145.6807  141.0192  143.1608 LP  0  0  0  0  0  0  0  0  0  0  0  0  # atno 17321 bound_to 7965
  140.2715  143.3453  152.1234 LP  0  0  0  0  0  0  0  0  0  0  0  0  # atno 17342 bound_to 10162
  139.5093  144.6864  151.5876 LP  0  0  0  0  0  0  0  0  0  0  0  0  # atno 17343 bound_to 10162
  156.1654  130.6401  151.0771 LP  0  0  0  0  0  0  0  0  0  0  0  0  # atno 17370 bound_to 10713
  157.6932  131.0803  150.7047 LP  0  0  0  0  0  0  0  0  0  0  0  0  # atno 17371 bound_to 10713
  141.2166  133.7511  156.9447 LP  0  0  0  0  0  0  0  0  0  0  0  0  # atno 17394 bound_to 11000
  140.1304  134.9359  157.2329 LP  0  0  0  0  0  0  0  0  0  0  0  0  # atno 17395 bound_to 11000

$$$$
