AV-unprocessed.smi:1056|AV-procd|sdf|4633|dock6
  -GOLD-   22720 3133D 1   1.00000     0.00000
 Structure written by MMmdl.
 45 47  0  0  0  0  0  0  0  0  2 V2000
  151.9170  142.9498  160.0015 C   0  0  0  0  0  0  0  0  0  0  0  0
  151.4493  142.1711  158.7847 C   0  0  0  0  0  0  0  0  0  0  0  0
  152.3411  141.2681  158.1630 C   0  0  0  0  0  0  0  0  0  0  0  0
  151.9462  140.5258  157.0286 C   0  0  0  0  0  0  0  0  0  0  0  0
  152.6433  139.6004  156.2708 N   0  0  0  0  0  0  0  0  0  0  0  0
  151.7378  139.2641  155.3568 C   0  0  0  0  0  0  0  0  0  0  0  0
  150.5357  139.8677  155.4302 N   0  0  0  0  0  0  0  0  0  0  0  0
  149.3956  139.6677  154.5556 C   0  0  0  0  0  0  0  0  0  0  0  0
  148.4645  140.8968  154.5172 C   0  0  1  0  0  0  0  0  0  0  0  0
  149.2112  142.0340  154.1345 O   0  0  0  0  0  0  0  0  0  0  0  0
  147.2991  140.7339  153.5212 C   0  0  0  0  0  0  0  0  0  0  0  0
  146.1727  141.6615  153.7963 N   0  3  1  0  0  0  0  0  0  0  0  0
  145.8331  141.7834  155.2346 C   0  0  0  0  0  0  0  0  0  0  0  0
  144.5290  142.5825  155.4043 C   0  0  0  0  0  0  0  0  0  0  0  0
  144.4665  143.7638  154.5467 N   0  0  0  0  0  0  0  0  0  0  0  0
  145.2710  144.0088  153.4995 C   0  0  0  0  0  0  0  0  0  0  0  0
  145.1507  145.0209  152.8145 O   0  0  0  0  0  0  0  0  0  0  0  0
  146.3698  142.9899  153.1614 C   0  0  0  0  0  0  0  0  0  0  0  0
  150.6243  140.7136  156.5300 C   0  0  0  0  0  0  0  0  0  0  0  0
  149.7269  141.6081  157.1399 C   0  0  0  0  0  0  0  0  0  0  0  0
  150.1385  142.3432  158.2711 C   0  0  0  0  0  0  0  0  0  0  0  0
  149.1648  143.3105  158.9205 C   0  0  0  0  0  0  0  0  0  0  0  0
  152.9184  142.6455  160.3081 H   0  0  0  0  0  0  0  0  0  0  0  0
  151.2466  142.7847  160.8452 H   0  0  0  0  0  0  0  0  0  0  0  0
  151.9429  144.0174  159.7825 H   0  0  0  0  0  0  0  0  0  0  0  0
  153.3399  141.1379  158.5535 H   0  0  0  0  0  0  0  0  0  0  0  0
  151.9621  138.5398  154.5873 H   0  0  0  0  0  0  0  0  0  0  0  0
  149.7566  139.4274  153.5544 H   0  0  0  0  0  0  0  0  0  0  0  0
  148.8565  138.7892  154.9117 H   0  0  0  0  0  0  0  0  0  0  0  0
  148.0795  141.0976  155.5164 H   0  0  0  0  0  0  0  0  0  0  0  0
  148.9683  142.7571  154.6931 H   0  0  0  0  0  0  0  0  0  0  0  0
  147.6431  140.8828  152.4962 H   0  0  0  0  0  0  0  0  0  0  0  0
  146.9405  139.7046  153.5759 H   0  0  0  0  0  0  0  0  0  0  0  0
  145.7149  140.8062  155.7008 H   0  0  0  0  0  0  0  0  0  0  0  0
  146.6517  142.2845  155.7540 H   0  0  0  0  0  0  0  0  0  0  0  0
  143.6777  141.9489  155.1530 H   0  0  0  0  0  0  0  0  0  0  0  0
  144.3997  142.8825  156.4444 H   0  0  0  0  0  0  0  0  0  0  0  0
  143.7523  144.4459  154.7605 H   0  0  0  0  0  0  0  0  0  0  0  0
  147.3268  143.4063  153.4799 H   0  0  0  0  0  0  0  0  0  0  0  0
  146.4166  142.8698  152.0781 H   0  0  0  0  0  0  0  0  0  0  0  0
  148.7315  141.7289  156.7398 H   0  0  0  0  0  0  0  0  0  0  0  0
  148.2213  143.3518  158.3754 H   0  0  0  0  0  0  0  0  0  0  0  0
  149.5825  144.3173  158.9414 H   0  0  0  0  0  0  0  0  0  0  0  0
  148.9476  143.0040  159.9438 H   0  0  0  0  0  0  0  0  0  0  0  0
  145.3614  141.2630  153.3459 H   0  0  0  0  0  0  0  0  0  0  0  0
  1  2  1  0  0  0  0
  1 23  1  0  0  0  0
  1 24  1  0  0  0  0
  1 25  1  0  0  0  0
  2 21  1  0  0  0  0
  2  3  2  0  0  0  0
  3  4  1  0  0  0  0
  3 26  1  0  0  0  0
  4 19  2  0  0  0  0
  4  5  1  0  0  0  0
  5  6  2  0  0  0  0
  6  7  1  0  0  0  0
  6 27  1  0  0  0  0
  7  8  1  0  0  0  0
  7 19  1  0  0  0  0
  8  9  1  0  0  0  0
  8 28  1  0  0  0  0
  8 29  1  0  0  0  0
  9 10  1  0  0  0  0
  9 11  1  0  0  0  0
  9 30  1  0  0  0  0
 10 31  1  0  0  0  0
 11 12  1  0  0  0  0
 11 32  1  0  0  0  0
 11 33  1  0  0  0  0
 12 18  1  0  0  0  0
 12 13  1  0  0  0  0
 12 45  1  0  0  0  0
 13 14  1  0  0  0  0
 13 34  1  0  0  0  0
 13 35  1  0  0  0  0
 14 15  1  0  0  0  0
 14 36  1  0  0  0  0
 14 37  1  0  0  0  0
 15 16  1  0  0  0  0
 15 38  1  0  0  0  0
 16 17  2  0  0  0  0
 16 18  1  0  0  0  0
 18 39  1  0  0  0  0
 18 40  1  0  0  0  0
 19 20  1  0  0  0  0
 20 21  2  0  0  0  0
 20 41  1  0  0  0  0
 21 22  1  0  0  0  0
 22 42  1  0  0  0  0
 22 43  1  0  0  0  0
 22 44  1  0  0  0  0
M  CHG  1  12   1
M  END
> <s_m_source_file>
AV-unprocessed.smi

> <i_m_source_file_index>
1056

> <i_lp_mmshare_version>
43012

> <i_f3d_flags>
0

> <s_epik_input>
W0NIM11jKFtjSF0xKWMoW0NIM10pW2NIXWMoYzEyKW4oW2NIXW4yKVtDSDJdW0NASF0oW09IXSlbQ0gyXU4zW0NIMl1bQ0gyXVtOSF1DKD1PKVtDSDJdMw==

> <s_epik_cmdline>
J2VwaWtfcHl0aG9uJywgJy1waCcsICc3LjAnLCAnLXRuJywgJzgnLCAnLW1hJywgJzIwMCcsICctbWV0YWxfYmluZGluZycsICctaW1hZScsICc8aW5maWxlLm1hZT4nLCAnLW9tYWUnLCAnPG91dGZpbGUubWFlPic=

> <r_epik_Ionization_Penalty>
0.153633

> <r_epik_Ionization_Penalty_Charging>
0.0674887

> <r_epik_Ionization_Penalty_Neutral>
0.0861443

> <r_epik_State_Penalty>
0.135155

> <r_epik_Charging_Adjusted_Penalty>
0.202644

> <i_epik_Tot_Q>
1

> <i_epik_Tot_abs_Q>
1

> <r_epik_Metal_State_Penalty>
0.190685

> <b_epik_Metal_Only>
0

> <s_lp_Force_Field>
OPLS_2005

> <r_lp_Energy>
24.5126

> <b_lp_Chiralities_Consistent>
1

> <s_lp_Variant>
AV-unprocessed.smi:1056-4

> <Gold.Version>
5.8.1

> <Gold.Id.Protein>
6NUR|6NUR_protein|mol2

> <Gold.PLP.Fitness>
48.4771

> <Gold.PLP.PLP>
-38.0204

> <Gold.PLP.part.hbond>
-4.9899

> <Gold.PLP.part.metal>
0.0000

> <Gold.PLP.part.buried>
-5.8964

> <Gold.PLP.part.nonpolar>
-28.0448

> <Gold.PLP.part.repulsive>
0.2458

> <Gold.PLP.ligand.clash>
0.1205

> <Gold.PLP.ligand.torsion>
0.7527

> <Gold.PLP.Chemscore.Hbond>
4.0178

> <Gold.PLP.Chemscore.CHOScore>
0.0000

> <Gold.PLP.Chemscore.Metal>
0.0000

> <Gold.Chemscore.Hbonds>
donor molecule, donor type, donor heavy atom, donor atom, acceptor molecule, acceptor atom, score
      L1  H    10    31       P1  8028  0.65
      L1  H    12    45       P1 10175  1.88
      P1  H  7997  8009       L1     5  1.00
      P1  H  8011  8017       L1    10  0.38

> <Gold.PLP.Chemscore.Internal.Correction>
0.0293

> <Gold.Rescore>
     Score         DG    S(hbond)    S(metal)    S(lipo)     H(rot)  DE(clash)    DE(int)     intcor
     16.41     -18.50       2.75        0.00      84.80       2.38       0.12       1.97       ----

> <Gold.Chemscore.Fitness>
16.4078

> <Gold.Chemscore.DG>
-18.4990

> <Gold.Chemscore.ZeroCoef>
-5.4800

> <Gold.Chemscore.Hbond>
2.7501

> <Gold.Chemscore.Metal>
0.0000

> <Gold.Chemscore.Lipo>
84.8049

> <Gold.Chemscore.Internal_Hbond>
0.0000

> <Gold.Chemscore.DEClash>
0.1191

> <Gold.Chemscore.DEInternal>
1.9722

> <Gold.Chemscore.Rot>
2.3783

> <Gold.Chemscore.Internal.Correction>
   9.000000E+99

> <Gold.Chemscore.Hbonds>
donor molecule, donor type, donor heavy atom, donor atom, acceptor molecule, acceptor atom, score
      L1  H    10    31       P1  8028  0.65
      L1  H    12    45       P1 10175  0.20
      P1  H  7997  8009       L1     5  0.55
      P1  H  8011  8017       L1    10  0.36

> <Gold.Chemscore.Hbond.Weighted>
-9.1852

> <Gold.Chemscore.Metal.Weighted>
-0.0000

> <Gold.Chemscore.Lipo.Weighted>
-9.9222

> <Gold.Chemscore.Internal_Hbond.Weighted>
0.0000

> <Gold.Chemscore.DEClash.Weighted>
0.1191

> <Gold.Chemscore.DEInternal.Weighted>
1.9722

> <Gold.Chemscore.Rot.Weighted>
6.0884

> <Gold.Chemscore.Internal.Correction.Weighted>
   9.000000E+99

> <Gold.Protein.RotatedTorsions>
[ 6907 6896 6895 6894 ] final  156.74 input  -60.11 | X-H torsion
[ 7974 7965 7964 7962 ] final  174.06 input  175.53 | X-H torsion
[ 8008 7997 7996 7995 ] final -158.19 input   59.86 | X-H torsion
[ 10167 10162 10161 10158 ] final -107.18 input  -65.29 | X-H torsion
[ 10718 10713 10712 10709 ] final  -33.20 input   66.30 | X-H torsion
[ 10763 10752 10751 10750 ] final   26.87 input  -60.55 | X-H torsion
[ 11005 11000 10999 10996 ] final   42.31 input  -57.11 | X-H torsion

> <Gold.Protein.ActiveResidues>
 VAL166  LYS551  ARG553  GLY616  TRP617  ASP618  TYR619  PRO620  LYS621  CYS622 
 ASP623  PHE694  ASN695  SER759  ASP760  ASP761  ALA762  ILE779  LEU786  VAL792 
 PHE793  MET794  SER795  GLU796  ALA797  LYS798  CYS799  TRP800  GLU811  SER814 

> <Gold.Protein.RotatedAtoms>
  152.0253  133.3915  159.4274 H   0  0  0  0  0  0  0  0  0  0  0  0  # atno 6907 bound_to 6896
  150.6886  134.3581  159.4947 H   0  0  0  0  0  0  0  0  0  0  0  0  # atno 6908 bound_to 6896
  152.1360  134.9098  160.0607 H   0  0  0  0  0  0  0  0  0  0  0  0  # atno 6909 bound_to 6896
  144.7230  139.9740  143.6437 H   0  0  0  0  0  0  0  0  0  0  0  0  # atno 7974 bound_to 7965
  155.7437  140.0817  157.2233 H   0  0  0  0  0  0  0  0  0  0  0  0  # atno 8008 bound_to 7997
  154.4019  140.1573  156.2701 H   0  0  0  0  0  0  0  0  0  0  0  0  # atno 8009 bound_to 7997
  155.8996  140.3410  155.6019 H   0  0  0  0  0  0  0  0  0  0  0  0  # atno 8010 bound_to 7997
  140.1797  143.3976  152.1291 H   0  0  0  0  0  0  0  0  0  0  0  0  # atno 10167 bound_to 10162
  156.3656  130.4331  149.7587 H   0  0  0  0  0  0  0  0  0  0  0  0  # atno 10718 bound_to 10713
  153.0593  135.6550  154.0500 H   0  0  0  0  0  0  0  0  0  0  0  0  # atno 10763 bound_to 10752
  154.0171  135.2923  155.3387 H   0  0  0  0  0  0  0  0  0  0  0  0  # atno 10764 bound_to 10752
  154.6924  135.5277  153.8479 H   0  0  0  0  0  0  0  0  0  0  0  0  # atno 10765 bound_to 10752
  140.1751  134.4174  155.8233 H   0  0  0  0  0  0  0  0  0  0  0  0  # atno 11005 bound_to 11000
  146.0540  139.3539  143.0622 LP  0  0  0  0  0  0  0  0  0  0  0  0  # atno 17320 bound_to 7965
  145.8178  140.9694  143.0915 LP  0  0  0  0  0  0  0  0  0  0  0  0  # atno 17321 bound_to 7965
  139.5301  144.7149  151.5086 LP  0  0  0  0  0  0  0  0  0  0  0  0  # atno 17342 bound_to 10162
  140.6528  143.8662  150.6803 LP  0  0  0  0  0  0  0  0  0  0  0  0  # atno 17343 bound_to 10162
  156.4735  130.8007  151.3024 LP  0  0  0  0  0  0  0  0  0  0  0  0  # atno 17370 bound_to 10713
  157.7478  131.0028  150.3015 LP  0  0  0  0  0  0  0  0  0  0  0  0  # atno 17371 bound_to 10713
  141.2220  133.6974  156.7832 LP  0  0  0  0  0  0  0  0  0  0  0  0  # atno 17394 bound_to 11000
  140.2332  134.8670  157.3498 LP  0  0  0  0  0  0  0  0  0  0  0  0  # atno 17395 bound_to 11000

$$$$
