AV-unprocessed.smi:616|AV-procd|sdf|3072|dock9
  -GOLD-   2262023593D 1   1.00000     0.00000
 Structure written by MMmdl.
 34 35  0  0  0  0  0  0  0  0  1 V2000
  151.9063  144.5732  158.6576 C   0  0  0  0  0  0  0  0  0  0  0  0
  152.3206  143.1542  159.0107 C   0  0  0  0  0  0  0  0  0  0  0  0
  153.2364  142.9448  159.9826 C   0  0  0  0  0  0  0  0  0  0  0  0
  153.6819  141.6075  160.3767 C   0  0  0  0  0  0  0  0  0  0  0  0
  154.5211  141.4275  161.2596 O   0  0  0  0  0  0  0  0  0  0  0  0
  153.1064  140.5750  159.7014 N   0  0  0  0  0  0  0  0  0  0  0  0
  153.4840  139.1953  160.0203 C   0  0  0  0  0  0  0  0  0  0  0  0
  152.1581  140.7787  158.6845 C   0  0  0  0  0  0  0  0  0  0  0  0
  151.7428  142.0109  158.3146 C   0  0  0  0  0  0  0  0  0  0  0  0
  150.8047  142.2661  157.2988 N   0  0  0  0  0  0  0  0  0  0  0  0
  150.4298  141.5015  156.2555 C   0  0  0  0  0  0  0  0  0  0  0  0
  150.8437  140.3713  155.9984 O   0  0  0  0  0  0  0  0  0  0  0  0
  149.5164  142.1349  155.5064 N   0  0  0  0  0  0  0  0  0  0  0  0
  148.8906  141.5857  154.3106 C   0  0  0  0  0  0  0  0  0  0  0  0
  147.3744  141.5646  154.3358 C   0  0  0  0  0  0  0  0  0  0  0  0
  146.5690  142.8131  154.0582 C   0  0  0  0  0  0  0  0  0  0  0  0
  146.6214  142.2450  155.4552 C   0  0  0  0  0  0  0  0  0  0  0  0
  152.4314  145.3110  159.2650 H   0  0  0  0  0  0  0  0  0  0  0  0
  150.8362  144.7065  158.8189 H   0  0  0  0  0  0  0  0  0  0  0  0
  152.1263  144.7832  157.6106 H   0  0  0  0  0  0  0  0  0  0  0  0
  153.6643  143.7922  160.4984 H   0  0  0  0  0  0  0  0  0  0  0  0
  152.8840  138.4577  159.4866 H   0  0  0  0  0  0  0  0  0  0  0  0
  153.3602  138.9966  161.0860 H   0  0  0  0  0  0  0  0  0  0  0  0
  154.5287  139.0185  159.7610 H   0  0  0  0  0  0  0  0  0  0  0  0
  151.8140  139.8610  158.2370 H   0  0  0  0  0  0  0  0  0  0  0  0
  150.3461  143.1623  157.3735 H   0  0  0  0  0  0  0  0  0  0  0  0
  149.2287  143.0615  155.7859 H   0  0  0  0  0  0  0  0  0  0  0  0
  149.2061  142.1975  153.4652 H   0  0  0  0  0  0  0  0  0  0  0  0
  149.2702  140.5806  154.1173 H   0  0  0  0  0  0  0  0  0  0  0  0
  146.9442  140.6267  153.9894 H   0  0  0  0  0  0  0  0  0  0  0  0
  147.1128  143.7369  153.8712 H   0  0  0  0  0  0  0  0  0  0  0  0
  145.6417  142.6976  153.5013 H   0  0  0  0  0  0  0  0  0  0  0  0
  145.7274  141.7521  155.8313 H   0  0  0  0  0  0  0  0  0  0  0  0
  147.1989  142.7938  156.1965 H   0  0  0  0  0  0  0  0  0  0  0  0
  1  2  1  0  0  0  0
  1 18  1  0  0  0  0
  1 19  1  0  0  0  0
  1 20  1  0  0  0  0
  2  9  1  0  0  0  0
  2  3  2  0  0  0  0
  3  4  1  0  0  0  0
  3 21  1  0  0  0  0
  4  5  2  0  0  0  0
  4  6  1  0  0  0  0
  6  7  1  0  0  0  0
  6  8  1  0  0  0  0
  7 22  1  0  0  0  0
  7 23  1  0  0  0  0
  7 24  1  0  0  0  0
  8  9  2  0  0  0  0
  8 25  1  0  0  0  0
  9 10  1  0  0  0  0
 10 11  1  0  0  0  0
 10 26  1  0  0  0  0
 11 12  2  0  0  0  0
 11 13  1  0  0  0  0
 13 14  1  0  0  0  0
 13 27  1  0  0  0  0
 14 15  1  0  0  0  0
 14 28  1  0  0  0  0
 14 29  1  0  0  0  0
 15 17  1  0  0  0  0
 15 16  1  0  0  0  0
 15 30  1  0  0  0  0
 16 17  1  0  0  0  0
 16 31  1  0  0  0  0
 16 32  1  0  0  0  0
 17 33  1  0  0  0  0
 17 34  1  0  0  0  0
M  END
> <s_m_source_file>
AV-unprocessed.smi

> <i_m_source_file_index>
616

> <i_lp_mmshare_version>
43012

> <i_f3d_flags>
0

> <s_epik_input>
W0NIM11jMVtjSF1jKD1PKW4oW0NIM10pW2NIXWMxW05IXUMoPU8pW05IXVtDSDJdW0NIXTJbQ0gyXVtDSDJdMg==

> <s_epik_cmdline>
J2VwaWtfcHl0aG9uJywgJy1waCcsICc3LjAnLCAnLXRuJywgJzgnLCAnLW1hJywgJzIwMCcsICctbWV0YWxfYmluZGluZycsICctaW1hZScsICc8aW5maWxlLm1hZT4nLCAnLW9tYWUnLCAnPG91dGZpbGUubWFlPic=

> <r_lp_tautomer_probability>
1

> <r_epik_Ionization_Penalty>
2.97505e-05

> <r_epik_Ionization_Penalty_Charging>
8.23988e-06

> <r_epik_Ionization_Penalty_Neutral>
2.15106e-05

> <r_epik_State_Penalty>
-0

> <r_epik_Charging_Adjusted_Penalty>
8.23988e-06

> <i_epik_Tot_Q>
0

> <i_epik_Tot_abs_Q>
0

> <r_epik_Metal_State_Penalty>
-0

> <b_epik_Metal_Only>
0

> <s_lp_Force_Field>
OPLS_2005

> <r_lp_Energy>
26.2007

> <b_lp_Chiralities_Consistent>
1

> <s_lp_Variant>
AV-unprocessed.smi:616-1

> <Gold.Version>
5.8.1

> <Gold.Id.Protein>
6NUR|6NUR_protein|mol2

> <Gold.PLP.Fitness>
43.6498

> <Gold.PLP.PLP>
-41.2386

> <Gold.PLP.part.hbond>
-2.0000

> <Gold.PLP.part.metal>
0.0000

> <Gold.PLP.part.buried>
-4.6618

> <Gold.PLP.part.nonpolar>
-35.2950

> <Gold.PLP.part.repulsive>
0.2063

> <Gold.PLP.ligand.clash>
0.0000

> <Gold.PLP.ligand.torsion>
0.5635

> <Gold.PLP.Chemscore.Hbond>
1.0000

> <Gold.PLP.Chemscore.CHOScore>
0.0000

> <Gold.PLP.Chemscore.Metal>
0.0000

> <Gold.Chemscore.Hbonds>
donor molecule, donor type, donor heavy atom, donor atom, acceptor molecule, acceptor atom, score
      L1  H    13    27       P1  8028  1.00

> <Gold.PLP.Chemscore.Internal.Correction>
0.5382

> <Gold.Rescore>
     Score         DG    S(hbond)    S(metal)    S(lipo)     H(rot)  DE(clash)    DE(int)     intcor
     16.90     -18.75       1.91        0.00      84.88       1.18       0.28       1.57       ----

> <Gold.Chemscore.Fitness>
16.9016

> <Gold.Chemscore.DG>
-18.7502

> <Gold.Chemscore.ZeroCoef>
-5.4800

> <Gold.Chemscore.Hbond>
1.9075

> <Gold.Chemscore.Metal>
0.0000

> <Gold.Chemscore.Lipo>
84.8824

> <Gold.Chemscore.Internal_Hbond>
0.0000

> <Gold.Chemscore.DEClash>
0.2794

> <Gold.Chemscore.DEInternal>
1.5692

> <Gold.Chemscore.Rot>
1.1844

> <Gold.Chemscore.Internal.Correction>
   9.000000E+99

> <Gold.Chemscore.Hbonds>
donor molecule, donor type, donor heavy atom, donor atom, acceptor molecule, acceptor atom, score
      L1  H    13    27       P1  8028  0.99

> <Gold.Chemscore.Hbond.Weighted>
-6.3710

> <Gold.Chemscore.Metal.Weighted>
-0.0000

> <Gold.Chemscore.Lipo.Weighted>
-9.9312

> <Gold.Chemscore.Internal_Hbond.Weighted>
0.0000

> <Gold.Chemscore.DEClash.Weighted>
0.2794

> <Gold.Chemscore.DEInternal.Weighted>
1.5692

> <Gold.Chemscore.Rot.Weighted>
3.0320

> <Gold.Chemscore.Internal.Correction.Weighted>
   9.000000E+99

> <Gold.Protein.RotatedTorsions>
[ 6907 6896 6895 6894 ] final   44.51 input  -60.11 | X-H torsion
[ 7974 7965 7964 7962 ] final -128.18 input  175.53 | X-H torsion
[ 8008 7997 7996 7995 ] final  161.03 input   59.86 | X-H torsion
[ 10167 10162 10161 10158 ] final  -33.57 input  -65.29 | X-H torsion
[ 10718 10713 10712 10709 ] final  -12.25 input   66.30 | X-H torsion
[ 10763 10752 10751 10750 ] final  143.77 input  -60.55 | X-H torsion
[ 11005 11000 10999 10996 ] final   71.97 input  -57.11 | X-H torsion

> <Gold.Protein.ActiveResidues>
 VAL166  LYS551  ARG553  GLY616  TRP617  ASP618  TYR619  PRO620  LYS621  CYS622 
 ASP623  PHE694  ASN695  SER759  ASP760  ASP761  ALA762  ILE779  LEU786  VAL792 
 PHE793  MET794  SER795  GLU796  ALA797  LYS798  CYS799  TRP800  GLU811  SER814 

> <Gold.Protein.RotatedAtoms>
  152.2334  134.8300  160.0470 H   0  0  0  0  0  0  0  0  0  0  0  0  # atno 6907 bound_to 6896
  151.9041  133.3540  159.3849 H   0  0  0  0  0  0  0  0  0  0  0  0  # atno 6908 bound_to 6896
  150.7032  134.4724  159.5476 H   0  0  0  0  0  0  0  0  0  0  0  0  # atno 6909 bound_to 6896
  144.9697  140.7532  143.4678 H   0  0  0  0  0  0  0  0  0  0  0  0  # atno 7974 bound_to 7965
  156.2131  140.1788  156.7650 H   0  0  0  0  0  0  0  0  0  0  0  0  # atno 8008 bound_to 7997
  154.5752  140.0675  156.9052 H   0  0  0  0  0  0  0  0  0  0  0  0  # atno 8009 bound_to 7997
  155.2601  140.3335  155.4276 H   0  0  0  0  0  0  0  0  0  0  0  0  # atno 8010 bound_to 7997
  140.7202  143.3610  151.1962 H   0  0  0  0  0  0  0  0  0  0  0  0  # atno 10167 bound_to 10162
  156.6473  130.4945  149.6074 H   0  0  0  0  0  0  0  0  0  0  0  0  # atno 10718 bound_to 10713
  153.9778  135.2944  155.3422 H   0  0  0  0  0  0  0  0  0  0  0  0  # atno 10763 bound_to 10752
  154.7286  135.5077  153.8930 H   0  0  0  0  0  0  0  0  0  0  0  0  # atno 10764 bound_to 10752
  153.0869  135.6696  154.0045 H   0  0  0  0  0  0  0  0  0  0  0  0  # atno 10765 bound_to 10752
  139.9515  134.7219  156.0851 H   0  0  0  0  0  0  0  0  0  0  0  0  # atno 11005 bound_to 11000
  145.2577  139.2005  143.4908 LP  0  0  0  0  0  0  0  0  0  0  0  0  # atno 17320 bound_to 7965
  146.3378  140.2502  142.8598 LP  0  0  0  0  0  0  0  0  0  0  0  0  # atno 17321 bound_to 7965
  139.7162  143.9296  152.2967 LP  0  0  0  0  0  0  0  0  0  0  0  0  # atno 17342 bound_to 10162
  139.9038  144.6896  150.8636 LP  0  0  0  0  0  0  0  0  0  0  0  0  # atno 17343 bound_to 10162
  156.2112  130.6680  151.1271 LP  0  0  0  0  0  0  0  0  0  0  0  0  # atno 17370 bound_to 10713
  157.7152  131.0713  150.6353 LP  0  0  0  0  0  0  0  0  0  0  0  0  # atno 17371 bound_to 10713
  141.1179  133.6622  156.3139 LP  0  0  0  0  0  0  0  0  0  0  0  0  # atno 17394 bound_to 11000
  140.5708  134.5842  157.5457 LP  0  0  0  0  0  0  0  0  0  0  0  0  # atno 17395 bound_to 11000

$$$$
