AV-unprocessed.smi:173|AV-procd|sdf|1424|dock1
  -GOLD-   2262019193D 1   1.00000     0.00000
 Structure written by MMmdl.
 60 64  0  0  0  0  0  0  0  0  1 V2000
  144.7084  134.5042  153.1478 O   0  0  0  0  0  0  0  0  0  0  0  0
  145.0096  134.5363  151.7642 C   0  0  0  0  0  0  0  0  0  0  0  0
  144.6588  135.9737  151.3019 C   0  0  0  0  0  0  0  0  0  0  0  0
  145.4802  137.0149  151.8991 N   0  0  0  0  0  0  0  0  0  0  0  0
  146.4267  137.7848  151.2613 C   0  0  0  0  0  0  0  0  0  0  0  0
  147.0329  138.6597  152.0154 N   0  0  0  0  0  0  0  0  0  0  0  0
  146.4717  138.4715  153.2730 C   0  0  0  0  0  0  0  0  0  0  0  0
  146.6528  139.0809  154.5472 C   0  0  0  0  0  0  0  0  0  0  0  0
  147.5198  140.0884  154.8054 N   0  0  0  0  0  0  0  0  0  0  0  0
  148.7730  139.9954  154.0549 C   0  0  0  0  0  0  0  0  0  0  0  0
  149.9198  139.3757  154.8699 C   0  0  1  0  0  0  0  0  0  0  0  0
  150.3510  138.0051  154.3575 C   0  0  0  0  0  0  0  0  0  0  0  0
  151.7404  137.8575  154.9462 C   0  0  0  0  0  0  0  0  0  0  0  0
  152.2246  139.3035  155.0844 C   0  0  0  0  0  0  0  0  0  0  0  0
  151.1184  140.1238  154.7228 O   0  0  0  0  0  0  0  0  0  0  0  0
  146.9506  141.4203  155.0621 C   0  0  0  0  0  0  0  0  0  0  0  0
  145.6903  141.4793  155.9361 C   0  0  0  0  0  0  0  0  0  0  0  0
  145.1872  142.9122  155.7430 C   0  0  0  0  0  0  0  0  0  0  0  0
  145.6483  143.3383  154.3385 C   0  0  0  0  0  0  0  0  0  0  0  0
  146.5434  142.2082  153.8120 C   0  0  0  0  0  0  0  0  0  0  0  0
  145.9179  138.6091  155.5857 N   0  0  0  0  0  0  0  0  0  0  0  0
  145.0460  137.6152  155.3925 C   0  0  0  0  0  0  0  0  0  0  0  0
  144.7611  136.9621  154.2639 N   0  0  0  0  0  0  0  0  0  0  0  0
  145.5037  137.4296  153.2193 C   0  0  0  0  0  0  0  0  0  0  0  0
  146.5054  134.1956  151.5858 C   0  0  0  0  0  0  0  0  0  0  0  0
  146.8104  132.7341  151.9622 C   0  0  0  0  0  0  0  0  0  0  0  0
  145.9893  131.8542  151.2035 O   0  0  0  0  0  0  0  0  0  0  0  0
  144.6021  132.0322  151.4654 C   0  0  0  0  0  0  0  0  0  0  0  0
  144.1682  133.4514  151.0574 C   0  0  0  0  0  0  0  0  0  0  0  0
  145.3566  135.0154  153.6081 H   0  0  0  0  0  0  0  0  0  0  0  0
  144.7495  136.0535  150.2174 H   0  0  0  0  0  0  0  0  0  0  0  0
  143.6163  136.1970  151.5347 H   0  0  0  0  0  0  0  0  0  0  0  0
  146.6479  137.6821  150.2088 H   0  0  0  0  0  0  0  0  0  0  0  0
  148.6050  139.3690  153.1770 H   0  0  0  0  0  0  0  0  0  0  0  0
  149.0649  140.9772  153.6811 H   0  0  0  0  0  0  0  0  0  0  0  0
  149.6545  139.3050  155.9268 H   0  0  0  0  0  0  0  0  0  0  0  0
  149.6739  137.2050  154.6573 H   0  0  0  0  0  0  0  0  0  0  0  0
  150.4099  138.0108  153.2681 H   0  0  0  0  0  0  0  0  0  0  0  0
  151.6856  137.3872  155.9287 H   0  0  0  0  0  0  0  0  0  0  0  0
  152.3944  137.2517  154.3185 H   0  0  0  0  0  0  0  0  0  0  0  0
  152.5266  139.5155  156.1106 H   0  0  0  0  0  0  0  0  0  0  0  0
  153.0702  139.5157  154.4300 H   0  0  0  0  0  0  0  0  0  0  0  0
  147.7108  141.9978  155.5876 H   0  0  0  0  0  0  0  0  0  0  0  0
  144.9206  140.7963  155.5748 H   0  0  0  0  0  0  0  0  0  0  0  0
  145.8892  141.2405  156.9812 H   0  0  0  0  0  0  0  0  0  0  0  0
  144.1057  142.9824  155.8624 H   0  0  0  0  0  0  0  0  0  0  0  0
  145.6411  143.5647  156.4901 H   0  0  0  0  0  0  0  0  0  0  0  0
  144.8021  143.5057  153.6712 H   0  0  0  0  0  0  0  0  0  0  0  0
  146.2060  144.2738  154.3973 H   0  0  0  0  0  0  0  0  0  0  0  0
  147.4022  142.5835  153.2546 H   0  0  0  0  0  0  0  0  0  0  0  0
  145.9592  141.5819  153.1386 H   0  0  0  0  0  0  0  0  0  0  0  0
  144.4969  137.2994  156.2672 H   0  0  0  0  0  0  0  0  0  0  0  0
  146.7969  134.3363  150.5453 H   0  0  0  0  0  0  0  0  0  0  0  0
  147.1264  134.8726  152.1738 H   0  0  0  0  0  0  0  0  0  0  0  0
  147.8552  132.5065  151.7502 H   0  0  0  0  0  0  0  0  0  0  0  0
  146.6609  132.5605  153.0289 H   0  0  0  0  0  0  0  0  0  0  0  0
  144.0408  131.2933  150.8933 H   0  0  0  0  0  0  0  0  0  0  0  0
  144.3909  131.8414  152.5186 H   0  0  0  0  0  0  0  0  0  0  0  0
  143.1065  133.5943  151.2617 H   0  0  0  0  0  0  0  0  0  0  0  0
  144.2875  133.5348  149.9773 H   0  0  0  0  0  0  0  0  0  0  0  0
  1  2  1  0  0  0  0
  1 30  1  0  0  0  0
  2 29  1  0  0  0  0
  2  3  1  0  0  0  0
  2 25  1  0  0  0  0
  3  4  1  0  0  0  0
  3 31  1  0  0  0  0
  3 32  1  0  0  0  0
  4 24  1  0  0  0  0
  4  5  1  0  0  0  0
  5  6  2  0  0  0  0
  5 33  1  0  0  0  0
  6  7  1  0  0  0  0
  7 24  2  0  0  0  0
  7  8  1  0  0  0  0
  8  9  1  0  0  0  0
  8 21  2  0  0  0  0
  9 10  1  0  0  0  0
  9 16  1  0  0  0  0
 10 11  1  0  0  0  0
 10 34  1  0  0  0  0
 10 35  1  0  0  0  0
 11 15  1  0  0  0  0
 11 12  1  0  0  0  0
 11 36  1  0  0  0  0
 12 13  1  0  0  0  0
 12 37  1  0  0  0  0
 12 38  1  0  0  0  0
 13 14  1  0  0  0  0
 13 39  1  0  0  0  0
 13 40  1  0  0  0  0
 14 15  1  0  0  0  0
 14 41  1  0  0  0  0
 14 42  1  0  0  0  0
 16 20  1  0  0  0  0
 16 17  1  0  0  0  0
 16 43  1  0  0  0  0
 17 18  1  0  0  0  0
 17 44  1  0  0  0  0
 17 45  1  0  0  0  0
 18 19  1  0  0  0  0
 18 46  1  0  0  0  0
 18 47  1  0  0  0  0
 19 20  1  0  0  0  0
 19 48  1  0  0  0  0
 19 49  1  0  0  0  0
 20 50  1  0  0  0  0
 20 51  1  0  0  0  0
 21 22  1  0  0  0  0
 22 23  2  0  0  0  0
 22 52  1  0  0  0  0
 23 24  1  0  0  0  0
 25 26  1  0  0  0  0
 25 53  1  0  0  0  0
 25 54  1  0  0  0  0
 26 27  1  0  0  0  0
 26 55  1  0  0  0  0
 26 56  1  0  0  0  0
 27 28  1  0  0  0  0
 28 29  1  0  0  0  0
 28 57  1  0  0  0  0
 28 58  1  0  0  0  0
 29 59  1  0  0  0  0
 29 60  1  0  0  0  0
M  END
> <s_m_source_file>
AV-unprocessed.smi

> <i_m_source_file_index>
173

> <i_lp_mmshare_version>
43012

> <i_f3d_flags>
0

> <s_epik_input>
W0NIMl0xW0NIMl1PW0NIMl1bQ0gyXUMxKFtPSF0pW0NIMl1uKFtjSF1uMiljKGMyMyluW2NIXW5jM04oW0NIMl1bQ0BASF00W0NIMl1bQ0gyXVtDSDJdTzQpW0NIXTVbQ0gyXVtDSDJdW0NIMl1bQ0gyXTU=

> <s_epik_cmdline>
J2VwaWtfcHl0aG9uJywgJy1waCcsICc3LjAnLCAnLXRuJywgJzgnLCAnLW1hJywgJzIwMCcsICctbWV0YWxfYmluZGluZycsICctaW1hZScsICc8aW5maWxlLm1hZT4nLCAnLW9tYWUnLCAnPG91dGZpbGUubWFlPic=

> <r_lp_tautomer_probability>
1

> <r_epik_Ionization_Penalty>
0.0053129

> <r_epik_Ionization_Penalty_Charging>
0

> <r_epik_Ionization_Penalty_Neutral>
0.0053129

> <r_epik_State_Penalty>
0.00367355

> <r_epik_Charging_Adjusted_Penalty>
0.00367355

> <i_epik_Tot_Q>
0

> <i_epik_Tot_abs_Q>
0

> <r_epik_Metal_State_Penalty>
-0

> <b_epik_Metal_Only>
0

> <s_lp_Force_Field>
OPLS_2005

> <r_lp_Energy>
59.0129

> <b_lp_Chiralities_Consistent>
1

> <s_lp_Variant>
AV-unprocessed.smi:173-2

> <Gold.Version>
5.8.1

> <Gold.Id.Protein>
6NUR|6NUR_protein|mol2

> <Gold.PLP.Fitness>
42.8069

> <Gold.PLP.PLP>
-42.6315

> <Gold.PLP.part.hbond>
-1.0000

> <Gold.PLP.part.metal>
0.0000

> <Gold.PLP.part.buried>
-0.2556

> <Gold.PLP.part.nonpolar>
-42.1891

> <Gold.PLP.part.repulsive>
1.6416

> <Gold.PLP.ligand.clash>
0.0000

> <Gold.PLP.ligand.torsion>
2.0648

> <Gold.PLP.Chemscore.Hbond>
1.0000

> <Gold.PLP.Chemscore.CHOScore>
0.0000

> <Gold.PLP.Chemscore.Metal>
0.0000

> <Gold.Chemscore.Hbonds>
donor molecule, donor type, donor heavy atom, donor atom, acceptor molecule, acceptor atom, score
      P1  H  7989  7998       L1    15  0.98

> <Gold.PLP.Chemscore.Internal.Correction>
1.3049

> <Gold.Rescore>
     Score         DG    S(hbond)    S(metal)    S(lipo)     H(rot)  DE(clash)    DE(int)     intcor
      6.10     -13.31       0.95        0.00      96.41       2.59       1.65       5.57       ----

> <Gold.Chemscore.Fitness>
6.0970

> <Gold.Chemscore.DG>
-13.3091

> <Gold.Chemscore.ZeroCoef>
-5.4800

> <Gold.Chemscore.Hbond>
0.9531

> <Gold.Chemscore.Metal>
0.0000

> <Gold.Chemscore.Lipo>
96.4143

> <Gold.Chemscore.Internal_Hbond>
0.0000

> <Gold.Chemscore.DEClash>
1.6460

> <Gold.Chemscore.DEInternal>
5.5661

> <Gold.Chemscore.Rot>
2.5916

> <Gold.Chemscore.Internal.Correction>
   9.000000E+99

> <Gold.Chemscore.Hbonds>
donor molecule, donor type, donor heavy atom, donor atom, acceptor molecule, acceptor atom, score
      P1  H  7989  7998       L1    15  0.37

> <Gold.Chemscore.Hbond.Weighted>
-3.1832

> <Gold.Chemscore.Metal.Weighted>
-0.0000

> <Gold.Chemscore.Lipo.Weighted>
-11.2805

> <Gold.Chemscore.Internal_Hbond.Weighted>
0.0000

> <Gold.Chemscore.DEClash.Weighted>
1.6460

> <Gold.Chemscore.DEInternal.Weighted>
5.5661

> <Gold.Chemscore.Rot.Weighted>
6.6346

> <Gold.Chemscore.Internal.Correction.Weighted>
   9.000000E+99

> <Gold.Protein.RotatedTorsions>
[ 6907 6896 6895 6894 ] final   57.10 input  -60.11 | X-H torsion
[ 7974 7965 7964 7962 ] final  -79.30 input  175.53 | X-H torsion
[ 8008 7997 7996 7995 ] final    0.23 input   59.86 | X-H torsion
[ 10167 10162 10161 10158 ] final  105.61 input  -65.29 | X-H torsion
[ 10718 10713 10712 10709 ] final  128.04 input   66.30 | X-H torsion
[ 10763 10752 10751 10750 ] final  172.92 input  -60.55 | X-H torsion
[ 11005 11000 10999 10996 ] final -148.66 input  -57.11 | X-H torsion

> <Gold.Protein.ActiveResidues>
 VAL166  LYS551  ARG553  GLY616  TRP617  ASP618  TYR619  PRO620  LYS621  CYS622 
 ASP623  PHE694  ASN695  SER759  ASP760  ASP761  ALA762  ILE779  LEU786  VAL792 
 PHE793  MET794  SER795  GLU796  ALA797  LYS798  CYS799  TRP800  GLU811  SER814 

> <Gold.Protein.RotatedAtoms>
  152.3699  134.6749  160.0179 H   0  0  0  0  0  0  0  0  0  0  0  0  # atno 6907 bound_to 6896
  151.7045  133.3306  159.3283 H   0  0  0  0  0  0  0  0  0  0  0  0  # atno 6908 bound_to 6896
  150.7666  134.6521  159.6338 H   0  0  0  0  0  0  0  0  0  0  0  0  # atno 6909 bound_to 6896
  145.5750  140.9459  143.1375 H   0  0  0  0  0  0  0  0  0  0  0  0  # atno 7974 bound_to 7965
  154.6658  140.2601  155.7060 H   0  0  0  0  0  0  0  0  0  0  0  0  # atno 8008 bound_to 7997
  156.2638  140.2839  156.1069 H   0  0  0  0  0  0  0  0  0  0  0  0  # atno 8009 bound_to 7997
  155.1242  140.0377  157.2748 H   0  0  0  0  0  0  0  0  0  0  0  0  # atno 8010 bound_to 7997
  139.7078  144.7083  151.1078 H   0  0  0  0  0  0  0  0  0  0  0  0  # atno 10167 bound_to 10162
  157.5280  131.1098  150.9053 H   0  0  0  0  0  0  0  0  0  0  0  0  # atno 10718 bound_to 10713
  154.4329  135.2760  155.1900 H   0  0  0  0  0  0  0  0  0  0  0  0  # atno 10763 bound_to 10752
  154.3799  135.6090  153.5788 H   0  0  0  0  0  0  0  0  0  0  0  0  # atno 10764 bound_to 10752
  152.9837  135.5877  154.4643 H   0  0  0  0  0  0  0  0  0  0  0  0  # atno 10765 bound_to 10752
  140.7589  134.3321  157.5107 H   0  0  0  0  0  0  0  0  0  0  0  0  # atno 11005 bound_to 11000
  144.7420  139.7423  143.7307 LP  0  0  0  0  0  0  0  0  0  0  0  0  # atno 17320 bound_to 7965
  146.1757  139.4927  142.9899 LP  0  0  0  0  0  0  0  0  0  0  0  0  # atno 17321 bound_to 7965
  140.7726  143.5335  150.9395 LP  0  0  0  0  0  0  0  0  0  0  0  0  # atno 17342 bound_to 10162
  139.9019  143.6826  152.3130 LP  0  0  0  0  0  0  0  0  0  0  0  0  # atno 17343 bound_to 10162
  156.9643  130.5467  149.5287 LP  0  0  0  0  0  0  0  0  0  0  0  0  # atno 17370 bound_to 10713
  156.0401  130.5484  150.8750 LP  0  0  0  0  0  0  0  0  0  0  0  0  # atno 17371 bound_to 10713
  139.8774  134.9189  156.3215 LP  0  0  0  0  0  0  0  0  0  0  0  0  # atno 17394 bound_to 11000
  140.9681  133.7345  156.0496 LP  0  0  0  0  0  0  0  0  0  0  0  0  # atno 17395 bound_to 11000

$$$$
