AV-unprocessed.smi:2358|AV-procd|sdf|9406|dock2
  -GOLD-   2272013 43D 1   1.00000     0.00000
 Structure written by MMmdl.
 46 48  0  0  0  0  0  0  0  0  2 V2000
  154.1651  141.1541  161.0792 C   0  0  0  0  0  0  0  0  0  0  0  0
  153.2526  141.7076  160.0041 C   0  0  0  0  0  0  0  0  0  0  0  0
  153.0946  143.0997  159.8544 C   0  0  0  0  0  0  0  0  0  0  0  0
  152.2413  143.6103  158.8571 C   0  0  0  0  0  0  0  0  0  0  0  0
  152.0755  145.1078  158.7005 C   0  0  0  0  0  0  0  0  0  0  0  0
  151.5480  142.7233  158.0087 C   0  0  0  0  0  0  0  0  0  0  0  0
  151.6940  141.3278  158.1452 C   0  0  0  0  0  0  0  0  0  0  0  0
  150.9750  140.5370  157.2746 O   0  0  0  0  0  0  0  0  0  0  0  0
  149.7576  141.0481  156.7472 C   0  0  0  0  0  0  0  0  0  0  0  0
  149.9792  141.4405  155.2763 C   0  0  1  0  0  0  0  0  0  0  0  0
  150.3966  140.2723  154.5972 O   0  0  0  0  0  0  0  0  0  0  0  0
  148.6794  141.9446  154.6090 C   0  0  0  0  0  0  0  0  0  0  0  0
  147.5604  141.0192  154.8252 N   0  0  0  0  0  0  0  0  0  0  0  0
  147.3601  140.1237  153.7889 N   0  0  0  0  0  0  0  0  0  0  0  0
  146.4177  139.2398  153.8427 C   0  0  0  0  0  0  0  0  0  0  0  0
  146.2170  138.3001  152.7504 N   0  0  0  0  0  0  0  0  0  0  0  0
  145.5929  137.0785  152.8116 C   0  0  0  0  0  0  0  0  0  0  0  0
  145.6408  136.5556  151.5451 C   0  0  0  0  0  0  0  0  0  0  0  0
  146.2898  137.4775  150.7671 N   0  3  0  0  0  0  0  0  0  0  0  0
  146.6416  138.5414  151.4983 C   0  0  0  0  0  0  0  0  0  0  0  0
  145.5468  139.1858  155.0121 C   0  0  0  0  0  0  0  0  0  0  0  0
  145.7547  140.0609  156.0194 C   0  0  0  0  0  0  0  0  0  0  0  0
  146.8224  141.0575  155.9726 C   0  0  0  0  0  0  0  0  0  0  0  0
  147.0405  141.8538  156.8845 O   0  0  0  0  0  0  0  0  0  0  0  0
  152.5545  140.8257  159.1540 C   0  0  0  0  0  0  0  0  0  0  0  0
  154.8295  141.9252  161.4702 H   0  0  0  0  0  0  0  0  0  0  0  0
  154.7812  140.3479  160.6801 H   0  0  0  0  0  0  0  0  0  0  0  0
  153.5748  140.7587  161.9059 H   0  0  0  0  0  0  0  0  0  0  0  0
  153.6269  143.7787  160.5048 H   0  0  0  0  0  0  0  0  0  0  0  0
  151.2450  145.3481  158.0360 H   0  0  0  0  0  0  0  0  0  0  0  0
  152.9836  145.5460  158.2858 H   0  0  0  0  0  0  0  0  0  0  0  0
  151.8804  145.5721  159.6676 H   0  0  0  0  0  0  0  0  0  0  0  0
  150.8943  143.1135  157.2423 H   0  0  0  0  0  0  0  0  0  0  0  0
  148.9419  140.3285  156.8413 H   0  0  0  0  0  0  0  0  0  0  0  0
  149.4884  141.9346  157.3234 H   0  0  0  0  0  0  0  0  0  0  0  0
  150.7545  142.2060  155.2178 H   0  0  0  0  0  0  0  0  0  0  0  0
  150.7657  139.6722  155.2274 H   0  0  0  0  0  0  0  0  0  0  0  0
  148.4389  142.9613  154.9268 H   0  0  0  0  0  0  0  0  0  0  0  0
  148.8308  142.0255  153.5311 H   0  0  0  0  0  0  0  0  0  0  0  0
  145.1713  136.6790  153.7231 H   0  0  0  0  0  0  0  0  0  0  0  0
  145.2710  135.6208  151.1493 H   0  0  0  0  0  0  0  0  0  0  0  0
  147.1610  139.4007  151.1170 H   0  0  0  0  0  0  0  0  0  0  0  0
  144.7423  138.4751  155.1038 H   0  0  0  0  0  0  0  0  0  0  0  0
  145.1129  140.0260  156.8876 H   0  0  0  0  0  0  0  0  0  0  0  0
  152.6948  139.7648  159.2953 H   0  0  0  0  0  0  0  0  0  0  0  0
  146.4776  137.3712  149.7780 H   0  0  0  0  0  0  0  0  0  0  0  0
  1  2  1  0  0  0  0
  1 26  1  0  0  0  0
  1 27  1  0  0  0  0
  1 28  1  0  0  0  0
  2 25  1  0  0  0  0
  2  3  2  0  0  0  0
  3  4  1  0  0  0  0
  3 29  1  0  0  0  0
  4  5  1  0  0  0  0
  4  6  2  0  0  0  0
  5 30  1  0  0  0  0
  5 31  1  0  0  0  0
  5 32  1  0  0  0  0
  6  7  1  0  0  0  0
  6 33  1  0  0  0  0
  7  8  1  0  0  0  0
  7 25  2  0  0  0  0
  8  9  1  0  0  0  0
  9 10  1  0  0  0  0
  9 34  1  0  0  0  0
  9 35  1  0  0  0  0
 10 11  1  0  0  0  0
 10 12  1  0  0  0  0
 10 36  1  0  0  0  0
 11 37  1  0  0  0  0
 12 13  1  0  0  0  0
 12 38  1  0  0  0  0
 12 39  1  0  0  0  0
 13 23  1  0  0  0  0
 13 14  1  0  0  0  0
 14 15  2  0  0  0  0
 15 16  1  0  0  0  0
 15 21  1  0  0  0  0
 16 20  1  0  0  0  0
 16 17  1  0  0  0  0
 17 18  2  0  0  0  0
 17 40  1  0  0  0  0
 18 19  1  0  0  0  0
 18 41  1  0  0  0  0
 19 20  2  0  0  0  0
 19 46  1  0  0  0  0
 20 42  1  0  0  0  0
 21 22  2  0  0  0  0
 21 43  1  0  0  0  0
 22 23  1  0  0  0  0
 22 44  1  0  0  0  0
 23 24  2  0  0  0  0
 25 45  1  0  0  0  0
M  CHG  1  19   1
M  END
> <s_m_source_file>
AV-unprocessed.smi

> <i_m_source_file_index>
2358

> <i_lp_mmshare_version>
43012

> <i_f3d_flags>
0

> <s_epik_input>
W0NIM11jMVtjSF1jKFtDSDNdKVtjSF1jKFtjSF0xKU9bQ0gyXVtDQEhdKFtPSF0pW0NIMl1uMm5jKFtjSF1bY0hdYzI9TyktbjNbY0hdW2NIXW5bY0hdMw==

> <s_epik_cmdline>
J2VwaWtfcHl0aG9uJywgJy1waCcsICc3LjAnLCAnLXRuJywgJzgnLCAnLW1hJywgJzIwMCcsICctbWV0YWxfYmluZGluZycsICctaW1hZScsICc8aW5maWxlLm1hZT4nLCAnLW9tYWUnLCAnPG91dGZpbGUubWFlPic=

> <r_lp_tautomer_probability>
1

> <r_epik_Ionization_Penalty>
1.66053

> <r_epik_Ionization_Penalty_Charging>
2.42216e-09

> <r_epik_Ionization_Penalty_Neutral>
1.66053

> <r_epik_State_Penalty>
1.76336

> <r_epik_Charging_Adjusted_Penalty>
1.76336

> <i_epik_Tot_Q>
1

> <i_epik_Tot_abs_Q>
1

> <r_epik_Metal_State_Penalty>
1.79856

> <b_epik_Metal_Only>
0

> <s_lp_Force_Field>
OPLS_2005

> <r_lp_Energy>
39.182

> <b_lp_Chiralities_Consistent>
1

> <s_lp_Variant>
AV-unprocessed.smi:2358-4

> <Gold.Version>
5.8.1

> <Gold.Id.Protein>
6NUR|6NUR_protein|mol2

> <Gold.PLP.Fitness>
51.0967

> <Gold.PLP.PLP>
-47.5730

> <Gold.PLP.part.hbond>
-2.9283

> <Gold.PLP.part.metal>
0.0000

> <Gold.PLP.part.buried>
-3.4896

> <Gold.PLP.part.nonpolar>
-42.9686

> <Gold.PLP.part.repulsive>
0.6611

> <Gold.PLP.ligand.clash>
0.0000

> <Gold.PLP.ligand.torsion>
1.2965

> <Gold.PLP.Chemscore.Hbond>
1.0000

> <Gold.PLP.Chemscore.CHOScore>
1.0000

> <Gold.PLP.Chemscore.Metal>
0.0000

> <Gold.Chemscore.Hbonds>
donor molecule, donor type, donor heavy atom, donor atom, acceptor molecule, acceptor atom, score
      P1  H  7989  7998       L1    11  1.00
      L1  C    20    42       P1  7957  1.00

> <Gold.PLP.Chemscore.Internal.Correction>
0.1167

> <Gold.Rescore>
     Score         DG    S(hbond)    S(metal)    S(lipo)     H(rot)  DE(clash)    DE(int)     intcor
      9.87     -13.38       0.34        0.00     115.81       2.65       0.20       3.31       ----

> <Gold.Chemscore.Fitness>
9.8667

> <Gold.Chemscore.DG>
-13.3769

> <Gold.Chemscore.ZeroCoef>
-5.4800

> <Gold.Chemscore.Hbond>
0.3414

> <Gold.Chemscore.Metal>
0.0000

> <Gold.Chemscore.Lipo>
115.8132

> <Gold.Chemscore.Internal_Hbond>
0.0000

> <Gold.Chemscore.DEClash>
0.1989

> <Gold.Chemscore.DEInternal>
3.3114

> <Gold.Chemscore.Rot>
2.6537

> <Gold.Chemscore.Internal.Correction>
   9.000000E+99

> <Gold.Chemscore.Hbonds>
donor molecule, donor type, donor heavy atom, donor atom, acceptor molecule, acceptor atom, score
      P1  H  7989  7998       L1    11  0.32

> <Gold.Chemscore.Hbond.Weighted>
-1.1403

> <Gold.Chemscore.Metal.Weighted>
-0.0000

> <Gold.Chemscore.Lipo.Weighted>
-13.5501

> <Gold.Chemscore.Internal_Hbond.Weighted>
0.0000

> <Gold.Chemscore.DEClash.Weighted>
0.1989

> <Gold.Chemscore.DEInternal.Weighted>
3.3114

> <Gold.Chemscore.Rot.Weighted>
6.7935

> <Gold.Chemscore.Internal.Correction.Weighted>
   9.000000E+99

> <Gold.Protein.RotatedTorsions>
[ 6907 6896 6895 6894 ] final  -58.56 input  -60.11 | X-H torsion
[ 7974 7965 7964 7962 ] final -150.05 input  175.53 | X-H torsion
[ 8008 7997 7996 7995 ] final   43.52 input   59.86 | X-H torsion
[ 10167 10162 10161 10158 ] final  127.94 input  -65.29 | X-H torsion
[ 10718 10713 10712 10709 ] final   95.80 input   66.30 | X-H torsion
[ 10763 10752 10751 10750 ] final   71.86 input  -60.55 | X-H torsion
[ 11005 11000 10999 10996 ] final  100.64 input  -57.11 | X-H torsion

> <Gold.Protein.ActiveResidues>
 VAL166  LYS551  ARG553  GLY616  TRP617  ASP618  TYR619  PRO620  LYS621  CYS622 
 ASP623  PHE694  ASN695  SER759  ASP760  ASP761  ALA762  ILE779  LEU786  VAL792 
 PHE793  MET794  SER795  GLU796  ALA797  LYS798  CYS799  TRP800  GLU811  SER814 

> <Gold.Protein.RotatedAtoms>
  150.7998  134.7083  159.6588 H   0  0  0  0  0  0  0  0  0  0  0  0  # atno 6907 bound_to 6896
  152.4113  134.6115  160.0037 H   0  0  0  0  0  0  0  0  0  0  0  0  # atno 6908 bound_to 6896
  151.6358  133.3292  159.3155 H   0  0  0  0  0  0  0  0  0  0  0  0  # atno 6909 bound_to 6896
  144.7930  140.4983  143.5759 H   0  0  0  0  0  0  0  0  0  0  0  0  # atno 7974 bound_to 7965
  155.3040  140.3387  155.4246 H   0  0  0  0  0  0  0  0  0  0  0  0  # atno 8008 bound_to 7997
  156.1987  140.1725  156.7982 H   0  0  0  0  0  0  0  0  0  0  0  0  # atno 8009 bound_to 7997
  154.5532  140.0701  156.8685 H   0  0  0  0  0  0  0  0  0  0  0  0  # atno 8010 bound_to 7997
  139.5553  144.6844  151.4202 H   0  0  0  0  0  0  0  0  0  0  0  0  # atno 10167 bound_to 10162
  157.6934  131.0557  150.4394 H   0  0  0  0  0  0  0  0  0  0  0  0  # atno 10718 bound_to 10713
  153.0424  135.5121  154.7657 H   0  0  0  0  0  0  0  0  0  0  0  0  # atno 10763 bound_to 10752
  154.6584  135.2935  154.9901 H   0  0  0  0  0  0  0  0  0  0  0  0  # atno 10764 bound_to 10752
  154.0760  135.6671  153.4883 H   0  0  0  0  0  0  0  0  0  0  0  0  # atno 10765 bound_to 10752
  139.8771  134.9149  156.4786 H   0  0  0  0  0  0  0  0  0  0  0  0  # atno 11005 bound_to 11000
  145.5744  139.1485  143.3270 LP  0  0  0  0  0  0  0  0  0  0  0  0  # atno 17320 bound_to 7965
  146.2189  140.5876  142.9026 LP  0  0  0  0  0  0  0  0  0  0  0  0  # atno 17321 bound_to 7965
  140.6824  143.8052  150.7139 LP  0  0  0  0  0  0  0  0  0  0  0  0  # atno 17342 bound_to 10162
  140.1509  143.4359  152.2132 LP  0  0  0  0  0  0  0  0  0  0  0  0  # atno 17343 bound_to 10162
  156.4754  130.4062  149.6493 LP  0  0  0  0  0  0  0  0  0  0  0  0  # atno 17370 bound_to 10713
  156.3558  130.7456  151.2421 LP  0  0  0  0  0  0  0  0  0  0  0  0  # atno 17371 bound_to 10713
  140.8743  133.7965  155.9398 LP  0  0  0  0  0  0  0  0  0  0  0  0  # atno 17394 bound_to 11000
  140.8920  134.2484  157.5089 LP  0  0  0  0  0  0  0  0  0  0  0  0  # atno 17395 bound_to 11000

$$$$
