AV-unprocessed.smi:1252|AV-procd|sdf|5267|dock1
  -GOLD-   22720 4383D 1   1.00000     0.00000
 Structure written by MMmdl.
 44 45  0  0  0  0  0  0  0  0  2 V2000
  146.2250  135.9693  150.3453 C   0  0  0  0  0  0  0  0  0  0  0  0
  146.2683  134.6661  151.1686 C   0  0  1  0  0  0  0  0  0  0  0  0
  145.9899  134.9069  152.6601 C   0  0  0  0  0  0  0  0  0  0  0  0
  144.9260  134.5472  153.1654 O   0  0  0  0  0  0  0  0  0  0  0  0
  146.9599  135.5234  153.3547 N   0  0  0  0  0  0  0  0  0  0  0  0
  146.9167  135.8411  154.7816 C   0  0  0  0  0  0  0  0  0  0  0  0
  148.3260  135.9434  155.4408 C   0  0  0  0  0  0  0  0  0  0  0  0
  148.1736  136.2417  156.9537 C   0  0  0  0  0  0  0  0  0  0  0  0
  149.0716  134.5886  155.3448 C   0  0  0  0  0  0  0  0  0  0  0  0
  149.1603  137.0165  154.7883 N   0  3  0  0  0  0  0  0  0  0  0  0
  148.5071  138.3493  154.6464 C   0  0  0  0  0  0  0  0  0  0  0  0
  149.3793  139.2922  153.8014 C   0  0  0  0  0  0  0  0  0  0  0  0
  150.6597  139.4240  154.4019 O   0  0  0  0  0  0  0  0  0  0  0  0
  151.3392  138.1783  154.4657 C   0  0  0  0  0  0  0  0  0  0  0  0
  150.5370  137.1928  155.3322 C   0  0  0  0  0  0  0  0  0  0  0  0
  145.3619  133.6509  150.6464 N   0  0  0  0  0  0  0  0  0  0  0  0
  145.5650  132.3488  150.4340 C   0  0  0  0  0  0  0  0  0  0  0  0
  144.4970  131.7020  149.9890 N   0  0  0  0  0  0  0  0  0  0  0  0
  143.6024  132.7339  149.9575 C   0  0  0  0  0  0  0  0  0  0  0  0
  144.0651  133.9200  150.3520 N   0  0  0  0  0  0  0  0  0  0  0  0
  146.9572  136.6893  150.7124 H   0  0  0  0  0  0  0  0  0  0  0  0
  145.2453  136.4475  150.3823 H   0  0  0  0  0  0  0  0  0  0  0  0
  146.4562  135.7744  149.2978 H   0  0  0  0  0  0  0  0  0  0  0  0
  147.2797  134.2652  151.0809 H   0  0  0  0  0  0  0  0  0  0  0  0
  147.8004  135.7831  152.8590 H   0  0  0  0  0  0  0  0  0  0  0  0
  146.3447  136.7570  154.9323 H   0  0  0  0  0  0  0  0  0  0  0  0
  146.3345  135.0491  155.2512 H   0  0  0  0  0  0  0  0  0  0  0  0
  147.7541  135.3914  157.4926 H   0  0  0  0  0  0  0  0  0  0  0  0
  147.5039  137.0799  157.1458 H   0  0  0  0  0  0  0  0  0  0  0  0
  149.1362  136.4671  157.4142 H   0  0  0  0  0  0  0  0  0  0  0  0
  148.6187  133.8300  155.9839 H   0  0  0  0  0  0  0  0  0  0  0  0
  150.1125  134.6842  155.6560 H   0  0  0  0  0  0  0  0  0  0  0  0
  149.0589  134.1789  154.3350 H   0  0  0  0  0  0  0  0  0  0  0  0
  147.5359  138.2717  154.1619 H   0  0  0  0  0  0  0  0  0  0  0  0
  148.3436  138.7974  155.6265 H   0  0  0  0  0  0  0  0  0  0  0  0
  149.4769  138.9229  152.7790 H   0  0  0  0  0  0  0  0  0  0  0  0
  148.9164  140.2774  153.7406 H   0  0  0  0  0  0  0  0  0  0  0  0
  151.4916  137.7800  153.4613 H   0  0  0  0  0  0  0  0  0  0  0  0
  152.3275  138.3391  154.8969 H   0  0  0  0  0  0  0  0  0  0  0  0
  150.4944  137.5648  156.3562 H   0  0  0  0  0  0  0  0  0  0  0  0
  151.0845  136.2526  155.3534 H   0  0  0  0  0  0  0  0  0  0  0  0
  146.5134  131.8631  150.6116 H   0  0  0  0  0  0  0  0  0  0  0  0
  142.5780  132.6062  149.6396 H   0  0  0  0  0  0  0  0  0  0  0  0
  149.2943  136.6892  153.8422 H   0  0  0  0  0  0  0  0  0  0  0  0
  1  2  1  0  0  0  0
  1 21  1  0  0  0  0
  1 22  1  0  0  0  0
  1 23  1  0  0  0  0
  2  3  1  0  0  0  0
  2 16  1  0  0  0  0
  2 24  1  0  0  0  0
  3  4  2  0  0  0  0
  3  5  1  0  0  0  0
  5  6  1  0  0  0  0
  5 25  1  0  0  0  0
  6  7  1  0  0  0  0
  6 26  1  0  0  0  0
  6 27  1  0  0  0  0
  7  8  1  0  0  0  0
  7  9  1  0  0  0  0
  7 10  1  0  0  0  0
  8 28  1  0  0  0  0
  8 29  1  0  0  0  0
  8 30  1  0  0  0  0
  9 31  1  0  0  0  0
  9 32  1  0  0  0  0
  9 33  1  0  0  0  0
 10 15  1  0  0  0  0
 10 11  1  0  0  0  0
 10 44  1  0  0  0  0
 11 12  1  0  0  0  0
 11 34  1  0  0  0  0
 11 35  1  0  0  0  0
 12 13  1  0  0  0  0
 12 36  1  0  0  0  0
 12 37  1  0  0  0  0
 13 14  1  0  0  0  0
 14 15  1  0  0  0  0
 14 38  1  0  0  0  0
 14 39  1  0  0  0  0
 15 40  1  0  0  0  0
 15 41  1  0  0  0  0
 16 20  1  0  0  0  0
 16 17  1  0  0  0  0
 17 18  2  0  0  0  0
 17 42  1  0  0  0  0
 18 19  1  0  0  0  0
 19 20  2  0  0  0  0
 19 43  1  0  0  0  0
M  CHG  1  10   1
M  END
> <s_m_source_file>
AV-unprocessed.smi

> <i_m_source_file_index>
1252

> <i_lp_mmshare_version>
43012

> <i_f3d_flags>
0

> <s_epik_input>
bjFbY0hdbltjSF1uMVtDQEhdKFtDSDNdKUMoPU8pW05IXVtDSDJdQyhbQ0gzXSkoW0NIM10pTjJbQ0gyXVtDSDJdT1tDSDJdW0NIMl0y

> <s_epik_cmdline>
J2VwaWtfcHl0aG9uJywgJy1waCcsICc3LjAnLCAnLXRuJywgJzgnLCAnLW1hJywgJzIwMCcsICctbWV0YWxfYmluZGluZycsICctaW1hZScsICc8aW5maWxlLm1hZT4nLCAnLW9tYWUnLCAnPG91dGZpbGUubWFlPic=

> <r_lp_tautomer_probability>
1

> <r_epik_Ionization_Penalty>
0.71326

> <r_epik_Ionization_Penalty_Charging>
0.713252

> <r_epik_Ionization_Penalty_Neutral>
8.22342e-06

> <r_epik_State_Penalty>
0.737017

> <r_epik_Charging_Adjusted_Penalty>
1.45027

> <i_epik_Tot_Q>
1

> <i_epik_Tot_abs_Q>
1

> <r_epik_Metal_State_Penalty>
0.73702

> <b_epik_Metal_Only>
0

> <s_lp_Force_Field>
OPLS_2005

> <r_lp_Energy>
31.3962

> <b_lp_Chiralities_Consistent>
1

> <s_lp_Variant>
AV-unprocessed.smi:1252-4

> <Gold.Version>
5.8.1

> <Gold.Id.Protein>
6NUR|6NUR_protein|mol2

> <Gold.PLP.Fitness>
47.3419

> <Gold.PLP.PLP>
-30.8212

> <Gold.PLP.part.hbond>
-3.7852

> <Gold.PLP.part.metal>
0.0000

> <Gold.PLP.part.buried>
-5.0168

> <Gold.PLP.part.nonpolar>
-22.5872

> <Gold.PLP.part.repulsive>
0.5755

> <Gold.PLP.ligand.clash>
0.0000

> <Gold.PLP.ligand.torsion>
1.0254

> <Gold.PLP.Chemscore.Hbond>
4.0355

> <Gold.PLP.Chemscore.CHOScore>
2.0297

> <Gold.PLP.Chemscore.Metal>
0.0000

> <Gold.Chemscore.Hbonds>
donor molecule, donor type, donor heavy atom, donor atom, acceptor molecule, acceptor atom, score
      L1  H     5    25       P1  7948  1.00
      L1  H    10    44       P1  7948  1.95
      P1  H  7989  7998       L1    13  1.00
      P1  H 10785 10796       L1    18  0.07
      L1  C    17    42       P1 10747  0.63
      L1  C    19    43       P1 10186  0.87
      L1  C    19    43       P1 10952  0.19

> <Gold.PLP.Chemscore.Internal.Correction>
0.3761

> <Gold.Rescore>
     Score         DG    S(hbond)    S(metal)    S(lipo)     H(rot)  DE(clash)    DE(int)     intcor
     10.10     -12.62       2.34        0.00      50.88       2.59       0.14       2.37       ----

> <Gold.Chemscore.Fitness>
10.1045

> <Gold.Chemscore.DG>
-12.6193

> <Gold.Chemscore.ZeroCoef>
-5.4800

> <Gold.Chemscore.Hbond>
2.3376

> <Gold.Chemscore.Metal>
0.0000

> <Gold.Chemscore.Lipo>
50.8783

> <Gold.Chemscore.Internal_Hbond>
0.0000

> <Gold.Chemscore.DEClash>
0.1442

> <Gold.Chemscore.DEInternal>
2.3706

> <Gold.Chemscore.Rot>
2.5864

> <Gold.Chemscore.Internal.Correction>
   9.000000E+99

> <Gold.Chemscore.Hbonds>
donor molecule, donor type, donor heavy atom, donor atom, acceptor molecule, acceptor atom, score
      L1  H     5    25       P1  7948  0.97
      L1  H    10    44       P1  7948  0.88
      P1  H  7989  7998       L1    13  0.58
      P1  H 10785 10796       L1    18  0.02

> <Gold.Chemscore.Hbond.Weighted>
-7.8077

> <Gold.Chemscore.Metal.Weighted>
-0.0000

> <Gold.Chemscore.Lipo.Weighted>
-5.9528

> <Gold.Chemscore.Internal_Hbond.Weighted>
0.0000

> <Gold.Chemscore.DEClash.Weighted>
0.1442

> <Gold.Chemscore.DEInternal.Weighted>
2.3706

> <Gold.Chemscore.Rot.Weighted>
6.6211

> <Gold.Chemscore.Internal.Correction.Weighted>
   9.000000E+99

> <Gold.Protein.RotatedTorsions>
[ 6907 6896 6895 6894 ] final  -54.44 input  -60.11 | X-H torsion
[ 7974 7965 7964 7962 ] final   17.28 input  175.53 | X-H torsion
[ 8008 7997 7996 7995 ] final -125.46 input   59.86 | X-H torsion
[ 10167 10162 10161 10158 ] final  115.81 input  -65.29 | X-H torsion
[ 10718 10713 10712 10709 ] final   47.31 input   66.30 | X-H torsion
[ 10763 10752 10751 10750 ] final  -52.49 input  -60.55 | X-H torsion
[ 11005 11000 10999 10996 ] final  -47.80 input  -57.11 | X-H torsion

> <Gold.Protein.ActiveResidues>
 VAL166  LYS551  ARG553  GLY616  TRP617  ASP618  TYR619  PRO620  LYS621  CYS622 
 ASP623  PHE694  ASN695  SER759  ASP760  ASP761  ALA762  ILE779  LEU786  VAL792 
 PHE793  MET794  SER795  GLU796  ALA797  LYS798  CYS799  TRP800  GLU811  SER814 

> <Gold.Protein.RotatedAtoms>
  150.8337  134.7602  159.6875 H   0  0  0  0  0  0  0  0  0  0  0  0  # atno 6907 bound_to 6896
  152.4438  134.5534  159.9883 H   0  0  0  0  0  0  0  0  0  0  0  0  # atno 6908 bound_to 6896
  151.5689  133.3355  159.3021 H   0  0  0  0  0  0  0  0  0  0  0  0  # atno 6909 bound_to 6896
  146.2223  139.8625  142.8602 H   0  0  0  0  0  0  0  0  0  0  0  0  # atno 7974 bound_to 7965
  155.2136  140.0419  157.2937 H   0  0  0  0  0  0  0  0  0  0  0  0  # atno 8008 bound_to 7997
  154.5995  140.2448  155.7782 H   0  0  0  0  0  0  0  0  0  0  0  0  # atno 8009 bound_to 7997
  156.2312  140.2937  156.0202 H   0  0  0  0  0  0  0  0  0  0  0  0  # atno 8010 bound_to 7997
  139.6291  144.7112  151.2470 H   0  0  0  0  0  0  0  0  0  0  0  0  # atno 10167 bound_to 10162
  157.4571  130.8174  149.7848 H   0  0  0  0  0  0  0  0  0  0  0  0  # atno 10718 bound_to 10713
  154.1435  135.6501  153.4947 H   0  0  0  0  0  0  0  0  0  0  0  0  # atno 10763 bound_to 10752
  153.0159  135.5321  154.6881 H   0  0  0  0  0  0  0  0  0  0  0  0  # atno 10764 bound_to 10752
  154.6149  135.2958  155.0362 H   0  0  0  0  0  0  0  0  0  0  0  0  # atno 10765 bound_to 10752
  141.0662  133.6693  156.3349 H   0  0  0  0  0  0  0  0  0  0  0  0  # atno 11005 bound_to 11000
  145.2690  141.0102  143.3783 LP  0  0  0  0  0  0  0  0  0  0  0  0  # atno 17320 bound_to 7965
  144.9239  139.4379  143.6528 LP  0  0  0  0  0  0  0  0  0  0  0  0  # atno 17321 bound_to 7965
  140.7428  143.6513  150.8246 LP  0  0  0  0  0  0  0  0  0  0  0  0  # atno 17342 bound_to 10162
  140.0135  143.5617  152.2829 LP  0  0  0  0  0  0  0  0  0  0  0  0  # atno 17343 bound_to 10162
  156.0012  130.3879  150.2599 LP  0  0  0  0  0  0  0  0  0  0  0  0  # atno 17370 bound_to 10713
  157.0774  131.0134  151.3169 LP  0  0  0  0  0  0  0  0  0  0  0  0  # atno 17371 bound_to 10713
  140.5768  134.5786  157.5470 LP  0  0  0  0  0  0  0  0  0  0  0  0  # atno 17394 bound_to 11000
  139.9479  134.7669  156.0518 LP  0  0  0  0  0  0  0  0  0  0  0  0  # atno 17395 bound_to 11000

$$$$
