AV-unprocessed.smi:1669|AV-procd|sdf|6684|dock2
  -GOLD-   22720 7403D 1   1.00000     0.00000
 Structure written by MMmdl.
 48 50  0  0  0  0  0  0  0  0  2 V2000
  147.4479  142.1710  156.5663 C   0  0  0  0  0  0  0  0  0  0  0  0
  147.8736  142.1597  155.1441 N   0  3  2  0  0  0  0  0  0  0  0  0
  146.7322  142.0301  154.2019 C   0  0  0  0  0  0  0  0  0  0  0  0
  145.8408  143.2604  154.1927 C   0  0  0  0  0  0  0  0  0  0  0  0
  145.1171  143.6248  155.3483 C   0  0  0  0  0  0  0  0  0  0  0  0
  144.2957  144.7688  155.3373 C   0  0  0  0  0  0  0  0  0  0  0  0
  144.1925  145.5512  154.1710 C   0  0  0  0  0  0  0  0  0  0  0  0
  144.9102  145.1886  153.0148 C   0  0  0  0  0  0  0  0  0  0  0  0
  145.7318  144.0445  153.0248 C   0  0  0  0  0  0  0  0  0  0  0  0
  148.9359  141.1560  154.8777 C   0  0  0  0  0  0  0  0  0  0  0  0
  150.1754  141.3595  155.7770 C   0  0  2  0  0  0  0  0  0  0  0  0
  151.2884  140.7512  155.1547 O   0  0  0  0  0  0  0  0  0  0  0  0
  150.0275  140.7490  157.1857 C   0  0  0  0  0  0  0  0  0  0  0  0
  151.0611  141.2093  158.1034 N   0  0  0  0  0  0  0  0  0  0  0  0
  152.0335  140.4852  158.7153 C   0  0  0  0  0  0  0  0  0  0  0  0
  152.1727  139.0053  158.4928 C   0  0  0  0  0  0  0  0  0  0  0  0
  153.4615  138.6068  158.0723 O   0  0  0  0  0  0  0  0  0  0  0  0
  152.8464  141.1768  159.5173 N   0  0  0  0  0  0  0  0  0  0  0  0
  152.3625  142.4652  159.4110 C   0  0  0  0  0  0  0  0  0  0  0  0
  152.7963  143.6632  160.0220 C   0  0  0  0  0  0  0  0  0  0  0  0
  152.1346  144.8800  159.7565 C   0  0  0  0  0  0  0  0  0  0  0  0
  151.0325  144.9161  158.8780 C   0  0  0  0  0  0  0  0  0  0  0  0
  150.5837  143.7334  158.2592 C   0  0  0  0  0  0  0  0  0  0  0  0
  151.2468  142.5212  158.5293 C   0  0  0  0  0  0  0  0  0  0  0  0
  146.9280  141.2474  156.8232 H   0  0  0  0  0  0  0  0  0  0  0  0
  146.7788  143.0060  156.7722 H   0  0  0  0  0  0  0  0  0  0  0  0
  148.2974  142.2761  157.2397 H   0  0  0  0  0  0  0  0  0  0  0  0
  147.1035  141.8894  153.1858 H   0  0  0  0  0  0  0  0  0  0  0  0
  146.1486  141.1409  154.4462 H   0  0  0  0  0  0  0  0  0  0  0  0
  145.1920  143.0310  156.2477 H   0  0  0  0  0  0  0  0  0  0  0  0
  143.7445  145.0466  156.2237 H   0  0  0  0  0  0  0  0  0  0  0  0
  143.5627  146.4289  154.1633 H   0  0  0  0  0  0  0  0  0  0  0  0
  144.8299  145.7887  152.1203 H   0  0  0  0  0  0  0  0  0  0  0  0
  146.2795  143.7726  152.1343 H   0  0  0  0  0  0  0  0  0  0  0  0
  148.5090  140.1608  155.0072 H   0  0  0  0  0  0  0  0  0  0  0  0
  149.2586  141.2098  153.8369 H   0  0  0  0  0  0  0  0  0  0  0  0
  150.3960  142.4205  155.8850 H   0  0  0  0  0  0  0  0  0  0  0  0
  151.2680  140.9546  154.2314 H   0  0  0  0  0  0  0  0  0  0  0  0
  149.0431  140.9705  157.5975 H   0  0  0  0  0  0  0  0  0  0  0  0
  150.0910  139.6612  157.1297 H   0  0  0  0  0  0  0  0  0  0  0  0
  151.9437  138.4745  159.4166 H   0  0  0  0  0  0  0  0  0  0  0  0
  151.4455  138.6909  157.7438 H   0  0  0  0  0  0  0  0  0  0  0  0
  153.7527  137.8962  158.6227 H   0  0  0  0  0  0  0  0  0  0  0  0
  153.6404  143.6463  160.6955 H   0  0  0  0  0  0  0  0  0  0  0  0
  152.4758  145.7900  160.2282 H   0  0  0  0  0  0  0  0  0  0  0  0
  150.5326  145.8528  158.6789 H   0  0  0  0  0  0  0  0  0  0  0  0
  149.7410  143.7602  157.5847 H   0  0  0  0  0  0  0  0  0  0  0  0
  148.2900  143.0597  154.9508 H   0  0  0  0  0  0  0  0  0  0  0  0
  1  2  1  0  0  0  0
  1 25  1  0  0  0  0
  1 26  1  0  0  0  0
  1 27  1  0  0  0  0
  2  3  1  0  0  0  0
  2 10  1  0  0  0  0
  2 48  1  0  0  0  0
  3  4  1  0  0  0  0
  3 28  1  0  0  0  0
  3 29  1  0  0  0  0
  4  9  1  0  0  0  0
  4  5  2  0  0  0  0
  5  6  1  0  0  0  0
  5 30  1  0  0  0  0
  6  7  2  0  0  0  0
  6 31  1  0  0  0  0
  7  8  1  0  0  0  0
  7 32  1  0  0  0  0
  8  9  2  0  0  0  0
  8 33  1  0  0  0  0
  9 34  1  0  0  0  0
 10 11  1  0  0  0  0
 10 35  1  0  0  0  0
 10 36  1  0  0  0  0
 11 12  1  0  0  0  0
 11 13  1  0  0  0  0
 11 37  1  0  0  0  0
 12 38  1  0  0  0  0
 13 14  1  0  0  0  0
 13 39  1  0  0  0  0
 13 40  1  0  0  0  0
 14 24  1  0  0  0  0
 14 15  1  0  0  0  0
 15 16  1  0  0  0  0
 15 18  2  0  0  0  0
 16 17  1  0  0  0  0
 16 41  1  0  0  0  0
 16 42  1  0  0  0  0
 17 43  1  0  0  0  0
 18 19  1  0  0  0  0
 19 24  2  0  0  0  0
 19 20  1  0  0  0  0
 20 21  2  0  0  0  0
 20 44  1  0  0  0  0
 21 22  1  0  0  0  0
 21 45  1  0  0  0  0
 22 23  2  0  0  0  0
 22 46  1  0  0  0  0
 23 24  1  0  0  0  0
 23 47  1  0  0  0  0
M  CHG  1   2   1
M  END
> <s_m_source_file>
AV-unprocessed.smi

> <i_m_source_file_index>
1669

> <i_lp_mmshare_version>
43012

> <i_f3d_flags>
0

> <s_epik_input>
W2NIXTFbY0hdW2NIXVtjSF1bY0hdYzFbQ0gyXU4oW0NIM10pW0NIMl1bQ0BIXShbT0hdKVtDSDJdbihjKG4yKVtDSDJdW09IXSljKGMyMylbY0hdW2NIXVtjSF1bY0hdMw==

> <s_epik_cmdline>
J2VwaWtfcHl0aG9uJywgJy1waCcsICc3LjAnLCAnLXRuJywgJzgnLCAnLW1hJywgJzIwMCcsICctbWV0YWxfYmluZGluZycsICctaW1hZScsICc8aW5maWxlLm1hZT4nLCAnLW9tYWUnLCAnPG91dGZpbGUubWFlPic=

> <r_epik_Ionization_Penalty>
0.0949884

> <r_epik_Ionization_Penalty_Charging>
0.0475377

> <r_epik_Ionization_Penalty_Neutral>
0.0474507

> <r_epik_State_Penalty>
0.078247

> <r_epik_Charging_Adjusted_Penalty>
0.125785

> <i_epik_Tot_Q>
1

> <i_epik_Tot_abs_Q>
1

> <r_epik_Metal_State_Penalty>
0.0403451

> <b_epik_Metal_Only>
0

> <s_lp_Force_Field>
OPLS_2005

> <r_lp_Energy>
17.3617

> <b_lp_Chiralities_Consistent>
1

> <s_lp_Variant>
AV-unprocessed.smi:1669-2

> <Gold.Version>
5.8.1

> <Gold.Id.Protein>
6NUR|6NUR_protein|mol2

> <Gold.PLP.Fitness>
61.8294

> <Gold.PLP.PLP>
-53.1492

> <Gold.PLP.part.hbond>
-3.0000

> <Gold.PLP.part.metal>
0.0000

> <Gold.PLP.part.buried>
-7.2411

> <Gold.PLP.part.nonpolar>
-44.0262

> <Gold.PLP.part.repulsive>
0.0953

> <Gold.PLP.ligand.clash>
0.0000

> <Gold.PLP.ligand.torsion>
0.4661

> <Gold.PLP.Chemscore.Hbond>
3.0000

> <Gold.PLP.Chemscore.CHOScore>
0.0000

> <Gold.PLP.Chemscore.Metal>
0.0000

> <Gold.Chemscore.Hbonds>
donor molecule, donor type, donor heavy atom, donor atom, acceptor molecule, acceptor atom, score
      L1  H     2    48       P1  8028  1.89
      P1  H  7997  8009       L1    17  0.83

> <Gold.PLP.Chemscore.Internal.Correction>
0.6124

> <Gold.Rescore>
     Score         DG    S(hbond)    S(metal)    S(lipo)     H(rot)  DE(clash)    DE(int)     intcor
     17.93     -18.81       1.94        0.00     128.07       3.17       0.05       0.82       ----

> <Gold.Chemscore.Fitness>
17.9347

> <Gold.Chemscore.DG>
-18.8087

> <Gold.Chemscore.ZeroCoef>
-5.4800

> <Gold.Chemscore.Hbond>
1.9364

> <Gold.Chemscore.Metal>
0.0000

> <Gold.Chemscore.Lipo>
128.0705

> <Gold.Chemscore.Internal_Hbond>
0.0000

> <Gold.Chemscore.DEClash>
0.0498

> <Gold.Chemscore.DEInternal>
0.8242

> <Gold.Chemscore.Rot>
3.1731

> <Gold.Chemscore.Internal.Correction>
   9.000000E+99

> <Gold.Chemscore.Hbonds>
donor molecule, donor type, donor heavy atom, donor atom, acceptor molecule, acceptor atom, score
      L1  H     2    48       P1  8028  0.90
      P1  H  7997  8009       L1    17  0.79

> <Gold.Chemscore.Hbond.Weighted>
-6.4675

> <Gold.Chemscore.Metal.Weighted>
-0.0000

> <Gold.Chemscore.Lipo.Weighted>
-14.9843

> <Gold.Chemscore.Internal_Hbond.Weighted>
0.0000

> <Gold.Chemscore.DEClash.Weighted>
0.0498

> <Gold.Chemscore.DEInternal.Weighted>
0.8242

> <Gold.Chemscore.Rot.Weighted>
8.1230

> <Gold.Chemscore.Internal.Correction.Weighted>
   9.000000E+99

> <Gold.Protein.RotatedTorsions>
[ 6907 6896 6895 6894 ] final    6.49 input  -60.11 | X-H torsion
[ 7974 7965 7964 7962 ] final   92.15 input  175.53 | X-H torsion
[ 8008 7997 7996 7995 ] final  145.45 input   59.86 | X-H torsion
[ 10167 10162 10161 10158 ] final -137.22 input  -65.29 | X-H torsion
[ 10718 10713 10712 10709 ] final  170.48 input   66.30 | X-H torsion
[ 10763 10752 10751 10750 ] final   44.25 input  -60.55 | X-H torsion
[ 11005 11000 10999 10996 ] final   -6.40 input  -57.11 | X-H torsion

> <Gold.Protein.ActiveResidues>
 VAL166  LYS551  ARG553  GLY616  TRP617  ASP618  TYR619  PRO620  LYS621  CYS622 
 ASP623  PHE694  ASN695  SER759  ASP760  ASP761  ALA762  ILE779  LEU786  VAL792 
 PHE793  MET794  SER795  GLU796  ALA797  LYS798  CYS799  TRP800  GLU811  SER814 

> <Gold.Protein.RotatedAtoms>
  151.6746  135.0971  160.0204 H   0  0  0  0  0  0  0  0  0  0  0  0  # atno 6907 bound_to 6896
  152.3871  133.6622  159.6216 H   0  0  0  0  0  0  0  0  0  0  0  0  # atno 6908 bound_to 6896
  150.7794  133.8933  159.3361 H   0  0  0  0  0  0  0  0  0  0  0  0  # atno 6909 bound_to 6896
  145.4962  139.2276  143.2803 H   0  0  0  0  0  0  0  0  0  0  0  0  # atno 7974 bound_to 7965
  156.2882  140.2208  156.5218 H   0  0  0  0  0  0  0  0  0  0  0  0  # atno 8008 bound_to 7997
  154.7522  140.0479  157.0925 H   0  0  0  0  0  0  0  0  0  0  0  0  # atno 8009 bound_to 7997
  155.0095  140.3111  155.4838 H   0  0  0  0  0  0  0  0  0  0  0  0  # atno 8010 bound_to 7997
  139.8599  143.7090  152.2651 H   0  0  0  0  0  0  0  0  0  0  0  0  # atno 10167 bound_to 10162
  157.0075  131.0194  151.2813 H   0  0  0  0  0  0  0  0  0  0  0  0  # atno 10718 bound_to 10713
  152.9845  135.6076  154.3243 H   0  0  0  0  0  0  0  0  0  0  0  0  # atno 10763 bound_to 10752
  154.2950  135.2774  155.2639 H   0  0  0  0  0  0  0  0  0  0  0  0  # atno 10764 bound_to 10752
  154.4917  135.5890  153.6520 H   0  0  0  0  0  0  0  0  0  0  0  0  # atno 10765 bound_to 10752
  140.7016  133.8985  155.8687 H   0  0  0  0  0  0  0  0  0  0  0  0  # atno 11005 bound_to 11000
  146.2254  140.5759  142.8999 LP  0  0  0  0  0  0  0  0  0  0  0  0  # atno 17320 bound_to 7965
  144.7806  140.5832  143.6608 LP  0  0  0  0  0  0  0  0  0  0  0  0  # atno 17321 bound_to 7965
  139.7384  144.7565  151.0692 LP  0  0  0  0  0  0  0  0  0  0  0  0  # atno 17342 bound_to 10162
  140.7776  143.5003  150.9780 LP  0  0  0  0  0  0  0  0  0  0  0  0  # atno 17343 bound_to 10162
  157.5345  130.8080  149.7956 LP  0  0  0  0  0  0  0  0  0  0  0  0  # atno 17370 bound_to 10713
  156.0148  130.3818  150.2145 LP  0  0  0  0  0  0  0  0  0  0  0  0  # atno 17371 bound_to 10713
  141.0159  134.0956  157.4172 LP  0  0  0  0  0  0  0  0  0  0  0  0  # atno 17394 bound_to 11000
  139.8895  135.0105  156.6684 LP  0  0  0  0  0  0  0  0  0  0  0  0  # atno 17395 bound_to 11000

$$$$
