AV-unprocessed.smi:2521|AV-procd|sdf|9917|dock2
  -GOLD-   2272013553D 1   1.00000     0.00000
 Structure written by MMmdl.
 35 36  0  0  0  0  0  0  0  0  2 V2000
  151.2488  141.0817  157.9662 C   0  0  0  0  0  0  0  0  0  0  0  0
  151.3381  141.1565  156.4349 C   0  0  0  0  0  0  0  0  0  0  0  0
  150.1258  141.8466  155.7930 C   0  0  0  0  0  0  0  0  0  0  0  0
  151.6190  139.8213  155.8190 C   0  0  0  0  0  0  0  0  0  0  0  0
  152.7608  139.5315  155.1911 N   0  0  0  0  0  0  0  0  0  0  0  0
  152.7793  138.2304  154.7143 N   0  0  0  0  0  0  0  0  0  0  0  0
  151.6538  137.5418  154.9805 C   0  0  0  0  0  0  0  0  0  0  0  0
  151.3988  136.2584  154.6395 N   0  5  0  0  0  0  0  0  0  0  0  0
  150.4778  135.4546  155.2303 C   0  0  0  0  0  0  0  0  0  0  0  0
  150.5158  134.9761  156.3656 O   0  0  0  0  0  0  0  0  0  0  0  0
  149.4296  135.1846  154.4406 N   0  0  0  0  0  0  0  0  0  0  0  0
  148.2913  134.3516  154.8088 C   0  0  0  0  0  0  0  0  0  0  0  0
  148.2291  133.0873  153.9366 C   0  0  2  0  0  0  0  0  0  0  0  0
  147.0750  132.1561  154.2517 C   0  0  0  0  0  0  0  0  0  0  0  0
  147.5439  130.8481  153.6213 C   0  0  0  0  0  0  0  0  0  0  0  0
  148.9671  130.8644  153.6962 O   0  0  0  0  0  0  0  0  0  0  0  0
  149.4201  132.1475  154.1181 C   0  0  0  0  0  0  0  0  0  0  0  0
  150.4663  138.4985  155.8657 S   0  0  0  0  0  0  0  0  0  0  0  0
  152.1625  140.6659  158.3916 H   0  0  0  0  0  0  0  0  0  0  0  0
  150.4164  140.4533  158.2850 H   0  0  0  0  0  0  0  0  0  0  0  0
  151.1026  142.0713  158.3996 H   0  0  0  0  0  0  0  0  0  0  0  0
  152.2011  141.7843  156.2099 H   0  0  0  0  0  0  0  0  0  0  0  0
  150.2634  141.9580  154.7170 H   0  0  0  0  0  0  0  0  0  0  0  0
  149.9730  142.8417  156.2116 H   0  0  0  0  0  0  0  0  0  0  0  0
  149.2117  141.2745  155.9546 H   0  0  0  0  0  0  0  0  0  0  0  0
  149.4241  135.5891  153.5157 H   0  0  0  0  0  0  0  0  0  0  0  0
  148.3772  134.0725  155.8600 H   0  0  0  0  0  0  0  0  0  0  0  0
  147.3713  134.9293  154.7041 H   0  0  0  0  0  0  0  0  0  0  0  0
  148.1710  133.3734  152.8849 H   0  0  0  0  0  0  0  0  0  0  0  0
  146.9680  132.0341  155.3307 H   0  0  0  0  0  0  0  0  0  0  0  0
  146.1214  132.5012  153.8512 H   0  0  0  0  0  0  0  0  0  0  0  0
  147.1282  129.9737  154.1223 H   0  0  0  0  0  0  0  0  0  0  0  0
  147.2534  130.8064  152.5709 H   0  0  0  0  0  0  0  0  0  0  0  0
  150.2944  132.4673  153.5507 H   0  0  0  0  0  0  0  0  0  0  0  0
  149.7056  132.0817  155.1689 H   0  0  0  0  0  0  0  0  0  0  0  0
  1  2  1  0  0  0  0
  1 19  1  0  0  0  0
  1 20  1  0  0  0  0
  1 21  1  0  0  0  0
  2  3  1  0  0  0  0
  2  4  1  0  0  0  0
  2 22  1  0  0  0  0
  3 23  1  0  0  0  0
  3 24  1  0  0  0  0
  3 25  1  0  0  0  0
  4 18  1  0  0  0  0
  4  5  2  0  0  0  0
  5  6  1  0  0  0  0
  6  7  2  0  0  0  0
  7  8  1  0  0  0  0
  7 18  1  0  0  0  0
  8  9  1  0  0  0  0
  9 10  2  0  0  0  0
  9 11  1  0  0  0  0
 11 12  1  0  0  0  0
 11 26  1  0  0  0  0
 12 13  1  0  0  0  0
 12 27  1  0  0  0  0
 12 28  1  0  0  0  0
 13 17  1  0  0  0  0
 13 14  1  0  0  0  0
 13 29  1  0  0  0  0
 14 15  1  0  0  0  0
 14 30  1  0  0  0  0
 14 31  1  0  0  0  0
 15 16  1  0  0  0  0
 15 32  1  0  0  0  0
 15 33  1  0  0  0  0
 16 17  1  0  0  0  0
 17 34  1  0  0  0  0
 17 35  1  0  0  0  0
M  CHG  1   8  -1
M  END
> <s_m_source_file>
AV-unprocessed.smi

> <i_m_source_file_index>
2521

> <i_lp_mmshare_version>
43012

> <i_f3d_flags>
0

> <s_epik_input>
W0NIM11bQ0hdKFtDSDNdKWMxbm5jKHMxKVtOSF1DKD1PKVtOSF1bQ0gyXVtDQEBIXTJbQ0gyXVtDSDJdT1tDSDJdMg==

> <s_epik_cmdline>
J2VwaWtfcHl0aG9uJywgJy1waCcsICc3LjAnLCAnLXRuJywgJzgnLCAnLW1hJywgJzIwMCcsICctbWV0YWxfYmluZGluZycsICctaW1hZScsICc8aW5maWxlLm1hZT4nLCAnLW9tYWUnLCAnPG91dGZpbGUubWFlPic=

> <r_lp_tautomer_probability>
1

> <r_epik_Ionization_Penalty>
4.4451

> <r_epik_Ionization_Penalty_Charging>
4.28522

> <r_epik_Ionization_Penalty_Neutral>
0.159875

> <r_epik_State_Penalty>
4.28479

> <r_epik_Charging_Adjusted_Penalty>
8.57002

> <i_epik_Tot_Q>
-1

> <i_epik_Tot_abs_Q>
1

> <r_epik_Metal_State_Penalty>
0.721771

> <b_epik_Metal_Only>
1

> <s_lp_Force_Field>
OPLS_2005

> <r_lp_Energy>
14.6033

> <b_lp_Chiralities_Consistent>
1

> <s_lp_Variant>
AV-unprocessed.smi:2521-3

> <Gold.Version>
5.8.1

> <Gold.Id.Protein>
6NUR|6NUR_protein|mol2

> <Gold.PLP.Fitness>
38.3218

> <Gold.PLP.PLP>
-27.8791

> <Gold.PLP.part.hbond>
-4.1594

> <Gold.PLP.part.metal>
0.0000

> <Gold.PLP.part.buried>
-4.6005

> <Gold.PLP.part.nonpolar>
-20.3335

> <Gold.PLP.part.repulsive>
0.3790

> <Gold.PLP.ligand.clash>
0.0000

> <Gold.PLP.ligand.torsion>
0.8224

> <Gold.PLP.Chemscore.Hbond>
4.0000

> <Gold.PLP.Chemscore.CHOScore>
0.0000

> <Gold.PLP.Chemscore.Metal>
0.0000

> <Gold.Chemscore.Hbonds>
donor molecule, donor type, donor heavy atom, donor atom, acceptor molecule, acceptor atom, score
      L1  H    11    26       P1  7948  1.00
      P1  H  7997  8009       L1     5  1.00
      P1  H 10752 10763       L1     8  2.00

> <Gold.PLP.Chemscore.Internal.Correction>
0.0875

> <Gold.Rescore>
     Score         DG    S(hbond)    S(metal)    S(lipo)     H(rot)  DE(clash)    DE(int)     intcor
     14.16     -14.96       2.12        0.00      51.50       1.42       0.05       0.75       ----

> <Gold.Chemscore.Fitness>
14.1600

> <Gold.Chemscore.DG>
-14.9588

> <Gold.Chemscore.ZeroCoef>
-5.4800

> <Gold.Chemscore.Hbond>
2.1217

> <Gold.Chemscore.Metal>
0.0000

> <Gold.Chemscore.Lipo>
51.5014

> <Gold.Chemscore.Internal_Hbond>
0.0000

> <Gold.Chemscore.DEClash>
0.0462

> <Gold.Chemscore.DEInternal>
0.7526

> <Gold.Chemscore.Rot>
1.4193

> <Gold.Chemscore.Internal.Correction>
   9.000000E+99

> <Gold.Chemscore.Hbonds>
donor molecule, donor type, donor heavy atom, donor atom, acceptor molecule, acceptor atom, score
      L1  H    11    26       P1  7948  0.26
      P1  H  7997  8009       L1     5  0.85
      P1  H 10752 10763       L1     8  0.35

> <Gold.Chemscore.Hbond.Weighted>
-7.0865

> <Gold.Chemscore.Metal.Weighted>
-0.0000

> <Gold.Chemscore.Lipo.Weighted>
-6.0257

> <Gold.Chemscore.Internal_Hbond.Weighted>
0.0000

> <Gold.Chemscore.DEClash.Weighted>
0.0462

> <Gold.Chemscore.DEInternal.Weighted>
0.7526

> <Gold.Chemscore.Rot.Weighted>
3.6333

> <Gold.Chemscore.Internal.Correction.Weighted>
   9.000000E+99

> <Gold.Protein.RotatedTorsions>
[ 6907 6896 6895 6894 ] final  -80.97 input  -60.11 | X-H torsion
[ 7974 7965 7964 7962 ] final  138.98 input  175.53 | X-H torsion
[ 8008 7997 7996 7995 ] final -126.61 input   59.86 | X-H torsion
[ 10167 10162 10161 10158 ] final   -1.68 input  -65.29 | X-H torsion
[ 10718 10713 10712 10709 ] final   26.81 input   66.30 | X-H torsion
[ 10763 10752 10751 10750 ] final   58.48 input  -60.55 | X-H torsion
[ 11005 11000 10999 10996 ] final   18.74 input  -57.11 | X-H torsion

> <Gold.Protein.ActiveResidues>
 VAL166  LYS551  ARG553  GLY616  TRP617  ASP618  TYR619  PRO620  LYS621  CYS622 
 ASP623  PHE694  ASN695  SER759  ASP760  ASP761  ALA762  ILE779  LEU786  VAL792 
 PHE793  MET794  SER795  GLU796  ALA797  LYS798  CYS799  TRP800  GLU811  SER814 

> <Gold.Protein.RotatedAtoms>
  150.6920  134.3888  159.5066 H   0  0  0  0  0  0  0  0  0  0  0  0  # atno 6907 bound_to 6896
  152.1679  134.8855  160.0546 H   0  0  0  0  0  0  0  0  0  0  0  0  # atno 6908 bound_to 6896
  151.9892  133.3750  159.4175 H   0  0  0  0  0  0  0  0  0  0  0  0  # atno 6909 bound_to 6896
  144.9322  139.5033  143.5612 H   0  0  0  0  0  0  0  0  0  0  0  0  # atno 7974 bound_to 7965
  155.2325  140.0426  157.2964 H   0  0  0  0  0  0  0  0  0  0  0  0  # atno 8008 bound_to 7997
  154.5879  140.2419  155.7931 H   0  0  0  0  0  0  0  0  0  0  0  0  # atno 8009 bound_to 7997
  156.2239  140.2961  156.0028 H   0  0  0  0  0  0  0  0  0  0  0  0  # atno 8010 bound_to 7997
  140.6820  143.6747  150.8156 H   0  0  0  0  0  0  0  0  0  0  0  0  # atno 10167 bound_to 10162
  157.2118  130.6937  149.6231 H   0  0  0  0  0  0  0  0  0  0  0  0  # atno 10718 bound_to 10713
  152.9872  135.5605  154.5559 H   0  0  0  0  0  0  0  0  0  0  0  0  # atno 10763 bound_to 10752
  154.4987  135.2796  155.1440 H   0  0  0  0  0  0  0  0  0  0  0  0  # atno 10764 bound_to 10752
  154.2879  135.6332  153.5426 H   0  0  0  0  0  0  0  0  0  0  0  0  # atno 10765 bound_to 10752
  140.4215  134.1514  155.7673 H   0  0  0  0  0  0  0  0  0  0  0  0  # atno 11005 bound_to 11000
  146.3251  139.8280  142.8914 LP  0  0  0  0  0  0  0  0  0  0  0  0  # atno 17320 bound_to 7965
  145.3124  141.0223  143.3547 LP  0  0  0  0  0  0  0  0  0  0  0  0  # atno 17321 bound_to 7965
  140.0448  143.5309  152.2701 LP  0  0  0  0  0  0  0  0  0  0  0  0  # atno 17342 bound_to 10162
  139.6149  144.7617  151.2868 LP  0  0  0  0  0  0  0  0  0  0  0  0  # atno 17343 bound_to 10162
  155.9690  130.4549  150.5866 LP  0  0  0  0  0  0  0  0  0  0  0  0  # atno 17370 bound_to 10713
  157.3665  131.0758  151.1593 LP  0  0  0  0  0  0  0  0  0  0  0  0  # atno 17371 bound_to 10713
  141.1782  133.8469  157.1349 LP  0  0  0  0  0  0  0  0  0  0  0  0  # atno 17394 bound_to 11000
  140.0197  134.9951  157.0566 LP  0  0  0  0  0  0  0  0  0  0  0  0  # atno 17395 bound_to 11000

$$$$
