AV-unprocessed.smi:851|AV-procd|sdf|3950|dock9
  -GOLD-   22720 1423D 1   1.00000     0.00000
 Structure written by MMmdl.
 34 35  0  0  0  0  0  0  0  0  1 V2000
  146.1884  131.8913  151.8577 C   0  0  0  0  0  0  0  0  0  0  0  0
  147.1144  132.6410  152.6359 O   0  0  0  0  0  0  0  0  0  0  0  0
  148.1168  131.9635  153.3043 C   0  0  0  0  0  0  0  0  0  0  0  0
  148.1632  130.6115  153.2024 N   0  0  0  0  0  0  0  0  0  0  0  0
  149.1395  129.9515  153.8589 C   0  0  0  0  0  0  0  0  0  0  0  0
  150.1083  130.5964  154.6498 C   0  0  0  0  0  0  0  0  0  0  0  0
  150.0624  131.9987  154.7566 C   0  0  0  0  0  0  0  0  0  0  0  0
  149.0521  132.7062  154.0615 C   0  0  0  0  0  0  0  0  0  0  0  0
  148.8963  134.1180  154.1095 N   0  0  0  0  0  0  0  0  0  0  0  0
  149.6154  135.0309  154.7903 C   0  0  0  0  0  0  0  0  0  0  0  0
  150.5513  134.7689  155.5424 O   0  0  0  0  0  0  0  0  0  0  0  0
  149.2393  136.3026  154.5635 N   0  0  0  0  0  0  0  0  0  0  0  0
  149.8033  137.5272  155.1350 C   0  0  1  0  0  0  0  0  0  0  0  0
  150.2243  137.3100  156.6004 C   0  0  0  0  0  0  0  0  0  0  0  0
  151.1085  138.4846  157.0382 C   0  0  0  0  0  0  0  0  0  0  0  0
  151.9833  139.0534  155.5305 S   0  0  0  0  0  0  0  0  0  0  0  0
  151.6526  140.4667  155.2935 O   0  0  0  0  0  0  0  0  0  0  0  0
  153.3811  138.5980  155.5672 O   0  0  0  0  0  0  0  0  0  0  0  0
  151.0422  138.0058  154.3599 C   0  0  0  0  0  0  0  0  0  0  0  0
  145.4711  132.5717  151.3986 H   0  0  0  0  0  0  0  0  0  0  0  0
  145.6282  131.1866  152.4737 H   0  0  0  0  0  0  0  0  0  0  0  0
  146.6887  131.3479  151.0548 H   0  0  0  0  0  0  0  0  0  0  0  0
  149.1452  128.8765  153.7555 H   0  0  0  0  0  0  0  0  0  0  0  0
  150.8668  130.0277  155.1669 H   0  0  0  0  0  0  0  0  0  0  0  0
  150.7903  132.4970  155.3774 H   0  0  0  0  0  0  0  0  0  0  0  0
  148.2030  134.4913  153.4776 H   0  0  0  0  0  0  0  0  0  0  0  0
  148.4869  136.4346  153.9028 H   0  0  0  0  0  0  0  0  0  0  0  0
  149.0535  138.3206  155.1266 H   0  0  0  0  0  0  0  0  0  0  0  0
  149.3620  137.1927  157.2575 H   0  0  0  0  0  0  0  0  0  0  0  0
  150.8070  136.3905  156.6736 H   0  0  0  0  0  0  0  0  0  0  0  0
  150.4993  139.3113  157.4047 H   0  0  0  0  0  0  0  0  0  0  0  0
  151.8262  138.2113  157.8118 H   0  0  0  0  0  0  0  0  0  0  0  0
  151.6796  137.1666  154.0788 H   0  0  0  0  0  0  0  0  0  0  0  0
  150.7994  138.5741  153.4618 H   0  0  0  0  0  0  0  0  0  0  0  0
  1  2  1  0  0  0  0
  1 20  1  0  0  0  0
  1 21  1  0  0  0  0
  1 22  1  0  0  0  0
  2  3  1  0  0  0  0
  3  8  1  0  0  0  0
  3  4  2  0  0  0  0
  4  5  1  0  0  0  0
  5  6  2  0  0  0  0
  5 23  1  0  0  0  0
  6  7  1  0  0  0  0
  6 24  1  0  0  0  0
  7  8  2  0  0  0  0
  7 25  1  0  0  0  0
  8  9  1  0  0  0  0
  9 10  1  0  0  0  0
  9 26  1  0  0  0  0
 10 11  2  0  0  0  0
 10 12  1  0  0  0  0
 12 13  1  0  0  0  0
 12 27  1  0  0  0  0
 13 19  1  0  0  0  0
 13 14  1  0  0  0  0
 13 28  1  0  0  0  0
 14 15  1  0  0  0  0
 14 29  1  0  0  0  0
 14 30  1  0  0  0  0
 15 16  1  0  0  0  0
 15 31  1  0  0  0  0
 15 32  1  0  0  0  0
 16 17  2  0  0  0  0
 16 18  2  0  0  0  0
 16 19  1  0  0  0  0
 19 33  1  0  0  0  0
 19 34  1  0  0  0  0
M  END
> <s_m_source_file>
AV-unprocessed.smi

> <i_m_source_file_index>
851

> <i_lp_mmshare_version>
43012

> <i_f3d_flags>
0

> <s_epik_input>
W0NIM11PYzFuW2NIXVtjSF1bY0hdYzFbTkhdQyg9TylbTkhdW0NAQEhdKFtDSDJdMilbQ0gyXVtDSDJdUzIoPU8pPU8=

> <s_epik_cmdline>
J2VwaWtfcHl0aG9uJywgJy1waCcsICc3LjAnLCAnLXRuJywgJzgnLCAnLW1hJywgJzIwMCcsICctbWV0YWxfYmluZGluZycsICctaW1hZScsICc8aW5maWxlLm1hZT4nLCAnLW9tYWUnLCAnPG91dGZpbGUubWFlPic=

> <r_lp_tautomer_probability>
1

> <r_epik_Ionization_Penalty>
7.64927e-05

> <r_epik_Ionization_Penalty_Charging>
0

> <r_epik_Ionization_Penalty_Neutral>
7.64927e-05

> <r_epik_State_Penalty>
-0

> <r_epik_Charging_Adjusted_Penalty>
0

> <i_epik_Tot_Q>
0

> <i_epik_Tot_abs_Q>
0

> <r_epik_Metal_State_Penalty>
-0

> <b_epik_Metal_Only>
0

> <s_lp_Force_Field>
OPLS_2005

> <r_lp_Energy>
17.9576

> <b_lp_Chiralities_Consistent>
1

> <s_lp_Variant>
AV-unprocessed.smi:851-2

> <Gold.Version>
5.8.1

> <Gold.Id.Protein>
6NUR|6NUR_protein|mol2

> <Gold.PLP.Fitness>
34.5274

> <Gold.PLP.PLP>
-29.1341

> <Gold.PLP.part.hbond>
-3.9848

> <Gold.PLP.part.metal>
0.0000

> <Gold.PLP.part.buried>
-4.7311

> <Gold.PLP.part.nonpolar>
-20.8914

> <Gold.PLP.part.repulsive>
1.1296

> <Gold.PLP.ligand.clash>
0.0000

> <Gold.PLP.ligand.torsion>
0.3381

> <Gold.PLP.Chemscore.Hbond>
2.0230

> <Gold.PLP.Chemscore.CHOScore>
0.0000

> <Gold.PLP.Chemscore.Metal>
0.0000

> <Gold.Chemscore.Hbonds>
donor molecule, donor type, donor heavy atom, donor atom, acceptor molecule, acceptor atom, score
      L1  H    12    27       P1  7948  0.27
      P1  H  7989  7998       L1    17  0.80
      P1  H  7997  8008       L1    18  0.91

> <Gold.PLP.Chemscore.Internal.Correction>
0.0006

> <Gold.Rescore>
     Score         DG    S(hbond)    S(metal)    S(lipo)     H(rot)  DE(clash)    DE(int)     intcor
     11.49     -14.45       2.05        0.00      46.77       1.31       0.06       2.90       ----

> <Gold.Chemscore.Fitness>
11.4872

> <Gold.Chemscore.DG>
-14.4489

> <Gold.Chemscore.ZeroCoef>
-5.4800

> <Gold.Chemscore.Hbond>
2.0516

> <Gold.Chemscore.Metal>
0.0000

> <Gold.Chemscore.Lipo>
46.7724

> <Gold.Chemscore.Internal_Hbond>
0.0000

> <Gold.Chemscore.DEClash>
0.0618

> <Gold.Chemscore.DEInternal>
2.8999

> <Gold.Chemscore.Rot>
1.3109

> <Gold.Chemscore.Internal.Correction>
   9.000000E+99

> <Gold.Chemscore.Hbonds>
donor molecule, donor type, donor heavy atom, donor atom, acceptor molecule, acceptor atom, score
      L1  H     9    26       P1  7948  0.01
      L1  H    12    27       P1  7948  0.26
      P1  H  7989  7998       L1    17  0.65
      P1  H  7997  8008       L1    18  0.45

> <Gold.Chemscore.Hbond.Weighted>
-6.8524

> <Gold.Chemscore.Metal.Weighted>
-0.0000

> <Gold.Chemscore.Lipo.Weighted>
-5.4724

> <Gold.Chemscore.Internal_Hbond.Weighted>
0.0000

> <Gold.Chemscore.DEClash.Weighted>
0.0618

> <Gold.Chemscore.DEInternal.Weighted>
2.8999

> <Gold.Chemscore.Rot.Weighted>
3.3559

> <Gold.Chemscore.Internal.Correction.Weighted>
   9.000000E+99

> <Gold.Protein.RotatedTorsions>
[ 6907 6896 6895 6894 ] final  147.48 input  -60.11 | X-H torsion
[ 7974 7965 7964 7962 ] final   -8.46 input  175.53 | X-H torsion
[ 8008 7997 7996 7995 ] final  -31.57 input   59.86 | X-H torsion
[ 10167 10162 10161 10158 ] final  130.02 input  -65.29 | X-H torsion
[ 10718 10713 10712 10709 ] final   96.19 input   66.30 | X-H torsion
[ 10763 10752 10751 10750 ] final   -7.12 input  -60.55 | X-H torsion
[ 11005 11000 10999 10996 ] final   30.27 input  -57.11 | X-H torsion

> <Gold.Protein.ActiveResidues>
 VAL166  LYS551  ARG553  GLY616  TRP617  ASP618  TYR619  PRO620  LYS621  CYS622 
 ASP623  PHE694  ASN695  SER759  ASP760  ASP761  ALA762  ILE779  LEU786  VAL792 
 PHE793  MET794  SER795  GLU796  ALA797  LYS798  CYS799  TRP800  GLU811  SER814 

> <Gold.Protein.RotatedAtoms>
  152.1543  133.4541  159.4828 H   0  0  0  0  0  0  0  0  0  0  0  0  # atno 6907 bound_to 6896
  150.6899  134.2151  159.4383 H   0  0  0  0  0  0  0  0  0  0  0  0  # atno 6908 bound_to 6896
  152.0049  134.9907  160.0617 H   0  0  0  0  0  0  0  0  0  0  0  0  # atno 6909 bound_to 6896
  146.2279  140.2472  142.8346 H   0  0  0  0  0  0  0  0  0  0  0  0  # atno 7974 bound_to 7965
  154.4209  140.1760  156.1589 H   0  0  0  0  0  0  0  0  0  0  0  0  # atno 8008 bound_to 7997
  155.9854  140.3374  155.6678 H   0  0  0  0  0  0  0  0  0  0  0  0  # atno 8009 bound_to 7997
  155.6443  140.0683  157.2599 H   0  0  0  0  0  0  0  0  0  0  0  0  # atno 8010 bound_to 7997
  139.5450  144.6765  151.4503 H   0  0  0  0  0  0  0  0  0  0  0  0  # atno 10167 bound_to 10162
  157.6930  131.0570  150.4453 H   0  0  0  0  0  0  0  0  0  0  0  0  # atno 10718 bound_to 10713
  153.4219  135.7010  153.6289 H   0  0  0  0  0  0  0  0  0  0  0  0  # atno 10763 bound_to 10752
  153.4740  135.3708  155.2406 H   0  0  0  0  0  0  0  0  0  0  0  0  # atno 10764 bound_to 10752
  154.8722  135.4050  154.3588 H   0  0  0  0  0  0  0  0  0  0  0  0  # atno 10765 bound_to 10752
  140.2961  134.2809  155.7764 H   0  0  0  0  0  0  0  0  0  0  0  0  # atno 11005 bound_to 11000
  144.9440  140.8108  143.5613 LP  0  0  0  0  0  0  0  0  0  0  0  0  # atno 17320 bound_to 7965
  145.2426  139.2066  143.4985 LP  0  0  0  0  0  0  0  0  0  0  0  0  # atno 17321 bound_to 7965
  140.6694  143.8326  150.6981 LP  0  0  0  0  0  0  0  0  0  0  0  0  # atno 17342 bound_to 10162
  140.1746  143.4166  152.1977 LP  0  0  0  0  0  0  0  0  0  0  0  0  # atno 17343 bound_to 10162
  156.4808  130.4073  149.6462 LP  0  0  0  0  0  0  0  0  0  0  0  0  # atno 17370 bound_to 10713
  156.3509  130.7431  151.2390 LP  0  0  0  0  0  0  0  0  0  0  0  0  # atno 17371 bound_to 10713
  141.2137  133.7616  156.9697 LP  0  0  0  0  0  0  0  0  0  0  0  0  # atno 17394 bound_to 11000
  140.1151  134.9452  157.2123 LP  0  0  0  0  0  0  0  0  0  0  0  0  # atno 17395 bound_to 11000

$$$$
