AV-unprocessed.smi:10|AV-procd|sdf|53|dock9
  -GOLD-   2262015173D 1   1.00000     0.00000
 Structure written by MMmdl.
 34 36  0  0  0  0  0  0  0  0  1 V2000
  152.2154  144.0878  161.6182 C   0  0  0  0  0  0  0  0  0  0  0  0
  152.5207  142.9239  160.8119 N   0  0  0  0  0  0  0  0  0  0  0  0
  153.3751  141.9261  161.1073 C   0  0  0  0  0  0  0  0  0  0  0  0
  153.4672  140.9692  160.1856 N   0  0  0  0  0  0  0  0  0  0  0  0
  152.5803  141.4103  159.2100 C   0  0  0  0  0  0  0  0  0  0  0  0
  152.1991  140.8093  157.9114 C   0  0  0  0  0  0  0  0  0  0  0  0
  152.6656  139.7401  157.5177 O   0  0  0  0  0  0  0  0  0  0  0  0
  151.2888  141.5588  157.2217 N   0  0  0  0  0  0  0  0  0  0  0  0
  150.7870  141.1138  155.9128 C   0  0  0  0  0  0  0  0  0  0  0  0
  149.3601  141.6403  155.6362 C   0  0  2  0  0  0  0  0  0  0  0  0
  148.4881  141.1310  156.6247 O   0  0  0  0  0  0  0  0  0  0  0  0
  148.8150  141.1750  154.2866 C   0  0  0  0  0  0  0  0  0  0  0  0
  147.4216  141.6351  153.8280 C   0  0  0  0  0  0  0  0  0  0  0  0
  147.2344  140.2673  153.1673 C   0  0  0  0  0  0  0  0  0  0  0  0
  148.3019  139.7347  154.1258 C   0  0  0  0  0  0  0  0  0  0  0  0
  150.7542  142.7820  157.7290 C   0  0  0  0  0  0  0  0  0  0  0  0
  151.0684  143.3343  158.8719 N   0  0  0  0  0  0  0  0  0  0  0  0
  151.9952  142.5926  159.5690 C   0  0  0  0  0  0  0  0  0  0  0  0
  152.8707  144.1268  162.4890 H   0  0  0  0  0  0  0  0  0  0  0  0
  151.1795  144.0386  161.9544 H   0  0  0  0  0  0  0  0  0  0  0  0
  152.3572  144.9927  161.0268 H   0  0  0  0  0  0  0  0  0  0  0  0
  153.9453  141.8996  162.0244 H   0  0  0  0  0  0  0  0  0  0  0  0
  151.4679  141.4666  155.1362 H   0  0  0  0  0  0  0  0  0  0  0  0
  150.8275  140.0266  155.8183 H   0  0  0  0  0  0  0  0  0  0  0  0
  149.3394  142.7304  155.6813 H   0  0  0  0  0  0  0  0  0  0  0  0
  148.6991  140.2215  156.7739 H   0  0  0  0  0  0  0  0  0  0  0  0
  149.5257  141.3874  153.4844 H   0  0  0  0  0  0  0  0  0  0  0  0
  146.7350  141.7986  154.6603 H   0  0  0  0  0  0  0  0  0  0  0  0
  147.4238  142.4791  153.1378 H   0  0  0  0  0  0  0  0  0  0  0  0
  146.2442  139.8291  153.2951 H   0  0  0  0  0  0  0  0  0  0  0  0
  147.5557  140.2520  152.1247 H   0  0  0  0  0  0  0  0  0  0  0  0
  149.0171  139.0449  153.6771 H   0  0  0  0  0  0  0  0  0  0  0  0
  147.8766  139.3297  155.0456 H   0  0  0  0  0  0  0  0  0  0  0  0
  150.0226  143.2477  157.0663 H   0  0  0  0  0  0  0  0  0  0  0  0
  1  2  1  0  0  0  0
  1 19  1  0  0  0  0
  1 20  1  0  0  0  0
  1 21  1  0  0  0  0
  2 18  1  0  0  0  0
  2  3  1  0  0  0  0
  3  4  2  0  0  0  0
  3 22  1  0  0  0  0
  4  5  1  0  0  0  0
  5 18  2  0  0  0  0
  5  6  1  0  0  0  0
  6  7  2  0  0  0  0
  6  8  1  0  0  0  0
  8  9  1  0  0  0  0
  8 16  1  0  0  0  0
  9 10  1  0  0  0  0
  9 23  1  0  0  0  0
  9 24  1  0  0  0  0
 10 11  1  0  0  0  0
 10 12  1  0  0  0  0
 10 25  1  0  0  0  0
 11 26  1  0  0  0  0
 12 15  1  0  0  0  0
 12 13  1  0  0  0  0
 12 27  1  0  0  0  0
 13 14  1  0  0  0  0
 13 28  1  0  0  0  0
 13 29  1  0  0  0  0
 14 15  1  0  0  0  0
 14 30  1  0  0  0  0
 14 31  1  0  0  0  0
 15 32  1  0  0  0  0
 15 33  1  0  0  0  0
 16 17  2  0  0  0  0
 16 34  1  0  0  0  0
 17 18  1  0  0  0  0
M  END
> <s_m_source_file>
AV-unprocessed.smi

> <i_m_source_file_index>
10

> <i_lp_mmshare_version>
43012

> <i_f3d_flags>
0

> <s_epik_input>
bjFbY0hdbihbQ0gzXSljKGMxMiluW2NIXW4oYzI9TylbQ0gyXVtDQEhdKFtPSF0pW0NIXTNbQ0gyXVtDSDJdW0NIMl0z

> <s_epik_cmdline>
J2VwaWtfcHl0aG9uJywgJy1waCcsICc3LjAnLCAnLXRuJywgJzgnLCAnLW1hJywgJzIwMCcsICctbWV0YWxfYmluZGluZycsICctaW1hZScsICc8aW5maWxlLm1hZT4nLCAnLW9tYWUnLCAnPG91dGZpbGUubWFlPic=

> <r_lp_tautomer_probability>
1

> <r_epik_Ionization_Penalty>
0.0003743

> <r_epik_Ionization_Penalty_Charging>
2.98177e-12

> <r_epik_Ionization_Penalty_Neutral>
0.000374299

> <r_epik_State_Penalty>
0.000224514

> <r_epik_Charging_Adjusted_Penalty>
0.000224514

> <i_epik_Tot_Q>
0

> <i_epik_Tot_abs_Q>
0

> <r_epik_Metal_State_Penalty>
-0

> <b_epik_Metal_Only>
0

> <s_lp_Force_Field>
OPLS_2005

> <r_lp_Energy>
32.1402

> <b_lp_Chiralities_Consistent>
1

> <s_lp_Variant>
AV-unprocessed.smi:10-1

> <Gold.Version>
5.8.1

> <Gold.Id.Protein>
6NUR|6NUR_protein|mol2

> <Gold.PLP.Fitness>
45.3879

> <Gold.PLP.PLP>
-40.2924

> <Gold.PLP.part.hbond>
-1.0000

> <Gold.PLP.part.metal>
0.0000

> <Gold.PLP.part.buried>
-2.9077

> <Gold.PLP.part.nonpolar>
-35.7013

> <Gold.PLP.part.repulsive>
0.0769

> <Gold.PLP.ligand.clash>
0.0000

> <Gold.PLP.ligand.torsion>
0.5122

> <Gold.PLP.Chemscore.Hbond>
1.0000

> <Gold.PLP.Chemscore.CHOScore>
1.0000

> <Gold.PLP.Chemscore.Metal>
0.0000

> <Gold.Chemscore.Hbonds>
donor molecule, donor type, donor heavy atom, donor atom, acceptor molecule, acceptor atom, score
      P1  H  7997  8009       L1     7  1.00
      L1  C    16    34       P1  8028  1.00

> <Gold.PLP.Chemscore.Internal.Correction>
0.1200

> <Gold.Rescore>
     Score         DG    S(hbond)    S(metal)    S(lipo)     H(rot)  DE(clash)    DE(int)     intcor
      9.68     -10.27       0.95        0.00      63.71       2.28       0.11       0.48       ----

> <Gold.Chemscore.Fitness>
9.6794

> <Gold.Chemscore.DG>
-10.2696

> <Gold.Chemscore.ZeroCoef>
-5.4800

> <Gold.Chemscore.Hbond>
0.9516

> <Gold.Chemscore.Metal>
0.0000

> <Gold.Chemscore.Lipo>
63.7130

> <Gold.Chemscore.Internal_Hbond>
0.0000

> <Gold.Chemscore.DEClash>
0.1052

> <Gold.Chemscore.DEInternal>
0.4849

> <Gold.Chemscore.Rot>
2.2824

> <Gold.Chemscore.Internal.Correction>
   9.000000E+99

> <Gold.Chemscore.Hbonds>
donor molecule, donor type, donor heavy atom, donor atom, acceptor molecule, acceptor atom, score
      P1  H  7997  8009       L1     7  0.69

> <Gold.Chemscore.Hbond.Weighted>
-3.1782

> <Gold.Chemscore.Metal.Weighted>
-0.0000

> <Gold.Chemscore.Lipo.Weighted>
-7.4544

> <Gold.Chemscore.Internal_Hbond.Weighted>
0.0000

> <Gold.Chemscore.DEClash.Weighted>
0.1052

> <Gold.Chemscore.DEInternal.Weighted>
0.4849

> <Gold.Chemscore.Rot.Weighted>
5.8431

> <Gold.Chemscore.Internal.Correction.Weighted>
   9.000000E+99

> <Gold.Protein.RotatedTorsions>
[ 6907 6896 6895 6894 ] final  -90.49 input  -60.11 | X-H torsion
[ 7974 7965 7964 7962 ] final   23.82 input  175.53 | X-H torsion
[ 8008 7997 7996 7995 ] final -179.20 input   59.86 | X-H torsion
[ 10167 10162 10161 10158 ] final  -44.69 input  -65.29 | X-H torsion
[ 10718 10713 10712 10709 ] final   91.53 input   66.30 | X-H torsion
[ 10763 10752 10751 10750 ] final   66.57 input  -60.55 | X-H torsion
[ 11005 11000 10999 10996 ] final   39.18 input  -57.11 | X-H torsion

> <Gold.Protein.ActiveResidues>
 VAL166  LYS551  ARG553  GLY616  TRP617  ASP618  TYR619  PRO620  LYS621  CYS622 
 ASP623  PHE694  ASN695  SER759  ASP760  ASP761  ALA762  ILE779  LEU786  VAL792 
 PHE793  MET794  SER795  GLU796  ALA797  LYS798  CYS799  TRP800  GLU811  SER814 

> <Gold.Protein.RotatedAtoms>
  150.6882  134.2424  159.4477 H   0  0  0  0  0  0  0  0  0  0  0  0  # atno 6907 bound_to 6896
  152.0367  134.9733  160.0582 H   0  0  0  0  0  0  0  0  0  0  0  0  # atno 6908 bound_to 6896
  152.1251  133.4340  159.4731 H   0  0  0  0  0  0  0  0  0  0  0  0  # atno 6909 bound_to 6896
  146.1967  139.7691  142.8792 H   0  0  0  0  0  0  0  0  0  0  0  0  # atno 7974 bound_to 7965
  156.0277  140.1275  157.0291 H   0  0  0  0  0  0  0  0  0  0  0  0  # atno 8008 bound_to 7997
  154.4337  140.1056  156.6125 H   0  0  0  0  0  0  0  0  0  0  0  0  # atno 8009 bound_to 7997
  155.5852  140.3468  155.4553 H   0  0  0  0  0  0  0  0  0  0  0  0  # atno 8010 bound_to 7997
  140.6887  143.2917  151.3532 H   0  0  0  0  0  0  0  0  0  0  0  0  # atno 10167 bound_to 10162
  157.6960  131.0411  150.3744 H   0  0  0  0  0  0  0  0  0  0  0  0  # atno 10718 bound_to 10713
  153.0146  135.5316  154.6844 H   0  0  0  0  0  0  0  0  0  0  0  0  # atno 10763 bound_to 10752
  154.5995  135.2867  155.0552 H   0  0  0  0  0  0  0  0  0  0  0  0  # atno 10764 bound_to 10752
  154.1615  135.6547  153.5039 H   0  0  0  0  0  0  0  0  0  0  0  0  # atno 10765 bound_to 10752
  140.2054  134.3820  155.8075 H   0  0  0  0  0  0  0  0  0  0  0  0  # atno 11005 bound_to 11000
  145.3621  141.0328  143.3279 LP  0  0  0  0  0  0  0  0  0  0  0  0  # atno 17320 bound_to 7965
  144.8595  139.5199  143.6819 LP  0  0  0  0  0  0  0  0  0  0  0  0  # atno 17321 bound_to 7965
  139.6269  144.0797  152.2442 LP  0  0  0  0  0  0  0  0  0  0  0  0  # atno 17342 bound_to 10162
  140.0259  144.6117  150.7527 LP  0  0  0  0  0  0  0  0  0  0  0  0  # atno 17343 bound_to 10162
  156.4165  130.3944  149.6855 LP  0  0  0  0  0  0  0  0  0  0  0  0  # atno 17370 bound_to 10713
  156.4120  130.7727  151.2740 LP  0  0  0  0  0  0  0  0  0  0  0  0  # atno 17371 bound_to 10713
  141.2227  133.7115  156.8328 LP  0  0  0  0  0  0  0  0  0  0  0  0  # atno 17394 bound_to 11000
  140.2009  134.8898  157.3167 LP  0  0  0  0  0  0  0  0  0  0  0  0  # atno 17395 bound_to 11000

$$$$
