AV-unprocessed.smi:81|AV-procd|sdf|786|dock4
  -GOLD-   2262017153D 1   1.00000     0.00000
 Structure written by MMmdl.
 64 67  0  0  0  0  0  0  0  0  2 V2000
  140.4590  136.0375  153.7271 C   0  0  0  0  0  0  0  0  0  0  0  0
  141.0291  137.4637  153.7989 C   0  0  0  0  0  0  0  0  0  0  0  0
  140.0918  138.4534  153.0930 C   0  0  0  0  0  0  0  0  0  0  0  0
  142.4508  137.5470  153.1972 C   0  0  0  0  0  0  0  0  0  0  0  0
  143.4588  136.7784  153.9338 N   0  0  0  0  0  0  0  0  0  0  0  0
  144.3050  137.5274  154.6836 C   0  0  0  0  0  0  0  0  0  0  0  0
  144.1292  137.6108  156.0290 N   0  0  0  0  0  0  0  0  0  0  0  0
  144.9750  138.3327  156.7701 C   0  0  0  0  0  0  0  0  0  0  0  0
  146.0437  139.0290  156.3768 N   0  0  0  0  0  0  0  0  0  0  0  0
  146.2284  138.9360  155.0285 C   0  0  0  0  0  0  0  0  0  0  0  0
  145.4088  138.2170  154.1154 C   0  0  0  0  0  0  0  0  0  0  0  0
  145.8997  138.3532  152.8234 N   0  0  0  0  0  0  0  0  0  0  0  0
  146.9561  139.1063  152.9653 C   0  0  0  0  0  0  0  0  0  0  0  0
  147.2345  139.4915  154.2579 N   0  0  0  0  0  0  0  0  0  0  0  0
  148.3533  140.3086  154.7027 C   0  0  0  0  0  0  0  0  0  0  0  0
  149.5584  139.4728  155.2095 C   0  0  1  0  0  0  0  0  0  0  0  0
  149.0705  138.5211  156.1405 O   0  0  0  0  0  0  0  0  0  0  0  0
  150.2821  138.7104  154.1033 C   0  0  0  0  0  0  0  0  0  0  0  0
  151.6965  138.5834  154.6474 C   0  0  0  0  0  0  0  0  0  0  0  0
  151.9068  139.8467  155.2531 O   0  0  0  0  0  0  0  0  0  0  0  0
  150.7062  140.2608  155.9015 C   0  0  1  0  0  0  0  0  0  0  0  0
  150.6421  141.7935  155.8143 C   0  0  0  0  0  0  0  0  0  0  0  0
  144.0558  135.6360  153.2267 C   0  0  2  0  0  0  0  0  0  0  0  0
  143.0238  134.7280  152.5252 C   0  0  0  0  0  0  0  0  0  0  0  0
  143.7237  133.6090  151.7370 C   0  0  0  0  0  0  0  0  0  0  0  0
  144.6071  132.8079  152.6203 N   0  3  1  0  0  0  0  0  0  0  0  0
  145.2008  131.6491  151.9196 C   0  0  0  0  0  0  0  0  0  0  0  0
  145.6310  133.6462  153.2924 C   0  0  0  0  0  0  0  0  0  0  0  0
  144.9764  134.7693  154.1133 C   0  0  0  0  0  0  0  0  0  0  0  0
  140.3966  135.6872  152.6964 H   0  0  0  0  0  0  0  0  0  0  0  0
  139.4569  135.9938  154.1544 H   0  0  0  0  0  0  0  0  0  0  0  0
  141.0779  135.3316  154.2806 H   0  0  0  0  0  0  0  0  0  0  0  0
  141.0650  137.7591  154.8481 H   0  0  0  0  0  0  0  0  0  0  0  0
  139.9983  138.2235  152.0311 H   0  0  0  0  0  0  0  0  0  0  0  0
  140.4619  139.4752  153.1811 H   0  0  0  0  0  0  0  0  0  0  0  0
  139.0926  138.4286  153.5286 H   0  0  0  0  0  0  0  0  0  0  0  0
  142.4217  137.1931  152.1661 H   0  0  0  0  0  0  0  0  0  0  0  0
  142.7647  138.5905  153.1465 H   0  0  0  0  0  0  0  0  0  0  0  0
  144.7694  138.3519  157.8303 H   0  0  0  0  0  0  0  0  0  0  0  0
  147.5717  139.3955  152.1259 H   0  0  0  0  0  0  0  0  0  0  0  0
  148.6504  140.9399  153.8651 H   0  0  0  0  0  0  0  0  0  0  0  0
  147.9975  140.9792  155.4860 H   0  0  0  0  0  0  0  0  0  0  0  0
  149.7633  137.9087  156.3356 H   0  0  0  0  0  0  0  0  0  0  0  0
  149.8274  137.7496  153.8576 H   0  0  0  0  0  0  0  0  0  0  0  0
  150.3091  139.3081  153.1914 H   0  0  0  0  0  0  0  0  0  0  0  0
  151.7606  137.7961  155.4001 H   0  0  0  0  0  0  0  0  0  0  0  0
  152.4330  138.3816  153.8695 H   0  0  0  0  0  0  0  0  0  0  0  0
  150.7812  139.9798  156.9538 H   0  0  0  0  0  0  0  0  0  0  0  0
  149.7491  142.1839  156.3022 H   0  0  0  0  0  0  0  0  0  0  0  0
  150.6446  142.1364  154.7795 H   0  0  0  0  0  0  0  0  0  0  0  0
  151.5046  142.2417  156.3081 H   0  0  0  0  0  0  0  0  0  0  0  0
  144.6761  136.0694  152.4410 H   0  0  0  0  0  0  0  0  0  0  0  0
  142.3484  134.2764  153.2529 H   0  0  0  0  0  0  0  0  0  0  0  0
  142.4062  135.3184  151.8474 H   0  0  0  0  0  0  0  0  0  0  0  0
  142.9735  132.9598  151.2840 H   0  0  0  0  0  0  0  0  0  0  0  0
  144.3101  134.0343  150.9209 H   0  0  0  0  0  0  0  0  0  0  0  0
  145.8545  131.9744  151.1092 H   0  0  0  0  0  0  0  0  0  0  0  0
  144.4220  131.0138  151.4967 H   0  0  0  0  0  0  0  0  0  0  0  0
  145.7870  131.0409  152.6090 H   0  0  0  0  0  0  0  0  0  0  0  0
  146.2382  133.0229  153.9502 H   0  0  0  0  0  0  0  0  0  0  0  0
  146.3051  134.0704  152.5464 H   0  0  0  0  0  0  0  0  0  0  0  0
  145.7547  135.3804  154.5708 H   0  0  0  0  0  0  0  0  0  0  0  0
  144.4095  134.3243  154.9314 H   0  0  0  0  0  0  0  0  0  0  0  0
  144.0190  132.4309  153.3501 H   0  0  0  0  0  0  0  0  0  0  0  0
  1  2  1  0  0  0  0
  1 30  1  0  0  0  0
  1 31  1  0  0  0  0
  1 32  1  0  0  0  0
  2  3  1  0  0  0  0
  2  4  1  0  0  0  0
  2 33  1  0  0  0  0
  3 34  1  0  0  0  0
  3 35  1  0  0  0  0
  3 36  1  0  0  0  0
  4  5  1  0  0  0  0
  4 37  1  0  0  0  0
  4 38  1  0  0  0  0
  5  6  1  0  0  0  0
  5 23  1  0  0  0  0
  6 11  1  0  0  0  0
  6  7  2  0  0  0  0
  7  8  1  0  0  0  0
  8  9  2  0  0  0  0
  8 39  1  0  0  0  0
  9 10  1  0  0  0  0
 10 14  1  0  0  0  0
 10 11  2  0  0  0  0
 11 12  1  0  0  0  0
 12 13  2  0  0  0  0
 13 14  1  0  0  0  0
 13 40  1  0  0  0  0
 14 15  1  0  0  0  0
 15 16  1  0  0  0  0
 15 41  1  0  0  0  0
 15 42  1  0  0  0  0
 16 21  1  0  0  0  0
 16 17  1  0  0  0  0
 16 18  1  0  0  0  0
 17 43  1  0  0  0  0
 18 19  1  0  0  0  0
 18 44  1  0  0  0  0
 18 45  1  0  0  0  0
 19 20  1  0  0  0  0
 19 46  1  0  0  0  0
 19 47  1  0  0  0  0
 20 21  1  0  0  0  0
 21 22  1  0  0  0  0
 21 48  1  0  0  0  0
 22 49  1  0  0  0  0
 22 50  1  0  0  0  0
 22 51  1  0  0  0  0
 23 29  1  0  0  0  0
 23 24  1  0  0  0  0
 23 52  1  0  0  0  0
 24 25  1  0  0  0  0
 24 53  1  0  0  0  0
 24 54  1  0  0  0  0
 25 26  1  0  0  0  0
 25 55  1  0  0  0  0
 25 56  1  0  0  0  0
 26 27  1  0  0  0  0
 26 28  1  0  0  0  0
 26 64  1  0  0  0  0
 27 57  1  0  0  0  0
 27 58  1  0  0  0  0
 27 59  1  0  0  0  0
 28 29  1  0  0  0  0
 28 60  1  0  0  0  0
 28 61  1  0  0  0  0
 29 62  1  0  0  0  0
 29 63  1  0  0  0  0
M  CHG  1  26   1
M  END
> <s_m_source_file>
AV-unprocessed.smi

> <i_m_source_file_index>
81

> <i_lp_mmshare_version>
43012

> <i_f3d_flags>
0

> <s_epik_input>
W0NIMl0xW0NIMl1OKFtDSDNdKVtDSDJdW0NIMl1bQ0hdMU4oW0NIMl1bQ0hdKFtDSDNdKVtDSDNdKWMobltjSF1uMiljKGMyMyluW2NIXW4zW0NIMl1bQ0BAXTQoW09IXSlbQ0gyXVtDSDJdT1tDQEhdNFtDSDNd

> <s_epik_cmdline>
J2VwaWtfcHl0aG9uJywgJy1waCcsICc3LjAnLCAnLXRuJywgJzgnLCAnLW1hJywgJzIwMCcsICctbWV0YWxfYmluZGluZycsICctaW1hZScsICc8aW5maWxlLm1hZT4nLCAnLW9tYWUnLCAnPG91dGZpbGUubWFlPic=

> <r_lp_tautomer_probability>
1

> <r_epik_Ionization_Penalty>
0.00272708

> <r_epik_Ionization_Penalty_Charging>
0.00158983

> <r_epik_Ionization_Penalty_Neutral>
0.00113725

> <r_epik_State_Penalty>
-0

> <r_epik_Charging_Adjusted_Penalty>
0.00158983

> <i_epik_Tot_Q>
1

> <i_epik_Tot_abs_Q>
1

> <r_epik_Metal_State_Penalty>
-0

> <b_epik_Metal_Only>
0

> <s_lp_Force_Field>
OPLS_2005

> <r_lp_Energy>
44.8479

> <b_lp_Chiralities_Consistent>
1

> <s_lp_Variant>
AV-unprocessed.smi:81-1

> <Gold.Version>
5.8.1

> <Gold.Id.Protein>
6NUR|6NUR_protein|mol2

> <Gold.PLP.Fitness>
45.4008

> <Gold.PLP.PLP>
-37.2057

> <Gold.PLP.part.hbond>
-1.9828

> <Gold.PLP.part.metal>
0.0000

> <Gold.PLP.part.buried>
-6.5048

> <Gold.PLP.part.nonpolar>
-30.6862

> <Gold.PLP.part.repulsive>
0.6122

> <Gold.PLP.ligand.clash>
0.0000

> <Gold.PLP.ligand.torsion>
1.4822

> <Gold.PLP.Chemscore.Hbond>
2.4065

> <Gold.PLP.Chemscore.CHOScore>
1.0000

> <Gold.PLP.Chemscore.Metal>
0.0000

> <Gold.Chemscore.Hbonds>
donor molecule, donor type, donor heavy atom, donor atom, acceptor molecule, acceptor atom, score
      L1  H    26    64       P1 10957  1.55
      P1  H  7989  7998       L1    20  0.56
      L1  C    13    40       P1  7957  1.00

> <Gold.PLP.Chemscore.Internal.Correction>
0.9401

> <Gold.Rescore>
     Score         DG    S(hbond)    S(metal)    S(lipo)     H(rot)  DE(clash)    DE(int)     intcor
     11.06     -12.72       0.96        0.00      90.92       2.58       0.04       1.61       ----

> <Gold.Chemscore.Fitness>
11.0645

> <Gold.Chemscore.DG>
-12.7225

> <Gold.Chemscore.ZeroCoef>
-5.4800

> <Gold.Chemscore.Hbond>
0.9591

> <Gold.Chemscore.Metal>
0.0000

> <Gold.Chemscore.Lipo>
90.9185

> <Gold.Chemscore.Internal_Hbond>
0.0000

> <Gold.Chemscore.DEClash>
0.0435

> <Gold.Chemscore.DEInternal>
1.6145

> <Gold.Chemscore.Rot>
2.5774

> <Gold.Chemscore.Internal.Correction>
   9.000000E+99

> <Gold.Chemscore.Hbonds>
donor molecule, donor type, donor heavy atom, donor atom, acceptor molecule, acceptor atom, score
      L1  H    26    64       P1 10957  0.13
      P1  H  7989  7998       L1    20  0.01

> <Gold.Chemscore.Hbond.Weighted>
-3.2033

> <Gold.Chemscore.Metal.Weighted>
-0.0000

> <Gold.Chemscore.Lipo.Weighted>
-10.6375

> <Gold.Chemscore.Internal_Hbond.Weighted>
0.0000

> <Gold.Chemscore.DEClash.Weighted>
0.0435

> <Gold.Chemscore.DEInternal.Weighted>
1.6145

> <Gold.Chemscore.Rot.Weighted>
6.5982

> <Gold.Chemscore.Internal.Correction.Weighted>
   9.000000E+99

> <Gold.Protein.RotatedTorsions>
[ 6907 6896 6895 6894 ] final -134.65 input  -60.11 | X-H torsion
[ 7974 7965 7964 7962 ] final  -40.97 input  175.53 | X-H torsion
[ 8008 7997 7996 7995 ] final -155.91 input   59.86 | X-H torsion
[ 10167 10162 10161 10158 ] final -176.76 input  -65.29 | X-H torsion
[ 10718 10713 10712 10709 ] final -127.47 input   66.30 | X-H torsion
[ 10763 10752 10751 10750 ] final   -5.05 input  -60.55 | X-H torsion
[ 11005 11000 10999 10996 ] final   81.74 input  -57.11 | X-H torsion

> <Gold.Protein.ActiveResidues>
 VAL166  LYS551  ARG553  GLY616  TRP617  ASP618  TYR619  PRO620  LYS621  CYS622 
 ASP623  PHE694  ASN695  SER759  ASP760  ASP761  ALA762  ILE779  LEU786  VAL792 
 PHE793  MET794  SER795  GLU796  ALA797  LYS798  CYS799  TRP800  GLU811  SER814 

> <Gold.Protein.RotatedAtoms>
  150.9883  133.6175  159.2711 H   0  0  0  0  0  0  0  0  0  0  0  0  # atno 6907 bound_to 6896
  151.3405  135.0861  159.9379 H   0  0  0  0  0  0  0  0  0  0  0  0  # atno 6908 bound_to 6896
  152.5238  133.9496  159.7720 H   0  0  0  0  0  0  0  0  0  0  0  0  # atno 6909 bound_to 6896
  146.0255  140.6797  142.9158 H   0  0  0  0  0  0  0  0  0  0  0  0  # atno 7974 bound_to 7965
  155.7091  140.0776  157.2378 H   0  0  0  0  0  0  0  0  0  0  0  0  # atno 8008 bound_to 7997
  154.4061  140.1633  156.2330 H   0  0  0  0  0  0  0  0  0  0  0  0  # atno 8009 bound_to 7997
  155.9299  140.3392  155.6243 H   0  0  0  0  0  0  0  0  0  0  0  0  # atno 8010 bound_to 7997
  139.5513  144.2101  152.1082 H   0  0  0  0  0  0  0  0  0  0  0  0  # atno 10167 bound_to 10162
  156.1860  130.6763  151.0365 H   0  0  0  0  0  0  0  0  0  0  0  0  # atno 10718 bound_to 10713
  153.3932  135.7002  153.6480 H   0  0  0  0  0  0  0  0  0  0  0  0  # atno 10763 bound_to 10752
  153.5044  135.3645  155.2556 H   0  0  0  0  0  0  0  0  0  0  0  0  # atno 10764 bound_to 10752
  154.8704  135.4119  154.3252 H   0  0  0  0  0  0  0  0  0  0  0  0  # atno 10765 bound_to 10752
  139.9087  134.8019  156.2081 H   0  0  0  0  0  0  0  0  0  0  0  0  # atno 11005 bound_to 11000
  144.7008  140.3642  143.7158 LP  0  0  0  0  0  0  0  0  0  0  0  0  # atno 17320 bound_to 7965
  145.7125  139.1688  143.2531 LP  0  0  0  0  0  0  0  0  0  0  0  0  # atno 17321 bound_to 7965
  140.1597  144.5037  150.6639 LP  0  0  0  0  0  0  0  0  0  0  0  0  # atno 17342 bound_to 10162
  140.6777  143.2312  151.5466 LP  0  0  0  0  0  0  0  0  0  0  0  0  # atno 17343 bound_to 10162
  157.6899  131.0813  150.7138 LP  0  0  0  0  0  0  0  0  0  0  0  0  # atno 17370 bound_to 10713
  156.7194  130.4676  149.5526 LP  0  0  0  0  0  0  0  0  0  0  0  0  # atno 17371 bound_to 10713
  141.0482  133.6902  156.1723 LP  0  0  0  0  0  0  0  0  0  0  0  0  # atno 17394 bound_to 11000
  140.6850  134.4726  157.5589 LP  0  0  0  0  0  0  0  0  0  0  0  0  # atno 17395 bound_to 11000

$$$$
