AV-unprocessed.smi:2829|AV-procd|sdf|10904|dock1
  -GOLD-   2272015353D 1   1.00000     0.00000
 Structure written by MMmdl.
 50 53  0  0  0  0  0  0  0  0  1 V2000
  145.8473  132.1607  149.2807 C   0  0  0  0  0  0  0  0  0  0  0  0
  144.4670  132.6175  149.7967 C   0  0  0  0  0  0  0  0  0  0  0  0
  143.4779  132.7352  148.6185 C   0  0  0  0  0  0  0  0  0  0  0  0
  143.9355  131.5145  150.7399 C   0  0  0  0  0  0  0  0  0  0  0  0
  144.6016  133.9787  150.5024 C   0  0  0  0  0  0  0  0  0  0  0  0
  143.5419  134.5914  151.2085 C   0  0  0  0  0  0  0  0  0  0  0  0
  143.7923  135.8329  151.8159 C   0  0  0  0  0  0  0  0  0  0  0  0
  145.0779  136.3952  151.6897 C   0  0  0  0  0  0  0  0  0  0  0  0
  145.2573  137.6438  152.3377 N   0  0  0  0  0  0  0  0  0  0  0  0
  146.3251  138.4635  152.2941 C   0  0  0  0  0  0  0  0  0  0  0  0
  147.3150  138.2897  151.5856 O   0  0  0  0  0  0  0  0  0  0  0  0
  146.2203  139.5364  153.0976 N   0  0  0  0  0  0  0  0  0  0  0  0
  147.2001  140.6072  153.2784 C   0  0  2  0  0  0  0  0  0  0  0  0
  148.2679  140.2541  154.3156 C   0  0  1  0  0  0  0  0  0  0  0  0
  149.7180  139.9387  154.2407 C   0  0  0  0  0  0  0  0  0  0  0  0
  150.1829  140.8091  155.4362 C   0  0  0  0  0  0  0  0  0  0  0  0
  149.0331  141.6036  155.8165 O   0  0  0  0  0  0  0  0  0  0  0  0
  148.2936  141.7443  154.6185 C   0  0  2  0  0  0  0  0  0  0  0  0
  146.7853  141.6830  154.3368 C   0  0  0  0  0  0  0  0  0  0  0  0
  146.0080  142.9527  153.9678 C   0  0  0  0  0  0  0  0  0  0  0  0
  145.4157  142.9382  155.3813 C   0  0  0  0  0  0  0  0  0  0  0  0
  145.7645  141.4487  155.4664 C   0  0  0  0  0  0  0  0  0  0  0  0
  146.0497  135.7530  150.9948 N   0  0  0  0  0  0  0  0  0  0  0  0
  145.8175  134.5719  150.4142 N   0  0  0  0  0  0  0  0  0  0  0  0
  145.7875  131.1872  148.7927 H   0  0  0  0  0  0  0  0  0  0  0  0
  146.5659  132.0759  150.0968 H   0  0  0  0  0  0  0  0  0  0  0  0
  146.2592  132.8596  148.5519 H   0  0  0  0  0  0  0  0  0  0  0  0
  143.8197  133.4530  147.8719 H   0  0  0  0  0  0  0  0  0  0  0  0
  142.4941  133.0595  148.9598 H   0  0  0  0  0  0  0  0  0  0  0  0
  143.3506  131.7793  148.1091 H   0  0  0  0  0  0  0  0  0  0  0  0
  143.8487  130.5591  150.2209 H   0  0  0  0  0  0  0  0  0  0  0  0
  142.9453  131.7576  151.1269 H   0  0  0  0  0  0  0  0  0  0  0  0
  144.6004  131.3554  151.5895 H   0  0  0  0  0  0  0  0  0  0  0  0
  142.5634  134.1462  151.2985 H   0  0  0  0  0  0  0  0  0  0  0  0
  143.0131  136.3377  152.3684 H   0  0  0  0  0  0  0  0  0  0  0  0
  144.5037  137.9290  152.9452 H   0  0  0  0  0  0  0  0  0  0  0  0
  145.3535  139.6401  153.6053 H   0  0  0  0  0  0  0  0  0  0  0  0
  147.6166  141.0164  152.3540 H   0  0  0  0  0  0  0  0  0  0  0  0
  147.8120  139.6783  155.1298 H   0  0  0  0  0  0  0  0  0  0  0  0
  149.9296  138.8791  154.3859 H   0  0  0  0  0  0  0  0  0  0  0  0
  150.1589  140.2675  153.2987 H   0  0  0  0  0  0  0  0  0  0  0  0
  150.5056  140.2021  156.2825 H   0  0  0  0  0  0  0  0  0  0  0  0
  151.0124  141.4552  155.1461 H   0  0  0  0  0  0  0  0  0  0  0  0
  148.8356  142.3383  153.8750 H   0  0  0  0  0  0  0  0  0  0  0  0
  146.6283  143.8210  153.7438 H   0  0  0  0  0  0  0  0  0  0  0  0
  145.2532  142.7875  153.1990 H   0  0  0  0  0  0  0  0  0  0  0  0
  145.9893  143.5445  156.0840 H   0  0  0  0  0  0  0  0  0  0  0  0
  144.3494  143.1601  155.4314 H   0  0  0  0  0  0  0  0  0  0  0  0
  144.9300  140.8104  155.1722 H   0  0  0  0  0  0  0  0  0  0  0  0
  146.1940  141.1380  156.4193 H   0  0  0  0  0  0  0  0  0  0  0  0
  1  2  1  0  0  0  0
  1 25  1  0  0  0  0
  1 26  1  0  0  0  0
  1 27  1  0  0  0  0
  2  3  1  0  0  0  0
  2  4  1  0  0  0  0
  2  5  1  0  0  0  0
  3 28  1  0  0  0  0
  3 29  1  0  0  0  0
  3 30  1  0  0  0  0
  4 31  1  0  0  0  0
  4 32  1  0  0  0  0
  4 33  1  0  0  0  0
  5 24  1  0  0  0  0
  5  6  2  0  0  0  0
  6  7  1  0  0  0  0
  6 34  1  0  0  0  0
  7  8  2  0  0  0  0
  7 35  1  0  0  0  0
  8  9  1  0  0  0  0
  8 23  1  0  0  0  0
  9 10  1  0  0  0  0
  9 36  1  0  0  0  0
 10 11  2  0  0  0  0
 10 12  1  0  0  0  0
 12 13  1  0  0  0  0
 12 37  1  0  0  0  0
 13 19  1  0  0  0  0
 13 14  1  0  0  0  0
 13 38  1  0  0  0  0
 14 18  1  0  0  0  0
 14 15  1  0  0  0  0
 14 39  1  0  0  0  0
 15 16  1  0  0  0  0
 15 40  1  0  0  0  0
 15 41  1  0  0  0  0
 16 17  1  0  0  0  0
 16 42  1  0  0  0  0
 16 43  1  0  0  0  0
 17 18  1  0  0  0  0
 18 19  1  0  0  0  0
 18 44  1  0  0  0  0
 19 22  1  0  0  0  0
 19 20  1  0  0  0  0
 20 21  1  0  0  0  0
 20 45  1  0  0  0  0
 20 46  1  0  0  0  0
 21 22  1  0  0  0  0
 21 47  1  0  0  0  0
 21 48  1  0  0  0  0
 22 49  1  0  0  0  0
 22 50  1  0  0  0  0
 23 24  2  0  0  0  0
M  END
> <s_m_source_file>
AV-unprocessed.smi

> <i_m_source_file_index>
2829

> <i_lp_mmshare_version>
43012

> <i_f3d_flags>
0

> <s_epik_input>
W0NIM11DKFtDSDNdKShbQ0gzXSljMVtjSF1bY0hdYyhubjEpW05IXUMoPU8pW05IXVtDQEBIXTJbQ0BIXShbQ0gyXVtDSDJdTzMpW0NAQEhdM0MyNFtDSDJdW0NIMl1bQ0gyXTQ=

> <s_epik_cmdline>
J2VwaWtfcHl0aG9uJywgJy1waCcsICc3LjAnLCAnLXRuJywgJzgnLCAnLW1hJywgJzIwMCcsICctbWV0YWxfYmluZGluZycsICctaW1hZScsICc8aW5maWxlLm1hZT4nLCAnLW9tYWUnLCAnPG91dGZpbGUubWFlPic=

> <r_lp_tautomer_probability>
1

> <r_epik_Ionization_Penalty>
0.011915

> <r_epik_Ionization_Penalty_Charging>
0

> <r_epik_Ionization_Penalty_Neutral>
0.011915

> <r_epik_State_Penalty>
0.00486223

> <r_epik_Charging_Adjusted_Penalty>
0.00486223

> <i_epik_Tot_Q>
0

> <i_epik_Tot_abs_Q>
0

> <r_epik_Metal_State_Penalty>
-0

> <b_epik_Metal_Only>
0

> <s_lp_Force_Field>
OPLS_2005

> <r_lp_Energy>
82.9542

> <b_lp_Chiralities_Consistent>
1

> <s_lp_Variant>
AV-unprocessed.smi:2829-7

> <Gold.Version>
5.8.1

> <Gold.Id.Protein>
6NUR|6NUR_protein|mol2

> <Gold.PLP.Fitness>
47.1395

> <Gold.PLP.PLP>
-43.2702

> <Gold.PLP.part.hbond>
-3.4455

> <Gold.PLP.part.metal>
0.0000

> <Gold.PLP.part.buried>
-3.6813

> <Gold.PLP.part.nonpolar>
-44.5795

> <Gold.PLP.part.repulsive>
9.3968

> <Gold.PLP.ligand.clash>
0.0000

> <Gold.PLP.ligand.torsion>
0.3173

> <Gold.PLP.Chemscore.Hbond>
1.3931

> <Gold.PLP.Chemscore.CHOScore>
0.0000

> <Gold.PLP.Chemscore.Metal>
0.0000

> <Gold.Chemscore.Hbonds>
donor molecule, donor type, donor heavy atom, donor atom, acceptor molecule, acceptor atom, score
      L1  H    12    37       P1 10175  0.20
      P1  H  7954  7966       L1    11  1.00

> <Gold.PLP.Chemscore.Internal.Correction>
0.3246

> <Gold.Rescore>
     Score         DG    S(hbond)    S(metal)    S(lipo)     H(rot)  DE(clash)    DE(int)     intcor
     14.97     -19.87       1.11        0.00     116.79       1.16       3.44       1.45       ----

> <Gold.Chemscore.Fitness>
14.9732

> <Gold.Chemscore.DG>
-19.8686

> <Gold.Chemscore.ZeroCoef>
-5.4800

> <Gold.Chemscore.Hbond>
1.1073

> <Gold.Chemscore.Metal>
0.0000

> <Gold.Chemscore.Lipo>
116.7886

> <Gold.Chemscore.Internal_Hbond>
0.0000

> <Gold.Chemscore.DEClash>
3.4444

> <Gold.Chemscore.DEInternal>
1.4509

> <Gold.Chemscore.Rot>
1.1618

> <Gold.Chemscore.Internal.Correction>
   9.000000E+99

> <Gold.Chemscore.Hbonds>
donor molecule, donor type, donor heavy atom, donor atom, acceptor molecule, acceptor atom, score
      L1  H    12    37       P1 10175  0.19
      P1  H  7954  7966       L1    11  0.99

> <Gold.Chemscore.Hbond.Weighted>
-3.6984

> <Gold.Chemscore.Metal.Weighted>
-0.0000

> <Gold.Chemscore.Lipo.Weighted>
-13.6643

> <Gold.Chemscore.Internal_Hbond.Weighted>
0.0000

> <Gold.Chemscore.DEClash.Weighted>
3.4444

> <Gold.Chemscore.DEInternal.Weighted>
1.4509

> <Gold.Chemscore.Rot.Weighted>
2.9741

> <Gold.Chemscore.Internal.Correction.Weighted>
   9.000000E+99

> <Gold.Protein.RotatedTorsions>
[ 6907 6896 6895 6894 ] final   78.02 input  -60.11 | X-H torsion
[ 7974 7965 7964 7962 ] final  110.76 input  175.53 | X-H torsion
[ 8008 7997 7996 7995 ] final  105.93 input   59.86 | X-H torsion
[ 10167 10162 10161 10158 ] final  128.28 input  -65.29 | X-H torsion
[ 10718 10713 10712 10709 ] final  -60.97 input   66.30 | X-H torsion
[ 10763 10752 10751 10750 ] final -160.87 input  -60.55 | X-H torsion
[ 11005 11000 10999 10996 ] final   20.32 input  -57.11 | X-H torsion

> <Gold.Protein.ActiveResidues>
 VAL166  LYS551  ARG553  GLY616  TRP617  ASP618  TYR619  PRO620  LYS621  CYS622 
 ASP623  PHE694  ASN695  SER759  ASP760  ASP761  ALA762  ILE779  LEU786  VAL792 
 PHE793  MET794  SER795  GLU796  ALA797  LYS798  CYS799  TRP800  GLU811  SER814 

> <Gold.Protein.RotatedAtoms>
  152.5142  134.3728  159.9323 H   0  0  0  0  0  0  0  0  0  0  0  0  # atno 6907 bound_to 6896
  151.3683  133.3858  159.2704 H   0  0  0  0  0  0  0  0  0  0  0  0  # atno 6908 bound_to 6896
  150.9597  134.9006  159.7781 H   0  0  0  0  0  0  0  0  0  0  0  0  # atno 6909 bound_to 6896
  145.2509  139.2740  143.4068 H   0  0  0  0  0  0  0  0  0  0  0  0  # atno 7974 bound_to 7965
  156.1701  140.3122  155.8958 H   0  0  0  0  0  0  0  0  0  0  0  0  # atno 8008 bound_to 7997
  155.3605  140.0476  157.3063 H   0  0  0  0  0  0  0  0  0  0  0  0  # atno 8009 bound_to 7997
  154.5232  140.2205  155.8948 H   0  0  0  0  0  0  0  0  0  0  0  0  # atno 8010 bound_to 7997
  139.5535  144.6831  151.4251 H   0  0  0  0  0  0  0  0  0  0  0  0  # atno 10167 bound_to 10162
  156.0954  130.4194  150.0928 H   0  0  0  0  0  0  0  0  0  0  0  0  # atno 10718 bound_to 10713
  154.7353  135.3056  154.8823 H   0  0  0  0  0  0  0  0  0  0  0  0  # atno 10763 bound_to 10752
  153.9653  135.6748  153.4750 H   0  0  0  0  0  0  0  0  0  0  0  0  # atno 10764 bound_to 10752
  153.0956  135.4937  154.8695 H   0  0  0  0  0  0  0  0  0  0  0  0  # atno 10765 bound_to 10752
  140.4039  134.1689  155.7664 H   0  0  0  0  0  0  0  0  0  0  0  0  # atno 11005 bound_to 11000
  146.3303  140.2899  142.8614 LP  0  0  0  0  0  0  0  0  0  0  0  0  # atno 17320 bound_to 7965
  144.9504  140.8172  143.5575 LP  0  0  0  0  0  0  0  0  0  0  0  0  # atno 17321 bound_to 7965
  140.6803  143.8096  150.7113 LP  0  0  0  0  0  0  0  0  0  0  0  0  # atno 17342 bound_to 10162
  140.1548  143.4326  152.2107 LP  0  0  0  0  0  0  0  0  0  0  0  0  # atno 17343 bound_to 10162
  156.8928  130.9594  151.3586 LP  0  0  0  0  0  0  0  0  0  0  0  0  # atno 17370 bound_to 10713
  157.6113  130.8585  149.8957 LP  0  0  0  0  0  0  0  0  0  0  0  0  # atno 17371 bound_to 10713
  141.1846  133.8340  157.1133 LP  0  0  0  0  0  0  0  0  0  0  0  0  # atno 17394 bound_to 11000
  140.0316  134.9898  157.0791 LP  0  0  0  0  0  0  0  0  0  0  0  0  # atno 17395 bound_to 11000

$$$$
