AV-unprocessed.smi:139|AV-procd|sdf|1181|dock10
  -GOLD-   2262018333D 1   1.00000     0.00000
 Structure written by MMmdl.
 50 53  0  0  0  0  0  0  0  0  1 V2000
  147.0075  138.0100  155.8553 O   0  0  0  0  0  0  0  0  0  0  0  0
  147.6278  137.9197  154.7950 C   0  0  0  0  0  0  0  0  0  0  0  0
  148.3695  139.1305  154.2090 C   0  0  0  0  0  0  0  0  0  0  0  0
  149.5616  139.5220  154.9921 N   0  0  0  0  0  0  0  0  0  0  0  0
  150.7434  138.7494  154.8735 C   0  0  0  0  0  0  0  0  0  0  0  0
  150.7959  137.7716  154.1262 O   0  0  0  0  0  0  0  0  0  0  0  0
  151.8665  139.1877  155.6945 C   0  0  0  0  0  0  0  0  0  0  0  0
  153.0284  138.5143  155.6463 F   0  0  0  0  0  0  0  0  0  0  0  0
  151.7586  140.2595  156.5065 C   0  0  0  0  0  0  0  0  0  0  0  0
  150.5976  141.0049  156.6128 N   0  0  0  0  0  0  0  0  0  0  0  0
  150.4857  142.1945  157.5435 C   0  0  2  0  0  0  0  0  0  0  0  0
  151.4773  143.3006  157.1341 C   0  0  0  0  0  0  0  0  0  0  0  0
  152.2062  143.5948  158.4303 C   0  0  0  0  0  0  0  0  0  0  0  0
  152.1367  142.2524  159.1421 C   0  0  0  0  0  0  0  0  0  0  0  0
  150.8178  141.8117  158.8479 O   0  0  0  0  0  0  0  0  0  0  0  0
  149.4631  140.6380  155.8570 C   0  0  0  0  0  0  0  0  0  0  0  0
  148.4119  141.2756  155.9534 O   0  0  0  0  0  0  0  0  0  0  0  0
  147.7144  136.7861  154.0830 N   0  0  0  0  0  0  0  0  0  0  0  0
  147.0721  135.5137  154.4062 C   0  0  2  0  0  0  0  0  0  0  0  0
  148.0650  134.5941  155.1423 C   0  0  0  0  0  0  0  0  0  0  0  0
  148.9773  133.8362  154.1736 C   0  0  0  0  0  0  0  0  0  0  0  0
  148.1587  132.9628  153.2158 C   0  0  0  0  0  0  0  0  0  0  0  0
  146.9877  133.6987  152.5832 C   0  0  0  0  0  0  0  0  0  0  0  0
  146.4043  133.1700  151.4126 C   0  0  0  0  0  0  0  0  0  0  0  0
  145.3152  133.8197  150.8020 C   0  0  0  0  0  0  0  0  0  0  0  0
  144.8015  135.0040  151.3607 C   0  0  0  0  0  0  0  0  0  0  0  0
  145.3764  135.5361  152.5299 C   0  0  0  0  0  0  0  0  0  0  0  0
  146.4676  134.8903  153.1515 C   0  0  0  0  0  0  0  0  0  0  0  0
  148.6258  138.9037  153.1733 H   0  0  0  0  0  0  0  0  0  0  0  0
  147.6750  139.9691  154.1311 H   0  0  0  0  0  0  0  0  0  0  0  0
  152.6260  140.5270  157.0902 H   0  0  0  0  0  0  0  0  0  0  0  0
  149.4376  142.4973  157.5094 H   0  0  0  0  0  0  0  0  0  0  0  0
  152.1740  142.9258  156.3824 H   0  0  0  0  0  0  0  0  0  0  0  0
  150.9526  144.1670  156.7306 H   0  0  0  0  0  0  0  0  0  0  0  0
  153.2273  143.9451  158.2777 H   0  0  0  0  0  0  0  0  0  0  0  0
  151.6658  144.3498  159.0026 H   0  0  0  0  0  0  0  0  0  0  0  0
  152.8679  141.5556  158.7297 H   0  0  0  0  0  0  0  0  0  0  0  0
  152.3036  142.3340  160.2161 H   0  0  0  0  0  0  0  0  0  0  0  0
  148.2504  136.8117  153.2275 H   0  0  0  0  0  0  0  0  0  0  0  0
  146.2375  135.6946  155.0858 H   0  0  0  0  0  0  0  0  0  0  0  0
  148.6503  135.1581  155.8699 H   0  0  0  0  0  0  0  0  0  0  0  0
  147.5012  133.8589  155.7183 H   0  0  0  0  0  0  0  0  0  0  0  0
  149.5641  134.5549  153.6002 H   0  0  0  0  0  0  0  0  0  0  0  0
  149.6915  133.2213  154.7220 H   0  0  0  0  0  0  0  0  0  0  0  0
  148.8077  132.5651  152.4345 H   0  0  0  0  0  0  0  0  0  0  0  0
  147.7585  132.1043  153.7563 H   0  0  0  0  0  0  0  0  0  0  0  0
  146.7923  132.2604  150.9779 H   0  0  0  0  0  0  0  0  0  0  0  0
  144.8750  133.4092  149.9051 H   0  0  0  0  0  0  0  0  0  0  0  0
  143.9670  135.5054  150.8930 H   0  0  0  0  0  0  0  0  0  0  0  0
  144.9778  136.4476  152.9513 H   0  0  0  0  0  0  0  0  0  0  0  0
  1  2  2  0  0  0  0
  2  3  1  0  0  0  0
  2 18  1  0  0  0  0
  3  4  1  0  0  0  0
  3 29  1  0  0  0  0
  3 30  1  0  0  0  0
  4 16  1  0  0  0  0
  4  5  1  0  0  0  0
  5  6  2  0  0  0  0
  5  7  1  0  0  0  0
  7  8  1  0  0  0  0
  7  9  2  0  0  0  0
  9 10  1  0  0  0  0
  9 31  1  0  0  0  0
 10 11  1  0  0  0  0
 10 16  1  0  0  0  0
 11 15  1  0  0  0  0
 11 12  1  0  0  0  0
 11 32  1  0  0  0  0
 12 13  1  0  0  0  0
 12 33  1  0  0  0  0
 12 34  1  0  0  0  0
 13 14  1  0  0  0  0
 13 35  1  0  0  0  0
 13 36  1  0  0  0  0
 14 15  1  0  0  0  0
 14 37  1  0  0  0  0
 14 38  1  0  0  0  0
 16 17  2  0  0  0  0
 18 19  1  0  0  0  0
 18 39  1  0  0  0  0
 19 28  1  0  0  0  0
 19 20  1  0  0  0  0
 19 40  1  0  0  0  0
 20 21  1  0  0  0  0
 20 41  1  0  0  0  0
 20 42  1  0  0  0  0
 21 22  1  0  0  0  0
 21 43  1  0  0  0  0
 21 44  1  0  0  0  0
 22 23  1  0  0  0  0
 22 45  1  0  0  0  0
 22 46  1  0  0  0  0
 23 28  2  0  0  0  0
 23 24  1  0  0  0  0
 24 25  2  0  0  0  0
 24 47  1  0  0  0  0
 25 26  1  0  0  0  0
 25 48  1  0  0  0  0
 26 27  2  0  0  0  0
 26 49  1  0  0  0  0
 27 28  1  0  0  0  0
 27 50  1  0  0  0  0
M  END
> <s_m_source_file>
AV-unprocessed.smi

> <i_m_source_file_index>
139

> <i_lp_mmshare_version>
43012

> <i_f3d_flags>
0

> <s_epik_input>
W2NIXTFbY0hdW2NIXVtjSF1jKGMxMilbQ0BASF0oW0NIMl1bQ0gyXVtDSDJdMilbTkhdQyg9TylbQ0gyXW4zYyg9TyljKEYpW2NIXW4oYzM9TylbQ0BASF00W0NIMl1bQ0gyXVtDSDJdTzQ=

> <s_epik_cmdline>
J2VwaWtfcHl0aG9uJywgJy1waCcsICc3LjAnLCAnLXRuJywgJzgnLCAnLW1hJywgJzIwMCcsICctbWV0YWxfYmluZGluZycsICctaW1hZScsICc8aW5maWxlLm1hZT4nLCAnLW9tYWUnLCAnPG91dGZpbGUubWFlPic=

> <r_lp_tautomer_probability>
1

> <r_epik_Ionization_Penalty>
3.261e-08

> <r_epik_Ionization_Penalty_Charging>
3.6725e-09

> <r_epik_Ionization_Penalty_Neutral>
2.89375e-08

> <r_epik_State_Penalty>
-0

> <r_epik_Charging_Adjusted_Penalty>
3.6725e-09

> <i_epik_Tot_Q>
0

> <i_epik_Tot_abs_Q>
0

> <r_epik_Metal_State_Penalty>
-0

> <b_epik_Metal_Only>
0

> <s_epik_Chemistry_Notes>
This compound contains an acetal/aminal-like group ( X-CH(R)-Y where X, Y are N, S, or O) that may be acid/base labile, releasing an aldehyde.

> <s_lp_Force_Field>
OPLS_2005

> <r_lp_Energy>
30.3029

> <b_lp_Chiralities_Consistent>
1

> <s_lp_Variant>
AV-unprocessed.smi:139-1

> <Gold.Version>
5.8.1

> <Gold.Id.Protein>
6NUR|6NUR_protein|mol2

> <Gold.PLP.Fitness>
46.2992

> <Gold.PLP.PLP>
-44.5131

> <Gold.PLP.part.hbond>
-1.0000

> <Gold.PLP.part.metal>
0.0000

> <Gold.PLP.part.buried>
-1.9343

> <Gold.PLP.part.nonpolar>
-41.9419

> <Gold.PLP.part.repulsive>
0.3674

> <Gold.PLP.ligand.clash>
0.0000

> <Gold.PLP.ligand.torsion>
0.6223

> <Gold.PLP.Chemscore.Hbond>
1.0000

> <Gold.PLP.Chemscore.CHOScore>
0.0000

> <Gold.PLP.Chemscore.Metal>
0.0000

> <Gold.Chemscore.Hbonds>
donor molecule, donor type, donor heavy atom, donor atom, acceptor molecule, acceptor atom, score
      L1  H    18    39       P1  7948  1.00

> <Gold.PLP.Chemscore.Internal.Correction>
0.0307

> <Gold.Rescore>
     Score         DG    S(hbond)    S(metal)    S(lipo)     H(rot)  DE(clash)    DE(int)     intcor
     14.56     -15.34       0.99        0.00      95.93       1.82       0.10       0.68       ----

> <Gold.Chemscore.Fitness>
14.5642

> <Gold.Chemscore.DG>
-15.3427

> <Gold.Chemscore.ZeroCoef>
-5.4800

> <Gold.Chemscore.Hbond>
0.9853

> <Gold.Chemscore.Metal>
0.0000

> <Gold.Chemscore.Lipo>
95.9343

> <Gold.Chemscore.Internal_Hbond>
0.0000

> <Gold.Chemscore.DEClash>
0.0984

> <Gold.Chemscore.DEInternal>
0.6800

> <Gold.Chemscore.Rot>
1.8174

> <Gold.Chemscore.Internal.Correction>
   9.000000E+99

> <Gold.Chemscore.Hbonds>
donor molecule, donor type, donor heavy atom, donor atom, acceptor molecule, acceptor atom, score
      L1  H    18    39       P1  7948  0.99

> <Gold.Chemscore.Hbond.Weighted>
-3.2908

> <Gold.Chemscore.Metal.Weighted>
-0.0000

> <Gold.Chemscore.Lipo.Weighted>
-11.2243

> <Gold.Chemscore.Internal_Hbond.Weighted>
0.0000

> <Gold.Chemscore.DEClash.Weighted>
0.0984

> <Gold.Chemscore.DEInternal.Weighted>
0.6800

> <Gold.Chemscore.Rot.Weighted>
4.6524

> <Gold.Chemscore.Internal.Correction.Weighted>
   9.000000E+99

> <Gold.Protein.RotatedTorsions>
[ 6907 6896 6895 6894 ] final  172.09 input  -60.11 | X-H torsion
[ 7974 7965 7964 7962 ] final   61.11 input  175.53 | X-H torsion
[ 8008 7997 7996 7995 ] final   33.67 input   59.86 | X-H torsion
[ 10167 10162 10161 10158 ] final    7.45 input  -65.29 | X-H torsion
[ 10718 10713 10712 10709 ] final -142.96 input   66.30 | X-H torsion
[ 10763 10752 10751 10750 ] final   46.44 input  -60.55 | X-H torsion
[ 11005 11000 10999 10996 ] final  167.04 input  -57.11 | X-H torsion

> <Gold.Protein.ActiveResidues>
 VAL166  LYS551  ARG553  GLY616  TRP617  ASP618  TYR619  PRO620  LYS621  CYS622 
 ASP623  PHE694  ASN695  SER759  ASP760  ASP761  ALA762  ILE779  LEU786  VAL792 
 PHE793  MET794  SER795  GLU796  ALA797  LYS798  CYS799  TRP800  GLU811  SER814 

> <Gold.Protein.RotatedAtoms>
  151.7899  133.3358  159.3495 H   0  0  0  0  0  0  0  0  0  0  0  0  # atno 6907 bound_to 6896
  150.7396  134.5852  159.5969 H   0  0  0  0  0  0  0  0  0  0  0  0  # atno 6908 bound_to 6896
  152.3217  134.7373  160.0363 H   0  0  0  0  0  0  0  0  0  0  0  0  # atno 6909 bound_to 6896
  145.8884  139.3493  143.0664 H   0  0  0  0  0  0  0  0  0  0  0  0  # atno 7974 bound_to 7965
  155.1424  140.3267  155.4449 H   0  0  0  0  0  0  0  0  0  0  0  0  # atno 8008 bound_to 7997
  156.2600  140.1991  156.6489 H   0  0  0  0  0  0  0  0  0  0  0  0  # atno 8009 bound_to 7997
  154.6532  140.0556  156.9966 H   0  0  0  0  0  0  0  0  0  0  0  0  # atno 8010 bound_to 7997
  140.6371  143.7861  150.7374 H   0  0  0  0  0  0  0  0  0  0  0  0  # atno 10167 bound_to 10162
  156.3521  130.7694  151.1848 H   0  0  0  0  0  0  0  0  0  0  0  0  # atno 10718 bound_to 10713
  152.9811  135.6008  154.3600 H   0  0  0  0  0  0  0  0  0  0  0  0  # atno 10763 bound_to 10752
  154.3282  135.2769  155.2487 H   0  0  0  0  0  0  0  0  0  0  0  0  # atno 10764 bound_to 10752
  154.4623  135.5963  153.6319 H   0  0  0  0  0  0  0  0  0  0  0  0  # atno 10765 bound_to 10752
  140.2727  134.7814  157.3689 H   0  0  0  0  0  0  0  0  0  0  0  0  # atno 11005 bound_to 11000
  145.8938  140.9287  143.0538 LP  0  0  0  0  0  0  0  0  0  0  0  0  # atno 17320 bound_to 7965
  144.6729  140.0941  143.7464 LP  0  0  0  0  0  0  0  0  0  0  0  0  # atno 17321 bound_to 7965
  140.1485  143.4378  152.2147 LP  0  0  0  0  0  0  0  0  0  0  0  0  # atno 17342 bound_to 10162
  139.5581  144.7387  151.4236 LP  0  0  0  0  0  0  0  0  0  0  0  0  # atno 17343 bound_to 10162
  157.7462  131.0424  150.4694 LP  0  0  0  0  0  0  0  0  0  0  0  0  # atno 17370 bound_to 10713
  156.4891  130.4091  149.6417 LP  0  0  0  0  0  0  0  0  0  0  0  0  # atno 17371 bound_to 10713
  140.1358  134.5036  155.8070 LP  0  0  0  0  0  0  0  0  0  0  0  0  # atno 17394 bound_to 11000
  141.2175  133.6806  156.7121 LP  0  0  0  0  0  0  0  0  0  0  0  0  # atno 17395 bound_to 11000

$$$$
