AV-unprocessed.smi:2775|AV-procd|sdf|10696|dock1
  -GOLD-   2272015133D 1   1.00000     0.00000
 Structure written by MMmdl.
 43 46  0  0  0  0  0  0  0  0  2 V2000
  144.4155  132.3285  150.3680 C   0  0  0  0  0  0  0  0  0  0  0  0
  144.3984  133.6155  151.1700 C   0  0  0  0  0  0  0  0  0  0  0  0
  143.2023  134.2064  151.3840 N   0  3  0  0  0  0  0  0  0  0  0  0
  143.0634  135.3562  152.0759 C   0  0  0  0  0  0  0  0  0  0  0  0
  144.1973  135.9905  152.6194 C   0  0  0  0  0  0  0  0  0  0  0  0
  145.4764  135.4052  152.4399 C   0  0  0  0  0  0  0  0  0  0  0  0
  146.6754  135.9823  152.9432 N   0  0  0  0  0  0  0  0  0  0  0  0
  146.8804  136.6240  154.1099 C   0  0  0  0  0  0  0  0  0  0  0  0
  146.0052  136.8832  154.9326 O   0  0  0  0  0  0  0  0  0  0  0  0
  148.1627  136.9628  154.3261 N   0  0  0  0  0  0  0  0  0  0  0  0
  148.7151  137.6656  155.4923 C   0  0  2  0  0  0  0  0  0  0  0  0
  148.6429  139.1963  155.3942 C   0  0  2  0  0  0  0  0  0  0  0  0
  147.7953  140.1731  154.6622 C   0  0  0  0  0  0  0  0  0  0  0  0
  148.9227  141.1744  154.3037 C   0  0  0  0  0  0  0  0  0  0  0  0
  150.1634  140.5226  154.6761 O   0  0  0  0  0  0  0  0  0  0  0  0
  149.8950  139.1397  154.5342 C   0  0  1  0  0  0  0  0  0  0  0  0
  150.2569  137.9223  155.4014 C   0  0  0  0  0  0  0  0  0  0  0  0
  151.1272  138.0642  156.6609 C   0  0  0  0  0  0  0  0  0  0  0  0
  151.6890  136.6698  156.3665 C   0  0  0  0  0  0  0  0  0  0  0  0
  151.2314  136.8409  154.9144 C   0  0  0  0  0  0  0  0  0  0  0  0
  145.5742  134.2072  151.6891 C   0  0  0  0  0  0  0  0  0  0  0  0
  147.1146  133.4663  151.4106 Cl  0  0  0  0  0  0  0  0  0  0  0  0
  144.8732  131.5258  150.9471 H   0  0  0  0  0  0  0  0  0  0  0  0
  144.9882  132.4612  149.4498 H   0  0  0  0  0  0  0  0  0  0  0  0
  143.4067  132.0150  150.0964 H   0  0  0  0  0  0  0  0  0  0  0  0
  142.0560  135.7352  152.1690 H   0  0  0  0  0  0  0  0  0  0  0  0
  144.0634  136.9194  153.1521 H   0  0  0  0  0  0  0  0  0  0  0  0
  147.5055  135.7908  152.4009 H   0  0  0  0  0  0  0  0  0  0  0  0
  148.8258  136.7179  153.6046 H   0  0  0  0  0  0  0  0  0  0  0  0
  148.4002  137.2618  156.4559 H   0  0  0  0  0  0  0  0  0  0  0  0
  148.8551  139.5958  156.3927 H   0  0  0  0  0  0  0  0  0  0  0  0
  147.3359  139.7404  153.7727 H   0  0  0  0  0  0  0  0  0  0  0  0
  147.0221  140.6189  155.2878 H   0  0  0  0  0  0  0  0  0  0  0  0
  148.9168  141.3987  153.2363 H   0  0  0  0  0  0  0  0  0  0  0  0
  148.8238  142.1138  154.8485 H   0  0  0  0  0  0  0  0  0  0  0  0
  149.7094  138.8739  153.4893 H   0  0  0  0  0  0  0  0  0  0  0  0
  151.8780  138.8504  156.5670 H   0  0  0  0  0  0  0  0  0  0  0  0
  150.5749  138.1426  157.5978 H   0  0  0  0  0  0  0  0  0  0  0  0
  152.7674  136.5750  156.4971 H   0  0  0  0  0  0  0  0  0  0  0  0
  151.1467  135.8792  156.8872 H   0  0  0  0  0  0  0  0  0  0  0  0
  150.7673  135.9556  154.4793 H   0  0  0  0  0  0  0  0  0  0  0  0
  152.0159  137.2422  154.2709 H   0  0  0  0  0  0  0  0  0  0  0  0
  142.3661  133.7657  150.9998 H   0  0  0  0  0  0  0  0  0  0  0  0
  1  2  1  0  0  0  0
  1 23  1  0  0  0  0
  1 24  1  0  0  0  0
  1 25  1  0  0  0  0
  2 21  1  0  0  0  0
  2  3  2  0  0  0  0
  3  4  1  0  0  0  0
  3 43  1  0  0  0  0
  4  5  2  0  0  0  0
  4 26  1  0  0  0  0
  5  6  1  0  0  0  0
  5 27  1  0  0  0  0
  6  7  1  0  0  0  0
  6 21  2  0  0  0  0
  7  8  1  0  0  0  0
  7 28  1  0  0  0  0
  8  9  2  0  0  0  0
  8 10  1  0  0  0  0
 10 11  1  0  0  0  0
 10 29  1  0  0  0  0
 11 17  1  0  0  0  0
 11 12  1  0  0  0  0
 11 30  1  0  0  0  0
 12 16  1  0  0  0  0
 12 13  1  0  0  0  0
 12 31  1  0  0  0  0
 13 14  1  0  0  0  0
 13 32  1  0  0  0  0
 13 33  1  0  0  0  0
 14 15  1  0  0  0  0
 14 34  1  0  0  0  0
 14 35  1  0  0  0  0
 15 16  1  0  0  0  0
 16 17  1  0  0  0  0
 16 36  1  0  0  0  0
 17 20  1  0  0  0  0
 17 18  1  0  0  0  0
 18 19  1  0  0  0  0
 18 37  1  0  0  0  0
 18 38  1  0  0  0  0
 19 20  1  0  0  0  0
 19 39  1  0  0  0  0
 19 40  1  0  0  0  0
 20 41  1  0  0  0  0
 20 42  1  0  0  0  0
 21 22  1  0  0  0  0
M  CHG  1   3   1
M  END
> <s_m_source_file>
AV-unprocessed.smi

> <i_m_source_file_index>
2775

> <i_lp_mmshare_version>
43012

> <i_f3d_flags>
0

> <s_epik_input>
W0NIM11jMW5bY0hdW2NIXWMoYzFDbClbTkhdQyg9TylbTkhdW0NAQEhdMltDQEhdKFtDSDJdW0NIMl1PMylbQ0BASF0zQzI0W0NIMl1bQ0gyXVtDSDJdNA==

> <s_epik_cmdline>
J2VwaWtfcHl0aG9uJywgJy1waCcsICc3LjAnLCAnLXRuJywgJzgnLCAnLW1hJywgJzIwMCcsICctbWV0YWxfYmluZGluZycsICctaW1hZScsICc8aW5maWxlLm1hZT4nLCAnLW9tYWUnLCAnPG91dGZpbGUubWFlPic=

> <r_epik_Ionization_Penalty>
2.4104

> <r_epik_Ionization_Penalty_Charging>
2.41038

> <r_epik_Ionization_Penalty_Neutral>
1.9872e-05

> <r_epik_State_Penalty>
2.56896

> <r_epik_Charging_Adjusted_Penalty>
4.97934

> <i_epik_Tot_Q>
1

> <i_epik_Tot_abs_Q>
1

> <r_epik_Metal_State_Penalty>
2.57906

> <b_epik_Metal_Only>
0

> <s_lp_Force_Field>
OPLS_2005

> <r_lp_Energy>
86.9508

> <b_lp_Chiralities_Consistent>
1

> <s_lp_Variant>
AV-unprocessed.smi:2775-9

> <Gold.Version>
5.8.1

> <Gold.Id.Protein>
6NUR|6NUR_protein|mol2

> <Gold.PLP.Fitness>
39.1842

> <Gold.PLP.PLP>
-27.4455

> <Gold.PLP.part.hbond>
-3.9868

> <Gold.PLP.part.metal>
0.0000

> <Gold.PLP.part.buried>
-3.9978

> <Gold.PLP.part.nonpolar>
-19.5005

> <Gold.PLP.part.repulsive>
0.1424

> <Gold.PLP.ligand.clash>
0.0000

> <Gold.PLP.ligand.torsion>
0.4519

> <Gold.PLP.Chemscore.Hbond>
4.1085

> <Gold.PLP.Chemscore.CHOScore>
0.0000

> <Gold.PLP.Chemscore.Metal>
0.0000

> <Gold.Chemscore.Hbonds>
donor molecule, donor type, donor heavy atom, donor atom, acceptor molecule, acceptor atom, score
      L1  H     3    43       P1 10186  1.10
      L1  H     7    28       P1  7948  1.00
      L1  H    10    29       P1  7948  0.88
      P1  H  7989  7998       L1    15  0.93

> <Gold.PLP.Chemscore.Internal.Correction>
0.3171

> <Gold.Rescore>
     Score         DG    S(hbond)    S(metal)    S(lipo)     H(rot)  DE(clash)    DE(int)     intcor
     20.61     -22.24       2.82        0.00      84.68       1.00       0.55       1.08       ----

> <Gold.Chemscore.Fitness>
20.6126

> <Gold.Chemscore.DG>
-22.2399

> <Gold.Chemscore.ZeroCoef>
-5.4800

> <Gold.Chemscore.Hbond>
2.8181

> <Gold.Chemscore.Metal>
0.0000

> <Gold.Chemscore.Lipo>
84.6802

> <Gold.Chemscore.Internal_Hbond>
0.0000

> <Gold.Chemscore.DEClash>
0.5520

> <Gold.Chemscore.DEInternal>
1.0754

> <Gold.Chemscore.Rot>
1.0000

> <Gold.Chemscore.Internal.Correction>
   9.000000E+99

> <Gold.Chemscore.Hbonds>
donor molecule, donor type, donor heavy atom, donor atom, acceptor molecule, acceptor atom, score
      L1  H     3    43       P1 10186  0.32
      L1  H     7    28       P1  7948  0.95
      L1  H    10    29       P1  7948  0.87
      P1  H  7989  7998       L1    15  0.43

> <Gold.Chemscore.Hbond.Weighted>
-9.4123

> <Gold.Chemscore.Metal.Weighted>
-0.0000

> <Gold.Chemscore.Lipo.Weighted>
-9.9076

> <Gold.Chemscore.Internal_Hbond.Weighted>
0.0000

> <Gold.Chemscore.DEClash.Weighted>
0.5520

> <Gold.Chemscore.DEInternal.Weighted>
1.0754

> <Gold.Chemscore.Rot.Weighted>
2.5600

> <Gold.Chemscore.Internal.Correction.Weighted>
   9.000000E+99

> <Gold.Protein.RotatedTorsions>
[ 6907 6896 6895 6894 ] final  -41.97 input  -60.11 | X-H torsion
[ 7974 7965 7964 7962 ] final   82.13 input  175.53 | X-H torsion
[ 8008 7997 7996 7995 ] final   -8.56 input   59.86 | X-H torsion
[ 10167 10162 10161 10158 ] final -123.84 input  -65.29 | X-H torsion
[ 10718 10713 10712 10709 ] final -115.24 input   66.30 | X-H torsion
[ 10763 10752 10751 10750 ] final  120.27 input  -60.55 | X-H torsion
[ 11005 11000 10999 10996 ] final  -53.05 input  -57.11 | X-H torsion

> <Gold.Protein.ActiveResidues>
 VAL166  LYS551  ARG553  GLY616  TRP617  ASP618  TYR619  PRO620  LYS621  CYS622 
 ASP623  PHE694  ASN695  SER759  ASP760  ASP761  ALA762  ILE779  LEU786  VAL792 
 PHE793  MET794  SER795  GLU796  ALA797  LYS798  CYS799  TRP800  GLU811  SER814 

> <Gold.Protein.RotatedAtoms>
  150.9606  134.8994  159.7727 H   0  0  0  0  0  0  0  0  0  0  0  0  # atno 6907 bound_to 6896
  152.5154  134.3678  159.9317 H   0  0  0  0  0  0  0  0  0  0  0  0  # atno 6908 bound_to 6896
  151.3691  133.3821  159.2732 H   0  0  0  0  0  0  0  0  0  0  0  0  # atno 6909 bound_to 6896
  145.6291  139.2401  143.2095 H   0  0  0  0  0  0  0  0  0  0  0  0  # atno 7974 bound_to 7965
  154.5730  140.2378  155.8164 H   0  0  0  0  0  0  0  0  0  0  0  0  # atno 8008 bound_to 7997
  156.2121  140.3023  155.9714 H   0  0  0  0  0  0  0  0  0  0  0  0  # atno 8009 bound_to 7997
  155.2679  140.0417  157.2994 H   0  0  0  0  0  0  0  0  0  0  0  0  # atno 8010 bound_to 7997
  139.9992  143.5559  152.2310 H   0  0  0  0  0  0  0  0  0  0  0  0  # atno 10167 bound_to 10162
  156.0883  130.6070  150.8881 H   0  0  0  0  0  0  0  0  0  0  0  0  # atno 10718 bound_to 10713
  153.5958  135.3457  155.2927 H   0  0  0  0  0  0  0  0  0  0  0  0  # atno 10763 bound_to 10752
  154.8644  135.4216  154.2466 H   0  0  0  0  0  0  0  0  0  0  0  0  # atno 10764 bound_to 10752
  153.3284  135.7042  153.7041 H   0  0  0  0  0  0  0  0  0  0  0  0  # atno 10765 bound_to 10752
  141.0956  133.6625  156.4115 H   0  0  0  0  0  0  0  0  0  0  0  0  # atno 11005 bound_to 11000
  146.1371  140.7108  142.9385 LP  0  0  0  0  0  0  0  0  0  0  0  0  # atno 17320 bound_to 7965
  144.7200  140.4343  143.7015 LP  0  0  0  0  0  0  0  0  0  0  0  0  # atno 17321 bound_to 7965
  139.6284  144.7640  151.2589 LP  0  0  0  0  0  0  0  0  0  0  0  0  # atno 17342 bound_to 10162
  140.7425  143.6523  150.8237 LP  0  0  0  0  0  0  0  0  0  0  0  0  # atno 17343 bound_to 10162
  157.6024  131.0940  150.8937 LP  0  0  0  0  0  0  0  0  0  0  0  0  # atno 17370 bound_to 10713
  156.9092  130.5274  149.5281 LP  0  0  0  0  0  0  0  0  0  0  0  0  # atno 17371 bound_to 10713
  140.5148  134.6361  157.5297 LP  0  0  0  0  0  0  0  0  0  0  0  0  # atno 17394 bound_to 11000
  139.9792  134.7165  155.9891 LP  0  0  0  0  0  0  0  0  0  0  0  0  # atno 17395 bound_to 11000

$$$$
