AV-unprocessed.smi:3132|AV-procd|sdf|11931|dock5
  -GOLD-   2272017323D 1   1.00000     0.00000
 Structure written by MMmdl.
 34 35  0  0  0  0  0  0  0  0  2 V2000
  148.9331  140.1116  156.7551 C   0  0  0  0  0  0  0  0  0  0  0  0
  149.0867  141.3786  155.9031 C   0  0  2  0  0  0  0  0  0  0  0  0
  149.3086  141.0283  154.4158 C   0  0  0  0  0  0  0  0  0  0  0  0
  148.1309  140.4224  153.7857 N   0  0  0  0  0  0  0  0  0  0  0  0
  148.0421  139.1827  153.2058 C   0  0  0  0  0  0  0  0  0  0  0  0
  146.7569  139.0585  152.7449 C   0  0  0  0  0  0  0  0  0  0  0  0
  146.1146  140.2239  153.0679 N   0  3  0  0  0  0  0  0  0  0  0  0
  146.9505  141.0501  153.7049 C   0  0  0  0  0  0  0  0  0  0  0  0
  150.1985  142.1690  156.4296 N   0  0  0  0  0  0  0  0  0  0  0  0
  150.3945  142.4974  157.7175 C   0  0  0  0  0  0  0  0  0  0  0  0
  149.6151  142.1809  158.6167 O   0  0  0  0  0  0  0  0  0  0  0  0
  151.6404  143.3333  158.0445 C   0  0  1  0  0  0  0  0  0  0  0  0
  151.3377  144.6801  158.7291 C   0  0  0  0  0  0  0  0  0  0  0  0
  152.1447  144.6317  160.0160 C   0  0  0  0  0  0  0  0  0  0  0  0
  153.2063  143.5841  159.7108 C   0  0  0  0  0  0  0  0  0  0  0  0
  152.4831  142.6286  158.9549 O   0  0  0  0  0  0  0  0  0  0  0  0
  148.0904  139.5094  156.4142 H   0  0  0  0  0  0  0  0  0  0  0  0
  148.7558  140.3607  157.8020 H   0  0  0  0  0  0  0  0  0  0  0  0
  149.8272  139.4888  156.7076 H   0  0  0  0  0  0  0  0  0  0  0  0
  148.1572  141.9428  155.9991 H   0  0  0  0  0  0  0  0  0  0  0  0
  149.5812  141.9167  153.8442 H   0  0  0  0  0  0  0  0  0  0  0  0
  150.1324  140.3207  154.3105 H   0  0  0  0  0  0  0  0  0  0  0  0
  148.8799  138.5022  153.1588 H   0  0  0  0  0  0  0  0  0  0  0  0
  146.2645  138.2499  152.2243 H   0  0  0  0  0  0  0  0  0  0  0  0
  146.7203  142.0345  154.0720 H   0  0  0  0  0  0  0  0  0  0  0  0
  150.8930  142.4759  155.7631 H   0  0  0  0  0  0  0  0  0  0  0  0
  152.1981  143.5067  157.1231 H   0  0  0  0  0  0  0  0  0  0  0  0
  151.6765  145.5013  158.0968 H   0  0  0  0  0  0  0  0  0  0  0  0
  150.2795  144.8433  158.9389 H   0  0  0  0  0  0  0  0  0  0  0  0
  152.5665  145.5981  160.2933 H   0  0  0  0  0  0  0  0  0  0  0  0
  151.5136  144.2878  160.8365 H   0  0  0  0  0  0  0  0  0  0  0  0
  154.0116  144.0029  159.1052 H   0  0  0  0  0  0  0  0  0  0  0  0
  153.6383  143.1452  160.6102 H   0  0  0  0  0  0  0  0  0  0  0  0
  145.1475  140.4335  152.8546 H   0  0  0  0  0  0  0  0  0  0  0  0
  1  2  1  0  0  0  0
  1 17  1  0  0  0  0
  1 18  1  0  0  0  0
  1 19  1  0  0  0  0
  2  3  1  0  0  0  0
  2  9  1  0  0  0  0
  2 20  1  0  0  0  0
  3  4  1  0  0  0  0
  3 21  1  0  0  0  0
  3 22  1  0  0  0  0
  4  8  1  0  0  0  0
  4  5  1  0  0  0  0
  5  6  2  0  0  0  0
  5 23  1  0  0  0  0
  6  7  1  0  0  0  0
  6 24  1  0  0  0  0
  7  8  2  0  0  0  0
  7 34  1  0  0  0  0
  8 25  1  0  0  0  0
  9 10  1  0  0  0  0
  9 26  1  0  0  0  0
 10 11  2  0  0  0  0
 10 12  1  0  0  0  0
 12 16  1  0  0  0  0
 12 13  1  0  0  0  0
 12 27  1  0  0  0  0
 13 14  1  0  0  0  0
 13 28  1  0  0  0  0
 13 29  1  0  0  0  0
 14 15  1  0  0  0  0
 14 30  1  0  0  0  0
 14 31  1  0  0  0  0
 15 16  1  0  0  0  0
 15 32  1  0  0  0  0
 15 33  1  0  0  0  0
M  CHG  1   7   1
M  END
> <s_m_source_file>
AV-unprocessed.smi

> <i_m_source_file_index>
3132

> <i_lp_mmshare_version>
43012

> <i_f3d_flags>
0

> <s_epik_input>
W2NIXTFuW2NIXVtjSF1uMVtDSDJdW0NAQEhdKFtDSDNdKVtOSF1DKD1PKVtDQEBIXTJbQ0gyXVtDSDJdW0NIMl1PMg==

> <s_epik_cmdline>
J2VwaWtfcHl0aG9uJywgJy1waCcsICc3LjAnLCAnLXRuJywgJzgnLCAnLW1hJywgJzIwMCcsICctbWV0YWxfYmluZGluZycsICctaW1hZScsICc8aW5maWxlLm1hZT4nLCAnLW9tYWUnLCAnPG91dGZpbGUubWFlPic=

> <r_lp_tautomer_probability>
1

> <r_epik_Ionization_Penalty>
0.250802

> <r_epik_Ionization_Penalty_Charging>
0

> <r_epik_Ionization_Penalty_Neutral>
0.250802

> <r_epik_State_Penalty>
0.242139

> <r_epik_Charging_Adjusted_Penalty>
0.242139

> <i_epik_Tot_Q>
1

> <i_epik_Tot_abs_Q>
1

> <r_epik_Metal_State_Penalty>
0.533361

> <b_epik_Metal_Only>
0

> <s_lp_Force_Field>
OPLS_2005

> <r_lp_Energy>
20.312

> <b_lp_Chiralities_Consistent>
1

> <s_lp_Variant>
AV-unprocessed.smi:3132-3

> <Gold.Version>
5.8.1

> <Gold.Id.Protein>
6NUR|6NUR_protein|mol2

> <Gold.PLP.Fitness>
40.0898

> <Gold.PLP.PLP>
-31.8520

> <Gold.PLP.part.hbond>
-2.0365

> <Gold.PLP.part.metal>
0.0000

> <Gold.PLP.part.buried>
-0.6602

> <Gold.PLP.part.nonpolar>
-29.3207

> <Gold.PLP.part.repulsive>
0.1822

> <Gold.PLP.ligand.clash>
0.0000

> <Gold.PLP.ligand.torsion>
0.1359

> <Gold.PLP.Chemscore.Hbond>
2.0000

> <Gold.PLP.Chemscore.CHOScore>
0.8313

> <Gold.PLP.Chemscore.Metal>
0.0000

> <Gold.Chemscore.Hbonds>
donor molecule, donor type, donor heavy atom, donor atom, acceptor molecule, acceptor atom, score
      L1  H     7    34       P1 10175  1.89
      L1  C     5    23       P1  7948  0.80
      L1  C     5    23       P1  7957  0.06

> <Gold.PLP.Chemscore.Internal.Correction>
0.0158

> <Gold.Rescore>
     Score         DG    S(hbond)    S(metal)    S(lipo)     H(rot)  DE(clash)    DE(int)     intcor
     11.67     -12.90       0.99        0.00      77.36       1.93       0.05       1.18       ----

> <Gold.Chemscore.Fitness>
11.6701

> <Gold.Chemscore.DG>
-12.8984

> <Gold.Chemscore.ZeroCoef>
-5.4800

> <Gold.Chemscore.Hbond>
0.9912

> <Gold.Chemscore.Metal>
0.0000

> <Gold.Chemscore.Lipo>
77.3561

> <Gold.Chemscore.Internal_Hbond>
0.0000

> <Gold.Chemscore.DEClash>
0.0507

> <Gold.Chemscore.DEInternal>
1.1776

> <Gold.Chemscore.Rot>
1.9308

> <Gold.Chemscore.Internal.Correction>
   9.000000E+99

> <Gold.Chemscore.Hbonds>
donor molecule, donor type, donor heavy atom, donor atom, acceptor molecule, acceptor atom, score
      L1  H     7    34       P1 10175  0.82

> <Gold.Chemscore.Hbond.Weighted>
-3.3107

> <Gold.Chemscore.Metal.Weighted>
-0.0000

> <Gold.Chemscore.Lipo.Weighted>
-9.0507

> <Gold.Chemscore.Internal_Hbond.Weighted>
0.0000

> <Gold.Chemscore.DEClash.Weighted>
0.0507

> <Gold.Chemscore.DEInternal.Weighted>
1.1776

> <Gold.Chemscore.Rot.Weighted>
4.9429

> <Gold.Chemscore.Internal.Correction.Weighted>
   9.000000E+99

> <Gold.Protein.RotatedTorsions>
[ 6907 6896 6895 6894 ] final  -50.53 input  -60.11 | X-H torsion
[ 7974 7965 7964 7962 ] final -112.90 input  175.53 | X-H torsion
[ 8008 7997 7996 7995 ] final  -81.95 input   59.86 | X-H torsion
[ 10167 10162 10161 10158 ] final   36.57 input  -65.29 | X-H torsion
[ 10718 10713 10712 10709 ] final    1.84 input   66.30 | X-H torsion
[ 10763 10752 10751 10750 ] final   -7.31 input  -60.55 | X-H torsion
[ 11005 11000 10999 10996 ] final  -60.05 input  -57.11 | X-H torsion

> <Gold.Protein.ActiveResidues>
 VAL166  LYS551  ARG553  GLY616  TRP617  ASP618  TYR619  PRO620  LYS621  CYS622 
 ASP623  PHE694  ASN695  SER759  ASP760  ASP761  ALA762  ILE779  LEU786  VAL792 
 PHE793  MET794  SER795  GLU796  ALA797  LYS798  CYS799  TRP800  GLU811  SER814 

> <Gold.Protein.RotatedAtoms>
  150.8699  134.8070  159.7146 H   0  0  0  0  0  0  0  0  0  0  0  0  # atno 6907 bound_to 6896
  152.4707  134.4964  159.9721 H   0  0  0  0  0  0  0  0  0  0  0  0  # atno 6908 bound_to 6896
  151.5054  133.3457  159.2911 H   0  0  0  0  0  0  0  0  0  0  0  0  # atno 6909 bound_to 6896
  145.1384  140.8764  143.3716 H   0  0  0  0  0  0  0  0  0  0  0  0  # atno 7974 bound_to 7965
  154.6036  140.0640  156.9401 H   0  0  0  0  0  0  0  0  0  0  0  0  # atno 8008 bound_to 7997
  155.2091  140.3321  155.4313 H   0  0  0  0  0  0  0  0  0  0  0  0  # atno 8009 bound_to 7997
  156.2333  140.1851  156.7168 H   0  0  0  0  0  0  0  0  0  0  0  0  # atno 8010 bound_to 7997
  140.4115  144.1585  150.6140 H   0  0  0  0  0  0  0  0  0  0  0  0  # atno 10167 bound_to 10162
  156.8542  130.5564  149.5667 H   0  0  0  0  0  0  0  0  0  0  0  0  # atno 10718 bound_to 10713
  153.4245  135.7011  153.6272 H   0  0  0  0  0  0  0  0  0  0  0  0  # atno 10763 bound_to 10752
  153.4712  135.3714  155.2392 H   0  0  0  0  0  0  0  0  0  0  0  0  # atno 10764 bound_to 10752
  154.8723  135.4043  154.3619 H   0  0  0  0  0  0  0  0  0  0  0  0  # atno 10765 bound_to 10752
  141.1272  133.6620  156.5164 H   0  0  0  0  0  0  0  0  0  0  0  0  # atno 11005 bound_to 11000
  145.0559  139.3144  143.5905 LP  0  0  0  0  0  0  0  0  0  0  0  0  # atno 17320 bound_to 7965
  146.3507  139.9983  142.8678 LP  0  0  0  0  0  0  0  0  0  0  0  0  # atno 17321 bound_to 7965
  140.4632  143.2441  151.9191 LP  0  0  0  0  0  0  0  0  0  0  0  0  # atno 17342 bound_to 10162
  139.4782  144.5446  151.8477 LP  0  0  0  0  0  0  0  0  0  0  0  0  # atno 17343 bound_to 10162
  156.0812  130.5822  150.9566 LP  0  0  0  0  0  0  0  0  0  0  0  0  # atno 17370 bound_to 10713
  157.6287  131.0923  150.8484 LP  0  0  0  0  0  0  0  0  0  0  0  0  # atno 17371 bound_to 10713
  140.4328  134.7086  157.4951 LP  0  0  0  0  0  0  0  0  0  0  0  0  # atno 17394 bound_to 11000
  140.0282  134.6445  155.9143 LP  0  0  0  0  0  0  0  0  0  0  0  0  # atno 17395 bound_to 11000

$$$$
