AV-unprocessed.smi:218|AV-procd|sdf|1662|dock5
  -GOLD-   2262020 63D 1   1.00000     0.00000
 Structure written by MMmdl.
 54 57  0  0  0  0  0  0  0  0  1 V2000
  155.8184  138.9967  163.9860 C   0  0  0  0  0  0  0  0  0  0  0  0
  155.2196  137.9247  163.0675 C   0  0  0  0  0  0  0  0  0  0  0  0
  155.7276  136.5221  163.4441 C   0  0  0  0  0  0  0  0  0  0  0  0
  155.6131  138.2551  161.7340 O   0  0  0  0  0  0  0  0  0  0  0  0
  155.2562  139.4718  161.1851 C   0  0  0  0  0  0  0  0  0  0  0  0
  154.3321  139.4787  160.1202 C   0  0  0  0  0  0  0  0  0  0  0  0
  153.9595  140.7105  159.5447 C   0  0  0  0  0  0  0  0  0  0  0  0
  152.9780  140.7455  158.3877 C   0  0  0  0  0  0  0  0  0  0  0  0
  153.4401  140.0460  157.1955 N   0  0  0  0  0  0  0  0  0  0  0  0
  152.5461  139.5702  156.3028 C   0  0  0  0  0  0  0  0  0  0  0  0
  152.5722  138.2693  155.9104 N   0  0  0  0  0  0  0  0  0  0  0  0
  151.6797  137.8210  155.0216 C   0  0  0  0  0  0  0  0  0  0  0  0
  150.6992  138.4918  154.4120 N   0  0  0  0  0  0  0  0  0  0  0  0
  150.6724  139.7984  154.8038 C   0  0  0  0  0  0  0  0  0  0  0  0
  151.5506  140.4096  155.7402 C   0  0  0  0  0  0  0  0  0  0  0  0
  151.2161  141.7490  155.8927 N   0  0  0  0  0  0  0  0  0  0  0  0
  150.1998  141.9148  155.0885 C   0  0  0  0  0  0  0  0  0  0  0  0
  149.8111  140.7904  154.3911 N   0  0  0  0  0  0  0  0  0  0  0  0
  148.7051  140.6270  153.3998 C   0  0  2  0  0  0  0  0  0  0  0  0
  147.7632  141.6314  153.6427 O   0  0  0  0  0  0  0  0  0  0  0  0
  146.4920  141.0726  153.9715 C   0  0  2  0  0  0  0  0  0  0  0  0
  145.7760  141.9641  154.9976 C   0  0  0  0  0  0  0  0  0  0  0  0
  144.4094  141.6191  155.0678 O   0  0  0  0  0  0  0  0  0  0  0  0
  146.8413  139.6839  154.5073 C   0  0  1  0  0  0  0  0  0  0  0  0
  145.7652  138.7679  154.4423 O   0  0  0  0  0  0  0  0  0  0  0  0
  148.0133  139.2775  153.6265 C   0  0  1  0  0  0  0  0  0  0  0  0
  147.6116  138.7030  152.3957 O   0  0  0  0  0  0  0  0  0  0  0  0
  154.5381  141.8923  160.0540 C   0  0  0  0  0  0  0  0  0  0  0  0
  155.4525  141.7860  161.1195 C   0  0  0  0  0  0  0  0  0  0  0  0
  155.8079  140.6092  161.6767 N   0  0  0  0  0  0  0  0  0  0  0  0
  149.1848  140.7385  152.4264 H   0  0  0  0  0  0  0  0  0  0  0  0
  145.9039  140.9716  153.0573 H   0  0  0  0  0  0  0  0  0  0  0  0
  147.1792  139.7634  155.5417 H   0  0  0  0  0  0  0  0  0  0  0  0
  148.6775  138.5724  154.1287 H   0  0  0  0  0  0  0  0  0  0  0  0
  155.5553  138.8138  165.0282 H   0  0  0  0  0  0  0  0  0  0  0  0
  155.4487  139.9873  163.7203 H   0  0  0  0  0  0  0  0  0  0  0  0
  156.9062  139.0169  163.9138 H   0  0  0  0  0  0  0  0  0  0  0  0
  154.1356  137.9720  163.1813 H   0  0  0  0  0  0  0  0  0  0  0  0
  155.4646  136.2757  164.4731 H   0  0  0  0  0  0  0  0  0  0  0  0
  156.8125  136.4600  163.3545 H   0  0  0  0  0  0  0  0  0  0  0  0
  155.2986  135.7505  162.8054 H   0  0  0  0  0  0  0  0  0  0  0  0
  153.9187  138.5507  159.7527 H   0  0  0  0  0  0  0  0  0  0  0  0
  152.0405  140.3028  158.7268 H   0  0  0  0  0  0  0  0  0  0  0  0
  152.7696  141.7848  158.1302 H   0  0  0  0  0  0  0  0  0  0  0  0
  154.4378  139.9122  157.1139 H   0  0  0  0  0  0  0  0  0  0  0  0
  151.7645  136.7763  154.7606 H   0  0  0  0  0  0  0  0  0  0  0  0
  149.7075  142.8702  154.9830 H   0  0  0  0  0  0  0  0  0  0  0  0
  146.2025  141.8108  155.9894 H   0  0  0  0  0  0  0  0  0  0  0  0
  145.8891  143.0213  154.7567 H   0  0  0  0  0  0  0  0  0  0  0  0
  144.2034  141.0560  154.3374 H   0  0  0  0  0  0  0  0  0  0  0  0
  145.1563  139.0735  153.7868 H   0  0  0  0  0  0  0  0  0  0  0  0
  148.0781  139.1354  151.6967 H   0  0  0  0  0  0  0  0  0  0  0  0
  154.2963  142.8600  159.6395 H   0  0  0  0  0  0  0  0  0  0  0  0
  155.9143  142.6703  161.5333 H   0  0  0  0  0  0  0  0  0  0  0  0
  1  2  1  0  0  0  0
  1 35  1  0  0  0  0
  1 36  1  0  0  0  0
  1 37  1  0  0  0  0
  2  3  1  0  0  0  0
  2  4  1  0  0  0  0
  2 38  1  0  0  0  0
  3 39  1  0  0  0  0
  3 40  1  0  0  0  0
  3 41  1  0  0  0  0
  4  5  1  0  0  0  0
  5 30  1  0  0  0  0
  5  6  2  0  0  0  0
  6  7  1  0  0  0  0
  6 42  1  0  0  0  0
  7  8  1  0  0  0  0
  7 28  2  0  0  0  0
  8  9  1  0  0  0  0
  8 43  1  0  0  0  0
  8 44  1  0  0  0  0
  9 10  1  0  0  0  0
  9 45  1  0  0  0  0
 10 15  1  0  0  0  0
 10 11  2  0  0  0  0
 11 12  1  0  0  0  0
 12 13  2  0  0  0  0
 12 46  1  0  0  0  0
 13 14  1  0  0  0  0
 14 18  1  0  0  0  0
 14 15  2  0  0  0  0
 15 16  1  0  0  0  0
 16 17  2  0  0  0  0
 17 18  1  0  0  0  0
 17 47  1  0  0  0  0
 18 19  1  0  0  0  0
 19 31  1  0  0  0  0
 19 26  1  0  0  0  0
 19 20  1  0  0  0  0
 20 21  1  0  0  0  0
 21 32  1  0  0  0  0
 21 22  1  0  0  0  0
 21 24  1  0  0  0  0
 22 23  1  0  0  0  0
 22 48  1  0  0  0  0
 22 49  1  0  0  0  0
 23 50  1  0  0  0  0
 24 33  1  0  0  0  0
 24 25  1  0  0  0  0
 24 26  1  0  0  0  0
 25 51  1  0  0  0  0
 26 34  1  0  0  0  0
 26 27  1  0  0  0  0
 27 52  1  0  0  0  0
 28 29  1  0  0  0  0
 28 53  1  0  0  0  0
 29 30  2  0  0  0  0
 29 54  1  0  0  0  0
M  END
> <s_m_source_file>
AV-unprocessed.smi

> <i_m_source_file_index>
218

> <i_lp_mmshare_version>
43012

> <i_f3d_flags>
0

> <s_epik_input>
W0NIM11bQ0hdKFtDSDNdKU9jMVtjSF1jKFtjSF1bY0hdbjEpW0NIMl1bTkhdYyhuW2NIXW4yKWMoYzIzKW5bY0hdbjNbQ0BASF00T1tDQEhdKFtDSDJdW09IXSlbQ0BASF0oW09IXSlbQ0BIXTRbT0hd

> <s_epik_cmdline>
J2VwaWtfcHl0aG9uJywgJy1waCcsICc3LjAnLCAnLXRuJywgJzgnLCAnLW1hJywgJzIwMCcsICctbWV0YWxfYmluZGluZycsICctaW1hZScsICc8aW5maWxlLm1hZT4nLCAnLW9tYWUnLCAnPG91dGZpbGUubWFlPic=

> <r_lp_tautomer_probability>
1

> <r_epik_Ionization_Penalty>
0.00457014

> <r_epik_Ionization_Penalty_Charging>
0

> <r_epik_Ionization_Penalty_Neutral>
0.00457014

> <r_epik_State_Penalty>
-0

> <r_epik_Charging_Adjusted_Penalty>
0

> <i_epik_Tot_Q>
0

> <i_epik_Tot_abs_Q>
0

> <r_epik_Metal_State_Penalty>
-0

> <b_epik_Metal_Only>
0

> <s_epik_Chemistry_Notes>
This compound contains an acetal/aminal-like group ( X-CH(R)-Y where X, Y are N, S, or O) that may be acid/base labile, releasing an aldehyde.

> <s_lp_Force_Field>
OPLS_2005

> <r_lp_Energy>
38.2737

> <b_lp_Chiralities_Consistent>
1

> <s_lp_Variant>
AV-unprocessed.smi:218-1

> <Gold.Version>
5.8.1

> <Gold.Id.Protein>
6NUR|6NUR_protein|mol2

> <Gold.PLP.Fitness>
55.8609

> <Gold.PLP.PLP>
-46.6691

> <Gold.PLP.part.hbond>
-4.3209

> <Gold.PLP.part.metal>
0.0000

> <Gold.PLP.part.buried>
-2.0467

> <Gold.PLP.part.nonpolar>
-41.6111

> <Gold.PLP.part.repulsive>
1.9136

> <Gold.PLP.ligand.clash>
0.0000

> <Gold.PLP.ligand.torsion>
1.4873

> <Gold.PLP.Chemscore.Hbond>
2.9913

> <Gold.PLP.Chemscore.CHOScore>
1.0000

> <Gold.PLP.Chemscore.Metal>
0.0000

> <Gold.Chemscore.Hbonds>
donor molecule, donor type, donor heavy atom, donor atom, acceptor molecule, acceptor atom, score
      L1  H    23    50       P1 10175  1.00
      L1  H    25    51       P1 10175  0.03
      L1  H    27    52       P1  7957  0.99
      L1  C    17    47       P1  8028  1.00

> <Gold.PLP.Chemscore.Internal.Correction>
0.1927

> <Gold.Rescore>
     Score         DG    S(hbond)    S(metal)    S(lipo)     H(rot)  DE(clash)    DE(int)     intcor
      5.10      -9.86       1.94        0.00      89.29       4.90       0.44       4.32       ----

> <Gold.Chemscore.Fitness>
5.0974

> <Gold.Chemscore.DG>
-9.8578

> <Gold.Chemscore.ZeroCoef>
-5.4800

> <Gold.Chemscore.Hbond>
1.9407

> <Gold.Chemscore.Metal>
0.0000

> <Gold.Chemscore.Lipo>
89.2931

> <Gold.Chemscore.Internal_Hbond>
0.0000

> <Gold.Chemscore.DEClash>
0.4422

> <Gold.Chemscore.DEInternal>
4.3181

> <Gold.Chemscore.Rot>
4.9029

> <Gold.Chemscore.Internal.Correction>
   9.000000E+99

> <Gold.Chemscore.Hbonds>
donor molecule, donor type, donor heavy atom, donor atom, acceptor molecule, acceptor atom, score
      L1  H    23    50       P1 10175  0.83
      L1  H    25    51       P1 10175  0.09
      L1  H    27    52       P1  7957  0.89

> <Gold.Chemscore.Hbond.Weighted>
-6.4820

> <Gold.Chemscore.Metal.Weighted>
-0.0000

> <Gold.Chemscore.Lipo.Weighted>
-10.4473

> <Gold.Chemscore.Internal_Hbond.Weighted>
0.0000

> <Gold.Chemscore.DEClash.Weighted>
0.4422

> <Gold.Chemscore.DEInternal.Weighted>
4.3181

> <Gold.Chemscore.Rot.Weighted>
12.5515

> <Gold.Chemscore.Internal.Correction.Weighted>
   9.000000E+99

> <Gold.Protein.RotatedTorsions>
[ 6907 6896 6895 6894 ] final  139.92 input  -60.11 | X-H torsion
[ 7974 7965 7964 7962 ] final -119.26 input  175.53 | X-H torsion
[ 8008 7997 7996 7995 ] final    3.53 input   59.86 | X-H torsion
[ 10167 10162 10161 10158 ] final  -15.91 input  -65.29 | X-H torsion
[ 10718 10713 10712 10709 ] final -122.94 input   66.30 | X-H torsion
[ 10763 10752 10751 10750 ] final  -70.80 input  -60.55 | X-H torsion
[ 11005 11000 10999 10996 ] final  -80.96 input  -57.11 | X-H torsion

> <Gold.Protein.ActiveResidues>
 VAL166  LYS551  ARG553  GLY616  TRP617  ASP618  TYR619  PRO620  LYS621  CYS622 
 ASP623  PHE694  ASN695  SER759  ASP760  ASP761  ALA762  ILE779  LEU786  VAL792 
 PHE793  MET794  SER795  GLU796  ALA797  LYS798  CYS799  TRP800  GLU811  SER814 

> <Gold.Protein.RotatedAtoms>
  152.2492  133.5200  159.5314 H   0  0  0  0  0  0  0  0  0  0  0  0  # atno 6907 bound_to 6896
  150.7088  134.0983  159.3965 H   0  0  0  0  0  0  0  0  0  0  0  0  # atno 6908 bound_to 6896
  151.8903  135.0419  160.0548 H   0  0  0  0  0  0  0  0  0  0  0  0  # atno 6909 bound_to 6896
  145.0646  140.8315  143.4132 H   0  0  0  0  0  0  0  0  0  0  0  0  # atno 7974 bound_to 7965
  154.7048  140.2680  155.6685 H   0  0  0  0  0  0  0  0  0  0  0  0  # atno 8008 bound_to 7997
  156.2777  140.2765  156.1595 H   0  0  0  0  0  0  0  0  0  0  0  0  # atno 8009 bound_to 7997
  155.0715  140.0372  157.2600 H   0  0  0  0  0  0  0  0  0  0  0  0  # atno 8010 bound_to 7997
  140.7226  143.5170  150.9680 H   0  0  0  0  0  0  0  0  0  0  0  0  # atno 10167 bound_to 10162
  156.1460  130.6500  150.9843 H   0  0  0  0  0  0  0  0  0  0  0  0  # atno 10718 bound_to 10713
  154.4228  135.5982  153.6020 H   0  0  0  0  0  0  0  0  0  0  0  0  # atno 10763 bound_to 10752
  152.9794  135.5956  154.3934 H   0  0  0  0  0  0  0  0  0  0  0  0  # atno 10764 bound_to 10752
  154.3762  135.2841  155.2216 H   0  0  0  0  0  0  0  0  0  0  0  0  # atno 10765 bound_to 10752
  141.1667  133.7174  156.8352 H   0  0  0  0  0  0  0  0  0  0  0  0  # atno 11005 bound_to 11000
  145.1367  139.2598  143.5511 LP  0  0  0  0  0  0  0  0  0  0  0  0  # atno 17320 bound_to 7965
  146.3526  140.1033  142.8607 LP  0  0  0  0  0  0  0  0  0  0  0  0  # atno 17321 bound_to 7965
  139.8886  143.6982  152.3148 LP  0  0  0  0  0  0  0  0  0  0  0  0  # atno 17342 bound_to 10162
  139.7289  144.7586  151.0833 LP  0  0  0  0  0  0  0  0  0  0  0  0  # atno 17343 bound_to 10162
  157.6617  131.0879  150.7823 LP  0  0  0  0  0  0  0  0  0  0  0  0  # atno 17370 bound_to 10713
  156.7895  130.4885  149.5387 LP  0  0  0  0  0  0  0  0  0  0  0  0  # atno 17371 bound_to 10713
  140.2023  134.8888  157.3182 LP  0  0  0  0  0  0  0  0  0  0  0  0  # atno 17394 bound_to 11000
  140.2175  134.4064  155.7582 LP  0  0  0  0  0  0  0  0  0  0  0  0  # atno 17395 bound_to 11000

$$$$
