AV-unprocessed.smi:169|AV-procd|sdf|1405|dock4
  -GOLD-   2262019153D 1   1.00000     0.00000
 Structure written by MMmdl.
 56 60  0  0  0  0  0  0  0  0  2 V2000
  152.9534  143.9485  158.1999 C   0  0  0  0  0  0  0  0  0  0  0  0
  151.4187  143.8752  158.1090 C   0  0  0  0  0  0  0  0  0  0  0  0
  150.9080  142.5921  157.5584 N   0  3  1  0  0  0  0  0  0  0  0  0
  151.8587  141.4630  157.7207 C   0  0  0  0  0  0  0  0  0  0  0  0
  151.8597  140.5051  156.5127 C   0  0  0  0  0  0  0  0  0  0  0  0
  150.4763  140.0484  155.9967 C   0  0  2  0  0  0  0  0  0  0  0  0
  149.8512  141.0217  154.9751 C   0  0  0  0  0  0  0  0  0  0  0  0
  148.6456  141.6452  155.6860 C   0  0  0  0  0  0  0  0  0  0  0  0
  148.7984  141.2172  157.1490 C   0  0  2  0  0  0  0  0  0  0  0  0
  149.5267  142.2710  158.0144 C   0  0  0  0  0  0  0  0  0  0  0  0
  149.5057  139.9413  157.0860 N   0  0  0  0  0  0  0  0  0  0  0  0
  148.7188  138.8408  157.2092 C   0  0  0  0  0  0  0  0  0  0  0  0
  147.7083  138.6054  156.3307 N   0  0  0  0  0  0  0  0  0  0  0  0
  146.9338  137.5251  156.4671 C   0  0  0  0  0  0  0  0  0  0  0  0
  146.9922  136.5692  157.3960 N   0  0  0  0  0  0  0  0  0  0  0  0
  148.0012  136.8005  158.2831 C   0  0  0  0  0  0  0  0  0  0  0  0
  148.9046  137.9000  158.2598 C   0  0  0  0  0  0  0  0  0  0  0  0
  149.8071  137.7968  159.3114 N   0  0  0  0  0  0  0  0  0  0  0  0
  149.4548  136.6994  159.9239 C   0  0  0  0  0  0  0  0  0  0  0  0
  148.3713  136.0441  159.3815 N   0  0  0  0  0  0  0  0  0  0  0  0
  147.7722  134.8102  159.8675 C   0  0  0  0  0  0  0  0  0  0  0  0
  147.1306  134.9276  161.2661 C   0  0  0  0  0  0  0  0  0  0  0  0
  145.9074  135.8611  161.2338 C   0  0  0  0  0  0  0  0  0  0  0  0
  146.2677  137.1774  160.8657 O   0  0  0  0  0  0  0  0  0  0  0  0
  146.8936  133.6053  162.0102 C   0  0  0  0  0  0  0  0  0  0  0  0
  147.5478  134.0943  163.1996 O   0  0  0  0  0  0  0  0  0  0  0  0
  148.1016  135.1808  162.4276 C   0  0  0  0  0  0  0  0  0  0  0  0
  153.2654  144.9197  158.5843 H   0  0  0  0  0  0  0  0  0  0  0  0
  153.4241  143.8185  157.2254 H   0  0  0  0  0  0  0  0  0  0  0  0
  153.3564  143.1913  158.8723 H   0  0  0  0  0  0  0  0  0  0  0  0
  150.9862  144.0340  159.0976 H   0  0  0  0  0  0  0  0  0  0  0  0
  151.0501  144.6943  157.4902 H   0  0  0  0  0  0  0  0  0  0  0  0
  152.8754  141.8410  157.8391 H   0  0  0  0  0  0  0  0  0  0  0  0
  151.6370  140.9210  158.6417 H   0  0  0  0  0  0  0  0  0  0  0  0
  152.4302  140.9419  155.6921 H   0  0  0  0  0  0  0  0  0  0  0  0
  152.4231  139.6186  156.8067 H   0  0  0  0  0  0  0  0  0  0  0  0
  150.6366  139.0931  155.4963 H   0  0  0  0  0  0  0  0  0  0  0  0
  150.5573  141.7880  154.6540 H   0  0  0  0  0  0  0  0  0  0  0  0
  149.5258  140.4895  154.0804 H   0  0  0  0  0  0  0  0  0  0  0  0
  148.5894  142.7267  155.5582 H   0  0  0  0  0  0  0  0  0  0  0  0
  147.7277  141.2202  155.2773 H   0  0  0  0  0  0  0  0  0  0  0  0
  147.7996  141.0887  157.5689 H   0  0  0  0  0  0  0  0  0  0  0  0
  149.5499  141.9341  159.0515 H   0  0  0  0  0  0  0  0  0  0  0  0
  148.9295  143.1838  158.0075 H   0  0  0  0  0  0  0  0  0  0  0  0
  146.1555  137.4100  155.7269 H   0  0  0  0  0  0  0  0  0  0  0  0
  149.9733  136.3386  160.8005 H   0  0  0  0  0  0  0  0  0  0  0  0
  147.0327  134.4881  159.1332 H   0  0  0  0  0  0  0  0  0  0  0  0
  148.5398  134.0354  159.8645 H   0  0  0  0  0  0  0  0  0  0  0  0
  145.1384  135.4953  160.5533 H   0  0  0  0  0  0  0  0  0  0  0  0
  145.4381  135.9087  162.2171 H   0  0  0  0  0  0  0  0  0  0  0  0
  145.5509  137.5605  160.3831 H   0  0  0  0  0  0  0  0  0  0  0  0
  145.8417  133.3676  162.1727 H   0  0  0  0  0  0  0  0  0  0  0  0
  147.4246  132.7509  161.5889 H   0  0  0  0  0  0  0  0  0  0  0  0
  149.1491  135.0060  162.1759 H   0  0  0  0  0  0  0  0  0  0  0  0
  147.9748  136.1490  162.9131 H   0  0  0  0  0  0  0  0  0  0  0  0
  150.8403  142.7519  156.5633 H   0  0  0  0  0  0  0  0  0  0  0  0
  1  2  1  0  0  0  0
  1 28  1  0  0  0  0
  1 29  1  0  0  0  0
  1 30  1  0  0  0  0
  2  3  1  0  0  0  0
  2 31  1  0  0  0  0
  2 32  1  0  0  0  0
  3 10  1  0  0  0  0
  3  4  1  0  0  0  0
  3 56  1  0  0  0  0
  4  5  1  0  0  0  0
  4 33  1  0  0  0  0
  4 34  1  0  0  0  0
  5  6  1  0  0  0  0
  5 35  1  0  0  0  0
  5 36  1  0  0  0  0
  6 11  1  0  0  0  0
  6  7  1  0  0  0  0
  6 37  1  0  0  0  0
  7  8  1  0  0  0  0
  7 38  1  0  0  0  0
  7 39  1  0  0  0  0
  8  9  1  0  0  0  0
  8 40  1  0  0  0  0
  8 41  1  0  0  0  0
  9 10  1  0  0  0  0
  9 11  1  0  0  0  0
  9 42  1  0  0  0  0
 10 43  1  0  0  0  0
 10 44  1  0  0  0  0
 11 12  1  0  0  0  0
 12 17  1  0  0  0  0
 12 13  2  0  0  0  0
 13 14  1  0  0  0  0
 14 15  2  0  0  0  0
 14 45  1  0  0  0  0
 15 16  1  0  0  0  0
 16 20  1  0  0  0  0
 16 17  2  0  0  0  0
 17 18  1  0  0  0  0
 18 19  2  0  0  0  0
 19 20  1  0  0  0  0
 19 46  1  0  0  0  0
 20 21  1  0  0  0  0
 21 22  1  0  0  0  0
 21 47  1  0  0  0  0
 21 48  1  0  0  0  0
 22 27  1  0  0  0  0
 22 23  1  0  0  0  0
 22 25  1  0  0  0  0
 23 24  1  0  0  0  0
 23 49  1  0  0  0  0
 23 50  1  0  0  0  0
 24 51  1  0  0  0  0
 25 26  1  0  0  0  0
 25 52  1  0  0  0  0
 25 53  1  0  0  0  0
 26 27  1  0  0  0  0
 27 54  1  0  0  0  0
 27 55  1  0  0  0  0
M  CHG  1   3   1
M  END
> <s_m_source_file>
AV-unprocessed.smi

> <i_m_source_file_index>
169

> <i_lp_mmshare_version>
43012

> <i_f3d_flags>
0

> <s_epik_input>
W0NASF0xMltDSDJdW0NIMl1OKFtDSDJdW0NIM10pW0NIMl1bQ0BIXShbQ0gyXVtDSDJdMSlOMmMobltjSF1uMyljKGMzNCluW2NIXW40W0NIMl1DNShbQ0gyXVtPSF0pW0NIMl1PW0NIMl01

> <s_epik_cmdline>
J2VwaWtfcHl0aG9uJywgJy1waCcsICc3LjAnLCAnLXRuJywgJzgnLCAnLW1hJywgJzIwMCcsICctbWV0YWxfYmluZGluZycsICctaW1hZScsICc8aW5maWxlLm1hZT4nLCAnLW9tYWUnLCAnPG91dGZpbGUubWFlPic=

> <r_lp_tautomer_probability>
1

> <r_epik_Ionization_Penalty>
0.00274162

> <r_epik_Ionization_Penalty_Charging>
0.00243722

> <r_epik_Ionization_Penalty_Neutral>
0.000304399

> <r_epik_State_Penalty>
-0

> <r_epik_Charging_Adjusted_Penalty>
0.00243722

> <i_epik_Tot_Q>
1

> <i_epik_Tot_abs_Q>
1

> <r_epik_Metal_State_Penalty>
-0

> <b_epik_Metal_Only>
0

> <s_lp_Force_Field>
OPLS_2005

> <r_lp_Energy>
77.4951

> <b_lp_Chiralities_Consistent>
1

> <s_lp_Variant>
AV-unprocessed.smi:169-8

> <Gold.Version>
5.8.1

> <Gold.Id.Protein>
6NUR|6NUR_protein|mol2

> <Gold.PLP.Fitness>
40.2604

> <Gold.PLP.PLP>
-38.1597

> <Gold.PLP.part.hbond>
-3.3309

> <Gold.PLP.part.metal>
0.0000

> <Gold.PLP.part.buried>
-1.3966

> <Gold.PLP.part.nonpolar>
-31.9129

> <Gold.PLP.part.repulsive>
0.0338

> <Gold.PLP.ligand.clash>
0.0000

> <Gold.PLP.ligand.torsion>
0.7216

> <Gold.PLP.Chemscore.Hbond>
1.0000

> <Gold.PLP.Chemscore.CHOScore>
0.0000

> <Gold.PLP.Chemscore.Metal>
0.0000

> <Gold.Chemscore.Hbonds>
donor molecule, donor type, donor heavy atom, donor atom, acceptor molecule, acceptor atom, score
      P1  H  6934  6947       L1    24  0.42

> <Gold.PLP.Chemscore.Internal.Correction>
0.5438

> <Gold.Rescore>
     Score         DG    S(hbond)    S(metal)    S(lipo)     H(rot)  DE(clash)    DE(int)     intcor
      7.78      -9.99       0.00        0.00      95.91       2.62       0.14       2.07       ----

> <Gold.Chemscore.Fitness>
7.7836

> <Gold.Chemscore.DG>
-9.9916

> <Gold.Chemscore.ZeroCoef>
-5.4800

> <Gold.Chemscore.Hbond>
0.0000

> <Gold.Chemscore.Metal>
0.0000

> <Gold.Chemscore.Lipo>
95.9126

> <Gold.Chemscore.Internal_Hbond>
0.0000

> <Gold.Chemscore.DEClash>
0.1428

> <Gold.Chemscore.DEInternal>
2.0652

> <Gold.Chemscore.Rot>
2.6212

> <Gold.Chemscore.Internal.Correction>
   9.000000E+99

> <Gold.Chemscore.Hbonds>
donor molecule, donor type, donor heavy atom, donor atom, acceptor molecule, acceptor atom, score
      P1  H  6934  6947       L1    24  0.01

> <Gold.Chemscore.Hbond.Weighted>
-0.0000

> <Gold.Chemscore.Metal.Weighted>
-0.0000

> <Gold.Chemscore.Lipo.Weighted>
-11.2218

> <Gold.Chemscore.Internal_Hbond.Weighted>
0.0000

> <Gold.Chemscore.DEClash.Weighted>
0.1428

> <Gold.Chemscore.DEInternal.Weighted>
2.0652

> <Gold.Chemscore.Rot.Weighted>
6.7102

> <Gold.Chemscore.Internal.Correction.Weighted>
   9.000000E+99

> <Gold.Protein.RotatedTorsions>
[ 6907 6896 6895 6894 ] final -152.32 input  -60.11 | X-H torsion
[ 7974 7965 7964 7962 ] final   17.35 input  175.53 | X-H torsion
[ 8008 7997 7996 7995 ] final   -8.06 input   59.86 | X-H torsion
[ 10167 10162 10161 10158 ] final -166.48 input  -65.29 | X-H torsion
[ 10718 10713 10712 10709 ] final  -76.15 input   66.30 | X-H torsion
[ 10763 10752 10751 10750 ] final -103.48 input  -60.55 | X-H torsion
[ 11005 11000 10999 10996 ] final -176.43 input  -57.11 | X-H torsion

> <Gold.Protein.ActiveResidues>
 VAL166  LYS551  ARG553  GLY616  TRP617  ASP618  TYR619  PRO620  LYS621  CYS622 
 ASP623  PHE694  ASN695  SER759  ASP760  ASP761  ALA762  ILE779  LEU786  VAL792 
 PHE793  MET794  SER795  GLU796  ALA797  LYS798  CYS799  TRP800  GLU811  SER814 

> <Gold.Protein.RotatedAtoms>
  151.2260  133.4476  159.2601 H   0  0  0  0  0  0  0  0  0  0  0  0  # atno 6907 bound_to 6896
  151.0839  134.9875  159.8380 H   0  0  0  0  0  0  0  0  0  0  0  0  # atno 6908 bound_to 6896
  152.5427  134.2198  159.8836 H   0  0  0  0  0  0  0  0  0  0  0  0  # atno 6909 bound_to 6896
  146.2221  139.8614  142.8604 H   0  0  0  0  0  0  0  0  0  0  0  0  # atno 7974 bound_to 7965
  154.5777  140.2391  155.8098 H   0  0  0  0  0  0  0  0  0  0  0  0  # atno 8008 bound_to 7997
  156.2156  140.3013  155.9788 H   0  0  0  0  0  0  0  0  0  0  0  0  # atno 8009 bound_to 7997
  155.2597  140.0414  157.2986 H   0  0  0  0  0  0  0  0  0  0  0  0  # atno 8010 bound_to 7997
  139.6112  144.0810  152.1844 H   0  0  0  0  0  0  0  0  0  0  0  0  # atno 10167 bound_to 10162
  156.0184  130.4458  150.3151 H   0  0  0  0  0  0  0  0  0  0  0  0  # atno 10718 bound_to 10713
  154.7811  135.4821  153.9845 H   0  0  0  0  0  0  0  0  0  0  0  0  # atno 10763 bound_to 10752
  153.1494  135.6788  153.8912 H   0  0  0  0  0  0  0  0  0  0  0  0  # atno 10764 bound_to 10752
  153.8561  135.3161  155.3413 H   0  0  0  0  0  0  0  0  0  0  0  0  # atno 10765 bound_to 10752
  140.4521  134.6333  157.4806 H   0  0  0  0  0  0  0  0  0  0  0  0  # atno 11005 bound_to 11000
  145.2700  141.0105  143.3777 LP  0  0  0  0  0  0  0  0  0  0  0  0  # atno 17320 bound_to 7965
  144.9231  139.4388  143.6531 LP  0  0  0  0  0  0  0  0  0  0  0  0  # atno 17321 bound_to 7965
  140.0430  144.5993  150.7396 LP  0  0  0  0  0  0  0  0  0  0  0  0  # atno 17342 bound_to 10162
  140.7320  143.2701  151.3916 LP  0  0  0  0  0  0  0  0  0  0  0  0  # atno 17343 bound_to 10162
  157.1252  131.0257  151.2992 LP  0  0  0  0  0  0  0  0  0  0  0  0  # atno 17370 bound_to 10713
  157.4596  130.7645  149.7223 LP  0  0  0  0  0  0  0  0  0  0  0  0  # atno 17371 bound_to 10713
  140.0000  134.6852  155.9546 LP  0  0  0  0  0  0  0  0  0  0  0  0  # atno 17394 bound_to 11000
  141.1659  133.6537  156.4479 LP  0  0  0  0  0  0  0  0  0  0  0  0  # atno 17395 bound_to 11000

$$$$
