AV-unprocessed.smi:3278|AV-procd|sdf|12541|dock4
  -GOLD-   2272018453D 1   1.00000     0.00000
 Structure written by MMmdl.
 39 40  0  0  0  0  0  0  0  0  2 V2000
  154.5563  139.4175  154.8603 C   0  0  0  0  0  0  0  0  0  0  0  0
  153.1411  139.7078  154.7742 N   0  0  0  0  0  0  0  0  0  0  0  0
  152.3732  140.5020  155.5976 C   0  0  0  0  0  0  0  0  0  0  0  0
  151.0897  140.4727  155.1243 C   0  0  0  0  0  0  0  0  0  0  0  0
  149.8672  141.1843  155.6650 C   0  0  2  0  0  0  0  0  0  0  0  0
  148.7434  140.1709  155.9437 C   0  0  0  0  0  0  0  0  0  0  0  0
  149.3348  142.1034  154.7290 O   0  0  0  0  0  0  0  0  0  0  0  0
  150.2084  141.9791  156.9440 C   0  0  0  0  0  0  0  0  0  0  0  0
  150.8630  143.2698  156.6301 N   0  3  0  0  0  0  0  0  0  0  0  0
  151.3592  144.0341  157.7953 C   0  0  2  0  0  0  0  0  0  0  0  0
  152.5268  143.2960  158.4875 C   0  0  0  0  0  0  0  0  0  0  0  0
  153.1064  144.0783  159.6778 C   0  0  0  0  0  0  0  0  0  0  0  0
  152.0676  144.3273  160.7791 C   0  0  0  0  0  0  0  0  0  0  0  0
  150.6925  145.3324  160.1601 S   0  0  0  0  0  0  0  0  0  0  0  0
  150.1944  144.2766  158.7723 C   0  0  0  0  0  0  0  0  0  0  0  0
  151.1845  139.6130  153.9898 C   0  0  0  0  0  0  0  0  0  0  0  0
  152.4104  139.1632  153.7814 N   0  0  0  0  0  0  0  0  0  0  0  0
  154.9977  139.9522  155.7018 H   0  0  0  0  0  0  0  0  0  0  0  0
  155.0543  139.7294  153.9417 H   0  0  0  0  0  0  0  0  0  0  0  0
  154.7052  138.3466  155.0031 H   0  0  0  0  0  0  0  0  0  0  0  0
  152.7989  141.0186  156.4454 H   0  0  0  0  0  0  0  0  0  0  0  0
  149.0470  139.4325  156.6867 H   0  0  0  0  0  0  0  0  0  0  0  0
  148.4646  139.6292  155.0388 H   0  0  0  0  0  0  0  0  0  0  0  0
  147.8464  140.6620  156.3227 H   0  0  0  0  0  0  0  0  0  0  0  0
  149.1257  142.9083  155.1786 H   0  0  0  0  0  0  0  0  0  0  0  0
  149.3046  142.1500  157.5292 H   0  0  0  0  0  0  0  0  0  0  0  0
  150.8820  141.3933  157.5712 H   0  0  0  0  0  0  0  0  0  0  0  0
  151.6555  143.0608  156.0396 H   0  0  0  0  0  0  0  0  0  0  0  0
  151.7066  145.0054  157.4388 H   0  0  0  0  0  0  0  0  0  0  0  0
  152.1949  142.3132  158.8256 H   0  0  0  0  0  0  0  0  0  0  0  0
  153.3332  143.1155  157.7773 H   0  0  0  0  0  0  0  0  0  0  0  0
  153.9465  143.5234  160.0969 H   0  0  0  0  0  0  0  0  0  0  0  0
  153.5127  145.0299  159.3326 H   0  0  0  0  0  0  0  0  0  0  0  0
  151.6767  143.3815  161.1565 H   0  0  0  0  0  0  0  0  0  0  0  0
  152.5270  144.8430  161.6226 H   0  0  0  0  0  0  0  0  0  0  0  0
  149.3630  144.7623  158.2602 H   0  0  0  0  0  0  0  0  0  0  0  0
  149.8179  143.3313  159.1653 H   0  0  0  0  0  0  0  0  0  0  0  0
  150.4019  139.3084  153.3102 H   0  0  0  0  0  0  0  0  0  0  0  0
  150.2219  143.8471  156.1046 H   0  0  0  0  0  0  0  0  0  0  0  0
  1  2  1  0  0  0  0
  1 18  1  0  0  0  0
  1 19  1  0  0  0  0
  1 20  1  0  0  0  0
  2 17  1  0  0  0  0
  2  3  1  0  0  0  0
  3  4  2  0  0  0  0
  3 21  1  0  0  0  0
  4  5  1  0  0  0  0
  4 16  1  0  0  0  0
  5  6  1  0  0  0  0
  5  7  1  0  0  0  0
  5  8  1  0  0  0  0
  6 22  1  0  0  0  0
  6 23  1  0  0  0  0
  6 24  1  0  0  0  0
  7 25  1  0  0  0  0
  8  9  1  0  0  0  0
  8 26  1  0  0  0  0
  8 27  1  0  0  0  0
  9 10  1  0  0  0  0
  9 28  1  0  0  0  0
  9 39  1  0  0  0  0
 10 15  1  0  0  0  0
 10 11  1  0  0  0  0
 10 29  1  0  0  0  0
 11 12  1  0  0  0  0
 11 30  1  0  0  0  0
 11 31  1  0  0  0  0
 12 13  1  0  0  0  0
 12 32  1  0  0  0  0
 12 33  1  0  0  0  0
 13 14  1  0  0  0  0
 13 34  1  0  0  0  0
 13 35  1  0  0  0  0
 14 15  1  0  0  0  0
 15 36  1  0  0  0  0
 15 37  1  0  0  0  0
 16 17  2  0  0  0  0
 16 38  1  0  0  0  0
M  CHG  1   9   1
M  END
> <s_m_source_file>
AV-unprocessed.smi

> <i_m_source_file_index>
3278

> <i_lp_mmshare_version>
43012

> <i_f3d_flags>
0

> <s_epik_input>
W0NIM11uMVtjSF1jKFtjSF1uMSlbQ0BAXShbQ0gzXSkoW09IXSlbQ0gyXVtOSF1bQ0BASF0yW0NIMl1bQ0gyXVtDSDJdU1tDSDJdMg==

> <s_epik_cmdline>
J2VwaWtfcHl0aG9uJywgJy1waCcsICc3LjAnLCAnLXRuJywgJzgnLCAnLW1hJywgJzIwMCcsICctbWV0YWxfYmluZGluZycsICctaW1hZScsICc8aW5maWxlLm1hZT4nLCAnLW9tYWUnLCAnPG91dGZpbGUubWFlPic=

> <r_lp_tautomer_probability>
1

> <r_epik_Ionization_Penalty>
0.0185703

> <r_epik_Ionization_Penalty_Charging>
0.0185619

> <r_epik_Ionization_Penalty_Neutral>
8.47286e-06

> <r_epik_State_Penalty>
0.0147768

> <r_epik_Charging_Adjusted_Penalty>
0.0333386

> <i_epik_Tot_Q>
1

> <i_epik_Tot_abs_Q>
1

> <r_epik_Metal_State_Penalty>
0.0147782

> <b_epik_Metal_Only>
0

> <s_lp_Force_Field>
OPLS_2005

> <r_lp_Energy>
8.69531

> <b_lp_Chiralities_Consistent>
1

> <s_lp_Variant>
AV-unprocessed.smi:3278-2

> <Gold.Version>
5.8.1

> <Gold.Id.Protein>
6NUR|6NUR_protein|mol2

> <Gold.PLP.Fitness>
49.4760

> <Gold.PLP.PLP>
-38.9337

> <Gold.PLP.part.hbond>
-3.0000

> <Gold.PLP.part.metal>
0.0000

> <Gold.PLP.part.buried>
-0.5610

> <Gold.PLP.part.nonpolar>
-35.1694

> <Gold.PLP.part.repulsive>
0.2471

> <Gold.PLP.ligand.clash>
0.0000

> <Gold.PLP.ligand.torsion>
0.3306

> <Gold.PLP.Chemscore.Hbond>
2.8880

> <Gold.PLP.Chemscore.CHOScore>
0.8383

> <Gold.PLP.Chemscore.Metal>
0.0000

> <Gold.Chemscore.Hbonds>
donor molecule, donor type, donor heavy atom, donor atom, acceptor molecule, acceptor atom, score
      L1  H     7    25       P1  8028  1.00
      L1  H     9    39       P1  8028  2.00
      L1  C    16    38       P1  7957  1.00

> <Gold.PLP.Chemscore.Internal.Correction>
0.0248

> <Gold.Rescore>
     Score         DG    S(hbond)    S(metal)    S(lipo)     H(rot)  DE(clash)    DE(int)     intcor
     18.52     -19.39       1.98        0.00     106.09       2.00       0.13       0.74       ----

> <Gold.Chemscore.Fitness>
18.5240

> <Gold.Chemscore.DG>
-19.3898

> <Gold.Chemscore.ZeroCoef>
-5.4800

> <Gold.Chemscore.Hbond>
1.9839

> <Gold.Chemscore.Metal>
0.0000

> <Gold.Chemscore.Lipo>
106.0944

> <Gold.Chemscore.Internal_Hbond>
0.0000

> <Gold.Chemscore.DEClash>
0.1302

> <Gold.Chemscore.DEInternal>
0.7356

> <Gold.Chemscore.Rot>
2.0038

> <Gold.Chemscore.Internal.Correction>
   9.000000E+99

> <Gold.Chemscore.Hbonds>
donor molecule, donor type, donor heavy atom, donor atom, acceptor molecule, acceptor atom, score
      L1  H     7    25       P1  8028  1.00
      L1  H     9    39       P1  8028  1.00
      P1  H  8011  8017       L1     7  0.01

> <Gold.Chemscore.Hbond.Weighted>
-6.6264

> <Gold.Chemscore.Metal.Weighted>
-0.0000

> <Gold.Chemscore.Lipo.Weighted>
-12.4130

> <Gold.Chemscore.Internal_Hbond.Weighted>
0.0000

> <Gold.Chemscore.DEClash.Weighted>
0.1302

> <Gold.Chemscore.DEInternal.Weighted>
0.7356

> <Gold.Chemscore.Rot.Weighted>
5.1296

> <Gold.Chemscore.Internal.Correction.Weighted>
   9.000000E+99

> <Gold.Protein.RotatedTorsions>
[ 6907 6896 6895 6894 ] final -100.01 input  -60.11 | X-H torsion
[ 7974 7965 7964 7962 ] final  117.20 input  175.53 | X-H torsion
[ 8008 7997 7996 7995 ] final    7.63 input   59.86 | X-H torsion
[ 10167 10162 10161 10158 ] final  146.84 input  -65.29 | X-H torsion
[ 10718 10713 10712 10709 ] final  121.72 input   66.30 | X-H torsion
[ 10763 10752 10751 10750 ] final  -25.37 input  -60.55 | X-H torsion
[ 11005 11000 10999 10996 ] final  -42.31 input  -57.11 | X-H torsion

> <Gold.Protein.ActiveResidues>
 VAL166  LYS551  ARG553  GLY616  TRP617  ASP618  TYR619  PRO620  LYS621  CYS622 
 ASP623  PHE694  ASN695  SER759  ASP760  ASP761  ALA762  ILE779  LEU786  VAL792 
 PHE793  MET794  SER795  GLU796  ALA797  LYS798  CYS799  TRP800  GLU811  SER814 

> <Gold.Protein.RotatedAtoms>
  150.7100  134.0952  159.3945 H   0  0  0  0  0  0  0  0  0  0  0  0  # atno 6907 bound_to 6896
  151.8938  135.0403  160.0509 H   0  0  0  0  0  0  0  0  0  0  0  0  # atno 6908 bound_to 6896
  152.2470  133.5147  159.5339 H   0  0  0  0  0  0  0  0  0  0  0  0  # atno 6909 bound_to 6896
  145.1702  139.3106  143.4471 H   0  0  0  0  0  0  0  0  0  0  0  0  # atno 7974 bound_to 7965
  154.7563  140.2776  155.6250 H   0  0  0  0  0  0  0  0  0  0  0  0  # atno 8008 bound_to 7997
  156.2906  140.2668  156.2257 H   0  0  0  0  0  0  0  0  0  0  0  0  # atno 8009 bound_to 7997
  155.0073  140.0372  157.2374 H   0  0  0  0  0  0  0  0  0  0  0  0  # atno 8010 bound_to 7997
  139.4900  144.5800  151.6890 H   0  0  0  0  0  0  0  0  0  0  0  0  # atno 10167 bound_to 10162
  157.5797  131.1076  150.8212 H   0  0  0  0  0  0  0  0  0  0  0  0  # atno 10718 bound_to 10713
  153.6987  135.6957  153.5069 H   0  0  0  0  0  0  0  0  0  0  0  0  # atno 10763 bound_to 10752
  153.2358  135.4322  155.0644 H   0  0  0  0  0  0  0  0  0  0  0  0  # atno 10764 bound_to 10752
  154.8351  135.3495  154.6527 H   0  0  0  0  0  0  0  0  0  0  0  0  # atno 10765 bound_to 10752
  141.0307  133.6821  156.2578 H   0  0  0  0  0  0  0  0  0  0  0  0  # atno 11005 bound_to 11000
  146.3469  140.1845  142.8589 LP  0  0  0  0  0  0  0  0  0  0  0  0  # atno 17320 bound_to 7965
  145.0240  140.8817  143.5149 LP  0  0  0  0  0  0  0  0  0  0  0  0  # atno 17321 bound_to 7965
  140.5404  144.0588  150.6086 LP  0  0  0  0  0  0  0  0  0  0  0  0  # atno 17342 bound_to 10162
  140.3608  143.2909  152.0385 LP  0  0  0  0  0  0  0  0  0  0  0  0  # atno 17343 bound_to 10162
  156.8661  130.5130  149.5300 LP  0  0  0  0  0  0  0  0  0  0  0  0  # atno 17370 bound_to 10713
  156.0842  130.5845  150.9618 LP  0  0  0  0  0  0  0  0  0  0  0  0  # atno 17371 bound_to 10713
  140.6412  134.5164  157.5569 LP  0  0  0  0  0  0  0  0  0  0  0  0  # atno 17394 bound_to 11000
  139.9206  134.8157  156.1224 LP  0  0  0  0  0  0  0  0  0  0  0  0  # atno 17395 bound_to 11000

$$$$
