AV-unprocessed.smi:3032|AV-procd|sdf|11565|dock6
  -GOLD-   2272016533D 1   1.00000     0.00000
 Structure written by MMmdl.
 37 38  0  0  0  0  0  0  0  0  1 V2000
  151.6441  145.7432  160.3816 C   0  0  0  0  0  0  0  0  0  0  0  0
  151.8222  144.2242  160.2510 C   0  0  2  0  0  0  0  0  0  0  0  0
  152.4283  143.6164  161.5294 C   0  0  0  0  0  0  0  0  0  0  0  0
  152.5879  142.0931  161.4109 C   0  0  0  0  0  0  0  0  0  0  0  0
  153.4056  141.6995  160.1641 C   0  0  0  0  0  0  0  0  0  0  0  0
  152.8900  142.3414  158.8525 C   0  0  1  0  0  0  0  0  0  0  0  0
  151.6263  141.6710  158.2823 C   0  0  0  0  0  0  0  0  0  0  0  0
  151.0567  140.7613  158.8847 O   0  0  0  0  0  0  0  0  0  0  0  0
  151.1920  142.1468  157.1054 N   0  0  0  0  0  0  0  0  0  0  0  0
  149.9773  141.7191  156.4171 C   0  0  0  0  0  0  0  0  0  0  0  0
  150.2194  141.3138  154.9477 C   0  0  0  0  0  0  0  0  0  0  0  0
  150.8780  139.9796  154.7845 C   0  0  0  0  0  0  0  0  0  0  0  0
  151.5043  139.3112  155.7603 N   0  0  0  0  0  0  0  0  0  0  0  0
  151.9772  138.1490  155.1709 N   0  0  0  0  0  0  0  0  0  0  0  0
  151.5877  138.2285  153.8975 C   0  0  0  0  0  0  0  0  0  0  0  0
  150.9031  139.3398  153.6049 N   0  0  0  0  0  0  0  0  0  0  0  0
  152.6954  143.8644  159.0316 C   0  0  0  0  0  0  0  0  0  0  0  0
  150.5114  139.6279  152.7200 H   0  0  0  0  0  0  0  0  0  0  0  0
  152.6010  146.2433  160.5341 H   0  0  0  0  0  0  0  0  0  0  0  0
  151.0002  145.9913  161.2257 H   0  0  0  0  0  0  0  0  0  0  0  0
  151.1877  146.1636  159.4853 H   0  0  0  0  0  0  0  0  0  0  0  0
  150.8302  143.7943  160.1071 H   0  0  0  0  0  0  0  0  0  0  0  0
  153.4013  144.0686  161.7266 H   0  0  0  0  0  0  0  0  0  0  0  0
  151.7998  143.8504  162.3892 H   0  0  0  0  0  0  0  0  0  0  0  0
  153.0766  141.7049  162.3048 H   0  0  0  0  0  0  0  0  0  0  0  0
  151.6039  141.6267  161.3854 H   0  0  0  0  0  0  0  0  0  0  0  0
  154.4410  142.0074  160.3163 H   0  0  0  0  0  0  0  0  0  0  0  0
  153.4322  140.6130  160.0700 H   0  0  0  0  0  0  0  0  0  0  0  0
  153.6697  142.1956  158.1030 H   0  0  0  0  0  0  0  0  0  0  0  0
  151.7205  142.8906  156.6724 H   0  0  0  0  0  0  0  0  0  0  0  0
  149.5886  140.8602  156.9644 H   0  0  0  0  0  0  0  0  0  0  0  0
  149.2140  142.4956  156.4795 H   0  0  0  0  0  0  0  0  0  0  0  0
  149.2710  141.3026  154.4098 H   0  0  0  0  0  0  0  0  0  0  0  0
  150.8353  142.0673  154.4548 H   0  0  0  0  0  0  0  0  0  0  0  0
  151.8068  137.4639  153.1668 H   0  0  0  0  0  0  0  0  0  0  0  0
  152.2623  144.2952  158.1273 H   0  0  0  0  0  0  0  0  0  0  0  0
  153.6740  144.3339  159.1396 H   0  0  0  0  0  0  0  0  0  0  0  0
  1  2  1  0  0  0  0
  1 19  1  0  0  0  0
  1 20  1  0  0  0  0
  1 21  1  0  0  0  0
  2 17  1  0  0  0  0
  2  3  1  0  0  0  0
  2 22  1  0  0  0  0
  3  4  1  0  0  0  0
  3 23  1  0  0  0  0
  3 24  1  0  0  0  0
  4  5  1  0  0  0  0
  4 25  1  0  0  0  0
  4 26  1  0  0  0  0
  5  6  1  0  0  0  0
  5 27  1  0  0  0  0
  5 28  1  0  0  0  0
  6  7  1  0  0  0  0
  6 17  1  0  0  0  0
  6 29  1  0  0  0  0
  7  8  2  0  0  0  0
  7  9  1  0  0  0  0
  9 10  1  0  0  0  0
  9 30  1  0  0  0  0
 10 11  1  0  0  0  0
 10 31  1  0  0  0  0
 10 32  1  0  0  0  0
 11 12  1  0  0  0  0
 11 33  1  0  0  0  0
 11 34  1  0  0  0  0
 12 16  1  0  0  0  0
 12 13  2  0  0  0  0
 13 14  1  0  0  0  0
 14 15  2  0  0  0  0
 15 16  1  0  0  0  0
 15 35  1  0  0  0  0
 16 18  1  0  0  0  0
 17 36  1  0  0  0  0
 17 37  1  0  0  0  0
M  END
> <s_m_source_file>
AV-unprocessed.smi

> <i_m_source_file_index>
3032

> <i_lp_mmshare_version>
43012

> <i_f3d_flags>
0

> <s_epik_input>
W0NIM11bQ0BASF0xW0NIMl1bQ0gyXVtDSDJdW0NASF0oW0NIMl0xKUMoPU8pW05IXVtDSDJdW0NIMl1jMm5uW2NIXVtuSF0y

> <s_epik_cmdline>
J2VwaWtfcHl0aG9uJywgJy1waCcsICc3LjAnLCAnLXRuJywgJzgnLCAnLW1hJywgJzIwMCcsICctbWV0YWxfYmluZGluZycsICctaW1hZScsICc8aW5maWxlLm1hZT4nLCAnLW9tYWUnLCAnPG91dGZpbGUubWFlPic=

> <r_lp_tautomer_probability>
0.0517155

> <r_epik_Ionization_Penalty>
0.00149837

> <r_epik_Ionization_Penalty_Charging>
0

> <r_epik_Ionization_Penalty_Neutral>
0.00149837

> <r_epik_State_Penalty>
2.1109

> <r_epik_Charging_Adjusted_Penalty>
2.1109

> <i_epik_Tot_Q>
0

> <i_epik_Tot_abs_Q>
0

> <r_epik_Metal_State_Penalty>
2.23635

> <b_epik_Metal_Only>
0

> <s_lp_Force_Field>
OPLS_2005

> <r_lp_Energy>
9.22736

> <b_lp_Chiralities_Consistent>
1

> <s_lp_Variant>
AV-unprocessed.smi:3032-9

> <Gold.Version>
5.8.1

> <Gold.Id.Protein>
6NUR|6NUR_protein|mol2

> <Gold.PLP.Fitness>
44.7607

> <Gold.PLP.PLP>
-39.2191

> <Gold.PLP.part.hbond>
-1.2745

> <Gold.PLP.part.metal>
0.0000

> <Gold.PLP.part.buried>
-2.7090

> <Gold.PLP.part.nonpolar>
-34.5915

> <Gold.PLP.part.repulsive>
0.1967

> <Gold.PLP.ligand.clash>
0.0000

> <Gold.PLP.ligand.torsion>
0.3016

> <Gold.PLP.Chemscore.Hbond>
1.0000

> <Gold.PLP.Chemscore.CHOScore>
1.0332

> <Gold.PLP.Chemscore.Metal>
0.0000

> <Gold.Chemscore.Hbonds>
donor molecule, donor type, donor heavy atom, donor atom, acceptor molecule, acceptor atom, score
      L1  H    16    18       P1  7957  1.00
      L1  C    15    35       P1  7949  1.00

> <Gold.PLP.Chemscore.Internal.Correction>
0.0451

> <Gold.Rescore>
     Score         DG    S(hbond)    S(metal)    S(lipo)     H(rot)  DE(clash)    DE(int)     intcor
     14.00     -14.23       0.99        0.00      95.76       2.25       0.04       0.19       ----

> <Gold.Chemscore.Fitness>
13.9970

> <Gold.Chemscore.DG>
-14.2268

> <Gold.Chemscore.ZeroCoef>
-5.4800

> <Gold.Chemscore.Hbond>
0.9889

> <Gold.Chemscore.Metal>
0.0000

> <Gold.Chemscore.Lipo>
95.7631

> <Gold.Chemscore.Internal_Hbond>
0.0000

> <Gold.Chemscore.DEClash>
0.0422

> <Gold.Chemscore.DEInternal>
0.1876

> <Gold.Chemscore.Rot>
2.2501

> <Gold.Chemscore.Internal.Correction>
   9.000000E+99

> <Gold.Chemscore.Hbonds>
donor molecule, donor type, donor heavy atom, donor atom, acceptor molecule, acceptor atom, score
      L1  H    16    18       P1  7957  0.74

> <Gold.Chemscore.Hbond.Weighted>
-3.3028

> <Gold.Chemscore.Metal.Weighted>
-0.0000

> <Gold.Chemscore.Lipo.Weighted>
-11.2043

> <Gold.Chemscore.Internal_Hbond.Weighted>
0.0000

> <Gold.Chemscore.DEClash.Weighted>
0.0422

> <Gold.Chemscore.DEInternal.Weighted>
0.1876

> <Gold.Chemscore.Rot.Weighted>
5.7603

> <Gold.Chemscore.Internal.Correction.Weighted>
   9.000000E+99

> <Gold.Protein.RotatedTorsions>
[ 6907 6896 6895 6894 ] final    6.92 input  -60.11 | X-H torsion
[ 7974 7965 7964 7962 ] final  -51.97 input  175.53 | X-H torsion
[ 8008 7997 7996 7995 ] final   20.97 input   59.86 | X-H torsion
[ 10167 10162 10161 10158 ] final  -32.85 input  -65.29 | X-H torsion
[ 10718 10713 10712 10709 ] final -108.27 input   66.30 | X-H torsion
[ 10763 10752 10751 10750 ] final  -66.82 input  -60.55 | X-H torsion
[ 11005 11000 10999 10996 ] final  158.09 input  -57.11 | X-H torsion

> <Gold.Protein.ActiveResidues>
 VAL166  LYS551  ARG553  GLY616  TRP617  ASP618  TYR619  PRO620  LYS621  CYS622 
 ASP623  PHE694  ASN695  SER759  ASP760  ASP761  ALA762  ILE779  LEU786  VAL792 
 PHE793  MET794  SER795  GLU796  ALA797  LYS798  CYS799  TRP800  GLU811  SER814 

> <Gold.Protein.RotatedAtoms>
  151.6815  135.0961  160.0216 H   0  0  0  0  0  0  0  0  0  0  0  0  # atno 6907 bound_to 6896
  152.3833  133.6571  159.6187 H   0  0  0  0  0  0  0  0  0  0  0  0  # atno 6908 bound_to 6896
  150.7764  133.8994  159.3378 H   0  0  0  0  0  0  0  0  0  0  0  0  # atno 6909 bound_to 6896
  145.9131  140.7898  142.9685 H   0  0  0  0  0  0  0  0  0  0  0  0  # atno 7974 bound_to 7965
  154.9436  140.3056  155.5109 H   0  0  0  0  0  0  0  0  0  0  0  0  # atno 8008 bound_to 7997
  156.2994  140.2332  156.4444 H   0  0  0  0  0  0  0  0  0  0  0  0  # atno 8009 bound_to 7997
  154.8122  140.0428  157.1339 H   0  0  0  0  0  0  0  0  0  0  0  0  # atno 8010 bound_to 7997
  140.7214  143.3664  151.1862 H   0  0  0  0  0  0  0  0  0  0  0  0  # atno 10167 bound_to 10162
  156.0477  130.5704  150.7937 H   0  0  0  0  0  0  0  0  0  0  0  0  # atno 10718 bound_to 10713
  154.3655  135.6107  153.5712 H   0  0  0  0  0  0  0  0  0  0  0  0  # atno 10763 bound_to 10752
  152.9792  135.5825  154.4583 H   0  0  0  0  0  0  0  0  0  0  0  0  # atno 10764 bound_to 10752
  154.4328  135.2848  155.1878 H   0  0  0  0  0  0  0  0  0  0  0  0  # atno 10765 bound_to 10752
  140.1832  134.8461  157.2827 H   0  0  0  0  0  0  0  0  0  0  0  0  # atno 11005 bound_to 11000
  144.6745  140.1857  143.7401 LP  0  0  0  0  0  0  0  0  0  0  0  0  # atno 17320 bound_to 7965
  145.8646  139.2240  143.1697 LP  0  0  0  0  0  0  0  0  0  0  0  0  # atno 17321 bound_to 7965
  139.7226  143.9198  152.2991 LP  0  0  0  0  0  0  0  0  0  0  0  0  # atno 17342 bound_to 10162
  139.8960  144.6938  150.8717 LP  0  0  0  0  0  0  0  0  0  0  0  0  # atno 17343 bound_to 10162
  157.5370  131.0939  150.9878 LP  0  0  0  0  0  0  0  0  0  0  0  0  # atno 17370 bound_to 10713
  157.0170  130.5659  149.5327 LP  0  0  0  0  0  0  0  0  0  0  0  0  # atno 17371 bound_to 10713
  140.2244  134.3985  155.7551 LP  0  0  0  0  0  0  0  0  0  0  0  0  # atno 17394 bound_to 11000
  141.2224  133.7182  156.8541 LP  0  0  0  0  0  0  0  0  0  0  0  0  # atno 17395 bound_to 11000

$$$$
