AV-unprocessed.smi:2983|AV-procd|sdf|11377|dock4
  -GOLD-   2272016293D 1   1.00000     0.00000
 Structure written by MMmdl.
 39 40  0  0  0  0  0  0  0  0  1 V2000
  151.2026  145.5907  160.1327 C   0  0  0  0  0  0  0  0  0  0  0  0
  152.3327  144.7504  160.7368 C   0  0  0  0  0  0  0  0  0  0  0  0
  152.8744  143.7015  159.7565 C   0  0  0  0  0  0  0  0  0  0  0  0
  152.1006  142.3748  159.8316 C   0  0  0  0  0  0  0  0  0  0  0  0
  151.7053  141.8878  158.5252 N   0  0  0  0  0  0  0  0  0  0  0  0
  152.1158  140.6587  158.0007 C   0  0  0  0  0  0  0  0  0  0  0  0
  152.9443  139.8613  158.7736 N   0  0  0  0  0  0  0  0  0  0  0  0
  151.7178  140.2326  156.7670 C   0  0  0  0  0  0  0  0  0  0  0  0
  152.0928  139.0143  156.2118 N   0  0  0  0  0  0  0  0  0  0  0  0
  152.5184  138.8585  154.8268 C   0  0  0  0  0  0  0  0  0  0  0  0
  151.5832  137.8908  154.0780 C   0  0  0  0  0  0  0  0  0  0  0  0
  151.5013  136.6560  154.7841 O   0  0  0  0  0  0  0  0  0  0  0  0
  150.9908  136.8233  156.1039 C   0  0  0  0  0  0  0  0  0  0  0  0
  151.9296  137.7431  156.9034 C   0  0  0  0  0  0  0  0  0  0  0  0
  150.8321  141.0623  155.9436 C   0  0  0  0  0  0  0  0  0  0  0  0
  150.4261  140.7793  154.8169 O   0  0  0  0  0  0  0  0  0  0  0  0
  150.4350  142.2609  156.5318 N   0  0  0  0  0  0  0  0  0  0  0  0
  150.8180  142.7103  157.7908 C   0  0  0  0  0  0  0  0  0  0  0  0
  150.3783  143.7818  158.2092 O   0  0  0  0  0  0  0  0  0  0  0  0
  149.8099  142.8502  156.0017 H   0  0  0  0  0  0  0  0  0  0  0  0
  150.8392  146.3275  160.8494 H   0  0  0  0  0  0  0  0  0  0  0  0
  150.3588  144.9640  159.8429 H   0  0  0  0  0  0  0  0  0  0  0  0
  151.5424  146.1277  159.2468 H   0  0  0  0  0  0  0  0  0  0  0  0
  153.1431  145.4097  161.0507 H   0  0  0  0  0  0  0  0  0  0  0  0
  151.9695  144.2557  161.6384 H   0  0  0  0  0  0  0  0  0  0  0  0
  152.8235  144.0944  158.7403 H   0  0  0  0  0  0  0  0  0  0  0  0
  153.9301  143.5235  159.9650 H   0  0  0  0  0  0  0  0  0  0  0  0
  152.6741  141.5907  160.3293 H   0  0  0  0  0  0  0  0  0  0  0  0
  151.1904  142.4744  160.4222 H   0  0  0  0  0  0  0  0  0  0  0  0
  153.2493  140.1501  159.6919 H   0  0  0  0  0  0  0  0  0  0  0  0
  153.2495  138.9500  158.4637 H   0  0  0  0  0  0  0  0  0  0  0  0
  152.5361  139.8274  154.3261 H   0  0  0  0  0  0  0  0  0  0  0  0
  153.5412  138.4796  154.8152 H   0  0  0  0  0  0  0  0  0  0  0  0
  150.5868  138.3178  153.9594 H   0  0  0  0  0  0  0  0  0  0  0  0
  151.9655  137.7007  153.0751 H   0  0  0  0  0  0  0  0  0  0  0  0
  149.9808  137.2341  156.0658 H   0  0  0  0  0  0  0  0  0  0  0  0
  150.9205  135.8473  156.5840 H   0  0  0  0  0  0  0  0  0  0  0  0
  152.9073  137.2756  157.0252 H   0  0  0  0  0  0  0  0  0  0  0  0
  151.5307  137.9066  157.9054 H   0  0  0  0  0  0  0  0  0  0  0  0
  1  2  1  0  0  0  0
  1 21  1  0  0  0  0
  1 22  1  0  0  0  0
  1 23  1  0  0  0  0
  2  3  1  0  0  0  0
  2 24  1  0  0  0  0
  2 25  1  0  0  0  0
  3  4  1  0  0  0  0
  3 26  1  0  0  0  0
  3 27  1  0  0  0  0
  4  5  1  0  0  0  0
  4 28  1  0  0  0  0
  4 29  1  0  0  0  0
  5 18  1  0  0  0  0
  5  6  1  0  0  0  0
  6  7  1  0  0  0  0
  6  8  2  0  0  0  0
  7 30  1  0  0  0  0
  7 31  1  0  0  0  0
  8  9  1  0  0  0  0
  8 15  1  0  0  0  0
  9 14  1  0  0  0  0
  9 10  1  0  0  0  0
 10 11  1  0  0  0  0
 10 32  1  0  0  0  0
 10 33  1  0  0  0  0
 11 12  1  0  0  0  0
 11 34  1  0  0  0  0
 11 35  1  0  0  0  0
 12 13  1  0  0  0  0
 13 14  1  0  0  0  0
 13 36  1  0  0  0  0
 13 37  1  0  0  0  0
 14 38  1  0  0  0  0
 14 39  1  0  0  0  0
 15 16  2  0  0  0  0
 15 17  1  0  0  0  0
 17 20  1  0  0  0  0
 17 18  1  0  0  0  0
 18 19  2  0  0  0  0
M  END
> <s_m_source_file>
AV-unprocessed.smi

> <i_m_source_file_index>
2983

> <i_lp_mmshare_version>
43012

> <i_f3d_flags>
0

> <s_epik_input>
W0NIM11bQ0gyXVtDSDJdW0NIMl1uMWMoW05IMl0pYyhjKD1PKVtuSF1jMT1PKU4yW0NIMl1bQ0gyXU9bQ0gyXVtDSDJdMg==

> <s_epik_cmdline>
J2VwaWtfcHl0aG9uJywgJy1waCcsICc3LjAnLCAnLXRuJywgJzgnLCAnLW1hJywgJzIwMCcsICctbWV0YWxfYmluZGluZycsICctaW1hZScsICc8aW5maWxlLm1hZT4nLCAnLW9tYWUnLCAnPG91dGZpbGUubWFlPic=

> <r_lp_tautomer_probability>
1

> <r_epik_Ionization_Penalty>
1.02563e-05

> <r_epik_Ionization_Penalty_Charging>
2.70122e-06

> <r_epik_Ionization_Penalty_Neutral>
7.55508e-06

> <r_epik_State_Penalty>
-0

> <r_epik_Charging_Adjusted_Penalty>
2.70122e-06

> <i_epik_Tot_Q>
0

> <i_epik_Tot_abs_Q>
0

> <r_epik_Metal_State_Penalty>
-0

> <b_epik_Metal_Only>
0

> <s_epik_Chemistry_Notes>
This compound has an imine and may undergo hydrolysis.

> <s_lp_Force_Field>
OPLS_2005

> <r_lp_Energy>
27.0785

> <b_lp_Chiralities_Consistent>
1

> <s_lp_Variant>
AV-unprocessed.smi:2983-1

> <Gold.Version>
5.8.1

> <Gold.Id.Protein>
6NUR|6NUR_protein|mol2

> <Gold.PLP.Fitness>
43.9426

> <Gold.PLP.PLP>
-37.0565

> <Gold.PLP.part.hbond>
-3.0000

> <Gold.PLP.part.metal>
0.0000

> <Gold.PLP.part.buried>
-5.1564

> <Gold.PLP.part.nonpolar>
-30.1661

> <Gold.PLP.part.repulsive>
1.3739

> <Gold.PLP.ligand.clash>
0.0000

> <Gold.PLP.ligand.torsion>
1.3516

> <Gold.PLP.Chemscore.Hbond>
2.6569

> <Gold.PLP.Chemscore.CHOScore>
0.0000

> <Gold.PLP.Chemscore.Metal>
0.0000

> <Gold.Chemscore.Hbonds>
donor molecule, donor type, donor heavy atom, donor atom, acceptor molecule, acceptor atom, score
      L1  H    17    20       P1  8028  0.80
      P1  H  7989  7998       L1    16  0.83
      P1  H 10752 10763       L1    12  1.00

> <Gold.PLP.Chemscore.Internal.Correction>
1.6187

> <Gold.Rescore>
     Score         DG    S(hbond)    S(metal)    S(lipo)     H(rot)  DE(clash)    DE(int)     intcor
     12.91     -19.15       2.45        0.00      78.64       1.45       1.42       4.83       ----

> <Gold.Chemscore.Fitness>
12.9069

> <Gold.Chemscore.DG>
-19.1542

> <Gold.Chemscore.ZeroCoef>
-5.4800

> <Gold.Chemscore.Hbond>
2.4520

> <Gold.Chemscore.Metal>
0.0000

> <Gold.Chemscore.Lipo>
78.6356

> <Gold.Chemscore.Internal_Hbond>
0.0000

> <Gold.Chemscore.DEClash>
1.4169

> <Gold.Chemscore.DEInternal>
4.8304

> <Gold.Chemscore.Rot>
1.4515

> <Gold.Chemscore.Internal.Correction>
   9.000000E+99

> <Gold.Chemscore.Hbonds>
donor molecule, donor type, donor heavy atom, donor atom, acceptor molecule, acceptor atom, score
      L1  H    17    20       P1  8028  0.75
      P1  H  7989  7998       L1    16  0.77
      P1  H 10752 10763       L1    12  0.54

> <Gold.Chemscore.Hbond.Weighted>
-8.1897

> <Gold.Chemscore.Metal.Weighted>
-0.0000

> <Gold.Chemscore.Lipo.Weighted>
-9.2004

> <Gold.Chemscore.Internal_Hbond.Weighted>
0.0000

> <Gold.Chemscore.DEClash.Weighted>
1.4169

> <Gold.Chemscore.DEInternal.Weighted>
4.8304

> <Gold.Chemscore.Rot.Weighted>
3.7159

> <Gold.Chemscore.Internal.Correction.Weighted>
   9.000000E+99

> <Gold.Protein.RotatedTorsions>
[ 6907 6896 6895 6894 ] final  -12.96 input  -60.11 | X-H torsion
[ 7974 7965 7964 7962 ] final  -45.24 input  175.53 | X-H torsion
[ 8008 7997 7996 7995 ] final   78.16 input   59.86 | X-H torsion
[ 10167 10162 10161 10158 ] final   33.29 input  -65.29 | X-H torsion
[ 10718 10713 10712 10709 ] final  -69.97 input   66.30 | X-H torsion
[ 10763 10752 10751 10750 ] final   36.86 input  -60.55 | X-H torsion
[ 11005 11000 10999 10996 ] final   23.71 input  -57.11 | X-H torsion

> <Gold.Protein.ActiveResidues>
 VAL166  LYS551  ARG553  GLY616  TRP617  ASP618  TYR619  PRO620  LYS621  CYS622 
 ASP623  PHE694  ASN695  SER759  ASP760  ASP761  ALA762  ILE779  LEU786  VAL792 
 PHE793  MET794  SER795  GLU796  ALA797  LYS798  CYS799  TRP800  GLU811  SER814 

> <Gold.Protein.RotatedAtoms>
  151.3624  135.0906  159.9438 H   0  0  0  0  0  0  0  0  0  0  0  0  # atno 6907 bound_to 6896
  152.5158  133.9245  159.7561 H   0  0  0  0  0  0  0  0  0  0  0  0  # atno 6908 bound_to 6896
  150.9642  133.6358  159.2778 H   0  0  0  0  0  0  0  0  0  0  0  0  # atno 6909 bound_to 6896
  145.9840  140.7253  142.9349 H   0  0  0  0  0  0  0  0  0  0  0  0  # atno 7974 bound_to 7965
  155.8518  140.3458  155.5698 H   0  0  0  0  0  0  0  0  0  0  0  0  # atno 8008 bound_to 7997
  155.8030  140.0888  157.1966 H   0  0  0  0  0  0  0  0  0  0  0  0  # atno 8009 bound_to 7997
  154.4008  140.1462  156.3284 H   0  0  0  0  0  0  0  0  0  0  0  0  # atno 8010 bound_to 7997
  140.4421  144.1173  150.6176 H   0  0  0  0  0  0  0  0  0  0  0  0  # atno 10167 bound_to 10162
  156.0430  130.4322  150.2226 H   0  0  0  0  0  0  0  0  0  0  0  0  # atno 10718 bound_to 10713
  153.0060  135.6294  154.2052 H   0  0  0  0  0  0  0  0  0  0  0  0  # atno 10763 bound_to 10752
  154.1795  135.2814  155.3058 H   0  0  0  0  0  0  0  0  0  0  0  0  # atno 10764 bound_to 10752
  154.5845  135.5637  153.7278 H   0  0  0  0  0  0  0  0  0  0  0  0  # atno 10765 bound_to 10752
  140.3666  134.2068  155.7669 H   0  0  0  0  0  0  0  0  0  0  0  0  # atno 11005 bound_to 11000
  144.6869  140.2956  143.7271 LP  0  0  0  0  0  0  0  0  0  0  0  0  # atno 17320 bound_to 7965
  145.7728  139.1863  143.2202 LP  0  0  0  0  0  0  0  0  0  0  0  0  # atno 17321 bound_to 7965
  140.4307  143.2569  151.9599 LP  0  0  0  0  0  0  0  0  0  0  0  0  # atno 17342 bound_to 10162
  139.4790  144.5747  151.8031 LP  0  0  0  0  0  0  0  0  0  0  0  0  # atno 17343 bound_to 10162
  157.0319  131.0010  151.3309 LP  0  0  0  0  0  0  0  0  0  0  0  0  # atno 17370 bound_to 10713
  157.5271  130.8035  149.7874 LP  0  0  0  0  0  0  0  0  0  0  0  0  # atno 17371 bound_to 10713
  141.1968  133.8075  157.0657 LP  0  0  0  0  0  0  0  0  0  0  0  0  # atno 17394 bound_to 11000
  140.0584  134.9768  157.1262 LP  0  0  0  0  0  0  0  0  0  0  0  0  # atno 17395 bound_to 11000

$$$$
