AV-unprocessed.smi:2563|AV-procd|sdf|10057|dock8
  -GOLD-   2272014 93D 1   1.00000     0.00000
 Structure written by MMmdl.
 35 36  0  0  0  0  0  0  0  0  2 V2000
  151.8395  140.2676  155.8115 C   0  0  0  0  0  0  0  0  0  0  0  0
  151.9841  140.4457  157.3285 C   0  0  0  0  0  0  0  0  0  0  0  0
  150.8717  141.2024  157.9047 N   0  0  0  0  0  0  0  0  0  0  0  0
  149.5107  140.7156  157.6872 C   0  0  0  0  0  0  0  0  0  0  0  0
  148.6997  141.6387  156.7608 C   0  0  1  0  0  0  0  0  0  0  0  0
  149.1454  141.5022  155.2916 C   0  0  0  0  0  0  0  0  0  0  0  0
  148.2940  142.3354  154.4197 N   0  3  0  0  0  0  0  0  0  0  0  0
  146.8631  142.0204  154.5957 C   0  0  0  0  0  0  0  0  0  0  0  0
  146.4799  142.1250  156.0811 C   0  0  0  0  0  0  0  0  0  0  0  0
  147.3241  141.2733  156.8478 O   0  0  0  0  0  0  0  0  0  0  0  0
  151.1039  142.4424  158.5490 C   0  0  0  0  0  0  0  0  0  0  0  0
  152.2562  143.2218  158.2801 C   0  0  0  0  0  0  0  0  0  0  0  0
  152.4089  144.4396  158.9646 C   0  0  0  0  0  0  0  0  0  0  0  0
  151.4005  144.8017  159.8732 C   0  0  0  0  0  0  0  0  0  0  0  0
  150.3162  144.0293  160.0965 N   0  0  0  0  0  0  0  0  0  0  0  0
  150.1751  142.8714  159.4431 N   0  0  0  0  0  0  0  0  0  0  0  0
  152.6698  139.6859  155.4111 H   0  0  0  0  0  0  0  0  0  0  0  0
  151.8319  141.2292  155.2979 H   0  0  0  0  0  0  0  0  0  0  0  0
  150.9163  139.7455  155.5591 H   0  0  0  0  0  0  0  0  0  0  0  0
  152.0162  139.4625  157.7985 H   0  0  0  0  0  0  0  0  0  0  0  0
  152.9402  140.9120  157.5678 H   0  0  0  0  0  0  0  0  0  0  0  0
  149.5395  139.7003  157.2918 H   0  0  0  0  0  0  0  0  0  0  0  0
  149.0019  140.6315  158.6485 H   0  0  0  0  0  0  0  0  0  0  0  0
  148.8226  142.6755  157.0793 H   0  0  0  0  0  0  0  0  0  0  0  0
  150.1845  141.8108  155.1747 H   0  0  0  0  0  0  0  0  0  0  0  0
  149.0800  140.4626  154.9677 H   0  0  0  0  0  0  0  0  0  0  0  0
  148.4416  143.3062  154.6566 H   0  0  0  0  0  0  0  0  0  0  0  0
  146.2643  142.7045  153.9944 H   0  0  0  0  0  0  0  0  0  0  0  0
  146.6697  141.0123  154.2267 H   0  0  0  0  0  0  0  0  0  0  0  0
  146.5617  143.1537  156.4358 H   0  0  0  0  0  0  0  0  0  0  0  0
  145.4434  141.8200  156.2253 H   0  0  0  0  0  0  0  0  0  0  0  0
  153.0108  142.9209  157.5703 H   0  0  0  0  0  0  0  0  0  0  0  0
  153.2668  145.0742  158.7988 H   0  0  0  0  0  0  0  0  0  0  0  0
  151.4620  145.7257  160.4288 H   0  0  0  0  0  0  0  0  0  0  0  0
  148.5542  142.1883  153.4547 H   0  0  0  0  0  0  0  0  0  0  0  0
  1  2  1  0  0  0  0
  1 17  1  0  0  0  0
  1 18  1  0  0  0  0
  1 19  1  0  0  0  0
  2  3  1  0  0  0  0
  2 20  1  0  0  0  0
  2 21  1  0  0  0  0
  3  4  1  0  0  0  0
  3 11  1  0  0  0  0
  4  5  1  0  0  0  0
  4 22  1  0  0  0  0
  4 23  1  0  0  0  0
  5 10  1  0  0  0  0
  5  6  1  0  0  0  0
  5 24  1  0  0  0  0
  6  7  1  0  0  0  0
  6 25  1  0  0  0  0
  6 26  1  0  0  0  0
  7  8  1  0  0  0  0
  7 27  1  0  0  0  0
  7 35  1  0  0  0  0
  8  9  1  0  0  0  0
  8 28  1  0  0  0  0
  8 29  1  0  0  0  0
  9 10  1  0  0  0  0
  9 30  1  0  0  0  0
  9 31  1  0  0  0  0
 11 16  1  0  0  0  0
 11 12  2  0  0  0  0
 12 13  1  0  0  0  0
 12 32  1  0  0  0  0
 13 14  2  0  0  0  0
 13 33  1  0  0  0  0
 14 15  1  0  0  0  0
 14 34  1  0  0  0  0
 15 16  2  0  0  0  0
M  CHG  1   7   1
M  END
> <s_m_source_file>
AV-unprocessed.smi

> <i_m_source_file_index>
2563

> <i_lp_mmshare_version>
43012

> <i_f3d_flags>
0

> <s_epik_input>
bjFuW2NIXVtjSF1bY0hdYzFOKFtDSDJdW0NIM10pW0NIMl1bQ0BASF0yW0NIMl1bTkhdW0NIMl1bQ0gyXU8y

> <s_epik_cmdline>
J2VwaWtfcHl0aG9uJywgJy1waCcsICc3LjAnLCAnLXRuJywgJzgnLCAnLW1hJywgJzIwMCcsICctbWV0YWxfYmluZGluZycsICctaW1hZScsICc8aW5maWxlLm1hZT4nLCAnLW9tYWUnLCAnPG91dGZpbGUubWFlPic=

> <r_lp_tautomer_probability>
1

> <r_epik_Ionization_Penalty>
0.0472862

> <r_epik_Ionization_Penalty_Charging>
0.0127794

> <r_epik_Ionization_Penalty_Neutral>
0.0345068

> <r_epik_State_Penalty>
0.0614045

> <r_epik_Charging_Adjusted_Penalty>
0.0741839

> <i_epik_Tot_Q>
1

> <i_epik_Tot_abs_Q>
1

> <r_epik_Metal_State_Penalty>
0.0547208

> <b_epik_Metal_Only>
0

> <s_lp_Force_Field>
OPLS_2005

> <r_lp_Energy>
26.038

> <b_lp_Chiralities_Consistent>
1

> <s_lp_Variant>
AV-unprocessed.smi:2563-2

> <Gold.Version>
5.8.1

> <Gold.Id.Protein>
6NUR|6NUR_protein|mol2

> <Gold.PLP.Fitness>
36.9625

> <Gold.PLP.PLP>
-31.7490

> <Gold.PLP.part.hbond>
-2.3659

> <Gold.PLP.part.metal>
0.0000

> <Gold.PLP.part.buried>
-5.4765

> <Gold.PLP.part.nonpolar>
-24.9069

> <Gold.PLP.part.repulsive>
1.0236

> <Gold.PLP.ligand.clash>
0.0000

> <Gold.PLP.ligand.torsion>
0.4180

> <Gold.PLP.Chemscore.Hbond>
2.0000

> <Gold.PLP.Chemscore.CHOScore>
0.0000

> <Gold.PLP.Chemscore.Metal>
0.0000

> <Gold.Chemscore.Hbonds>
donor molecule, donor type, donor heavy atom, donor atom, acceptor molecule, acceptor atom, score
      L1  H     7    27       P1  8028  2.00

> <Gold.PLP.Chemscore.Internal.Correction>
0.0495

> <Gold.Rescore>
     Score         DG    S(hbond)    S(metal)    S(lipo)     H(rot)  DE(clash)    DE(int)     intcor
     13.15     -13.36       0.99        0.00      69.68       1.40       0.04       0.17       ----

> <Gold.Chemscore.Fitness>
13.1459

> <Gold.Chemscore.DG>
-13.3602

> <Gold.Chemscore.ZeroCoef>
-5.4800

> <Gold.Chemscore.Hbond>
0.9939

> <Gold.Chemscore.Metal>
0.0000

> <Gold.Chemscore.Lipo>
69.6830

> <Gold.Chemscore.Internal_Hbond>
0.0000

> <Gold.Chemscore.DEClash>
0.0402

> <Gold.Chemscore.DEInternal>
0.1740

> <Gold.Chemscore.Rot>
1.4033

> <Gold.Chemscore.Internal.Correction>
   9.000000E+99

> <Gold.Chemscore.Hbonds>
donor molecule, donor type, donor heavy atom, donor atom, acceptor molecule, acceptor atom, score
      L1  H     7    27       P1  8028  0.99

> <Gold.Chemscore.Hbond.Weighted>
-3.3197

> <Gold.Chemscore.Metal.Weighted>
-0.0000

> <Gold.Chemscore.Lipo.Weighted>
-8.1529

> <Gold.Chemscore.Internal_Hbond.Weighted>
0.0000

> <Gold.Chemscore.DEClash.Weighted>
0.0402

> <Gold.Chemscore.DEInternal.Weighted>
0.1740

> <Gold.Chemscore.Rot.Weighted>
3.5924

> <Gold.Chemscore.Internal.Correction.Weighted>
   9.000000E+99

> <Gold.Protein.RotatedTorsions>
[ 6907 6896 6895 6894 ] final -176.92 input  -60.11 | X-H torsion
[ 7974 7965 7964 7962 ] final -108.22 input  175.53 | X-H torsion
[ 8008 7997 7996 7995 ] final -155.64 input   59.86 | X-H torsion
[ 10167 10162 10161 10158 ] final   -0.45 input  -65.29 | X-H torsion
[ 10718 10713 10712 10709 ] final   -5.11 input   66.30 | X-H torsion
[ 10763 10752 10751 10750 ] final  -85.09 input  -60.55 | X-H torsion
[ 11005 11000 10999 10996 ] final  -99.13 input  -57.11 | X-H torsion

> <Gold.Protein.ActiveResidues>
 VAL166  LYS551  ARG553  GLY616  TRP617  ASP618  TYR619  PRO620  LYS621  CYS622 
 ASP623  PHE694  ASN695  SER759  ASP760  ASP761  ALA762  ILE779  LEU786  VAL792 
 PHE793  MET794  SER795  GLU796  ALA797  LYS798  CYS799  TRP800  GLU811  SER814 

> <Gold.Protein.RotatedAtoms>
  151.6126  133.3346  159.3070 H   0  0  0  0  0  0  0  0  0  0  0  0  # atno 6907 bound_to 6896
  150.8148  134.7327  159.6732 H   0  0  0  0  0  0  0  0  0  0  0  0  # atno 6908 bound_to 6896
  152.4244  134.5900  160.0023 H   0  0  0  0  0  0  0  0  0  0  0  0  # atno 6909 bound_to 6896
  145.1955  140.9034  143.3399 H   0  0  0  0  0  0  0  0  0  0  0  0  # atno 7974 bound_to 7965
  155.7049  140.0771  157.2395 H   0  0  0  0  0  0  0  0  0  0  0  0  # atno 8008 bound_to 7997
  154.4067  140.1640  156.2286 H   0  0  0  0  0  0  0  0  0  0  0  0  # atno 8009 bound_to 7997
  155.9334  140.3389  155.6271 H   0  0  0  0  0  0  0  0  0  0  0  0  # atno 8010 bound_to 7997
  140.6768  143.6893  150.8041 H   0  0  0  0  0  0  0  0  0  0  0  0  # atno 10167 bound_to 10162
  156.7514  130.5240  149.5803 H   0  0  0  0  0  0  0  0  0  0  0  0  # atno 10718 bound_to 10713
  154.6071  135.5497  153.7434 H   0  0  0  0  0  0  0  0  0  0  0  0  # atno 10763 bound_to 10752
  153.0179  135.6380  154.1632 H   0  0  0  0  0  0  0  0  0  0  0  0  # atno 10764 bound_to 10752
  154.1570  135.2899  155.3099 H   0  0  0  0  0  0  0  0  0  0  0  0  # atno 10765 bound_to 10752
  141.1320  133.8298  157.0931 H   0  0  0  0  0  0  0  0  0  0  0  0  # atno 11005 bound_to 11000
  144.9999  139.3609  143.6173 LP  0  0  0  0  0  0  0  0  0  0  0  0  # atno 17320 bound_to 7965
  146.3428  139.9217  142.8766 LP  0  0  0  0  0  0  0  0  0  0  0  0  # atno 17321 bound_to 7965
  140.0587  143.5176  152.2638 LP  0  0  0  0  0  0  0  0  0  0  0  0  # atno 17342 bound_to 10162
  139.6065  144.7597  151.3051 LP  0  0  0  0  0  0  0  0  0  0  0  0  # atno 17343 bound_to 10162
  156.1399  130.6237  151.0452 LP  0  0  0  0  0  0  0  0  0  0  0  0  # atno 17370 bound_to 10713
  157.6775  131.0846  150.7456 LP  0  0  0  0  0  0  0  0  0  0  0  0  # atno 17371 bound_to 10713
  140.0380  134.9868  157.0908 LP  0  0  0  0  0  0  0  0  0  0  0  0  # atno 17394 bound_to 11000
  140.4180  134.1911  155.7164 LP  0  0  0  0  0  0  0  0  0  0  0  0  # atno 17395 bound_to 11000

$$$$
