AV-unprocessed.smi:1947|AV-procd|sdf|7865|dock2
  -GOLD-   2272010 13D 1   1.00000     0.00000
 Structure written by MMmdl.
 39 40  0  0  0  0  0  0  0  0  1 V2000
  155.8813  139.8842  161.2326 C   0  0  0  0  0  0  0  0  0  0  0  0
  154.8438  140.6812  160.4233 C   0  0  2  0  0  0  0  0  0  0  0  0
  153.9538  141.5249  161.3579 C   0  0  0  0  0  0  0  0  0  0  0  0
  152.9003  142.3232  160.5745 C   0  0  0  0  0  0  0  0  0  0  0  0
  152.0410  141.3965  159.7027 C   0  0  0  0  0  0  0  0  0  0  0  0
  152.9171  140.5592  158.7590 C   0  0  0  0  0  0  0  0  0  0  0  0
  153.9797  139.7563  159.5372 C   0  0  1  0  0  0  0  0  0  0  0  0
  154.8477  139.1036  158.6201 O   0  0  0  0  0  0  0  0  0  0  0  0
  154.4755  137.7714  158.2994 C   0  0  0  0  0  0  0  0  0  0  0  0
  154.1964  137.6898  156.7911 C   0  0  0  0  0  0  0  0  0  0  0  0
  152.7715  137.8131  156.5007 N   0  0  0  0  0  0  0  0  0  0  0  0
  152.2233  138.7329  155.6948 C   0  0  0  0  0  0  0  0  0  0  0  0
  152.8811  139.5571  155.0599 O   0  0  0  0  0  0  0  0  0  0  0  0
  150.8845  138.6331  155.6863 N   0  0  0  0  0  0  0  0  0  0  0  0
  149.9540  139.4502  154.9971 C   0  0  0  0  0  0  0  0  0  0  0  0
  150.4199  140.5249  154.3499 N   0  0  0  0  0  0  0  0  0  0  0  0
  149.4048  141.2316  153.7161 N   0  0  0  0  0  0  0  0  0  0  0  0
  148.2117  140.6615  153.9109 C   0  0  0  0  0  0  0  0  0  0  0  0
  148.2085  139.2043  154.8882 S   0  0  0  0  0  0  0  0  0  0  0  0
  155.3997  139.1673  161.8982 H   0  0  0  0  0  0  0  0  0  0  0  0
  156.4943  140.5466  161.8446 H   0  0  0  0  0  0  0  0  0  0  0  0
  156.5550  139.3288  160.5794 H   0  0  0  0  0  0  0  0  0  0  0  0
  155.3872  141.3663  159.7705 H   0  0  0  0  0  0  0  0  0  0  0  0
  153.4538  140.8741  162.0768 H   0  0  0  0  0  0  0  0  0  0  0  0
  154.5702  142.2104  161.9408 H   0  0  0  0  0  0  0  0  0  0  0  0
  152.2649  142.8786  161.2648 H   0  0  0  0  0  0  0  0  0  0  0  0
  153.3950  143.0638  159.9448 H   0  0  0  0  0  0  0  0  0  0  0  0
  151.4525  140.7349  160.3398 H   0  0  0  0  0  0  0  0  0  0  0  0
  151.3281  141.9851  159.1245 H   0  0  0  0  0  0  0  0  0  0  0  0
  152.2833  139.8898  158.1776 H   0  0  0  0  0  0  0  0  0  0  0  0
  153.4095  141.2179  158.0423 H   0  0  0  0  0  0  0  0  0  0  0  0
  153.4874  139.0267  160.1833 H   0  0  0  0  0  0  0  0  0  0  0  0
  155.2705  137.0752  158.5708 H   0  0  0  0  0  0  0  0  0  0  0  0
  153.5856  137.4811  158.8582 H   0  0  0  0  0  0  0  0  0  0  0  0
  154.7530  138.4631  156.2597 H   0  0  0  0  0  0  0  0  0  0  0  0
  154.5434  136.7324  156.4023 H   0  0  0  0  0  0  0  0  0  0  0  0
  152.1557  137.1746  156.9826 H   0  0  0  0  0  0  0  0  0  0  0  0
  150.4828  137.9008  156.2530 H   0  0  0  0  0  0  0  0  0  0  0  0
  147.3272  141.1025  153.4755 H   0  0  0  0  0  0  0  0  0  0  0  0
  1  2  1  0  0  0  0
  1 20  1  0  0  0  0
  1 21  1  0  0  0  0
  1 22  1  0  0  0  0
  2  7  1  0  0  0  0
  2  3  1  0  0  0  0
  2 23  1  0  0  0  0
  3  4  1  0  0  0  0
  3 24  1  0  0  0  0
  3 25  1  0  0  0  0
  4  5  1  0  0  0  0
  4 26  1  0  0  0  0
  4 27  1  0  0  0  0
  5  6  1  0  0  0  0
  5 28  1  0  0  0  0
  5 29  1  0  0  0  0
  6  7  1  0  0  0  0
  6 30  1  0  0  0  0
  6 31  1  0  0  0  0
  7  8  1  0  0  0  0
  7 32  1  0  0  0  0
  8  9  1  0  0  0  0
  9 10  1  0  0  0  0
  9 33  1  0  0  0  0
  9 34  1  0  0  0  0
 10 11  1  0  0  0  0
 10 35  1  0  0  0  0
 10 36  1  0  0  0  0
 11 12  1  0  0  0  0
 11 37  1  0  0  0  0
 12 13  2  0  0  0  0
 12 14  1  0  0  0  0
 14 15  1  0  0  0  0
 14 38  1  0  0  0  0
 15 19  1  0  0  0  0
 15 16  2  0  0  0  0
 16 17  1  0  0  0  0
 17 18  2  0  0  0  0
 18 19  1  0  0  0  0
 18 39  1  0  0  0  0
M  END
> <s_m_source_file>
AV-unprocessed.smi

> <i_m_source_file_index>
1947

> <i_lp_mmshare_version>
43012

> <i_f3d_flags>
0

> <s_epik_input>
W0NIM11bQ0BASF0xW0NIMl1bQ0gyXVtDSDJdW0NIMl1bQ0BIXTFPW0NIMl1bQ0gyXVtOSF1DKD1PKVtOSF1jMm5uW2NIXXMy

> <s_epik_cmdline>
J2VwaWtfcHl0aG9uJywgJy1waCcsICc3LjAnLCAnLXRuJywgJzgnLCAnLW1hJywgJzIwMCcsICctbWV0YWxfYmluZGluZycsICctaW1hZScsICc8aW5maWxlLm1hZT4nLCAnLW9tYWUnLCAnPG91dGZpbGUubWFlPic=

> <r_lp_tautomer_probability>
1

> <r_epik_Ionization_Penalty>
0.00220897

> <r_epik_Ionization_Penalty_Charging>
0

> <r_epik_Ionization_Penalty_Neutral>
0.00220897

> <r_epik_State_Penalty>
-0

> <r_epik_Charging_Adjusted_Penalty>
0

> <i_epik_Tot_Q>
0

> <i_epik_Tot_abs_Q>
0

> <r_epik_Metal_State_Penalty>
0.345002

> <b_epik_Metal_Only>
0

> <s_lp_Force_Field>
OPLS_2005

> <r_lp_Energy>
7.38762

> <b_lp_Chiralities_Consistent>
1

> <s_lp_Variant>
AV-unprocessed.smi:1947-1

> <Gold.Version>
5.8.1

> <Gold.Id.Protein>
6NUR|6NUR_protein|mol2

> <Gold.PLP.Fitness>
38.6587

> <Gold.PLP.PLP>
-29.2867

> <Gold.PLP.part.hbond>
-5.6854

> <Gold.PLP.part.metal>
0.0000

> <Gold.PLP.part.buried>
-1.5765

> <Gold.PLP.part.nonpolar>
-23.0399

> <Gold.PLP.part.repulsive>
2.1610

> <Gold.PLP.ligand.clash>
0.0000

> <Gold.PLP.ligand.torsion>
1.0971

> <Gold.PLP.Chemscore.Hbond>
3.8400

> <Gold.PLP.Chemscore.CHOScore>
0.0000

> <Gold.PLP.Chemscore.Metal>
0.0000

> <Gold.Chemscore.Hbonds>
donor molecule, donor type, donor heavy atom, donor atom, acceptor molecule, acceptor atom, score
      P1  H  7989  7998       L1    16  0.91
      P1  H  7997  8008       L1    13  1.00
      P1  H  7997  8010       L1     8  1.00
      P1  H  8011  8017       L1    17  0.90

> <Gold.PLP.Chemscore.Internal.Correction>
0.0462

> <Gold.Rescore>
     Score         DG    S(hbond)    S(metal)    S(lipo)     H(rot)  DE(clash)    DE(int)     intcor
     16.33     -18.90       2.85        0.00      75.71       1.94       0.05       2.53       ----

> <Gold.Chemscore.Fitness>
16.3268

> <Gold.Chemscore.DG>
-18.9036

> <Gold.Chemscore.ZeroCoef>
-5.4800

> <Gold.Chemscore.Hbond>
2.8526

> <Gold.Chemscore.Metal>
0.0000

> <Gold.Chemscore.Lipo>
75.7131

> <Gold.Chemscore.Internal_Hbond>
0.0000

> <Gold.Chemscore.DEClash>
0.0469

> <Gold.Chemscore.DEInternal>
2.5299

> <Gold.Chemscore.Rot>
1.9385

> <Gold.Chemscore.Internal.Correction>
   9.000000E+99

> <Gold.Chemscore.Hbonds>
donor molecule, donor type, donor heavy atom, donor atom, acceptor molecule, acceptor atom, score
      P1  H  7989  7998       L1    16  0.25
      P1  H  7997  8008       L1    13  0.97
      P1  H  7997  8010       L1     8  0.77
      P1  H  8011  8017       L1    17  0.86

> <Gold.Chemscore.Hbond.Weighted>
-9.5277

> <Gold.Chemscore.Metal.Weighted>
-0.0000

> <Gold.Chemscore.Lipo.Weighted>
-8.8584

> <Gold.Chemscore.Internal_Hbond.Weighted>
0.0000

> <Gold.Chemscore.DEClash.Weighted>
0.0469

> <Gold.Chemscore.DEInternal.Weighted>
2.5299

> <Gold.Chemscore.Rot.Weighted>
4.9625

> <Gold.Chemscore.Internal.Correction.Weighted>
   9.000000E+99

> <Gold.Protein.RotatedTorsions>
[ 6907 6896 6895 6894 ] final  134.79 input  -60.11 | X-H torsion
[ 7974 7965 7964 7962 ] final  -90.10 input  175.53 | X-H torsion
[ 8008 7997 7996 7995 ] final   -8.31 input   59.86 | X-H torsion
[ 10167 10162 10161 10158 ] final  -76.11 input  -65.29 | X-H torsion
[ 10718 10713 10712 10709 ] final -118.07 input   66.30 | X-H torsion
[ 10763 10752 10751 10750 ] final  111.35 input  -60.55 | X-H torsion
[ 11005 11000 10999 10996 ] final    7.70 input  -57.11 | X-H torsion

> <Gold.Protein.ActiveResidues>
 VAL166  LYS551  ARG553  GLY616  TRP617  ASP618  TYR619  PRO620  LYS621  CYS622 
 ASP623  PHE694  ASN695  SER759  ASP760  ASP761  ALA762  ILE779  LEU786  VAL792 
 PHE793  MET794  SER795  GLU796  ALA797  LYS798  CYS799  TRP800  GLU811  SER814 

> <Gold.Protein.RotatedAtoms>
  152.3075  133.5718  159.5658 H   0  0  0  0  0  0  0  0  0  0  0  0  # atno 6907 bound_to 6896
  150.7307  134.0201  159.3707 H   0  0  0  0  0  0  0  0  0  0  0  0  # atno 6908 bound_to 6896
  151.8096  135.0685  160.0462 H   0  0  0  0  0  0  0  0  0  0  0  0  # atno 6909 bound_to 6896
  145.4310  140.9556  143.2128 H   0  0  0  0  0  0  0  0  0  0  0  0  # atno 7974 bound_to 7965
  154.5753  140.2384  155.8131 H   0  0  0  0  0  0  0  0  0  0  0  0  # atno 8008 bound_to 7997
  156.2138  140.3018  155.9751 H   0  0  0  0  0  0  0  0  0  0  0  0  # atno 8009 bound_to 7997
  155.2638  140.0415  157.2990 H   0  0  0  0  0  0  0  0  0  0  0  0  # atno 8010 bound_to 7997
  140.4885  143.2385  151.7945 H   0  0  0  0  0  0  0  0  0  0  0  0  # atno 10167 bound_to 10162
  156.1080  130.6225  150.9245 H   0  0  0  0  0  0  0  0  0  0  0  0  # atno 10718 bound_to 10713
  153.4620  135.3720  155.2344 H   0  0  0  0  0  0  0  0  0  0  0  0  # atno 10763 bound_to 10752
  154.8757  135.3911  154.3913 H   0  0  0  0  0  0  0  0  0  0  0  0  # atno 10764 bound_to 10752
  153.4488  135.7085  153.6186 H   0  0  0  0  0  0  0  0  0  0  0  0  # atno 10765 bound_to 10752
  140.5452  134.0336  155.7918 H   0  0  0  0  0  0  0  0  0  0  0  0  # atno 11005 bound_to 11000
  144.8183  139.5837  143.6998 LP  0  0  0  0  0  0  0  0  0  0  0  0  # atno 17320 bound_to 7965
  146.2607  139.6404  142.9364 LP  0  0  0  0  0  0  0  0  0  0  0  0  # atno 17321 bound_to 7965
  139.4846  144.4680  151.9460 LP  0  0  0  0  0  0  0  0  0  0  0  0  # atno 17342 bound_to 10162
  140.3766  144.2788  150.5913 LP  0  0  0  0  0  0  0  0  0  0  0  0  # atno 17343 bound_to 10162
  157.6258  131.0926  150.8536 LP  0  0  0  0  0  0  0  0  0  0  0  0  # atno 17370 bound_to 10713
  156.8652  130.5127  149.5301 LP  0  0  0  0  0  0  0  0  0  0  0  0  # atno 17371 bound_to 10713
  141.1204  133.9471  157.2741 LP  0  0  0  0  0  0  0  0  0  0  0  0  # atno 17394 bound_to 11000
  139.9483  135.0180  156.8919 LP  0  0  0  0  0  0  0  0  0  0  0  0  # atno 17395 bound_to 11000

$$$$
