AV-unprocessed.smi:3202|AV-procd|sdf|12245|dock1
  -GOLD-   2272018 83D 1   1.00000     0.00000
 Structure written by MMmdl.
 43 44  0  0  0  0  0  0  0  0  2 V2000
  150.4235  135.6881  154.9403 C   0  0  0  0  0  0  0  0  0  0  0  0
  151.0470  137.0501  155.0254 C   0  0  0  0  0  0  0  0  0  0  0  0
  150.5261  138.2207  155.6508 C   0  0  0  0  0  0  0  0  0  0  0  0
  151.4831  139.1728  155.4364 C   0  0  0  0  0  0  0  0  0  0  0  0
  151.5508  140.6124  155.8341 C   0  0  0  0  0  0  0  0  0  0  0  0
  150.3039  141.1173  156.5849 C   0  0  2  0  0  0  0  0  0  0  0  0
  149.1090  141.3583  155.6479 C   0  0  0  0  0  0  0  0  0  0  0  0
  150.6307  142.3687  157.3037 N   0  3  0  0  0  0  0  0  0  0  0  0
  151.8546  142.3277  158.1363 C   0  0  2  0  0  0  0  0  0  0  0  0
  151.8223  141.2324  159.2109 C   0  0  0  0  0  0  0  0  0  0  0  0
  152.7679  141.7187  160.3165 C   0  0  0  0  0  0  0  0  0  0  0  0
  153.1307  143.1707  159.9696 C   0  0  0  0  0  0  0  0  0  0  0  0
  152.1156  143.6378  158.9100 C   0  0  0  0  0  0  0  0  0  0  0  0
  152.7183  144.7264  158.0020 C   0  0  0  0  0  0  0  0  0  0  0  0
  150.8481  144.1879  159.6050 C   0  0  0  0  0  0  0  0  0  0  0  0
  152.4881  138.5535  154.7289 N   0  0  0  0  0  0  0  0  0  0  0  0
  152.2309  137.2585  154.4694 N   0  0  0  0  0  0  0  0  0  0  0  0
  153.3424  138.9946  154.4188 H   0  0  0  0  0  0  0  0  0  0  0  0
  149.4960  135.6432  155.5114 H   0  0  0  0  0  0  0  0  0  0  0  0
  151.0926  134.9233  155.3354 H   0  0  0  0  0  0  0  0  0  0  0  0
  150.1906  135.4272  153.9077 H   0  0  0  0  0  0  0  0  0  0  0  0
  149.5901  138.3409  156.1762 H   0  0  0  0  0  0  0  0  0  0  0  0
  151.7144  141.2274  154.9478 H   0  0  0  0  0  0  0  0  0  0  0  0
  152.4308  140.7568  156.4622 H   0  0  0  0  0  0  0  0  0  0  0  0
  150.0123  140.3519  157.3060 H   0  0  0  0  0  0  0  0  0  0  0  0
  148.8031  140.4404  155.1452 H   0  0  0  0  0  0  0  0  0  0  0  0
  149.3489  142.0938  154.8792 H   0  0  0  0  0  0  0  0  0  0  0  0
  148.2443  141.7258  156.2013 H   0  0  0  0  0  0  0  0  0  0  0  0
  150.7525  143.0956  156.6132 H   0  0  0  0  0  0  0  0  0  0  0  0
  152.7087  142.1413  157.4821 H   0  0  0  0  0  0  0  0  0  0  0  0
  150.8154  141.1248  159.6170 H   0  0  0  0  0  0  0  0  0  0  0  0
  152.1186  140.2600  158.8164 H   0  0  0  0  0  0  0  0  0  0  0  0
  152.2727  141.6629  161.2867 H   0  0  0  0  0  0  0  0  0  0  0  0
  153.6652  141.1016  160.3737 H   0  0  0  0  0  0  0  0  0  0  0  0
  153.1481  143.8127  160.8514 H   0  0  0  0  0  0  0  0  0  0  0  0
  154.1387  143.1853  159.5519 H   0  0  0  0  0  0  0  0  0  0  0  0
  152.9732  145.6193  158.5740 H   0  0  0  0  0  0  0  0  0  0  0  0
  152.0173  145.0240  157.2216 H   0  0  0  0  0  0  0  0  0  0  0  0
  153.6289  144.3824  157.5102 H   0  0  0  0  0  0  0  0  0  0  0  0
  151.0870  145.0517  160.2264 H   0  0  0  0  0  0  0  0  0  0  0  0
  150.3789  143.4461  160.2515 H   0  0  0  0  0  0  0  0  0  0  0  0
  150.1005  144.5143  158.8815 H   0  0  0  0  0  0  0  0  0  0  0  0
  149.8503  142.6203  157.8936 H   0  0  0  0  0  0  0  0  0  0  0  0
  1 19  1  0  0  0  0
  1 20  1  0  0  0  0
  1 21  1  0  0  0  0
  1  2  1  0  0  0  0
  2 17  2  0  0  0  0
  2  3  1  0  0  0  0
  3  4  2  0  0  0  0
  3 22  1  0  0  0  0
  4 16  1  0  0  0  0
  4  5  1  0  0  0  0
  5  6  1  0  0  0  0
  5 23  1  0  0  0  0
  5 24  1  0  0  0  0
  6  7  1  0  0  0  0
  6  8  1  0  0  0  0
  6 25  1  0  0  0  0
  7 26  1  0  0  0  0
  7 27  1  0  0  0  0
  7 28  1  0  0  0  0
  8  9  1  0  0  0  0
  8 29  1  0  0  0  0
  8 43  1  0  0  0  0
  9 13  1  0  0  0  0
  9 10  1  0  0  0  0
  9 30  1  0  0  0  0
 10 11  1  0  0  0  0
 10 31  1  0  0  0  0
 10 32  1  0  0  0  0
 11 12  1  0  0  0  0
 11 33  1  0  0  0  0
 11 34  1  0  0  0  0
 12 13  1  0  0  0  0
 12 35  1  0  0  0  0
 12 36  1  0  0  0  0
 13 14  1  0  0  0  0
 13 15  1  0  0  0  0
 14 37  1  0  0  0  0
 14 38  1  0  0  0  0
 14 39  1  0  0  0  0
 15 40  1  0  0  0  0
 15 41  1  0  0  0  0
 15 42  1  0  0  0  0
 16 17  1  0  0  0  0
 16 18  1  0  0  0  0
M  CHG  1   8   1
M  END
> <s_m_source_file>
AV-unprocessed.smi

> <i_m_source_file_index>
3202

> <i_lp_mmshare_version>
43012

> <i_f3d_flags>
0

> <s_epik_input>
W0NIM11jMVtjSF1jKG5bbkhdMSlbQ0gyXVtDQEhdKFtDSDNdKVtOSF1bQ0BASF0oQzIoW0NIM10pW0NIM10pW0NIMl1bQ0gyXVtDSDJdMg==

> <s_epik_cmdline>
J2VwaWtfcHl0aG9uJywgJy1waCcsICc3LjAnLCAnLXRuJywgJzgnLCAnLW1hJywgJzIwMCcsICctbWV0YWxfYmluZGluZycsICctaW1hZScsICc8aW5maWxlLm1hZT4nLCAnLW9tYWUnLCAnPG91dGZpbGUubWFlPic=

> <r_lp_tautomer_probability>
0.5

> <r_epik_Ionization_Penalty>
0.000449684

> <r_epik_Ionization_Penalty_Charging>
0.000404963

> <r_epik_Ionization_Penalty_Neutral>
4.47208e-05

> <r_epik_State_Penalty>
0.41068

> <r_epik_Charging_Adjusted_Penalty>
0.411085

> <i_epik_Tot_Q>
1

> <i_epik_Tot_abs_Q>
1

> <r_epik_Metal_State_Penalty>
0.410687

> <b_epik_Metal_Only>
0

> <s_lp_Force_Field>
OPLS_2005

> <r_lp_Energy>
32.3092

> <b_lp_Chiralities_Consistent>
1

> <s_lp_Variant>
AV-unprocessed.smi:3202-5

> <Gold.Version>
5.8.1

> <Gold.Id.Protein>
6NUR|6NUR_protein|mol2

> <Gold.PLP.Fitness>
40.4109

> <Gold.PLP.PLP>
-38.2219

> <Gold.PLP.part.hbond>
-1.0000

> <Gold.PLP.part.metal>
0.0000

> <Gold.PLP.part.buried>
-5.8725

> <Gold.PLP.part.nonpolar>
-31.9733

> <Gold.PLP.part.repulsive>
0.3570

> <Gold.PLP.ligand.clash>
0.0000

> <Gold.PLP.ligand.torsion>
0.1826

> <Gold.PLP.Chemscore.Hbond>
0.8480

> <Gold.PLP.Chemscore.CHOScore>
0.0000

> <Gold.PLP.Chemscore.Metal>
0.0000

> <Gold.Chemscore.Hbonds>
donor molecule, donor type, donor heavy atom, donor atom, acceptor molecule, acceptor atom, score
      P1  H 10752 10763       L1    17  0.80

> <Gold.PLP.Chemscore.Internal.Correction>
0.0102

> <Gold.Rescore>
     Score         DG    S(hbond)    S(metal)    S(lipo)     H(rot)  DE(clash)    DE(int)     intcor
     18.52     -18.79       0.91        0.00     119.85       1.46       0.07       0.20       ----

> <Gold.Chemscore.Fitness>
18.5237

> <Gold.Chemscore.DG>
-18.7917

> <Gold.Chemscore.ZeroCoef>
-5.4800

> <Gold.Chemscore.Hbond>
0.9058

> <Gold.Chemscore.Metal>
0.0000

> <Gold.Chemscore.Lipo>
119.8525

> <Gold.Chemscore.Internal_Hbond>
0.0000

> <Gold.Chemscore.DEClash>
0.0729

> <Gold.Chemscore.DEInternal>
0.1951

> <Gold.Chemscore.Rot>
1.4596

> <Gold.Chemscore.Internal.Correction>
   9.000000E+99

> <Gold.Chemscore.Hbonds>
donor molecule, donor type, donor heavy atom, donor atom, acceptor molecule, acceptor atom, score
      P1  H 10752 10763       L1    17  0.44

> <Gold.Chemscore.Hbond.Weighted>
-3.0255

> <Gold.Chemscore.Metal.Weighted>
-0.0000

> <Gold.Chemscore.Lipo.Weighted>
-14.0227

> <Gold.Chemscore.Internal_Hbond.Weighted>
0.0000

> <Gold.Chemscore.DEClash.Weighted>
0.0729

> <Gold.Chemscore.DEInternal.Weighted>
0.1951

> <Gold.Chemscore.Rot.Weighted>
3.7365

> <Gold.Chemscore.Internal.Correction.Weighted>
   9.000000E+99

> <Gold.Protein.RotatedTorsions>
[ 6907 6896 6895 6894 ] final    1.73 input  -60.11 | X-H torsion
[ 7974 7965 7964 7962 ] final -129.65 input  175.53 | X-H torsion
[ 8008 7997 7996 7995 ] final    1.11 input   59.86 | X-H torsion
[ 10167 10162 10161 10158 ] final   97.88 input  -65.29 | X-H torsion
[ 10718 10713 10712 10709 ] final  -20.00 input   66.30 | X-H torsion
[ 10763 10752 10751 10750 ] final   41.06 input  -60.55 | X-H torsion
[ 11005 11000 10999 10996 ] final    8.72 input  -57.11 | X-H torsion

> <Gold.Protein.ActiveResidues>
 VAL166  LYS551  ARG553  GLY616  TRP617  ASP618  TYR619  PRO620  LYS621  CYS622 
 ASP623  PHE694  ASN695  SER759  ASP760  ASP761  ALA762  ILE779  LEU786  VAL792 
 PHE793  MET794  SER795  GLU796  ALA797  LYS798  CYS799  TRP800  GLU811  SER814 

> <Gold.Protein.RotatedAtoms>
  151.5974  135.1049  160.0052 H   0  0  0  0  0  0  0  0  0  0  0  0  # atno 6907 bound_to 6896
  152.4275  133.7216  159.6547 H   0  0  0  0  0  0  0  0  0  0  0  0  # atno 6908 bound_to 6896
  150.8165  133.8256  159.3180 H   0  0  0  0  0  0  0  0  0  0  0  0  # atno 6909 bound_to 6896
  144.9551  140.7386  143.4764 H   0  0  0  0  0  0  0  0  0  0  0  0  # atno 7974 bound_to 7965
  154.6759  140.2622  155.6958 H   0  0  0  0  0  0  0  0  0  0  0  0  # atno 8008 bound_to 7997
  156.2678  140.2820  156.1208 H   0  0  0  0  0  0  0  0  0  0  0  0  # atno 8009 bound_to 7997
  155.1101  140.0375  157.2711 H   0  0  0  0  0  0  0  0  0  0  0  0  # atno 8010 bound_to 7997
  139.7760  144.6906  151.0089 H   0  0  0  0  0  0  0  0  0  0  0  0  # atno 10167 bound_to 10162
  156.5379  130.4671  149.6513 H   0  0  0  0  0  0  0  0  0  0  0  0  # atno 10718 bound_to 10713
  152.9918  135.6173  154.2726 H   0  0  0  0  0  0  0  0  0  0  0  0  # atno 10763 bound_to 10752
  154.2459  135.2787  155.2837 H   0  0  0  0  0  0  0  0  0  0  0  0  # atno 10764 bound_to 10752
  154.5330  135.5783  153.6832 H   0  0  0  0  0  0  0  0  0  0  0  0  # atno 10765 bound_to 10752
  140.5338  134.0440  155.7882 H   0  0  0  0  0  0  0  0  0  0  0  0  # atno 11005 bound_to 11000
  145.2785  139.1927  143.4803 LP  0  0  0  0  0  0  0  0  0  0  0  0  # atno 17320 bound_to 7965
  146.3334  140.2743  142.8607 LP  0  0  0  0  0  0  0  0  0  0  0  0  # atno 17321 bound_to 7965
  140.7816  143.4536  151.0378 LP  0  0  0  0  0  0  0  0  0  0  0  0  # atno 17342 bound_to 10162
  139.8218  143.7810  152.3177 LP  0  0  0  0  0  0  0  0  0  0  0  0  # atno 17343 bound_to 10162
  156.2999  130.7171  151.2040 LP  0  0  0  0  0  0  0  0  0  0  0  0  # atno 17370 bound_to 10713
  157.7410  131.0509  150.5124 LP  0  0  0  0  0  0  0  0  0  0  0  0  # atno 17371 bound_to 10713
  141.1266  133.9372  157.2622 LP  0  0  0  0  0  0  0  0  0  0  0  0  # atno 17394 bound_to 11000
  139.9540  135.0169  156.9075 LP  0  0  0  0  0  0  0  0  0  0  0  0  # atno 17395 bound_to 11000

$$$$
