AV-unprocessed.smi:1673|AV-procd|sdf|6709|dock7
  -GOLD-   22720 7453D 1   1.00000     0.00000
 Structure written by MMmdl.
 39 40  0  0  0  0  0  0  0  0  1 V2000
  147.7174  139.9896  153.7161 C   0  0  0  0  0  0  0  0  0  0  0  0
  149.1058  139.8366  154.2726 C   0  0  0  0  0  0  0  0  0  0  0  0
  149.7725  140.9191  154.6454 N   0  0  0  0  0  0  0  0  0  0  0  0
  151.0461  140.4896  155.0495 O   0  0  0  0  0  0  0  0  0  0  0  0
  151.1193  139.1402  154.9110 C   0  0  0  0  0  0  0  0  0  0  0  0
  152.4124  138.4912  155.2731 C   0  0  0  0  0  0  0  0  0  0  0  0
  149.9191  138.6798  154.4561 C   0  0  0  0  0  0  0  0  0  0  0  0
  149.6323  137.3222  154.1681 N   0  0  0  0  0  0  0  0  0  0  0  0
  149.7053  136.2877  155.0191 C   0  0  0  0  0  0  0  0  0  0  0  0
  150.0828  136.3659  156.1879 O   0  0  0  0  0  0  0  0  0  0  0  0
  149.3301  135.1436  154.4289 N   0  0  0  0  0  0  0  0  0  0  0  0
  149.2985  133.8243  155.0595 C   0  0  2  0  0  0  0  0  0  0  0  0
  150.5592  133.6641  155.9318 C   0  0  0  0  0  0  0  0  0  0  0  0
  150.6270  132.2757  156.5842 C   0  0  0  0  0  0  0  0  0  0  0  0
  150.5516  131.1677  155.5256 C   0  0  0  0  0  0  0  0  0  0  0  0
  149.2876  131.3133  154.6653 C   0  0  0  0  0  0  0  0  0  0  0  0
  149.2037  132.7001  153.9952 C   0  0  1  0  0  0  0  0  0  0  0  0
  147.9356  132.8014  153.1281 C   0  0  0  0  0  0  0  0  0  0  0  0
  147.5128  139.2392  152.9526 H   0  0  0  0  0  0  0  0  0  0  0  0
  147.5787  140.9675  153.2538 H   0  0  0  0  0  0  0  0  0  0  0  0
  146.9676  139.8858  154.5005 H   0  0  0  0  0  0  0  0  0  0  0  0
  152.4007  137.4289  155.0290 H   0  0  0  0  0  0  0  0  0  0  0  0
  152.6076  138.5900  156.3409 H   0  0  0  0  0  0  0  0  0  0  0  0
  153.2397  138.9518  154.7331 H   0  0  0  0  0  0  0  0  0  0  0  0
  149.4322  137.1056  153.2027 H   0  0  0  0  0  0  0  0  0  0  0  0
  149.0400  135.1859  153.4631 H   0  0  0  0  0  0  0  0  0  0  0  0
  148.4312  133.7461  155.7180 H   0  0  0  0  0  0  0  0  0  0  0  0
  151.4520  133.8191  155.3240 H   0  0  0  0  0  0  0  0  0  0  0  0
  150.5767  134.4315  156.7066 H   0  0  0  0  0  0  0  0  0  0  0  0
  151.5483  132.1786  157.1593 H   0  0  0  0  0  0  0  0  0  0  0  0
  149.8056  132.1629  157.2931 H   0  0  0  0  0  0  0  0  0  0  0  0
  151.4363  131.2076  154.8887 H   0  0  0  0  0  0  0  0  0  0  0  0
  150.5623  130.1905  156.0094 H   0  0  0  0  0  0  0  0  0  0  0  0
  149.2743  130.5307  153.9061 H   0  0  0  0  0  0  0  0  0  0  0  0
  148.4060  131.1522  155.2876 H   0  0  0  0  0  0  0  0  0  0  0  0
  150.0620  132.7941  153.3279 H   0  0  0  0  0  0  0  0  0  0  0  0
  147.0341  132.7598  153.7402 H   0  0  0  0  0  0  0  0  0  0  0  0
  147.8868  131.9832  152.4091 H   0  0  0  0  0  0  0  0  0  0  0  0
  147.9087  133.7301  152.5582 H   0  0  0  0  0  0  0  0  0  0  0  0
  1  2  1  0  0  0  0
  1 19  1  0  0  0  0
  1 20  1  0  0  0  0
  1 21  1  0  0  0  0
  2  7  1  0  0  0  0
  2  3  2  0  0  0  0
  3  4  1  0  0  0  0
  4  5  1  0  0  0  0
  5  6  1  0  0  0  0
  5  7  2  0  0  0  0
  6 22  1  0  0  0  0
  6 23  1  0  0  0  0
  6 24  1  0  0  0  0
  7  8  1  0  0  0  0
  8  9  1  0  0  0  0
  8 25  1  0  0  0  0
  9 10  2  0  0  0  0
  9 11  1  0  0  0  0
 11 12  1  0  0  0  0
 11 26  1  0  0  0  0
 12 17  1  0  0  0  0
 12 13  1  0  0  0  0
 12 27  1  0  0  0  0
 13 14  1  0  0  0  0
 13 28  1  0  0  0  0
 13 29  1  0  0  0  0
 14 15  1  0  0  0  0
 14 30  1  0  0  0  0
 14 31  1  0  0  0  0
 15 16  1  0  0  0  0
 15 32  1  0  0  0  0
 15 33  1  0  0  0  0
 16 17  1  0  0  0  0
 16 34  1  0  0  0  0
 16 35  1  0  0  0  0
 17 18  1  0  0  0  0
 17 36  1  0  0  0  0
 18 37  1  0  0  0  0
 18 38  1  0  0  0  0
 18 39  1  0  0  0  0
M  END
> <s_m_source_file>
AV-unprocessed.smi

> <i_m_source_file_index>
1673

> <i_lp_mmshare_version>
43012

> <i_f3d_flags>
0

> <s_epik_input>
W0NIM11jMW5vYyhbQ0gzXSljMVtOSF1DKD1PKVtOSF1bQ0BASF0yW0NIMl1bQ0gyXVtDSDJdW0NIMl1bQ0BIXTJbQ0gzXQ==

> <s_epik_cmdline>
J2VwaWtfcHl0aG9uJywgJy1waCcsICc3LjAnLCAnLXRuJywgJzgnLCAnLW1hJywgJzIwMCcsICctbWV0YWxfYmluZGluZycsICctaW1hZScsICc8aW5maWxlLm1hZT4nLCAnLW9tYWUnLCAnPG91dGZpbGUubWFlPic=

> <r_lp_tautomer_probability>
1

> <r_epik_Ionization_Penalty>
4.01865e-05

> <r_epik_Ionization_Penalty_Charging>
0

> <r_epik_Ionization_Penalty_Neutral>
4.01865e-05

> <r_epik_State_Penalty>
-0

> <r_epik_Charging_Adjusted_Penalty>
0

> <i_epik_Tot_Q>
0

> <i_epik_Tot_abs_Q>
0

> <r_epik_Metal_State_Penalty>
-0

> <b_epik_Metal_Only>
0

> <s_lp_Force_Field>
OPLS_2005

> <r_lp_Energy>
12.0287

> <b_lp_Chiralities_Consistent>
1

> <s_lp_Variant>
AV-unprocessed.smi:1673-1

> <Gold.Version>
5.8.1

> <Gold.Id.Protein>
6NUR|6NUR_protein|mol2

> <Gold.PLP.Fitness>
40.6320

> <Gold.PLP.PLP>
-34.6117

> <Gold.PLP.part.hbond>
-4.0281

> <Gold.PLP.part.metal>
0.0000

> <Gold.PLP.part.buried>
-2.6126

> <Gold.PLP.part.nonpolar>
-28.1976

> <Gold.PLP.part.repulsive>
0.2638

> <Gold.PLP.ligand.clash>
0.0000

> <Gold.PLP.ligand.torsion>
0.7561

> <Gold.PLP.Chemscore.Hbond>
2.4240

> <Gold.PLP.Chemscore.CHOScore>
0.0000

> <Gold.PLP.Chemscore.Metal>
0.0000

> <Gold.Chemscore.Hbonds>
donor molecule, donor type, donor heavy atom, donor atom, acceptor molecule, acceptor atom, score
      L1  H     8    25       P1  7948  1.00
      L1  H    11    26       P1  7948  0.94
      P1  H  7989  7998       L1     4  0.38

> <Gold.PLP.Chemscore.Internal.Correction>
0.2604

> <Gold.Rescore>
     Score         DG    S(hbond)    S(metal)    S(lipo)     H(rot)  DE(clash)    DE(int)     intcor
     15.25     -17.19       1.73        0.00      72.73       1.00       0.00       1.94       ----

> <Gold.Chemscore.Fitness>
15.2464

> <Gold.Chemscore.DG>
-17.1939

> <Gold.Chemscore.ZeroCoef>
-5.4800

> <Gold.Chemscore.Hbond>
1.7257

> <Gold.Chemscore.Metal>
0.0000

> <Gold.Chemscore.Lipo>
72.7346

> <Gold.Chemscore.Internal_Hbond>
0.0000

> <Gold.Chemscore.DEClash>
0.0030

> <Gold.Chemscore.DEInternal>
1.9446

> <Gold.Chemscore.Rot>
1.0000

> <Gold.Chemscore.Internal.Correction>
   9.000000E+99

> <Gold.Chemscore.Hbonds>
donor molecule, donor type, donor heavy atom, donor atom, acceptor molecule, acceptor atom, score
      L1  H     8    25       P1  7948  0.87
      L1  H    11    26       P1  7948  0.36

> <Gold.Chemscore.Hbond.Weighted>
-5.7640

> <Gold.Chemscore.Metal.Weighted>
-0.0000

> <Gold.Chemscore.Lipo.Weighted>
-8.5100

> <Gold.Chemscore.Internal_Hbond.Weighted>
0.0000

> <Gold.Chemscore.DEClash.Weighted>
0.0030

> <Gold.Chemscore.DEInternal.Weighted>
1.9446

> <Gold.Chemscore.Rot.Weighted>
2.5600

> <Gold.Chemscore.Internal.Correction.Weighted>
   9.000000E+99

> <Gold.Protein.RotatedTorsions>
[ 6907 6896 6895 6894 ] final  -81.98 input  -60.11 | X-H torsion
[ 7974 7965 7964 7962 ] final -158.55 input  175.53 | X-H torsion
[ 8008 7997 7996 7995 ] final  -11.64 input   59.86 | X-H torsion
[ 10167 10162 10161 10158 ] final -166.54 input  -65.29 | X-H torsion
[ 10718 10713 10712 10709 ] final    8.85 input   66.30 | X-H torsion
[ 10763 10752 10751 10750 ] final  101.94 input  -60.55 | X-H torsion
[ 11005 11000 10999 10996 ] final -103.70 input  -57.11 | X-H torsion

> <Gold.Protein.ActiveResidues>
 VAL166  LYS551  ARG553  GLY616  TRP617  ASP618  TYR619  PRO620  LYS621  CYS622 
 ASP623  PHE694  ASN695  SER759  ASP760  ASP761  ALA762  ILE779  LEU786  VAL792 
 PHE793  MET794  SER795  GLU796  ALA797  LYS798  CYS799  TRP800  GLU811  SER814 

> <Gold.Protein.RotatedAtoms>
  150.6904  134.3735  159.5002 H   0  0  0  0  0  0  0  0  0  0  0  0  # atno 6907 bound_to 6896
  152.1547  134.8957  160.0555 H   0  0  0  0  0  0  0  0  0  0  0  0  # atno 6908 bound_to 6896
  152.0042  133.3802  159.4230 H   0  0  0  0  0  0  0  0  0  0  0  0  # atno 6909 bound_to 6896
  144.7501  140.3812  143.6054 H   0  0  0  0  0  0  0  0  0  0  0  0  # atno 7974 bound_to 7965
  154.5447  140.2297  155.8583 H   0  0  0  0  0  0  0  0  0  0  0  0  # atno 8008 bound_to 7997
  156.1891  140.3081  155.9259 H   0  0  0  0  0  0  0  0  0  0  0  0  # atno 8009 bound_to 7997
  155.3189  140.0439  157.3029 H   0  0  0  0  0  0  0  0  0  0  0  0  # atno 8010 bound_to 7997
  139.6108  144.0819  152.1840 H   0  0  0  0  0  0  0  0  0  0  0  0  # atno 10167 bound_to 10162
  156.9577  130.5921  149.5660 H   0  0  0  0  0  0  0  0  0  0  0  0  # atno 10718 bound_to 10713
  153.3332  135.4027  155.1512 H   0  0  0  0  0  0  0  0  0  0  0  0  # atno 10763 bound_to 10752
  154.8627  135.3615  154.5443 H   0  0  0  0  0  0  0  0  0  0  0  0  # atno 10764 bound_to 10752
  153.5883  135.7074  153.5493 H   0  0  0  0  0  0  0  0  0  0  0  0  # atno 10765 bound_to 10752
  141.1134  133.8662  157.1519 H   0  0  0  0  0  0  0  0  0  0  0  0  # atno 11005 bound_to 11000
  145.6975  139.1653  143.2611 LP  0  0  0  0  0  0  0  0  0  0  0  0  # atno 17320 bound_to 7965
  146.1439  140.7020  142.9354 LP  0  0  0  0  0  0  0  0  0  0  0  0  # atno 17321 bound_to 7965
  140.0437  144.5987  150.7391 LP  0  0  0  0  0  0  0  0  0  0  0  0  # atno 17342 bound_to 10162
  140.7317  143.2698  151.3926 LP  0  0  0  0  0  0  0  0  0  0  0  0  # atno 17343 bound_to 10162
  156.0335  130.5425  150.8596 LP  0  0  0  0  0  0  0  0  0  0  0  0  # atno 17370 bound_to 10713
  157.5679  131.0946  150.9462 LP  0  0  0  0  0  0  0  0  0  0  0  0  # atno 17371 bound_to 10713
  140.0041  135.0016  157.0254 LP  0  0  0  0  0  0  0  0  0  0  0  0  # atno 17394 bound_to 11000
  140.4713  134.1383  155.7203 LP  0  0  0  0  0  0  0  0  0  0  0  0  # atno 17395 bound_to 11000

$$$$
