AV-unprocessed.smi:2170|AV-procd|sdf|8824|dock5
  -GOLD-   2272012 13D 1   1.00000     0.00000
 Structure written by MMmdl.
 46 47  0  0  0  0  0  0  0  0  1 V2000
  147.7372  132.6337  161.5207 C   0  0  0  0  0  0  0  0  0  0  0  0
  147.7299  134.1719  161.5072 C   0  0  0  0  0  0  0  0  0  0  0  0
  146.4502  134.7569  162.1313 C   0  0  0  0  0  0  0  0  0  0  0  0
  147.9696  134.6965  160.1419 N   0  0  0  0  0  0  0  0  0  0  0  0
  147.0778  134.1734  159.0906 C   0  0  0  0  0  0  0  0  0  0  0  0
  148.4429  136.3625  160.0068 S   0  0  0  0  0  0  0  0  0  0  0  0
  147.5708  137.1736  160.8703 O   0  0  0  0  0  0  0  0  0  0  0  0
  149.9072  136.4610  160.1107 O   0  0  0  0  0  0  0  0  0  0  0  0
  148.0105  136.6558  158.3632 N   0  0  0  0  0  0  0  0  0  0  0  0
  149.0481  136.9405  157.3740 C   0  0  0  0  0  0  0  0  0  0  0  0
  149.7920  138.2295  157.6622 C   0  0  0  0  0  0  0  0  0  0  0  0
  151.1421  138.2125  158.0618 C   0  0  0  0  0  0  0  0  0  0  0  0
  151.7887  139.4341  158.3303 C   0  0  0  0  0  0  0  0  0  0  0  0
  151.0662  140.6436  158.1912 C   0  0  0  0  0  0  0  0  0  0  0  0
  151.6945  141.8801  158.4557 N   0  0  0  0  0  0  0  0  0  0  0  0
  151.0628  143.0538  157.8577 C   0  0  0  0  0  0  0  0  0  0  0  0
  151.9979  144.2720  157.9517 C   0  0  0  0  0  0  0  0  0  0  0  0
  152.3828  144.4818  159.3063 O   0  0  0  0  0  0  0  0  0  0  0  0
  153.0959  143.3674  159.8321 C   0  0  0  0  0  0  0  0  0  0  0  0
  152.1984  142.1186  159.8071 C   0  0  0  0  0  0  0  0  0  0  0  0
  149.7638  140.6523  157.8119 N   0  0  0  0  0  0  0  0  0  0  0  0
  149.1487  139.4786  157.5557 C   0  0  0  0  0  0  0  0  0  0  0  0
  147.7143  132.2586  162.5442 H   0  0  0  0  0  0  0  0  0  0  0  0
  148.6393  132.2415  161.0500 H   0  0  0  0  0  0  0  0  0  0  0  0
  146.8766  132.2091  161.0047 H   0  0  0  0  0  0  0  0  0  0  0  0
  148.5645  134.4822  162.1355 H   0  0  0  0  0  0  0  0  0  0  0  0
  146.3564  134.4526  163.1739 H   0  0  0  0  0  0  0  0  0  0  0  0
  145.5517  134.4204  161.6136 H   0  0  0  0  0  0  0  0  0  0  0  0
  146.4630  135.8471  162.1095 H   0  0  0  0  0  0  0  0  0  0  0  0
  146.1037  134.6606  159.1410 H   0  0  0  0  0  0  0  0  0  0  0  0
  146.9342  133.0983  159.1829 H   0  0  0  0  0  0  0  0  0  0  0  0
  147.4973  134.3605  158.1031 H   0  0  0  0  0  0  0  0  0  0  0  0
  147.1444  137.1803  158.2441 H   0  0  0  0  0  0  0  0  0  0  0  0
  149.7654  136.1196  157.3768 H   0  0  0  0  0  0  0  0  0  0  0  0
  148.6046  136.9657  156.3779 H   0  0  0  0  0  0  0  0  0  0  0  0
  151.6736  137.2783  158.1675 H   0  0  0  0  0  0  0  0  0  0  0  0
  152.8184  139.4274  158.6547 H   0  0  0  0  0  0  0  0  0  0  0  0
  150.8037  142.8867  156.8132 H   0  0  0  0  0  0  0  0  0  0  0  0
  150.1309  143.2584  158.3864 H   0  0  0  0  0  0  0  0  0  0  0  0
  152.8823  144.1327  157.3276 H   0  0  0  0  0  0  0  0  0  0  0  0
  151.4886  145.1639  157.5862 H   0  0  0  0  0  0  0  0  0  0  0  0
  154.0090  143.2019  159.2580 H   0  0  0  0  0  0  0  0  0  0  0  0
  153.3991  143.5903  160.8548 H   0  0  0  0  0  0  0  0  0  0  0  0
  151.3567  142.2503  160.4882 H   0  0  0  0  0  0  0  0  0  0  0  0
  152.7697  141.2571  160.1550 H   0  0  0  0  0  0  0  0  0  0  0  0
  148.1112  139.5408  157.2619 H   0  0  0  0  0  0  0  0  0  0  0  0
  1  2  1  0  0  0  0
  1 23  1  0  0  0  0
  1 24  1  0  0  0  0
  1 25  1  0  0  0  0
  2  3  1  0  0  0  0
  2  4  1  0  0  0  0
  2 26  1  0  0  0  0
  3 27  1  0  0  0  0
  3 28  1  0  0  0  0
  3 29  1  0  0  0  0
  4  5  1  0  0  0  0
  4  6  1  0  0  0  0
  5 30  1  0  0  0  0
  5 31  1  0  0  0  0
  5 32  1  0  0  0  0
  6  7  2  0  0  0  0
  6  8  2  0  0  0  0
  6  9  1  0  0  0  0
  9 10  1  0  0  0  0
  9 33  1  0  0  0  0
 10 11  1  0  0  0  0
 10 34  1  0  0  0  0
 10 35  1  0  0  0  0
 11 22  1  0  0  0  0
 11 12  2  0  0  0  0
 12 13  1  0  0  0  0
 12 36  1  0  0  0  0
 13 14  2  0  0  0  0
 13 37  1  0  0  0  0
 14 15  1  0  0  0  0
 14 21  1  0  0  0  0
 15 20  1  0  0  0  0
 15 16  1  0  0  0  0
 16 17  1  0  0  0  0
 16 38  1  0  0  0  0
 16 39  1  0  0  0  0
 17 18  1  0  0  0  0
 17 40  1  0  0  0  0
 17 41  1  0  0  0  0
 18 19  1  0  0  0  0
 19 20  1  0  0  0  0
 19 42  1  0  0  0  0
 19 43  1  0  0  0  0
 20 44  1  0  0  0  0
 20 45  1  0  0  0  0
 21 22  2  0  0  0  0
 22 46  1  0  0  0  0
M  END
> <s_m_source_file>
AV-unprocessed.smi

> <i_m_source_file_index>
2170

> <i_lp_mmshare_version>
43012

> <i_f3d_flags>
0

> <s_epik_input>
W0NIM11bQ0hdKFtDSDNdKU4oW0NIM10pUyg9TykoPU8pW05IXVtDSDJdYzFbY0hdW2NIXWMobltjSF0xKU4yW0NIMl1bQ0gyXU9bQ0gyXVtDSDJdMg==

> <s_epik_cmdline>
J2VwaWtfcHl0aG9uJywgJy1waCcsICc3LjAnLCAnLXRuJywgJzgnLCAnLW1hJywgJzIwMCcsICctbWV0YWxfYmluZGluZycsICctaW1hZScsICc8aW5maWxlLm1hZT4nLCAnLW9tYWUnLCAnPG91dGZpbGUubWFlPic=

> <r_lp_tautomer_probability>
1

> <r_epik_Ionization_Penalty>
0.00966832

> <r_epik_Ionization_Penalty_Charging>
0

> <r_epik_Ionization_Penalty_Neutral>
0.00966832

> <r_epik_State_Penalty>
0.00558185

> <r_epik_Charging_Adjusted_Penalty>
0.00558185

> <i_epik_Tot_Q>
0

> <i_epik_Tot_abs_Q>
0

> <r_epik_Metal_State_Penalty>
0.341978

> <b_epik_Metal_Only>
0

> <s_lp_Force_Field>
OPLS_2005

> <r_lp_Energy>
19.49

> <b_lp_Chiralities_Consistent>
1

> <s_lp_Variant>
AV-unprocessed.smi:2170-1

> <Gold.Version>
5.8.1

> <Gold.Id.Protein>
6NUR|6NUR_protein|mol2

> <Gold.PLP.Fitness>
42.4564

> <Gold.PLP.PLP>
-35.2028

> <Gold.PLP.part.hbond>
-3.2148

> <Gold.PLP.part.metal>
0.0000

> <Gold.PLP.part.buried>
-4.2355

> <Gold.PLP.part.nonpolar>
-28.3598

> <Gold.PLP.part.repulsive>
0.0306

> <Gold.PLP.ligand.clash>
0.0064

> <Gold.PLP.ligand.torsion>
1.3198

> <Gold.PLP.Chemscore.Hbond>
2.7680

> <Gold.PLP.Chemscore.CHOScore>
0.0000

> <Gold.PLP.Chemscore.Metal>
0.0000

> <Gold.Chemscore.Hbonds>
donor molecule, donor type, donor heavy atom, donor atom, acceptor molecule, acceptor atom, score
      P1  H  6896  6907       L1     8  0.96
      P1  H  6931  6943       L1     7  0.69
      P1  H  6934  6947       L1     7  0.98

> <Gold.PLP.Chemscore.Internal.Correction>
1.5955

> <Gold.Rescore>
     Score         DG    S(hbond)    S(metal)    S(lipo)     H(rot)  DE(clash)    DE(int)     intcor
     17.36     -18.90       2.64        0.00      82.70       1.98       0.11       1.43       ----

> <Gold.Chemscore.Fitness>
17.3610

> <Gold.Chemscore.DG>
-18.8988

> <Gold.Chemscore.ZeroCoef>
-5.4800

> <Gold.Chemscore.Hbond>
2.6386

> <Gold.Chemscore.Metal>
0.0000

> <Gold.Chemscore.Lipo>
82.6960

> <Gold.Chemscore.Internal_Hbond>
0.0000

> <Gold.Chemscore.DEClash>
0.1071

> <Gold.Chemscore.DEInternal>
1.4307

> <Gold.Chemscore.Rot>
1.9803

> <Gold.Chemscore.Internal.Correction>
   9.000000E+99

> <Gold.Chemscore.Hbonds>
donor molecule, donor type, donor heavy atom, donor atom, acceptor molecule, acceptor atom, score
      P1  H  6896  6907       L1     8  0.81
      P1  H  6931  6943       L1     7  0.15
      P1  H  6934  6947       L1     7  0.93

> <Gold.Chemscore.Hbond.Weighted>
-8.8130

> <Gold.Chemscore.Metal.Weighted>
-0.0000

> <Gold.Chemscore.Lipo.Weighted>
-9.6754

> <Gold.Chemscore.Internal_Hbond.Weighted>
0.0000

> <Gold.Chemscore.DEClash.Weighted>
0.1071

> <Gold.Chemscore.DEInternal.Weighted>
1.4307

> <Gold.Chemscore.Rot.Weighted>
5.0696

> <Gold.Chemscore.Internal.Correction.Weighted>
   9.000000E+99

> <Gold.Protein.RotatedTorsions>
[ 6907 6896 6895 6894 ] final  -53.03 input  -60.11 | X-H torsion
[ 7974 7965 7964 7962 ] final -156.01 input  175.53 | X-H torsion
[ 8008 7997 7996 7995 ] final  -91.20 input   59.86 | X-H torsion
[ 10167 10162 10161 10158 ] final  116.89 input  -65.29 | X-H torsion
[ 10718 10713 10712 10709 ] final  -79.01 input   66.30 | X-H torsion
[ 10763 10752 10751 10750 ] final -150.19 input  -60.55 | X-H torsion
[ 11005 11000 10999 10996 ] final   17.11 input  -57.11 | X-H torsion

> <Gold.Protein.ActiveResidues>
 VAL166  LYS551  ARG553  GLY616  TRP617  ASP618  TYR619  PRO620  LYS621  CYS622 
 ASP623  PHE694  ASN695  SER759  ASP760  ASP761  ALA762  ILE779  LEU786  VAL792 
 PHE793  MET794  SER795  GLU796  ALA797  LYS798  CYS799  TRP800  GLU811  SER814 

> <Gold.Protein.RotatedAtoms>
  150.8464  134.7774  159.6973 H   0  0  0  0  0  0  0  0  0  0  0  0  # atno 6907 bound_to 6896
  152.4540  134.5329  159.9826 H   0  0  0  0  0  0  0  0  0  0  0  0  # atno 6908 bound_to 6896
  151.5459  133.3387  159.2979 H   0  0  0  0  0  0  0  0  0  0  0  0  # atno 6909 bound_to 6896
  144.7613  140.4169  143.5975 H   0  0  0  0  0  0  0  0  0  0  0  0  # atno 7974 bound_to 7965
  154.7078  140.0522  157.0521 H   0  0  0  0  0  0  0  0  0  0  0  0  # atno 8008 bound_to 7997
  155.0596  140.3188  155.4646 H   0  0  0  0  0  0  0  0  0  0  0  0  # atno 8009 bound_to 7997
  156.2780  140.2101  156.5723 H   0  0  0  0  0  0  0  0  0  0  0  0  # atno 8010 bound_to 7997
  139.6216  144.7102  151.2623 H   0  0  0  0  0  0  0  0  0  0  0  0  # atno 10167 bound_to 10162
  156.0103  130.4534  150.3583 H   0  0  0  0  0  0  0  0  0  0  0  0  # atno 10718 bound_to 10713
  154.8133  135.3290  154.7245 H   0  0  0  0  0  0  0  0  0  0  0  0  # atno 10763 bound_to 10752
  153.7890  135.6912  153.4879 H   0  0  0  0  0  0  0  0  0  0  0  0  # atno 10764 bound_to 10752
  153.1929  135.4544  155.0118 H   0  0  0  0  0  0  0  0  0  0  0  0  # atno 10765 bound_to 10752
  140.4396  134.1335  155.7689 H   0  0  0  0  0  0  0  0  0  0  0  0  # atno 11005 bound_to 11000
  145.6612  139.1581  143.2807 LP  0  0  0  0  0  0  0  0  0  0  0  0  # atno 17320 bound_to 7965
  146.1678  140.6692  142.9247 LP  0  0  0  0  0  0  0  0  0  0  0  0  # atno 17321 bound_to 7965
  140.7385  143.6646  150.8134 LP  0  0  0  0  0  0  0  0  0  0  0  0  # atno 17342 bound_to 10162
  140.0257  143.5496  152.2781 LP  0  0  0  0  0  0  0  0  0  0  0  0  # atno 17343 bound_to 10162
  157.1673  131.0360  151.2812 LP  0  0  0  0  0  0  0  0  0  0  0  0  # atno 17370 bound_to 10713
  157.4260  130.7464  149.6951 LP  0  0  0  0  0  0  0  0  0  0  0  0  # atno 17371 bound_to 10713
  141.1711  133.8606  157.1567 LP  0  0  0  0  0  0  0  0  0  0  0  0  # atno 17394 bound_to 11000
  140.0079  135.0001  157.0332 LP  0  0  0  0  0  0  0  0  0  0  0  0  # atno 17395 bound_to 11000

$$$$
