AV-unprocessed.smi:193|AV-procd|sdf|1506|dock5
  -GOLD-   2262019333D 1   1.00000     0.00000
 Structure written by MMmdl.
 62 66  0  0  0  0  0  0  0  0  2 V2000
  146.0301  136.3208  155.6993 C   0  0  0  0  0  0  0  0  0  0  0  0
  147.3924  135.6669  155.4223 C   0  0  2  0  0  0  0  0  0  0  0  0
  148.4328  136.7227  154.9991 C   0  0  0  0  0  0  0  0  0  0  0  0
  149.7886  136.3305  155.3814 N   0  0  0  0  0  0  0  0  0  0  0  0
  150.6016  137.3935  155.5519 C   0  0  0  0  0  0  0  0  0  0  0  0
  151.9357  137.1851  155.4398 N   0  0  0  0  0  0  0  0  0  0  0  0
  152.7842  138.2044  155.6087 C   0  0  0  0  0  0  0  0  0  0  0  0
  152.5110  139.4809  155.8895 N   0  0  0  0  0  0  0  0  0  0  0  0
  151.1675  139.6898  156.0015 C   0  0  0  0  0  0  0  0  0  0  0  0
  150.1489  138.7084  155.8511 C   0  0  0  0  0  0  0  0  0  0  0  0
  148.8986  139.2846  156.0396 N   0  0  0  0  0  0  0  0  0  0  0  0
  149.1634  140.5399  156.2813 C   0  0  0  0  0  0  0  0  0  0  0  0
  150.4999  140.8713  156.2724 N   0  0  0  0  0  0  0  0  0  0  0  0
  151.0712  142.1882  156.5086 C   0  0  0  0  0  0  0  0  0  0  0  0
  151.3433  142.4961  158.0018 C   0  0  0  0  0  0  0  0  0  0  0  0
  150.1196  142.3492  158.7024 O   0  0  0  0  0  0  0  0  0  0  0  0
  152.3589  141.4903  158.5801 C   0  0  0  0  0  0  0  0  0  0  0  0
  152.7932  141.8591  160.0097 C   0  0  0  0  0  0  0  0  0  0  0  0
  153.3089  143.1843  160.0342 O   0  0  0  0  0  0  0  0  0  0  0  0
  152.3370  144.1586  159.6749 C   0  0  0  0  0  0  0  0  0  0  0  0
  151.8673  143.9315  158.2271 C   0  0  0  0  0  0  0  0  0  0  0  0
  150.4502  135.2282  154.6874 C   0  0  0  0  0  0  0  0  0  0  0  0
  149.6325  133.9278  154.6766 C   0  0  0  0  0  0  0  0  0  0  0  0
  148.4807  134.0601  153.7528 N   0  3  1  0  0  0  0  0  0  0  0  0
  148.2613  132.8544  152.9201 C   0  0  2  0  0  0  0  0  0  0  0  0
  146.8056  132.4729  152.7673 C   0  0  0  0  0  0  0  0  0  0  0  0
  147.7061  131.6506  153.6623 C   0  0  2  0  0  0  0  0  0  0  0  0
  147.4643  131.6223  155.1609 C   0  0  0  0  0  0  0  0  0  0  0  0
  147.2243  134.5183  154.4004 C   0  0  0  0  0  0  0  0  0  0  0  0
  145.6265  136.7961  154.8046 H   0  0  0  0  0  0  0  0  0  0  0  0
  146.1095  137.0849  156.4734 H   0  0  0  0  0  0  0  0  0  0  0  0
  145.3034  135.5841  156.0427 H   0  0  0  0  0  0  0  0  0  0  0  0
  147.7195  135.2396  156.3717 H   0  0  0  0  0  0  0  0  0  0  0  0
  148.3794  136.9117  153.9259 H   0  0  0  0  0  0  0  0  0  0  0  0
  148.1969  137.6697  155.4887 H   0  0  0  0  0  0  0  0  0  0  0  0
  153.8318  137.9631  155.5039 H   0  0  0  0  0  0  0  0  0  0  0  0
  148.3864  141.2665  156.4705 H   0  0  0  0  0  0  0  0  0  0  0  0
  151.9935  142.2678  155.9312 H   0  0  0  0  0  0  0  0  0  0  0  0
  150.3899  142.9315  156.0924 H   0  0  0  0  0  0  0  0  0  0  0  0
  150.2783  141.8318  159.4771 H   0  0  0  0  0  0  0  0  0  0  0  0
  151.9502  140.4789  158.5616 H   0  0  0  0  0  0  0  0  0  0  0  0
  153.2466  141.4714  157.9463 H   0  0  0  0  0  0  0  0  0  0  0  0
  151.9628  141.7654  160.7110 H   0  0  0  0  0  0  0  0  0  0  0  0
  153.5710  141.1751  160.3496 H   0  0  0  0  0  0  0  0  0  0  0  0
  151.4973  144.1250  160.3704 H   0  0  0  0  0  0  0  0  0  0  0  0
  152.7834  145.1488  159.7687 H   0  0  0  0  0  0  0  0  0  0  0  0
  152.7096  144.1140  157.5586 H   0  0  0  0  0  0  0  0  0  0  0  0
  151.1066  144.6697  157.9699 H   0  0  0  0  0  0  0  0  0  0  0  0
  150.6905  135.5197  153.6641 H   0  0  0  0  0  0  0  0  0  0  0  0
  151.4024  135.0349  155.1844 H   0  0  0  0  0  0  0  0  0  0  0  0
  150.2913  133.1332  154.3244 H   0  0  0  0  0  0  0  0  0  0  0  0
  149.3179  133.6281  155.6773 H   0  0  0  0  0  0  0  0  0  0  0  0
  148.9415  132.7262  152.0799 H   0  0  0  0  0  0  0  0  0  0  0  0
  146.0562  133.1031  153.2436 H   0  0  0  0  0  0  0  0  0  0  0  0
  146.5000  132.0237  151.8245 H   0  0  0  0  0  0  0  0  0  0  0  0
  148.0108  130.6842  153.2650 H   0  0  0  0  0  0  0  0  0  0  0  0
  147.0827  132.5776  155.5227 H   0  0  0  0  0  0  0  0  0  0  0  0
  148.3904  131.3917  155.6873 H   0  0  0  0  0  0  0  0  0  0  0  0
  146.7326  130.8512  155.4028 H   0  0  0  0  0  0  0  0  0  0  0  0
  146.7451  133.6730  154.8970 H   0  0  0  0  0  0  0  0  0  0  0  0
  146.5433  134.8315  153.6089 H   0  0  0  0  0  0  0  0  0  0  0  0
  148.7457  134.7890  153.1056 H   0  0  0  0  0  0  0  0  0  0  0  0
  1  2  1  0  0  0  0
  1 30  1  0  0  0  0
  1 31  1  0  0  0  0
  1 32  1  0  0  0  0
  2 29  1  0  0  0  0
  2  3  1  0  0  0  0
  2 33  1  0  0  0  0
  3  4  1  0  0  0  0
  3 34  1  0  0  0  0
  3 35  1  0  0  0  0
  4  5  1  0  0  0  0
  4 22  1  0  0  0  0
  5 10  1  0  0  0  0
  5  6  2  0  0  0  0
  6  7  1  0  0  0  0
  7  8  2  0  0  0  0
  7 36  1  0  0  0  0
  8  9  1  0  0  0  0
  9 13  1  0  0  0  0
  9 10  2  0  0  0  0
 10 11  1  0  0  0  0
 11 12  2  0  0  0  0
 12 13  1  0  0  0  0
 12 37  1  0  0  0  0
 13 14  1  0  0  0  0
 14 15  1  0  0  0  0
 14 38  1  0  0  0  0
 14 39  1  0  0  0  0
 15 21  1  0  0  0  0
 15 16  1  0  0  0  0
 15 17  1  0  0  0  0
 16 40  1  0  0  0  0
 17 18  1  0  0  0  0
 17 41  1  0  0  0  0
 17 42  1  0  0  0  0
 18 19  1  0  0  0  0
 18 43  1  0  0  0  0
 18 44  1  0  0  0  0
 19 20  1  0  0  0  0
 20 21  1  0  0  0  0
 20 45  1  0  0  0  0
 20 46  1  0  0  0  0
 21 47  1  0  0  0  0
 21 48  1  0  0  0  0
 22 23  1  0  0  0  0
 22 49  1  0  0  0  0
 22 50  1  0  0  0  0
 23 24  1  0  0  0  0
 23 51  1  0  0  0  0
 23 52  1  0  0  0  0
 24 25  1  0  0  0  0
 24 29  1  0  0  0  0
 24 62  1  0  0  0  0
 25 27  1  0  0  0  0
 25 26  1  0  0  0  0
 25 53  1  0  0  0  0
 26 27  1  0  0  0  0
 26 54  1  0  0  0  0
 26 55  1  0  0  0  0
 27 28  1  0  0  0  0
 27 56  1  0  0  0  0
 28 57  1  0  0  0  0
 28 58  1  0  0  0  0
 28 59  1  0  0  0  0
 29 60  1  0  0  0  0
 29 61  1  0  0  0  0
M  CHG  1  24   1
M  END
> <s_m_source_file>
AV-unprocessed.smi

> <i_m_source_file_index>
193

> <i_lp_mmshare_version>
43012

> <i_f3d_flags>
0

> <s_epik_input>
W0NIM11bQ0BASF0xW0NIMl1bQ0BIXTFOKFtDSDJdMilbQ0gyXVtDSDJdTihbQ0gyXVtDQEhdMltDSDNdKWMobltjSF1uMyljKGMzNCluW2NIXW40W0NIMl1DNShbT0hdKVtDSDJdW0NIMl1PW0NIMl1bQ0gyXTU=

> <s_epik_cmdline>
J2VwaWtfcHl0aG9uJywgJy1waCcsICc3LjAnLCAnLXRuJywgJzgnLCAnLW1hJywgJzIwMCcsICctbWV0YWxfYmluZGluZycsICctaW1hZScsICc8aW5maWxlLm1hZT4nLCAnLW9tYWUnLCAnPG91dGZpbGUubWFlPic=

> <r_lp_tautomer_probability>
1

> <r_epik_Ionization_Penalty>
0.0540825

> <r_epik_Ionization_Penalty_Charging>
0.0538476

> <r_epik_Ionization_Penalty_Neutral>
0.000234891

> <r_epik_State_Penalty>
0.0200719

> <r_epik_Charging_Adjusted_Penalty>
0.0739194

> <i_epik_Tot_Q>
1

> <i_epik_Tot_abs_Q>
1

> <r_epik_Metal_State_Penalty>
0.0199414

> <b_epik_Metal_Only>
0

> <s_lp_Force_Field>
OPLS_2005

> <r_lp_Energy>
59.2238

> <b_lp_Chiralities_Consistent>
1

> <s_lp_Variant>
AV-unprocessed.smi:193-11

> <Gold.Version>
5.8.1

> <Gold.Id.Protein>
6NUR|6NUR_protein|mol2

> <Gold.PLP.Fitness>
50.5466

> <Gold.PLP.PLP>
-44.1836

> <Gold.PLP.part.hbond>
-3.1049

> <Gold.PLP.part.metal>
0.0000

> <Gold.PLP.part.buried>
-7.4005

> <Gold.PLP.part.nonpolar>
-35.7017

> <Gold.PLP.part.repulsive>
0.1715

> <Gold.PLP.ligand.clash>
3.5486

> <Gold.PLP.ligand.torsion>
1.6425

> <Gold.PLP.Chemscore.Hbond>
3.8596

> <Gold.PLP.Chemscore.CHOScore>
0.0000

> <Gold.PLP.Chemscore.Metal>
0.0000

> <Gold.Chemscore.Hbonds>
donor molecule, donor type, donor heavy atom, donor atom, acceptor molecule, acceptor atom, score
      L1  H    24    62       P1  7948  2.00
      P1  H  7997  8008       L1     8  0.95
      P1  H 10752 10764       L1     6  0.86

> <Gold.PLP.Chemscore.Internal.Correction>
1.6178

> <Gold.Rescore>
     Score         DG    S(hbond)    S(metal)    S(lipo)     H(rot)  DE(clash)    DE(int)     intcor
     12.87     -17.45       1.73        0.00     101.15       2.20       0.48       4.11       ----

> <Gold.Chemscore.Fitness>
12.8705

> <Gold.Chemscore.DG>
-17.4509

> <Gold.Chemscore.ZeroCoef>
-5.4800

> <Gold.Chemscore.Hbond>
1.7285

> <Gold.Chemscore.Metal>
0.0000

> <Gold.Chemscore.Lipo>
101.1474

> <Gold.Chemscore.Internal_Hbond>
0.0000

> <Gold.Chemscore.DEClash>
0.4754

> <Gold.Chemscore.DEInternal>
4.1051

> <Gold.Chemscore.Rot>
2.2018

> <Gold.Chemscore.Internal.Correction>
   9.000000E+99

> <Gold.Chemscore.Hbonds>
donor molecule, donor type, donor heavy atom, donor atom, acceptor molecule, acceptor atom, score
      L1  H    24    62       P1  7948  0.26
      P1  H  7997  8008       L1     8  0.21
      P1  H 10752 10764       L1     6  0.56

> <Gold.Chemscore.Hbond.Weighted>
-5.7733

> <Gold.Chemscore.Metal.Weighted>
-0.0000

> <Gold.Chemscore.Lipo.Weighted>
-11.8342

> <Gold.Chemscore.Internal_Hbond.Weighted>
0.0000

> <Gold.Chemscore.DEClash.Weighted>
0.4754

> <Gold.Chemscore.DEInternal.Weighted>
4.1051

> <Gold.Chemscore.Rot.Weighted>
5.6366

> <Gold.Chemscore.Internal.Correction.Weighted>
   9.000000E+99

> <Gold.Protein.RotatedTorsions>
[ 6907 6896 6895 6894 ] final  148.84 input  -60.11 | X-H torsion
[ 7974 7965 7964 7962 ] final   12.70 input  175.53 | X-H torsion
[ 8008 7997 7996 7995 ] final  -33.00 input   59.86 | X-H torsion
[ 10167 10162 10161 10158 ] final   73.60 input  -65.29 | X-H torsion
[ 10718 10713 10712 10709 ] final  165.83 input   66.30 | X-H torsion
[ 10763 10752 10751 10750 ] final  -60.89 input  -60.55 | X-H torsion
[ 11005 11000 10999 10996 ] final  149.25 input  -57.11 | X-H torsion

> <Gold.Protein.ActiveResidues>
 VAL166  LYS551  ARG553  GLY616  TRP617  ASP618  TYR619  PRO620  LYS621  CYS622 
 ASP623  PHE694  ASN695  SER759  ASP760  ASP761  ALA762  ILE779  LEU786  VAL792 
 PHE793  MET794  SER795  GLU796  ALA797  LYS798  CYS799  TRP800  GLU811  SER814 

> <Gold.Protein.RotatedAtoms>
  152.1361  133.4436  159.4743 H   0  0  0  0  0  0  0  0  0  0  0  0  # atno 6907 bound_to 6896
  150.6882  134.2362  159.4463 H   0  0  0  0  0  0  0  0  0  0  0  0  # atno 6908 bound_to 6896
  152.0249  134.9801  160.0622 H   0  0  0  0  0  0  0  0  0  0  0  0  # atno 6909 bound_to 6896
  146.2346  139.9298  142.8498 H   0  0  0  0  0  0  0  0  0  0  0  0  # atno 7974 bound_to 7965
  154.4162  140.1722  156.1817 H   0  0  0  0  0  0  0  0  0  0  0  0  # atno 8008 bound_to 7997
  155.9676  140.3388  155.6523 H   0  0  0  0  0  0  0  0  0  0  0  0  # atno 8009 bound_to 7997
  155.6667  140.0707  157.2525 H   0  0  0  0  0  0  0  0  0  0  0  0  # atno 8010 bound_to 7997
  140.0228  144.5527  150.7568 H   0  0  0  0  0  0  0  0  0  0  0  0  # atno 10167 bound_to 10162
  157.0745  131.0375  151.2599 H   0  0  0  0  0  0  0  0  0  0  0  0  # atno 10718 bound_to 10713
  154.2762  135.6281  153.5329 H   0  0  0  0  0  0  0  0  0  0  0  0  # atno 10763 bound_to 10752
  152.9872  135.5622  154.5546 H   0  0  0  0  0  0  0  0  0  0  0  0  # atno 10764 bound_to 10752
  154.5127  135.2878  155.1305 H   0  0  0  0  0  0  0  0  0  0  0  0  # atno 10765 bound_to 10752
  140.1029  134.8972  157.1822 H   0  0  0  0  0  0  0  0  0  0  0  0  # atno 11005 bound_to 11000
  145.2055  140.9873  143.4131 LP  0  0  0  0  0  0  0  0  0  0  0  0  # atno 17320 bound_to 7965
  144.9736  139.3854  143.6296 LP  0  0  0  0  0  0  0  0  0  0  0  0  # atno 17321 bound_to 7965
  140.7335  143.2718  151.3864 LP  0  0  0  0  0  0  0  0  0  0  0  0  # atno 17342 bound_to 10162
  139.6128  144.1063  152.2316 LP  0  0  0  0  0  0  0  0  0  0  0  0  # atno 17343 bound_to 10162
  157.4850  130.7788  149.7451 LP  0  0  0  0  0  0  0  0  0  0  0  0  # atno 17370 bound_to 10713
  155.9941  130.3920  150.2874 LP  0  0  0  0  0  0  0  0  0  0  0  0  # atno 17371 bound_to 10713
  140.3195  134.2932  155.7249 LP  0  0  0  0  0  0  0  0  0  0  0  0  # atno 17394 bound_to 11000
  141.2110  133.7701  156.9891 LP  0  0  0  0  0  0  0  0  0  0  0  0  # atno 17395 bound_to 11000

$$$$
