AV-unprocessed.smi:3285|AV-procd|sdf|12584|dock6
  -GOLD-   2272018503D 1   1.00000     0.00000
 Structure written by MMmdl.
 45 46  0  0  0  0  0  0  0  0  2 V2000
  149.8475  138.8083  154.3560 C   0  0  0  0  0  0  0  0  0  0  0  0
  148.7191  139.7981  154.3019 C   0  0  0  0  0  0  0  0  0  0  0  0
  147.7948  139.6712  153.3657 N   0  0  0  0  0  0  0  0  0  0  0  0
  146.8962  140.7226  153.5680 O   0  0  0  0  0  0  0  0  0  0  0  0
  147.3194  141.4510  154.6313 C   0  0  0  0  0  0  0  0  0  0  0  0
  146.4761  142.6233  155.0062 C   0  0  0  0  0  0  0  0  0  0  0  0
  148.4694  140.9176  155.1478 C   0  0  0  0  0  0  0  0  0  0  0  0
  149.2830  141.3874  156.3276 C   0  0  0  0  0  0  0  0  0  0  0  0
  150.6825  141.8653  155.9114 C   0  0  0  0  0  0  0  0  0  0  0  0
  151.0026  143.1773  156.5137 N   0  3  0  0  0  0  0  0  0  0  0  0
  151.0691  143.2024  157.9908 C   0  0  2  0  0  0  0  0  0  0  0  0
  151.3274  144.6392  158.4695 C   0  0  0  0  0  0  0  0  0  0  0  0
  151.4180  144.7069  159.9997 C   0  0  0  0  0  0  0  0  0  0  0  0
  152.5086  143.7695  160.5556 C   0  0  1  0  0  0  0  0  0  0  0  0
  152.5632  143.8849  162.0893 C   0  0  0  0  0  0  0  0  0  0  0  0
  152.2798  142.3148  160.0661 C   0  0  2  0  0  0  0  0  0  0  0  0
  153.3754  141.3439  160.5413 C   0  0  0  0  0  0  0  0  0  0  0  0
  152.1681  142.2646  158.5274 C   0  0  0  0  0  0  0  0  0  0  0  0
  150.3749  138.8543  155.3085 H   0  0  0  0  0  0  0  0  0  0  0  0
  150.5733  139.0010  153.5659 H   0  0  0  0  0  0  0  0  0  0  0  0
  149.4842  137.7878  154.2317 H   0  0  0  0  0  0  0  0  0  0  0  0
  146.8946  143.1555  155.8602 H   0  0  0  0  0  0  0  0  0  0  0  0
  145.4681  142.3040  155.2707 H   0  0  0  0  0  0  0  0  0  0  0  0
  146.4009  143.3259  154.1762 H   0  0  0  0  0  0  0  0  0  0  0  0
  148.7717  142.2030  156.8398 H   0  0  0  0  0  0  0  0  0  0  0  0
  149.3788  140.5975  157.0732 H   0  0  0  0  0  0  0  0  0  0  0  0
  151.4291  141.1310  156.2171 H   0  0  0  0  0  0  0  0  0  0  0  0
  150.7322  141.9394  154.8251 H   0  0  0  0  0  0  0  0  0  0  0  0
  151.8768  143.5149  156.1372 H   0  0  0  0  0  0  0  0  0  0  0  0
  150.1015  142.8838  158.3822 H   0  0  0  0  0  0  0  0  0  0  0  0
  152.2534  145.0177  158.0338 H   0  0  0  0  0  0  0  0  0  0  0  0
  150.5304  145.2982  158.1225 H   0  0  0  0  0  0  0  0  0  0  0  0
  151.6218  145.7348  160.3021 H   0  0  0  0  0  0  0  0  0  0  0  0
  150.4510  144.4463  160.4328 H   0  0  0  0  0  0  0  0  0  0  0  0
  153.4690  144.1121  160.1670 H   0  0  0  0  0  0  0  0  0  0  0  0
  151.6599  143.4838  162.5498 H   0  0  0  0  0  0  0  0  0  0  0  0
  152.6583  144.9258  162.3998 H   0  0  0  0  0  0  0  0  0  0  0  0
  153.4180  143.3527  162.5055 H   0  0  0  0  0  0  0  0  0  0  0  0
  151.3317  141.9645  160.4772 H   0  0  0  0  0  0  0  0  0  0  0  0
  154.3653  141.6775  160.2282 H   0  0  0  0  0  0  0  0  0  0  0  0
  153.2182  140.3454  160.1322 H   0  0  0  0  0  0  0  0  0  0  0  0
  153.3831  141.2415  161.6262 H   0  0  0  0  0  0  0  0  0  0  0  0
  151.9652  141.2386  158.2204 H   0  0  0  0  0  0  0  0  0  0  0  0
  153.1281  142.5330  158.0833 H   0  0  0  0  0  0  0  0  0  0  0  0
  150.2693  143.8136  156.2346 H   0  0  0  0  0  0  0  0  0  0  0  0
  1  2  1  0  0  0  0
  1 19  1  0  0  0  0
  1 20  1  0  0  0  0
  1 21  1  0  0  0  0
  2  7  1  0  0  0  0
  2  3  2  0  0  0  0
  3  4  1  0  0  0  0
  4  5  1  0  0  0  0
  5  6  1  0  0  0  0
  5  7  2  0  0  0  0
  6 22  1  0  0  0  0
  6 23  1  0  0  0  0
  6 24  1  0  0  0  0
  7  8  1  0  0  0  0
  8  9  1  0  0  0  0
  8 25  1  0  0  0  0
  8 26  1  0  0  0  0
  9 10  1  0  0  0  0
  9 27  1  0  0  0  0
  9 28  1  0  0  0  0
 10 11  1  0  0  0  0
 10 29  1  0  0  0  0
 10 45  1  0  0  0  0
 11 18  1  0  0  0  0
 11 12  1  0  0  0  0
 11 30  1  0  0  0  0
 12 13  1  0  0  0  0
 12 31  1  0  0  0  0
 12 32  1  0  0  0  0
 13 14  1  0  0  0  0
 13 33  1  0  0  0  0
 13 34  1  0  0  0  0
 14 15  1  0  0  0  0
 14 16  1  0  0  0  0
 14 35  1  0  0  0  0
 15 36  1  0  0  0  0
 15 37  1  0  0  0  0
 15 38  1  0  0  0  0
 16 17  1  0  0  0  0
 16 18  1  0  0  0  0
 16 39  1  0  0  0  0
 17 40  1  0  0  0  0
 17 41  1  0  0  0  0
 17 42  1  0  0  0  0
 18 43  1  0  0  0  0
 18 44  1  0  0  0  0
M  CHG  1  10   1
M  END
> <s_m_source_file>
AV-unprocessed.smi

> <i_m_source_file_index>
3285

> <i_lp_mmshare_version>
43012

> <i_f3d_flags>
0

> <s_epik_input>
W0NIM11jMW5vYyhbQ0gzXSljMVtDSDJdW0NIMl1bTkhdW0NAQEhdMltDSDJdW0NIMl1bQ0BASF0oW0NIM10pW0NAQEhdKFtDSDNdKVtDSDJdMg==

> <s_epik_cmdline>
J2VwaWtfcHl0aG9uJywgJy1waCcsICc3LjAnLCAnLXRuJywgJzgnLCAnLW1hJywgJzIwMCcsICctbWV0YWxfYmluZGluZycsICctaW1hZScsICc8aW5maWxlLm1hZT4nLCAnLW9tYWUnLCAnPG91dGZpbGUubWFlPic=

> <r_lp_tautomer_probability>
1

> <r_epik_Ionization_Penalty>
0.000204615

> <r_epik_Ionization_Penalty_Charging>
0.000204615

> <r_epik_Ionization_Penalty_Neutral>
9.28663e-11

> <r_epik_State_Penalty>
-0

> <r_epik_Charging_Adjusted_Penalty>
0.000204615

> <i_epik_Tot_Q>
1

> <i_epik_Tot_abs_Q>
1

> <r_epik_Metal_State_Penalty>
-0

> <b_epik_Metal_Only>
0

> <s_lp_Force_Field>
OPLS_2005

> <r_lp_Energy>
12.3139

> <b_lp_Chiralities_Consistent>
1

> <s_lp_Variant>
AV-unprocessed.smi:3285-5

> <Gold.Version>
5.8.1

> <Gold.Id.Protein>
6NUR|6NUR_protein|mol2

> <Gold.PLP.Fitness>
47.3935

> <Gold.PLP.PLP>
-42.1342

> <Gold.PLP.part.hbond>
-1.0000

> <Gold.PLP.part.metal>
0.0000

> <Gold.PLP.part.buried>
-6.5296

> <Gold.PLP.part.nonpolar>
-36.0860

> <Gold.PLP.part.repulsive>
2.1992

> <Gold.PLP.ligand.clash>
0.0000

> <Gold.PLP.ligand.torsion>
0.3715

> <Gold.PLP.Chemscore.Hbond>
2.0000

> <Gold.PLP.Chemscore.CHOScore>
0.0000

> <Gold.PLP.Chemscore.Metal>
0.0000

> <Gold.Chemscore.Hbonds>
donor molecule, donor type, donor heavy atom, donor atom, acceptor molecule, acceptor atom, score
      L1  H    10    45       P1  8028  2.00

> <Gold.PLP.Chemscore.Internal.Correction>
0.0023

> <Gold.Rescore>
     Score         DG    S(hbond)    S(metal)    S(lipo)     H(rot)  DE(clash)    DE(int)     intcor
     19.70     -20.25       1.00        0.00     127.19       1.35       0.25       0.30       ----

> <Gold.Chemscore.Fitness>
19.6957

> <Gold.Chemscore.DG>
-20.2541

> <Gold.Chemscore.ZeroCoef>
-5.4800

> <Gold.Chemscore.Hbond>
1.0000

> <Gold.Chemscore.Metal>
0.0000

> <Gold.Chemscore.Lipo>
127.1890

> <Gold.Chemscore.Internal_Hbond>
0.0000

> <Gold.Chemscore.DEClash>
0.2540

> <Gold.Chemscore.DEInternal>
0.3044

> <Gold.Chemscore.Rot>
1.3465

> <Gold.Chemscore.Internal.Correction>
   9.000000E+99

> <Gold.Chemscore.Hbonds>
donor molecule, donor type, donor heavy atom, donor atom, acceptor molecule, acceptor atom, score
      L1  H    10    45       P1  8028  1.00

> <Gold.Chemscore.Hbond.Weighted>
-3.3400

> <Gold.Chemscore.Metal.Weighted>
-0.0000

> <Gold.Chemscore.Lipo.Weighted>
-14.8811

> <Gold.Chemscore.Internal_Hbond.Weighted>
0.0000

> <Gold.Chemscore.DEClash.Weighted>
0.2540

> <Gold.Chemscore.DEInternal.Weighted>
0.3044

> <Gold.Chemscore.Rot.Weighted>
3.4470

> <Gold.Chemscore.Internal.Correction.Weighted>
   9.000000E+99

> <Gold.Protein.RotatedTorsions>
[ 6907 6896 6895 6894 ] final  167.91 input  -60.11 | X-H torsion
[ 7974 7965 7964 7962 ] final   19.84 input  175.53 | X-H torsion
[ 8008 7997 7996 7995 ] final   78.64 input   59.86 | X-H torsion
[ 10167 10162 10161 10158 ] final   63.98 input  -65.29 | X-H torsion
[ 10718 10713 10712 10709 ] final -170.64 input   66.30 | X-H torsion
[ 10763 10752 10751 10750 ] final -147.80 input  -60.55 | X-H torsion
[ 11005 11000 10999 10996 ] final -106.53 input  -57.11 | X-H torsion

> <Gold.Protein.ActiveResidues>
 VAL166  LYS551  ARG553  GLY616  TRP617  ASP618  TYR619  PRO620  LYS621  CYS622 
 ASP623  PHE694  ASN695  SER759  ASP760  ASP761  ALA762  ILE779  LEU786  VAL792 
 PHE793  MET794  SER795  GLU796  ALA797  LYS798  CYS799  TRP800  GLU811  SER814 

> <Gold.Protein.RotatedAtoms>
  151.8559  133.3448  159.3687 H   0  0  0  0  0  0  0  0  0  0  0  0  # atno 6907 bound_to 6896
  150.7193  134.5253  159.5683 H   0  0  0  0  0  0  0  0  0  0  0  0  # atno 6908 bound_to 6896
  152.2757  134.7885  160.0457 H   0  0  0  0  0  0  0  0  0  0  0  0  # atno 6909 bound_to 6896
  146.2134  139.8255  142.8671 H   0  0  0  0  0  0  0  0  0  0  0  0  # atno 7974 bound_to 7965
  155.8586  140.3455  155.5741 H   0  0  0  0  0  0  0  0  0  0  0  0  # atno 8008 bound_to 7997
  155.7959  140.0878  157.2003 H   0  0  0  0  0  0  0  0  0  0  0  0  # atno 8009 bound_to 7997
  154.4010  140.1474  156.3204 H   0  0  0  0  0  0  0  0  0  0  0  0  # atno 8010 bound_to 7997
  140.1271  144.4677  150.6886 H   0  0  0  0  0  0  0  0  0  0  0  0  # atno 10167 bound_to 10162
  156.7292  130.9300  151.3103 H   0  0  0  0  0  0  0  0  0  0  0  0  # atno 10718 bound_to 10713
  154.8267  135.3351  154.6874 H   0  0  0  0  0  0  0  0  0  0  0  0  # atno 10763 bound_to 10752
  153.7499  135.6940  153.4952 H   0  0  0  0  0  0  0  0  0  0  0  0  # atno 10764 bound_to 10752
  153.2184  135.4457  155.0411 H   0  0  0  0  0  0  0  0  0  0  0  0  # atno 10765 bound_to 10752
  141.1000  133.8902  157.1867 H   0  0  0  0  0  0  0  0  0  0  0  0  # atno 11005 bound_to 11000
  145.3052  141.0205  143.3586 LP  0  0  0  0  0  0  0  0  0  0  0  0  # atno 17320 bound_to 7965
  144.8977  139.4691  143.6648 LP  0  0  0  0  0  0  0  0  0  0  0  0  # atno 17321 bound_to 7965
  140.6838  143.2340  151.5313 LP  0  0  0  0  0  0  0  0  0  0  0  0  # atno 17342 bound_to 10162
  139.5538  144.2326  152.1578 LP  0  0  0  0  0  0  0  0  0  0  0  0  # atno 17343 bound_to 10162
  157.6866  130.9191  150.0402 LP  0  0  0  0  0  0  0  0  0  0  0  0  # atno 17370 bound_to 10713
  156.1541  130.3643  149.9395 LP  0  0  0  0  0  0  0  0  0  0  0  0  # atno 17371 bound_to 10713
  139.9848  135.0086  156.9836 LP  0  0  0  0  0  0  0  0  0  0  0  0  # atno 17394 bound_to 11000
  140.5046  134.1062  155.7257 LP  0  0  0  0  0  0  0  0  0  0  0  0  # atno 17395 bound_to 11000

$$$$
