AV-unprocessed.smi:1345|AV-procd|sdf|5510|dock6
  -GOLD-   22720 5 93D 1   1.00000     0.00000
 Structure written by MMmdl.
 40 41  0  0  0  0  0  0  0  0  1 V2000
  151.7708  144.6495  158.4543 C   0  0  0  0  0  0  0  0  0  0  0  0
  151.6576  143.2756  159.1397 C   0  0  0  0  0  0  0  0  0  0  0  0
  152.9969  142.9319  159.8206 C   0  0  0  0  0  0  0  0  0  0  0  0
  151.1919  142.1620  158.1635 C   0  0  2  0  0  0  0  0  0  0  0  0
  149.7444  142.3506  157.6700 C   0  0  0  0  0  0  0  0  0  0  0  0
  151.3041  140.8516  158.8038 N   0  0  0  0  0  0  0  0  0  0  0  0
  151.0620  139.6681  158.2173 C   0  0  0  0  0  0  0  0  0  0  0  0
  150.7063  139.5586  157.0427 O   0  0  0  0  0  0  0  0  0  0  0  0
  151.2601  138.4332  159.1060 C   0  0  0  0  0  0  0  0  0  0  0  0
  150.0862  137.4950  159.0472 C   0  0  0  0  0  0  0  0  0  0  0  0
  149.4090  137.0871  157.9233 C   0  0  0  0  0  0  0  0  0  0  0  0
  148.1050  135.9963  158.3054 S   0  0  0  0  0  0  0  0  0  0  0  0
  148.5254  136.1440  160.0105 C   0  0  0  0  0  0  0  0  0  0  0  0
  147.8208  135.4714  161.0532 N   0  0  0  0  0  0  0  0  0  0  0  0
  147.2293  134.1562  160.8382 C   0  0  0  0  0  0  0  0  0  0  0  0
  146.5802  133.8227  162.1782 C   0  0  0  0  0  0  0  0  0  0  0  0
  146.8992  134.9879  162.9693 N   0  0  0  0  0  0  0  0  0  0  0  0
  147.6027  135.9115  162.3103 C   0  0  0  0  0  0  0  0  0  0  0  0
  147.9726  136.9763  162.8029 O   0  0  0  0  0  0  0  0  0  0  0  0
  149.5683  136.9540  160.2285 N   0  0  0  0  0  0  0  0  0  0  0  0
  152.4492  144.6125  157.6014 H   0  0  0  0  0  0  0  0  0  0  0  0
  152.1494  145.4030  159.1457 H   0  0  0  0  0  0  0  0  0  0  0  0
  150.8043  145.0070  158.1003 H   0  0  0  0  0  0  0  0  0  0  0  0
  150.9097  143.3677  159.9288 H   0  0  0  0  0  0  0  0  0  0  0  0
  153.7876  142.7864  159.0838 H   0  0  0  0  0  0  0  0  0  0  0  0
  152.9291  142.0245  160.4208 H   0  0  0  0  0  0  0  0  0  0  0  0
  153.3135  143.7313  160.4912 H   0  0  0  0  0  0  0  0  0  0  0  0
  151.8528  142.1847  157.2948 H   0  0  0  0  0  0  0  0  0  0  0  0
  149.6359  143.2546  157.0718 H   0  0  0  0  0  0  0  0  0  0  0  0
  149.0454  142.4132  158.5047 H   0  0  0  0  0  0  0  0  0  0  0  0
  149.4314  141.5188  157.0383 H   0  0  0  0  0  0  0  0  0  0  0  0
  151.5955  140.8460  159.7706 H   0  0  0  0  0  0  0  0  0  0  0  0
  152.1744  137.9277  158.7921 H   0  0  0  0  0  0  0  0  0  0  0  0
  151.4253  138.7574  160.1344 H   0  0  0  0  0  0  0  0  0  0  0  0
  149.6016  137.3579  156.8958 H   0  0  0  0  0  0  0  0  0  0  0  0
  146.4906  134.1906  160.0362 H   0  0  0  0  0  0  0  0  0  0  0  0
  147.9974  133.4270  160.5759 H   0  0  0  0  0  0  0  0  0  0  0  0
  145.4998  133.7022  162.0918 H   0  0  0  0  0  0  0  0  0  0  0  0
  147.0044  132.9244  162.6281 H   0  0  0  0  0  0  0  0  0  0  0  0
  146.6115  135.0835  163.9325 H   0  0  0  0  0  0  0  0  0  0  0  0
  1  2  1  0  0  0  0
  1 21  1  0  0  0  0
  1 22  1  0  0  0  0
  1 23  1  0  0  0  0
  2  3  1  0  0  0  0
  2  4  1  0  0  0  0
  2 24  1  0  0  0  0
  3 25  1  0  0  0  0
  3 26  1  0  0  0  0
  3 27  1  0  0  0  0
  4  5  1  0  0  0  0
  4  6  1  0  0  0  0
  4 28  1  0  0  0  0
  5 29  1  0  0  0  0
  5 30  1  0  0  0  0
  5 31  1  0  0  0  0
  6  7  1  0  0  0  0
  6 32  1  0  0  0  0
  7  8  2  0  0  0  0
  7  9  1  0  0  0  0
  9 10  1  0  0  0  0
  9 33  1  0  0  0  0
  9 34  1  0  0  0  0
 10 20  1  0  0  0  0
 10 11  2  0  0  0  0
 11 12  1  0  0  0  0
 11 35  1  0  0  0  0
 12 13  1  0  0  0  0
 13 14  1  0  0  0  0
 13 20  2  0  0  0  0
 14 18  1  0  0  0  0
 14 15  1  0  0  0  0
 15 16  1  0  0  0  0
 15 36  1  0  0  0  0
 15 37  1  0  0  0  0
 16 17  1  0  0  0  0
 16 38  1  0  0  0  0
 16 39  1  0  0  0  0
 17 18  1  0  0  0  0
 17 40  1  0  0  0  0
 18 19  2  0  0  0  0
M  END
> <s_m_source_file>
AV-unprocessed.smi

> <i_m_source_file_index>
1345

> <i_lp_mmshare_version>
43012

> <i_f3d_flags>
0

> <s_epik_input>
W0NIM11bQ0hdKFtDSDNdKVtDQEhdKFtDSDNdKVtOSF1DKD1PKVtDSDJdYzFbY0hdc2MobjEpTjJbQ0gyXVtDSDJdW05IXUMyPU8=

> <s_epik_cmdline>
J2VwaWtfcHl0aG9uJywgJy1waCcsICc3LjAnLCAnLXRuJywgJzgnLCAnLW1hJywgJzIwMCcsICctbWV0YWxfYmluZGluZycsICctaW1hZScsICc8aW5maWxlLm1hZT4nLCAnLW9tYWUnLCAnPG91dGZpbGUubWFlPic=

> <r_lp_tautomer_probability>
1

> <r_epik_Ionization_Penalty>
0.000122034

> <r_epik_Ionization_Penalty_Charging>
0

> <r_epik_Ionization_Penalty_Neutral>
0.000122034

> <r_epik_State_Penalty>
-0

> <r_epik_Charging_Adjusted_Penalty>
0

> <i_epik_Tot_Q>
0

> <i_epik_Tot_abs_Q>
0

> <r_epik_Metal_State_Penalty>
-0

> <b_epik_Metal_Only>
0

> <s_lp_Force_Field>
OPLS_2005

> <r_lp_Energy>
36.09

> <b_lp_Chiralities_Consistent>
1

> <s_lp_Variant>
AV-unprocessed.smi:1345-1

> <Gold.Version>
5.8.1

> <Gold.Id.Protein>
6NUR|6NUR_protein|mol2

> <Gold.PLP.Fitness>
40.9130

> <Gold.PLP.PLP>
-39.9416

> <Gold.PLP.part.hbond>
-2.0352

> <Gold.PLP.part.metal>
0.0000

> <Gold.PLP.part.buried>
-7.1429

> <Gold.PLP.part.nonpolar>
-32.2900

> <Gold.PLP.part.repulsive>
0.3021

> <Gold.PLP.ligand.clash>
0.0000

> <Gold.PLP.ligand.torsion>
0.8438

> <Gold.PLP.Chemscore.Hbond>
0.8708

> <Gold.PLP.Chemscore.CHOScore>
0.0000

> <Gold.PLP.Chemscore.Metal>
0.0000

> <Gold.Chemscore.Hbonds>
donor molecule, donor type, donor heavy atom, donor atom, acceptor molecule, acceptor atom, score
      P1  H  6931  6943       L1    19  0.86

> <Gold.PLP.Chemscore.Internal.Correction>
0.0465

> <Gold.Rescore>
     Score         DG    S(hbond)    S(metal)    S(lipo)     H(rot)  DE(clash)    DE(int)     intcor
     11.46     -12.99       0.93        0.00      75.62       1.74       0.00       1.53       ----

> <Gold.Chemscore.Fitness>
11.4607

> <Gold.Chemscore.DG>
-12.9873

> <Gold.Chemscore.ZeroCoef>
-5.4800

> <Gold.Chemscore.Hbond>
0.9286

> <Gold.Chemscore.Metal>
0.0000

> <Gold.Chemscore.Lipo>
75.6229

> <Gold.Chemscore.Internal_Hbond>
0.0000

> <Gold.Chemscore.DEClash>
0.0009

> <Gold.Chemscore.DEInternal>
1.5257

> <Gold.Chemscore.Rot>
1.7353

> <Gold.Chemscore.Internal.Correction>
   9.000000E+99

> <Gold.Chemscore.Hbonds>
donor molecule, donor type, donor heavy atom, donor atom, acceptor molecule, acceptor atom, score
      P1  H  6931  6943       L1    19  0.85

> <Gold.Chemscore.Hbond.Weighted>
-3.1017

> <Gold.Chemscore.Metal.Weighted>
-0.0000

> <Gold.Chemscore.Lipo.Weighted>
-8.8479

> <Gold.Chemscore.Internal_Hbond.Weighted>
0.0000

> <Gold.Chemscore.DEClash.Weighted>
0.0009

> <Gold.Chemscore.DEInternal.Weighted>
1.5257

> <Gold.Chemscore.Rot.Weighted>
4.4423

> <Gold.Chemscore.Internal.Correction.Weighted>
   9.000000E+99

> <Gold.Protein.RotatedTorsions>
[ 6907 6896 6895 6894 ] final -167.39 input  -60.11 | X-H torsion
[ 7974 7965 7964 7962 ] final   39.47 input  175.53 | X-H torsion
[ 8008 7997 7996 7995 ] final    6.19 input   59.86 | X-H torsion
[ 10167 10162 10161 10158 ] final   54.16 input  -65.29 | X-H torsion
[ 10718 10713 10712 10709 ] final    6.14 input   66.30 | X-H torsion
[ 10763 10752 10751 10750 ] final  -48.19 input  -60.55 | X-H torsion
[ 11005 11000 10999 10996 ] final   70.63 input  -57.11 | X-H torsion

> <Gold.Protein.ActiveResidues>
 VAL166  LYS551  ARG553  GLY616  TRP617  ASP618  TYR619  PRO620  LYS621  CYS622 
 ASP623  PHE694  ASN695  SER759  ASP760  ASP761  ALA762  ILE779  LEU786  VAL792 
 PHE793  MET794  SER795  GLU796  ALA797  LYS798  CYS799  TRP800  GLU811  SER814 

> <Gold.Protein.RotatedAtoms>
  151.4588  133.3598  159.2805 H   0  0  0  0  0  0  0  0  0  0  0  0  # atno 6907 bound_to 6896
  150.9040  134.8455  159.7390 H   0  0  0  0  0  0  0  0  0  0  0  0  # atno 6908 bound_to 6896
  152.4895  134.4511  159.9627 H   0  0  0  0  0  0  0  0  0  0  0  0  # atno 6909 bound_to 6896
  146.0982  139.5648  142.9431 H   0  0  0  0  0  0  0  0  0  0  0  0  # atno 7974 bound_to 7965
  154.7378  140.2743  155.6399 H   0  0  0  0  0  0  0  0  0  0  0  0  # atno 8008 bound_to 7997
  156.2866  140.2703  156.2023 H   0  0  0  0  0  0  0  0  0  0  0  0  # atno 8009 bound_to 7997
  155.0297  140.0371  157.2459 H   0  0  0  0  0  0  0  0  0  0  0  0  # atno 8010 bound_to 7997
  140.2331  144.3665  150.6407 H   0  0  0  0  0  0  0  0  0  0  0  0  # atno 10167 bound_to 10162
  156.9178  130.5779  149.5647 H   0  0  0  0  0  0  0  0  0  0  0  0  # atno 10718 bound_to 10713
  154.0737  135.6601  153.4828 H   0  0  0  0  0  0  0  0  0  0  0  0  # atno 10763 bound_to 10752
  153.0381  135.5163  154.7541 H   0  0  0  0  0  0  0  0  0  0  0  0  # atno 10764 bound_to 10752
  154.6615  135.3015  154.9828 H   0  0  0  0  0  0  0  0  0  0  0  0  # atno 10765 bound_to 10752
  139.9587  134.7099  156.0695 H   0  0  0  0  0  0  0  0  0  0  0  0  # atno 11005 bound_to 11000
  145.5907  141.0370  143.2072 LP  0  0  0  0  0  0  0  0  0  0  0  0  # atno 17320 bound_to 7965
  144.7412  139.7445  143.7310 LP  0  0  0  0  0  0  0  0  0  0  0  0  # atno 17321 bound_to 7965
  140.6170  143.2173  151.6771 LP  0  0  0  0  0  0  0  0  0  0  0  0  # atno 17342 bound_to 10162
  139.5103  144.3547  152.0619 LP  0  0  0  0  0  0  0  0  0  0  0  0  # atno 17343 bound_to 10162
  156.0505  130.5575  150.8979 LP  0  0  0  0  0  0  0  0  0  0  0  0  # atno 17370 bound_to 10713
  157.5927  131.0944  150.9092 LP  0  0  0  0  0  0  0  0  0  0  0  0  # atno 17371 bound_to 10713
  141.1262  133.6599  156.3342 LP  0  0  0  0  0  0  0  0  0  0  0  0  # atno 17394 bound_to 11000
  140.5550  134.5990  157.5418 LP  0  0  0  0  0  0  0  0  0  0  0  0  # atno 17395 bound_to 11000

$$$$
