AV-unprocessed.smi:1808|AV-procd|sdf|7307|dock1
  -GOLD-   22720 8563D 1   1.00000     0.00000
 Structure written by MMmdl.
 27 28  0  0  0  0  0  0  0  0  2 V2000
  151.7060  139.1265  156.3265 O   0  0  0  0  0  0  0  0  0  0  0  0
  151.1058  140.0864  155.8369 C   0  0  0  0  0  0  0  0  0  0  0  0
  150.8156  141.1517  156.5974 N   0  0  0  0  0  0  0  0  0  0  0  0
  151.1581  141.3137  158.0063 C   0  0  0  0  0  0  0  0  0  0  0  0
  151.9298  142.6202  158.2543 C   0  0  2  0  0  0  0  0  0  0  0  0
  152.2804  142.8612  159.7185 C   0  0  0  0  0  0  0  0  0  0  0  0
  152.5305  144.3573  159.7515 C   0  0  0  0  0  0  0  0  0  0  0  0
  151.6879  144.8920  158.5887 C   0  0  0  0  0  0  0  0  0  0  0  0
  151.1255  143.7501  157.9514 O   0  0  0  0  0  0  0  0  0  0  0  0
  150.6863  140.2005  154.5562 N   0  5  0  0  0  0  0  0  0  0  0  0
  149.4020  140.4929  154.2934 C   0  0  0  0  0  0  0  0  0  0  0  0
  148.9672  141.7393  154.0751 N   0  0  0  0  0  0  0  0  0  0  0  0
  147.5975  141.8119  153.8152 C   0  0  0  0  0  0  0  0  0  0  0  0
  146.9759  140.5914  153.8275 C   0  0  0  0  0  0  0  0  0  0  0  0
  148.0996  139.3067  154.1682 S   0  0  0  0  0  0  0  0  0  0  0  0
  150.3264  141.9167  156.1564 H   0  0  0  0  0  0  0  0  0  0  0  0
  150.2366  141.3046  158.5888 H   0  0  0  0  0  0  0  0  0  0  0  0
  151.7450  140.4576  158.3429 H   0  0  0  0  0  0  0  0  0  0  0  0
  152.8391  142.6564  157.6513 H   0  0  0  0  0  0  0  0  0  0  0  0
  151.4312  142.6140  160.3570 H   0  0  0  0  0  0  0  0  0  0  0  0
  153.1389  142.2773  160.0514 H   0  0  0  0  0  0  0  0  0  0  0  0
  152.2544  144.7995  160.7090 H   0  0  0  0  0  0  0  0  0  0  0  0
  153.5857  144.5683  159.5742 H   0  0  0  0  0  0  0  0  0  0  0  0
  150.8933  145.5561  158.9292 H   0  0  0  0  0  0  0  0  0  0  0  0
  152.3098  145.4416  157.8812 H   0  0  0  0  0  0  0  0  0  0  0  0
  147.1478  142.7759  153.6303 H   0  0  0  0  0  0  0  0  0  0  0  0
  145.9334  140.3698  153.6571 H   0  0  0  0  0  0  0  0  0  0  0  0
  1  2  2  0  0  0  0
  2  3  1  0  0  0  0
  2 10  1  0  0  0  0
  3  4  1  0  0  0  0
  3 16  1  0  0  0  0
  4  5  1  0  0  0  0
  4 17  1  0  0  0  0
  4 18  1  0  0  0  0
  5  9  1  0  0  0  0
  5  6  1  0  0  0  0
  5 19  1  0  0  0  0
  6  7  1  0  0  0  0
  6 20  1  0  0  0  0
  6 21  1  0  0  0  0
  7  8  1  0  0  0  0
  7 22  1  0  0  0  0
  7 23  1  0  0  0  0
  8  9  1  0  0  0  0
  8 24  1  0  0  0  0
  8 25  1  0  0  0  0
 10 11  1  0  0  0  0
 11 15  1  0  0  0  0
 11 12  2  0  0  0  0
 12 13  1  0  0  0  0
 13 14  2  0  0  0  0
 13 26  1  0  0  0  0
 14 15  1  0  0  0  0
 14 27  1  0  0  0  0
M  CHG  1  10  -1
M  END
> <s_m_source_file>
AV-unprocessed.smi

> <i_m_source_file_index>
1808

> <i_lp_mmshare_version>
43012

> <i_f3d_flags>
0

> <s_epik_input>
czFbY0hdW2NIXW5jMVtOSF1DKD1PKVtOSF1bQ0gyXVtDQEBIXTJbQ0gyXVtDSDJdW0NIMl1PMg==

> <s_epik_cmdline>
J2VwaWtfcHl0aG9uJywgJy1waCcsICc3LjAnLCAnLXRuJywgJzgnLCAnLW1hJywgJzIwMCcsICctbWV0YWxfYmluZGluZycsICctaW1hZScsICc8aW5maWxlLm1hZT4nLCAnLW9tYWUnLCAnPG91dGZpbGUubWFlPic=

> <r_lp_tautomer_probability>
0.999

> <r_epik_Ionization_Penalty>
8.26346

> <r_epik_Ionization_Penalty_Charging>
6.6559

> <r_epik_Ionization_Penalty_Neutral>
1.60756

> <r_epik_State_Penalty>
6.65607

> <r_epik_Charging_Adjusted_Penalty>
13.312

> <i_epik_Tot_Q>
-1

> <i_epik_Tot_abs_Q>
1

> <r_epik_Metal_State_Penalty>
2.5789

> <b_epik_Metal_Only>
1

> <s_lp_Force_Field>
OPLS_2005

> <r_lp_Energy>
12.338

> <b_lp_Chiralities_Consistent>
1

> <s_lp_Variant>
AV-unprocessed.smi:1808-3

> <Gold.Version>
5.8.1

> <Gold.Id.Protein>
6NUR|6NUR_protein|mol2

> <Gold.PLP.Fitness>
36.7260

> <Gold.PLP.PLP>
-31.6093

> <Gold.PLP.part.hbond>
-2.1187

> <Gold.PLP.part.metal>
0.0000

> <Gold.PLP.part.buried>
-5.2831

> <Gold.PLP.part.nonpolar>
-24.2225

> <Gold.PLP.part.repulsive>
0.5065

> <Gold.PLP.ligand.clash>
0.0000

> <Gold.PLP.ligand.torsion>
1.2534

> <Gold.PLP.Chemscore.Hbond>
1.5392

> <Gold.PLP.Chemscore.CHOScore>
0.9916

> <Gold.PLP.Chemscore.Metal>
0.0000

> <Gold.Chemscore.Hbonds>
donor molecule, donor type, donor heavy atom, donor atom, acceptor molecule, acceptor atom, score
      P1  H  7989  7998       L1    10  1.00
      P1  H  8011  8017       L1    12  0.53
      L1  C    14    27       P1 10175  0.97

> <Gold.PLP.Chemscore.Internal.Correction>
0.0309

> <Gold.Rescore>
     Score         DG    S(hbond)    S(metal)    S(lipo)     H(rot)  DE(clash)    DE(int)     intcor
     17.00     -17.97       2.37        0.00      67.54       1.30       0.02       0.94       ----

> <Gold.Chemscore.Fitness>
17.0034

> <Gold.Chemscore.DG>
-17.9662

> <Gold.Chemscore.ZeroCoef>
-5.4800

> <Gold.Chemscore.Hbond>
2.3689

> <Gold.Chemscore.Metal>
0.0000

> <Gold.Chemscore.Lipo>
67.5392

> <Gold.Chemscore.Internal_Hbond>
0.0000

> <Gold.Chemscore.DEClash>
0.0215

> <Gold.Chemscore.DEInternal>
0.9413

> <Gold.Chemscore.Rot>
1.3000

> <Gold.Chemscore.Internal.Correction>
   9.000000E+99

> <Gold.Chemscore.Hbonds>
donor molecule, donor type, donor heavy atom, donor atom, acceptor molecule, acceptor atom, score
      P1  H  7989  7998       L1    10  0.70
      P1  H  8011  8017       L1    12  0.14

> <Gold.Chemscore.Hbond.Weighted>
-7.9121

> <Gold.Chemscore.Metal.Weighted>
-0.0000

> <Gold.Chemscore.Lipo.Weighted>
-7.9021

> <Gold.Chemscore.Internal_Hbond.Weighted>
0.0000

> <Gold.Chemscore.DEClash.Weighted>
0.0215

> <Gold.Chemscore.DEInternal.Weighted>
0.9413

> <Gold.Chemscore.Rot.Weighted>
3.3280

> <Gold.Chemscore.Internal.Correction.Weighted>
   9.000000E+99

> <Gold.Protein.RotatedTorsions>
[ 6907 6896 6895 6894 ] final   39.28 input  -60.11 | X-H torsion
[ 7974 7965 7964 7962 ] final -152.90 input  175.53 | X-H torsion
[ 8008 7997 7996 7995 ] final   85.90 input   59.86 | X-H torsion
[ 10167 10162 10161 10158 ] final  134.98 input  -65.29 | X-H torsion
[ 10718 10713 10712 10709 ] final  120.65 input   66.30 | X-H torsion
[ 10763 10752 10751 10750 ] final   79.18 input  -60.55 | X-H torsion
[ 11005 11000 10999 10996 ] final -171.57 input  -57.11 | X-H torsion

> <Gold.Protein.ActiveResidues>
 VAL166  LYS551  ARG553  GLY616  TRP617  ASP618  TYR619  PRO620  LYS621  CYS622 
 ASP623  PHE694  ASN695  SER759  ASP760  ASP761  ALA762  ILE779  LEU786  VAL792 
 PHE793  MET794  SER795  GLU796  ALA797  LYS798  CYS799  TRP800  GLU811  SER814 

> <Gold.Protein.RotatedAtoms>
  152.1674  134.8862  160.0536 H   0  0  0  0  0  0  0  0  0  0  0  0  # atno 6907 bound_to 6896
  151.9835  133.3761  159.4125 H   0  0  0  0  0  0  0  0  0  0  0  0  # atno 6908 bound_to 6896
  150.6896  134.3936  159.5131 H   0  0  0  0  0  0  0  0  0  0  0  0  # atno 6909 bound_to 6896
  144.7769  140.4599  143.5867 H   0  0  0  0  0  0  0  0  0  0  0  0  # atno 7974 bound_to 7965
  155.9559  140.3397  155.6448 H   0  0  0  0  0  0  0  0  0  0  0  0  # atno 8008 bound_to 7997
  155.6860  140.0743  157.2484 H   0  0  0  0  0  0  0  0  0  0  0  0  # atno 8009 bound_to 7997
  154.4132  140.1665  156.2022 H   0  0  0  0  0  0  0  0  0  0  0  0  # atno 8010 bound_to 7997
  139.5235  144.6540  151.5217 H   0  0  0  0  0  0  0  0  0  0  0  0  # atno 10167 bound_to 10162
  157.5875  131.1068  150.8064 H   0  0  0  0  0  0  0  0  0  0  0  0  # atno 10718 bound_to 10713
  153.0932  135.4849  154.8730 H   0  0  0  0  0  0  0  0  0  0  0  0  # atno 10763 bound_to 10752
  154.7294  135.3057  154.8919 H   0  0  0  0  0  0  0  0  0  0  0  0  # atno 10764 bound_to 10752
  153.9559  135.6818  153.4798 H   0  0  0  0  0  0  0  0  0  0  0  0  # atno 10765 bound_to 10752
  140.5067  134.5841  157.5005 H   0  0  0  0  0  0  0  0  0  0  0  0  # atno 11005 bound_to 11000
  145.6160  139.1518  143.3049 LP  0  0  0  0  0  0  0  0  0  0  0  0  # atno 17320 bound_to 7965
  146.1954  140.6273  142.9126 LP  0  0  0  0  0  0  0  0  0  0  0  0  # atno 17321 bound_to 7965
  140.6358  143.8988  150.6646 LP  0  0  0  0  0  0  0  0  0  0  0  0  # atno 17342 bound_to 10162
  140.2306  143.3738  152.1568 LP  0  0  0  0  0  0  0  0  0  0  0  0  # atno 17343 bound_to 10162
  156.8495  130.5075  149.5313 LP  0  0  0  0  0  0  0  0  0  0  0  0  # atno 17370 bound_to 10713
  156.0926  130.5908  150.9759 LP  0  0  0  0  0  0  0  0  0  0  0  0  # atno 17371 bound_to 10713
  139.9682  134.7337  156.0095 LP  0  0  0  0  0  0  0  0  0  0  0  0  # atno 17394 bound_to 11000
  141.1407  133.6565  156.3722 LP  0  0  0  0  0  0  0  0  0  0  0  0  # atno 17395 bound_to 11000

$$$$
