AV-unprocessed.smi:3081|AV-procd|sdf|11741|dock6
  -GOLD-   2272017133D 1   1.00000     0.00000
 Structure written by MMmdl.
 26 27  0  0  0  0  0  0  0  0  2 V2000
  150.6820  137.2152  154.7476 C   0  0  0  0  0  0  0  0  0  0  0  0
  149.7521  138.2726  154.8185 C   0  0  0  0  0  0  0  0  0  0  0  0
  150.2877  139.5786  154.8109 C   0  0  0  0  0  0  0  0  0  0  0  0
  149.3864  140.8035  154.8797 C   0  0  1  0  0  0  0  0  0  0  0  0
  148.2799  140.7763  153.8066 C   0  0  0  0  0  0  0  0  0  0  0  0
  147.3934  142.0265  153.9175 C   0  0  0  0  0  0  0  0  0  0  0  0
  146.8353  142.1802  155.3423 C   0  0  0  0  0  0  0  0  0  0  0  0
  147.9333  142.2138  156.3328 N   0  3  0  0  0  0  0  0  0  0  0  0
  148.7899  141.0079  156.2885 C   0  0  0  0  0  0  0  0  0  0  0  0
  151.6215  139.7949  154.7381 N   0  0  0  0  0  0  0  0  0  0  0  0
  152.4071  138.7160  154.6759 C   0  0  0  0  0  0  0  0  0  0  0  0
  152.0115  137.4410  154.6753 N   0  0  0  0  0  0  0  0  0  0  0  0
  150.3575  136.1852  154.7479 H   0  0  0  0  0  0  0  0  0  0  0  0
  148.6900  138.0846  154.8759 H   0  0  0  0  0  0  0  0  0  0  0  0
  150.0158  141.6699  154.6689 H   0  0  0  0  0  0  0  0  0  0  0  0
  148.7204  140.7200  152.8104 H   0  0  0  0  0  0  0  0  0  0  0  0
  147.6618  139.8852  153.9250 H   0  0  0  0  0  0  0  0  0  0  0  0
  147.9728  142.9120  153.6529 H   0  0  0  0  0  0  0  0  0  0  0  0
  146.5745  141.9676  153.2000 H   0  0  0  0  0  0  0  0  0  0  0  0
  146.2544  143.0989  155.4238 H   0  0  0  0  0  0  0  0  0  0  0  0
  146.1625  141.3548  155.5787 H   0  0  0  0  0  0  0  0  0  0  0  0
  148.5079  143.0238  156.1483 H   0  0  0  0  0  0  0  0  0  0  0  0
  148.1940  140.1435  156.5850 H   0  0  0  0  0  0  0  0  0  0  0  0
  149.5860  141.1144  157.0259 H   0  0  0  0  0  0  0  0  0  0  0  0
  153.4707  138.8938  154.6184 H   0  0  0  0  0  0  0  0  0  0  0  0
  147.5377  142.2997  157.2584 H   0  0  0  0  0  0  0  0  0  0  0  0
  1 12  1  0  0  0  0
  1  2  2  0  0  0  0
  1 13  1  0  0  0  0
  2  3  1  0  0  0  0
  2 14  1  0  0  0  0
  3  4  1  0  0  0  0
  3 10  2  0  0  0  0
  4  9  1  0  0  0  0
  4  5  1  0  0  0  0
  4 15  1  0  0  0  0
  5  6  1  0  0  0  0
  5 16  1  0  0  0  0
  5 17  1  0  0  0  0
  6  7  1  0  0  0  0
  6 18  1  0  0  0  0
  6 19  1  0  0  0  0
  7  8  1  0  0  0  0
  7 20  1  0  0  0  0
  7 21  1  0  0  0  0
  8  9  1  0  0  0  0
  8 22  1  0  0  0  0
  8 26  1  0  0  0  0
  9 23  1  0  0  0  0
  9 24  1  0  0  0  0
 10 11  1  0  0  0  0
 11 12  2  0  0  0  0
 11 25  1  0  0  0  0
M  CHG  1   8   1
M  END
> <s_m_source_file>
AV-unprocessed.smi

> <i_m_source_file_index>
3081

> <i_lp_mmshare_version>
43012

> <i_f3d_flags>
0

> <s_epik_input>
bjFbY0hdbltjSF1bY0hdYzFbQ0BASF0yW0NIMl1bQ0gyXVtDSDJdW05IXVtDSDJdMg==

> <s_epik_cmdline>
J2VwaWtfcHl0aG9uJywgJy1waCcsICc3LjAnLCAnLXRuJywgJzgnLCAnLW1hJywgJzIwMCcsICctbWV0YWxfYmluZGluZycsICctaW1hZScsICc8aW5maWxlLm1hZT4nLCAnLW9tYWUnLCAnPG91dGZpbGUubWFlPic=

> <r_lp_tautomer_probability>
1

> <r_epik_Ionization_Penalty>
0.000373217

> <r_epik_Ionization_Penalty_Charging>
0.000372054

> <r_epik_Ionization_Penalty_Neutral>
1.16293e-06

> <r_epik_State_Penalty>
0.00022692

> <r_epik_Charging_Adjusted_Penalty>
0.000598973

> <i_epik_Tot_Q>
1

> <i_epik_Tot_abs_Q>
1

> <r_epik_Metal_State_Penalty>
-0

> <b_epik_Metal_Only>
0

> <s_epik_Chemistry_Notes>
This compound contains an electron-poor aromatic ring that is susceptible to covalent hydrolysis at low pH, typically resulting in measured values for nitrogen ring protonation that are around two units higher than predicted values.

> <s_lp_Force_Field>
OPLS_2005

> <r_lp_Energy>
7.17513

> <b_lp_Chiralities_Consistent>
1

> <s_lp_Variant>
AV-unprocessed.smi:3081-2

> <Gold.Version>
5.8.1

> <Gold.Id.Protein>
6NUR|6NUR_protein|mol2

> <Gold.PLP.Fitness>
36.4556

> <Gold.PLP.PLP>
-25.2036

> <Gold.PLP.part.hbond>
-3.0000

> <Gold.PLP.part.metal>
0.0000

> <Gold.PLP.part.buried>
-2.5880

> <Gold.PLP.part.nonpolar>
-19.9622

> <Gold.PLP.part.repulsive>
0.1998

> <Gold.PLP.ligand.clash>
0.0000

> <Gold.PLP.ligand.torsion>
0.2120

> <Gold.PLP.Chemscore.Hbond>
3.8800

> <Gold.PLP.Chemscore.CHOScore>
0.0000

> <Gold.PLP.Chemscore.Metal>
0.0000

> <Gold.Chemscore.Hbonds>
donor molecule, donor type, donor heavy atom, donor atom, acceptor molecule, acceptor atom, score
      L1  H     8    22       P1  8028  2.00
      P1  H  7989  7998       L1    10  1.00
      P1  H 10752 10765       L1    12  0.86

> <Gold.PLP.Chemscore.Internal.Correction>
0.0360

> <Gold.Rescore>
     Score         DG    S(hbond)    S(metal)    S(lipo)     H(rot)  DE(clash)    DE(int)     intcor
     17.01     -17.39       2.77        0.00      44.75       1.00       0.35       0.04       ----

> <Gold.Chemscore.Fitness>
17.0099

> <Gold.Chemscore.DG>
-17.3936

> <Gold.Chemscore.ZeroCoef>
-5.4800

> <Gold.Chemscore.Hbond>
2.7657

> <Gold.Chemscore.Metal>
0.0000

> <Gold.Chemscore.Lipo>
44.7521

> <Gold.Chemscore.Internal_Hbond>
0.0000

> <Gold.Chemscore.DEClash>
0.3461

> <Gold.Chemscore.DEInternal>
0.0375

> <Gold.Chemscore.Rot>
1.0000

> <Gold.Chemscore.Internal.Correction>
   9.000000E+99

> <Gold.Chemscore.Hbonds>
donor molecule, donor type, donor heavy atom, donor atom, acceptor molecule, acceptor atom, score
      L1  H     8    22       P1  8028  0.93
      P1  H  7989  7998       L1    10  0.24
      P1  H 10752 10765       L1    12  0.56

> <Gold.Chemscore.Hbond.Weighted>
-9.2376

> <Gold.Chemscore.Metal.Weighted>
-0.0000

> <Gold.Chemscore.Lipo.Weighted>
-5.2360

> <Gold.Chemscore.Internal_Hbond.Weighted>
0.0000

> <Gold.Chemscore.DEClash.Weighted>
0.3461

> <Gold.Chemscore.DEInternal.Weighted>
0.0375

> <Gold.Chemscore.Rot.Weighted>
2.5600

> <Gold.Chemscore.Internal.Correction.Weighted>
   9.000000E+99

> <Gold.Protein.RotatedTorsions>
[ 6907 6896 6895 6894 ] final  153.28 input  -60.11 | X-H torsion
[ 7974 7965 7964 7962 ] final  -87.23 input  175.53 | X-H torsion
[ 8008 7997 7996 7995 ] final -178.80 input   59.86 | X-H torsion
[ 10167 10162 10161 10158 ] final -173.80 input  -65.29 | X-H torsion
[ 10718 10713 10712 10709 ] final  -79.20 input   66.30 | X-H torsion
[ 10763 10752 10751 10750 ] final  167.18 input  -60.55 | X-H torsion
[ 11005 11000 10999 10996 ] final   -9.42 input  -57.11 | X-H torsion

> <Gold.Protein.ActiveResidues>
 VAL166  LYS551  ARG553  GLY616  TRP617  ASP618  TYR619  PRO620  LYS621  CYS622 
 ASP623  PHE694  ASN695  SER759  ASP760  ASP761  ALA762  ILE779  LEU786  VAL792 
 PHE793  MET794  SER795  GLU796  ALA797  LYS798  CYS799  TRP800  GLU811  SER814 

> <Gold.Protein.RotatedAtoms>
  152.0748  133.4124  159.4474 H   0  0  0  0  0  0  0  0  0  0  0  0  # atno 6907 bound_to 6896
  150.6863  134.3049  159.4731 H   0  0  0  0  0  0  0  0  0  0  0  0  # atno 6908 bound_to 6896
  152.0885  134.9423  160.0623 H   0  0  0  0  0  0  0  0  0  0  0  0  # atno 6909 bound_to 6896
  145.4692  140.9560  143.1926 H   0  0  0  0  0  0  0  0  0  0  0  0  # atno 7974 bound_to 7965
  156.0230  140.1265  157.0337 H   0  0  0  0  0  0  0  0  0  0  0  0  # atno 8008 bound_to 7997
  154.4319  140.1065  156.6061 H   0  0  0  0  0  0  0  0  0  0  0  0  # atno 8009 bound_to 7997
  155.5917  140.3469  155.4570 H   0  0  0  0  0  0  0  0  0  0  0  0  # atno 8010 bound_to 7997
  139.5668  144.1735  152.1325 H   0  0  0  0  0  0  0  0  0  0  0  0  # atno 10167 bound_to 10162
  156.0098  130.4539  150.3612 H   0  0  0  0  0  0  0  0  0  0  0  0  # atno 10718 bound_to 10713
  154.3500  135.2753  155.2377 H   0  0  0  0  0  0  0  0  0  0  0  0  # atno 10763 bound_to 10752
  154.4610  135.5907  153.6259 H   0  0  0  0  0  0  0  0  0  0  0  0  # atno 10764 bound_to 10752
  152.9850  135.6065  154.3709 H   0  0  0  0  0  0  0  0  0  0  0  0  # atno 10765 bound_to 10752
  140.7339  133.8726  155.8915 H   0  0  0  0  0  0  0  0  0  0  0  0  # atno 11005 bound_to 11000
  144.7955  139.6243  143.7094 LP  0  0  0  0  0  0  0  0  0  0  0  0  # atno 17320 bound_to 7965
  146.2406  139.5994  142.9494 LP  0  0  0  0  0  0  0  0  0  0  0  0  # atno 17321 bound_to 7965
  140.1260  144.5331  150.6832 LP  0  0  0  0  0  0  0  0  0  0  0  0  # atno 17342 bound_to 10162
  140.6952  143.2399  151.5020 LP  0  0  0  0  0  0  0  0  0  0  0  0  # atno 17343 bound_to 10162
  157.1701  131.0366  151.2799 LP  0  0  0  0  0  0  0  0  0  0  0  0  # atno 17370 bound_to 10713
  157.4237  130.7451  149.6933 LP  0  0  0  0  0  0  0  0  0  0  0  0  # atno 17371 bound_to 10713
  140.9896  134.1296  157.4420 LP  0  0  0  0  0  0  0  0  0  0  0  0  # atno 17394 bound_to 11000
  139.8820  135.0036  156.6199 LP  0  0  0  0  0  0  0  0  0  0  0  0  # atno 17395 bound_to 11000

$$$$
