AV-unprocessed.smi:797|AV-procd|sdf|3768|dock7
  -GOLD-   22720 1203D 1   1.00000     0.00000
 Structure written by MMmdl.
 34 35  0  0  0  0  0  0  0  0  2 V2000
  150.1007  134.0526  155.0630 C   0  0  0  0  0  0  0  0  0  0  0  0
  150.3806  135.4843  155.4124 C   0  0  0  0  0  0  0  0  0  0  0  0
  149.8005  136.2713  156.4440 C   0  0  0  0  0  0  0  0  0  0  0  0
  150.4092  137.4864  156.3048 C   0  0  0  0  0  0  0  0  0  0  0  0
  150.2808  138.7794  157.0410 C   0  0  0  0  0  0  0  0  0  0  0  0
  151.4614  140.0244  156.3617 S   0  0  0  0  0  0  0  0  0  0  0  0
  152.7870  139.6381  156.8712 O   0  0  0  0  0  0  0  0  0  0  0  0
  151.2760  140.0202  154.9010 O   0  0  0  0  0  0  0  0  0  0  0  0
  150.9090  141.3791  157.0650 N   0  5  0  0  0  0  0  0  0  0  0  0
  151.8264  142.2490  157.7857 C   0  0  0  0  0  0  0  0  0  0  0  0
  151.5940  142.1100  159.3104 C   0  0  0  0  0  0  0  0  0  0  0  0
  152.4376  143.1016  160.1517 C   0  0  0  0  0  0  0  0  0  0  0  0
  152.2131  144.5713  159.7382 C   0  0  0  0  0  0  0  0  0  0  0  0
  152.4496  144.7235  158.2211 C   0  0  0  0  0  0  0  0  0  0  0  0
  151.6074  143.7294  157.3820 C   0  0  0  0  0  0  0  0  0  0  0  0
  151.2987  137.4486  155.2791 O   0  0  0  0  0  0  0  0  0  0  0  0
  151.2744  136.1673  154.7171 N   0  0  0  0  0  0  0  0  0  0  0  0
  149.1270  133.7401  155.4410 H   0  0  0  0  0  0  0  0  0  0  0  0
  150.8526  133.3916  155.4940 H   0  0  0  0  0  0  0  0  0  0  0  0
  150.1001  133.8995  153.9834 H   0  0  0  0  0  0  0  0  0  0  0  0
  149.0480  135.9949  157.1674 H   0  0  0  0  0  0  0  0  0  0  0  0
  149.2686  139.1779  156.9789 H   0  0  0  0  0  0  0  0  0  0  0  0
  150.5187  138.6354  158.0946 H   0  0  0  0  0  0  0  0  0  0  0  0
  152.8661  141.9877  157.5845 H   0  0  0  0  0  0  0  0  0  0  0  0
  150.5388  142.2739  159.5352 H   0  0  0  0  0  0  0  0  0  0  0  0
  151.8161  141.0898  159.6255 H   0  0  0  0  0  0  0  0  0  0  0  0
  152.1912  142.9817  161.2071 H   0  0  0  0  0  0  0  0  0  0  0  0
  153.4988  142.8584  160.0658 H   0  0  0  0  0  0  0  0  0  0  0  0
  151.1931  144.8698  159.9828 H   0  0  0  0  0  0  0  0  0  0  0  0
  152.8779  145.2314  160.2961 H   0  0  0  0  0  0  0  0  0  0  0  0
  152.2115  145.7436  157.9186 H   0  0  0  0  0  0  0  0  0  0  0  0
  153.5114  144.5903  158.0039 H   0  0  0  0  0  0  0  0  0  0  0  0
  151.8428  143.8687  156.3268 H   0  0  0  0  0  0  0  0  0  0  0  0
  150.5523  143.9847  157.4923 H   0  0  0  0  0  0  0  0  0  0  0  0
  1  2  1  0  0  0  0
  1 18  1  0  0  0  0
  1 19  1  0  0  0  0
  1 20  1  0  0  0  0
  2 17  2  0  0  0  0
  2  3  1  0  0  0  0
  3  4  2  0  0  0  0
  3 21  1  0  0  0  0
  4  5  1  0  0  0  0
  4 16  1  0  0  0  0
  5  6  1  0  0  0  0
  5 22  1  0  0  0  0
  5 23  1  0  0  0  0
  6  7  2  0  0  0  0
  6  8  2  0  0  0  0
  6  9  1  0  0  0  0
  9 10  1  0  0  0  0
 10 15  1  0  0  0  0
 10 11  1  0  0  0  0
 10 24  1  0  0  0  0
 11 12  1  0  0  0  0
 11 25  1  0  0  0  0
 11 26  1  0  0  0  0
 12 13  1  0  0  0  0
 12 27  1  0  0  0  0
 12 28  1  0  0  0  0
 13 14  1  0  0  0  0
 13 29  1  0  0  0  0
 13 30  1  0  0  0  0
 14 15  1  0  0  0  0
 14 31  1  0  0  0  0
 14 32  1  0  0  0  0
 15 33  1  0  0  0  0
 15 34  1  0  0  0  0
 16 17  1  0  0  0  0
M  CHG  1   9  -1
M  END
> <s_m_source_file>
AV-unprocessed.smi

> <i_m_source_file_index>
797

> <i_lp_mmshare_version>
43012

> <i_f3d_flags>
0

> <s_epik_input>
W0NIM11jMVtjSF1jKG9uMSlbQ0gyXVMoPU8pKD1PKVtOSF1bQ0hdMltDSDJdW0NIMl1bQ0gyXVtDSDJdW0NIMl0y

> <s_epik_cmdline>
J2VwaWtfcHl0aG9uJywgJy1waCcsICc3LjAnLCAnLXRuJywgJzgnLCAnLW1hJywgJzIwMCcsICctbWV0YWxfYmluZGluZycsICctaW1hZScsICc8aW5maWxlLm1hZT4nLCAnLW9tYWUnLCAnPG91dGZpbGUubWFlPic=

> <r_lp_tautomer_probability>
1

> <r_epik_Ionization_Penalty>
5.48284

> <r_epik_Ionization_Penalty_Charging>
5.48284

> <r_epik_Ionization_Penalty_Neutral>
9.17401e-10

> <r_epik_State_Penalty>
5.48278

> <r_epik_Charging_Adjusted_Penalty>
10.9656

> <i_epik_Tot_Q>
-1

> <i_epik_Tot_abs_Q>
1

> <r_epik_Metal_State_Penalty>
1.49378

> <b_epik_Metal_Only>
1

> <s_lp_Force_Field>
OPLS_2005

> <r_lp_Energy>
6.0802

> <b_lp_Chiralities_Consistent>
1

> <s_lp_Variant>
AV-unprocessed.smi:797-2

> <Gold.Version>
5.8.1

> <Gold.Id.Protein>
6NUR|6NUR_protein|mol2

> <Gold.PLP.Fitness>
39.9571

> <Gold.PLP.PLP>
-31.7992

> <Gold.PLP.part.hbond>
-3.0000

> <Gold.PLP.part.metal>
0.0000

> <Gold.PLP.part.buried>
-6.0713

> <Gold.PLP.part.nonpolar>
-23.0611

> <Gold.PLP.part.repulsive>
0.3509

> <Gold.PLP.ligand.clash>
0.0000

> <Gold.PLP.ligand.torsion>
0.9171

> <Gold.PLP.Chemscore.Hbond>
3.0000

> <Gold.PLP.Chemscore.CHOScore>
0.0000

> <Gold.PLP.Chemscore.Metal>
0.0000

> <Gold.Chemscore.Hbonds>
donor molecule, donor type, donor heavy atom, donor atom, acceptor molecule, acceptor atom, score
      P1  H  7989  7998       L1     8  1.00
      P1  H  7997  8008       L1     7  1.00
      P1  H 10752 10763       L1    17  1.00

> <Gold.PLP.Chemscore.Internal.Correction>
0.9922

> <Gold.Rescore>
     Score         DG    S(hbond)    S(metal)    S(lipo)     H(rot)  DE(clash)    DE(int)     intcor
     19.73     -22.18       2.95        0.00      88.18       1.35       0.00       2.45       ----

> <Gold.Chemscore.Fitness>
19.7275

> <Gold.Chemscore.DG>
-22.1778

> <Gold.Chemscore.ZeroCoef>
-5.4800

> <Gold.Chemscore.Hbond>
2.9489

> <Gold.Chemscore.Metal>
0.0000

> <Gold.Chemscore.Lipo>
88.1754

> <Gold.Chemscore.Internal_Hbond>
0.0000

> <Gold.Chemscore.DEClash>
0.0025

> <Gold.Chemscore.DEInternal>
2.4478

> <Gold.Chemscore.Rot>
1.3546

> <Gold.Chemscore.Internal.Correction>
   9.000000E+99

> <Gold.Chemscore.Hbonds>
donor molecule, donor type, donor heavy atom, donor atom, acceptor molecule, acceptor atom, score
      P1  H  7989  7998       L1     8  1.00
      P1  H  7997  8008       L1     7  1.00
      P1  H 10752 10763       L1    17  0.64

> <Gold.Chemscore.Hbond.Weighted>
-9.8492

> <Gold.Chemscore.Metal.Weighted>
-0.0000

> <Gold.Chemscore.Lipo.Weighted>
-10.3165

> <Gold.Chemscore.Internal_Hbond.Weighted>
0.0000

> <Gold.Chemscore.DEClash.Weighted>
0.0025

> <Gold.Chemscore.DEInternal.Weighted>
2.4478

> <Gold.Chemscore.Rot.Weighted>
3.4679

> <Gold.Chemscore.Internal.Correction.Weighted>
   9.000000E+99

> <Gold.Protein.RotatedTorsions>
[ 6907 6896 6895 6894 ] final  138.12 input  -60.11 | X-H torsion
[ 7974 7965 7964 7962 ] final  154.78 input  175.53 | X-H torsion
[ 8008 7997 7996 7995 ] final  -63.84 input   59.86 | X-H torsion
[ 10167 10162 10161 10158 ] final   -2.39 input  -65.29 | X-H torsion
[ 10718 10713 10712 10709 ] final   71.07 input   66.30 | X-H torsion
[ 10763 10752 10751 10750 ] final   61.56 input  -60.55 | X-H torsion
[ 11005 11000 10999 10996 ] final   58.27 input  -57.11 | X-H torsion

> <Gold.Protein.ActiveResidues>
 VAL166  LYS551  ARG553  GLY616  TRP617  ASP618  TYR619  PRO620  LYS621  CYS622 
 ASP623  PHE694  ASN695  SER759  ASP760  ASP761  ALA762  ILE779  LEU786  VAL792 
 PHE793  MET794  SER795  GLU796  ALA797  LYS798  CYS799  TRP800  GLU811  SER814 

> <Gold.Protein.RotatedAtoms>
  152.2703  133.5376  159.5434 H   0  0  0  0  0  0  0  0  0  0  0  0  # atno 6907 bound_to 6896
  150.7157  134.0707  159.3872 H   0  0  0  0  0  0  0  0  0  0  0  0  # atno 6908 bound_to 6896
  151.8622  135.0520  160.0521 H   0  0  0  0  0  0  0  0  0  0  0  0  # atno 6909 bound_to 6896
  144.8066  139.6980  143.6159 H   0  0  0  0  0  0  0  0  0  0  0  0  # atno 7974 bound_to 7965
  154.4577  140.0966  156.6804 H   0  0  0  0  0  0  0  0  0  0  0  0  # atno 8008 bound_to 7997
  155.5088  140.3476  155.4366 H   0  0  0  0  0  0  0  0  0  0  0  0  # atno 8009 bound_to 7997
  156.0810  140.1373  156.9701 H   0  0  0  0  0  0  0  0  0  0  0  0  # atno 8010 bound_to 7997
  140.6849  143.6663  150.8223 H   0  0  0  0  0  0  0  0  0  0  0  0  # atno 10167 bound_to 10162
  157.6432  130.9509  150.0738 H   0  0  0  0  0  0  0  0  0  0  0  0  # atno 10718 bound_to 10713
  152.9954  135.5496  154.6053 H   0  0  0  0  0  0  0  0  0  0  0  0  # atno 10763 bound_to 10752
  154.5386  135.2818  155.1118 H   0  0  0  0  0  0  0  0  0  0  0  0  # atno 10764 bound_to 10752
  154.2405  135.6417  153.5258 H   0  0  0  0  0  0  0  0  0  0  0  0  # atno 10765 bound_to 10752
  140.0390  134.5901  155.9407 H   0  0  0  0  0  0  0  0  0  0  0  0  # atno 11005 bound_to 11000
  146.2359  139.5904  142.9524 LP  0  0  0  0  0  0  0  0  0  0  0  0  # atno 17320 bound_to 7965
  145.5423  141.0420  143.2324 LP  0  0  0  0  0  0  0  0  0  0  0  0  # atno 17321 bound_to 7965
  140.0368  143.5387  152.2735 LP  0  0  0  0  0  0  0  0  0  0  0  0  # atno 17342 bound_to 10162
  139.6199  144.7627  151.2763 LP  0  0  0  0  0  0  0  0  0  0  0  0  # atno 17343 bound_to 10162
  156.1734  130.3647  149.9134 LP  0  0  0  0  0  0  0  0  0  0  0  0  # atno 17370 bound_to 10713
  156.7104  130.8968  151.3609 LP  0  0  0  0  0  0  0  0  0  0  0  0  # atno 17371 bound_to 10713
  141.1873  133.6559  156.5275 LP  0  0  0  0  0  0  0  0  0  0  0  0  # atno 17394 bound_to 11000
  140.4100  134.7280  157.4830 LP  0  0  0  0  0  0  0  0  0  0  0  0  # atno 17395 bound_to 11000

$$$$
