AV-unprocessed.smi:17|AV-procd|sdf|106|dock1
  -GOLD-   2262015263D 1   1.00000     0.00000
 Structure written by MMmdl.
 57 59  0  0  0  0  0  0  0  0  1 V2000
  146.7437  135.1928  162.7187 C   0  0  0  0  0  0  0  0  0  0  0  0
  146.3311  133.7340  162.4611 C   0  0  0  0  0  0  0  0  0  0  0  0
  146.0095  133.4558  161.0593 N   0  0  0  0  0  0  0  0  0  0  0  0
  147.0107  133.7011  160.1749 C   0  0  0  0  0  0  0  0  0  0  0  0
  147.6180  132.6285  159.6087 N   0  0  0  0  0  0  0  0  0  0  0  0
  148.6207  132.8001  158.7434 C   0  0  0  0  0  0  0  0  0  0  0  0
  149.1653  133.9395  158.3134 N   0  0  0  0  0  0  0  0  0  0  0  0
  148.5620  135.0233  158.8807 C   0  0  0  0  0  0  0  0  0  0  0  0
  147.4918  134.9953  159.8194 C   0  0  0  0  0  0  0  0  0  0  0  0
  147.1516  136.2934  160.1808 N   0  0  0  0  0  0  0  0  0  0  0  0
  147.9701  137.0428  159.4958 C   0  0  0  0  0  0  0  0  0  0  0  0
  148.8419  136.3641  158.6744 N   0  0  0  0  0  0  0  0  0  0  0  0
  149.8544  136.9446  157.8035 C   0  0  0  0  0  0  0  0  0  0  0  0
  150.4220  138.3045  158.2954 C   0  0  1  0  0  0  0  0  0  0  0  0
  151.8992  138.1963  158.7414 C   0  0  0  0  0  0  0  0  0  0  0  0
  152.0472  137.2500  159.7789 O   0  0  0  0  0  0  0  0  0  0  0  0
  150.2343  139.4392  157.2538 C   0  0  1  0  0  0  0  0  0  0  0  0
  150.7165  140.8063  157.7100 C   0  0  0  0  0  0  0  0  0  0  0  0
  150.8400  141.5628  156.3925 C   0  0  0  0  0  0  0  0  0  0  0  0
  151.2051  140.5868  155.4241 O   0  0  0  0  0  0  0  0  0  0  0  0
  151.0598  139.2804  155.9717 C   0  0  0  0  0  0  0  0  0  0  0  0
  144.6508  133.8109  160.6185 C   0  0  1  0  0  0  0  0  0  0  0  0
  143.5675  133.4525  161.6539 C   0  0  0  0  0  0  0  0  0  0  0  0
  144.5092  135.2737  160.1438 C   0  0  0  0  0  0  0  0  0  0  0  0
  143.0675  135.4879  159.0098 S   0  0  0  0  0  0  0  0  0  0  0  0
  141.9652  136.5714  160.0051 C   0  0  0  0  0  0  0  0  0  0  0  0
  143.5004  136.2355  157.8198 O   0  0  0  0  0  0  0  0  0  0  0  0
  142.4116  134.1820  158.8439 O   0  0  0  0  0  0  0  0  0  0  0  0
  147.0452  135.3272  163.7575 H   0  0  0  0  0  0  0  0  0  0  0  0
  145.9279  135.8894  162.5241 H   0  0  0  0  0  0  0  0  0  0  0  0
  147.5875  135.4779  162.0894 H   0  0  0  0  0  0  0  0  0  0  0  0
  147.1580  133.0878  162.7574 H   0  0  0  0  0  0  0  0  0  0  0  0
  145.4949  133.4629  163.1046 H   0  0  0  0  0  0  0  0  0  0  0  0
  149.0478  131.8944  158.3387 H   0  0  0  0  0  0  0  0  0  0  0  0
  147.9535  138.1195  159.5715 H   0  0  0  0  0  0  0  0  0  0  0  0
  150.6571  136.2170  157.6833 H   0  0  0  0  0  0  0  0  0  0  0  0
  149.4213  137.0589  156.8092 H   0  0  0  0  0  0  0  0  0  0  0  0
  149.8432  138.5850  159.1769 H   0  0  0  0  0  0  0  0  0  0  0  0
  152.5499  137.9319  157.9077 H   0  0  0  0  0  0  0  0  0  0  0  0
  152.2595  139.1478  159.1304 H   0  0  0  0  0  0  0  0  0  0  0  0
  152.6436  137.6018  160.4228 H   0  0  0  0  0  0  0  0  0  0  0  0
  149.1836  139.5127  156.9702 H   0  0  0  0  0  0  0  0  0  0  0  0
  150.0416  141.3008  158.4078 H   0  0  0  0  0  0  0  0  0  0  0  0
  151.6952  140.7254  158.1852 H   0  0  0  0  0  0  0  0  0  0  0  0
  149.8781  141.9916  156.1086 H   0  0  0  0  0  0  0  0  0  0  0  0
  151.5709  142.3700  156.4417 H   0  0  0  0  0  0  0  0  0  0  0  0
  152.0541  138.8923  156.1965 H   0  0  0  0  0  0  0  0  0  0  0  0
  150.5906  138.6094  155.2521 H   0  0  0  0  0  0  0  0  0  0  0  0
  144.4437  133.1895  159.7466 H   0  0  0  0  0  0  0  0  0  0  0  0
  142.5705  133.6075  161.2411 H   0  0  0  0  0  0  0  0  0  0  0  0
  143.6458  134.0689  162.5498 H   0  0  0  0  0  0  0  0  0  0  0  0
  143.6310  132.4070  161.9560 H   0  0  0  0  0  0  0  0  0  0  0  0
  144.3262  135.9221  161.0005 H   0  0  0  0  0  0  0  0  0  0  0  0
  145.4086  135.6487  159.6570 H   0  0  0  0  0  0  0  0  0  0  0  0
  141.0542  136.7736  159.4426 H   0  0  0  0  0  0  0  0  0  0  0  0
  142.4741  137.5108  160.2200 H   0  0  0  0  0  0  0  0  0  0  0  0
  141.7093  136.0731  160.9397 H   0  0  0  0  0  0  0  0  0  0  0  0
  1  2  1  0  0  0  0
  1 29  1  0  0  0  0
  1 30  1  0  0  0  0
  1 31  1  0  0  0  0
  2  3  1  0  0  0  0
  2 32  1  0  0  0  0
  2 33  1  0  0  0  0
  3  4  1  0  0  0  0
  3 22  1  0  0  0  0
  4  9  1  0  0  0  0
  4  5  2  0  0  0  0
  5  6  1  0  0  0  0
  6  7  2  0  0  0  0
  6 34  1  0  0  0  0
  7  8  1  0  0  0  0
  8 12  1  0  0  0  0
  8  9  2  0  0  0  0
  9 10  1  0  0  0  0
 10 11  2  0  0  0  0
 11 12  1  0  0  0  0
 11 35  1  0  0  0  0
 12 13  1  0  0  0  0
 13 14  1  0  0  0  0
 13 36  1  0  0  0  0
 13 37  1  0  0  0  0
 14 15  1  0  0  0  0
 14 17  1  0  0  0  0
 14 38  1  0  0  0  0
 15 16  1  0  0  0  0
 15 39  1  0  0  0  0
 15 40  1  0  0  0  0
 16 41  1  0  0  0  0
 17 21  1  0  0  0  0
 17 18  1  0  0  0  0
 17 42  1  0  0  0  0
 18 19  1  0  0  0  0
 18 43  1  0  0  0  0
 18 44  1  0  0  0  0
 19 20  1  0  0  0  0
 19 45  1  0  0  0  0
 19 46  1  0  0  0  0
 20 21  1  0  0  0  0
 21 47  1  0  0  0  0
 21 48  1  0  0  0  0
 22 23  1  0  0  0  0
 22 24  1  0  0  0  0
 22 49  1  0  0  0  0
 23 50  1  0  0  0  0
 23 51  1  0  0  0  0
 23 52  1  0  0  0  0
 24 25  1  0  0  0  0
 24 53  1  0  0  0  0
 24 54  1  0  0  0  0
 25 26  1  0  0  0  0
 25 27  2  0  0  0  0
 25 28  2  0  0  0  0
 26 55  1  0  0  0  0
 26 56  1  0  0  0  0
 26 57  1  0  0  0  0
M  END
> <s_m_source_file>
AV-unprocessed.smi

> <i_m_source_file_index>
17

> <i_lp_mmshare_version>
43012

> <i_f3d_flags>
0

> <s_epik_input>
W0NIM11TKD1PKSg9TylbQ0gyXVtDQEBIXShbQ0gzXSlOKFtDSDJdW0NIM10pYyhuW2NIXW4xKWMoYzEyKW5bY0hdbjJbQ0gyXVtDQEhdKFtDSDJdW09IXSlbQ0BASF0zW0NIMl1bQ0gyXU9bQ0gyXTM=

> <s_epik_cmdline>
J2VwaWtfcHl0aG9uJywgJy1waCcsICc3LjAnLCAnLXRuJywgJzgnLCAnLW1hJywgJzIwMCcsICctbWV0YWxfYmluZGluZycsICctaW1hZScsICc8aW5maWxlLm1hZT4nLCAnLW9tYWUnLCAnPG91dGZpbGUubWFlPic=

> <r_lp_tautomer_probability>
1

> <r_epik_Ionization_Penalty>
0.00119955

> <r_epik_Ionization_Penalty_Charging>
0

> <r_epik_Ionization_Penalty_Neutral>
0.00119955

> <r_epik_State_Penalty>
0.000665399

> <r_epik_Charging_Adjusted_Penalty>
0.000665399

> <i_epik_Tot_Q>
0

> <i_epik_Tot_abs_Q>
0

> <r_epik_Metal_State_Penalty>
-0

> <b_epik_Metal_Only>
0

> <s_lp_Force_Field>
OPLS_2005

> <r_lp_Energy>
32.9267

> <b_lp_Chiralities_Consistent>
1

> <s_lp_Variant>
AV-unprocessed.smi:17-8

> <Gold.Version>
5.8.1

> <Gold.Id.Protein>
6NUR|6NUR_protein|mol2

> <Gold.PLP.Fitness>
40.7844

> <Gold.PLP.PLP>
-31.2267

> <Gold.PLP.part.hbond>
-4.0000

> <Gold.PLP.part.metal>
0.0000

> <Gold.PLP.part.buried>
-5.3350

> <Gold.PLP.part.nonpolar>
-22.0438

> <Gold.PLP.part.repulsive>
0.0516

> <Gold.PLP.ligand.clash>
0.0000

> <Gold.PLP.ligand.torsion>
1.9491

> <Gold.PLP.Chemscore.Hbond>
4.0000

> <Gold.PLP.Chemscore.CHOScore>
0.0000

> <Gold.PLP.Chemscore.Metal>
0.0000

> <Gold.Chemscore.Hbonds>
donor molecule, donor type, donor heavy atom, donor atom, acceptor molecule, acceptor atom, score
      P1  H  6896  6908       L1     7  0.77
      P1  H  6896  6909       L1    16  0.68
      P1  H  7989  7998       L1    20  0.86
      P1  H 11000 11005       L1    28  1.00

> <Gold.PLP.Chemscore.Internal.Correction>
1.4558

> <Gold.Rescore>
     Score         DG    S(hbond)    S(metal)    S(lipo)     H(rot)  DE(clash)    DE(int)     intcor
      9.77     -14.16       3.38        0.00      60.59       3.79       0.00       4.38       ----

> <Gold.Chemscore.Fitness>
9.7742

> <Gold.Chemscore.DG>
-14.1595

> <Gold.Chemscore.ZeroCoef>
-5.4800

> <Gold.Chemscore.Hbond>
3.3807

> <Gold.Chemscore.Metal>
0.0000

> <Gold.Chemscore.Lipo>
60.5882

> <Gold.Chemscore.Internal_Hbond>
0.0000

> <Gold.Chemscore.DEClash>
0.0015

> <Gold.Chemscore.DEInternal>
4.3839

> <Gold.Chemscore.Rot>
3.7894

> <Gold.Chemscore.Internal.Correction>
   9.000000E+99

> <Gold.Chemscore.Hbonds>
donor molecule, donor type, donor heavy atom, donor atom, acceptor molecule, acceptor atom, score
      P1  H  6896  6908       L1     7  0.05
      P1  H  6896  6909       L1    16  0.63
      P1  H  7989  7998       L1    20  0.82
      P1  H 11000 11005       L1    28  0.86

> <Gold.Chemscore.Hbond.Weighted>
-11.2917

> <Gold.Chemscore.Metal.Weighted>
-0.0000

> <Gold.Chemscore.Lipo.Weighted>
-7.0888

> <Gold.Chemscore.Internal_Hbond.Weighted>
0.0000

> <Gold.Chemscore.DEClash.Weighted>
0.0015

> <Gold.Chemscore.DEInternal.Weighted>
4.3839

> <Gold.Chemscore.Rot.Weighted>
9.7010

> <Gold.Chemscore.Internal.Correction.Weighted>
   9.000000E+99

> <Gold.Protein.RotatedTorsions>
[ 6907 6896 6895 6894 ] final  114.10 input  -60.11 | X-H torsion
[ 7974 7965 7964 7962 ] final  -89.92 input  175.53 | X-H torsion
[ 8008 7997 7996 7995 ] final -145.73 input   59.86 | X-H torsion
[ 10167 10162 10161 10158 ] final  -52.73 input  -65.29 | X-H torsion
[ 10718 10713 10712 10709 ] final -123.83 input   66.30 | X-H torsion
[ 10763 10752 10751 10750 ] final   64.65 input  -60.55 | X-H torsion
[ 11005 11000 10999 10996 ] final -132.79 input  -57.11 | X-H torsion

> <Gold.Protein.ActiveResidues>
 VAL166  LYS551  ARG553  GLY616  TRP617  ASP618  TYR619  PRO620  LYS621  CYS622 
 ASP623  PHE694  ASN695  SER759  ASP760  ASP761  ALA762  ILE779  LEU786  VAL792 
 PHE793  MET794  SER795  GLU796  ALA797  LYS798  CYS799  TRP800  GLU811  SER814 

> <Gold.Protein.RotatedAtoms>
  152.4822  133.8283  159.7089 H   0  0  0  0  0  0  0  0  0  0  0  0  # atno 6907 bound_to 6896
  150.8881  133.7271  159.2919 H   0  0  0  0  0  0  0  0  0  0  0  0  # atno 6908 bound_to 6896
  151.4753  135.1052  159.9815 H   0  0  0  0  0  0  0  0  0  0  0  0  # atno 6909 bound_to 6896
  145.4334  140.9556  143.2115 H   0  0  0  0  0  0  0  0  0  0  0  0  # atno 7974 bound_to 7965
  155.5479  140.0614  157.2856 H   0  0  0  0  0  0  0  0  0  0  0  0  # atno 8008 bound_to 7997
  154.4430  140.1907  156.0701 H   0  0  0  0  0  0  0  0  0  0  0  0  # atno 8009 bound_to 7997
  156.0537  140.3281  155.7385 H   0  0  0  0  0  0  0  0  0  0  0  0  # atno 8010 bound_to 7997
  140.6522  143.2574  151.4690 H   0  0  0  0  0  0  0  0  0  0  0  0  # atno 10167 bound_to 10162
  156.1535  130.6551  150.9948 H   0  0  0  0  0  0  0  0  0  0  0  0  # atno 10718 bound_to 10713
  153.0064  135.5385  154.6543 H   0  0  0  0  0  0  0  0  0  0  0  0  # atno 10763 bound_to 10752
  154.5768  135.2846  155.0775 H   0  0  0  0  0  0  0  0  0  0  0  0  # atno 10764 bound_to 10752
  154.1920  135.6498  153.5115 H   0  0  0  0  0  0  0  0  0  0  0  0  # atno 10765 bound_to 10752
  140.9138  134.1533  157.4368 H   0  0  0  0  0  0  0  0  0  0  0  0  # atno 11005 bound_to 11000
  144.8168  139.5862  143.7005 LP  0  0  0  0  0  0  0  0  0  0  0  0  # atno 17320 bound_to 7965
  146.2595  139.6378  142.9372 LP  0  0  0  0  0  0  0  0  0  0  0  0  # atno 17321 bound_to 7965
  139.5739  144.1864  152.1875 LP  0  0  0  0  0  0  0  0  0  0  0  0  # atno 17342 bound_to 10162
  140.1169  144.5408  150.6888 LP  0  0  0  0  0  0  0  0  0  0  0  0  # atno 17343 bound_to 10162
  157.6676  131.0868  150.7690 LP  0  0  0  0  0  0  0  0  0  0  0  0  # atno 17370 bound_to 10713
  156.7757  130.4843  149.5410 LP  0  0  0  0  0  0  0  0  0  0  0  0  # atno 17371 bound_to 10713
  139.8762  134.9946  156.5701 LP  0  0  0  0  0  0  0  0  0  0  0  0  # atno 17394 bound_to 11000
  140.8076  133.8455  155.8781 LP  0  0  0  0  0  0  0  0  0  0  0  0  # atno 17395 bound_to 11000

$$$$
