AV-unprocessed.smi:944|AV-procd|sdf|4231|dock8
  -GOLD-   22720 2143D 1   1.00000     0.00000
 Structure written by MMmdl.
 28 28  0  0  0  0  0  0  0  0  1 V2000
  151.6042  144.9679  158.4771 C   0  0  0  0  0  0  0  0  0  0  0  0
  151.0939  143.9203  157.6063 N   0  0  0  0  0  0  0  0  0  0  0  0
  151.4865  142.6394  157.6563 C   0  0  0  0  0  0  0  0  0  0  0  0
  152.3193  142.2224  158.4632 O   0  0  0  0  0  0  0  0  0  0  0  0
  150.8211  141.6850  156.6508 C   0  0  2  0  0  0  0  0  0  0  0  0
  149.3716  141.4483  157.1063 C   0  0  0  0  0  0  0  0  0  0  0  0
  151.5040  140.3927  156.6355 N   0  0  0  0  0  0  0  0  0  0  0  0
  151.5100  139.5283  155.6079 C   0  0  0  0  0  0  0  0  0  0  0  0
  150.9223  139.7314  154.5457 O   0  0  0  0  0  0  0  0  0  0  0  0
  152.3019  138.2361  155.8095 C   0  0  0  0  0  0  0  0  0  0  0  0
  152.4694  137.9413  157.2208 N   0  0  0  0  0  0  0  0  0  0  0  0
  152.0202  136.9200  157.9529 C   0  0  0  0  0  0  0  0  0  0  0  0
  152.3670  136.9841  159.2309 N   0  0  0  0  0  0  0  0  0  0  0  0
  153.0783  138.1508  159.2161 C   0  0  0  0  0  0  0  0  0  0  0  0
  153.1698  138.7649  158.0364 N   0  0  0  0  0  0  0  0  0  0  0  0
  151.1258  145.9172  158.2364 H   0  0  0  0  0  0  0  0  0  0  0  0
  152.6812  145.0870  158.3509 H   0  0  0  0  0  0  0  0  0  0  0  0
  151.3991  144.7379  159.5235 H   0  0  0  0  0  0  0  0  0  0  0  0
  150.4042  144.1852  156.9180 H   0  0  0  0  0  0  0  0  0  0  0  0
  150.8251  142.1233  155.6507 H   0  0  0  0  0  0  0  0  0  0  0  0
  148.8067  142.3811  157.1323 H   0  0  0  0  0  0  0  0  0  0  0  0
  149.3250  141.0030  158.1014 H   0  0  0  0  0  0  0  0  0  0  0  0
  148.8541  140.7762  156.4208 H   0  0  0  0  0  0  0  0  0  0  0  0
  152.0200  140.1421  157.4667 H   0  0  0  0  0  0  0  0  0  0  0  0
  151.7823  137.4014  155.3372 H   0  0  0  0  0  0  0  0  0  0  0  0
  153.2803  138.3179  155.3333 H   0  0  0  0  0  0  0  0  0  0  0  0
  151.4259  136.1164  157.5429 H   0  0  0  0  0  0  0  0  0  0  0  0
  153.5420  138.5601  160.1015 H   0  0  0  0  0  0  0  0  0  0  0  0
  1  2  1  0  0  0  0
  1 16  1  0  0  0  0
  1 17  1  0  0  0  0
  1 18  1  0  0  0  0
  2  3  1  0  0  0  0
  2 19  1  0  0  0  0
  3  4  2  0  0  0  0
  3  5  1  0  0  0  0
  5  6  1  0  0  0  0
  5  7  1  0  0  0  0
  5 20  1  0  0  0  0
  6 21  1  0  0  0  0
  6 22  1  0  0  0  0
  6 23  1  0  0  0  0
  7  8  1  0  0  0  0
  7 24  1  0  0  0  0
  8  9  2  0  0  0  0
  8 10  1  0  0  0  0
 10 11  1  0  0  0  0
 10 25  1  0  0  0  0
 10 26  1  0  0  0  0
 11 15  1  0  0  0  0
 11 12  1  0  0  0  0
 12 13  2  0  0  0  0
 12 27  1  0  0  0  0
 13 14  1  0  0  0  0
 14 15  2  0  0  0  0
 14 28  1  0  0  0  0
M  END
> <s_m_source_file>
AV-unprocessed.smi

> <i_m_source_file_index>
944

> <i_lp_mmshare_version>
43012

> <i_f3d_flags>
0

> <s_epik_input>
W0NIM11bTkhdQyg9TylbQ0BIXShbQ0gzXSlbTkhdQyg9TylbQ0gyXW4xW2NIXW5bY0hdbjE=

> <s_epik_cmdline>
J2VwaWtfcHl0aG9uJywgJy1waCcsICc3LjAnLCAnLXRuJywgJzgnLCAnLW1hJywgJzIwMCcsICctbWV0YWxfYmluZGluZycsICctaW1hZScsICc8aW5maWxlLm1hZT4nLCAnLW9tYWUnLCAnPG91dGZpbGUubWFlPic=

> <r_lp_tautomer_probability>
1

> <r_epik_Ionization_Penalty>
7.54354e-06

> <r_epik_Ionization_Penalty_Charging>
0

> <r_epik_Ionization_Penalty_Neutral>
7.54354e-06

> <r_epik_State_Penalty>
-0

> <r_epik_Charging_Adjusted_Penalty>
0

> <i_epik_Tot_Q>
0

> <i_epik_Tot_abs_Q>
0

> <r_epik_Metal_State_Penalty>
-0

> <b_epik_Metal_Only>
0

> <s_lp_Force_Field>
OPLS_2005

> <r_lp_Energy>
4.44665

> <b_lp_Chiralities_Consistent>
1

> <s_lp_Variant>
AV-unprocessed.smi:944-1

> <Gold.Version>
5.8.1

> <Gold.Id.Protein>
6NUR|6NUR_protein|mol2

> <Gold.PLP.Fitness>
32.9309

> <Gold.PLP.PLP>
-23.9160

> <Gold.PLP.part.hbond>
-3.8648

> <Gold.PLP.part.metal>
0.0000

> <Gold.PLP.part.buried>
-5.2008

> <Gold.PLP.part.nonpolar>
-16.0050

> <Gold.PLP.part.repulsive>
0.2452

> <Gold.PLP.ligand.clash>
0.0000

> <Gold.PLP.ligand.torsion>
0.9440

> <Gold.PLP.Chemscore.Hbond>
3.6309

> <Gold.PLP.Chemscore.CHOScore>
0.0000

> <Gold.PLP.Chemscore.Metal>
0.0000

> <Gold.Chemscore.Hbonds>
donor molecule, donor type, donor heavy atom, donor atom, acceptor molecule, acceptor atom, score
      L1  H     2    19       P1  8028  1.00
      P1  H  6896  6908       L1    13  0.86
      P1  H  7989  7998       L1     9  1.00
      P1  H  7997  8010       L1    15  0.70

> <Gold.PLP.Chemscore.Internal.Correction>
0.0105

> <Gold.Rescore>
     Score         DG    S(hbond)    S(metal)    S(lipo)     H(rot)  DE(clash)    DE(int)     intcor
     10.43     -12.84       3.23        0.00      30.80       2.74       0.03       2.38       ----

> <Gold.Chemscore.Fitness>
10.4265

> <Gold.Chemscore.DG>
-12.8355

> <Gold.Chemscore.ZeroCoef>
-5.4800

> <Gold.Chemscore.Hbond>
3.2256

> <Gold.Chemscore.Metal>
0.0000

> <Gold.Chemscore.Lipo>
30.7957

> <Gold.Chemscore.Internal_Hbond>
0.0000

> <Gold.Chemscore.DEClash>
0.0285

> <Gold.Chemscore.DEInternal>
2.3806

> <Gold.Chemscore.Rot>
2.7426

> <Gold.Chemscore.Internal.Correction>
   9.000000E+99

> <Gold.Chemscore.Hbonds>
donor molecule, donor type, donor heavy atom, donor atom, acceptor molecule, acceptor atom, score
      L1  H     2    19       P1  8028  0.91
      P1  H  6896  6908       L1    13  0.41
      P1  H  7989  7998       L1     9  0.93
      P1  H  7997  8010       L1    15  0.59

> <Gold.Chemscore.Hbond.Weighted>
-10.7734

> <Gold.Chemscore.Metal.Weighted>
-0.0000

> <Gold.Chemscore.Lipo.Weighted>
-3.6031

> <Gold.Chemscore.Internal_Hbond.Weighted>
0.0000

> <Gold.Chemscore.DEClash.Weighted>
0.0285

> <Gold.Chemscore.DEInternal.Weighted>
2.3806

> <Gold.Chemscore.Rot.Weighted>
7.0210

> <Gold.Chemscore.Internal.Correction.Weighted>
   9.000000E+99

> <Gold.Protein.RotatedTorsions>
[ 6907 6896 6895 6894 ] final -103.97 input  -60.11 | X-H torsion
[ 7974 7965 7964 7962 ] final -147.85 input  175.53 | X-H torsion
[ 8008 7997 7996 7995 ] final   38.33 input   59.86 | X-H torsion
[ 10167 10162 10161 10158 ] final -101.67 input  -65.29 | X-H torsion
[ 10718 10713 10712 10709 ] final -156.79 input   66.30 | X-H torsion
[ 10763 10752 10751 10750 ] final   -0.68 input  -60.55 | X-H torsion
[ 11005 11000 10999 10996 ] final   24.37 input  -57.11 | X-H torsion

> <Gold.Protein.ActiveResidues>
 VAL166  LYS551  ARG553  GLY616  TRP617  ASP618  TYR619  PRO620  LYS621  CYS622 
 ASP623  PHE694  ASN695  SER759  ASP760  ASP761  ALA762  ILE779  LEU786  VAL792 
 PHE793  MET794  SER795  GLU796  ALA797  LYS798  CYS799  TRP800  GLU811  SER814 

> <Gold.Protein.RotatedAtoms>
  150.7265  134.0349  159.3745 H   0  0  0  0  0  0  0  0  0  0  0  0  # atno 6907 bound_to 6896
  151.8320  135.0616  160.0447 H   0  0  0  0  0  0  0  0  0  0  0  0  # atno 6908 bound_to 6896
  152.2927  133.5541  159.5604 H   0  0  0  0  0  0  0  0  0  0  0  0  # atno 6909 bound_to 6896
  144.8067  140.5273  143.5670 H   0  0  0  0  0  0  0  0  0  0  0  0  # atno 7974 bound_to 7965
  155.2184  140.3329  155.4319 H   0  0  0  0  0  0  0  0  0  0  0  0  # atno 8008 bound_to 7997
  156.2343  140.1865  156.7208 H   0  0  0  0  0  0  0  0  0  0  0  0  # atno 8009 bound_to 7997
  154.6032  140.0620  156.9381 H   0  0  0  0  0  0  0  0  0  0  0  0  # atno 8010 bound_to 7997
  140.2388  143.3553  152.0820 H   0  0  0  0  0  0  0  0  0  0  0  0  # atno 10167 bound_to 10162
  156.5314  130.8522  151.2717 H   0  0  0  0  0  0  0  0  0  0  0  0  # atno 10718 bound_to 10713
  153.3350  135.6977  153.6915 H   0  0  0  0  0  0  0  0  0  0  0  0  # atno 10763 bound_to 10752
  153.5703  135.3517  155.2835 H   0  0  0  0  0  0  0  0  0  0  0  0  # atno 10764 bound_to 10752
  154.8625  135.4270  154.2548 H   0  0  0  0  0  0  0  0  0  0  0  0  # atno 10765 bound_to 10752
  140.3594  134.2142  155.7673 H   0  0  0  0  0  0  0  0  0  0  0  0  # atno 11005 bound_to 11000
  145.5422  139.1475  143.3441 LP  0  0  0  0  0  0  0  0  0  0  0  0  # atno 17320 bound_to 7965
  146.2359  140.5561  142.8955 LP  0  0  0  0  0  0  0  0  0  0  0  0  # atno 17321 bound_to 7965
  139.5084  144.6849  151.5912 LP  0  0  0  0  0  0  0  0  0  0  0  0  # atno 17342 bound_to 10162
  140.6129  143.9402  150.6467 LP  0  0  0  0  0  0  0  0  0  0  0  0  # atno 17343 bound_to 10162
  157.7421  130.9883  150.2492 LP  0  0  0  0  0  0  0  0  0  0  0  0  # atno 17370 bound_to 10713
  156.3056  130.3764  149.7709 LP  0  0  0  0  0  0  0  0  0  0  0  0  # atno 17371 bound_to 10713
  141.1988  133.8025  157.0563 LP  0  0  0  0  0  0  0  0  0  0  0  0  # atno 17394 bound_to 11000
  140.0639  134.9740  157.1352 LP  0  0  0  0  0  0  0  0  0  0  0  0  # atno 17395 bound_to 11000

$$$$
