AV-unprocessed.smi:2783|AV-procd|sdf|10725|dock4
  -GOLD-   2272015163D 1   1.00000     0.00000
 Structure written by MMmdl.
 28 28  0  0  0  0  0  0  0  0  2 V2000
  151.5821  145.2801  160.6154 C   0  0  0  0  0  0  0  0  0  0  0  0
  150.9237  144.2614  159.8647 O   0  0  0  0  0  0  0  0  0  0  0  0
  151.6986  143.5029  158.9239 C   0  0  0  0  0  0  0  0  0  0  0  0
  152.4305  144.5447  158.0594 C   0  0  0  0  0  0  0  0  0  0  0  0
  152.7392  142.6264  159.6599 C   0  0  0  0  0  0  0  0  0  0  0  0
  150.7843  142.6535  158.0096 C   0  0  0  0  0  0  0  0  0  0  0  0
  149.5677  142.6608  158.1985 O   0  0  0  0  0  0  0  0  0  0  0  0
  151.4054  141.9253  157.0614 N   0  0  0  0  0  0  0  0  0  0  0  0
  150.8759  141.0625  156.0590 C   0  0  0  0  0  0  0  0  0  0  0  0
  149.5930  141.2074  155.4756 C   0  0  0  0  0  0  0  0  0  0  0  0
  149.1914  140.2888  154.4858 C   0  0  0  0  0  0  0  0  0  0  0  0
  149.9646  139.2723  154.0525 N   0  0  0  0  0  0  0  0  0  0  0  0
  151.1889  139.1385  154.6031 C   0  0  0  0  0  0  0  0  0  0  0  0
  151.6913  139.9997  155.6007 C   0  0  0  0  0  0  0  0  0  0  0  0
  152.9478  139.7930  156.1014 O   0  5  0  0  0  0  0  0  0  0  0  0
  150.8924  145.6714  161.3628 H   0  0  0  0  0  0  0  0  0  0  0  0
  151.8773  146.1160  159.9814 H   0  0  0  0  0  0  0  0  0  0  0  0
  152.4633  144.9161  161.1430 H   0  0  0  0  0  0  0  0  0  0  0  0
  153.0619  144.0708  157.3066 H   0  0  0  0  0  0  0  0  0  0  0  0
  153.0701  145.1818  158.6710 H   0  0  0  0  0  0  0  0  0  0  0  0
  151.7266  145.1957  157.5387 H   0  0  0  0  0  0  0  0  0  0  0  0
  153.4572  142.1905  158.9640 H   0  0  0  0  0  0  0  0  0  0  0  0
  152.2729  141.8006  160.1980 H   0  0  0  0  0  0  0  0  0  0  0  0
  153.3055  143.2152  160.3820 H   0  0  0  0  0  0  0  0  0  0  0  0
  152.4136  141.9911  157.0578 H   0  0  0  0  0  0  0  0  0  0  0  0
  148.9114  141.9950  155.7513 H   0  0  0  0  0  0  0  0  0  0  0  0
  148.2184  140.3766  154.0257 H   0  0  0  0  0  0  0  0  0  0  0  0
  151.7870  138.3184  154.2331 H   0  0  0  0  0  0  0  0  0  0  0  0
  1  2  1  0  0  0  0
  1 16  1  0  0  0  0
  1 17  1  0  0  0  0
  1 18  1  0  0  0  0
  2  3  1  0  0  0  0
  3  4  1  0  0  0  0
  3  5  1  0  0  0  0
  3  6  1  0  0  0  0
  4 19  1  0  0  0  0
  4 20  1  0  0  0  0
  4 21  1  0  0  0  0
  5 22  1  0  0  0  0
  5 23  1  0  0  0  0
  5 24  1  0  0  0  0
  6  7  2  0  0  0  0
  6  8  1  0  0  0  0
  8 25  1  0  0  0  0
  8  9  1  0  0  0  0
  9 10  2  0  0  0  0
  9 14  1  0  0  0  0
 10 11  1  0  0  0  0
 10 26  1  0  0  0  0
 11 12  2  0  0  0  0
 11 27  1  0  0  0  0
 12 13  1  0  0  0  0
 13 14  2  0  0  0  0
 13 28  1  0  0  0  0
 14 15  1  0  0  0  0
M  CHG  1  15  -1
M  END
> <s_m_source_file>
AV-unprocessed.smi

> <i_m_source_file_index>
2783

> <i_lp_mmshare_version>
43012

> <i_f3d_flags>
0

> <s_epik_input>
W0NIM11PQyhbQ0gzXSkoW0NIM10pQyg9TylbTkhdYzFbY0hdW2NIXW5bY0hdYzFbT0hd

> <s_epik_cmdline>
J2VwaWtfcHl0aG9uJywgJy1waCcsICc3LjAnLCAnLXRuJywgJzgnLCAnLW1hJywgJzIwMCcsICctbWV0YWxfYmluZGluZycsICctaW1hZScsICc8aW5maWxlLm1hZT4nLCAnLW9tYWUnLCAnPG91dGZpbGUubWFlPic=

> <r_lp_tautomer_probability>
0.56342

> <r_epik_Ionization_Penalty>
4.44895

> <r_epik_Ionization_Penalty_Charging>
2.11839

> <r_epik_Ionization_Penalty_Neutral>
2.33056

> <r_epik_State_Penalty>
2.66573

> <r_epik_Charging_Adjusted_Penalty>
4.78411

> <i_epik_Tot_Q>
-1

> <i_epik_Tot_abs_Q>
1

> <r_epik_Metal_State_Penalty>
0.617134

> <b_epik_Metal_Only>
1

> <s_lp_Force_Field>
OPLS_2005

> <r_lp_Energy>
12.8614

> <b_lp_Chiralities_Consistent>
1

> <s_lp_Variant>
AV-unprocessed.smi:2783-3

> <Gold.Version>
5.8.1

> <Gold.Id.Protein>
6NUR|6NUR_protein|mol2

> <Gold.PLP.Fitness>
39.8572

> <Gold.PLP.PLP>
-34.3131

> <Gold.PLP.part.hbond>
-1.0349

> <Gold.PLP.part.metal>
0.0000

> <Gold.PLP.part.buried>
-3.4403

> <Gold.PLP.part.nonpolar>
-31.8753

> <Gold.PLP.part.repulsive>
1.6887

> <Gold.PLP.ligand.clash>
0.0000

> <Gold.PLP.ligand.torsion>
0.2440

> <Gold.PLP.Chemscore.Hbond>
2.0000

> <Gold.PLP.Chemscore.CHOScore>
0.0000

> <Gold.PLP.Chemscore.Metal>
0.0000

> <Gold.Chemscore.Hbonds>
donor molecule, donor type, donor heavy atom, donor atom, acceptor molecule, acceptor atom, score
      P1  H  7997  8009       L1    15  1.72

> <Gold.PLP.Chemscore.Internal.Correction>
0.0321

> <Gold.Rescore>
     Score         DG    S(hbond)    S(metal)    S(lipo)     H(rot)  DE(clash)    DE(int)     intcor
     14.57     -15.55       1.00        0.00      84.73       1.24       0.05       0.94       ----

> <Gold.Chemscore.Fitness>
14.5662

> <Gold.Chemscore.DG>
-15.5545

> <Gold.Chemscore.ZeroCoef>
-5.4800

> <Gold.Chemscore.Hbond>
0.9990

> <Gold.Chemscore.Metal>
0.0000

> <Gold.Chemscore.Lipo>
84.7256

> <Gold.Chemscore.Internal_Hbond>
0.0000

> <Gold.Chemscore.DEClash>
0.0491

> <Gold.Chemscore.DEInternal>
0.9392

> <Gold.Chemscore.Rot>
1.2402

> <Gold.Chemscore.Internal.Correction>
   9.000000E+99

> <Gold.Chemscore.Hbonds>
donor molecule, donor type, donor heavy atom, donor atom, acceptor molecule, acceptor atom, score
      P1  H  7997  8009       L1    15  0.83

> <Gold.Chemscore.Hbond.Weighted>
-3.3366

> <Gold.Chemscore.Metal.Weighted>
-0.0000

> <Gold.Chemscore.Lipo.Weighted>
-9.9129

> <Gold.Chemscore.Internal_Hbond.Weighted>
0.0000

> <Gold.Chemscore.DEClash.Weighted>
0.0491

> <Gold.Chemscore.DEInternal.Weighted>
0.9392

> <Gold.Chemscore.Rot.Weighted>
3.1750

> <Gold.Chemscore.Internal.Correction.Weighted>
   9.000000E+99

> <Gold.Protein.RotatedTorsions>
[ 6907 6896 6895 6894 ] final  -42.92 input  -60.11 | X-H torsion
[ 7974 7965 7964 7962 ] final   31.89 input  175.53 | X-H torsion
[ 8008 7997 7996 7995 ] final -146.59 input   59.86 | X-H torsion
[ 10167 10162 10161 10158 ] final  -68.19 input  -65.29 | X-H torsion
[ 10718 10713 10712 10709 ] final  -55.36 input   66.30 | X-H torsion
[ 10763 10752 10751 10750 ] final  -68.52 input  -60.55 | X-H torsion
[ 11005 11000 10999 10996 ] final  -12.94 input  -57.11 | X-H torsion

> <Gold.Protein.ActiveResidues>
 VAL166  LYS551  ARG553  GLY616  TRP617  ASP618  TYR619  PRO620  LYS621  CYS622 
 ASP623  PHE694  ASN695  SER759  ASP760  ASP761  ALA762  ILE779  LEU786  VAL792 
 PHE793  MET794  SER795  GLU796  ALA797  LYS798  CYS799  TRP800  GLU811  SER814 

> <Gold.Protein.RotatedAtoms>
  150.9497  134.8898  159.7664 H   0  0  0  0  0  0  0  0  0  0  0  0  # atno 6907 bound_to 6896
  152.5114  134.3824  159.9365 H   0  0  0  0  0  0  0  0  0  0  0  0  # atno 6908 bound_to 6896
  151.3840  133.3771  159.2748 H   0  0  0  0  0  0  0  0  0  0  0  0  # atno 6909 bound_to 6896
  146.1521  139.6597  142.9091 H   0  0  0  0  0  0  0  0  0  0  0  0  # atno 7974 bound_to 7965
  155.5618  140.0626  157.2827 H   0  0  0  0  0  0  0  0  0  0  0  0  # atno 8008 bound_to 7997
  154.4388  140.1884  156.0836 H   0  0  0  0  0  0  0  0  0  0  0  0  # atno 8009 bound_to 7997
  156.0441  140.3292  155.7280 H   0  0  0  0  0  0  0  0  0  0  0  0  # atno 8010 bound_to 7997
  140.5526  143.2312  151.6882 H   0  0  0  0  0  0  0  0  0  0  0  0  # atno 10167 bound_to 10162
  156.1375  130.4156  150.0160 H   0  0  0  0  0  0  0  0  0  0  0  0  # atno 10718 bound_to 10713
  154.3902  135.6054  153.5839 H   0  0  0  0  0  0  0  0  0  0  0  0  # atno 10763 bound_to 10752
  152.9787  135.5882  154.4306 H   0  0  0  0  0  0  0  0  0  0  0  0  # atno 10764 bound_to 10752
  154.4089  135.2844  155.2027 H   0  0  0  0  0  0  0  0  0  0  0  0  # atno 10765 bound_to 10752
  140.7710  133.8439  155.9207 H   0  0  0  0  0  0  0  0  0  0  0  0  # atno 11005 bound_to 11000
  145.4797  141.0437  143.2653 LP  0  0  0  0  0  0  0  0  0  0  0  0  # atno 17320 bound_to 7965
  144.7917  139.6314  143.7110 LP  0  0  0  0  0  0  0  0  0  0  0  0  # atno 17321 bound_to 7965
  139.5034  144.3793  152.0392 LP  0  0  0  0  0  0  0  0  0  0  0  0  # atno 17342 bound_to 10162
  140.2911  144.3752  150.6088 LP  0  0  0  0  0  0  0  0  0  0  0  0  # atno 17343 bound_to 10162
  156.8055  130.9306  151.3645 LP  0  0  0  0  0  0  0  0  0  0  0  0  # atno 17370 bound_to 10713
  157.6545  130.8913  149.9701 LP  0  0  0  0  0  0  0  0  0  0  0  0  # atno 17371 bound_to 10713
  140.9574  134.1700  157.4681 LP  0  0  0  0  0  0  0  0  0  0  0  0  # atno 17394 bound_to 11000
  139.8756  134.9932  156.5633 LP  0  0  0  0  0  0  0  0  0  0  0  0  # atno 17395 bound_to 11000

$$$$
