AV-unprocessed.smi:2046|AV-procd|sdf|8314|dock3
  -GOLD-   2272010583D 1   1.00000     0.00000
 Structure written by MMmdl.
 29 30  0  0  0  0  0  0  0  0  2 V2000
  149.8867  140.1179  157.9156 O   0  0  0  0  0  0  0  0  0  0  0  0
  151.0964  139.8945  158.0054 C   0  0  0  0  0  0  0  0  0  0  0  0
  151.7275  138.7496  157.6591 N   0  5  0  0  0  0  0  0  0  0  0  0
  151.6169  138.2752  156.4073 C   0  0  0  0  0  0  0  0  0  0  0  0
  152.1753  137.1153  156.0256 N   0  0  0  0  0  0  0  0  0  0  0  0
  151.9443  136.8114  154.6906 N   0  0  0  0  0  0  0  0  0  0  0  0
  151.2207  137.7589  154.0950 C   0  0  0  0  0  0  0  0  0  0  0  0
  150.7599  139.1103  155.1086 S   0  0  0  0  0  0  0  0  0  0  0  0
  151.9186  140.8426  158.4809 N   0  0  0  0  0  0  0  0  0  0  0  0
  151.5307  142.1866  158.9191 C   0  0  1  0  0  0  0  0  0  0  0  0
  152.7971  142.8836  159.4677 C   0  0  0  0  0  0  0  0  0  0  0  0
  152.5000  144.0400  160.4387 C   0  0  0  0  0  0  0  0  0  0  0  0
  151.7665  145.2389  159.8178 C   0  0  0  0  0  0  0  0  0  0  0  0
  150.3671  144.8964  159.2787 C   0  0  0  0  0  0  0  0  0  0  0  0
  150.4283  144.2174  157.9913 N   0  0  0  0  0  0  0  0  0  0  0  0
  150.9646  143.0135  157.7402 C   0  0  0  0  0  0  0  0  0  0  0  0
  151.0086  142.5831  156.5879 O   0  0  0  0  0  0  0  0  0  0  0  0
  150.9602  137.6638  153.0515 H   0  0  0  0  0  0  0  0  0  0  0  0
  152.9011  140.6164  158.5310 H   0  0  0  0  0  0  0  0  0  0  0  0
  150.7818  142.0964  159.7080 H   0  0  0  0  0  0  0  0  0  0  0  0
  153.3948  142.1534  160.0158 H   0  0  0  0  0  0  0  0  0  0  0  0
  153.4365  143.2291  158.6532 H   0  0  0  0  0  0  0  0  0  0  0  0
  151.9244  143.6622  161.2847 H   0  0  0  0  0  0  0  0  0  0  0  0
  153.4441  144.3913  160.8566 H   0  0  0  0  0  0  0  0  0  0  0  0
  151.6616  146.0057  160.5859 H   0  0  0  0  0  0  0  0  0  0  0  0
  152.3741  145.6862  159.0302 H   0  0  0  0  0  0  0  0  0  0  0  0
  149.7984  144.3053  159.9981 H   0  0  0  0  0  0  0  0  0  0  0  0
  149.8057  145.8185  159.1275 H   0  0  0  0  0  0  0  0  0  0  0  0
  150.0556  144.7242  157.2016 H   0  0  0  0  0  0  0  0  0  0  0  0
  1  2  2  0  0  0  0
  2  3  1  0  0  0  0
  2  9  1  0  0  0  0
  3  4  1  0  0  0  0
  4  8  1  0  0  0  0
  4  5  2  0  0  0  0
  5  6  1  0  0  0  0
  6  7  2  0  0  0  0
  7  8  1  0  0  0  0
  7 18  1  0  0  0  0
  9 10  1  0  0  0  0
  9 19  1  0  0  0  0
 10 16  1  0  0  0  0
 10 11  1  0  0  0  0
 10 20  1  0  0  0  0
 11 12  1  0  0  0  0
 11 21  1  0  0  0  0
 11 22  1  0  0  0  0
 12 13  1  0  0  0  0
 12 23  1  0  0  0  0
 12 24  1  0  0  0  0
 13 14  1  0  0  0  0
 13 25  1  0  0  0  0
 13 26  1  0  0  0  0
 14 15  1  0  0  0  0
 14 27  1  0  0  0  0
 14 28  1  0  0  0  0
 15 16  1  0  0  0  0
 15 29  1  0  0  0  0
 16 17  2  0  0  0  0
M  CHG  1   3  -1
M  END
> <s_m_source_file>
AV-unprocessed.smi

> <i_m_source_file_index>
2046

> <i_lp_mmshare_version>
43012

> <i_f3d_flags>
0

> <s_epik_input>
czFbY0hdbm5jMVtOSF1DKD1PKVtOSF1bQ0BASF0yW0NIMl1bQ0gyXVtDSDJdW0NIMl1bTkhdQzI9Tw==

> <s_epik_cmdline>
J2VwaWtfcHl0aG9uJywgJy1waCcsICc3LjAnLCAnLXRuJywgJzgnLCAnLW1hJywgJzIwMCcsICctbWV0YWxfYmluZGluZycsICctaW1hZScsICc8aW5maWxlLm1hZT4nLCAnLW9tYWUnLCAnPG91dGZpbGUubWFlPic=

> <r_lp_tautomer_probability>
1

> <r_epik_Ionization_Penalty>
4.05949

> <r_epik_Ionization_Penalty_Charging>
4.01916

> <r_epik_Ionization_Penalty_Neutral>
0.0403285

> <r_epik_State_Penalty>
4.01849

> <r_epik_Charging_Adjusted_Penalty>
8.03765

> <i_epik_Tot_Q>
-1

> <i_epik_Tot_abs_Q>
1

> <r_epik_Metal_State_Penalty>
0.626741

> <b_epik_Metal_Only>
1

> <s_lp_Force_Field>
OPLS_2005

> <r_lp_Energy>
8.7811

> <b_lp_Chiralities_Consistent>
1

> <s_lp_Variant>
AV-unprocessed.smi:2046-4

> <Gold.Version>
5.8.1

> <Gold.Id.Protein>
6NUR|6NUR_protein|mol2

> <Gold.PLP.Fitness>
39.0135

> <Gold.PLP.PLP>
-30.8587

> <Gold.PLP.part.hbond>
-3.5781

> <Gold.PLP.part.metal>
0.0000

> <Gold.PLP.part.buried>
-5.0639

> <Gold.PLP.part.nonpolar>
-23.0590

> <Gold.PLP.part.repulsive>
0.4305

> <Gold.PLP.ligand.clash>
0.0000

> <Gold.PLP.ligand.torsion>
0.5453

> <Gold.PLP.Chemscore.Hbond>
1.9920

> <Gold.PLP.Chemscore.CHOScore>
1.0880

> <Gold.PLP.Chemscore.Metal>
0.0000

> <Gold.Chemscore.Hbonds>
donor molecule, donor type, donor heavy atom, donor atom, acceptor molecule, acceptor atom, score
      L1  H    15    29       P1  8028  0.99
      P1  H 10752 10765       L1     6  1.00
      L1  C     7    18       P1  7948  0.09
      L1  C     7    18       P1  7949  1.00

> <Gold.PLP.Chemscore.Internal.Correction>
0.0053

> <Gold.Rescore>
     Score         DG    S(hbond)    S(metal)    S(lipo)     H(rot)  DE(clash)    DE(int)     intcor
     14.36     -15.31       1.25        0.00      70.19       1.00       0.27       0.68       ----

> <Gold.Chemscore.Fitness>
14.3577

> <Gold.Chemscore.DG>
-15.3107

> <Gold.Chemscore.ZeroCoef>
-5.4800

> <Gold.Chemscore.Hbond>
1.2509

> <Gold.Chemscore.Metal>
0.0000

> <Gold.Chemscore.Lipo>
70.1936

> <Gold.Chemscore.Internal_Hbond>
0.0000

> <Gold.Chemscore.DEClash>
0.2687

> <Gold.Chemscore.DEInternal>
0.6843

> <Gold.Chemscore.Rot>
1.0000

> <Gold.Chemscore.Internal.Correction>
   9.000000E+99

> <Gold.Chemscore.Hbonds>
donor molecule, donor type, donor heavy atom, donor atom, acceptor molecule, acceptor atom, score
      L1  H    15    29       P1  8028  0.24
      P1  H 10752 10765       L1     6  0.56

> <Gold.Chemscore.Hbond.Weighted>
-4.1781

> <Gold.Chemscore.Metal.Weighted>
-0.0000

> <Gold.Chemscore.Lipo.Weighted>
-8.2126

> <Gold.Chemscore.Internal_Hbond.Weighted>
0.0000

> <Gold.Chemscore.DEClash.Weighted>
0.2687

> <Gold.Chemscore.DEInternal.Weighted>
0.6843

> <Gold.Chemscore.Rot.Weighted>
2.5600

> <Gold.Chemscore.Internal.Correction.Weighted>
   9.000000E+99

> <Gold.Protein.RotatedTorsions>
[ 6907 6896 6895 6894 ] final  169.25 input  -60.11 | X-H torsion
[ 7974 7965 7964 7962 ] final  -64.51 input  175.53 | X-H torsion
[ 8008 7997 7996 7995 ] final   51.57 input   59.86 | X-H torsion
[ 10167 10162 10161 10158 ] final  114.99 input  -65.29 | X-H torsion
[ 10718 10713 10712 10709 ] final  -68.29 input   66.30 | X-H torsion
[ 10763 10752 10751 10750 ] final  161.90 input  -60.55 | X-H torsion
[ 11005 11000 10999 10996 ] final -122.04 input  -57.11 | X-H torsion

> <Gold.Protein.ActiveResidues>
 VAL166  LYS551  ARG553  GLY616  TRP617  ASP618  TYR619  PRO620  LYS621  CYS622 
 ASP623  PHE694  ASN695  SER759  ASP760  ASP761  ALA762  ILE779  LEU786  VAL792 
 PHE793  MET794  SER795  GLU796  ALA797  LYS798  CYS799  TRP800  GLU811  SER814 

> <Gold.Protein.RotatedAtoms>
  151.8349  133.3414  159.3624 H   0  0  0  0  0  0  0  0  0  0  0  0  # atno 6907 bound_to 6896
  150.7252  134.5447  159.5774 H   0  0  0  0  0  0  0  0  0  0  0  0  # atno 6908 bound_to 6896
  152.2908  134.7724  160.0429 H   0  0  0  0  0  0  0  0  0  0  0  0  # atno 6909 bound_to 6896
  145.7658  140.8838  143.0406 H   0  0  0  0  0  0  0  0  0  0  0  0  # atno 7974 bound_to 7965
  155.4375  140.3453  155.4286 H   0  0  0  0  0  0  0  0  0  0  0  0  # atno 8008 bound_to 7997
  156.1299  140.1511  156.9111 H   0  0  0  0  0  0  0  0  0  0  0  0  # atno 8009 bound_to 7997
  154.4887  140.0847  156.7524 H   0  0  0  0  0  0  0  0  0  0  0  0  # atno 8010 bound_to 7997
  139.6349  144.7119  151.2355 H   0  0  0  0  0  0  0  0  0  0  0  0  # atno 10167 bound_to 10162
  156.0513  130.4292  150.1978 H   0  0  0  0  0  0  0  0  0  0  0  0  # atno 10718 bound_to 10713
  154.2701  135.2766  155.2742 H   0  0  0  0  0  0  0  0  0  0  0  0  # atno 10763 bound_to 10752
  154.5309  135.5730  153.6761 H   0  0  0  0  0  0  0  0  0  0  0  0  # atno 10764 bound_to 10752
  152.9946  135.6227  154.2856 H   0  0  0  0  0  0  0  0  0  0  0  0  # atno 10765 bound_to 10752
  141.0025  134.0382  157.3520 H   0  0  0  0  0  0  0  0  0  0  0  0  # atno 11005 bound_to 11000
  144.6822  139.9786  143.7483 LP  0  0  0  0  0  0  0  0  0  0  0  0  # atno 17320 bound_to 7965
  146.0219  139.3258  143.0808 LP  0  0  0  0  0  0  0  0  0  0  0  0  # atno 17321 bound_to 7965
  140.7460  143.6414  150.8332 LP  0  0  0  0  0  0  0  0  0  0  0  0  # atno 17342 bound_to 10162
  140.0043  143.5710  152.2863 LP  0  0  0  0  0  0  0  0  0  0  0  0  # atno 17343 bound_to 10162
  157.0061  130.9937  151.3378 LP  0  0  0  0  0  0  0  0  0  0  0  0  # atno 17370 bound_to 10713
  157.5442  130.8139  149.8065 LP  0  0  0  0  0  0  0  0  0  0  0  0  # atno 17371 bound_to 10713
  139.9046  135.0175  156.7426 LP  0  0  0  0  0  0  0  0  0  0  0  0  # atno 17394 bound_to 11000
  140.6866  133.9427  155.7942 LP  0  0  0  0  0  0  0  0  0  0  0  0  # atno 17395 bound_to 11000

$$$$
