AV-unprocessed.smi:2726|AV-procd|sdf|10519|dock1
  -GOLD-   2272014563D 1   1.00000     0.00000
 Structure written by MMmdl.
 41 42  0  0  0  0  0  0  0  0  1 V2000
  149.7888  132.3615  154.5285 C   0  0  0  0  0  0  0  0  0  0  0  0
  148.5613  133.1957  154.1208 C   0  0  0  0  0  0  0  0  0  0  0  0
  148.0377  132.6850  152.7619 C   0  0  0  0  0  0  0  0  0  0  0  0
  147.4764  133.0532  155.2089 C   0  0  0  0  0  0  0  0  0  0  0  0
  149.0090  134.5898  154.0124 N   0  0  0  0  0  0  0  0  0  0  0  0
  149.4274  135.4111  154.9903 C   0  0  0  0  0  0  0  0  0  0  0  0
  149.5014  135.0900  156.1760 O   0  0  0  0  0  0  0  0  0  0  0  0
  149.7288  136.6250  154.4989 N   0  0  0  0  0  0  0  0  0  0  0  0
  150.2024  137.7668  155.1989 C   0  0  0  0  0  0  0  0  0  0  0  0
  150.5288  137.7764  156.5757 C   0  0  0  0  0  0  0  0  0  0  0  0
  151.0087  138.9677  157.1527 C   0  0  0  0  0  0  0  0  0  0  0  0
  151.1550  140.1096  156.3386 C   0  0  0  0  0  0  0  0  0  0  0  0
  151.6296  141.2959  156.9185 N   0  0  0  0  0  0  0  0  0  0  0  0
  150.6107  142.2829  157.2355 C   0  0  0  0  0  0  0  0  0  0  0  0
  151.2869  143.2770  158.1828 C   0  0  0  0  0  0  0  0  0  0  0  0
  152.4692  142.5067  158.7835 C   0  0  0  0  0  0  0  0  0  0  0  0
  152.4082  141.1218  158.1336 C   0  0  0  0  0  0  0  0  0  0  0  0
  150.8575  140.1026  155.0172 N   0  0  0  0  0  0  0  0  0  0  0  0
  150.3994  138.9572  154.4696 C   0  0  0  0  0  0  0  0  0  0  0  0
  149.5361  131.3049  154.6256 H   0  0  0  0  0  0  0  0  0  0  0  0
  150.1937  132.6903  155.4864 H   0  0  0  0  0  0  0  0  0  0  0  0
  150.5876  132.4402  153.7898 H   0  0  0  0  0  0  0  0  0  0  0  0
  148.7841  132.8091  151.9764 H   0  0  0  0  0  0  0  0  0  0  0  0
  147.1360  133.2095  152.4458 H   0  0  0  0  0  0  0  0  0  0  0  0
  147.7880  131.6247  152.8117 H   0  0  0  0  0  0  0  0  0  0  0  0
  147.2073  132.0071  155.3586 H   0  0  0  0  0  0  0  0  0  0  0  0
  146.5601  133.5825  154.9477 H   0  0  0  0  0  0  0  0  0  0  0  0
  147.8209  133.4428  156.1675 H   0  0  0  0  0  0  0  0  0  0  0  0
  148.9912  134.9752  153.0796 H   0  0  0  0  0  0  0  0  0  0  0  0
  149.5357  136.7677  153.5183 H   0  0  0  0  0  0  0  0  0  0  0  0
  150.4354  136.8971  157.1936 H   0  0  0  0  0  0  0  0  0  0  0  0
  151.2636  138.9998  158.2021 H   0  0  0  0  0  0  0  0  0  0  0  0
  150.2446  142.7735  156.3331 H   0  0  0  0  0  0  0  0  0  0  0  0
  149.7606  141.8126  157.7318 H   0  0  0  0  0  0  0  0  0  0  0  0
  151.6520  144.1411  157.6265 H   0  0  0  0  0  0  0  0  0  0  0  0
  150.5963  143.6392  158.9449 H   0  0  0  0  0  0  0  0  0  0  0  0
  153.4054  143.0047  158.5283 H   0  0  0  0  0  0  0  0  0  0  0  0
  152.4127  142.4413  159.8706 H   0  0  0  0  0  0  0  0  0  0  0  0
  151.9196  140.4149  158.8057 H   0  0  0  0  0  0  0  0  0  0  0  0
  153.4045  140.7395  157.9096 H   0  0  0  0  0  0  0  0  0  0  0  0
  150.1771  138.9957  153.4129 H   0  0  0  0  0  0  0  0  0  0  0  0
  1  2  1  0  0  0  0
  1 20  1  0  0  0  0
  1 21  1  0  0  0  0
  1 22  1  0  0  0  0
  2  3  1  0  0  0  0
  2  4  1  0  0  0  0
  2  5  1  0  0  0  0
  3 23  1  0  0  0  0
  3 24  1  0  0  0  0
  3 25  1  0  0  0  0
  4 26  1  0  0  0  0
  4 27  1  0  0  0  0
  4 28  1  0  0  0  0
  5  6  1  0  0  0  0
  5 29  1  0  0  0  0
  6  7  2  0  0  0  0
  6  8  1  0  0  0  0
  8  9  1  0  0  0  0
  8 30  1  0  0  0  0
  9 19  1  0  0  0  0
  9 10  2  0  0  0  0
 10 11  1  0  0  0  0
 10 31  1  0  0  0  0
 11 12  2  0  0  0  0
 11 32  1  0  0  0  0
 12 13  1  0  0  0  0
 12 18  1  0  0  0  0
 13 17  1  0  0  0  0
 13 14  1  0  0  0  0
 14 15  1  0  0  0  0
 14 33  1  0  0  0  0
 14 34  1  0  0  0  0
 15 16  1  0  0  0  0
 15 35  1  0  0  0  0
 15 36  1  0  0  0  0
 16 17  1  0  0  0  0
 16 37  1  0  0  0  0
 16 38  1  0  0  0  0
 17 39  1  0  0  0  0
 17 40  1  0  0  0  0
 18 19  2  0  0  0  0
 19 41  1  0  0  0  0
M  END
> <s_m_source_file>
AV-unprocessed.smi

> <i_m_source_file_index>
2726

> <i_lp_mmshare_version>
43012

> <i_f3d_flags>
0

> <s_epik_input>
W0NIM11DKFtDSDNdKShbQ0gzXSlbTkhdQyg9TylbTkhdYzFbY0hdW2NIXWMobltjSF0xKU4yW0NIMl1bQ0gyXVtDSDJdW0NIMl0y

> <s_epik_cmdline>
J2VwaWtfcHl0aG9uJywgJy1waCcsICc3LjAnLCAnLXRuJywgJzgnLCAnLW1hJywgJzIwMCcsICctbWV0YWxfYmluZGluZycsICctaW1hZScsICc8aW5maWxlLm1hZT4nLCAnLW9tYWUnLCAnPG91dGZpbGUubWFlPic=

> <r_lp_tautomer_probability>
1

> <r_epik_Ionization_Penalty>
0.105331

> <r_epik_Ionization_Penalty_Charging>
0

> <r_epik_Ionization_Penalty_Neutral>
0.105331

> <r_epik_State_Penalty>
0.0946433

> <r_epik_Charging_Adjusted_Penalty>
0.0946433

> <i_epik_Tot_Q>
0

> <i_epik_Tot_abs_Q>
0

> <r_epik_Metal_State_Penalty>
0.0802816

> <b_epik_Metal_Only>
0

> <s_lp_Force_Field>
OPLS_2005

> <r_lp_Energy>
34.5725

> <b_lp_Chiralities_Consistent>
1

> <s_lp_Variant>
AV-unprocessed.smi:2726-1

> <Gold.Version>
5.8.1

> <Gold.Id.Protein>
6NUR|6NUR_protein|mol2

> <Gold.PLP.Fitness>
38.5254

> <Gold.PLP.PLP>
-27.8778

> <Gold.PLP.part.hbond>
-3.0000

> <Gold.PLP.part.metal>
0.0000

> <Gold.PLP.part.buried>
-2.4162

> <Gold.PLP.part.nonpolar>
-22.1636

> <Gold.PLP.part.repulsive>
0.1244

> <Gold.PLP.ligand.clash>
0.0112

> <Gold.PLP.ligand.torsion>
0.6813

> <Gold.PLP.Chemscore.Hbond>
3.0000

> <Gold.PLP.Chemscore.CHOScore>
1.0000

> <Gold.PLP.Chemscore.Metal>
0.0000

> <Gold.Chemscore.Hbonds>
donor molecule, donor type, donor heavy atom, donor atom, acceptor molecule, acceptor atom, score
      L1  H     5    29       P1  7948  0.85
      L1  H     8    30       P1  7948  1.00
      P1  H  7989  7998       L1    18  0.95
      L1  C    19    41       P1  7957  0.99

> <Gold.PLP.Chemscore.Internal.Correction>
0.0213

> <Gold.Rescore>
     Score         DG    S(hbond)    S(metal)    S(lipo)     H(rot)  DE(clash)    DE(int)     intcor
     14.50     -17.42       2.04        0.00      69.32       1.17       0.04       2.87       ----

> <Gold.Chemscore.Fitness>
14.4995

> <Gold.Chemscore.DG>
-17.4173

> <Gold.Chemscore.ZeroCoef>
-5.4800

> <Gold.Chemscore.Hbond>
2.0434

> <Gold.Chemscore.Metal>
0.0000

> <Gold.Chemscore.Lipo>
69.3172

> <Gold.Chemscore.Internal_Hbond>
0.0000

> <Gold.Chemscore.DEClash>
0.0442

> <Gold.Chemscore.DEInternal>
2.8736

> <Gold.Chemscore.Rot>
1.1710

> <Gold.Chemscore.Internal.Correction>
   9.000000E+99

> <Gold.Chemscore.Hbonds>
donor molecule, donor type, donor heavy atom, donor atom, acceptor molecule, acceptor atom, score
      L1  H     5    29       P1  7948  0.15
      L1  H     8    30       P1  7948  0.77
      P1  H  7989  7998       L1    18  0.22

> <Gold.Chemscore.Hbond.Weighted>
-6.8250

> <Gold.Chemscore.Metal.Weighted>
-0.0000

> <Gold.Chemscore.Lipo.Weighted>
-8.1101

> <Gold.Chemscore.Internal_Hbond.Weighted>
0.0000

> <Gold.Chemscore.DEClash.Weighted>
0.0442

> <Gold.Chemscore.DEInternal.Weighted>
2.8736

> <Gold.Chemscore.Rot.Weighted>
2.9978

> <Gold.Chemscore.Internal.Correction.Weighted>
   9.000000E+99

> <Gold.Protein.RotatedTorsions>
[ 6907 6896 6895 6894 ] final    3.50 input  -60.11 | X-H torsion
[ 7974 7965 7964 7962 ] final  -89.74 input  175.53 | X-H torsion
[ 8008 7997 7996 7995 ] final  155.47 input   59.86 | X-H torsion
[ 10167 10162 10161 10158 ] final  -80.58 input  -65.29 | X-H torsion
[ 10718 10713 10712 10709 ] final   13.92 input   66.30 | X-H torsion
[ 10763 10752 10751 10750 ] final   86.99 input  -60.55 | X-H torsion
[ 11005 11000 10999 10996 ] final -176.16 input  -57.11 | X-H torsion

> <Gold.Protein.ActiveResidues>
 VAL166  LYS551  ARG553  GLY616  TRP617  ASP618  TYR619  PRO620  LYS621  CYS622 
 ASP623  PHE694  ASN695  SER759  ASP760  ASP761  ALA762  ILE779  LEU786  VAL792 
 PHE793  MET794  SER795  GLU796  ALA797  LYS798  CYS799  TRP800  GLU811  SER814 

> <Gold.Protein.RotatedAtoms>
  151.6260  135.1027  160.0111 H   0  0  0  0  0  0  0  0  0  0  0  0  # atno 6907 bound_to 6896
  152.4132  133.6992  159.6424 H   0  0  0  0  0  0  0  0  0  0  0  0  # atno 6908 bound_to 6896
  150.8021  133.8504  159.3244 H   0  0  0  0  0  0  0  0  0  0  0  0  # atno 6909 bound_to 6896
  145.4357  140.9557  143.2103 H   0  0  0  0  0  0  0  0  0  0  0  0  # atno 7974 bound_to 7965
  156.2476  140.1938  156.6807 H   0  0  0  0  0  0  0  0  0  0  0  0  # atno 8008 bound_to 7997
  154.6324  140.0594  156.9774 H   0  0  0  0  0  0  0  0  0  0  0  0  # atno 8009 bound_to 7997
  155.1690  140.3266  155.4399 H   0  0  0  0  0  0  0  0  0  0  0  0  # atno 8010 bound_to 7997
  140.4490  143.2489  151.8516 H   0  0  0  0  0  0  0  0  0  0  0  0  # atno 10167 bound_to 10162
  157.0317  130.6195  149.5736 H   0  0  0  0  0  0  0  0  0  0  0  0  # atno 10718 bound_to 10713
  153.1624  135.4560  154.9791 H   0  0  0  0  0  0  0  0  0  0  0  0  # atno 10763 bound_to 10752
  154.7907  135.3220  154.7785 H   0  0  0  0  0  0  0  0  0  0  0  0  # atno 10764 bound_to 10752
  153.8273  135.6941  153.4873 H   0  0  0  0  0  0  0  0  0  0  0  0  # atno 10765 bound_to 10752
  140.4552  134.6306  157.4819 H   0  0  0  0  0  0  0  0  0  0  0  0  # atno 11005 bound_to 11000
  144.8153  139.5887  143.7011 LP  0  0  0  0  0  0  0  0  0  0  0  0  # atno 17320 bound_to 7965
  146.2583  139.6352  142.9379 LP  0  0  0  0  0  0  0  0  0  0  0  0  # atno 17321 bound_to 7965
  139.4795  144.5142  151.8891 LP  0  0  0  0  0  0  0  0  0  0  0  0  # atno 17342 bound_to 10162
  140.4229  144.2219  150.5887 LP  0  0  0  0  0  0  0  0  0  0  0  0  # atno 17343 bound_to 10162
  156.0067  130.5155  150.7854 LP  0  0  0  0  0  0  0  0  0  0  0  0  # atno 17370 bound_to 10713
  157.5172  131.0929  151.0124 LP  0  0  0  0  0  0  0  0  0  0  0  0  # atno 17371 bound_to 10713
  139.9981  134.6880  155.9576 LP  0  0  0  0  0  0  0  0  0  0  0  0  # atno 17394 bound_to 11000
  141.1646  133.6537  156.4436 LP  0  0  0  0  0  0  0  0  0  0  0  0  # atno 17395 bound_to 11000

$$$$
