AV-unprocessed.smi:821|AV-procd|sdf|3841|dock6
  -GOLD-   22720 1283D 1   1.00000     0.00000
 Structure written by MMmdl.
 45 46  0  0  0  0  0  0  0  0  2 V2000
  149.5860  135.0464  156.3310 C   0  0  0  0  0  0  0  0  0  0  0  0
  149.1417  135.2953  154.8833 C   0  0  1  0  0  0  0  0  0  0  0  0
  147.6005  135.3263  154.7658 C   0  0  0  0  0  0  0  0  0  0  0  0
  147.1170  135.0366  153.3919 N   0  3  0  0  0  0  0  0  0  0  0  0
  147.2700  133.6148  152.9985 C   0  0  0  0  0  0  0  0  0  0  0  0
  146.8246  133.4176  151.5402 C   0  0  0  0  0  0  0  0  0  0  0  0
  145.4777  133.8511  151.3919 O   0  0  0  0  0  0  0  0  0  0  0  0
  145.3246  135.2328  151.6934 C   0  0  0  0  0  0  0  0  0  0  0  0
  145.7275  135.4920  153.1554 C   0  0  0  0  0  0  0  0  0  0  0  0
  149.7380  136.5457  154.4114 N   0  0  0  0  0  0  0  0  0  0  0  0
  150.9835  136.9750  154.6689 C   0  0  0  0  0  0  0  0  0  0  0  0
  151.8025  136.3203  155.3151 O   0  0  0  0  0  0  0  0  0  0  0  0
  151.3605  138.3388  154.0739 C   0  0  0  0  0  0  0  0  0  0  0  0
  150.6498  139.4650  154.7033 N   0  0  0  0  0  0  0  0  0  0  0  0
  149.3651  139.7610  154.2135 C   0  0  0  0  0  0  0  0  0  0  0  0
  148.6339  140.7655  154.7149 C   0  0  0  0  0  0  0  0  0  0  0  0
  149.1969  141.5512  155.7859 C   0  0  0  0  0  0  0  0  0  0  0  0
  150.4323  141.2937  156.2745 C   0  0  0  0  0  0  0  0  0  0  0  0
  151.0419  142.1131  157.4102 C   0  0  0  0  0  0  0  0  0  0  0  0
  151.9252  141.3834  158.0925 F   0  0  0  0  0  0  0  0  0  0  0  0
  151.6732  143.1963  156.9552 F   0  0  0  0  0  0  0  0  0  0  0  0
  150.0945  142.5192  158.2567 F   0  0  0  0  0  0  0  0  0  0  0  0
  151.2324  140.1874  155.7103 C   0  0  0  0  0  0  0  0  0  0  0  0
  152.3651  139.9187  156.1146 O   0  0  0  0  0  0  0  0  0  0  0  0
  149.1915  134.1012  156.7049 H   0  0  0  0  0  0  0  0  0  0  0  0
  149.2394  135.8379  156.9964 H   0  0  0  0  0  0  0  0  0  0  0  0
  150.6732  135.0000  156.4060 H   0  0  0  0  0  0  0  0  0  0  0  0
  149.5309  134.4668  154.2897 H   0  0  0  0  0  0  0  0  0  0  0  0
  147.1441  134.6273  155.4685 H   0  0  0  0  0  0  0  0  0  0  0  0
  147.2592  136.3191  155.0632 H   0  0  0  0  0  0  0  0  0  0  0  0
  148.3074  133.2990  153.1062 H   0  0  0  0  0  0  0  0  0  0  0  0
  146.6737  132.9836  153.6593 H   0  0  0  0  0  0  0  0  0  0  0  0
  147.4755  133.9655  150.8567 H   0  0  0  0  0  0  0  0  0  0  0  0
  146.8893  132.3646  151.2665 H   0  0  0  0  0  0  0  0  0  0  0  0
  145.9270  135.8347  151.0108 H   0  0  0  0  0  0  0  0  0  0  0  0
  144.2840  135.5162  151.5344 H   0  0  0  0  0  0  0  0  0  0  0  0
  145.0495  134.9689  153.8318 H   0  0  0  0  0  0  0  0  0  0  0  0
  145.6431  136.5571  153.3737 H   0  0  0  0  0  0  0  0  0  0  0  0
  149.1401  137.1506  153.8664 H   0  0  0  0  0  0  0  0  0  0  0  0
  152.4396  138.4640  154.1717 H   0  0  0  0  0  0  0  0  0  0  0  0
  151.1728  138.3315  152.9983 H   0  0  0  0  0  0  0  0  0  0  0  0
  149.0195  139.1295  153.4080 H   0  0  0  0  0  0  0  0  0  0  0  0
  147.6499  140.9832  154.3259 H   0  0  0  0  0  0  0  0  0  0  0  0
  148.6064  142.3573  156.1951 H   0  0  0  0  0  0  0  0  0  0  0  0
  147.7001  135.5768  152.7682 H   0  0  0  0  0  0  0  0  0  0  0  0
  1  2  1  0  0  0  0
  1 25  1  0  0  0  0
  1 26  1  0  0  0  0
  1 27  1  0  0  0  0
  2  3  1  0  0  0  0
  2 10  1  0  0  0  0
  2 28  1  0  0  0  0
  3  4  1  0  0  0  0
  3 29  1  0  0  0  0
  3 30  1  0  0  0  0
  4  9  1  0  0  0  0
  4  5  1  0  0  0  0
  4 45  1  0  0  0  0
  5  6  1  0  0  0  0
  5 31  1  0  0  0  0
  5 32  1  0  0  0  0
  6  7  1  0  0  0  0
  6 33  1  0  0  0  0
  6 34  1  0  0  0  0
  7  8  1  0  0  0  0
  8  9  1  0  0  0  0
  8 35  1  0  0  0  0
  8 36  1  0  0  0  0
  9 37  1  0  0  0  0
  9 38  1  0  0  0  0
 10 11  1  0  0  0  0
 10 39  1  0  0  0  0
 11 12  2  0  0  0  0
 11 13  1  0  0  0  0
 13 14  1  0  0  0  0
 13 40  1  0  0  0  0
 13 41  1  0  0  0  0
 14 23  1  0  0  0  0
 14 15  1  0  0  0  0
 15 16  2  0  0  0  0
 15 42  1  0  0  0  0
 16 17  1  0  0  0  0
 16 43  1  0  0  0  0
 17 18  2  0  0  0  0
 17 44  1  0  0  0  0
 18 19  1  0  0  0  0
 18 23  1  0  0  0  0
 19 20  1  0  0  0  0
 19 21  1  0  0  0  0
 19 22  1  0  0  0  0
 23 24  2  0  0  0  0
M  CHG  1   4   1
M  END
> <s_m_source_file>
AV-unprocessed.smi

> <i_m_source_file_index>
821

> <i_lp_mmshare_version>
43012

> <i_f3d_flags>
0

> <s_epik_input>
W0NIMl0xW0NIMl1PW0NIMl1bQ0gyXU4xW0NIMl1bQ0BASF0oW0NIM10pW05IXUMoPU8pW0NIMl1uMltjSF1bY0hdW2NIXWMoQyhGKShGKUYpYzI9Tw==

> <s_epik_cmdline>
J2VwaWtfcHl0aG9uJywgJy1waCcsICc3LjAnLCAnLXRuJywgJzgnLCAnLW1hJywgJzIwMCcsICctbWV0YWxfYmluZGluZycsICctaW1hZScsICc8aW5maWxlLm1hZT4nLCAnLW9tYWUnLCAnPG91dGZpbGUubWFlPic=

> <r_lp_tautomer_probability>
1

> <r_epik_Ionization_Penalty>
0.656654

> <r_epik_Ionization_Penalty_Charging>
0.656653

> <r_epik_Ionization_Penalty_Neutral>
9.12373e-08

> <r_epik_State_Penalty>
0.675641

> <r_epik_Charging_Adjusted_Penalty>
1.33229

> <i_epik_Tot_Q>
1

> <i_epik_Tot_abs_Q>
1

> <r_epik_Metal_State_Penalty>
0.675695

> <b_epik_Metal_Only>
0

> <s_lp_Force_Field>
OPLS_2005

> <r_lp_Energy>
32.7589

> <b_lp_Chiralities_Consistent>
1

> <s_lp_Variant>
AV-unprocessed.smi:821-4

> <Gold.Version>
5.8.1

> <Gold.Id.Protein>
6NUR|6NUR_protein|mol2

> <Gold.PLP.Fitness>
50.6590

> <Gold.PLP.PLP>
-40.0845

> <Gold.PLP.part.hbond>
-4.0731

> <Gold.PLP.part.metal>
0.0000

> <Gold.PLP.part.buried>
-2.3228

> <Gold.PLP.part.nonpolar>
-33.2333

> <Gold.PLP.part.repulsive>
0.2470

> <Gold.PLP.ligand.clash>
0.0000

> <Gold.PLP.ligand.torsion>
2.0974

> <Gold.PLP.Chemscore.Hbond>
4.1246

> <Gold.PLP.Chemscore.CHOScore>
0.6791

> <Gold.PLP.Chemscore.Metal>
0.0000

> <Gold.Chemscore.Hbonds>
donor molecule, donor type, donor heavy atom, donor atom, acceptor molecule, acceptor atom, score
      L1  H     4    45       P1  7948  2.00
      L1  H    10    39       P1  7948  0.07
      P1  H  7997  8008       L1    24  1.00
      P1  H 10752 10765       L1    12  1.00
      L1  C    15    42       P1  7957  0.66

> <Gold.PLP.Chemscore.Internal.Correction>
0.3581

> <Gold.Rescore>
     Score         DG    S(hbond)    S(metal)    S(lipo)     H(rot)  DE(clash)    DE(int)     intcor
     13.06     -18.36       3.10        0.00      69.09       2.17       0.26       5.04       ----

> <Gold.Chemscore.Fitness>
13.0640

> <Gold.Chemscore.DG>
-18.3619

> <Gold.Chemscore.ZeroCoef>
-5.4800

> <Gold.Chemscore.Hbond>
3.1011

> <Gold.Chemscore.Metal>
0.0000

> <Gold.Chemscore.Lipo>
69.0899

> <Gold.Chemscore.Internal_Hbond>
0.0000

> <Gold.Chemscore.DEClash>
0.2553

> <Gold.Chemscore.DEInternal>
5.0425

> <Gold.Chemscore.Rot>
2.1716

> <Gold.Chemscore.Internal.Correction>
   9.000000E+99

> <Gold.Chemscore.Hbonds>
donor molecule, donor type, donor heavy atom, donor atom, acceptor molecule, acceptor atom, score
      L1  H     4    45       P1  7948  1.00
      L1  H    10    39       P1  7948  0.08
      P1  H  7997  8008       L1    24  0.96
      P1  H 10752 10765       L1    12  0.89

> <Gold.Chemscore.Hbond.Weighted>
-10.3575

> <Gold.Chemscore.Metal.Weighted>
-0.0000

> <Gold.Chemscore.Lipo.Weighted>
-8.0835

> <Gold.Chemscore.Internal_Hbond.Weighted>
0.0000

> <Gold.Chemscore.DEClash.Weighted>
0.2553

> <Gold.Chemscore.DEInternal.Weighted>
5.0425

> <Gold.Chemscore.Rot.Weighted>
5.5592

> <Gold.Chemscore.Internal.Correction.Weighted>
   9.000000E+99

> <Gold.Protein.RotatedTorsions>
[ 6907 6896 6895 6894 ] final   77.72 input  -60.11 | X-H torsion
[ 7974 7965 7964 7962 ] final  107.85 input  175.53 | X-H torsion
[ 8008 7997 7996 7995 ] final  -47.76 input   59.86 | X-H torsion
[ 10167 10162 10161 10158 ] final  -59.53 input  -65.29 | X-H torsion
[ 10718 10713 10712 10709 ] final -119.15 input   66.30 | X-H torsion
[ 10763 10752 10751 10750 ] final  173.65 input  -60.55 | X-H torsion
[ 11005 11000 10999 10996 ] final  -71.73 input  -57.11 | X-H torsion

> <Gold.Protein.ActiveResidues>
 VAL166  LYS551  ARG553  GLY616  TRP617  ASP618  TYR619  PRO620  LYS621  CYS622 
 ASP623  PHE694  ASN695  SER759  ASP760  ASP761  ALA762  ILE779  LEU786  VAL792 
 PHE793  MET794  SER795  GLU796  ALA797  LYS798  CYS799  TRP800  GLU811  SER814 

> <Gold.Protein.RotatedAtoms>
  152.5129  134.3774  159.9339 H   0  0  0  0  0  0  0  0  0  0  0  0  # atno 6907 bound_to 6896
  151.3730  133.3842  159.2709 H   0  0  0  0  0  0  0  0  0  0  0  0  # atno 6908 bound_to 6896
  150.9563  134.8977  159.7761 H   0  0  0  0  0  0  0  0  0  0  0  0  # atno 6909 bound_to 6896
  145.2883  139.2609  143.3878 H   0  0  0  0  0  0  0  0  0  0  0  0  # atno 7974 bound_to 7965
  154.4020  140.1338  156.4228 H   0  0  0  0  0  0  0  0  0  0  0  0  # atno 8008 bound_to 7997
  155.7626  140.3486  155.5185 H   0  0  0  0  0  0  0  0  0  0  0  0  # atno 8009 bound_to 7997
  155.8844  140.0993  157.1453 H   0  0  0  0  0  0  0  0  0  0  0  0  # atno 8010 bound_to 7997
  140.6129  143.2393  151.5666 H   0  0  0  0  0  0  0  0  0  0  0  0  # atno 10167 bound_to 10162
  156.1160  130.6286  150.9381 H   0  0  0  0  0  0  0  0  0  0  0  0  # atno 10718 bound_to 10713
  154.4430  135.2762  155.1834 H   0  0  0  0  0  0  0  0  0  0  0  0  # atno 10763 bound_to 10752
  154.3693  135.6112  153.5735 H   0  0  0  0  0  0  0  0  0  0  0  0  # atno 10764 bound_to 10752
  152.9842  135.5853  154.4761 H   0  0  0  0  0  0  0  0  0  0  0  0  # atno 10765 bound_to 10752
  141.1597  133.6826  156.6950 H   0  0  0  0  0  0  0  0  0  0  0  0  # atno 11005 bound_to 11000
  146.3193  140.3368  142.8644 LP  0  0  0  0  0  0  0  0  0  0  0  0  # atno 17320 bound_to 7965
  144.9194  140.7851  143.5757 LP  0  0  0  0  0  0  0  0  0  0  0  0  # atno 17321 bound_to 7965
  139.5375  144.2739  152.1283 LP  0  0  0  0  0  0  0  0  0  0  0  0  # atno 17342 bound_to 10162
  140.1942  144.4722  150.6463 LP  0  0  0  0  0  0  0  0  0  0  0  0  # atno 17343 bound_to 10162
  157.6343  131.0918  150.8380 LP  0  0  0  0  0  0  0  0  0  0  0  0  # atno 17370 bound_to 10713
  156.8483  130.5072  149.5314 LP  0  0  0  0  0  0  0  0  0  0  0  0  # atno 17371 bound_to 10713
  140.3002  134.8170  157.4091 LP  0  0  0  0  0  0  0  0  0  0  0  0  # atno 17394 bound_to 11000
  140.1269  134.5146  155.8137 LP  0  0  0  0  0  0  0  0  0  0  0  0  # atno 17395 bound_to 11000

$$$$
