AV-unprocessed.smi:24|AV-procd|sdf|178|dock1
  -GOLD-   2262015433D 1   1.00000     0.00000
 Structure written by MMmdl.
 61 65  0  0  0  0  0  0  0  0  1 V2000
  151.8439  129.1557  158.8737 C   0  0  0  0  0  0  0  0  0  0  0  0
  150.8520  128.9381  157.8809 O   0  0  0  0  0  0  0  0  0  0  0  0
  150.6223  129.9411  156.9638 C   0  0  0  0  0  0  0  0  0  0  0  0
  149.6444  129.6970  155.9785 C   0  0  0  0  0  0  0  0  0  0  0  0
  149.3514  130.6629  154.9968 C   0  0  0  0  0  0  0  0  0  0  0  0
  150.0366  131.8943  154.9824 C   0  0  0  0  0  0  0  0  0  0  0  0
  149.7072  132.9246  153.9028 C   0  0  1  0  0  0  0  0  0  0  0  0
  148.7224  132.3810  152.8639 C   0  0  0  0  0  0  0  0  0  0  0  0
  147.6232  133.3876  152.9349 C   0  0  0  0  0  0  0  0  0  0  0  0
  146.4151  133.2833  152.0863 C   0  0  0  0  0  0  0  0  0  0  0  0
  145.5236  134.3778  152.0101 C   0  0  0  0  0  0  0  0  0  0  0  0
  144.3776  134.2828  151.1966 C   0  0  0  0  0  0  0  0  0  0  0  0
  144.1243  133.1055  150.4653 C   0  0  0  0  0  0  0  0  0  0  0  0
  145.0154  132.0169  150.5451 C   0  0  0  0  0  0  0  0  0  0  0  0
  146.1650  132.0996  151.3556 C   0  0  0  0  0  0  0  0  0  0  0  0
  147.8328  134.3238  153.7845 N   0  0  0  0  0  0  0  0  0  0  0  0
  149.0330  134.1363  154.3883 N   0  0  0  0  0  0  0  0  0  0  0  0
  149.5751  135.0255  155.2497 C   0  0  0  0  0  0  0  0  0  0  0  0
  150.7238  134.8998  155.6783 O   0  0  0  0  0  0  0  0  0  0  0  0
  148.7181  136.2301  155.6926 C   0  0  0  0  0  0  0  0  0  0  0  0
  148.9296  136.6125  157.1056 N   0  0  0  0  0  0  0  0  0  0  0  0
  150.1585  137.2126  157.4754 C   0  0  0  0  0  0  0  0  0  0  0  0
  151.0420  137.4253  156.6438 O   0  0  0  0  0  0  0  0  0  0  0  0
  150.2962  137.5447  158.8892 C   0  0  0  0  0  0  0  0  0  0  0  0
  151.4239  138.1289  159.3285 F   0  0  0  0  0  0  0  0  0  0  0  0
  149.3078  137.2750  159.7668 C   0  0  0  0  0  0  0  0  0  0  0  0
  148.1192  136.6734  159.3936 N   0  0  0  0  0  0  0  0  0  0  0  0
  147.0264  136.3619  160.3932 C   0  0  1  0  0  0  0  0  0  0  0  0
  146.9727  134.8502  160.6807 C   0  0  0  0  0  0  0  0  0  0  0  0
  146.9792  134.8001  162.1952 C   0  0  0  0  0  0  0  0  0  0  0  0
  147.7738  136.0488  162.5466 C   0  0  0  0  0  0  0  0  0  0  0  0
  147.2949  137.0034  161.6080 O   0  0  0  0  0  0  0  0  0  0  0  0
  147.9064  136.3293  158.0414 C   0  0  0  0  0  0  0  0  0  0  0  0
  146.8564  135.7865  157.6895 O   0  0  0  0  0  0  0  0  0  0  0  0
  151.0071  132.1525  155.9756 C   0  0  0  0  0  0  0  0  0  0  0  0
  151.3017  131.1850  156.9554 C   0  0  0  0  0  0  0  0  0  0  0  0
  151.9204  128.2707  159.5051 H   0  0  0  0  0  0  0  0  0  0  0  0
  151.5855  129.9983  159.5168 H   0  0  0  0  0  0  0  0  0  0  0  0
  152.8244  129.3280  158.4276 H   0  0  0  0  0  0  0  0  0  0  0  0
  149.1145  128.7558  155.9730 H   0  0  0  0  0  0  0  0  0  0  0  0
  148.6005  130.4515  154.2496 H   0  0  0  0  0  0  0  0  0  0  0  0
  150.6307  133.2268  153.4050 H   0  0  0  0  0  0  0  0  0  0  0  0
  149.1695  132.3464  151.8697 H   0  0  0  0  0  0  0  0  0  0  0  0
  148.3548  131.3858  153.1189 H   0  0  0  0  0  0  0  0  0  0  0  0
  145.7007  135.2897  152.5620 H   0  0  0  0  0  0  0  0  0  0  0  0
  143.6921  135.1151  151.1328 H   0  0  0  0  0  0  0  0  0  0  0  0
  143.2449  133.0376  149.8418 H   0  0  0  0  0  0  0  0  0  0  0  0
  144.8172  131.1164  149.9823 H   0  0  0  0  0  0  0  0  0  0  0  0
  146.8333  131.2525  151.3982 H   0  0  0  0  0  0  0  0  0  0  0  0
  148.9218  137.0638  155.0191 H   0  0  0  0  0  0  0  0  0  0  0  0
  147.6638  136.0023  155.5249 H   0  0  0  0  0  0  0  0  0  0  0  0
  149.4725  137.5480  160.7976 H   0  0  0  0  0  0  0  0  0  0  0  0
  146.1075  136.7694  159.9677 H   0  0  0  0  0  0  0  0  0  0  0  0
  146.0858  134.3975  160.2365 H   0  0  0  0  0  0  0  0  0  0  0  0
  147.8607  134.3580  160.2806 H   0  0  0  0  0  0  0  0  0  0  0  0
  145.9616  134.8838  162.5788 H   0  0  0  0  0  0  0  0  0  0  0  0
  147.4222  133.8861  162.5917 H   0  0  0  0  0  0  0  0  0  0  0  0
  147.6115  136.3788  163.5727 H   0  0  0  0  0  0  0  0  0  0  0  0
  148.8420  135.8815  162.4023 H   0  0  0  0  0  0  0  0  0  0  0  0
  151.5364  133.0940  155.9906 H   0  0  0  0  0  0  0  0  0  0  0  0
  152.0552  131.4223  157.6908 H   0  0  0  0  0  0  0  0  0  0  0  0
  1  2  1  0  0  0  0
  1 37  1  0  0  0  0
  1 38  1  0  0  0  0
  1 39  1  0  0  0  0
  2  3  1  0  0  0  0
  3 36  1  0  0  0  0
  3  4  2  0  0  0  0
  4  5  1  0  0  0  0
  4 40  1  0  0  0  0
  5  6  2  0  0  0  0
  5 41  1  0  0  0  0
  6  7  1  0  0  0  0
  6 35  1  0  0  0  0
  7 17  1  0  0  0  0
  7  8  1  0  0  0  0
  7 42  1  0  0  0  0
  8  9  1  0  0  0  0
  8 43  1  0  0  0  0
  8 44  1  0  0  0  0
  9 10  1  0  0  0  0
  9 16  2  0  0  0  0
 10 15  1  0  0  0  0
 10 11  2  0  0  0  0
 11 12  1  0  0  0  0
 11 45  1  0  0  0  0
 12 13  2  0  0  0  0
 12 46  1  0  0  0  0
 13 14  1  0  0  0  0
 13 47  1  0  0  0  0
 14 15  2  0  0  0  0
 14 48  1  0  0  0  0
 15 49  1  0  0  0  0
 16 17  1  0  0  0  0
 17 18  1  0  0  0  0
 18 19  2  0  0  0  0
 18 20  1  0  0  0  0
 20 21  1  0  0  0  0
 20 50  1  0  0  0  0
 20 51  1  0  0  0  0
 21 33  1  0  0  0  0
 21 22  1  0  0  0  0
 22 23  2  0  0  0  0
 22 24  1  0  0  0  0
 24 25  1  0  0  0  0
 24 26  2  0  0  0  0
 26 27  1  0  0  0  0
 26 52  1  0  0  0  0
 27 28  1  0  0  0  0
 27 33  1  0  0  0  0
 28 32  1  0  0  0  0
 28 29  1  0  0  0  0
 28 53  1  0  0  0  0
 29 30  1  0  0  0  0
 29 54  1  0  0  0  0
 29 55  1  0  0  0  0
 30 31  1  0  0  0  0
 30 56  1  0  0  0  0
 30 57  1  0  0  0  0
 31 32  1  0  0  0  0
 31 58  1  0  0  0  0
 31 59  1  0  0  0  0
 33 34  2  0  0  0  0
 35 36  2  0  0  0  0
 35 60  1  0  0  0  0
 36 61  1  0  0  0  0
M  END
> <s_m_source_file>
AV-unprocessed.smi

> <i_m_source_file_index>
24

> <i_lp_mmshare_version>
43012

> <i_f3d_flags>
0

> <s_epik_input>
W0NIM11PYzFbY0hdW2NIXWMoW2NIXVtjSF0xKVtDQEBIXTJbQ0gyXUMoYzNbY0hdW2NIXVtjSF1bY0hdW2NIXTMpPU5OMkMoPU8pW0NIMl1uNGMoPU8pYyhGKVtjSF1uKGM0PU8pW0NAQEhdNVtDSDJdW0NIMl1bQ0gyXU81

> <s_epik_cmdline>
J2VwaWtfcHl0aG9uJywgJy1waCcsICc3LjAnLCAnLXRuJywgJzgnLCAnLW1hJywgJzIwMCcsICctbWV0YWxfYmluZGluZycsICctaW1hZScsICc8aW5maWxlLm1hZT4nLCAnLW9tYWUnLCAnPG91dGZpbGUubWFlPic=

> <r_lp_tautomer_probability>
1

> <r_epik_Ionization_Penalty>
1.46326e-08

> <r_epik_Ionization_Penalty_Charging>
4.53232e-09

> <r_epik_Ionization_Penalty_Neutral>
1.01002e-08

> <r_epik_State_Penalty>
-0

> <r_epik_Charging_Adjusted_Penalty>
4.53232e-09

> <i_epik_Tot_Q>
0

> <i_epik_Tot_abs_Q>
0

> <r_epik_Metal_State_Penalty>
-0

> <b_epik_Metal_Only>
0

> <s_epik_Chemistry_Notes>
This compound has an imine and may undergo hydrolysis. This compound contains an acetal/aminal-like group ( X-CH(R)-Y where X, Y are N, S, or O) that may be acid/base labile, releasing an aldehyde.

> <s_lp_Force_Field>
OPLS_2005

> <r_lp_Energy>
49.9994

> <b_lp_Chiralities_Consistent>
1

> <s_lp_Variant>
AV-unprocessed.smi:24-4

> <Gold.Version>
5.8.1

> <Gold.Id.Protein>
6NUR|6NUR_protein|mol2

> <Gold.PLP.Fitness>
52.6404

> <Gold.PLP.PLP>
-49.8037

> <Gold.PLP.part.hbond>
-2.0000

> <Gold.PLP.part.metal>
0.0000

> <Gold.PLP.part.buried>
-5.2327

> <Gold.PLP.part.nonpolar>
-44.0972

> <Gold.PLP.part.repulsive>
0.4379

> <Gold.PLP.ligand.clash>
0.0000

> <Gold.PLP.ligand.torsion>
0.9024

> <Gold.PLP.Chemscore.Hbond>
1.4968

> <Gold.PLP.Chemscore.CHOScore>
0.0000

> <Gold.PLP.Chemscore.Metal>
0.0000

> <Gold.Chemscore.Hbonds>
donor molecule, donor type, donor heavy atom, donor atom, acceptor molecule, acceptor atom, score
      P1  H  6931  6943       L1    32  0.39
      P1  H  6934  6947       L1    32  0.67

> <Gold.PLP.Chemscore.Internal.Correction>
0.1510

> <Gold.Rescore>
     Score         DG    S(hbond)    S(metal)    S(lipo)     H(rot)  DE(clash)    DE(int)     intcor
     12.44     -17.60       0.88        0.00     121.53       1.98       0.55       4.60       ----

> <Gold.Chemscore.Fitness>
12.4396

> <Gold.Chemscore.DG>
-17.5956

> <Gold.Chemscore.ZeroCoef>
-5.4800

> <Gold.Chemscore.Hbond>
0.8841

> <Gold.Chemscore.Metal>
0.0000

> <Gold.Chemscore.Lipo>
121.5276

> <Gold.Chemscore.Internal_Hbond>
0.0000

> <Gold.Chemscore.DEClash>
0.5531

> <Gold.Chemscore.DEInternal>
4.6029

> <Gold.Chemscore.Rot>
1.9750

> <Gold.Chemscore.Internal.Correction>
   9.000000E+99

> <Gold.Chemscore.Hbonds>
donor molecule, donor type, donor heavy atom, donor atom, acceptor molecule, acceptor atom, score
      P1  H  6931  6943       L1    32  0.03
      P1  H  6934  6947       L1    32  0.14
      P1  H 10752 10764       L1    19  0.01

> <Gold.Chemscore.Hbond.Weighted>
-2.9529

> <Gold.Chemscore.Metal.Weighted>
-0.0000

> <Gold.Chemscore.Lipo.Weighted>
-14.2187

> <Gold.Chemscore.Internal_Hbond.Weighted>
0.0000

> <Gold.Chemscore.DEClash.Weighted>
0.5531

> <Gold.Chemscore.DEInternal.Weighted>
4.6029

> <Gold.Chemscore.Rot.Weighted>
5.0561

> <Gold.Chemscore.Internal.Correction.Weighted>
   9.000000E+99

> <Gold.Protein.RotatedTorsions>
[ 6907 6896 6895 6894 ] final    2.68 input  -60.11 | X-H torsion
[ 7974 7965 7964 7962 ] final  -22.91 input  175.53 | X-H torsion
[ 8008 7997 7996 7995 ] final   20.81 input   59.86 | X-H torsion
[ 10167 10162 10161 10158 ] final  151.31 input  -65.29 | X-H torsion
[ 10718 10713 10712 10709 ] final   36.53 input   66.30 | X-H torsion
[ 10763 10752 10751 10750 ] final  -48.31 input  -60.55 | X-H torsion
[ 11005 11000 10999 10996 ] final  -15.08 input  -57.11 | X-H torsion

> <Gold.Protein.ActiveResidues>
 VAL166  LYS551  ARG553  GLY616  TRP617  ASP618  TYR619  PRO620  LYS621  CYS622 
 ASP623  PHE694  ASN695  SER759  ASP760  ASP761  ALA762  ILE779  LEU786  VAL792 
 PHE793  MET794  SER795  GLU796  ALA797  LYS798  CYS799  TRP800  GLU811  SER814 

> <Gold.Protein.RotatedAtoms>
  151.6127  135.1039  160.0084 H   0  0  0  0  0  0  0  0  0  0  0  0  # atno 6907 bound_to 6896
  152.4199  133.7096  159.6481 H   0  0  0  0  0  0  0  0  0  0  0  0  # atno 6908 bound_to 6896
  150.8087  133.8388  159.3214 H   0  0  0  0  0  0  0  0  0  0  0  0  # atno 6909 bound_to 6896
  146.1648  140.4544  142.8556 H   0  0  0  0  0  0  0  0  0  0  0  0  # atno 7974 bound_to 7965
  154.9412  140.3053  155.5119 H   0  0  0  0  0  0  0  0  0  0  0  0  # atno 8008 bound_to 7997
  156.2995  140.2336  156.4419 H   0  0  0  0  0  0  0  0  0  0  0  0  # atno 8009 bound_to 7997
  154.8143  140.0427  157.1354 H   0  0  0  0  0  0  0  0  0  0  0  0  # atno 8010 bound_to 7997
  139.4842  144.5451  151.7498 H   0  0  0  0  0  0  0  0  0  0  0  0  # atno 10167 bound_to 10162
  157.3359  130.7522  149.6879 H   0  0  0  0  0  0  0  0  0  0  0  0  # atno 10718 bound_to 10713
  154.0757  135.6598  153.4830 H   0  0  0  0  0  0  0  0  0  0  0  0  # atno 10763 bound_to 10752
  153.0374  135.5168  154.7523 H   0  0  0  0  0  0  0  0  0  0  0  0  # atno 10764 bound_to 10752
  154.6603  135.3014  154.9843 H   0  0  0  0  0  0  0  0  0  0  0  0  # atno 10765 bound_to 10752
  140.7930  133.8273  155.9397 H   0  0  0  0  0  0  0  0  0  0  0  0  # atno 11005 bound_to 11000
  144.8077  140.6329  143.6436 LP  0  0  0  0  0  0  0  0  0  0  0  0  # atno 17320 bound_to 7965
  145.4496  139.1525  143.3925 LP  0  0  0  0  0  0  0  0  0  0  0  0  # atno 17321 bound_to 7965
  140.4996  144.1188  150.5968 LP  0  0  0  0  0  0  0  0  0  0  0  0  # atno 17342 bound_to 10162
  140.4077  143.2672  151.9871 LP  0  0  0  0  0  0  0  0  0  0  0  0  # atno 17343 bound_to 10162
  155.9701  130.4181  150.4314 LP  0  0  0  0  0  0  0  0  0  0  0  0  # atno 17370 bound_to 10713
  157.2353  131.0513  151.2468 LP  0  0  0  0  0  0  0  0  0  0  0  0  # atno 17371 bound_to 10713
  140.9371  134.1948  157.4824 LP  0  0  0  0  0  0  0  0  0  0  0  0  # atno 17394 bound_to 11000
  139.8729  134.9856  156.5291 LP  0  0  0  0  0  0  0  0  0  0  0  0  # atno 17395 bound_to 11000

$$$$
