AV-unprocessed.smi:1567|AV-procd|sdf|6309|dock2
  -GOLD-   22720 6513D 1   1.00000     0.00000
 Structure written by MMmdl.
 43 45  0  0  0  0  0  0  0  0  2 V2000
  150.5167  135.6448  157.7516 O   0  0  0  0  0  0  0  0  0  0  0  0
  150.5952  136.8688  157.0537 C   0  0  0  0  0  0  0  0  0  0  0  0
  150.9798  136.6064  155.5917 C   0  0  0  0  0  0  0  0  0  0  0  0
  151.4198  137.8872  154.8625 C   0  0  0  0  0  0  0  0  0  0  0  0
  150.2850  138.8173  154.5560 C   0  0  0  0  0  0  0  0  0  0  0  0
  149.2007  138.5565  153.7686 N   0  3  0  0  0  0  0  0  0  0  0  0
  148.3633  139.6719  153.7272 C   0  0  0  0  0  0  0  0  0  0  0  0
  147.1577  139.8841  153.0654 C   0  0  0  0  0  0  0  0  0  0  0  0
  146.5576  141.1494  153.2345 C   0  0  0  0  0  0  0  0  0  0  0  0
  147.1542  142.1441  154.0364 C   0  0  0  0  0  0  0  0  0  0  0  0
  148.3758  141.9166  154.7037 C   0  0  0  0  0  0  0  0  0  0  0  0
  148.9626  140.6633  154.5296 C   0  0  0  0  0  0  0  0  0  0  0  0
  150.1408  140.0919  155.0217 N   0  0  0  0  0  0  0  0  0  0  0  0
  151.0019  140.8870  155.9104 C   0  0  0  0  0  0  0  0  0  0  0  0
  150.2379  141.4914  157.1054 C   0  0  1  0  0  0  0  0  0  0  0  0
  149.4313  140.4968  157.7087 O   0  0  0  0  0  0  0  0  0  0  0  0
  151.1943  142.1535  158.0881 C   0  0  0  0  0  0  0  0  0  0  0  0
  151.1334  143.5451  158.3282 C   0  0  0  0  0  0  0  0  0  0  0  0
  152.0145  144.1486  159.2464 C   0  0  0  0  0  0  0  0  0  0  0  0
  151.9506  145.4825  159.4692 F   0  0  0  0  0  0  0  0  0  0  0  0
  152.9597  143.3649  159.9347 C   0  0  0  0  0  0  0  0  0  0  0  0
  153.0204  141.9772  159.7073 C   0  0  0  0  0  0  0  0  0  0  0  0
  152.1402  141.3715  158.7894 C   0  0  0  0  0  0  0  0  0  0  0  0
  152.2047  140.0327  158.5902 F   0  0  0  0  0  0  0  0  0  0  0  0
  150.7570  134.9454  157.1628 H   0  0  0  0  0  0  0  0  0  0  0  0
  149.6320  137.3760  157.1145 H   0  0  0  0  0  0  0  0  0  0  0  0
  151.3340  137.5076  157.5388 H   0  0  0  0  0  0  0  0  0  0  0  0
  151.7866  135.8726  155.5605 H   0  0  0  0  0  0  0  0  0  0  0  0
  150.1306  136.1619  155.0703 H   0  0  0  0  0  0  0  0  0  0  0  0
  152.1533  138.4232  155.4656 H   0  0  0  0  0  0  0  0  0  0  0  0
  151.9140  137.6255  153.9265 H   0  0  0  0  0  0  0  0  0  0  0  0
  146.6989  139.1235  152.4510 H   0  0  0  0  0  0  0  0  0  0  0  0
  145.6210  141.3613  152.7393 H   0  0  0  0  0  0  0  0  0  0  0  0
  146.6647  143.1015  154.1427 H   0  0  0  0  0  0  0  0  0  0  0  0
  148.8241  142.6844  155.3169 H   0  0  0  0  0  0  0  0  0  0  0  0
  151.8080  140.2425  156.2629 H   0  0  0  0  0  0  0  0  0  0  0  0
  151.4752  141.6689  155.3151 H   0  0  0  0  0  0  0  0  0  0  0  0
  149.5485  142.2527  156.7397 H   0  0  0  0  0  0  0  0  0  0  0  0
  148.7959  140.9223  158.2642 H   0  0  0  0  0  0  0  0  0  0  0  0
  150.4081  144.1577  157.8126 H   0  0  0  0  0  0  0  0  0  0  0  0
  153.6351  143.8272  160.6395 H   0  0  0  0  0  0  0  0  0  0  0  0
  153.7416  141.3752  160.2401 H   0  0  0  0  0  0  0  0  0  0  0  0
  149.0490  137.6756  153.2943 H   0  0  0  0  0  0  0  0  0  0  0  0
  1  2  1  0  0  0  0
  1 25  1  0  0  0  0
  2  3  1  0  0  0  0
  2 26  1  0  0  0  0
  2 27  1  0  0  0  0
  3  4  1  0  0  0  0
  3 28  1  0  0  0  0
  3 29  1  0  0  0  0
  4  5  1  0  0  0  0
  4 30  1  0  0  0  0
  4 31  1  0  0  0  0
  5 13  1  0  0  0  0
  5  6  2  0  0  0  0
  6  7  1  0  0  0  0
  6 43  1  0  0  0  0
  7 12  2  0  0  0  0
  7  8  1  0  0  0  0
  8  9  2  0  0  0  0
  8 32  1  0  0  0  0
  9 10  1  0  0  0  0
  9 33  1  0  0  0  0
 10 11  2  0  0  0  0
 10 34  1  0  0  0  0
 11 12  1  0  0  0  0
 11 35  1  0  0  0  0
 12 13  1  0  0  0  0
 13 14  1  0  0  0  0
 14 15  1  0  0  0  0
 14 36  1  0  0  0  0
 14 37  1  0  0  0  0
 15 16  1  0  0  0  0
 15 17  1  0  0  0  0
 15 38  1  0  0  0  0
 16 39  1  0  0  0  0
 17 23  1  0  0  0  0
 17 18  2  0  0  0  0
 18 19  1  0  0  0  0
 18 40  1  0  0  0  0
 19 20  1  0  0  0  0
 19 21  2  0  0  0  0
 21 22  1  0  0  0  0
 21 41  1  0  0  0  0
 22 23  2  0  0  0  0
 22 42  1  0  0  0  0
 23 24  1  0  0  0  0
M  CHG  1   6   1
M  END
> <s_m_source_file>
AV-unprocessed.smi

> <i_m_source_file_index>
1567

> <i_lp_mmshare_version>
43012

> <i_f3d_flags>
0

> <s_epik_input>
W09IXVtDSDJdW0NIMl1bQ0gyXWMobjEpbihjKGMxMilbY0hdW2NIXVtjSF1bY0hdMilbQ0gyXVtDQEhdKFtPSF0pYzNbY0hdYyhGKVtjSF1bY0hdYzNG

> <s_epik_cmdline>
J2VwaWtfcHl0aG9uJywgJy1waCcsICc3LjAnLCAnLXRuJywgJzgnLCAnLW1hJywgJzIwMCcsICctbWV0YWxfYmluZGluZycsICctaW1hZScsICc8aW5maWxlLm1hZT4nLCAnLW9tYWUnLCAnPG91dGZpbGUubWFlPic=

> <r_epik_Ionization_Penalty>
0.786443

> <r_epik_Ionization_Penalty_Charging>
0.786439

> <r_epik_Ionization_Penalty_Neutral>
3.69699e-06

> <r_epik_State_Penalty>
0.816472

> <r_epik_Charging_Adjusted_Penalty>
1.60291

> <i_epik_Tot_Q>
1

> <i_epik_Tot_abs_Q>
1

> <r_epik_Metal_State_Penalty>
4.73733

> <b_epik_Metal_Only>
0

> <s_lp_Force_Field>
OPLS_2005

> <r_lp_Energy>
17.6008

> <b_lp_Chiralities_Consistent>
1

> <s_lp_Variant>
AV-unprocessed.smi:1567-4

> <Gold.Version>
5.8.1

> <Gold.Id.Protein>
6NUR|6NUR_protein|mol2

> <Gold.PLP.Fitness>
60.6654

> <Gold.PLP.PLP>
-53.5970

> <Gold.PLP.part.hbond>
-3.0000

> <Gold.PLP.part.metal>
0.0000

> <Gold.PLP.part.buried>
0.9022

> <Gold.PLP.part.nonpolar>
-51.9811

> <Gold.PLP.part.repulsive>
0.0532

> <Gold.PLP.ligand.clash>
0.0000

> <Gold.PLP.ligand.torsion>
0.2260

> <Gold.PLP.Chemscore.Hbond>
2.4732

> <Gold.PLP.Chemscore.CHOScore>
0.0000

> <Gold.PLP.Chemscore.Metal>
0.0000

> <Gold.Chemscore.Hbonds>
donor molecule, donor type, donor heavy atom, donor atom, acceptor molecule, acceptor atom, score
      L1  H     6    43       P1  7948  2.00
      P1  H  6896  6909       L1     1  0.51

> <Gold.PLP.Chemscore.Internal.Correction>
0.1008

> <Gold.Rescore>
     Score         DG    S(hbond)    S(metal)    S(lipo)     H(rot)  DE(clash)    DE(int)     intcor
     13.43     -16.72       1.16        0.00     135.54       3.31       1.67       1.63       ----

> <Gold.Chemscore.Fitness>
13.4262

> <Gold.Chemscore.DG>
-16.7226

> <Gold.Chemscore.ZeroCoef>
-5.4800

> <Gold.Chemscore.Hbond>
1.1571

> <Gold.Chemscore.Metal>
0.0000

> <Gold.Chemscore.Lipo>
135.5426

> <Gold.Chemscore.Internal_Hbond>
0.0000

> <Gold.Chemscore.DEClash>
1.6690

> <Gold.Chemscore.DEInternal>
1.6273

> <Gold.Chemscore.Rot>
3.3127

> <Gold.Chemscore.Internal.Correction>
   9.000000E+99

> <Gold.Chemscore.Hbonds>
donor molecule, donor type, donor heavy atom, donor atom, acceptor molecule, acceptor atom, score
      L1  H     6    43       P1  7948  0.95
      P1  H  6896  6909       L1     1  0.15

> <Gold.Chemscore.Hbond.Weighted>
-3.8646

> <Gold.Chemscore.Metal.Weighted>
-0.0000

> <Gold.Chemscore.Lipo.Weighted>
-15.8585

> <Gold.Chemscore.Internal_Hbond.Weighted>
0.0000

> <Gold.Chemscore.DEClash.Weighted>
1.6690

> <Gold.Chemscore.DEInternal.Weighted>
1.6273

> <Gold.Chemscore.Rot.Weighted>
8.4805

> <Gold.Chemscore.Internal.Correction.Weighted>
   9.000000E+99

> <Gold.Protein.RotatedTorsions>
[ 6907 6896 6895 6894 ] final   59.63 input  -60.11 | X-H torsion
[ 7974 7965 7964 7962 ] final    3.80 input  175.53 | X-H torsion
[ 8008 7997 7996 7995 ] final  -36.45 input   59.86 | X-H torsion
[ 10167 10162 10161 10158 ] final   13.15 input  -65.29 | X-H torsion
[ 10718 10713 10712 10709 ] final   44.97 input   66.30 | X-H torsion
[ 10763 10752 10751 10750 ] final  -81.96 input  -60.55 | X-H torsion
[ 11005 11000 10999 10996 ] final  -70.78 input  -57.11 | X-H torsion

> <Gold.Protein.ActiveResidues>
 VAL166  LYS551  ARG553  GLY616  TRP617  ASP618  TYR619  PRO620  LYS621  CYS622 
 ASP623  PHE694  ASN695  SER759  ASP760  ASP761  ALA762  ILE779  LEU786  VAL792 
 PHE793  MET794  SER795  GLU796  ALA797  LYS798  CYS799  TRP800  GLU811  SER814 

> <Gold.Protein.RotatedAtoms>
  152.3932  134.6408  160.0099 H   0  0  0  0  0  0  0  0  0  0  0  0  # atno 6907 bound_to 6896
  151.6635  133.3310  159.3187 H   0  0  0  0  0  0  0  0  0  0  0  0  # atno 6908 bound_to 6896
  150.7844  134.6860  159.6515 H   0  0  0  0  0  0  0  0  0  0  0  0  # atno 6909 bound_to 6896
  146.2445  140.0631  142.8367 H   0  0  0  0  0  0  0  0  0  0  0  0  # atno 7974 bound_to 7965
  154.4073  140.1630  156.2376 H   0  0  0  0  0  0  0  0  0  0  0  0  # atno 8008 bound_to 7997
  155.9229  140.3420  155.6164 H   0  0  0  0  0  0  0  0  0  0  0  0  # atno 8009 bound_to 7997
  155.7201  140.0767  157.2325 H   0  0  0  0  0  0  0  0  0  0  0  0  # atno 8010 bound_to 7997
  140.6022  143.8582  150.6976 H   0  0  0  0  0  0  0  0  0  0  0  0  # atno 10167 bound_to 10162
  157.4326  130.8034  149.7617 H   0  0  0  0  0  0  0  0  0  0  0  0  # atno 10718 bound_to 10713
  154.5700  135.5608  153.7086 H   0  0  0  0  0  0  0  0  0  0  0  0  # atno 10763 bound_to 10752
  153.0045  135.6294  154.2127 H   0  0  0  0  0  0  0  0  0  0  0  0  # atno 10764 bound_to 10752
  154.2067  135.2875  155.2952 H   0  0  0  0  0  0  0  0  0  0  0  0  # atno 10765 bound_to 10752
  141.1580  133.6799  156.6806 H   0  0  0  0  0  0  0  0  0  0  0  0  # atno 11005 bound_to 11000
  145.0882  140.9267  143.4784 LP  0  0  0  0  0  0  0  0  0  0  0  0  # atno 17320 bound_to 7965
  145.0798  139.2968  143.5789 LP  0  0  0  0  0  0  0  0  0  0  0  0  # atno 17321 bound_to 7965
  140.2130  143.3868  152.1703 LP  0  0  0  0  0  0  0  0  0  0  0  0  # atno 17342 bound_to 10162
  139.5299  144.7147  151.5094 LP  0  0  0  0  0  0  0  0  0  0  0  0  # atno 17343 bound_to 10162
  155.9919  130.3935  150.2966 LP  0  0  0  0  0  0  0  0  0  0  0  0  # atno 17370 bound_to 10713
  157.1124  131.0225  151.3042 LP  0  0  0  0  0  0  0  0  0  0  0  0  # atno 17371 bound_to 10713
  140.3106  134.8089  157.4173 LP  0  0  0  0  0  0  0  0  0  0  0  0  # atno 17394 bound_to 11000
  140.1182  134.5254  155.8206 LP  0  0  0  0  0  0  0  0  0  0  0  0  # atno 17395 bound_to 11000

$$$$
