AV-unprocessed.smi:2046|AV-procd|sdf|8312|dock3
  -GOLD-   2272010583D 1   1.00000     0.00000
 Structure written by MMmdl.
 30 31  0  0  0  0  0  0  0  0  1 V2000
  148.6234  137.0038  156.4332 O   0  0  0  0  0  0  0  0  0  0  0  0
  148.8381  136.7483  155.2480 C   0  0  0  0  0  0  0  0  0  0  0  0
  149.3163  135.5832  154.7767 N   0  0  0  0  0  0  0  0  0  0  0  0
  149.6734  134.4184  155.5059 C   0  0  0  0  0  0  0  0  0  0  0  0
  149.9275  134.4137  156.8241 N   0  0  0  0  0  0  0  0  0  0  0  0
  150.2521  133.1447  157.2861 N   0  0  0  0  0  0  0  0  0  0  0  0
  150.2305  132.2438  156.2999 C   0  0  0  0  0  0  0  0  0  0  0  0
  149.8121  132.8573  154.7095 S   0  0  0  0  0  0  0  0  0  0  0  0
  148.6182  137.6189  154.2520 N   0  0  0  0  0  0  0  0  0  0  0  0
  148.0706  138.9683  154.4012 C   0  0  1  0  0  0  0  0  0  0  0  0
  149.2000  140.0176  154.2933 C   0  0  0  0  0  0  0  0  0  0  0  0
  148.8676  141.3641  154.9563 C   0  0  0  0  0  0  0  0  0  0  0  0
  147.6803  142.1148  154.3349 C   0  0  0  0  0  0  0  0  0  0  0  0
  146.3352  141.3862  154.4988 C   0  0  0  0  0  0  0  0  0  0  0  0
  146.1622  140.3065  153.5348 N   0  0  0  0  0  0  0  0  0  0  0  0
  146.9033  139.1938  153.4218 C   0  0  0  0  0  0  0  0  0  0  0  0
  146.6591  138.3674  152.5427 O   0  0  0  0  0  0  0  0  0  0  0  0
  149.4364  135.5207  153.7767 H   0  0  0  0  0  0  0  0  0  0  0  0
  150.4630  131.2104  156.5108 H   0  0  0  0  0  0  0  0  0  0  0  0
  148.8189  137.3219  153.3082 H   0  0  0  0  0  0  0  0  0  0  0  0
  147.6418  139.0251  155.4037 H   0  0  0  0  0  0  0  0  0  0  0  0
  150.1004  139.6352  154.7754 H   0  0  0  0  0  0  0  0  0  0  0  0
  149.4703  140.1718  153.2477 H   0  0  0  0  0  0  0  0  0  0  0  0
  148.6838  141.2090  156.0201 H   0  0  0  0  0  0  0  0  0  0  0  0
  149.7491  142.0036  154.8993 H   0  0  0  0  0  0  0  0  0  0  0  0
  147.6049  143.0865  154.8242 H   0  0  0  0  0  0  0  0  0  0  0  0
  147.8724  142.3259  153.2820 H   0  0  0  0  0  0  0  0  0  0  0  0
  146.2094  141.0128  155.5161 H   0  0  0  0  0  0  0  0  0  0  0  0
  145.5232  142.0940  154.3314 H   0  0  0  0  0  0  0  0  0  0  0  0
  145.4057  140.4190  152.8754 H   0  0  0  0  0  0  0  0  0  0  0  0
  1  2  2  0  0  0  0
  2  3  1  0  0  0  0
  2  9  1  0  0  0  0
  3  4  1  0  0  0  0
  3 18  1  0  0  0  0
  4  8  1  0  0  0  0
  4  5  2  0  0  0  0
  5  6  1  0  0  0  0
  6  7  2  0  0  0  0
  7  8  1  0  0  0  0
  7 19  1  0  0  0  0
  9 10  1  0  0  0  0
  9 20  1  0  0  0  0
 10 16  1  0  0  0  0
 10 11  1  0  0  0  0
 10 21  1  0  0  0  0
 11 12  1  0  0  0  0
 11 22  1  0  0  0  0
 11 23  1  0  0  0  0
 12 13  1  0  0  0  0
 12 24  1  0  0  0  0
 12 25  1  0  0  0  0
 13 14  1  0  0  0  0
 13 26  1  0  0  0  0
 13 27  1  0  0  0  0
 14 15  1  0  0  0  0
 14 28  1  0  0  0  0
 14 29  1  0  0  0  0
 15 16  1  0  0  0  0
 15 30  1  0  0  0  0
 16 17  2  0  0  0  0
M  END
> <s_m_source_file>
AV-unprocessed.smi

> <i_m_source_file_index>
2046

> <i_lp_mmshare_version>
43012

> <i_f3d_flags>
0

> <s_epik_input>
czFbY0hdbm5jMVtOSF1DKD1PKVtOSF1bQ0BASF0yW0NIMl1bQ0gyXVtDSDJdW0NIMl1bTkhdQzI9Tw==

> <s_epik_cmdline>
J2VwaWtfcHl0aG9uJywgJy1waCcsICc3LjAnLCAnLXRuJywgJzgnLCAnLW1hJywgJzIwMCcsICctbWV0YWxfYmluZGluZycsICctaW1hZScsICc8aW5maWxlLm1hZT4nLCAnLW9tYWUnLCAnPG91dGZpbGUubWFlPic=

> <r_lp_tautomer_probability>
1

> <r_epik_Ionization_Penalty>
0.000691558

> <r_epik_Ionization_Penalty_Charging>
0

> <r_epik_Ionization_Penalty_Neutral>
0.000691558

> <r_epik_State_Penalty>
-0

> <r_epik_Charging_Adjusted_Penalty>
0

> <i_epik_Tot_Q>
0

> <i_epik_Tot_abs_Q>
0

> <r_epik_Metal_State_Penalty>
0.252698

> <b_epik_Metal_Only>
0

> <s_lp_Force_Field>
OPLS_2005

> <r_lp_Energy>
9.05746

> <b_lp_Chiralities_Consistent>
1

> <s_lp_Variant>
AV-unprocessed.smi:2046-2

> <Gold.Version>
5.8.1

> <Gold.Id.Protein>
6NUR|6NUR_protein|mol2

> <Gold.PLP.Fitness>
35.0966

> <Gold.PLP.PLP>
-23.9227

> <Gold.PLP.part.hbond>
-4.0000

> <Gold.PLP.part.metal>
0.0000

> <Gold.PLP.part.buried>
-1.8670

> <Gold.PLP.part.nonpolar>
-18.9781

> <Gold.PLP.part.repulsive>
0.3428

> <Gold.PLP.ligand.clash>
0.0000

> <Gold.PLP.ligand.torsion>
0.2348

> <Gold.PLP.Chemscore.Hbond>
3.8720

> <Gold.PLP.Chemscore.CHOScore>
0.0000

> <Gold.PLP.Chemscore.Metal>
0.0000

> <Gold.Chemscore.Hbonds>
donor molecule, donor type, donor heavy atom, donor atom, acceptor molecule, acceptor atom, score
      L1  H     3    18       P1  7948  0.91
      L1  H     9    20       P1  7948  1.00
      L1  H    15    30       P1 10175  1.00
      P1  H  6896  6907       L1     6  0.67

> <Gold.PLP.Chemscore.Internal.Correction>
0.0274

> <Gold.Rescore>
     Score         DG    S(hbond)    S(metal)    S(lipo)     H(rot)  DE(clash)    DE(int)     intcor
     16.39     -17.89       3.05        0.00      41.00       1.00       0.16       1.34       ----

> <Gold.Chemscore.Fitness>
16.3866

> <Gold.Chemscore.DG>
-17.8871

> <Gold.Chemscore.ZeroCoef>
-5.4800

> <Gold.Chemscore.Hbond>
3.0450

> <Gold.Chemscore.Metal>
0.0000

> <Gold.Chemscore.Lipo>
40.9969

> <Gold.Chemscore.Internal_Hbond>
0.0000

> <Gold.Chemscore.DEClash>
0.1572

> <Gold.Chemscore.DEInternal>
1.3433

> <Gold.Chemscore.Rot>
1.0000

> <Gold.Chemscore.Internal.Correction>
   9.000000E+99

> <Gold.Chemscore.Hbonds>
donor molecule, donor type, donor heavy atom, donor atom, acceptor molecule, acceptor atom, score
      L1  H     3    18       P1  7948  0.29
      L1  H     9    20       P1  7948  1.00
      L1  H    15    30       P1 10175  0.85
      P1  H  6896  6907       L1     6  0.36

> <Gold.Chemscore.Hbond.Weighted>
-10.1704

> <Gold.Chemscore.Metal.Weighted>
-0.0000

> <Gold.Chemscore.Lipo.Weighted>
-4.7966

> <Gold.Chemscore.Internal_Hbond.Weighted>
0.0000

> <Gold.Chemscore.DEClash.Weighted>
0.1572

> <Gold.Chemscore.DEInternal.Weighted>
1.3433

> <Gold.Chemscore.Rot.Weighted>
2.5600

> <Gold.Chemscore.Internal.Correction.Weighted>
   9.000000E+99

> <Gold.Protein.RotatedTorsions>
[ 6907 6896 6895 6894 ] final -151.64 input  -60.11 | X-H torsion
[ 7974 7965 7964 7962 ] final -146.25 input  175.53 | X-H torsion
[ 8008 7997 7996 7995 ] final  -83.95 input   59.86 | X-H torsion
[ 10167 10162 10161 10158 ] final  -93.33 input  -65.29 | X-H torsion
[ 10718 10713 10712 10709 ] final  -66.68 input   66.30 | X-H torsion
[ 10763 10752 10751 10750 ] final   75.58 input  -60.55 | X-H torsion
[ 11005 11000 10999 10996 ] final  -87.46 input  -57.11 | X-H torsion

> <Gold.Protein.ActiveResidues>
 VAL166  LYS551  ARG553  GLY616  TRP617  ASP618  TYR619  PRO620  LYS621  CYS622 
 ASP623  PHE694  ASN695  SER759  ASP760  ASP761  ALA762  ILE779  LEU786  VAL792 
 PHE793  MET794  SER795  GLU796  ALA797  LYS798  CYS799  TRP800  GLU811  SER814 

> <Gold.Protein.RotatedAtoms>
  151.2160  133.4529  159.2599 H   0  0  0  0  0  0  0  0  0  0  0  0  # atno 6907 bound_to 6896
  151.0930  134.9927  159.8422 H   0  0  0  0  0  0  0  0  0  0  0  0  # atno 6908 bound_to 6896
  152.5436  134.2092  159.8796 H   0  0  0  0  0  0  0  0  0  0  0  0  # atno 6909 bound_to 6896
  144.8172  140.5480  143.5602 H   0  0  0  0  0  0  0  0  0  0  0  0  # atno 7974 bound_to 7965
  154.6246  140.0612  156.9657 H   0  0  0  0  0  0  0  0  0  0  0  0  # atno 8008 bound_to 7997
  155.1763  140.3295  155.4365 H   0  0  0  0  0  0  0  0  0  0  0  0  # atno 8009 bound_to 7997
  156.2450  140.1905  156.6862 H   0  0  0  0  0  0  0  0  0  0  0  0  # atno 8010 bound_to 7997
  140.3257  143.3023  151.9997 H   0  0  0  0  0  0  0  0  0  0  0  0  # atno 10167 bound_to 10162
  156.0599  130.4266  150.1743 H   0  0  0  0  0  0  0  0  0  0  0  0  # atno 10718 bound_to 10713
  153.0665  135.4983  154.8210 H   0  0  0  0  0  0  0  0  0  0  0  0  # atno 10763 bound_to 10752
  154.6960  135.2993  154.9412 H   0  0  0  0  0  0  0  0  0  0  0  0  # atno 10764 bound_to 10752
  154.0151  135.6749  153.4821 H   0  0  0  0  0  0  0  0  0  0  0  0  # atno 10765 bound_to 10752
  141.1616  133.7512  156.9309 H   0  0  0  0  0  0  0  0  0  0  0  0  # atno 11005 bound_to 11000
  145.5187  139.1477  143.3564 LP  0  0  0  0  0  0  0  0  0  0  0  0  # atno 17320 bound_to 7965
  146.2476  140.5328  142.8907 LP  0  0  0  0  0  0  0  0  0  0  0  0  # atno 17321 bound_to 7965
  139.4866  144.6275  151.7135 LP  0  0  0  0  0  0  0  0  0  0  0  0  # atno 17342 bound_to 10162
  140.5443  144.0529  150.6101 LP  0  0  0  0  0  0  0  0  0  0  0  0  # atno 17343 bound_to 10162
  156.9814  130.9865  151.3436 LP  0  0  0  0  0  0  0  0  0  0  0  0  # atno 17370 bound_to 10713
  157.5599  130.8239  149.8253 LP  0  0  0  0  0  0  0  0  0  0  0  0  # atno 17371 bound_to 10713
  140.1387  134.9308  157.2437 LP  0  0  0  0  0  0  0  0  0  0  0  0  # atno 17394 bound_to 11000
  140.2863  134.3291  155.7328 LP  0  0  0  0  0  0  0  0  0  0  0  0  # atno 17395 bound_to 11000

$$$$
