AV-unprocessed.smi:1216|AV-procd|sdf|5098|dock9
  -GOLD-   22720 4153D 1   1.00000     0.00000
 Structure written by MMmdl.
 43 44  0  0  0  0  0  0  0  0  2 V2000
  145.6331  133.7896  153.6698 C   0  0  0  0  0  0  0  0  0  0  0  0
  146.7317  133.6845  152.6038 C   0  0  2  0  0  0  0  0  0  0  0  0
  146.5876  132.3898  151.7752 C   0  0  0  0  0  0  0  0  0  0  0  0
  145.7189  132.5548  150.6042 N   0  0  0  0  0  0  0  0  0  0  0  0
  144.6469  133.4003  150.4766 C   0  0  0  0  0  0  0  0  0  0  0  0
  144.1602  133.2258  149.2066 C   0  0  0  0  0  0  0  0  0  0  0  0
  144.9511  132.2776  148.6153 N   0  3  0  0  0  0  0  0  0  0  0  0
  145.8939  131.8661  149.4688 C   0  0  0  0  0  0  0  0  0  0  0  0
  148.0376  133.7402  153.2599 N   0  0  0  0  0  0  0  0  0  0  0  0
  148.4890  132.8719  154.1788 C   0  0  0  0  0  0  0  0  0  0  0  0
  147.8499  131.8863  154.5496 O   0  0  0  0  0  0  0  0  0  0  0  0
  149.8719  133.1745  154.7696 C   0  0  0  0  0  0  0  0  0  0  0  0
  150.3209  132.1495  155.7245 N   0  0  0  0  0  0  0  0  0  0  0  0
  150.3594  130.7617  155.2366 C   0  0  0  0  0  0  0  0  0  0  0  0
  151.7898  130.1975  155.0752 C   0  0  0  0  0  0  0  0  0  0  0  0
  152.8528  130.7513  156.0446 C   0  0  0  0  0  0  0  0  0  0  0  0
  152.4703  130.6895  157.5380 C   0  0  0  0  0  0  0  0  0  0  0  0
  151.1252  131.3433  157.9355 C   0  0  0  0  0  0  0  0  0  0  0  0
  150.6633  132.4709  156.9979 C   0  0  0  0  0  0  0  0  0  0  0  0
  150.6158  133.6215  157.4352 O   0  0  0  0  0  0  0  0  0  0  0  0
  144.6423  133.7759  153.2148 H   0  0  0  0  0  0  0  0  0  0  0  0
  145.7212  134.7187  154.2341 H   0  0  0  0  0  0  0  0  0  0  0  0
  145.6850  132.9624  154.3787 H   0  0  0  0  0  0  0  0  0  0  0  0
  146.6156  134.5414  151.9376 H   0  0  0  0  0  0  0  0  0  0  0  0
  147.5625  132.0327  151.4390 H   0  0  0  0  0  0  0  0  0  0  0  0
  146.1546  131.5963  152.3856 H   0  0  0  0  0  0  0  0  0  0  0  0
  144.3249  134.0533  151.2746 H   0  0  0  0  0  0  0  0  0  0  0  0
  143.3337  133.6945  148.6927 H   0  0  0  0  0  0  0  0  0  0  0  0
  146.6575  131.1350  149.2708 H   0  0  0  0  0  0  0  0  0  0  0  0
  148.6376  134.5131  153.0096 H   0  0  0  0  0  0  0  0  0  0  0  0
  150.5836  133.2721  153.9490 H   0  0  0  0  0  0  0  0  0  0  0  0
  149.8578  134.1513  155.2570 H   0  0  0  0  0  0  0  0  0  0  0  0
  149.7859  130.1278  155.9128 H   0  0  0  0  0  0  0  0  0  0  0  0
  149.8320  130.6712  154.2862 H   0  0  0  0  0  0  0  0  0  0  0  0
  151.7505  129.1109  155.1576 H   0  0  0  0  0  0  0  0  0  0  0  0
  152.1299  130.4021  154.0594 H   0  0  0  0  0  0  0  0  0  0  0  0
  153.7828  130.2013  155.8964 H   0  0  0  0  0  0  0  0  0  0  0  0
  153.0890  131.7810  155.7725 H   0  0  0  0  0  0  0  0  0  0  0  0
  152.4548  129.6463  157.8553 H   0  0  0  0  0  0  0  0  0  0  0  0
  153.2702  131.1570  158.1133 H   0  0  0  0  0  0  0  0  0  0  0  0
  150.3425  130.5868  157.9903 H   0  0  0  0  0  0  0  0  0  0  0  0
  151.2043  131.7329  158.9510 H   0  0  0  0  0  0  0  0  0  0  0  0
  144.8442  131.9381  147.6677 H   0  0  0  0  0  0  0  0  0  0  0  0
  1  2  1  0  0  0  0
  1 21  1  0  0  0  0
  1 22  1  0  0  0  0
  1 23  1  0  0  0  0
  2  3  1  0  0  0  0
  2  9  1  0  0  0  0
  2 24  1  0  0  0  0
  3  4  1  0  0  0  0
  3 25  1  0  0  0  0
  3 26  1  0  0  0  0
  4  8  1  0  0  0  0
  4  5  1  0  0  0  0
  5  6  2  0  0  0  0
  5 27  1  0  0  0  0
  6  7  1  0  0  0  0
  6 28  1  0  0  0  0
  7  8  2  0  0  0  0
  7 43  1  0  0  0  0
  8 29  1  0  0  0  0
  9 10  1  0  0  0  0
  9 30  1  0  0  0  0
 10 11  2  0  0  0  0
 10 12  1  0  0  0  0
 12 13  1  0  0  0  0
 12 31  1  0  0  0  0
 12 32  1  0  0  0  0
 13 19  1  0  0  0  0
 13 14  1  0  0  0  0
 14 15  1  0  0  0  0
 14 33  1  0  0  0  0
 14 34  1  0  0  0  0
 15 16  1  0  0  0  0
 15 35  1  0  0  0  0
 15 36  1  0  0  0  0
 16 17  1  0  0  0  0
 16 37  1  0  0  0  0
 16 38  1  0  0  0  0
 17 18  1  0  0  0  0
 17 39  1  0  0  0  0
 17 40  1  0  0  0  0
 18 19  1  0  0  0  0
 18 41  1  0  0  0  0
 18 42  1  0  0  0  0
 19 20  2  0  0  0  0
M  CHG  1   7   1
M  END
> <s_m_source_file>
AV-unprocessed.smi

> <i_m_source_file_index>
1216

> <i_lp_mmshare_version>
43012

> <i_f3d_flags>
0

> <s_epik_input>
W2NIXTFuW2NIXVtjSF1uMVtDSDJdW0NAQEhdKFtDSDNdKVtOSF1DKD1PKVtDSDJdTjJbQ0gyXVtDSDJdW0NIMl1bQ0gyXVtDSDJdQzI9Tw==

> <s_epik_cmdline>
J2VwaWtfcHl0aG9uJywgJy1waCcsICc3LjAnLCAnLXRuJywgJzgnLCAnLW1hJywgJzIwMCcsICctbWV0YWxfYmluZGluZycsICctaW1hZScsICc8aW5maWxlLm1hZT4nLCAnLW9tYWUnLCAnPG91dGZpbGUubWFlPic=

> <r_lp_tautomer_probability>
1

> <r_epik_Ionization_Penalty>
0.254232

> <r_epik_Ionization_Penalty_Charging>
0

> <r_epik_Ionization_Penalty_Neutral>
0.254232

> <r_epik_State_Penalty>
0.245698

> <r_epik_Charging_Adjusted_Penalty>
0.245698

> <i_epik_Tot_Q>
1

> <i_epik_Tot_abs_Q>
1

> <r_epik_Metal_State_Penalty>
0.535799

> <b_epik_Metal_Only>
0

> <s_lp_Force_Field>
OPLS_2005

> <r_lp_Energy>
19.3608

> <b_lp_Chiralities_Consistent>
1

> <s_lp_Variant>
AV-unprocessed.smi:1216-1

> <Gold.Version>
5.8.1

> <Gold.Id.Protein>
6NUR|6NUR_protein|mol2

> <Gold.PLP.Fitness>
40.1531

> <Gold.PLP.PLP>
-33.1978

> <Gold.PLP.part.hbond>
-3.0000

> <Gold.PLP.part.metal>
0.0000

> <Gold.PLP.part.buried>
-3.4372

> <Gold.PLP.part.nonpolar>
-27.4758

> <Gold.PLP.part.repulsive>
1.1000

> <Gold.PLP.ligand.clash>
0.0000

> <Gold.PLP.ligand.torsion>
0.7631

> <Gold.PLP.Chemscore.Hbond>
1.8160

> <Gold.PLP.Chemscore.CHOScore>
0.9956

> <Gold.PLP.Chemscore.Metal>
0.0000

> <Gold.Chemscore.Hbonds>
donor molecule, donor type, donor heavy atom, donor atom, acceptor molecule, acceptor atom, score
      L1  H     9    30       P1  7948  0.84
      P1  H  6896  6907       L1    20  0.83
      L1  C     8    29       P1 10747  1.00

> <Gold.PLP.Chemscore.Internal.Correction>
0.0468

> <Gold.Rescore>
     Score         DG    S(hbond)    S(metal)    S(lipo)     H(rot)  DE(clash)    DE(int)     intcor
      8.18     -11.55       1.50        0.00      57.52       2.22       1.54       1.84       ----

> <Gold.Chemscore.Fitness>
8.1786

> <Gold.Chemscore.DG>
-11.5548

> <Gold.Chemscore.ZeroCoef>
-5.4800

> <Gold.Chemscore.Hbond>
1.5025

> <Gold.Chemscore.Metal>
0.0000

> <Gold.Chemscore.Lipo>
57.5194

> <Gold.Chemscore.Internal_Hbond>
0.0000

> <Gold.Chemscore.DEClash>
1.5387

> <Gold.Chemscore.DEInternal>
1.8376

> <Gold.Chemscore.Rot>
2.2161

> <Gold.Chemscore.Internal.Correction>
   9.000000E+99

> <Gold.Chemscore.Hbonds>
donor molecule, donor type, donor heavy atom, donor atom, acceptor molecule, acceptor atom, score
      L1  H     9    30       P1  7948  0.15
      P1  H  6896  6907       L1    20  0.62

> <Gold.Chemscore.Hbond.Weighted>
-5.0183

> <Gold.Chemscore.Metal.Weighted>
-0.0000

> <Gold.Chemscore.Lipo.Weighted>
-6.7298

> <Gold.Chemscore.Internal_Hbond.Weighted>
0.0000

> <Gold.Chemscore.DEClash.Weighted>
1.5387

> <Gold.Chemscore.DEInternal.Weighted>
1.8376

> <Gold.Chemscore.Rot.Weighted>
5.6733

> <Gold.Chemscore.Internal.Correction.Weighted>
   9.000000E+99

> <Gold.Protein.RotatedTorsions>
[ 6907 6896 6895 6894 ] final -133.18 input  -60.11 | X-H torsion
[ 7974 7965 7964 7962 ] final   19.35 input  175.53 | X-H torsion
[ 8008 7997 7996 7995 ] final   48.71 input   59.86 | X-H torsion
[ 10167 10162 10161 10158 ] final  152.18 input  -65.29 | X-H torsion
[ 10718 10713 10712 10709 ] final   24.38 input   66.30 | X-H torsion
[ 10763 10752 10751 10750 ] final -140.09 input  -60.55 | X-H torsion
[ 11005 11000 10999 10996 ] final  -12.45 input  -57.11 | X-H torsion

> <Gold.Protein.ActiveResidues>
 VAL166  LYS551  ARG553  GLY616  TRP617  ASP618  TYR619  PRO620  LYS621  CYS622 
 ASP623  PHE694  ASN695  SER759  ASP760  ASP761  ALA762  ILE779  LEU786  VAL792 
 PHE793  MET794  SER795  GLU796  ALA797  LYS798  CYS799  TRP800  GLU811  SER814 

> <Gold.Protein.RotatedAtoms>
  150.9711  133.6343  159.2737 H   0  0  0  0  0  0  0  0  0  0  0  0  # atno 6907 bound_to 6896
  151.3632  135.0907  159.9451 H   0  0  0  0  0  0  0  0  0  0  0  0  # atno 6908 bound_to 6896
  152.5183  133.9280  159.7621 H   0  0  0  0  0  0  0  0  0  0  0  0  # atno 6909 bound_to 6896
  146.2152  139.8325  142.8657 H   0  0  0  0  0  0  0  0  0  0  0  0  # atno 7974 bound_to 7965
  155.3901  140.3433  155.4251 H   0  0  0  0  0  0  0  0  0  0  0  0  # atno 8008 bound_to 7997
  156.1562  140.1586  156.8721 H   0  0  0  0  0  0  0  0  0  0  0  0  # atno 8009 bound_to 7997
  154.5097  140.0793  156.7947 H   0  0  0  0  0  0  0  0  0  0  0  0  # atno 8010 bound_to 7997
  139.4835  144.5379  151.7613 H   0  0  0  0  0  0  0  0  0  0  0  0  # atno 10167 bound_to 10162
  157.1789  130.6794  149.6106 H   0  0  0  0  0  0  0  0  0  0  0  0  # atno 10718 bound_to 10713
  154.8589  135.3563  154.5651 H   0  0  0  0  0  0  0  0  0  0  0  0  # atno 10763 bound_to 10752
  153.6265  135.7004  153.5296 H   0  0  0  0  0  0  0  0  0  0  0  0  # atno 10764 bound_to 10752
  153.3085  135.4185  155.1275 H   0  0  0  0  0  0  0  0  0  0  0  0  # atno 10765 bound_to 10752
  140.7658  133.8478  155.9164 H   0  0  0  0  0  0  0  0  0  0  0  0  # atno 11005 bound_to 11000
  145.2982  141.0187  143.3624 LP  0  0  0  0  0  0  0  0  0  0  0  0  # atno 17320 bound_to 7965
  144.9025  139.4631  143.6625 LP  0  0  0  0  0  0  0  0  0  0  0  0  # atno 17321 bound_to 7965
  140.4915  144.1304  150.5951 LP  0  0  0  0  0  0  0  0  0  0  0  0  # atno 17342 bound_to 10162
  140.4166  143.2631  151.9767 LP  0  0  0  0  0  0  0  0  0  0  0  0  # atno 17343 bound_to 10162
  155.9727  130.4653  150.6250 LP  0  0  0  0  0  0  0  0  0  0  0  0  # atno 17370 bound_to 10713
  157.3971  131.0804  151.1342 LP  0  0  0  0  0  0  0  0  0  0  0  0  # atno 17371 bound_to 10713
  140.9620  134.1643  157.4646 LP  0  0  0  0  0  0  0  0  0  0  0  0  # atno 17394 bound_to 11000
  139.8763  134.9948  156.5712 LP  0  0  0  0  0  0  0  0  0  0  0  0  # atno 17395 bound_to 11000

$$$$
