AV-unprocessed.smi:2547|AV-procd|sdf|10002|dock7
  -GOLD-   2272014 53D 1   1.00000     0.00000
 Structure written by MMmdl.
 44 45  0  0  0  0  0  0  0  0  2 V2000
  143.8417  142.3351  155.4840 C   0  0  0  0  0  0  0  0  0  0  0  0
  145.0117  141.8068  154.7505 N   0  3  2  0  0  0  0  0  0  0  0  0
  145.8121  140.8621  155.5688 C   0  0  0  0  0  0  0  0  0  0  0  0
  146.9461  140.2314  154.7397 C   0  0  0  0  0  0  0  0  0  0  0  0
  147.8457  141.2957  154.0860 C   0  0  2  0  0  0  0  0  0  0  0  0
  148.6715  141.9584  155.0953 N   0  0  0  0  0  0  0  0  0  0  0  0
  149.4725  141.3341  155.9714 C   0  0  0  0  0  0  0  0  0  0  0  0
  149.6086  140.1109  156.0110 O   0  0  0  0  0  0  0  0  0  0  0  0
  150.0922  142.2143  156.7776 N   0  0  0  0  0  0  0  0  0  0  0  0
  151.0156  141.9448  157.8226 C   0  0  0  0  0  0  0  0  0  0  0  0
  151.6978  140.7145  157.7202 C   0  0  0  0  0  0  0  0  0  0  0  0
  152.6315  140.3636  158.7115 C   0  0  0  0  0  0  0  0  0  0  0  0
  152.8600  141.2506  159.7785 C   0  0  0  0  0  0  0  0  0  0  0  0
  152.1423  142.4700  159.8213 C   0  0  0  0  0  0  0  0  0  0  0  0
  152.3274  143.4020  160.8678 N   0  0  0  0  0  0  0  0  0  0  0  0
  152.8591  142.9533  162.1511 C   0  0  0  0  0  0  0  0  0  0  0  0
  151.8790  144.7796  160.7091 C   0  0  0  0  0  0  0  0  0  0  0  0
  151.2455  142.7893  158.8567 N   0  0  0  0  0  0  0  0  0  0  0  0
  146.9782  142.3019  153.3020 C   0  0  0  0  0  0  0  0  0  0  0  0
  145.8476  142.8856  154.1678 C   0  0  0  0  0  0  0  0  0  0  0  0
  144.1541  142.9275  156.3452 H   0  0  0  0  0  0  0  0  0  0  0  0
  143.2100  141.5205  155.8395 H   0  0  0  0  0  0  0  0  0  0  0  0
  143.2338  142.9672  154.8357 H   0  0  0  0  0  0  0  0  0  0  0  0
  146.2205  141.3846  156.4351 H   0  0  0  0  0  0  0  0  0  0  0  0
  145.1640  140.0735  155.9531 H   0  0  0  0  0  0  0  0  0  0  0  0
  147.5412  139.5633  155.3635 H   0  0  0  0  0  0  0  0  0  0  0  0
  146.5093  139.6062  153.9595 H   0  0  0  0  0  0  0  0  0  0  0  0
  148.5138  140.7884  153.3873 H   0  0  0  0  0  0  0  0  0  0  0  0
  148.6180  142.9655  155.1394 H   0  0  0  0  0  0  0  0  0  0  0  0
  149.8803  143.1894  156.6285 H   0  0  0  0  0  0  0  0  0  0  0  0
  151.5114  140.0436  156.8943 H   0  0  0  0  0  0  0  0  0  0  0  0
  153.1655  139.4266  158.6544 H   0  0  0  0  0  0  0  0  0  0  0  0
  153.5761  140.9785  160.5389 H   0  0  0  0  0  0  0  0  0  0  0  0
  152.1850  142.2316  162.6132 H   0  0  0  0  0  0  0  0  0  0  0  0
  152.9844  143.7857  162.8434 H   0  0  0  0  0  0  0  0  0  0  0  0
  153.8338  142.4819  162.0201 H   0  0  0  0  0  0  0  0  0  0  0  0
  150.8111  144.8132  160.4914 H   0  0  0  0  0  0  0  0  0  0  0  0
  152.4178  145.2670  159.8960 H   0  0  0  0  0  0  0  0  0  0  0  0
  152.0515  145.3599  161.6157 H   0  0  0  0  0  0  0  0  0  0  0  0
  147.5918  143.1066  152.8953 H   0  0  0  0  0  0  0  0  0  0  0  0
  146.5396  141.7970  152.4403 H   0  0  0  0  0  0  0  0  0  0  0  0
  145.2247  143.5392  153.5559 H   0  0  0  0  0  0  0  0  0  0  0  0
  146.2617  143.5023  154.9672 H   0  0  0  0  0  0  0  0  0  0  0  0
  144.6455  141.2758  153.9732 H   0  0  0  0  0  0  0  0  0  0  0  0
  1  2  1  0  0  0  0
  1 21  1  0  0  0  0
  1 22  1  0  0  0  0
  1 23  1  0  0  0  0
  2 20  1  0  0  0  0
  2  3  1  0  0  0  0
  2 44  1  0  0  0  0
  3  4  1  0  0  0  0
  3 24  1  0  0  0  0
  3 25  1  0  0  0  0
  4  5  1  0  0  0  0
  4 26  1  0  0  0  0
  4 27  1  0  0  0  0
  5  6  1  0  0  0  0
  5 19  1  0  0  0  0
  5 28  1  0  0  0  0
  6  7  1  0  0  0  0
  6 29  1  0  0  0  0
  7  8  2  0  0  0  0
  7  9  1  0  0  0  0
  9 10  1  0  0  0  0
  9 30  1  0  0  0  0
 10 18  1  0  0  0  0
 10 11  2  0  0  0  0
 11 12  1  0  0  0  0
 11 31  1  0  0  0  0
 12 13  2  0  0  0  0
 12 32  1  0  0  0  0
 13 14  1  0  0  0  0
 13 33  1  0  0  0  0
 14 15  1  0  0  0  0
 14 18  2  0  0  0  0
 15 16  1  0  0  0  0
 15 17  1  0  0  0  0
 16 34  1  0  0  0  0
 16 35  1  0  0  0  0
 16 36  1  0  0  0  0
 17 37  1  0  0  0  0
 17 38  1  0  0  0  0
 17 39  1  0  0  0  0
 19 20  1  0  0  0  0
 19 40  1  0  0  0  0
 19 41  1  0  0  0  0
 20 42  1  0  0  0  0
 20 43  1  0  0  0  0
M  CHG  1   2   1
M  END
> <s_m_source_file>
AV-unprocessed.smi

> <i_m_source_file_index>
2547

> <i_lp_mmshare_version>
43012

> <i_f3d_flags>
0

> <s_epik_input>
W0NIM11OMVtDSDJdW0NIMl1bQ0hdKFtDSDJdW0NIMl0xKVtOSF1DKD1PKVtOSF1jMltjSF1bY0hdW2NIXWMobjIpTihbQ0gzXSlbQ0gzXQ==

> <s_epik_cmdline>
J2VwaWtfcHl0aG9uJywgJy1waCcsICc3LjAnLCAnLXRuJywgJzgnLCAnLW1hJywgJzIwMCcsICctbWV0YWxfYmluZGluZycsICctaW1hZScsICc8aW5maWxlLm1hZT4nLCAnLW9tYWUnLCAnPG91dGZpbGUubWFlPic=

> <r_lp_tautomer_probability>
1

> <r_epik_Ionization_Penalty>
0.0212039

> <r_epik_Ionization_Penalty_Charging>
0.00366825

> <r_epik_Ionization_Penalty_Neutral>
0.0175357

> <r_epik_State_Penalty>
0.0137702

> <r_epik_Charging_Adjusted_Penalty>
0.0174385

> <i_epik_Tot_Q>
1

> <i_epik_Tot_abs_Q>
1

> <r_epik_Metal_State_Penalty>
0.0148742

> <b_epik_Metal_Only>
0

> <s_lp_Force_Field>
OPLS_2005

> <r_lp_Energy>
18.1173

> <b_lp_Chiralities_Consistent>
1

> <s_lp_Variant>
AV-unprocessed.smi:2547-2

> <Gold.Version>
5.8.1

> <Gold.Id.Protein>
6NUR|6NUR_protein|mol2

> <Gold.PLP.Fitness>
51.1692

> <Gold.PLP.PLP>
-39.7962

> <Gold.PLP.part.hbond>
-3.0000

> <Gold.PLP.part.metal>
0.0000

> <Gold.PLP.part.buried>
-7.9500

> <Gold.PLP.part.nonpolar>
-29.9135

> <Gold.PLP.part.repulsive>
0.2784

> <Gold.PLP.ligand.clash>
0.0000

> <Gold.PLP.ligand.torsion>
0.3191

> <Gold.PLP.Chemscore.Hbond>
4.0000

> <Gold.PLP.Chemscore.CHOScore>
0.0000

> <Gold.PLP.Chemscore.Metal>
0.0000

> <Gold.Chemscore.Hbonds>
donor molecule, donor type, donor heavy atom, donor atom, acceptor molecule, acceptor atom, score
      L1  H     2    44       P1 10175  2.00
      L1  H     6    29       P1  8028  1.00
      L1  H     9    30       P1  8028  0.91

> <Gold.PLP.Chemscore.Internal.Correction>
0.0112

> <Gold.Rescore>
     Score         DG    S(hbond)    S(metal)    S(lipo)     H(rot)  DE(clash)    DE(int)     intcor
     17.22     -21.47       2.91        0.00      75.58       1.00       1.19       3.06       ----

> <Gold.Chemscore.Fitness>
17.2181

> <Gold.Chemscore.DG>
-21.4701

> <Gold.Chemscore.ZeroCoef>
-5.4800

> <Gold.Chemscore.Hbond>
2.9062

> <Gold.Chemscore.Metal>
0.0000

> <Gold.Chemscore.Lipo>
75.5836

> <Gold.Chemscore.Internal_Hbond>
0.0000

> <Gold.Chemscore.DEClash>
1.1927

> <Gold.Chemscore.DEInternal>
3.0593

> <Gold.Chemscore.Rot>
1.0000

> <Gold.Chemscore.Internal.Correction>
   9.000000E+99

> <Gold.Chemscore.Hbonds>
donor molecule, donor type, donor heavy atom, donor atom, acceptor molecule, acceptor atom, score
      L1  H     2    44       P1 10175  0.50
      L1  H     6    29       P1  8028  1.00
      L1  H     9    30       P1  8028  0.86

> <Gold.Chemscore.Hbond.Weighted>
-9.7068

> <Gold.Chemscore.Metal.Weighted>
-0.0000

> <Gold.Chemscore.Lipo.Weighted>
-8.8433

> <Gold.Chemscore.Internal_Hbond.Weighted>
0.0000

> <Gold.Chemscore.DEClash.Weighted>
1.1927

> <Gold.Chemscore.DEInternal.Weighted>
3.0593

> <Gold.Chemscore.Rot.Weighted>
2.5600

> <Gold.Chemscore.Internal.Correction.Weighted>
   9.000000E+99

> <Gold.Protein.RotatedTorsions>
[ 6907 6896 6895 6894 ] final  122.14 input  -60.11 | X-H torsion
[ 7974 7965 7964 7962 ] final   98.21 input  175.53 | X-H torsion
[ 8008 7997 7996 7995 ] final  -41.31 input   59.86 | X-H torsion
[ 10167 10162 10161 10158 ] final  144.43 input  -65.29 | X-H torsion
[ 10718 10713 10712 10709 ] final  142.61 input   66.30 | X-H torsion
[ 10763 10752 10751 10750 ] final -106.69 input  -60.55 | X-H torsion
[ 11005 11000 10999 10996 ] final -114.71 input  -57.11 | X-H torsion

> <Gold.Protein.ActiveResidues>
 VAL166  LYS551  ARG553  GLY616  TRP617  ASP618  TYR619  PRO620  LYS621  CYS622 
 ASP623  PHE694  ASN695  SER759  ASP760  ASP761  ALA762  ILE779  LEU786  VAL792 
 PHE793  MET794  SER795  GLU796  ALA797  LYS798  CYS799  TRP800  GLU811  SER814 

> <Gold.Protein.RotatedAtoms>
  152.4266  133.7206  159.6530 H   0  0  0  0  0  0  0  0  0  0  0  0  # atno 6907 bound_to 6896
  150.8143  133.8354  159.3173 H   0  0  0  0  0  0  0  0  0  0  0  0  # atno 6908 bound_to 6896
  151.6055  135.1046  160.0121 H   0  0  0  0  0  0  0  0  0  0  0  0  # atno 6909 bound_to 6896
  145.4152  139.2328  143.3226 H   0  0  0  0  0  0  0  0  0  0  0  0  # atno 7974 bound_to 7965
  154.4005  140.1502  156.3170 H   0  0  0  0  0  0  0  0  0  0  0  0  # atno 8008 bound_to 7997
  155.8564  140.3455  155.5705 H   0  0  0  0  0  0  0  0  0  0  0  0  # atno 8009 bound_to 7997
  155.7928  140.0859  157.1990 H   0  0  0  0  0  0  0  0  0  0  0  0  # atno 8010 bound_to 7997
  139.4947  144.5972  151.6557 H   0  0  0  0  0  0  0  0  0  0  0  0  # atno 10167 bound_to 10162
  157.3786  131.0989  151.0760 H   0  0  0  0  0  0  0  0  0  0  0  0  # atno 10718 bound_to 10713
  154.8028  135.4702  154.0319 H   0  0  0  0  0  0  0  0  0  0  0  0  # atno 10763 bound_to 10752
  153.1811  135.6840  153.8484 H   0  0  0  0  0  0  0  0  0  0  0  0  # atno 10764 bound_to 10752
  153.8034  135.3227  155.3370 H   0  0  0  0  0  0  0  0  0  0  0  0  # atno 10765 bound_to 10752
  141.0534  133.9650  157.2796 H   0  0  0  0  0  0  0  0  0  0  0  0  # atno 11005 bound_to 11000
  146.2685  140.4869  142.8824 LP  0  0  0  0  0  0  0  0  0  0  0  0  # atno 17320 bound_to 7965
  144.8282  140.6664  143.6308 LP  0  0  0  0  0  0  0  0  0  0  0  0  # atno 17321 bound_to 7965
  140.5613  144.0263  150.6171 LP  0  0  0  0  0  0  0  0  0  0  0  0  # atno 17342 bound_to 10162
  140.3350  143.3054  152.0647 LP  0  0  0  0  0  0  0  0  0  0  0  0  # atno 17343 bound_to 10162
  157.1837  130.6321  149.5680 LP  0  0  0  0  0  0  0  0  0  0  0  0  # atno 17370 bound_to 10713
  155.9771  130.4745  150.6569 LP  0  0  0  0  0  0  0  0  0  0  0  0  # atno 17371 bound_to 10713
  139.9370  135.0195  156.8586 LP  0  0  0  0  0  0  0  0  0  0  0  0  # atno 17394 bound_to 11000
  140.6010  134.0171  155.7537 LP  0  0  0  0  0  0  0  0  0  0  0  0  # atno 17395 bound_to 11000

$$$$
