AV-unprocessed.smi:1760|AV-procd|sdf|7091|dock9
  -GOLD-   22720 8313D 1   1.00000     0.00000
 Structure written by MMmdl.
 43 45  0  0  0  0  0  0  0  0  1 V2000
  149.2888  139.1676  159.2047 O   0  0  0  0  0  0  0  0  0  0  0  0
  149.7927  138.4420  158.3479 C   0  0  0  0  0  0  0  0  0  0  0  0
  149.3800  137.2021  158.0253 N   0  0  0  0  0  0  0  0  0  0  0  0
  148.3042  136.4591  158.5405 C   0  0  0  0  0  0  0  0  0  0  0  0
  147.6637  136.7247  159.7092 C   0  0  0  0  0  0  0  0  0  0  0  0
  146.5502  135.9178  160.1795 C   0  0  0  0  0  0  0  0  0  0  0  0
  145.8929  136.1762  161.5265 C   0  0  0  0  0  0  0  0  0  0  0  0
  144.6223  136.5544  161.3807 F   0  0  0  0  0  0  0  0  0  0  0  0
  145.9194  135.0834  162.2894 F   0  0  0  0  0  0  0  0  0  0  0  0
  146.5432  137.1459  162.1680 F   0  0  0  0  0  0  0  0  0  0  0  0
  146.1885  134.8816  159.4006 C   0  0  0  0  0  0  0  0  0  0  0  0
  146.8262  134.6157  158.1870 N   0  0  0  0  0  0  0  0  0  0  0  0
  147.8599  135.3364  157.6976 C   0  0  0  0  0  0  0  0  0  0  0  0
  148.3669  135.0392  156.6164 O   0  0  0  0  0  0  0  0  0  0  0  0
  150.8625  138.7911  157.6187 N   0  0  0  0  0  0  0  0  0  0  0  0
  151.5961  140.0500  157.7234 C   0  0  0  0  0  0  0  0  0  0  0  0
  151.9726  140.3248  159.1876 C   0  0  0  0  0  0  0  0  0  0  0  0
  152.6081  141.7180  159.3398 C   0  0  0  0  0  0  0  0  0  0  0  0
  151.6848  142.7487  158.8642 N   0  0  0  0  0  0  0  0  0  0  0  0
  152.2930  144.0541  159.0620 C   0  0  0  0  0  0  0  0  0  0  0  0
  151.5616  145.0405  159.9434 C   0  0  0  0  0  0  0  0  0  0  0  0
  151.5974  145.2476  158.4486 C   0  0  0  0  0  0  0  0  0  0  0  0
  151.4226  142.5621  157.4368 C   0  0  0  0  0  0  0  0  0  0  0  0
  150.7340  141.2073  157.1956 C   0  0  0  0  0  0  0  0  0  0  0  0
  146.4832  133.8320  157.6501 H   0  0  0  0  0  0  0  0  0  0  0  0
  149.9405  136.7081  157.3459 H   0  0  0  0  0  0  0  0  0  0  0  0
  147.9505  137.5631  160.3225 H   0  0  0  0  0  0  0  0  0  0  0  0
  145.3995  134.1850  159.6424 H   0  0  0  0  0  0  0  0  0  0  0  0
  151.2078  138.1259  156.9426 H   0  0  0  0  0  0  0  0  0  0  0  0
  152.5150  140.0130  157.1352 H   0  0  0  0  0  0  0  0  0  0  0  0
  151.0866  140.2609  159.8214 H   0  0  0  0  0  0  0  0  0  0  0  0
  152.6651  139.5620  159.5450 H   0  0  0  0  0  0  0  0  0  0  0  0
  152.8436  141.8967  160.3897 H   0  0  0  0  0  0  0  0  0  0  0  0
  153.5479  141.7689  158.7873 H   0  0  0  0  0  0  0  0  0  0  0  0
  153.3794  144.1194  159.0991 H   0  0  0  0  0  0  0  0  0  0  0  0
  150.6166  144.7281  160.3840 H   0  0  0  0  0  0  0  0  0  0  0  0
  152.1648  145.7053  160.5583 H   0  0  0  0  0  0  0  0  0  0  0  0
  152.2238  146.0509  158.0665 H   0  0  0  0  0  0  0  0  0  0  0  0
  150.6753  145.0733  157.8969 H   0  0  0  0  0  0  0  0  0  0  0  0
  150.7788  143.3657  157.0768 H   0  0  0  0  0  0  0  0  0  0  0  0
  152.3540  142.6196  156.8711 H   0  0  0  0  0  0  0  0  0  0  0  0
  150.5430  141.0749  156.1302 H   0  0  0  0  0  0  0  0  0  0  0  0
  149.7601  141.2046  157.6879 H   0  0  0  0  0  0  0  0  0  0  0  0
  1  2  2  0  0  0  0
  2  3  1  0  0  0  0
  2 15  1  0  0  0  0
  3  4  1  0  0  0  0
  3 26  1  0  0  0  0
  4 13  1  0  0  0  0
  4  5  2  0  0  0  0
  5  6  1  0  0  0  0
  5 27  1  0  0  0  0
  6  7  1  0  0  0  0
  6 11  2  0  0  0  0
  7  8  1  0  0  0  0
  7  9  1  0  0  0  0
  7 10  1  0  0  0  0
 11 12  1  0  0  0  0
 11 28  1  0  0  0  0
 12 25  1  0  0  0  0
 12 13  1  0  0  0  0
 13 14  2  0  0  0  0
 15 16  1  0  0  0  0
 15 29  1  0  0  0  0
 16 24  1  0  0  0  0
 16 17  1  0  0  0  0
 16 30  1  0  0  0  0
 17 18  1  0  0  0  0
 17 31  1  0  0  0  0
 17 32  1  0  0  0  0
 18 19  1  0  0  0  0
 18 33  1  0  0  0  0
 18 34  1  0  0  0  0
 19 20  1  0  0  0  0
 19 23  1  0  0  0  0
 20 22  1  0  0  0  0
 20 21  1  0  0  0  0
 20 35  1  0  0  0  0
 21 22  1  0  0  0  0
 21 36  1  0  0  0  0
 21 37  1  0  0  0  0
 22 38  1  0  0  0  0
 22 39  1  0  0  0  0
 23 24  1  0  0  0  0
 23 40  1  0  0  0  0
 23 41  1  0  0  0  0
 24 42  1  0  0  0  0
 24 43  1  0  0  0  0
M  END
> <s_m_source_file>
AV-unprocessed.smi

> <i_m_source_file_index>
1760

> <i_lp_mmshare_version>
43012

> <i_f3d_flags>
0

> <s_epik_input>
W0NIMl0xW0NIMl1bQ0hdMU4oW0NIMl1bQ0gyXTIpW0NIMl1bQ0gyXVtDSF0yW05IXUMoPU8pW05IXWMzW2NIXWMoQyhGKShGKUYpW2NIXVtuSF1jMz1P

> <s_epik_cmdline>
J2VwaWtfcHl0aG9uJywgJy1waCcsICc3LjAnLCAnLXRuJywgJzgnLCAnLW1hJywgJzIwMCcsICctbWV0YWxfYmluZGluZycsICctaW1hZScsICc8aW5maWxlLm1hZT4nLCAnLW9tYWUnLCAnPG91dGZpbGUubWFlPic=

> <r_lp_tautomer_probability>
0.999

> <r_epik_Ionization_Penalty>
0.980325

> <r_epik_Ionization_Penalty_Charging>
0.0037226

> <r_epik_Ionization_Penalty_Neutral>
0.976602

> <r_epik_State_Penalty>
1.02305

> <r_epik_Charging_Adjusted_Penalty>
1.02677

> <i_epik_Tot_Q>
0

> <i_epik_Tot_abs_Q>
0

> <r_epik_Metal_State_Penalty>
1.39928

> <b_epik_Metal_Only>
0

> <s_lp_Force_Field>
OPLS_2005

> <r_lp_Energy>
33.0511

> <b_lp_Chiralities_Consistent>
1

> <s_lp_Variant>
AV-unprocessed.smi:1760-3

> <Gold.Version>
5.8.1

> <Gold.Id.Protein>
6NUR|6NUR_protein|mol2

> <Gold.PLP.Fitness>
41.3269

> <Gold.PLP.PLP>
-42.8077

> <Gold.PLP.part.hbond>
-1.9081

> <Gold.PLP.part.metal>
0.0000

> <Gold.PLP.part.buried>
-3.5858

> <Gold.PLP.part.nonpolar>
-37.9375

> <Gold.PLP.part.repulsive>
0.1457

> <Gold.PLP.ligand.clash>
0.5552

> <Gold.PLP.ligand.torsion>
1.0618

> <Gold.PLP.Chemscore.Hbond>
0.0000

> <Gold.PLP.Chemscore.CHOScore>
0.0000

> <Gold.PLP.Chemscore.Metal>
0.0000

> <Gold.PLP.Chemscore.Internal.Correction>
1.1980

> <Gold.Rescore>
     Score         DG    S(hbond)    S(metal)    S(lipo)     H(rot)  DE(clash)    DE(int)     intcor
     10.00     -13.57       0.00        0.00      97.02       1.27       0.09       3.49       ----

> <Gold.Chemscore.Fitness>
9.9992

> <Gold.Chemscore.DG>
-13.5716

> <Gold.Chemscore.ZeroCoef>
-5.4800

> <Gold.Chemscore.Hbond>
0.0000

> <Gold.Chemscore.Metal>
0.0000

> <Gold.Chemscore.Lipo>
97.0209

> <Gold.Chemscore.Internal_Hbond>
0.0000

> <Gold.Chemscore.DEClash>
0.0854

> <Gold.Chemscore.DEInternal>
3.4870

> <Gold.Chemscore.Rot>
1.2734

> <Gold.Chemscore.Internal.Correction>
   9.000000E+99

> <Gold.Chemscore.Hbond.Weighted>
-0.0000

> <Gold.Chemscore.Metal.Weighted>
-0.0000

> <Gold.Chemscore.Lipo.Weighted>
-11.3514

> <Gold.Chemscore.Internal_Hbond.Weighted>
0.0000

> <Gold.Chemscore.DEClash.Weighted>
0.0854

> <Gold.Chemscore.DEInternal.Weighted>
3.4870

> <Gold.Chemscore.Rot.Weighted>
3.2598

> <Gold.Chemscore.Internal.Correction.Weighted>
   9.000000E+99

> <Gold.Protein.RotatedTorsions>
[ 6907 6896 6895 6894 ] final  -50.86 input  -60.11 | X-H torsion
[ 7974 7965 7964 7962 ] final  118.99 input  175.53 | X-H torsion
[ 8008 7997 7996 7995 ] final   94.64 input   59.86 | X-H torsion
[ 10167 10162 10161 10158 ] final   43.63 input  -65.29 | X-H torsion
[ 10718 10713 10712 10709 ] final  -10.23 input   66.30 | X-H torsion
[ 10763 10752 10751 10750 ] final  -87.59 input  -60.55 | X-H torsion
[ 11005 11000 10999 10996 ] final  -60.80 input  -57.11 | X-H torsion

> <Gold.Protein.ActiveResidues>
 VAL166  LYS551  ARG553  GLY616  TRP617  ASP618  TYR619  PRO620  LYS621  CYS622 
 ASP623  PHE694  ASN695  SER759  ASP760  ASP761  ALA762  ILE779  LEU786  VAL792 
 PHE793  MET794  SER795  GLU796  ALA797  LYS798  CYS799  TRP800  GLU811  SER814 

> <Gold.Protein.RotatedAtoms>
  150.8666  134.8031  159.7122 H   0  0  0  0  0  0  0  0  0  0  0  0  # atno 6907 bound_to 6896
  152.4685  134.5014  159.9735 H   0  0  0  0  0  0  0  0  0  0  0  0  # atno 6908 bound_to 6896
  151.5109  133.3447  159.2920 H   0  0  0  0  0  0  0  0  0  0  0  0  # atno 6909 bound_to 6896
  145.1485  139.3225  143.4579 H   0  0  0  0  0  0  0  0  0  0  0  0  # atno 7974 bound_to 7965
  156.0601  140.3297  155.7452 H   0  0  0  0  0  0  0  0  0  0  0  0  # atno 8008 bound_to 7997
  155.5467  140.0606  157.2876 H   0  0  0  0  0  0  0  0  0  0  0  0  # atno 8009 bound_to 7997
  154.4477  140.1901  156.0634 H   0  0  0  0  0  0  0  0  0  0  0  0  # atno 8010 bound_to 7997
  140.3425  144.2453  150.6154 H   0  0  0  0  0  0  0  0  0  0  0  0  # atno 10167 bound_to 10162
  156.6765  130.5024  149.5984 H   0  0  0  0  0  0  0  0  0  0  0  0  # atno 10718 bound_to 10713
  154.6353  135.5407  153.7727 H   0  0  0  0  0  0  0  0  0  0  0  0  # atno 10763 bound_to 10752
  153.0305  135.6446  154.1240 H   0  0  0  0  0  0  0  0  0  0  0  0  # atno 10764 bound_to 10752
  154.1168  135.2923  155.3198 H   0  0  0  0  0  0  0  0  0  0  0  0  # atno 10765 bound_to 10752
  141.1301  133.6625  156.5278 H   0  0  0  0  0  0  0  0  0  0  0  0  # atno 11005 bound_to 11000
  146.3497  140.1550  142.8591 LP  0  0  0  0  0  0  0  0  0  0  0  0  # atno 17320 bound_to 7965
  145.0456  140.8979  143.5026 LP  0  0  0  0  0  0  0  0  0  0  0  0  # atno 17321 bound_to 7965
  140.5296  143.2246  151.8260 LP  0  0  0  0  0  0  0  0  0  0  0  0  # atno 17342 bound_to 10162
  139.4838  144.4737  151.9393 LP  0  0  0  0  0  0  0  0  0  0  0  0  # atno 17343 bound_to 10162
  156.1899  130.6553  151.1049 LP  0  0  0  0  0  0  0  0  0  0  0  0  # atno 17370 bound_to 10713
  157.7059  131.0756  150.6669 LP  0  0  0  0  0  0  0  0  0  0  0  0  # atno 17371 bound_to 10713
  140.4240  134.7162  157.4905 LP  0  0  0  0  0  0  0  0  0  0  0  0  # atno 17394 bound_to 11000
  140.0340  134.6364  155.9068 LP  0  0  0  0  0  0  0  0  0  0  0  0  # atno 17395 bound_to 11000

$$$$
