AV-unprocessed.smi:2302|AV-procd|sdf|9240|dock6
  -GOLD-   2272012453D 1   1.00000     0.00000
 Structure written by MMmdl.
 39 40  0  0  0  0  0  0  0  0  1 V2000
  146.2699  131.5473  148.8813 C   0  0  0  0  0  0  0  0  0  0  0  0
  145.5164  132.4043  149.8769 C   0  0  0  0  0  0  0  0  0  0  0  0
  144.1916  132.0968  150.2440 C   0  0  0  0  0  0  0  0  0  0  0  0
  143.5528  132.9301  151.1794 C   0  0  0  0  0  0  0  0  0  0  0  0
  144.2595  134.0290  151.7050 C   0  0  0  0  0  0  0  0  0  0  0  0
  145.5864  134.2692  151.2824 C   0  0  0  0  0  0  0  0  0  0  0  0
  146.2114  135.3997  151.8727 N   0  0  0  0  0  0  0  0  0  0  0  0
  145.6293  136.4472  152.4827 C   0  0  0  0  0  0  0  0  0  0  0  0
  144.4183  136.5863  152.6589 O   0  0  0  0  0  0  0  0  0  0  0  0
  146.5436  137.3422  152.8838 N   0  0  0  0  0  0  0  0  0  0  0  0
  146.2473  138.6108  153.5413 C   0  0  0  0  0  0  0  0  0  0  0  0
  147.4558  139.5616  153.5049 C   0  0  2  0  0  0  0  0  0  0  0  0
  148.6957  138.9416  154.1799 C   0  0  0  0  0  0  0  0  0  0  0  0
  149.8210  139.8677  154.2015 N   0  0  0  0  0  0  0  0  0  0  0  0
  150.9904  139.2786  154.8360 C   0  0  0  0  0  0  0  0  0  0  0  0
  149.4223  141.1061  154.8569 C   0  0  0  0  0  0  0  0  0  0  0  0
  148.1772  141.7220  154.1973 C   0  0  0  0  0  0  0  0  0  0  0  0
  147.1222  140.7660  154.1933 O   0  0  0  0  0  0  0  0  0  0  0  0
  146.1934  133.4591  150.3793 N   0  0  0  0  0  0  0  0  0  0  0  0
  145.6480  130.7334  148.5078 H   0  0  0  0  0  0  0  0  0  0  0  0
  147.1534  131.1128  149.3496 H   0  0  0  0  0  0  0  0  0  0  0  0
  146.5921  132.1480  148.0304 H   0  0  0  0  0  0  0  0  0  0  0  0
  143.6776  131.2450  149.8233 H   0  0  0  0  0  0  0  0  0  0  0  0
  142.5380  132.7300  151.4901 H   0  0  0  0  0  0  0  0  0  0  0  0
  143.7835  134.6780  152.4257 H   0  0  0  0  0  0  0  0  0  0  0  0
  147.2183  135.4206  151.8105 H   0  0  0  0  0  0  0  0  0  0  0  0
  147.5160  137.1436  152.7000 H   0  0  0  0  0  0  0  0  0  0  0  0
  145.3689  139.0858  153.1011 H   0  0  0  0  0  0  0  0  0  0  0  0
  145.9888  138.3876  154.5767 H   0  0  0  0  0  0  0  0  0  0  0  0
  147.6925  139.7977  152.4655 H   0  0  0  0  0  0  0  0  0  0  0  0
  148.4433  138.6436  155.1990 H   0  0  0  0  0  0  0  0  0  0  0  0
  148.9802  138.0314  153.6507 H   0  0  0  0  0  0  0  0  0  0  0  0
  151.8328  139.9705  154.8097 H   0  0  0  0  0  0  0  0  0  0  0  0
  151.2931  138.3677  154.3186 H   0  0  0  0  0  0  0  0  0  0  0  0
  150.7893  139.0273  155.8784 H   0  0  0  0  0  0  0  0  0  0  0  0
  149.2129  140.9158  155.9109 H   0  0  0  0  0  0  0  0  0  0  0  0
  150.2433  141.8233  154.8259 H   0  0  0  0  0  0  0  0  0  0  0  0
  147.8545  142.6065  154.7463 H   0  0  0  0  0  0  0  0  0  0  0  0
  148.3948  142.0388  153.1761 H   0  0  0  0  0  0  0  0  0  0  0  0
  1  2  1  0  0  0  0
  1 20  1  0  0  0  0
  1 21  1  0  0  0  0
  1 22  1  0  0  0  0
  2 19  1  0  0  0  0
  2  3  2  0  0  0  0
  3  4  1  0  0  0  0
  3 23  1  0  0  0  0
  4  5  2  0  0  0  0
  4 24  1  0  0  0  0
  5  6  1  0  0  0  0
  5 25  1  0  0  0  0
  6  7  1  0  0  0  0
  6 19  2  0  0  0  0
  7  8  1  0  0  0  0
  7 26  1  0  0  0  0
  8  9  2  0  0  0  0
  8 10  1  0  0  0  0
 10 11  1  0  0  0  0
 10 27  1  0  0  0  0
 11 12  1  0  0  0  0
 11 28  1  0  0  0  0
 11 29  1  0  0  0  0
 12 18  1  0  0  0  0
 12 13  1  0  0  0  0
 12 30  1  0  0  0  0
 13 14  1  0  0  0  0
 13 31  1  0  0  0  0
 13 32  1  0  0  0  0
 14 15  1  0  0  0  0
 14 16  1  0  0  0  0
 15 33  1  0  0  0  0
 15 34  1  0  0  0  0
 15 35  1  0  0  0  0
 16 17  1  0  0  0  0
 16 36  1  0  0  0  0
 16 37  1  0  0  0  0
 17 18  1  0  0  0  0
 17 38  1  0  0  0  0
 17 39  1  0  0  0  0
M  END
> <s_m_source_file>
AV-unprocessed.smi

> <i_m_source_file_index>
2302

> <i_lp_mmshare_version>
43012

> <i_f3d_flags>
0

> <s_epik_input>
W0NIM11jMVtjSF1bY0hdW2NIXWMobjEpW05IXUMoPU8pW05IXVtDSDJdW0NAQEhdMltDSDJdTihbQ0gzXSlbQ0gyXVtDSDJdTzI=

> <s_epik_cmdline>
J2VwaWtfcHl0aG9uJywgJy1waCcsICc3LjAnLCAnLXRuJywgJzgnLCAnLW1hJywgJzIwMCcsICctbWV0YWxfYmluZGluZycsICctaW1hZScsICc8aW5maWxlLm1hZT4nLCAnLW9tYWUnLCAnPG91dGZpbGUubWFlPic=

> <r_epik_Ionization_Penalty>
0.729465

> <r_epik_Ionization_Penalty_Charging>
0

> <r_epik_Ionization_Penalty_Neutral>
0.729465

> <r_epik_State_Penalty>
0.754525

> <r_epik_Charging_Adjusted_Penalty>
0.754525

> <i_epik_Tot_Q>
0

> <i_epik_Tot_abs_Q>
0

> <r_epik_Metal_State_Penalty>
0.754521

> <b_epik_Metal_Only>
0

> <s_lp_Force_Field>
OPLS_2005

> <r_lp_Energy>
19.6921

> <b_lp_Chiralities_Consistent>
1

> <s_lp_Variant>
AV-unprocessed.smi:2302-5

> <Gold.Version>
5.8.1

> <Gold.Id.Protein>
6NUR|6NUR_protein|mol2

> <Gold.PLP.Fitness>
40.1939

> <Gold.PLP.PLP>
-35.1518

> <Gold.PLP.part.hbond>
-3.0000

> <Gold.PLP.part.metal>
0.0000

> <Gold.PLP.part.buried>
-2.1981

> <Gold.PLP.part.nonpolar>
-30.9953

> <Gold.PLP.part.repulsive>
2.3652

> <Gold.PLP.ligand.clash>
0.5807

> <Gold.PLP.ligand.torsion>
0.1887

> <Gold.PLP.Chemscore.Hbond>
2.0000

> <Gold.PLP.Chemscore.CHOScore>
0.0000

> <Gold.PLP.Chemscore.Metal>
0.0000

> <Gold.Chemscore.Hbonds>
donor molecule, donor type, donor heavy atom, donor atom, acceptor molecule, acceptor atom, score
      L1  H     7    26       P1  7948  1.00
      L1  H    10    27       P1  7948  1.00

> <Gold.PLP.Chemscore.Internal.Correction>
0.0002

> <Gold.Rescore>
     Score         DG    S(hbond)    S(metal)    S(lipo)     H(rot)  DE(clash)    DE(int)     intcor
     16.95     -18.80       1.92        0.00      86.28       1.25       0.24       1.61       ----

> <Gold.Chemscore.Fitness>
16.9483

> <Gold.Chemscore.DG>
-18.7981

> <Gold.Chemscore.ZeroCoef>
-5.4800

> <Gold.Chemscore.Hbond>
1.9235

> <Gold.Chemscore.Metal>
0.0000

> <Gold.Chemscore.Lipo>
86.2833

> <Gold.Chemscore.Internal_Hbond>
0.0000

> <Gold.Chemscore.DEClash>
0.2354

> <Gold.Chemscore.DEInternal>
1.6143

> <Gold.Chemscore.Rot>
1.2506

> <Gold.Chemscore.Internal.Correction>
   9.000000E+99

> <Gold.Chemscore.Hbonds>
donor molecule, donor type, donor heavy atom, donor atom, acceptor molecule, acceptor atom, score
      L1  H     7    26       P1  7948  0.98
      L1  H    10    27       P1  7948  0.98

> <Gold.Chemscore.Hbond.Weighted>
-6.4244

> <Gold.Chemscore.Metal.Weighted>
-0.0000

> <Gold.Chemscore.Lipo.Weighted>
-10.0952

> <Gold.Chemscore.Internal_Hbond.Weighted>
0.0000

> <Gold.Chemscore.DEClash.Weighted>
0.2354

> <Gold.Chemscore.DEInternal.Weighted>
1.6143

> <Gold.Chemscore.Rot.Weighted>
3.2015

> <Gold.Chemscore.Internal.Correction.Weighted>
   9.000000E+99

> <Gold.Protein.RotatedTorsions>
[ 6907 6896 6895 6894 ] final  -95.86 input  -60.11 | X-H torsion
[ 7974 7965 7964 7962 ] final  177.79 input  175.53 | X-H torsion
[ 8008 7997 7996 7995 ] final   47.49 input   59.86 | X-H torsion
[ 10167 10162 10161 10158 ] final -134.54 input  -65.29 | X-H torsion
[ 10718 10713 10712 10709 ] final   24.99 input   66.30 | X-H torsion
[ 10763 10752 10751 10750 ] final -174.99 input  -60.55 | X-H torsion
[ 11005 11000 10999 10996 ] final  115.64 input  -57.11 | X-H torsion

> <Gold.Protein.ActiveResidues>
 VAL166  LYS551  ARG553  GLY616  TRP617  ASP618  TYR619  PRO620  LYS621  CYS622 
 ASP623  PHE694  ASN695  SER759  ASP760  ASP761  ALA762  ILE779  LEU786  VAL792 
 PHE793  MET794  SER795  GLU796  ALA797  LYS798  CYS799  TRP800  GLU811  SER814 

> <Gold.Protein.RotatedAtoms>
  150.6974  134.1593  159.4169 H   0  0  0  0  0  0  0  0  0  0  0  0  # atno 6907 bound_to 6896
  151.9573  135.0138  160.0555 H   0  0  0  0  0  0  0  0  0  0  0  0  # atno 6908 bound_to 6896
  152.1958  133.4770  159.5069 H   0  0  0  0  0  0  0  0  0  0  0  0  # atno 6909 bound_to 6896
  144.7164  140.0300  143.6439 H   0  0  0  0  0  0  0  0  0  0  0  0  # atno 7974 bound_to 7965
  155.3700  140.3423  155.4243 H   0  0  0  0  0  0  0  0  0  0  0  0  # atno 8008 bound_to 7997
  156.1668  140.1618  156.8552 H   0  0  0  0  0  0  0  0  0  0  0  0  # atno 8009 bound_to 7997
  154.5193  140.0771  156.8123 H   0  0  0  0  0  0  0  0  0  0  0  0  # atno 8010 bound_to 7997
  139.8870  143.6769  152.2618 H   0  0  0  0  0  0  0  0  0  0  0  0  # atno 10167 bound_to 10162
  157.1872  130.6830  149.6136 H   0  0  0  0  0  0  0  0  0  0  0  0  # atno 10718 bound_to 10713
  154.5898  135.2844  155.0647 H   0  0  0  0  0  0  0  0  0  0  0  0  # atno 10763 bound_to 10752
  154.1952  135.6434  153.5075 H   0  0  0  0  0  0  0  0  0  0  0  0  # atno 10764 bound_to 10752
  153.0117  135.5456  154.6579 H   0  0  0  0  0  0  0  0  0  0  0  0  # atno 10765 bound_to 10752
  139.9016  134.9587  156.7077 H   0  0  0  0  0  0  0  0  0  0  0  0  # atno 11005 bound_to 11000
  146.0110  139.3170  143.0870 LP  0  0  0  0  0  0  0  0  0  0  0  0  # atno 17320 bound_to 7965
  145.8682  140.9436  143.0664 LP  0  0  0  0  0  0  0  0  0  0  0  0  # atno 17321 bound_to 7965
  139.7144  144.7614  151.1058 LP  0  0  0  0  0  0  0  0  0  0  0  0  # atno 17342 bound_to 10162
  140.7734  143.5288  150.9448 LP  0  0  0  0  0  0  0  0  0  0  0  0  # atno 17343 bound_to 10162
  155.9716  130.4626  150.6154 LP  0  0  0  0  0  0  0  0  0  0  0  0  # atno 17370 bound_to 10713
  157.3895  131.0793  151.1406 LP  0  0  0  0  0  0  0  0  0  0  0  0  # atno 17371 bound_to 10713
  140.7100  133.9231  155.8078 LP  0  0  0  0  0  0  0  0  0  0  0  0  # atno 17394 bound_to 11000
  141.0307  134.0760  157.4017 LP  0  0  0  0  0  0  0  0  0  0  0  0  # atno 17395 bound_to 11000

$$$$
