AV-unprocessed.smi:3331|AV-procd|sdf|12817|dock1
  -GOLD-   2272019183D 1   1.00000     0.00000
 Structure written by MMmdl.
 47 48  0  0  0  0  0  0  0  0  2 V2000
  144.8351  134.0692  150.9169 C   0  0  0  0  0  0  0  0  0  0  0  0
  145.5937  135.0533  151.8182 C   0  0  2  0  0  0  0  0  0  0  0  0
  145.7188  134.5149  153.2620 C   0  0  0  0  0  0  0  0  0  0  0  0
  146.3527  135.5357  154.2340 C   0  0  1  0  0  0  0  0  0  0  0  0
  147.8800  135.6287  154.0660 C   0  0  0  0  0  0  0  0  0  0  0  0
  145.6493  136.9032  154.0904 C   0  0  0  0  0  0  0  0  0  0  0  0
  145.7054  137.3445  152.6888 N   0  0  0  0  0  0  0  0  0  0  0  0
  146.4416  138.3738  152.1970 C   0  0  0  0  0  0  0  0  0  0  0  0
  146.4295  138.6689  151.0003 O   0  0  0  0  0  0  0  0  0  0  0  0
  147.3266  139.2128  153.1408 C   0  0  2  0  0  0  0  0  0  0  0  0
  146.9252  140.6983  153.0760 C   0  0  0  0  0  0  0  0  0  0  0  0
  148.7559  139.0351  152.7966 N   0  3  0  0  0  0  0  0  0  0  0  0
  149.7136  139.2436  153.9038 C   0  0  0  0  0  0  0  0  0  0  0  0
  149.8323  140.7323  154.2663 C   0  0  0  0  0  0  0  0  0  0  0  0
  150.7899  140.9587  155.3345 N   0  0  0  0  0  0  0  0  0  0  0  0
  151.0776  142.1359  155.9929 C   0  0  0  0  0  0  0  0  0  0  0  0
  152.0338  141.8557  156.9264 C   0  0  0  0  0  0  0  0  0  0  0  0
  152.2716  140.4627  156.7606 C   0  0  0  0  0  0  0  0  0  0  0  0
  151.5237  139.9282  155.8085 N   0  0  0  0  0  0  0  0  0  0  0  0
  144.9298  136.4465  151.8220 C   0  0  0  0  0  0  0  0  0  0  0  0
  143.8137  133.9167  151.2669 H   0  0  0  0  0  0  0  0  0  0  0  0
  145.3286  133.0972  150.8948 H   0  0  0  0  0  0  0  0  0  0  0  0
  144.7840  134.4355  149.8911 H   0  0  0  0  0  0  0  0  0  0  0  0
  146.5984  135.1607  151.4066 H   0  0  0  0  0  0  0  0  0  0  0  0
  144.7218  134.2656  153.6283 H   0  0  0  0  0  0  0  0  0  0  0  0
  146.2828  133.5813  153.2720 H   0  0  0  0  0  0  0  0  0  0  0  0
  146.1733  135.1768  155.2482 H   0  0  0  0  0  0  0  0  0  0  0  0
  148.1628  135.9849  153.0755 H   0  0  0  0  0  0  0  0  0  0  0  0
  148.3481  134.6548  154.2105 H   0  0  0  0  0  0  0  0  0  0  0  0
  148.3124  136.3095  154.7992 H   0  0  0  0  0  0  0  0  0  0  0  0
  144.6015  136.8012  154.3781 H   0  0  0  0  0  0  0  0  0  0  0  0
  146.0559  137.6197  154.8011 H   0  0  0  0  0  0  0  0  0  0  0  0
  147.2135  138.8390  154.1569 H   0  0  0  0  0  0  0  0  0  0  0  0
  145.8641  140.8382  153.2849 H   0  0  0  0  0  0  0  0  0  0  0  0
  147.1233  141.1200  152.0897 H   0  0  0  0  0  0  0  0  0  0  0  0
  147.4736  141.2926  153.8066 H   0  0  0  0  0  0  0  0  0  0  0  0
  148.8698  138.0805  152.4845 H   0  0  0  0  0  0  0  0  0  0  0  0
  149.3824  138.6802  154.7761 H   0  0  0  0  0  0  0  0  0  0  0  0
  150.6950  138.8563  153.6261 H   0  0  0  0  0  0  0  0  0  0  0  0
  150.1205  141.3226  153.3948 H   0  0  0  0  0  0  0  0  0  0  0  0
  148.8635  141.1116  154.5933 H   0  0  0  0  0  0  0  0  0  0  0  0
  150.5827  143.0638  155.7466 H   0  0  0  0  0  0  0  0  0  0  0  0
  152.4946  142.5417  157.6218 H   0  0  0  0  0  0  0  0  0  0  0  0
  152.9591  139.8283  157.3007 H   0  0  0  0  0  0  0  0  0  0  0  0
  144.8427  136.8172  150.7997 H   0  0  0  0  0  0  0  0  0  0  0  0
  143.9069  136.3771  152.1948 H   0  0  0  0  0  0  0  0  0  0  0  0
  148.9894  139.6445  152.0257 H   0  0  0  0  0  0  0  0  0  0  0  0
  1  2  1  0  0  0  0
  1 21  1  0  0  0  0
  1 22  1  0  0  0  0
  1 23  1  0  0  0  0
  2 20  1  0  0  0  0
  2  3  1  0  0  0  0
  2 24  1  0  0  0  0
  3  4  1  0  0  0  0
  3 25  1  0  0  0  0
  3 26  1  0  0  0  0
  4  5  1  0  0  0  0
  4  6  1  0  0  0  0
  4 27  1  0  0  0  0
  5 28  1  0  0  0  0
  5 29  1  0  0  0  0
  5 30  1  0  0  0  0
  6  7  1  0  0  0  0
  6 31  1  0  0  0  0
  6 32  1  0  0  0  0
  7  8  1  0  0  0  0
  7 20  1  0  0  0  0
  8  9  2  0  0  0  0
  8 10  1  0  0  0  0
 10 11  1  0  0  0  0
 10 12  1  0  0  0  0
 10 33  1  0  0  0  0
 11 34  1  0  0  0  0
 11 35  1  0  0  0  0
 11 36  1  0  0  0  0
 12 13  1  0  0  0  0
 12 37  1  0  0  0  0
 12 47  1  0  0  0  0
 13 14  1  0  0  0  0
 13 38  1  0  0  0  0
 13 39  1  0  0  0  0
 14 15  1  0  0  0  0
 14 40  1  0  0  0  0
 14 41  1  0  0  0  0
 15 19  1  0  0  0  0
 15 16  1  0  0  0  0
 16 17  2  0  0  0  0
 16 42  1  0  0  0  0
 17 18  1  0  0  0  0
 17 43  1  0  0  0  0
 18 19  2  0  0  0  0
 18 44  1  0  0  0  0
 20 45  1  0  0  0  0
 20 46  1  0  0  0  0
M  CHG  1  12   1
M  END
> <s_m_source_file>
AV-unprocessed.smi

> <i_m_source_file_index>
3331

> <i_lp_mmshare_version>
43012

> <i_f3d_flags>
0

> <s_epik_input>
W0NIM11bQ0BASF0xW0NIMl1bQ0BASF0oW0NIM10pW0NIMl1OKFtDSDJdMSlDKD1PKVtDQEhdKFtDSDNdKVtOSF1bQ0gyXVtDSDJdbjJbY0hdW2NIXVtjSF1uMg==

> <s_epik_cmdline>
J2VwaWtfcHl0aG9uJywgJy1waCcsICc3LjAnLCAnLXRuJywgJzgnLCAnLW1hJywgJzIwMCcsICctbWV0YWxfYmluZGluZycsICctaW1hZScsICc8aW5maWxlLm1hZT4nLCAnLW9tYWUnLCAnPG91dGZpbGUubWFlPic=

> <r_lp_tautomer_probability>
1

> <r_epik_Ionization_Penalty>
0.189706

> <r_epik_Ionization_Penalty_Charging>
0.189703

> <r_epik_Ionization_Penalty_Neutral>
2.45875e-06

> <r_epik_State_Penalty>
0.179341

> <r_epik_Charging_Adjusted_Penalty>
0.369044

> <i_epik_Tot_Q>
1

> <i_epik_Tot_abs_Q>
1

> <r_epik_Metal_State_Penalty>
0.179578

> <b_epik_Metal_Only>
0

> <s_lp_Force_Field>
OPLS_2005

> <r_lp_Energy>
28.246

> <b_lp_Chiralities_Consistent>
1

> <s_lp_Variant>
AV-unprocessed.smi:3331-1

> <Gold.Version>
5.8.1

> <Gold.Id.Protein>
6NUR|6NUR_protein|mol2

> <Gold.PLP.Fitness>
47.6447

> <Gold.PLP.PLP>
-33.2356

> <Gold.PLP.part.hbond>
-2.9921

> <Gold.PLP.part.metal>
0.0000

> <Gold.PLP.part.buried>
-1.5960

> <Gold.PLP.part.nonpolar>
-28.9307

> <Gold.PLP.part.repulsive>
0.4297

> <Gold.PLP.ligand.clash>
0.0000

> <Gold.PLP.ligand.torsion>
0.3847

> <Gold.PLP.Chemscore.Hbond>
4.0000

> <Gold.PLP.Chemscore.CHOScore>
1.0000

> <Gold.PLP.Chemscore.Metal>
0.0000

> <Gold.Chemscore.Hbonds>
donor molecule, donor type, donor heavy atom, donor atom, acceptor molecule, acceptor atom, score
      L1  H    12    37       P1  7948  2.00
      P1  H  7954  7966       L1     9  0.54
      L1  C    16    42       P1  8028  1.00

> <Gold.PLP.Chemscore.Internal.Correction>
0.1786

> <Gold.Rescore>
     Score         DG    S(hbond)    S(metal)    S(lipo)     H(rot)  DE(clash)    DE(int)     intcor
     18.16     -18.81       2.92        0.00      68.23       1.73       0.16       0.49       ----

> <Gold.Chemscore.Fitness>
18.1565

> <Gold.Chemscore.DG>
-18.8084

> <Gold.Chemscore.ZeroCoef>
-5.4800

> <Gold.Chemscore.Hbond>
2.9228

> <Gold.Chemscore.Metal>
0.0000

> <Gold.Chemscore.Lipo>
68.2325

> <Gold.Chemscore.Internal_Hbond>
0.0000

> <Gold.Chemscore.DEClash>
0.1590

> <Gold.Chemscore.DEInternal>
0.4929

> <Gold.Chemscore.Rot>
1.7254

> <Gold.Chemscore.Internal.Correction>
   9.000000E+99

> <Gold.Chemscore.Hbonds>
donor molecule, donor type, donor heavy atom, donor atom, acceptor molecule, acceptor atom, score
      L1  H    12    37       P1  7948  0.99
      L1  H    12    47       P1  7957  0.06
      P1  H  7954  7966       L1     9  0.45

> <Gold.Chemscore.Hbond.Weighted>
-9.7623

> <Gold.Chemscore.Metal.Weighted>
-0.0000

> <Gold.Chemscore.Lipo.Weighted>
-7.9832

> <Gold.Chemscore.Internal_Hbond.Weighted>
0.0000

> <Gold.Chemscore.DEClash.Weighted>
0.1590

> <Gold.Chemscore.DEInternal.Weighted>
0.4929

> <Gold.Chemscore.Rot.Weighted>
4.4170

> <Gold.Chemscore.Internal.Correction.Weighted>
   9.000000E+99

> <Gold.Protein.RotatedTorsions>
[ 6907 6896 6895 6894 ] final  -10.34 input  -60.11 | X-H torsion
[ 7974 7965 7964 7962 ] final -101.38 input  175.53 | X-H torsion
[ 8008 7997 7996 7995 ] final   10.47 input   59.86 | X-H torsion
[ 10167 10162 10161 10158 ] final    3.79 input  -65.29 | X-H torsion
[ 10718 10713 10712 10709 ] final  144.09 input   66.30 | X-H torsion
[ 10763 10752 10751 10750 ] final  -75.03 input  -60.55 | X-H torsion
[ 11005 11000 10999 10996 ] final  -41.68 input  -57.11 | X-H torsion

> <Gold.Protein.ActiveResidues>
 VAL166  LYS551  ARG553  GLY616  TRP617  ASP618  TYR619  PRO620  LYS621  CYS622 
 ASP623  PHE694  ASN695  SER759  ASP760  ASP761  ALA762  ILE779  LEU786  VAL792 
 PHE793  MET794  SER795  GLU796  ALA797  LYS798  CYS799  TRP800  GLU811  SER814 

> <Gold.Protein.RotatedAtoms>
  151.4035  135.0974  159.9563 H   0  0  0  0  0  0  0  0  0  0  0  0  # atno 6907 bound_to 6896
  152.5043  133.8865  159.7383 H   0  0  0  0  0  0  0  0  0  0  0  0  # atno 6908 bound_to 6896
  150.9344  133.6672  159.2832 H   0  0  0  0  0  0  0  0  0  0  0  0  # atno 6909 bound_to 6896
  145.2824  140.9330  143.2924 H   0  0  0  0  0  0  0  0  0  0  0  0  # atno 7974 bound_to 7965
  154.7938  140.2840  155.5971 H   0  0  0  0  0  0  0  0  0  0  0  0  # atno 8008 bound_to 7997
  156.2968  140.2599  156.2721 H   0  0  0  0  0  0  0  0  0  0  0  0  # atno 8009 bound_to 7997
  154.9638  140.0377  157.2192 H   0  0  0  0  0  0  0  0  0  0  0  0  # atno 8010 bound_to 7997
  140.6568  143.7406  150.7668 H   0  0  0  0  0  0  0  0  0  0  0  0  # atno 10167 bound_to 10162
  157.3613  131.0965  151.0913 H   0  0  0  0  0  0  0  0  0  0  0  0  # atno 10718 bound_to 10713
  154.4811  135.5844  153.6390 H   0  0  0  0  0  0  0  0  0  0  0  0  # atno 10763 bound_to 10752
  152.9848  135.6090  154.3245 H   0  0  0  0  0  0  0  0  0  0  0  0  # atno 10764 bound_to 10752
  154.3136  135.2844  155.2533 H   0  0  0  0  0  0  0  0  0  0  0  0  # atno 10765 bound_to 10752
  141.0263  133.6840  156.2491 H   0  0  0  0  0  0  0  0  0  0  0  0  # atno 11005 bound_to 11000
  144.9242  139.4375  143.6526 LP  0  0  0  0  0  0  0  0  0  0  0  0  # atno 17320 bound_to 7965
  146.3212  139.8118  142.8944 LP  0  0  0  0  0  0  0  0  0  0  0  0  # atno 17321 bound_to 7965
  140.1068  143.4736  152.2393 LP  0  0  0  0  0  0  0  0  0  0  0  0  # atno 17342 bound_to 10162
  139.5792  144.7502  151.3683 LP  0  0  0  0  0  0  0  0  0  0  0  0  # atno 17343 bound_to 10162
  157.2052  130.6412  149.5753 LP  0  0  0  0  0  0  0  0  0  0  0  0  # atno 17370 bound_to 10713
  155.9738  130.4678  150.6337 LP  0  0  0  0  0  0  0  0  0  0  0  0  # atno 17371 bound_to 10713
  140.6485  134.5092  157.5575 LP  0  0  0  0  0  0  0  0  0  0  0  0  # atno 17394 bound_to 11000
  139.9178  134.8210  156.1309 LP  0  0  0  0  0  0  0  0  0  0  0  0  # atno 17395 bound_to 11000

$$$$
