AV-unprocessed.smi:3234|AV-procd|sdf|12349|dock3
  -GOLD-   2272018213D 1   1.00000     0.00000
 Structure written by MMmdl.
 37 39  0  0  0  0  0  0  0  0  2 V2000
  151.2921  141.0211  156.7871 O   0  0  0  0  0  0  0  0  0  0  0  0
  150.5747  142.0028  156.5985 C   0  0  0  0  0  0  0  0  0  0  0  0
  150.5093  143.0927  157.3835 N   0  0  0  0  0  0  0  0  0  0  0  0
  151.2007  143.3806  158.5933 C   0  0  0  0  0  0  0  0  0  0  0  0
  151.0994  144.6934  159.0986 C   0  0  0  0  0  0  0  0  0  0  0  0
  151.7616  145.0146  160.3001 C   0  0  0  0  0  0  0  0  0  0  0  0
  152.4922  144.1254  161.0042 N   0  0  0  0  0  0  0  0  0  0  0  0
  152.5828  142.8671  160.5247 C   0  0  0  0  0  0  0  0  0  0  0  0
  151.9597  142.4417  159.3341 C   0  0  0  0  0  0  0  0  0  0  0  0
  149.7513  142.1156  155.5463 N   0  0  0  0  0  0  0  0  0  0  0  0
  149.5692  141.0982  154.5157 C   0  0  1  0  0  0  0  0  0  0  0  0
  149.6011  139.6694  155.0584 C   0  0  0  0  0  0  0  0  0  0  0  0
  148.7114  138.8684  154.0919 C   0  0  0  0  0  0  0  0  0  0  0  0
  148.0522  139.8505  153.1994 N   0  3  1  0  0  0  0  0  0  0  0  0
  146.6617  139.5069  152.8344 C   0  0  0  0  0  0  0  0  0  0  0  0
  145.9858  138.5914  153.8269 C   0  0  0  0  0  0  0  0  0  0  0  0
  146.4694  138.0470  152.5002 C   0  0  0  0  0  0  0  0  0  0  0  0
  148.1986  141.1677  153.8417 C   0  0  0  0  0  0  0  0  0  0  0  0
  149.8978  143.8279  157.0608 H   0  0  0  0  0  0  0  0  0  0  0  0
  150.5265  145.4469  158.5780 H   0  0  0  0  0  0  0  0  0  0  0  0
  151.7010  146.0133  160.7067 H   0  0  0  0  0  0  0  0  0  0  0  0
  153.1681  142.1741  161.1108 H   0  0  0  0  0  0  0  0  0  0  0  0
  152.0737  141.4136  159.0302 H   0  0  0  0  0  0  0  0  0  0  0  0
  149.1982  142.9562  155.4625 H   0  0  0  0  0  0  0  0  0  0  0  0
  150.3490  141.2033  153.7584 H   0  0  0  0  0  0  0  0  0  0  0  0
  150.6151  139.2727  155.1190 H   0  0  0  0  0  0  0  0  0  0  0  0
  149.1713  139.6323  156.0608 H   0  0  0  0  0  0  0  0  0  0  0  0
  149.2967  138.1717  153.4914 H   0  0  0  0  0  0  0  0  0  0  0  0
  147.9775  138.2871  154.6522 H   0  0  0  0  0  0  0  0  0  0  0  0
  146.0913  140.2744  152.3140 H   0  0  0  0  0  0  0  0  0  0  0  0
  146.5365  138.3025  154.7203 H   0  0  0  0  0  0  0  0  0  0  0  0
  144.9110  138.6996  153.9585 H   0  0  0  0  0  0  0  0  0  0  0  0
  145.7130  137.7965  151.7590 H   0  0  0  0  0  0  0  0  0  0  0  0
  147.3420  137.3960  152.5120 H   0  0  0  0  0  0  0  0  0  0  0  0
  147.4121  141.3069  154.5861 H   0  0  0  0  0  0  0  0  0  0  0  0
  148.1259  141.9755  153.1126 H   0  0  0  0  0  0  0  0  0  0  0  0
  148.5979  139.8821  152.3499 H   0  0  0  0  0  0  0  0  0  0  0  0
  1  2  2  0  0  0  0
  2  3  1  0  0  0  0
  2 10  1  0  0  0  0
  3  4  1  0  0  0  0
  3 19  1  0  0  0  0
  4  9  1  0  0  0  0
  4  5  2  0  0  0  0
  5  6  1  0  0  0  0
  5 20  1  0  0  0  0
  6  7  2  0  0  0  0
  6 21  1  0  0  0  0
  7  8  1  0  0  0  0
  8  9  2  0  0  0  0
  8 22  1  0  0  0  0
  9 23  1  0  0  0  0
 10 11  1  0  0  0  0
 10 24  1  0  0  0  0
 11 18  1  0  0  0  0
 11 12  1  0  0  0  0
 11 25  1  0  0  0  0
 12 13  1  0  0  0  0
 12 26  1  0  0  0  0
 12 27  1  0  0  0  0
 13 14  1  0  0  0  0
 13 28  1  0  0  0  0
 13 29  1  0  0  0  0
 14 15  1  0  0  0  0
 14 18  1  0  0  0  0
 14 37  1  0  0  0  0
 15 17  1  0  0  0  0
 15 16  1  0  0  0  0
 15 30  1  0  0  0  0
 16 17  1  0  0  0  0
 16 31  1  0  0  0  0
 16 32  1  0  0  0  0
 17 33  1  0  0  0  0
 17 34  1  0  0  0  0
 18 35  1  0  0  0  0
 18 36  1  0  0  0  0
M  CHG  1  14   1
M  END
> <s_m_source_file>
AV-unprocessed.smi

> <i_m_source_file_index>
3234

> <i_lp_mmshare_version>
43012

> <i_f3d_flags>
0

> <s_epik_input>
W2NIXTFbY0hdbltjSF1bY0hdYzFbTkhdQyg9TylbTkhdW0NAQEhdMltDSDJdW0NIMl1OKFtDSDJdMilbQ0hdM1tDSDJdW0NIMl0z

> <s_epik_cmdline>
J2VwaWtfcHl0aG9uJywgJy1waCcsICc3LjAnLCAnLXRuJywgJzgnLCAnLW1hJywgJzIwMCcsICctbWV0YWxfYmluZGluZycsICctaW1hZScsICc8aW5maWxlLm1hZT4nLCAnLW9tYWUnLCAnPG91dGZpbGUubWFlPic=

> <r_epik_Ionization_Penalty>
0.0934328

> <r_epik_Ionization_Penalty_Charging>
0.000606352

> <r_epik_Ionization_Penalty_Neutral>
0.0928265

> <r_epik_State_Penalty>
0.0830811

> <r_epik_Charging_Adjusted_Penalty>
0.0836875

> <i_epik_Tot_Q>
1

> <i_epik_Tot_abs_Q>
1

> <r_epik_Metal_State_Penalty>
0.0724491

> <b_epik_Metal_Only>
0

> <s_lp_Force_Field>
OPLS_2005

> <r_lp_Energy>
41.3186

> <b_lp_Chiralities_Consistent>
1

> <s_lp_Variant>
AV-unprocessed.smi:3234-2

> <Gold.Version>
5.8.1

> <Gold.Id.Protein>
6NUR|6NUR_protein|mol2

> <Gold.PLP.Fitness>
44.5648

> <Gold.PLP.PLP>
-36.3287

> <Gold.PLP.part.hbond>
-3.0000

> <Gold.PLP.part.metal>
0.0000

> <Gold.PLP.part.buried>
-0.6219

> <Gold.PLP.part.nonpolar>
-33.4968

> <Gold.PLP.part.repulsive>
0.4041

> <Gold.PLP.ligand.clash>
0.0000

> <Gold.PLP.ligand.torsion>
1.0136

> <Gold.PLP.Chemscore.Hbond>
3.0000

> <Gold.PLP.Chemscore.CHOScore>
0.0000

> <Gold.PLP.Chemscore.Metal>
0.0000

> <Gold.Chemscore.Hbonds>
donor molecule, donor type, donor heavy atom, donor atom, acceptor molecule, acceptor atom, score
      L1  H     3    19       P1  8028  1.00
      L1  H    10    24       P1  8028  1.00
      L1  H    14    37       P1  7957  1.00

> <Gold.PLP.Chemscore.Internal.Correction>
1.2632

> <Gold.Rescore>
     Score         DG    S(hbond)    S(metal)    S(lipo)     H(rot)  DE(clash)    DE(int)     intcor
     20.05     -23.75       2.89        0.00     100.02       1.21       0.30       3.39       ----

> <Gold.Chemscore.Fitness>
20.0535

> <Gold.Chemscore.DG>
-23.7453

> <Gold.Chemscore.ZeroCoef>
-5.4800

> <Gold.Chemscore.Hbond>
2.8929

> <Gold.Chemscore.Metal>
0.0000

> <Gold.Chemscore.Lipo>
100.0217

> <Gold.Chemscore.Internal_Hbond>
0.0000

> <Gold.Chemscore.DEClash>
0.2985

> <Gold.Chemscore.DEInternal>
3.3933

> <Gold.Chemscore.Rot>
1.2108

> <Gold.Chemscore.Internal.Correction>
   9.000000E+99

> <Gold.Chemscore.Hbonds>
donor molecule, donor type, donor heavy atom, donor atom, acceptor molecule, acceptor atom, score
      L1  H     3    19       P1  8028  0.91
      L1  H    10    24       P1  8028  0.98
      L1  H    14    37       P1  7957  0.96

> <Gold.Chemscore.Hbond.Weighted>
-9.6623

> <Gold.Chemscore.Metal.Weighted>
-0.0000

> <Gold.Chemscore.Lipo.Weighted>
-11.7025

> <Gold.Chemscore.Internal_Hbond.Weighted>
0.0000

> <Gold.Chemscore.DEClash.Weighted>
0.2985

> <Gold.Chemscore.DEInternal.Weighted>
3.3933

> <Gold.Chemscore.Rot.Weighted>
3.0996

> <Gold.Chemscore.Internal.Correction.Weighted>
   9.000000E+99

> <Gold.Protein.RotatedTorsions>
[ 6907 6896 6895 6894 ] final  -35.36 input  -60.11 | X-H torsion
[ 7974 7965 7964 7962 ] final -124.25 input  175.53 | X-H torsion
[ 8008 7997 7996 7995 ] final   20.54 input   59.86 | X-H torsion
[ 10167 10162 10161 10158 ] final  143.06 input  -65.29 | X-H torsion
[ 10718 10713 10712 10709 ] final  130.37 input   66.30 | X-H torsion
[ 10763 10752 10751 10750 ] final    8.91 input  -60.55 | X-H torsion
[ 11005 11000 10999 10996 ] final   47.03 input  -57.11 | X-H torsion

> <Gold.Protein.ActiveResidues>
 VAL166  LYS551  ARG553  GLY616  TRP617  ASP618  TYR619  PRO620  LYS621  CYS622 
 ASP623  PHE694  ASN695  SER759  ASP760  ASP761  ALA762  ILE779  LEU786  VAL792 
 PHE793  MET794  SER795  GLU796  ALA797  LYS798  CYS799  TRP800  GLU811  SER814 

> <Gold.Protein.RotatedAtoms>
  151.0408  134.9606  159.8160 H   0  0  0  0  0  0  0  0  0  0  0  0  # atno 6907 bound_to 6896
  152.5363  134.2660  159.8963 H   0  0  0  0  0  0  0  0  0  0  0  0  # atno 6908 bound_to 6896
  151.2673  133.4230  159.2653 H   0  0  0  0  0  0  0  0  0  0  0  0  # atno 6909 bound_to 6896
  145.0101  140.7898  143.4444 H   0  0  0  0  0  0  0  0  0  0  0  0  # atno 7974 bound_to 7965
  154.9372  140.3048  155.5138 H   0  0  0  0  0  0  0  0  0  0  0  0  # atno 8008 bound_to 7997
  156.2999  140.2343  156.4375 H   0  0  0  0  0  0  0  0  0  0  0  0  # atno 8009 bound_to 7997
  154.8180  140.0425  157.1379 H   0  0  0  0  0  0  0  0  0  0  0  0  # atno 8010 bound_to 7997
  139.4979  144.6066  151.6365 H   0  0  0  0  0  0  0  0  0  0  0  0  # atno 10167 bound_to 10162
  157.5068  131.1096  150.9350 H   0  0  0  0  0  0  0  0  0  0  0  0  # atno 10718 bound_to 10713
  153.2198  135.6880  153.8013 H   0  0  0  0  0  0  0  0  0  0  0  0  # atno 10763 bound_to 10752
  153.7216  135.3266  155.3268 H   0  0  0  0  0  0  0  0  0  0  0  0  # atno 10764 bound_to 10752
  154.8264  135.4614  154.1041 H   0  0  0  0  0  0  0  0  0  0  0  0  # atno 10765 bound_to 10752
  140.1316  134.4699  155.8517 H   0  0  0  0  0  0  0  0  0  0  0  0  # atno 11005 bound_to 11000
  145.2035  139.2240  143.5180 LP  0  0  0  0  0  0  0  0  0  0  0  0  # atno 17320 bound_to 7965
  146.3468  140.1858  142.8589 LP  0  0  0  0  0  0  0  0  0  0  0  0  # atno 17321 bound_to 7965
  140.5729  144.0078  150.6226 LP  0  0  0  0  0  0  0  0  0  0  0  0  # atno 17342 bound_to 10162
  140.3202  143.3142  152.0792 LP  0  0  0  0  0  0  0  0  0  0  0  0  # atno 17343 bound_to 10162
  157.0003  130.5597  149.5311 LP  0  0  0  0  0  0  0  0  0  0  0  0  # atno 17370 bound_to 10713
  156.0263  130.5357  150.8416 LP  0  0  0  0  0  0  0  0  0  0  0  0  # atno 17371 bound_to 10713
  141.2171  133.6798  156.7079 LP  0  0  0  0  0  0  0  0  0  0  0  0  # atno 17394 bound_to 11000
  140.2836  134.8297  157.3955 LP  0  0  0  0  0  0  0  0  0  0  0  0  # atno 17395 bound_to 11000

$$$$
