AV-unprocessed.smi:2592|AV-procd|sdf|10162|dock2
  -GOLD-   2272014173D 1   1.00000     0.00000
 Structure written by MMmdl.
 41 42  0  0  0  0  0  0  0  0  2 V2000
  147.2155  136.6646  163.3120 C   0  0  0  0  0  0  0  0  0  0  0  0
  147.5745  136.0856  161.9781 C   0  0  0  0  0  0  0  0  0  0  0  0
  148.0419  136.9248  160.9636 N   0  0  0  0  0  0  0  0  0  0  0  0
  148.3337  136.2825  159.8284 C   0  0  0  0  0  0  0  0  0  0  0  0
  148.7906  136.9066  158.7302 N   0  5  0  0  0  0  0  0  0  0  0  0
  150.1124  137.1595  158.5954 C   0  0  0  0  0  0  0  0  0  0  0  0
  150.9994  136.8616  159.3991 O   0  0  0  0  0  0  0  0  0  0  0  0
  150.4266  137.7929  157.4560 N   0  0  0  0  0  0  0  0  0  0  0  0
  151.7687  138.1796  157.0344 C   0  0  0  0  0  0  0  0  0  0  0  0
  151.9210  139.7076  156.9650 C   0  0  0  0  0  0  0  0  0  0  0  0
  152.0233  140.3446  158.3611 C   0  0  0  0  0  0  0  0  0  0  0  0
  151.8883  141.8005  158.3895 N   0  0  0  0  0  0  0  0  0  0  0  0
  150.4903  142.1967  158.2582 C   0  0  0  0  0  0  0  0  0  0  0  0
  150.3191  143.7253  158.2879 C   0  0  0  0  0  0  0  0  0  0  0  0
  150.8770  144.2427  159.4912 O   0  0  0  0  0  0  0  0  0  0  0  0
  152.2555  143.9189  159.6400 C   0  0  0  0  0  0  0  0  0  0  0  0
  152.4360  142.3911  159.6094 C   0  0  0  0  0  0  0  0  0  0  0  0
  148.0173  134.5516  159.9524 S   0  0  0  0  0  0  0  0  0  0  0  0
  147.4956  134.7677  161.6017 C   0  0  0  0  0  0  0  0  0  0  0  0
  147.0415  133.6058  162.4207 C   0  0  0  0  0  0  0  0  0  0  0  0
  146.1365  136.6518  163.4659 H   0  0  0  0  0  0  0  0  0  0  0  0
  147.5503  137.6982  163.4066 H   0  0  0  0  0  0  0  0  0  0  0  0
  147.6724  136.0968  164.1228 H   0  0  0  0  0  0  0  0  0  0  0  0
  149.6683  138.0195  156.8292 H   0  0  0  0  0  0  0  0  0  0  0  0
  152.4779  137.7677  157.7525 H   0  0  0  0  0  0  0  0  0  0  0  0
  152.0048  137.7261  156.0705 H   0  0  0  0  0  0  0  0  0  0  0  0
  152.8061  139.9490  156.3770 H   0  0  0  0  0  0  0  0  0  0  0  0
  151.0689  140.1332  156.4333 H   0  0  0  0  0  0  0  0  0  0  0  0
  151.2364  139.9095  158.9791 H   0  0  0  0  0  0  0  0  0  0  0  0
  152.9655  140.0521  158.8271 H   0  0  0  0  0  0  0  0  0  0  0  0
  150.0812  141.8077  157.3250 H   0  0  0  0  0  0  0  0  0  0  0  0
  149.9030  141.7535  159.0641 H   0  0  0  0  0  0  0  0  0  0  0  0
  150.8035  144.1862  157.4257 H   0  0  0  0  0  0  0  0  0  0  0  0
  149.2628  143.9897  158.2420 H   0  0  0  0  0  0  0  0  0  0  0  0
  152.8352  144.3916  158.8456 H   0  0  0  0  0  0  0  0  0  0  0  0
  152.6169  144.3246  160.5849 H   0  0  0  0  0  0  0  0  0  0  0  0
  151.9506  141.9530  160.4830 H   0  0  0  0  0  0  0  0  0  0  0  0
  153.4986  142.1671  159.6965 H   0  0  0  0  0  0  0  0  0  0  0  0
  147.8183  133.3031  163.1229 H   0  0  0  0  0  0  0  0  0  0  0  0
  146.8038  132.7487  161.7901 H   0  0  0  0  0  0  0  0  0  0  0  0
  146.1481  133.8580  162.9922 H   0  0  0  0  0  0  0  0  0  0  0  0
  1  2  1  0  0  0  0
  1 21  1  0  0  0  0
  1 22  1  0  0  0  0
  1 23  1  0  0  0  0
  2 19  2  0  0  0  0
  2  3  1  0  0  0  0
  3  4  2  0  0  0  0
  4  5  1  0  0  0  0
  4 18  1  0  0  0  0
  5  6  1  0  0  0  0
  6  7  2  0  0  0  0
  6  8  1  0  0  0  0
  8  9  1  0  0  0  0
  8 24  1  0  0  0  0
  9 10  1  0  0  0  0
  9 25  1  0  0  0  0
  9 26  1  0  0  0  0
 10 11  1  0  0  0  0
 10 27  1  0  0  0  0
 10 28  1  0  0  0  0
 11 12  1  0  0  0  0
 11 29  1  0  0  0  0
 11 30  1  0  0  0  0
 12 17  1  0  0  0  0
 12 13  1  0  0  0  0
 13 14  1  0  0  0  0
 13 31  1  0  0  0  0
 13 32  1  0  0  0  0
 14 15  1  0  0  0  0
 14 33  1  0  0  0  0
 14 34  1  0  0  0  0
 15 16  1  0  0  0  0
 16 17  1  0  0  0  0
 16 35  1  0  0  0  0
 16 36  1  0  0  0  0
 17 37  1  0  0  0  0
 17 38  1  0  0  0  0
 18 19  1  0  0  0  0
 19 20  1  0  0  0  0
 20 39  1  0  0  0  0
 20 40  1  0  0  0  0
 20 41  1  0  0  0  0
M  CHG  1   5  -1
M  END
> <s_m_source_file>
AV-unprocessed.smi

> <i_m_source_file_index>
2592

> <i_lp_mmshare_version>
43012

> <i_f3d_flags>
0

> <s_epik_input>
W0NIM11jMW5jKHNjMVtDSDNdKVtOSF1DKD1PKVtOSF1bQ0gyXVtDSDJdW0NIMl1OMltDSDJdW0NIMl1PW0NIMl1bQ0gyXTI=

> <s_epik_cmdline>
J2VwaWtfcHl0aG9uJywgJy1waCcsICc3LjAnLCAnLXRuJywgJzgnLCAnLW1hJywgJzIwMCcsICctbWV0YWxfYmluZGluZycsICctaW1hZScsICc8aW5maWxlLm1hZT4nLCAnLW9tYWUnLCAnPG91dGZpbGUubWFlPic=

> <r_lp_tautomer_probability>
0.999

> <r_epik_Ionization_Penalty>
8.38414

> <r_epik_Ionization_Penalty_Charging>
6.24826

> <r_epik_Ionization_Penalty_Neutral>
2.13587

> <r_epik_State_Penalty>
6.83636

> <r_epik_Charging_Adjusted_Penalty>
13.0846

> <i_epik_Tot_Q>
-1

> <i_epik_Tot_abs_Q>
1

> <r_epik_Metal_State_Penalty>
2.77797

> <b_epik_Metal_Only>
1

> <s_lp_Force_Field>
OPLS_2005

> <r_lp_Energy>
16.0962

> <b_lp_Chiralities_Consistent>
1

> <s_lp_Variant>
AV-unprocessed.smi:2592-4

> <Gold.Version>
5.8.1

> <Gold.Id.Protein>
6NUR|6NUR_protein|mol2

> <Gold.PLP.Fitness>
44.4382

> <Gold.PLP.PLP>
-38.5298

> <Gold.PLP.part.hbond>
-3.0000

> <Gold.PLP.part.metal>
0.0000

> <Gold.PLP.part.buried>
-4.4043

> <Gold.PLP.part.nonpolar>
-30.9442

> <Gold.PLP.part.repulsive>
0.0939

> <Gold.PLP.ligand.clash>
0.0000

> <Gold.PLP.ligand.torsion>
1.0091

> <Gold.PLP.Chemscore.Hbond>
2.5943

> <Gold.PLP.Chemscore.CHOScore>
0.0000

> <Gold.PLP.Chemscore.Metal>
0.0000

> <Gold.Chemscore.Hbonds>
donor molecule, donor type, donor heavy atom, donor atom, acceptor molecule, acceptor atom, score
      P1  H  6896  6907       L1     7  1.00
      P1  H  6931  6943       L1     3  1.00
      P1  H  6934  6947       L1     3  0.32

> <Gold.PLP.Chemscore.Internal.Correction>
0.1438

> <Gold.Rescore>
     Score         DG    S(hbond)    S(metal)    S(lipo)     H(rot)  DE(clash)    DE(int)     intcor
     18.07     -19.36       2.14        0.00      93.50       1.65       0.18       1.11       ----

> <Gold.Chemscore.Fitness>
18.0733

> <Gold.Chemscore.DG>
-19.3607

> <Gold.Chemscore.ZeroCoef>
-5.4800

> <Gold.Chemscore.Hbond>
2.1416

> <Gold.Chemscore.Metal>
0.0000

> <Gold.Chemscore.Lipo>
93.5003

> <Gold.Chemscore.Internal_Hbond>
0.0000

> <Gold.Chemscore.DEClash>
0.1773

> <Gold.Chemscore.DEInternal>
1.1101

> <Gold.Chemscore.Rot>
1.6452

> <Gold.Chemscore.Internal.Correction>
   9.000000E+99

> <Gold.Chemscore.Hbonds>
donor molecule, donor type, donor heavy atom, donor atom, acceptor molecule, acceptor atom, score
      P1  H  6896  6907       L1     7  0.82
      P1  H  6931  6943       L1     3  0.43
      P1  H  6934  6947       L1     3  0.29

> <Gold.Chemscore.Hbond.Weighted>
-7.1530

> <Gold.Chemscore.Metal.Weighted>
-0.0000

> <Gold.Chemscore.Lipo.Weighted>
-10.9395

> <Gold.Chemscore.Internal_Hbond.Weighted>
0.0000

> <Gold.Chemscore.DEClash.Weighted>
0.1773

> <Gold.Chemscore.DEInternal.Weighted>
1.1101

> <Gold.Chemscore.Rot.Weighted>
4.2118

> <Gold.Chemscore.Internal.Correction.Weighted>
   9.000000E+99

> <Gold.Protein.RotatedTorsions>
[ 6907 6896 6895 6894 ] final  -34.42 input  -60.11 | X-H torsion
[ 7974 7965 7964 7962 ] final  176.03 input  175.53 | X-H torsion
[ 8008 7997 7996 7995 ] final  -71.65 input   59.86 | X-H torsion
[ 10167 10162 10161 10158 ] final -138.95 input  -65.29 | X-H torsion
[ 10718 10713 10712 10709 ] final  178.23 input   66.30 | X-H torsion
[ 10763 10752 10751 10750 ] final -116.12 input  -60.55 | X-H torsion
[ 11005 11000 10999 10996 ] final -150.48 input  -57.11 | X-H torsion

> <Gold.Protein.ActiveResidues>
 VAL166  LYS551  ARG553  GLY616  TRP617  ASP618  TYR619  PRO620  LYS621  CYS622 
 ASP623  PHE694  ASN695  SER759  ASP760  ASP761  ALA762  ILE779  LEU786  VAL792 
 PHE793  MET794  SER795  GLU796  ALA797  LYS798  CYS799  TRP800  GLU811  SER814 

> <Gold.Protein.RotatedAtoms>
  151.0528  134.9684  159.8220 H   0  0  0  0  0  0  0  0  0  0  0  0  # atno 6907 bound_to 6896
  152.5383  134.2515  159.8910 H   0  0  0  0  0  0  0  0  0  0  0  0  # atno 6908 bound_to 6896
  151.2532  133.4297  159.2646 H   0  0  0  0  0  0  0  0  0  0  0  0  # atno 6909 bound_to 6896
  144.7191  140.0036  143.6440 H   0  0  0  0  0  0  0  0  0  0  0  0  # atno 7974 bound_to 7965
  154.5104  140.0811  156.7979 H   0  0  0  0  0  0  0  0  0  0  0  0  # atno 8008 bound_to 7997
  155.3797  140.3427  155.4228 H   0  0  0  0  0  0  0  0  0  0  0  0  # atno 8009 bound_to 7997
  156.1567  140.1575  156.8669 H   0  0  0  0  0  0  0  0  0  0  0  0  # atno 8010 bound_to 7997
  139.8428  143.7300  152.2662 H   0  0  0  0  0  0  0  0  0  0  0  0  # atno 10167 bound_to 10162
  156.8936  130.9855  151.3046 H   0  0  0  0  0  0  0  0  0  0  0  0  # atno 10718 bound_to 10713
  154.8507  135.4357  154.1771 H   0  0  0  0  0  0  0  0  0  0  0  0  # atno 10763 bound_to 10752
  153.2870  135.6958  153.7335 H   0  0  0  0  0  0  0  0  0  0  0  0  # atno 10764 bound_to 10752
  153.6517  135.3450  155.3076 H   0  0  0  0  0  0  0  0  0  0  0  0  # atno 10765 bound_to 10752
  140.7398  134.3527  157.5150 H   0  0  0  0  0  0  0  0  0  0  0  0  # atno 11005 bound_to 11000
  146.0315  139.3339  143.0752 LP  0  0  0  0  0  0  0  0  0  0  0  0  # atno 17320 bound_to 7965
  145.8446  140.9562  143.0781 LP  0  0  0  0  0  0  0  0  0  0  0  0  # atno 17321 bound_to 7965
  139.7542  144.7525  151.0460 LP  0  0  0  0  0  0  0  0  0  0  0  0  # atno 17342 bound_to 10162
  140.7796  143.4824  151.0000 LP  0  0  0  0  0  0  0  0  0  0  0  0  # atno 17343 bound_to 10162
  157.6069  130.8554  149.8889 LP  0  0  0  0  0  0  0  0  0  0  0  0  # atno 17370 bound_to 10713
  156.0617  130.3699  150.0968 LP  0  0  0  0  0  0  0  0  0  0  0  0  # atno 17371 bound_to 10713
  139.8808  134.9073  156.2942 LP  0  0  0  0  0  0  0  0  0  0  0  0  # atno 17394 bound_to 11000
  140.9847  133.7245  156.0724 LP  0  0  0  0  0  0  0  0  0  0  0  0  # atno 17395 bound_to 11000

$$$$
