AV-unprocessed.smi:3172|AV-procd|sdf|12115|dock7
  -GOLD-   2272017553D 1   1.00000     0.00000
 Structure written by MMmdl.
 43 44  0  0  0  0  0  0  0  0  2 V2000
  151.2743  138.6716  154.4384 C   0  0  0  0  0  0  0  0  0  0  0  0
  150.6829  137.3430  154.7943 C   0  0  0  0  0  0  0  0  0  0  0  0
  151.4907  136.2356  155.0383 N   0  0  0  0  0  0  0  0  0  0  0  0
  150.6279  135.2695  155.3161 C   0  0  0  0  0  0  0  0  0  0  0  0
  149.3407  135.6394  155.2624 N   0  0  0  0  0  0  0  0  0  0  0  0
  148.1875  134.7827  155.4896 C   0  0  0  0  0  0  0  0  0  0  0  0
  147.8618  133.9171  154.2579 C   0  0  2  0  0  0  0  0  0  0  0  0
  149.1203  133.2380  153.6998 C   0  0  0  0  0  0  0  0  0  0  0  0
  147.2188  134.7413  153.2080 N   0  3  0  0  0  0  0  0  0  0  0  0
  146.1471  134.0741  152.4376 C   0  0  0  0  0  0  0  0  0  0  0  0
  146.6388  132.7015  151.9408 C   0  0  0  0  0  0  0  0  0  0  0  0
  145.5667  131.9896  151.0998 C   0  0  0  0  0  0  0  0  0  0  0  0
  145.1200  132.8619  149.9165 C   0  0  0  0  0  0  0  0  0  0  0  0
  144.6320  134.2373  150.3959 C   0  0  0  0  0  0  0  0  0  0  0  0
  145.7016  134.9456  151.2425 C   0  0  0  0  0  0  0  0  0  0  0  0
  149.3561  136.9948  154.9361 C   0  0  0  0  0  0  0  0  0  0  0  0
  148.1243  137.8284  154.7808 C   0  0  0  0  0  0  0  0  0  0  0  0
  151.3206  139.3255  155.3094 H   0  0  0  0  0  0  0  0  0  0  0  0
  150.6809  139.1771  153.6764 H   0  0  0  0  0  0  0  0  0  0  0  0
  152.2871  138.5672  154.0484 H   0  0  0  0  0  0  0  0  0  0  0  0
  150.9408  134.2625  155.5512 H   0  0  0  0  0  0  0  0  0  0  0  0
  148.3824  134.1533  156.3595 H   0  0  0  0  0  0  0  0  0  0  0  0
  147.3367  135.4126  155.7505 H   0  0  0  0  0  0  0  0  0  0  0  0
  147.1757  133.1319  154.5740 H   0  0  0  0  0  0  0  0  0  0  0  0
  149.5934  132.6099  154.4551 H   0  0  0  0  0  0  0  0  0  0  0  0
  149.8559  133.9729  153.3712 H   0  0  0  0  0  0  0  0  0  0  0  0
  148.8821  132.6009  152.8476 H   0  0  0  0  0  0  0  0  0  0  0  0
  146.8117  135.5561  153.6448 H   0  0  0  0  0  0  0  0  0  0  0  0
  145.2967  133.9071  153.1008 H   0  0  0  0  0  0  0  0  0  0  0  0
  147.5432  132.8252  151.3432 H   0  0  0  0  0  0  0  0  0  0  0  0
  146.9125  132.0729  152.7891 H   0  0  0  0  0  0  0  0  0  0  0  0
  145.9523  131.0374  150.7340 H   0  0  0  0  0  0  0  0  0  0  0  0
  144.7055  131.7542  151.7266 H   0  0  0  0  0  0  0  0  0  0  0  0
  145.9514  132.9903  149.2222 H   0  0  0  0  0  0  0  0  0  0  0  0
  144.3282  132.3591  149.3606 H   0  0  0  0  0  0  0  0  0  0  0  0
  144.3675  134.8564  149.5379 H   0  0  0  0  0  0  0  0  0  0  0  0
  143.7208  134.1181  150.9833 H   0  0  0  0  0  0  0  0  0  0  0  0
  145.3078  135.9025  151.5846 H   0  0  0  0  0  0  0  0  0  0  0  0
  146.5634  135.1788  150.6152 H   0  0  0  0  0  0  0  0  0  0  0  0
  148.3641  138.8907  154.8258 H   0  0  0  0  0  0  0  0  0  0  0  0
  147.4031  137.6225  155.5713 H   0  0  0  0  0  0  0  0  0  0  0  0
  147.6439  137.6368  153.8218 H   0  0  0  0  0  0  0  0  0  0  0  0
  147.9394  135.0486  152.5704 H   0  0  0  0  0  0  0  0  0  0  0  0
  1  2  1  0  0  0  0
  1 18  1  0  0  0  0
  1 19  1  0  0  0  0
  1 20  1  0  0  0  0
  2 16  2  0  0  0  0
  2  3  1  0  0  0  0
  3  4  2  0  0  0  0
  4  5  1  0  0  0  0
  4 21  1  0  0  0  0
  5  6  1  0  0  0  0
  5 16  1  0  0  0  0
  6  7  1  0  0  0  0
  6 22  1  0  0  0  0
  6 23  1  0  0  0  0
  7  8  1  0  0  0  0
  7  9  1  0  0  0  0
  7 24  1  0  0  0  0
  8 25  1  0  0  0  0
  8 26  1  0  0  0  0
  8 27  1  0  0  0  0
  9 10  1  0  0  0  0
  9 28  1  0  0  0  0
  9 43  1  0  0  0  0
 10 15  1  0  0  0  0
 10 11  1  0  0  0  0
 10 29  1  0  0  0  0
 11 12  1  0  0  0  0
 11 30  1  0  0  0  0
 11 31  1  0  0  0  0
 12 13  1  0  0  0  0
 12 32  1  0  0  0  0
 12 33  1  0  0  0  0
 13 14  1  0  0  0  0
 13 34  1  0  0  0  0
 13 35  1  0  0  0  0
 14 15  1  0  0  0  0
 14 36  1  0  0  0  0
 14 37  1  0  0  0  0
 15 38  1  0  0  0  0
 15 39  1  0  0  0  0
 16 17  1  0  0  0  0
 17 40  1  0  0  0  0
 17 41  1  0  0  0  0
 17 42  1  0  0  0  0
M  CHG  1   9   1
M  END
> <s_m_source_file>
AV-unprocessed.smi

> <i_m_source_file_index>
3172

> <i_lp_mmshare_version>
43012

> <i_f3d_flags>
0

> <s_epik_input>
W0NIM11jMW5bY0hdbihjMVtDSDNdKVtDSDJdW0NASF0oW0NIM10pW05IXVtDSF0yW0NIMl1bQ0gyXVtDSDJdW0NIMl1bQ0gyXTI=

> <s_epik_cmdline>
J2VwaWtfcHl0aG9uJywgJy1waCcsICc3LjAnLCAnLXRuJywgJzgnLCAnLW1hJywgJzIwMCcsICctbWV0YWxfYmluZGluZycsICctaW1hZScsICc8aW5maWxlLm1hZT4nLCAnLW9tYWUnLCAnPG91dGZpbGUubWFlPic=

> <r_lp_tautomer_probability>
1

> <r_epik_Ionization_Penalty>
0.328572

> <r_epik_Ionization_Penalty_Charging>
0.328572

> <r_epik_Ionization_Penalty_Neutral>
3.58496e-13

> <r_epik_State_Penalty>
0.596179

> <r_epik_Charging_Adjusted_Penalty>
0.924751

> <i_epik_Tot_Q>
1

> <i_epik_Tot_abs_Q>
1

> <r_epik_Metal_State_Penalty>
0.00102252

> <b_epik_Metal_Only>
0

> <s_lp_Force_Field>
OPLS_2005

> <r_lp_Energy>
15.8324

> <b_lp_Chiralities_Consistent>
1

> <s_lp_Variant>
AV-unprocessed.smi:3172-3

> <Gold.Version>
5.8.1

> <Gold.Id.Protein>
6NUR|6NUR_protein|mol2

> <Gold.PLP.Fitness>
37.4119

> <Gold.PLP.PLP>
-30.1605

> <Gold.PLP.part.hbond>
-2.0000

> <Gold.PLP.part.metal>
0.0000

> <Gold.PLP.part.buried>
-3.0138

> <Gold.PLP.part.nonpolar>
-24.8890

> <Gold.PLP.part.repulsive>
0.1358

> <Gold.PLP.ligand.clash>
0.0000

> <Gold.PLP.ligand.torsion>
0.8898

> <Gold.PLP.Chemscore.Hbond>
3.0000

> <Gold.PLP.Chemscore.CHOScore>
0.0000

> <Gold.PLP.Chemscore.Metal>
0.0000

> <Gold.Chemscore.Hbonds>
donor molecule, donor type, donor heavy atom, donor atom, acceptor molecule, acceptor atom, score
      L1  H     9    43       P1  7948  2.00
      P1  H 10752 10765       L1     3  1.00

> <Gold.PLP.Chemscore.Internal.Correction>
0.0311

> <Gold.Rescore>
     Score         DG    S(hbond)    S(metal)    S(lipo)     H(rot)  DE(clash)    DE(int)     intcor
     14.77     -16.43       1.93        0.00      71.38       1.50       0.02       1.64       ----

> <Gold.Chemscore.Fitness>
14.7736

> <Gold.Chemscore.DG>
-16.4343

> <Gold.Chemscore.ZeroCoef>
-5.4800

> <Gold.Chemscore.Hbond>
1.9289

> <Gold.Chemscore.Metal>
0.0000

> <Gold.Chemscore.Lipo>
71.3811

> <Gold.Chemscore.Internal_Hbond>
0.0000

> <Gold.Chemscore.DEClash>
0.0164

> <Gold.Chemscore.DEInternal>
1.6444

> <Gold.Chemscore.Rot>
1.4999

> <Gold.Chemscore.Internal.Correction>
   9.000000E+99

> <Gold.Chemscore.Hbonds>
donor molecule, donor type, donor heavy atom, donor atom, acceptor molecule, acceptor atom, score
      L1  H     9    43       P1  7948  0.92
      P1  H 10752 10765       L1     3  0.74

> <Gold.Chemscore.Hbond.Weighted>
-6.4424

> <Gold.Chemscore.Metal.Weighted>
-0.0000

> <Gold.Chemscore.Lipo.Weighted>
-8.3516

> <Gold.Chemscore.Internal_Hbond.Weighted>
0.0000

> <Gold.Chemscore.DEClash.Weighted>
0.0164

> <Gold.Chemscore.DEInternal.Weighted>
1.6444

> <Gold.Chemscore.Rot.Weighted>
3.8397

> <Gold.Chemscore.Internal.Correction.Weighted>
   9.000000E+99

> <Gold.Protein.RotatedTorsions>
[ 6907 6896 6895 6894 ] final  137.17 input  -60.11 | X-H torsion
[ 7974 7965 7964 7962 ] final   -5.84 input  175.53 | X-H torsion
[ 8008 7997 7996 7995 ] final  -32.58 input   59.86 | X-H torsion
[ 10167 10162 10161 10158 ] final   65.97 input  -65.29 | X-H torsion
[ 10718 10713 10712 10709 ] final  -43.86 input   66.30 | X-H torsion
[ 10763 10752 10751 10750 ] final -177.15 input  -60.55 | X-H torsion
[ 11005 11000 10999 10996 ] final   81.85 input  -57.11 | X-H torsion

> <Gold.Protein.ActiveResidues>
 VAL166  LYS551  ARG553  GLY616  TRP617  ASP618  TYR619  PRO620  LYS621  CYS622 
 ASP623  PHE694  ASN695  SER759  ASP760  ASP761  ALA762  ILE779  LEU786  VAL792 
 PHE793  MET794  SER795  GLU796  ALA797  LYS798  CYS799  TRP800  GLU811  SER814 

> <Gold.Protein.RotatedAtoms>
  152.2811  133.5471  159.5497 H   0  0  0  0  0  0  0  0  0  0  0  0  # atno 6907 bound_to 6896
  150.7196  134.0563  159.3824 H   0  0  0  0  0  0  0  0  0  0  0  0  # atno 6908 bound_to 6896
  151.8474  135.0570  160.0506 H   0  0  0  0  0  0  0  0  0  0  0  0  # atno 6909 bound_to 6896
  146.2344  140.2082  142.8335 H   0  0  0  0  0  0  0  0  0  0  0  0  # atno 7974 bound_to 7965
  154.4175  140.1733  156.1751 H   0  0  0  0  0  0  0  0  0  0  0  0  # atno 8008 bound_to 7997
  155.9729  140.3384  155.6568 H   0  0  0  0  0  0  0  0  0  0  0  0  # atno 8009 bound_to 7997
  155.6602  140.0700  157.2547 H   0  0  0  0  0  0  0  0  0  0  0  0  # atno 8010 bound_to 7997
  140.1055  144.4865  150.7010 H   0  0  0  0  0  0  0  0  0  0  0  0  # atno 10167 bound_to 10162
  156.2446  130.4183  149.8720 H   0  0  0  0  0  0  0  0  0  0  0  0  # atno 10718 bound_to 10713
  154.5637  135.2822  155.0895 H   0  0  0  0  0  0  0  0  0  0  0  0  # atno 10763 bound_to 10752
  154.2294  135.6377  153.5174 H   0  0  0  0  0  0  0  0  0  0  0  0  # atno 10764 bound_to 10752
  153.0036  135.5533  154.6238 H   0  0  0  0  0  0  0  0  0  0  0  0  # atno 10765 bound_to 10752
  139.9084  134.8027  156.2096 H   0  0  0  0  0  0  0  0  0  0  0  0  # atno 11005 bound_to 11000
  144.9728  140.8385  143.5445 LP  0  0  0  0  0  0  0  0  0  0  0  0  # atno 17320 bound_to 7965
  145.2065  139.2226  143.5165 LP  0  0  0  0  0  0  0  0  0  0  0  0  # atno 17321 bound_to 7965
  140.6954  143.2401  151.5014 LP  0  0  0  0  0  0  0  0  0  0  0  0  # atno 17342 bound_to 10162
  139.5648  144.2069  152.1747 LP  0  0  0  0  0  0  0  0  0  0  0  0  # atno 17343 bound_to 10162
  156.6290  130.8658  151.3491 LP  0  0  0  0  0  0  0  0  0  0  0  0  # atno 17370 bound_to 10713
  157.7189  130.9533  150.1363 LP  0  0  0  0  0  0  0  0  0  0  0  0  # atno 17371 bound_to 10713
  141.0474  133.6906  156.1708 LP  0  0  0  0  0  0  0  0  0  0  0  0  # atno 17394 bound_to 11000
  140.6863  134.4713  157.5589 LP  0  0  0  0  0  0  0  0  0  0  0  0  # atno 17395 bound_to 11000

$$$$
