AV-unprocessed.smi:2718|AV-procd|sdf|10490|dock4
  -GOLD-   2272014533D 1   1.00000     0.00000
 Structure written by MMmdl.
 47 48  0  0  0  0  0  0  0  0  1 V2000
  142.1564  134.2602  163.1322 C   0  0  0  0  0  0  0  0  0  0  0  0
  143.1800  135.2877  162.6919 C   0  0  0  0  0  0  0  0  0  0  0  0
  142.6580  136.7117  162.6142 C   0  0  0  0  0  0  0  0  0  0  0  0
  144.4483  134.9424  162.3993 C   0  0  0  0  0  0  0  0  0  0  0  0
  145.5369  135.8565  161.9646 C   0  0  2  0  0  0  0  0  0  0  0  0
  146.2420  135.6452  160.6378 C   0  0  1  0  0  0  0  0  0  0  0  0
  146.5860  136.8457  159.8117 C   0  0  0  0  0  0  0  0  0  0  0  0
  146.2778  137.9979  160.1190 O   0  0  0  0  0  0  0  0  0  0  0  0
  147.2439  136.5485  158.6815 N   0  0  0  0  0  0  0  0  0  0  0  0
  147.6567  137.5157  157.6684 C   0  0  0  0  0  0  0  0  0  0  0  0
  148.9544  137.1032  156.9382 C   0  0  1  0  0  0  0  0  0  0  0  0
  148.8568  135.6828  156.3622 C   0  0  0  0  0  0  0  0  0  0  0  0
  149.3706  138.1005  155.8893 C   0  0  0  0  0  0  0  0  0  0  0  0
  150.5163  138.7936  155.9439 N   0  0  0  0  0  0  0  0  0  0  0  0
  150.5371  139.5740  154.8060 N   0  0  0  0  0  0  0  0  0  0  0  0
  149.4031  139.2748  154.1745 C   0  0  0  0  0  0  0  0  0  0  0  0
  148.6320  138.3662  154.7903 N   0  0  0  0  0  0  0  0  0  0  0  0
  147.3543  137.8334  154.3597 C   0  0  0  0  0  0  0  0  0  0  0  0
  146.9862  135.3973  161.9459 C   0  0  0  0  0  0  0  0  0  0  0  0
  148.0571  136.3354  162.4908 C   0  0  0  0  0  0  0  0  0  0  0  0
  147.3639  133.9604  162.2743 C   0  0  0  0  0  0  0  0  0  0  0  0
  141.7707  134.5115  164.1205 H   0  0  0  0  0  0  0  0  0  0  0  0
  142.5870  133.2595  163.1814 H   0  0  0  0  0  0  0  0  0  0  0  0
  141.3202  134.2357  162.4333 H   0  0  0  0  0  0  0  0  0  0  0  0
  142.3117  137.0378  163.5951 H   0  0  0  0  0  0  0  0  0  0  0  0
  141.8182  136.7651  161.9211 H   0  0  0  0  0  0  0  0  0  0  0  0
  143.4157  137.4177  162.2755 H   0  0  0  0  0  0  0  0  0  0  0  0
  144.7291  133.9019  162.4782 H   0  0  0  0  0  0  0  0  0  0  0  0
  145.3402  136.8839  162.2679 H   0  0  0  0  0  0  0  0  0  0  0  0
  145.9667  134.7556  160.0720 H   0  0  0  0  0  0  0  0  0  0  0  0
  147.4556  135.5783  158.4971 H   0  0  0  0  0  0  0  0  0  0  0  0
  146.8480  137.6757  156.9534 H   0  0  0  0  0  0  0  0  0  0  0  0
  147.8097  138.4686  158.1760 H   0  0  0  0  0  0  0  0  0  0  0  0
  149.7388  137.0638  157.6935 H   0  0  0  0  0  0  0  0  0  0  0  0
  149.8033  135.3751  155.9166 H   0  0  0  0  0  0  0  0  0  0  0  0
  148.0883  135.6176  155.5912 H   0  0  0  0  0  0  0  0  0  0  0  0
  148.6082  134.9606  157.1401 H   0  0  0  0  0  0  0  0  0  0  0  0
  149.1284  139.7312  153.2347 H   0  0  0  0  0  0  0  0  0  0  0  0
  147.0370  138.3186  153.4362 H   0  0  0  0  0  0  0  0  0  0  0  0
  146.6015  138.0120  155.1279 H   0  0  0  0  0  0  0  0  0  0  0  0
  147.4416  136.7614  154.1821 H   0  0  0  0  0  0  0  0  0  0  0  0
  148.9664  136.2580  161.8944 H   0  0  0  0  0  0  0  0  0  0  0  0
  148.2978  136.0782  163.5226 H   0  0  0  0  0  0  0  0  0  0  0  0
  147.7245  137.3728  162.4864 H   0  0  0  0  0  0  0  0  0  0  0  0
  148.3448  133.7229  161.8618 H   0  0  0  0  0  0  0  0  0  0  0  0
  146.6420  133.2582  161.8560 H   0  0  0  0  0  0  0  0  0  0  0  0
  147.3948  133.8126  163.3542 H   0  0  0  0  0  0  0  0  0  0  0  0
  1  2  1  0  0  0  0
  1 22  1  0  0  0  0
  1 23  1  0  0  0  0
  1 24  1  0  0  0  0
  2  3  1  0  0  0  0
  2  4  2  0  0  0  0
  3 25  1  0  0  0  0
  3 26  1  0  0  0  0
  3 27  1  0  0  0  0
  4  5  1  0  0  0  0
  4 28  1  0  0  0  0
  5 19  1  0  0  0  0
  5  6  1  0  0  0  0
  5 29  1  0  0  0  0
  6  7  1  0  0  0  0
  6 19  1  0  0  0  0
  6 30  1  0  0  0  0
  7  8  2  0  0  0  0
  7  9  1  0  0  0  0
  9 10  1  0  0  0  0
  9 31  1  0  0  0  0
 10 11  1  0  0  0  0
 10 32  1  0  0  0  0
 10 33  1  0  0  0  0
 11 12  1  0  0  0  0
 11 13  1  0  0  0  0
 11 34  1  0  0  0  0
 12 35  1  0  0  0  0
 12 36  1  0  0  0  0
 12 37  1  0  0  0  0
 13 17  1  0  0  0  0
 13 14  2  0  0  0  0
 14 15  1  0  0  0  0
 15 16  2  0  0  0  0
 16 17  1  0  0  0  0
 16 38  1  0  0  0  0
 17 18  1  0  0  0  0
 18 39  1  0  0  0  0
 18 40  1  0  0  0  0
 18 41  1  0  0  0  0
 19 20  1  0  0  0  0
 19 21  1  0  0  0  0
 20 42  1  0  0  0  0
 20 43  1  0  0  0  0
 20 44  1  0  0  0  0
 21 45  1  0  0  0  0
 21 46  1  0  0  0  0
 21 47  1  0  0  0  0
M  END
> <s_m_source_file>
AV-unprocessed.smi

> <i_m_source_file_index>
2718

> <i_lp_mmshare_version>
43012

> <i_f3d_flags>
0

> <s_epik_input>
W0NIM11DKFtDSDNdKT1bQ0hdW0NAQEhdKEMxKFtDSDNdKVtDSDNdKVtDQEhdMUMoPU8pW05IXVtDSDJdW0NASF0oW0NIM10pYzJubltjSF1uMltDSDNd

> <s_epik_cmdline>
J2VwaWtfcHl0aG9uJywgJy1waCcsICc3LjAnLCAnLXRuJywgJzgnLCAnLW1hJywgJzIwMCcsICctbWV0YWxfYmluZGluZycsICctaW1hZScsICc8aW5maWxlLm1hZT4nLCAnLW9tYWUnLCAnPG91dGZpbGUubWFlPic=

> <r_lp_tautomer_probability>
1

> <r_epik_Ionization_Penalty>
0.000449586

> <r_epik_Ionization_Penalty_Charging>
0

> <r_epik_Ionization_Penalty_Neutral>
0.000449586

> <r_epik_State_Penalty>
0.000243372

> <r_epik_Charging_Adjusted_Penalty>
0.000243372

> <i_epik_Tot_Q>
0

> <i_epik_Tot_abs_Q>
0

> <r_epik_Metal_State_Penalty>
-0

> <b_epik_Metal_Only>
0

> <s_lp_Force_Field>
OPLS_2005

> <r_lp_Energy>
15.9496

> <b_lp_Chiralities_Consistent>
1

> <s_lp_Variant>
AV-unprocessed.smi:2718-5

> <Gold.Version>
5.8.1

> <Gold.Id.Protein>
6NUR|6NUR_protein|mol2

> <Gold.PLP.Fitness>
36.4573

> <Gold.PLP.PLP>
-28.7967

> <Gold.PLP.part.hbond>
-1.4697

> <Gold.PLP.part.metal>
0.0000

> <Gold.PLP.part.buried>
-4.1056

> <Gold.PLP.part.nonpolar>
-22.9232

> <Gold.PLP.part.repulsive>
0.1156

> <Gold.PLP.ligand.clash>
0.0000

> <Gold.PLP.ligand.torsion>
0.4392

> <Gold.PLP.Chemscore.Hbond>
1.7638

> <Gold.PLP.Chemscore.CHOScore>
1.0000

> <Gold.PLP.Chemscore.Metal>
0.0000

> <Gold.Chemscore.Hbonds>
donor molecule, donor type, donor heavy atom, donor atom, acceptor molecule, acceptor atom, score
      P1  H  6934  6947       L1     8  1.00
      P1  H  7989  7998       L1    15  0.73
      L1  C    16    38       P1  7957  1.00

> <Gold.PLP.Chemscore.Internal.Correction>
0.2478

> <Gold.Rescore>
     Score         DG    S(hbond)    S(metal)    S(lipo)     H(rot)  DE(clash)    DE(int)     intcor
     13.84     -14.44       1.74        0.00      69.72       1.95       0.08       0.51       ----

> <Gold.Chemscore.Fitness>
13.8433

> <Gold.Chemscore.DG>
-14.4374

> <Gold.Chemscore.ZeroCoef>
-5.4800

> <Gold.Chemscore.Hbond>
1.7369

> <Gold.Chemscore.Metal>
0.0000

> <Gold.Chemscore.Lipo>
69.7161

> <Gold.Chemscore.Internal_Hbond>
0.0000

> <Gold.Chemscore.DEClash>
0.0850

> <Gold.Chemscore.DEInternal>
0.5091

> <Gold.Chemscore.Rot>
1.9533

> <Gold.Chemscore.Internal.Correction>
   9.000000E+99

> <Gold.Chemscore.Hbonds>
donor molecule, donor type, donor heavy atom, donor atom, acceptor molecule, acceptor atom, score
      P1  H  6934  6947       L1     8  0.92
      P1  H  7989  7998       L1    15  0.40

> <Gold.Chemscore.Hbond.Weighted>
-5.8011

> <Gold.Chemscore.Metal.Weighted>
-0.0000

> <Gold.Chemscore.Lipo.Weighted>
-8.1568

> <Gold.Chemscore.Internal_Hbond.Weighted>
0.0000

> <Gold.Chemscore.DEClash.Weighted>
0.0850

> <Gold.Chemscore.DEInternal.Weighted>
0.5091

> <Gold.Chemscore.Rot.Weighted>
5.0005

> <Gold.Chemscore.Internal.Correction.Weighted>
   9.000000E+99

> <Gold.Protein.RotatedTorsions>
[ 6907 6896 6895 6894 ] final -120.19 input  -60.11 | X-H torsion
[ 7974 7965 7964 7962 ] final  102.86 input  175.53 | X-H torsion
[ 8008 7997 7996 7995 ] final  149.93 input   59.86 | X-H torsion
[ 10167 10162 10161 10158 ] final  -16.20 input  -65.29 | X-H torsion
[ 10718 10713 10712 10709 ] final  -34.78 input   66.30 | X-H torsion
[ 10763 10752 10751 10750 ] final   32.63 input  -60.55 | X-H torsion
[ 11005 11000 10999 10996 ] final -162.84 input  -57.11 | X-H torsion

> <Gold.Protein.ActiveResidues>
 VAL166  LYS551  ARG553  GLY616  TRP617  ASP618  TYR619  PRO620  LYS621  CYS622 
 ASP623  PHE694  ASN695  SER759  ASP760  ASP761  ALA762  ILE779  LEU786  VAL792 
 PHE793  MET794  SER795  GLU796  ALA797  LYS798  CYS799  TRP800  GLU811  SER814 

> <Gold.Protein.RotatedAtoms>
  150.8371  133.7996  159.3075 H   0  0  0  0  0  0  0  0  0  0  0  0  # atno 6907 bound_to 6896
  151.5708  135.1061  160.0004 H   0  0  0  0  0  0  0  0  0  0  0  0  # atno 6908 bound_to 6896
  152.4441  133.7462  159.6724 H   0  0  0  0  0  0  0  0  0  0  0  0  # atno 6909 bound_to 6896
  145.3536  139.2434  143.3545 H   0  0  0  0  0  0  0  0  0  0  0  0  # atno 7974 bound_to 7965
  156.2736  140.2088  156.5936 H   0  0  0  0  0  0  0  0  0  0  0  0  # atno 8008 bound_to 7997
  154.6963  140.0525  157.0437 H   0  0  0  0  0  0  0  0  0  0  0  0  # atno 8009 bound_to 7997
  155.0797  140.3185  155.4608 H   0  0  0  0  0  0  0  0  0  0  0  0  # atno 8010 bound_to 7997
  140.7230  143.5140  150.9714 H   0  0  0  0  0  0  0  0  0  0  0  0  # atno 10167 bound_to 10162
  156.3465  130.4301  149.7741 H   0  0  0  0  0  0  0  0  0  0  0  0  # atno 10718 bound_to 10713
  153.0252  135.6408  154.1385 H   0  0  0  0  0  0  0  0  0  0  0  0  # atno 10763 bound_to 10752
  154.1115  135.2852  155.3231 H   0  0  0  0  0  0  0  0  0  0  0  0  # atno 10764 bound_to 10752
  154.6328  135.5487  153.7762 H   0  0  0  0  0  0  0  0  0  0  0  0  # atno 10765 bound_to 10752
  140.6047  134.4911  157.5209 H   0  0  0  0  0  0  0  0  0  0  0  0  # atno 11005 bound_to 11000
  146.2957  140.4156  142.8722 LP  0  0  0  0  0  0  0  0  0  0  0  0  # atno 17320 bound_to 7965
  144.8699  140.7258  143.6053 LP  0  0  0  0  0  0  0  0  0  0  0  0  # atno 17321 bound_to 7965
  139.8855  143.7018  152.3152 LP  0  0  0  0  0  0  0  0  0  0  0  0  # atno 17342 bound_to 10162
  139.7315  144.7581  151.0794 LP  0  0  0  0  0  0  0  0  0  0  0  0  # atno 17343 bound_to 10162
  156.4958  130.8106  151.3113 LP  0  0  0  0  0  0  0  0  0  0  0  0  # atno 17370 bound_to 10713
  157.7455  130.9960  150.2766 LP  0  0  0  0  0  0  0  0  0  0  0  0  # atno 17371 bound_to 10713
  139.9217  134.8135  156.1191 LP  0  0  0  0  0  0  0  0  0  0  0  0  # atno 17394 bound_to 11000
  141.0848  133.6739  156.2413 LP  0  0  0  0  0  0  0  0  0  0  0  0  # atno 17395 bound_to 11000

$$$$
