AV-unprocessed.smi:1739|AV-procd|sdf|7005|dock7
  -GOLD-   22720 8213D 1   1.00000     0.00000
 Structure written by MMmdl.
 41 42  0  0  0  0  0  0  0  0  1 V2000
  145.9470  138.1425  151.6194 C   0  0  0  0  0  0  0  0  0  0  0  0
  146.5513  138.1585  153.0290 C   0  0  0  0  0  0  0  0  0  0  0  0
  147.0492  139.4715  153.3918 N   0  0  0  0  0  0  0  0  0  0  0  0
  147.9659  139.7960  154.3725 C   0  0  0  0  0  0  0  0  0  0  0  0
  148.1043  141.1541  154.3147 C   0  0  0  0  0  0  0  0  0  0  0  0
  148.9150  142.0105  155.1022 N   0  0  0  0  0  0  0  0  0  0  0  0
  150.0103  141.6773  155.8046 C   0  0  0  0  0  0  0  0  0  0  0  0
  150.5105  140.5530  155.8440 O   0  0  0  0  0  0  0  0  0  0  0  0
  150.5056  142.7338  156.4652 N   0  0  0  0  0  0  0  0  0  0  0  0
  151.6890  142.7132  157.3198 C   0  0  0  0  0  0  0  0  0  0  0  0
  151.5584  141.5828  158.3631 C   0  0  0  0  0  0  0  0  0  0  0  0
  152.6950  141.6459  159.3995 C   0  0  0  0  0  0  0  0  0  0  0  0
  152.6908  142.9737  160.0247 N   0  0  0  0  0  0  0  0  0  0  0  0
  152.3025  143.1781  161.3065 C   0  0  0  0  0  0  0  0  0  0  0  0
  152.2409  144.6068  161.8514 C   0  0  0  0  0  0  0  0  0  0  0  0
  151.9884  142.2576  162.0614 O   0  0  0  0  0  0  0  0  0  0  0  0
  153.0106  144.0282  159.0546 C   0  0  0  0  0  0  0  0  0  0  0  0
  151.8926  144.0873  157.9984 C   0  0  0  0  0  0  0  0  0  0  0  0
  147.2410  141.5872  153.2750 C   0  0  0  0  0  0  0  0  0  0  0  0
  146.6090  140.5644  152.7196 N   0  0  0  0  0  0  0  0  0  0  0  0
  145.5615  137.1526  151.3750 H   0  0  0  0  0  0  0  0  0  0  0  0
  146.6911  138.4030  150.8659 H   0  0  0  0  0  0  0  0  0  0  0  0
  145.1225  138.8509  151.5367 H   0  0  0  0  0  0  0  0  0  0  0  0
  145.8014  137.8555  153.7607 H   0  0  0  0  0  0  0  0  0  0  0  0
  147.3707  137.4421  153.0993 H   0  0  0  0  0  0  0  0  0  0  0  0
  148.4196  139.0467  155.0042 H   0  0  0  0  0  0  0  0  0  0  0  0
  148.6249  142.9766  155.1418 H   0  0  0  0  0  0  0  0  0  0  0  0
  150.0292  143.6189  156.3717 H   0  0  0  0  0  0  0  0  0  0  0  0
  152.5695  142.4969  156.7115 H   0  0  0  0  0  0  0  0  0  0  0  0
  150.6009  141.6638  158.8804 H   0  0  0  0  0  0  0  0  0  0  0  0
  151.5610  140.6118  157.8665 H   0  0  0  0  0  0  0  0  0  0  0  0
  152.5838  140.8369  160.1227 H   0  0  0  0  0  0  0  0  0  0  0  0
  153.6568  141.4776  158.9131 H   0  0  0  0  0  0  0  0  0  0  0  0
  151.5600  145.2186  161.2586 H   0  0  0  0  0  0  0  0  0  0  0  0
  153.2298  145.0662  161.8445 H   0  0  0  0  0  0  0  0  0  0  0  0
  151.8804  144.6097  162.8805 H   0  0  0  0  0  0  0  0  0  0  0  0
  153.1476  145.0100  159.5052 H   0  0  0  0  0  0  0  0  0  0  0  0
  153.9620  143.7953  158.5740 H   0  0  0  0  0  0  0  0  0  0  0  0
  152.1292  144.8450  157.2505 H   0  0  0  0  0  0  0  0  0  0  0  0
  150.9654  144.4053  158.4779 H   0  0  0  0  0  0  0  0  0  0  0  0
  147.0558  142.5872  152.9115 H   0  0  0  0  0  0  0  0  0  0  0  0
  1  2  1  0  0  0  0
  1 21  1  0  0  0  0
  1 22  1  0  0  0  0
  1 23  1  0  0  0  0
  2  3  1  0  0  0  0
  2 24  1  0  0  0  0
  2 25  1  0  0  0  0
  3 20  1  0  0  0  0
  3  4  1  0  0  0  0
  4  5  2  0  0  0  0
  4 26  1  0  0  0  0
  5  6  1  0  0  0  0
  5 19  1  0  0  0  0
  6  7  1  0  0  0  0
  6 27  1  0  0  0  0
  7  8  2  0  0  0  0
  7  9  1  0  0  0  0
  9 10  1  0  0  0  0
  9 28  1  0  0  0  0
 10 18  1  0  0  0  0
 10 11  1  0  0  0  0
 10 29  1  0  0  0  0
 11 12  1  0  0  0  0
 11 30  1  0  0  0  0
 11 31  1  0  0  0  0
 12 13  1  0  0  0  0
 12 32  1  0  0  0  0
 12 33  1  0  0  0  0
 13 14  1  0  0  0  0
 13 17  1  0  0  0  0
 14 15  1  0  0  0  0
 14 16  2  0  0  0  0
 15 34  1  0  0  0  0
 15 35  1  0  0  0  0
 15 36  1  0  0  0  0
 17 18  1  0  0  0  0
 17 37  1  0  0  0  0
 17 38  1  0  0  0  0
 18 39  1  0  0  0  0
 18 40  1  0  0  0  0
 19 20  2  0  0  0  0
 19 41  1  0  0  0  0
M  END
> <s_m_source_file>
AV-unprocessed.smi

> <i_m_source_file_index>
1739

> <i_lp_mmshare_version>
43012

> <i_f3d_flags>
0

> <s_epik_input>
W0NIM11bQ0gyXW4xW2NIXWMoW2NIXW4xKVtOSF1DKD1PKVtOSF1bQ0hdMltDSDJdW0NIMl1OKEMoPU8pW0NIM10pW0NIMl1bQ0gyXTI=

> <s_epik_cmdline>
J2VwaWtfcHl0aG9uJywgJy1waCcsICc3LjAnLCAnLXRuJywgJzgnLCAnLW1hJywgJzIwMCcsICctbWV0YWxfYmluZGluZycsICctaW1hZScsICc8aW5maWxlLm1hZT4nLCAnLW9tYWUnLCAnPG91dGZpbGUubWFlPic=

> <r_lp_tautomer_probability>
1

> <r_epik_Ionization_Penalty>
0.000185887

> <r_epik_Ionization_Penalty_Charging>
0

> <r_epik_Ionization_Penalty_Neutral>
0.000185887

> <r_epik_State_Penalty>
-0

> <r_epik_Charging_Adjusted_Penalty>
0

> <i_epik_Tot_Q>
0

> <i_epik_Tot_abs_Q>
0

> <r_epik_Metal_State_Penalty>
-0

> <b_epik_Metal_Only>
0

> <s_lp_Force_Field>
OPLS_2005

> <r_lp_Energy>
25.6807

> <b_lp_Chiralities_Consistent>
1

> <s_lp_Variant>
AV-unprocessed.smi:1739-1

> <Gold.Version>
5.8.1

> <Gold.Id.Protein>
6NUR|6NUR_protein|mol2

> <Gold.PLP.Fitness>
46.1681

> <Gold.PLP.PLP>
-38.1839

> <Gold.PLP.part.hbond>
-3.0000

> <Gold.PLP.part.metal>
0.0000

> <Gold.PLP.part.buried>
-0.1708

> <Gold.PLP.part.nonpolar>
-35.6643

> <Gold.PLP.part.repulsive>
0.8592

> <Gold.PLP.ligand.clash>
0.0000

> <Gold.PLP.ligand.torsion>
0.4207

> <Gold.PLP.Chemscore.Hbond>
2.9357

> <Gold.PLP.Chemscore.CHOScore>
0.0000

> <Gold.PLP.Chemscore.Metal>
0.0000

> <Gold.Chemscore.Hbonds>
donor molecule, donor type, donor heavy atom, donor atom, acceptor molecule, acceptor atom, score
      L1  H     6    27       P1  8028  1.00
      L1  H     9    28       P1  8028  1.00
      P1  H  6933  6945       L1    16  0.96

> <Gold.PLP.Chemscore.Internal.Correction>
0.0185

> <Gold.Rescore>
     Score         DG    S(hbond)    S(metal)    S(lipo)     H(rot)  DE(clash)    DE(int)     intcor
     17.10     -22.80       2.58        0.00     101.07       1.22       3.35       2.34       ----

> <Gold.Chemscore.Fitness>
17.1032

> <Gold.Chemscore.DG>
-22.7953

> <Gold.Chemscore.ZeroCoef>
-5.4800

> <Gold.Chemscore.Hbond>
2.5763

> <Gold.Chemscore.Metal>
0.0000

> <Gold.Chemscore.Lipo>
101.0685

> <Gold.Chemscore.Internal_Hbond>
0.0000

> <Gold.Chemscore.DEClash>
3.3488

> <Gold.Chemscore.DEInternal>
2.3433

> <Gold.Chemscore.Rot>
1.2166

> <Gold.Chemscore.Internal.Correction>
   9.000000E+99

> <Gold.Chemscore.Hbonds>
donor molecule, donor type, donor heavy atom, donor atom, acceptor molecule, acceptor atom, score
      L1  H     6    27       P1  8028  0.97
      L1  H     9    28       P1  8028  0.98
      P1  H  6933  6945       L1    16  0.85

> <Gold.Chemscore.Hbond.Weighted>
-8.6048

> <Gold.Chemscore.Metal.Weighted>
-0.0000

> <Gold.Chemscore.Lipo.Weighted>
-11.8250

> <Gold.Chemscore.Internal_Hbond.Weighted>
0.0000

> <Gold.Chemscore.DEClash.Weighted>
3.3488

> <Gold.Chemscore.DEInternal.Weighted>
2.3433

> <Gold.Chemscore.Rot.Weighted>
3.1145

> <Gold.Chemscore.Internal.Correction.Weighted>
   9.000000E+99

> <Gold.Protein.RotatedTorsions>
[ 6907 6896 6895 6894 ] final   96.11 input  -60.11 | X-H torsion
[ 7974 7965 7964 7962 ] final   89.74 input  175.53 | X-H torsion
[ 8008 7997 7996 7995 ] final -162.49 input   59.86 | X-H torsion
[ 10167 10162 10161 10158 ] final  -29.69 input  -65.29 | X-H torsion
[ 10718 10713 10712 10709 ] final  103.42 input   66.30 | X-H torsion
[ 10763 10752 10751 10750 ] final  152.04 input  -60.55 | X-H torsion
[ 11005 11000 10999 10996 ] final  -26.68 input  -57.11 | X-H torsion

> <Gold.Protein.ActiveResidues>
 VAL166  LYS551  ARG553  GLY616  TRP617  ASP618  TYR619  PRO620  LYS621  CYS622 
 ASP623  PHE694  ASN695  SER759  ASP760  ASP761  ALA762  ILE779  LEU786  VAL792 
 PHE793  MET794  SER795  GLU796  ALA797  LYS798  CYS799  TRP800  GLU811  SER814 

> <Gold.Protein.RotatedAtoms>
  152.5438  134.0936  159.8287 H   0  0  0  0  0  0  0  0  0  0  0  0  # atno 6907 bound_to 6896
  151.1023  133.5227  159.2617 H   0  0  0  0  0  0  0  0  0  0  0  0  # atno 6908 bound_to 6896
  151.1978  135.0439  159.8914 H   0  0  0  0  0  0  0  0  0  0  0  0  # atno 6909 bound_to 6896
  145.5283  139.2282  143.2633 H   0  0  0  0  0  0  0  0  0  0  0  0  # atno 7974 bound_to 7965
  155.8076  140.0901  157.1922 H   0  0  0  0  0  0  0  0  0  0  0  0  # atno 8008 bound_to 7997
  154.3980  140.1460  156.3408 H   0  0  0  0  0  0  0  0  0  0  0  0  # atno 8009 bound_to 7997
  155.8398  140.3439  155.5627 H   0  0  0  0  0  0  0  0  0  0  0  0  # atno 8010 bound_to 7997
  140.7258  143.3908  151.1433 H   0  0  0  0  0  0  0  0  0  0  0  0  # atno 10167 bound_to 10162
  157.6773  131.0778  150.5553 H   0  0  0  0  0  0  0  0  0  0  0  0  # atno 10718 bound_to 10713
  154.1135  135.2837  155.3225 H   0  0  0  0  0  0  0  0  0  0  0  0  # atno 10763 bound_to 10752
  154.6473  135.5381  153.7863 H   0  0  0  0  0  0  0  0  0  0  0  0  # atno 10764 bound_to 10752
  153.0337  135.6501  154.1292 H   0  0  0  0  0  0  0  0  0  0  0  0  # atno 10765 bound_to 10752
  140.9051  133.7498  156.0595 H   0  0  0  0  0  0  0  0  0  0  0  0  # atno 11005 bound_to 11000
  146.2061  140.6098  142.9080 LP  0  0  0  0  0  0  0  0  0  0  0  0  # atno 17320 bound_to 7965
  144.7639  140.5486  143.6716 LP  0  0  0  0  0  0  0  0  0  0  0  0  # atno 17321 bound_to 7965
  139.7513  143.8775  152.3077 LP  0  0  0  0  0  0  0  0  0  0  0  0  # atno 17342 bound_to 10162
  139.8629  144.7108  150.9078 LP  0  0  0  0  0  0  0  0  0  0  0  0  # atno 17343 bound_to 10162
  156.5857  130.4316  149.5958 LP  0  0  0  0  0  0  0  0  0  0  0  0  # atno 17370 bound_to 10713
  156.2625  130.6970  151.1743 LP  0  0  0  0  0  0  0  0  0  0  0  0  # atno 17371 bound_to 10713
  140.8181  134.3321  157.5390 LP  0  0  0  0  0  0  0  0  0  0  0  0  # atno 17394 bound_to 11000
  139.8748  134.9293  156.3473 LP  0  0  0  0  0  0  0  0  0  0  0  0  # atno 17395 bound_to 11000

$$$$
