AV-unprocessed.smi:3314|AV-procd|sdf|12731|dock3
  -GOLD-   2272019 73D 1   1.00000     0.00000
 Structure written by MMmdl.
 38 39  0  0  0  0  0  0  0  0  2 V2000
  151.6162  145.5086  159.7559 C   0  0  0  0  0  0  0  0  0  0  0  0
  151.9290  144.0545  159.4721 C   0  0  0  0  0  0  0  0  0  0  0  0
  152.8298  143.3365  160.2818 C   0  0  0  0  0  0  0  0  0  0  0  0
  153.0782  141.9867  159.9645 C   0  0  0  0  0  0  0  0  0  0  0  0
  154.0350  141.1543  160.7920 C   0  0  0  0  0  0  0  0  0  0  0  0
  152.4934  141.3550  158.9241 N   0  0  0  0  0  0  0  0  0  0  0  0
  151.6241  142.0369  158.1378 C   0  0  0  0  0  0  0  0  0  0  0  0
  150.9587  141.4665  157.0209 N   0  0  0  0  0  0  0  0  0  0  0  0
  151.4126  140.5295  156.1658 C   0  0  0  0  0  0  0  0  0  0  0  0
  152.5160  139.9891  156.2503 O   0  0  0  0  0  0  0  0  0  0  0  0
  150.4439  140.1223  155.0452 C   0  0  2  0  0  0  0  0  0  0  0  0
  149.2598  141.1057  154.8884 C   0  0  0  0  0  0  0  0  0  0  0  0
  148.3168  140.6261  153.8522 N   0  3  2  0  0  0  0  0  0  0  0  0
  147.1848  141.5529  153.6380 C   0  0  0  0  0  0  0  0  0  0  0  0
  147.8754  139.2426  154.1374 C   0  0  0  0  0  0  0  0  0  0  0  0
  149.0935  138.3207  154.3023 C   0  0  0  0  0  0  0  0  0  0  0  0
  149.9320  138.8223  155.3355 O   0  0  0  0  0  0  0  0  0  0  0  0
  151.3196  143.3939  158.3865 C   0  0  0  0  0  0  0  0  0  0  0  0
  152.1712  145.8725  160.6210 H   0  0  0  0  0  0  0  0  0  0  0  0
  150.5519  145.6338  159.9558 H   0  0  0  0  0  0  0  0  0  0  0  0
  151.8804  146.1263  158.8974 H   0  0  0  0  0  0  0  0  0  0  0  0
  153.3175  143.8074  161.1228 H   0  0  0  0  0  0  0  0  0  0  0  0
  154.4870  141.7457  161.5890 H   0  0  0  0  0  0  0  0  0  0  0  0
  154.8355  140.7598  160.1653 H   0  0  0  0  0  0  0  0  0  0  0  0
  153.5093  140.3147  161.2475 H   0  0  0  0  0  0  0  0  0  0  0  0
  150.0297  141.8195  156.8432 H   0  0  0  0  0  0  0  0  0  0  0  0
  151.0161  140.0835  154.1165 H   0  0  0  0  0  0  0  0  0  0  0  0
  148.7300  141.2179  155.8363 H   0  0  0  0  0  0  0  0  0  0  0  0
  149.6251  142.0940  154.6050 H   0  0  0  0  0  0  0  0  0  0  0  0
  146.5709  141.6370  154.5357 H   0  0  0  0  0  0  0  0  0  0  0  0
  146.5518  141.2033  152.8219 H   0  0  0  0  0  0  0  0  0  0  0  0
  147.5463  142.5479  153.3763 H   0  0  0  0  0  0  0  0  0  0  0  0
  147.2720  139.2292  155.0466 H   0  0  0  0  0  0  0  0  0  0  0  0
  147.2427  138.8815  153.3255 H   0  0  0  0  0  0  0  0  0  0  0  0
  148.7697  137.3144  154.5684 H   0  0  0  0  0  0  0  0  0  0  0  0
  149.6529  138.2395  153.3690 H   0  0  0  0  0  0  0  0  0  0  0  0
  150.6252  143.9268  157.7528 H   0  0  0  0  0  0  0  0  0  0  0  0
  148.8324  140.5936  152.9841 H   0  0  0  0  0  0  0  0  0  0  0  0
  1  2  1  0  0  0  0
  1 19  1  0  0  0  0
  1 20  1  0  0  0  0
  1 21  1  0  0  0  0
  2 18  1  0  0  0  0
  2  3  2  0  0  0  0
  3  4  1  0  0  0  0
  3 22  1  0  0  0  0
  4  5  1  0  0  0  0
  4  6  2  0  0  0  0
  5 23  1  0  0  0  0
  5 24  1  0  0  0  0
  5 25  1  0  0  0  0
  6  7  1  0  0  0  0
  7  8  1  0  0  0  0
  7 18  2  0  0  0  0
  8  9  1  0  0  0  0
  8 26  1  0  0  0  0
  9 10  2  0  0  0  0
  9 11  1  0  0  0  0
 11 17  1  0  0  0  0
 11 12  1  0  0  0  0
 11 27  1  0  0  0  0
 12 13  1  0  0  0  0
 12 28  1  0  0  0  0
 12 29  1  0  0  0  0
 13 14  1  0  0  0  0
 13 15  1  0  0  0  0
 13 38  1  0  0  0  0
 14 30  1  0  0  0  0
 14 31  1  0  0  0  0
 14 32  1  0  0  0  0
 15 16  1  0  0  0  0
 15 33  1  0  0  0  0
 15 34  1  0  0  0  0
 16 17  1  0  0  0  0
 16 35  1  0  0  0  0
 16 36  1  0  0  0  0
 18 37  1  0  0  0  0
M  CHG  1  13   1
M  END
> <s_m_source_file>
AV-unprocessed.smi

> <i_m_source_file_index>
3314

> <i_lp_mmshare_version>
43012

> <i_f3d_flags>
0

> <s_epik_input>
W0NIM11jMVtjSF1jKFtDSDNdKW5jKFtjSF0xKVtOSF1DKD1PKVtDQEBIXTJbQ0gyXU4oW0NIM10pW0NIMl1bQ0gyXU8y

> <s_epik_cmdline>
J2VwaWtfcHl0aG9uJywgJy1waCcsICc3LjAnLCAnLXRuJywgJzgnLCAnLW1hJywgJzIwMCcsICctbWV0YWxfYmluZGluZycsICctaW1hZScsICc8aW5maWxlLm1hZT4nLCAnLW9tYWUnLCAnPG91dGZpbGUubWFlPic=

> <r_epik_Ionization_Penalty>
0.32442

> <r_epik_Ionization_Penalty_Charging>
0.314023

> <r_epik_Ionization_Penalty_Neutral>
0.0103972

> <r_epik_State_Penalty>
0.29453

> <r_epik_Charging_Adjusted_Penalty>
0.608553

> <i_epik_Tot_Q>
1

> <i_epik_Tot_abs_Q>
1

> <r_epik_Metal_State_Penalty>
0.286909

> <b_epik_Metal_Only>
0

> <s_lp_Force_Field>
OPLS_2005

> <r_lp_Energy>
16.487

> <b_lp_Chiralities_Consistent>
1

> <s_lp_Variant>
AV-unprocessed.smi:3314-1

> <Gold.Version>
5.8.1

> <Gold.Id.Protein>
6NUR|6NUR_protein|mol2

> <Gold.PLP.Fitness>
45.6612

> <Gold.PLP.PLP>
-40.7293

> <Gold.PLP.part.hbond>
-2.0000

> <Gold.PLP.part.metal>
0.0000

> <Gold.PLP.part.buried>
-3.7540

> <Gold.PLP.part.nonpolar>
-34.5802

> <Gold.PLP.part.repulsive>
0.2659

> <Gold.PLP.ligand.clash>
0.0000

> <Gold.PLP.ligand.torsion>
0.5352

> <Gold.PLP.Chemscore.Hbond>
2.0000

> <Gold.PLP.Chemscore.CHOScore>
0.0000

> <Gold.PLP.Chemscore.Metal>
0.0000

> <Gold.Chemscore.Hbonds>
donor molecule, donor type, donor heavy atom, donor atom, acceptor molecule, acceptor atom, score
      L1  H    13    38       P1  7957  0.94
      P1  H  7997  8009       L1    10  1.00

> <Gold.PLP.Chemscore.Internal.Correction>
0.0024

> <Gold.Rescore>
     Score         DG    S(hbond)    S(metal)    S(lipo)     H(rot)  DE(clash)    DE(int)     intcor
     19.72     -21.48       1.99        0.00     101.86       1.00       0.18       1.58       ----

> <Gold.Chemscore.Fitness>
19.7243

> <Gold.Chemscore.DG>
-21.4826

> <Gold.Chemscore.ZeroCoef>
-5.4800

> <Gold.Chemscore.Hbond>
1.9896

> <Gold.Chemscore.Metal>
0.0000

> <Gold.Chemscore.Lipo>
101.8580

> <Gold.Chemscore.Internal_Hbond>
0.0000

> <Gold.Chemscore.DEClash>
0.1777

> <Gold.Chemscore.DEInternal>
1.5806

> <Gold.Chemscore.Rot>
1.0000

> <Gold.Chemscore.Internal.Correction>
   9.000000E+99

> <Gold.Chemscore.Hbonds>
donor molecule, donor type, donor heavy atom, donor atom, acceptor molecule, acceptor atom, score
      L1  H    13    38       P1  7957  0.90
      P1  H  7997  8009       L1    10  0.99

> <Gold.Chemscore.Hbond.Weighted>
-6.6452

> <Gold.Chemscore.Metal.Weighted>
-0.0000

> <Gold.Chemscore.Lipo.Weighted>
-11.9174

> <Gold.Chemscore.Internal_Hbond.Weighted>
0.0000

> <Gold.Chemscore.DEClash.Weighted>
0.1777

> <Gold.Chemscore.DEInternal.Weighted>
1.5806

> <Gold.Chemscore.Rot.Weighted>
2.5600

> <Gold.Chemscore.Internal.Correction.Weighted>
   9.000000E+99

> <Gold.Protein.RotatedTorsions>
[ 6907 6896 6895 6894 ] final -164.20 input  -60.11 | X-H torsion
[ 7974 7965 7964 7962 ] final -110.45 input  175.53 | X-H torsion
[ 8008 7997 7996 7995 ] final -172.02 input   59.86 | X-H torsion
[ 10167 10162 10161 10158 ] final  -83.03 input  -65.29 | X-H torsion
[ 10718 10713 10712 10709 ] final  107.55 input   66.30 | X-H torsion
[ 10763 10752 10751 10750 ] final  -35.14 input  -60.55 | X-H torsion
[ 11005 11000 10999 10996 ] final  177.62 input  -57.11 | X-H torsion

> <Gold.Protein.ActiveResidues>
 VAL166  LYS551  ARG553  GLY616  TRP617  ASP618  TYR619  PRO620  LYS621  CYS622 
 ASP623  PHE694  ASN695  SER759  ASP760  ASP761  ALA762  ILE779  LEU786  VAL792 
 PHE793  MET794  SER795  GLU796  ALA797  LYS798  CYS799  TRP800  GLU811  SER814 

> <Gold.Protein.RotatedAtoms>
  151.4080  133.3736  159.2740 H   0  0  0  0  0  0  0  0  0  0  0  0  # atno 6907 bound_to 6896
  150.9384  134.8796  159.7607 H   0  0  0  0  0  0  0  0  0  0  0  0  # atno 6908 bound_to 6896
  152.5060  134.4029  159.9475 H   0  0  0  0  0  0  0  0  0  0  0  0  # atno 6909 bound_to 6896
  145.1681  140.8912  143.3551 H   0  0  0  0  0  0  0  0  0  0  0  0  # atno 7974 bound_to 7965
  155.9391  140.1105  157.1070 H   0  0  0  0  0  0  0  0  0  0  0  0  # atno 8008 bound_to 7997
  154.4085  140.1222  156.4969 H   0  0  0  0  0  0  0  0  0  0  0  0  # atno 8009 bound_to 7997
  155.6984  140.3472  155.4925 H   0  0  0  0  0  0  0  0  0  0  0  0  # atno 8010 bound_to 7997
  140.4265  143.2565  151.8819 H   0  0  0  0  0  0  0  0  0  0  0  0  # atno 10167 bound_to 10162
  157.6623  131.0875  150.6173 H   0  0  0  0  0  0  0  0  0  0  0  0  # atno 10718 bound_to 10713
  153.8583  135.6842  153.4785 H   0  0  0  0  0  0  0  0  0  0  0  0  # atno 10763 bound_to 10752
  153.1357  135.4679  154.9416 H   0  0  0  0  0  0  0  0  0  0  0  0  # atno 10764 bound_to 10752
  154.7770  135.3256  154.8019 H   0  0  0  0  0  0  0  0  0  0  0  0  # atno 10765 bound_to 10752
  140.3861  134.6903  157.4480 H   0  0  0  0  0  0  0  0  0  0  0  0  # atno 11005 bound_to 11000
  145.0261  139.3382  143.6048 LP  0  0  0  0  0  0  0  0  0  0  0  0  # atno 17320 bound_to 7965
  146.3472  139.9580  142.8721 LP  0  0  0  0  0  0  0  0  0  0  0  0  # atno 17321 bound_to 7965
  139.4783  144.5381  151.8568 LP  0  0  0  0  0  0  0  0  0  0  0  0  # atno 17342 bound_to 10162
  140.4476  144.1900  150.5895 LP  0  0  0  0  0  0  0  0  0  0  0  0  # atno 17343 bound_to 10162
  156.6476  130.4476  149.5730 LP  0  0  0  0  0  0  0  0  0  0  0  0  # atno 17370 bound_to 10713
  156.2162  130.6709  151.1321 LP  0  0  0  0  0  0  0  0  0  0  0  0  # atno 17371 bound_to 10713
  140.0441  134.6224  155.8943 LP  0  0  0  0  0  0  0  0  0  0  0  0  # atno 17394 bound_to 11000
  141.1907  133.6569  156.5422 LP  0  0  0  0  0  0  0  0  0  0  0  0  # atno 17395 bound_to 11000

$$$$
