AV-unprocessed.smi:1240|AV-procd|sdf|5210|dock6
  -GOLD-   22720 4303D 1   1.00000     0.00000
 Structure written by MMmdl.
 49 51  0  0  0  0  0  0  0  0  3 V2000
  144.5481  136.6639  152.2986 O   0  0  0  0  0  0  0  0  0  0  0  0
  145.7357  136.4270  152.0792 C   0  0  0  0  0  0  0  0  0  0  0  0
  146.7089  137.3336  152.2483 N   0  0  0  0  0  0  0  0  0  0  0  0
  146.4972  138.7090  152.6866 C   0  0  0  0  0  0  0  0  0  0  0  0
  147.7949  139.4268  153.1574 C   0  0  1  0  0  0  0  0  0  0  0  0
  147.5352  140.7311  153.9634 C   0  0  1  0  0  0  0  0  0  0  0  0
  146.8709  141.8357  153.1568 C   0  0  0  0  0  0  0  0  0  0  0  0
  146.3500  142.7657  154.2454 C   0  0  0  0  0  0  0  0  0  0  0  0
  145.9949  141.9151  155.3278 O   0  0  0  0  0  0  0  0  0  0  0  0
  146.5405  140.6156  155.1258 C   0  0  0  0  0  0  0  0  0  0  0  0
  148.6788  138.5130  153.9424 N   0  3  0  0  0  0  0  0  0  0  0  0
  149.9942  139.0685  154.3515 C   0  0  0  0  0  0  0  0  0  0  0  0
  150.8534  137.9655  154.9911 C   0  0  0  0  0  0  0  0  0  0  0  0
  150.1602  137.4065  156.1005 O   0  0  0  0  0  0  0  0  0  0  0  0
  148.9312  136.8016  155.7152 C   0  0  0  0  0  0  0  0  0  0  0  0
  148.0050  137.8596  155.0915 C   0  0  0  0  0  0  0  0  0  0  0  0
  146.2326  135.2463  151.6713 N   0  0  0  0  0  0  0  0  0  0  0  0
  145.5340  134.0460  151.3656 C   0  0  0  0  0  0  0  0  0  0  0  0
  144.1280  134.0566  151.5044 C   0  0  0  0  0  0  0  0  0  0  0  0
  143.3923  132.8857  151.2296 C   0  0  0  0  0  0  0  0  0  0  0  0
  144.0352  131.7623  150.8458 N   0  3  0  0  0  0  0  0  0  0  0  0
  145.3773  131.6990  150.7120 C   0  0  0  0  0  0  0  0  0  0  0  0
  146.1660  132.8384  150.9726 C   0  0  0  0  0  0  0  0  0  0  0  0
  147.6605  137.0590  152.0504 H   0  0  0  0  0  0  0  0  0  0  0  0
  146.0533  139.2458  151.8481 H   0  0  0  0  0  0  0  0  0  0  0  0
  145.7447  138.7032  153.4759 H   0  0  0  0  0  0  0  0  0  0  0  0
  148.3641  139.7167  152.2730 H   0  0  0  0  0  0  0  0  0  0  0  0
  148.4755  141.1142  154.3623 H   0  0  0  0  0  0  0  0  0  0  0  0
  147.5522  142.3395  152.4706 H   0  0  0  0  0  0  0  0  0  0  0  0
  146.0366  141.4366  152.5774 H   0  0  0  0  0  0  0  0  0  0  0  0
  147.1385  143.4421  154.5774 H   0  0  0  0  0  0  0  0  0  0  0  0
  145.5029  143.3665  153.9138 H   0  0  0  0  0  0  0  0  0  0  0  0
  145.7217  139.9411  154.8720 H   0  0  0  0  0  0  0  0  0  0  0  0
  147.0078  140.2525  156.0412 H   0  0  0  0  0  0  0  0  0  0  0  0
  150.5188  139.4844  153.4920 H   0  0  0  0  0  0  0  0  0  0  0  0
  149.8579  139.8770  155.0706 H   0  0  0  0  0  0  0  0  0  0  0  0
  151.0946  137.1873  154.2651 H   0  0  0  0  0  0  0  0  0  0  0  0
  151.7993  138.3810  155.3391 H   0  0  0  0  0  0  0  0  0  0  0  0
  149.1180  135.9857  155.0152 H   0  0  0  0  0  0  0  0  0  0  0  0
  148.4613  136.3639  156.5960 H   0  0  0  0  0  0  0  0  0  0  0  0
  147.7365  138.6014  155.8439 H   0  0  0  0  0  0  0  0  0  0  0  0
  147.0794  137.3852  154.7637 H   0  0  0  0  0  0  0  0  0  0  0  0
  147.2389  135.1856  151.6160 H   0  0  0  0  0  0  0  0  0  0  0  0
  143.6125  134.9540  151.8145 H   0  0  0  0  0  0  0  0  0  0  0  0
  142.3171  132.8142  151.3073 H   0  0  0  0  0  0  0  0  0  0  0  0
  145.7792  130.7433  150.4089 H   0  0  0  0  0  0  0  0  0  0  0  0
  147.2378  132.7565  150.8782 H   0  0  0  0  0  0  0  0  0  0  0  0
  148.8906  137.7570  153.3070 H   0  0  0  0  0  0  0  0  0  0  0  0
  143.4848  130.9245  150.6540 H   0  0  0  0  0  0  0  0  0  0  0  0
  1  2  2  0  0  0  0
  2  3  1  0  0  0  0
  2 17  1  0  0  0  0
  3  4  1  0  0  0  0
  3 24  1  0  0  0  0
  4  5  1  0  0  0  0
  4 25  1  0  0  0  0
  4 26  1  0  0  0  0
  5  6  1  0  0  0  0
  5 11  1  0  0  0  0
  5 27  1  0  0  0  0
  6 10  1  0  0  0  0
  6  7  1  0  0  0  0
  6 28  1  0  0  0  0
  7  8  1  0  0  0  0
  7 29  1  0  0  0  0
  7 30  1  0  0  0  0
  8  9  1  0  0  0  0
  8 31  1  0  0  0  0
  8 32  1  0  0  0  0
  9 10  1  0  0  0  0
 10 33  1  0  0  0  0
 10 34  1  0  0  0  0
 11 16  1  0  0  0  0
 11 12  1  0  0  0  0
 11 48  1  0  0  0  0
 12 13  1  0  0  0  0
 12 35  1  0  0  0  0
 12 36  1  0  0  0  0
 13 14  1  0  0  0  0
 13 37  1  0  0  0  0
 13 38  1  0  0  0  0
 14 15  1  0  0  0  0
 15 16  1  0  0  0  0
 15 39  1  0  0  0  0
 15 40  1  0  0  0  0
 16 41  1  0  0  0  0
 16 42  1  0  0  0  0
 17 18  1  0  0  0  0
 17 43  1  0  0  0  0
 18 23  1  0  0  0  0
 18 19  2  0  0  0  0
 19 20  1  0  0  0  0
 19 44  1  0  0  0  0
 20 21  2  0  0  0  0
 20 45  1  0  0  0  0
 21 22  1  0  0  0  0
 21 49  1  0  0  0  0
 22 23  2  0  0  0  0
 22 46  1  0  0  0  0
 23 47  1  0  0  0  0
M  CHG  1  11   1
M  CHG  1  21   1
M  END
> <s_m_source_file>
AV-unprocessed.smi

> <i_m_source_file_index>
1240

> <i_lp_mmshare_version>
43012

> <i_f3d_flags>
0

> <s_epik_input>
W2NIXTFbY0hdbltjSF1bY0hdYzFbTkhdQyg9TylbTkhdW0NIMl1bQ0BIXShbQ0BASF0yW0NIMl1bQ0gyXU9bQ0gyXTIpTjNbQ0gyXVtDSDJdT1tDSDJdW0NIMl0z

> <s_epik_cmdline>
J2VwaWtfcHl0aG9uJywgJy1waCcsICc3LjAnLCAnLXRuJywgJzgnLCAnLW1hJywgJzIwMCcsICctbWV0YWxfYmluZGluZycsICctaW1hZScsICc8aW5maWxlLm1hZT4nLCAnLW9tYWUnLCAnPG91dGZpbGUubWFlPic=

> <r_epik_Ionization_Penalty>
2.08105

> <r_epik_Ionization_Penalty_Charging>
2.08103

> <r_epik_Ionization_Penalty_Neutral>
2.04144e-05

> <r_epik_State_Penalty>
2.15598

> <r_epik_Charging_Adjusted_Penalty>
4.23701

> <i_epik_Tot_Q>
2

> <i_epik_Tot_abs_Q>
2

> <r_epik_Metal_State_Penalty>
2.25158

> <b_epik_Metal_Only>
0

> <s_lp_Force_Field>
OPLS_2005

> <r_lp_Energy>
49.3852

> <b_lp_Chiralities_Consistent>
1

> <s_lp_Variant>
AV-unprocessed.smi:1240-16

> <Gold.Version>
5.8.1

> <Gold.Id.Protein>
6NUR|6NUR_protein|mol2

> <Gold.PLP.Fitness>
48.0335

> <Gold.PLP.PLP>
-37.0446

> <Gold.PLP.part.hbond>
-3.5651

> <Gold.PLP.part.metal>
0.0000

> <Gold.PLP.part.buried>
-3.9255

> <Gold.PLP.part.nonpolar>
-30.9129

> <Gold.PLP.part.repulsive>
0.6066

> <Gold.PLP.ligand.clash>
0.0000

> <Gold.PLP.ligand.torsion>
0.4315

> <Gold.PLP.Chemscore.Hbond>
3.8640

> <Gold.PLP.Chemscore.CHOScore>
0.0000

> <Gold.PLP.Chemscore.Metal>
0.0000

> <Gold.Chemscore.Hbonds>
donor molecule, donor type, donor heavy atom, donor atom, acceptor molecule, acceptor atom, score
      L1  H     3    24       P1  7948  0.99
      L1  H    11    48       P1  7948  1.76
      L1  H    17    43       P1  7948  0.90

> <Gold.PLP.Chemscore.Internal.Correction>
0.2597

> <Gold.Rescore>
     Score         DG    S(hbond)    S(metal)    S(lipo)     H(rot)  DE(clash)    DE(int)     intcor
     18.34     -20.63       2.71        0.00      90.32       1.74       0.35       1.94       ----

> <Gold.Chemscore.Fitness>
18.3389

> <Gold.Chemscore.DG>
-20.6348

> <Gold.Chemscore.ZeroCoef>
-5.4800

> <Gold.Chemscore.Hbond>
2.7088

> <Gold.Chemscore.Metal>
0.0000

> <Gold.Chemscore.Lipo>
90.3170

> <Gold.Chemscore.Internal_Hbond>
0.0000

> <Gold.Chemscore.DEClash>
0.3526

> <Gold.Chemscore.DEInternal>
1.9434

> <Gold.Chemscore.Rot>
1.7421

> <Gold.Chemscore.Internal.Correction>
   9.000000E+99

> <Gold.Chemscore.Hbonds>
donor molecule, donor type, donor heavy atom, donor atom, acceptor molecule, acceptor atom, score
      L1  H     3    24       P1  7948  0.92
      L1  H    11    48       P1  7948  0.86
      L1  H    17    43       P1  7948  0.80

> <Gold.Chemscore.Hbond.Weighted>
-9.0474

> <Gold.Chemscore.Metal.Weighted>
-0.0000

> <Gold.Chemscore.Lipo.Weighted>
-10.5671

> <Gold.Chemscore.Internal_Hbond.Weighted>
0.0000

> <Gold.Chemscore.DEClash.Weighted>
0.3526

> <Gold.Chemscore.DEInternal.Weighted>
1.9434

> <Gold.Chemscore.Rot.Weighted>
4.4597

> <Gold.Chemscore.Internal.Correction.Weighted>
   9.000000E+99

> <Gold.Protein.RotatedTorsions>
[ 6907 6896 6895 6894 ] final  152.88 input  -60.11 | X-H torsion
[ 7974 7965 7964 7962 ] final   20.07 input  175.53 | X-H torsion
[ 8008 7997 7996 7995 ] final  -23.20 input   59.86 | X-H torsion
[ 10167 10162 10161 10158 ] final   91.89 input  -65.29 | X-H torsion
[ 10718 10713 10712 10709 ] final  -12.18 input   66.30 | X-H torsion
[ 10763 10752 10751 10750 ] final   83.57 input  -60.55 | X-H torsion
[ 11005 11000 10999 10996 ] final  158.36 input  -57.11 | X-H torsion

> <Gold.Protein.ActiveResidues>
 VAL166  LYS551  ARG553  GLY616  TRP617  ASP618  TYR619  PRO620  LYS621  CYS622 
 ASP623  PHE694  ASN695  SER759  ASP760  ASP761  ALA762  ILE779  LEU786  VAL792 
 PHE793  MET794  SER795  GLU796  ALA797  LYS798  CYS799  TRP800  GLU811  SER814 

> <Gold.Protein.RotatedAtoms>
  152.0806  133.4151  159.4499 H   0  0  0  0  0  0  0  0  0  0  0  0  # atno 6907 bound_to 6896
  150.6862  134.2987  159.4706 H   0  0  0  0  0  0  0  0  0  0  0  0  # atno 6908 bound_to 6896
  152.0828  134.9459  160.0624 H   0  0  0  0  0  0  0  0  0  0  0  0  # atno 6909 bound_to 6896
  146.2125  139.8222  142.8677 H   0  0  0  0  0  0  0  0  0  0  0  0  # atno 7974 bound_to 7965
  154.4599  140.1987  156.0273 H   0  0  0  0  0  0  0  0  0  0  0  0  # atno 8008 bound_to 7997
  156.0820  140.3270  155.7677 H   0  0  0  0  0  0  0  0  0  0  0  0  # atno 8009 bound_to 7997
  155.5096  140.0560  157.2916 H   0  0  0  0  0  0  0  0  0  0  0  0  # atno 8010 bound_to 7997
  139.8330  144.6678  150.9376 H   0  0  0  0  0  0  0  0  0  0  0  0  # atno 10167 bound_to 10162
  156.6483  130.4947  149.6071 H   0  0  0  0  0  0  0  0  0  0  0  0  # atno 10718 bound_to 10713
  153.1303  135.4686  154.9337 H   0  0  0  0  0  0  0  0  0  0  0  0  # atno 10763 bound_to 10752
  154.7658  135.3144  154.8292 H   0  0  0  0  0  0  0  0  0  0  0  0  # atno 10764 bound_to 10752
  153.8836  135.6892  153.4819 H   0  0  0  0  0  0  0  0  0  0  0  0  # atno 10765 bound_to 10752
  140.1857  134.8443  157.2855 H   0  0  0  0  0  0  0  0  0  0  0  0  # atno 11005 bound_to 11000
  145.3084  141.0213  143.3568 LP  0  0  0  0  0  0  0  0  0  0  0  0  # atno 17320 bound_to 7965
  144.8954  139.4719  143.6658 LP  0  0  0  0  0  0  0  0  0  0  0  0  # atno 17321 bound_to 7965
  140.7805  143.3983  151.1192 LP  0  0  0  0  0  0  0  0  0  0  0  0  # atno 17342 bound_to 10162
  139.7635  143.8600  152.3105 LP  0  0  0  0  0  0  0  0  0  0  0  0  # atno 17343 bound_to 10162
  156.2104  130.6675  151.1264 LP  0  0  0  0  0  0  0  0  0  0  0  0  # atno 17370 bound_to 10713
  157.7149  131.0715  150.6364 LP  0  0  0  0  0  0  0  0  0  0  0  0  # atno 17371 bound_to 10713
  140.2216  134.4016  155.7563 LP  0  0  0  0  0  0  0  0  0  0  0  0  # atno 17394 bound_to 11000
  141.2225  133.7169  156.8499 LP  0  0  0  0  0  0  0  0  0  0  0  0  # atno 17395 bound_to 11000

$$$$
