AV-unprocessed.smi:865|AV-procd|sdf|3990|dock2
  -GOLD-   22720 1463D 1   1.00000     0.00000
 Structure written by MMmdl.
 36 36  0  0  0  0  0  0  0  0  1 V2000
  145.2749  134.4674  162.8371 C   0  0  0  0  0  0  0  0  0  0  0  0
  146.4299  135.4359  162.5406 C   0  0  0  0  0  0  0  0  0  0  0  0
  147.0776  135.2542  161.1431 C   0  0  0  0  0  0  0  0  0  0  0  0
  148.0031  134.0109  161.1028 C   0  0  0  0  0  0  0  0  0  0  0  0
  147.3400  132.7012  161.5557 C   0  0  0  0  0  0  0  0  0  0  0  0
  147.7973  136.5421  160.6520 C   0  0  2  0  0  0  0  0  0  0  0  0
  146.8266  137.5234  160.3398 O   0  0  0  0  0  0  0  0  0  0  0  0
  148.6968  136.3140  159.4159 C   0  0  0  0  0  0  0  0  0  0  0  0
  149.3300  137.5537  158.9814 N   0  0  0  0  0  0  0  0  0  0  0  0
  150.6532  137.7511  158.8790 C   0  0  0  0  0  0  0  0  0  0  0  0
  151.4950  136.9155  159.2067 O   0  0  0  0  0  0  0  0  0  0  0  0
  151.0969  139.0944  158.3013 C   0  0  0  0  0  0  0  0  0  0  0  0
  150.8908  139.1270  156.8657 N   0  0  0  0  0  0  0  0  0  0  0  0
  151.2215  140.0427  155.9527 C   0  0  0  0  0  0  0  0  0  0  0  0
  150.8605  139.6701  154.7342 N   0  0  0  0  0  0  0  0  0  0  0  0
  150.2694  138.4354  154.9444 N   0  0  0  0  0  0  0  0  0  0  0  0
  150.2849  138.1076  156.2072 N   0  0  0  0  0  0  0  0  0  0  0  0
  144.8027  134.7162  163.7877 H   0  0  0  0  0  0  0  0  0  0  0  0
  145.6131  133.4344  162.9081 H   0  0  0  0  0  0  0  0  0  0  0  0
  144.5072  134.5202  162.0648 H   0  0  0  0  0  0  0  0  0  0  0  0
  146.0286  136.4440  162.6343 H   0  0  0  0  0  0  0  0  0  0  0  0
  147.1881  135.3450  163.3191 H   0  0  0  0  0  0  0  0  0  0  0  0
  146.2656  135.0639  160.4398 H   0  0  0  0  0  0  0  0  0  0  0  0
  148.4187  133.8820  160.1031 H   0  0  0  0  0  0  0  0  0  0  0  0
  148.8581  134.1729  161.7572 H   0  0  0  0  0  0  0  0  0  0  0  0
  148.0795  131.9032  161.6263 H   0  0  0  0  0  0  0  0  0  0  0  0
  146.5749  132.3662  160.8561 H   0  0  0  0  0  0  0  0  0  0  0  0
  146.8787  132.8106  162.5375 H   0  0  0  0  0  0  0  0  0  0  0  0
  148.4223  136.9276  161.4570 H   0  0  0  0  0  0  0  0  0  0  0  0
  146.1315  137.1122  159.8493 H   0  0  0  0  0  0  0  0  0  0  0  0
  149.5116  135.6384  159.6773 H   0  0  0  0  0  0  0  0  0  0  0  0
  148.1553  135.8341  158.5986 H   0  0  0  0  0  0  0  0  0  0  0  0
  148.7156  138.3007  158.6908 H   0  0  0  0  0  0  0  0  0  0  0  0
  150.5428  139.9093  158.7700 H   0  0  0  0  0  0  0  0  0  0  0  0
  152.1550  139.2608  158.5074 H   0  0  0  0  0  0  0  0  0  0  0  0
  151.7265  140.9702  156.1786 H   0  0  0  0  0  0  0  0  0  0  0  0
  1  2  1  0  0  0  0
  1 18  1  0  0  0  0
  1 19  1  0  0  0  0
  1 20  1  0  0  0  0
  2  3  1  0  0  0  0
  2 21  1  0  0  0  0
  2 22  1  0  0  0  0
  3  4  1  0  0  0  0
  3  6  1  0  0  0  0
  3 23  1  0  0  0  0
  4  5  1  0  0  0  0
  4 24  1  0  0  0  0
  4 25  1  0  0  0  0
  5 26  1  0  0  0  0
  5 27  1  0  0  0  0
  5 28  1  0  0  0  0
  6  7  1  0  0  0  0
  6  8  1  0  0  0  0
  6 29  1  0  0  0  0
  7 30  1  0  0  0  0
  8  9  1  0  0  0  0
  8 31  1  0  0  0  0
  8 32  1  0  0  0  0
  9 10  1  0  0  0  0
  9 33  1  0  0  0  0
 10 11  2  0  0  0  0
 10 12  1  0  0  0  0
 12 13  1  0  0  0  0
 12 34  1  0  0  0  0
 12 35  1  0  0  0  0
 13 17  1  0  0  0  0
 13 14  1  0  0  0  0
 14 15  2  0  0  0  0
 14 36  1  0  0  0  0
 15 16  1  0  0  0  0
 16 17  2  0  0  0  0
M  END
> <s_m_source_file>
AV-unprocessed.smi

> <i_m_source_file_index>
865

> <i_lp_mmshare_version>
43012

> <i_f3d_flags>
0

> <s_epik_input>
W0NIM11bQ0gyXVtDSF0oW0NIMl1bQ0gzXSlbQ0BIXShbT0hdKVtDSDJdW05IXUMoPU8pW0NIMl1uMVtjSF1ubm4x

> <s_epik_cmdline>
J2VwaWtfcHl0aG9uJywgJy1waCcsICc3LjAnLCAnLXRuJywgJzgnLCAnLW1hJywgJzIwMCcsICctbWV0YWxfYmluZGluZycsICctaW1hZScsICc8aW5maWxlLm1hZT4nLCAnLW9tYWUnLCAnPG91dGZpbGUubWFlPic=

> <r_lp_tautomer_probability>
1

> <r_epik_Ionization_Penalty>
9.39891e-07

> <r_epik_Ionization_Penalty_Charging>
0

> <r_epik_Ionization_Penalty_Neutral>
9.39891e-07

> <r_epik_State_Penalty>
-0

> <r_epik_Charging_Adjusted_Penalty>
0

> <i_epik_Tot_Q>
0

> <i_epik_Tot_abs_Q>
0

> <r_epik_Metal_State_Penalty>
-0

> <b_epik_Metal_Only>
0

> <s_lp_Force_Field>
OPLS_2005

> <r_lp_Energy>
13.4574

> <b_lp_Chiralities_Consistent>
1

> <s_lp_Variant>
AV-unprocessed.smi:865-1

> <Gold.Version>
5.8.1

> <Gold.Id.Protein>
6NUR|6NUR_protein|mol2

> <Gold.PLP.Fitness>
34.3657

> <Gold.PLP.PLP>
-26.0962

> <Gold.PLP.part.hbond>
-3.0000

> <Gold.PLP.part.metal>
0.0000

> <Gold.PLP.part.buried>
-5.2284

> <Gold.PLP.part.nonpolar>
-18.2522

> <Gold.PLP.part.repulsive>
0.3848

> <Gold.PLP.ligand.clash>
0.0000

> <Gold.PLP.ligand.torsion>
0.6359

> <Gold.PLP.Chemscore.Hbond>
3.0000

> <Gold.PLP.Chemscore.CHOScore>
0.0000

> <Gold.PLP.Chemscore.Metal>
0.0000

> <Gold.Chemscore.Hbonds>
donor molecule, donor type, donor heavy atom, donor atom, acceptor molecule, acceptor atom, score
      P1  H  6896  6908       L1    11  1.00
      P1  H  6934  6947       L1     7  1.00
      P1  H  7989  7998       L1    15  1.00

> <Gold.PLP.Chemscore.Internal.Correction>
0.5412

> <Gold.Rescore>
     Score         DG    S(hbond)    S(metal)    S(lipo)     H(rot)  DE(clash)    DE(int)     intcor
     10.88     -11.92       2.94        0.00      54.08       3.80       0.02       1.02       ----

> <Gold.Chemscore.Fitness>
10.8787

> <Gold.Chemscore.DG>
-11.9233

> <Gold.Chemscore.ZeroCoef>
-5.4800

> <Gold.Chemscore.Hbond>
2.9446

> <Gold.Chemscore.Metal>
0.0000

> <Gold.Chemscore.Lipo>
54.0782

> <Gold.Chemscore.Internal_Hbond>
0.0000

> <Gold.Chemscore.DEClash>
0.0210

> <Gold.Chemscore.DEInternal>
1.0236

> <Gold.Chemscore.Rot>
3.7964

> <Gold.Chemscore.Internal.Correction>
   9.000000E+99

> <Gold.Chemscore.Hbonds>
donor molecule, donor type, donor heavy atom, donor atom, acceptor molecule, acceptor atom, score
      P1  H  6896  6908       L1    11  0.96
      P1  H  6934  6947       L1     7  0.90
      P1  H  7989  7998       L1    15  0.65

> <Gold.Chemscore.Hbond.Weighted>
-9.8349

> <Gold.Chemscore.Metal.Weighted>
-0.0000

> <Gold.Chemscore.Lipo.Weighted>
-6.3271

> <Gold.Chemscore.Internal_Hbond.Weighted>
0.0000

> <Gold.Chemscore.DEClash.Weighted>
0.0210

> <Gold.Chemscore.DEInternal.Weighted>
1.0236

> <Gold.Chemscore.Rot.Weighted>
9.7188

> <Gold.Chemscore.Internal.Correction.Weighted>
   9.000000E+99

> <Gold.Protein.RotatedTorsions>
[ 6907 6896 6895 6894 ] final -138.01 input  -60.11 | X-H torsion
[ 7974 7965 7964 7962 ] final -132.83 input  175.53 | X-H torsion
[ 8008 7997 7996 7995 ] final   22.38 input   59.86 | X-H torsion
[ 10167 10162 10161 10158 ] final   81.81 input  -65.29 | X-H torsion
[ 10718 10713 10712 10709 ] final   66.99 input   66.30 | X-H torsion
[ 10763 10752 10751 10750 ] final -157.65 input  -60.55 | X-H torsion
[ 11005 11000 10999 10996 ] final  -89.16 input  -57.11 | X-H torsion

> <Gold.Protein.ActiveResidues>
 VAL166  LYS551  ARG553  GLY616  TRP617  ASP618  TYR619  PRO620  LYS621  CYS622 
 ASP623  PHE694  ASN695  SER759  ASP760  ASP761  ALA762  ILE779  LEU786  VAL792 
 PHE793  MET794  SER795  GLU796  ALA797  LYS798  CYS799  TRP800  GLU811  SER814 

> <Gold.Protein.RotatedAtoms>
  151.0297  133.5802  159.2661 H   0  0  0  0  0  0  0  0  0  0  0  0  # atno 6907 bound_to 6896
  151.2888  135.0735  159.9206 H   0  0  0  0  0  0  0  0  0  0  0  0  # atno 6908 bound_to 6896
  152.5342  133.9999  159.7944 H   0  0  0  0  0  0  0  0  0  0  0  0  # atno 6909 bound_to 6896
  144.9249  140.7059  143.4942 H   0  0  0  0  0  0  0  0  0  0  0  0  # atno 7974 bound_to 7965
  154.9649  140.3082  155.5014 H   0  0  0  0  0  0  0  0  0  0  0  0  # atno 8008 bound_to 7997
  156.2973  140.2294  156.4676 H   0  0  0  0  0  0  0  0  0  0  0  0  # atno 8009 bound_to 7997
  154.7930  140.0438  157.1204 H   0  0  0  0  0  0  0  0  0  0  0  0  # atno 8010 bound_to 7997
  139.9354  144.6125  150.8304 H   0  0  0  0  0  0  0  0  0  0  0  0  # atno 10167 bound_to 10162
  157.6203  130.9297  150.0183 H   0  0  0  0  0  0  0  0  0  0  0  0  # atno 10718 bound_to 10713
  154.7619  135.3120  154.8361 H   0  0  0  0  0  0  0  0  0  0  0  0  # atno 10763 bound_to 10752
  153.9120  135.6805  153.4755 H   0  0  0  0  0  0  0  0  0  0  0  0  # atno 10764 bound_to 10752
  153.1221  135.4818  154.9144 H   0  0  0  0  0  0  0  0  0  0  0  0  # atno 10765 bound_to 10752
  141.1589  133.7613  156.9554 H   0  0  0  0  0  0  0  0  0  0  0  0  # atno 11005 bound_to 11000
  145.3236  139.1781  143.4574 LP  0  0  0  0  0  0  0  0  0  0  0  0  # atno 17320 bound_to 7965
  146.3221  140.3257  142.8636 LP  0  0  0  0  0  0  0  0  0  0  0  0  # atno 17321 bound_to 7965
  140.7626  143.3202  151.2640 LP  0  0  0  0  0  0  0  0  0  0  0  0  # atno 17342 bound_to 10162
  139.6748  143.9957  152.2774 LP  0  0  0  0  0  0  0  0  0  0  0  0  # atno 17343 bound_to 10162
  156.1345  130.3643  149.9678 LP  0  0  0  0  0  0  0  0  0  0  0  0  # atno 17370 bound_to 10713
  156.7732  130.9194  151.3645 LP  0  0  0  0  0  0  0  0  0  0  0  0  # atno 17371 bound_to 10713
  140.1229  134.9406  157.2228 LP  0  0  0  0  0  0  0  0  0  0  0  0  # atno 17394 bound_to 11000
  140.3050  134.3089  155.7280 LP  0  0  0  0  0  0  0  0  0  0  0  0  # atno 17395 bound_to 11000

$$$$
