AV-unprocessed.smi:1004|AV-procd|sdf|4361|dock2
  -GOLD-   22720 2263D 1   1.00000     0.00000
 Structure written by MMmdl.
 42 43  0  0  0  0  0  0  0  0  1 V2000
  153.7425  142.7335  163.3307 C   0  0  0  0  0  0  0  0  0  0  0  0
  153.2418  142.8121  161.9032 C   0  0  0  0  0  0  0  0  0  0  0  0
  152.4232  143.9235  161.4657 C   0  0  0  0  0  0  0  0  0  0  0  0
  151.9969  143.9604  160.1938 C   0  0  0  0  0  0  0  0  0  0  0  0
  152.3218  142.9495  159.2711 N   0  0  0  0  0  0  0  0  0  0  0  0
  151.7894  143.0895  157.9054 C   0  0  0  0  0  0  0  0  0  0  0  0
  150.8388  141.9524  157.5034 C   0  0  0  0  0  0  0  0  0  0  0  0
  150.9356  140.8349  158.0125 O   0  0  0  0  0  0  0  0  0  0  0  0
  149.9063  142.2618  156.5923 N   0  0  0  0  0  0  0  0  0  0  0  0
  148.9139  141.3255  156.0787 C   0  0  0  0  0  0  0  0  0  0  0  0
  148.9870  141.2087  154.5465 C   0  0  0  0  0  0  0  0  0  0  0  0
  148.1998  140.0350  153.9826 C   0  0  0  0  0  0  0  0  0  0  0  0
  148.2375  138.8126  154.5483 C   0  0  0  0  0  0  0  0  0  0  0  0
  147.4585  137.6125  154.0393 C   0  0  0  0  0  0  0  0  0  0  0  0
  146.3643  138.0081  153.0336 C   0  0  0  0  0  0  0  0  0  0  0  0
  146.8832  139.0455  152.0306 C   0  0  0  0  0  0  0  0  0  0  0  0
  147.3611  140.3237  152.7428 C   0  0  0  0  0  0  0  0  0  0  0  0
  153.0875  141.8722  159.6204 C   0  0  0  0  0  0  0  0  0  0  0  0
  153.3709  140.9818  158.8182 O   0  0  0  0  0  0  0  0  0  0  0  0
  153.5495  141.8431  161.0131 C   0  0  0  0  0  0  0  0  0  0  0  0
  153.3881  143.5794  163.9205 H   0  0  0  0  0  0  0  0  0  0  0  0
  154.8327  142.7366  163.3511 H   0  0  0  0  0  0  0  0  0  0  0  0
  153.3912  141.8172  163.8057 H   0  0  0  0  0  0  0  0  0  0  0  0
  152.1530  144.7127  162.1519 H   0  0  0  0  0  0  0  0  0  0  0  0
  151.3777  144.7563  159.8061 H   0  0  0  0  0  0  0  0  0  0  0  0
  151.2529  144.0336  157.8009 H   0  0  0  0  0  0  0  0  0  0  0  0
  152.6087  143.1463  157.1863 H   0  0  0  0  0  0  0  0  0  0  0  0
  149.8883  143.2010  156.2218 H   0  0  0  0  0  0  0  0  0  0  0  0
  149.0705  140.3489  156.5391 H   0  0  0  0  0  0  0  0  0  0  0  0
  147.9159  141.6548  156.3721 H   0  0  0  0  0  0  0  0  0  0  0  0
  148.6164  142.1271  154.0903 H   0  0  0  0  0  0  0  0  0  0  0  0
  150.0316  141.1218  154.2440 H   0  0  0  0  0  0  0  0  0  0  0  0
  148.8575  138.6407  155.4161 H   0  0  0  0  0  0  0  0  0  0  0  0
  148.1659  136.9248  153.5751 H   0  0  0  0  0  0  0  0  0  0  0  0
  147.0128  137.0872  154.8843 H   0  0  0  0  0  0  0  0  0  0  0  0
  145.9996  137.1230  152.5116 H   0  0  0  0  0  0  0  0  0  0  0  0
  145.5105  138.4249  153.5695 H   0  0  0  0  0  0  0  0  0  0  0  0
  147.7096  138.6137  151.4647 H   0  0  0  0  0  0  0  0  0  0  0  0
  146.1084  139.2922  151.3043 H   0  0  0  0  0  0  0  0  0  0  0  0
  146.4995  140.9188  153.0468 H   0  0  0  0  0  0  0  0  0  0  0  0
  147.9366  140.9342  152.0462 H   0  0  0  0  0  0  0  0  0  0  0  0
  154.1591  141.0107  161.3335 H   0  0  0  0  0  0  0  0  0  0  0  0
  1  2  1  0  0  0  0
  1 21  1  0  0  0  0
  1 22  1  0  0  0  0
  1 23  1  0  0  0  0
  2 20  2  0  0  0  0
  2  3  1  0  0  0  0
  3  4  2  0  0  0  0
  3 24  1  0  0  0  0
  4  5  1  0  0  0  0
  4 25  1  0  0  0  0
  5  6  1  0  0  0  0
  5 18  1  0  0  0  0
  6  7  1  0  0  0  0
  6 26  1  0  0  0  0
  6 27  1  0  0  0  0
  7  8  2  0  0  0  0
  7  9  1  0  0  0  0
  9 10  1  0  0  0  0
  9 28  1  0  0  0  0
 10 11  1  0  0  0  0
 10 29  1  0  0  0  0
 10 30  1  0  0  0  0
 11 12  1  0  0  0  0
 11 31  1  0  0  0  0
 11 32  1  0  0  0  0
 12 17  1  0  0  0  0
 12 13  2  0  0  0  0
 13 14  1  0  0  0  0
 13 33  1  0  0  0  0
 14 15  1  0  0  0  0
 14 34  1  0  0  0  0
 14 35  1  0  0  0  0
 15 16  1  0  0  0  0
 15 36  1  0  0  0  0
 15 37  1  0  0  0  0
 16 17  1  0  0  0  0
 16 38  1  0  0  0  0
 16 39  1  0  0  0  0
 17 40  1  0  0  0  0
 17 41  1  0  0  0  0
 18 19  2  0  0  0  0
 18 20  1  0  0  0  0
 20 42  1  0  0  0  0
M  END
> <s_m_source_file>
AV-unprocessed.smi

> <i_m_source_file_index>
1004

> <i_lp_mmshare_version>
43012

> <i_f3d_flags>
0

> <s_epik_input>
W0NIM11jMVtjSF1bY0hdbihjKD1PKVtjSF0xKVtDSDJdQyg9TylbTkhdW0NIMl1bQ0gyXUMyPVtDSF1bQ0gyXVtDSDJdW0NIMl1bQ0gyXTI=

> <s_epik_cmdline>
J2VwaWtfcHl0aG9uJywgJy1waCcsICc3LjAnLCAnLXRuJywgJzgnLCAnLW1hJywgJzIwMCcsICctbWV0YWxfYmluZGluZycsICctaW1hZScsICc8aW5maWxlLm1hZT4nLCAnLW9tYWUnLCAnPG91dGZpbGUubWFlPic=

> <r_lp_tautomer_probability>
1

> <r_epik_Ionization_Penalty>
5.31482e-07

> <r_epik_Ionization_Penalty_Charging>
5.13379e-07

> <r_epik_Ionization_Penalty_Neutral>
1.81035e-08

> <r_epik_State_Penalty>
-0

> <r_epik_Charging_Adjusted_Penalty>
5.13379e-07

> <i_epik_Tot_Q>
0

> <i_epik_Tot_abs_Q>
0

> <r_epik_Metal_State_Penalty>
-0

> <b_epik_Metal_Only>
0

> <s_lp_Force_Field>
OPLS_2005

> <r_lp_Energy>
18.1417

> <b_lp_Chiralities_Consistent>
1

> <s_lp_Variant>
AV-unprocessed.smi:1004-1

> <Gold.Version>
5.8.1

> <Gold.Id.Protein>
6NUR|6NUR_protein|mol2

> <Gold.PLP.Fitness>
48.1965

> <Gold.PLP.PLP>
-46.4253

> <Gold.PLP.part.hbond>
-1.0497

> <Gold.PLP.part.metal>
0.0000

> <Gold.PLP.part.buried>
-1.6632

> <Gold.PLP.part.nonpolar>
-42.6216

> <Gold.PLP.part.repulsive>
0.0506

> <Gold.PLP.ligand.clash>
0.0000

> <Gold.PLP.ligand.torsion>
0.6271

> <Gold.PLP.Chemscore.Hbond>
1.0000

> <Gold.PLP.Chemscore.CHOScore>
0.0000

> <Gold.PLP.Chemscore.Metal>
0.0000

> <Gold.Chemscore.Hbonds>
donor molecule, donor type, donor heavy atom, donor atom, acceptor molecule, acceptor atom, score
      L1  H     9    28       P1  8028  0.99
      P1  H  7997  8008       L1    19  0.11

> <Gold.PLP.Chemscore.Internal.Correction>
0.0254

> <Gold.Rescore>
     Score         DG    S(hbond)    S(metal)    S(lipo)     H(rot)  DE(clash)    DE(int)     intcor
     14.89     -19.94       1.61        0.00     113.29       1.63       1.70       3.36       ----

> <Gold.Chemscore.Fitness>
14.8858

> <Gold.Chemscore.DG>
-19.9427

> <Gold.Chemscore.ZeroCoef>
-5.4800

> <Gold.Chemscore.Hbond>
1.6120

> <Gold.Chemscore.Metal>
0.0000

> <Gold.Chemscore.Lipo>
113.2862

> <Gold.Chemscore.Internal_Hbond>
0.0000

> <Gold.Chemscore.DEClash>
1.7015

> <Gold.Chemscore.DEInternal>
3.3554

> <Gold.Chemscore.Rot>
1.6311

> <Gold.Chemscore.Internal.Correction>
   9.000000E+99

> <Gold.Chemscore.Hbonds>
donor molecule, donor type, donor heavy atom, donor atom, acceptor molecule, acceptor atom, score
      L1  H     9    28       P1  8028  0.94
      P1  H  7997  8008       L1    19  0.11

> <Gold.Chemscore.Hbond.Weighted>
-5.3840

> <Gold.Chemscore.Metal.Weighted>
-0.0000

> <Gold.Chemscore.Lipo.Weighted>
-13.2545

> <Gold.Chemscore.Internal_Hbond.Weighted>
0.0000

> <Gold.Chemscore.DEClash.Weighted>
1.7015

> <Gold.Chemscore.DEInternal.Weighted>
3.3554

> <Gold.Chemscore.Rot.Weighted>
4.1757

> <Gold.Chemscore.Internal.Correction.Weighted>
   9.000000E+99

> <Gold.Protein.RotatedTorsions>
[ 6907 6896 6895 6894 ] final -176.97 input  -60.11 | X-H torsion
[ 7974 7965 7964 7962 ] final   -2.64 input  175.53 | X-H torsion
[ 8008 7997 7996 7995 ] final  -84.68 input   59.86 | X-H torsion
[ 10167 10162 10161 10158 ] final   73.87 input  -65.29 | X-H torsion
[ 10718 10713 10712 10709 ] final -109.01 input   66.30 | X-H torsion
[ 10763 10752 10751 10750 ] final   79.51 input  -60.55 | X-H torsion
[ 11005 11000 10999 10996 ] final  -26.43 input  -57.11 | X-H torsion

> <Gold.Protein.ActiveResidues>
 VAL166  LYS551  ARG553  GLY616  TRP617  ASP618  TYR619  PRO620  LYS621  CYS622 
 ASP623  PHE694  ASN695  SER759  ASP760  ASP761  ALA762  ILE779  LEU786  VAL792 
 PHE793  MET794  SER795  GLU796  ALA797  LYS798  CYS799  TRP800  GLU811  SER814 

> <Gold.Protein.RotatedAtoms>
  151.6135  133.3345  159.3072 H   0  0  0  0  0  0  0  0  0  0  0  0  # atno 6907 bound_to 6896
  150.8144  134.7321  159.6728 H   0  0  0  0  0  0  0  0  0  0  0  0  # atno 6908 bound_to 6896
  152.4240  134.5908  160.0025 H   0  0  0  0  0  0  0  0  0  0  0  0  # atno 6909 bound_to 6896
  146.2401  140.1601  142.8333 H   0  0  0  0  0  0  0  0  0  0  0  0  # atno 7974 bound_to 7965
  154.6324  140.0602  156.9748 H   0  0  0  0  0  0  0  0  0  0  0  0  # atno 8008 bound_to 7997
  155.1644  140.3285  155.4386 H   0  0  0  0  0  0  0  0  0  0  0  0  # atno 8009 bound_to 7997
  156.2490  140.1925  156.6750 H   0  0  0  0  0  0  0  0  0  0  0  0  # atno 8010 bound_to 7997
  140.0198  144.5549  150.7591 H   0  0  0  0  0  0  0  0  0  0  0  0  # atno 10167 bound_to 10162
  156.0514  130.5742  150.8040 H   0  0  0  0  0  0  0  0  0  0  0  0  # atno 10718 bound_to 10713
  153.0958  135.4837  154.8776 H   0  0  0  0  0  0  0  0  0  0  0  0  # atno 10763 bound_to 10752
  154.7323  135.3063  154.8873 H   0  0  0  0  0  0  0  0  0  0  0  0  # atno 10764 bound_to 10752
  153.9506  135.6824  153.4797 H   0  0  0  0  0  0  0  0  0  0  0  0  # atno 10765 bound_to 10752
  140.9028  133.7512  156.0567 H   0  0  0  0  0  0  0  0  0  0  0  0  # atno 11005 bound_to 11000
  145.0096  140.8703  143.5232 LP  0  0  0  0  0  0  0  0  0  0  0  0  # atno 17320 bound_to 7965
  145.1632  139.2446  143.5380 LP  0  0  0  0  0  0  0  0  0  0  0  0  # atno 17321 bound_to 7965
  140.7347  143.2732  151.3823 LP  0  0  0  0  0  0  0  0  0  0  0  0  # atno 17342 bound_to 10162
  139.6147  144.1026  152.2334 LP  0  0  0  0  0  0  0  0  0  0  0  0  # atno 17343 bound_to 10162
  157.5445  131.0942  150.9782 LP  0  0  0  0  0  0  0  0  0  0  0  0  # atno 17370 bound_to 10713
  157.0057  130.5617  149.5316 LP  0  0  0  0  0  0  0  0  0  0  0  0  # atno 17371 bound_to 10713
  140.8208  134.3291  157.5382 LP  0  0  0  0  0  0  0  0  0  0  0  0  # atno 17394 bound_to 11000
  139.8745  134.9308  156.3511 LP  0  0  0  0  0  0  0  0  0  0  0  0  # atno 17395 bound_to 11000

$$$$
