AV-unprocessed.smi:1381|AV-procd|sdf|5610|dock4
  -GOLD-   22720 5223D 1   1.00000     0.00000
 Structure written by MMmdl.
 41 42  0  0  0  0  0  0  0  0  2 V2000
  148.7331  133.6389  156.2519 C   0  0  0  0  0  0  0  0  0  0  0  0
  149.5086  134.8604  155.8957 C   0  0  0  0  0  0  0  0  0  0  0  0
  150.4834  135.1062  154.9709 C   0  0  0  0  0  0  0  0  0  0  0  0
  150.7773  136.4833  155.1668 C   0  0  0  0  0  0  0  0  0  0  0  0
  151.6937  137.1960  154.4937 N   0  5  0  0  0  0  0  0  0  0  0  0
  152.1804  138.3457  155.0158 C   0  0  0  0  0  0  0  0  0  0  0  0
  153.3696  138.6565  155.1174 O   0  0  0  0  0  0  0  0  0  0  0  0
  151.2299  139.1843  155.4531 N   0  0  0  0  0  0  0  0  0  0  0  0
  151.4566  140.4831  156.0766 C   0  0  0  0  0  0  0  0  0  0  0  0
  152.0026  140.3273  157.5086 C   0  0  0  0  0  0  0  0  0  0  0  0
  152.2256  141.5822  158.2249 N   0  0  0  0  0  0  0  0  0  0  0  0
  152.6139  141.3302  159.6064 C   0  0  0  0  0  0  0  0  0  0  0  0
  152.9006  142.6348  160.3706 C   0  0  2  0  0  0  0  0  0  0  0  0
  153.2338  142.3781  161.8439 C   0  0  0  0  0  0  0  0  0  0  0  0
  151.7513  143.4777  160.3145 O   0  0  0  0  0  0  0  0  0  0  0  0
  151.2676  143.7593  158.9999 C   0  0  1  0  0  0  0  0  0  0  0  0
  152.1670  144.7682  158.2657 C   0  0  0  0  0  0  0  0  0  0  0  0
  151.0504  142.4504  158.2136 C   0  0  0  0  0  0  0  0  0  0  0  0
  150.0567  137.0211  156.1367 N   0  0  0  0  0  0  0  0  0  0  0  0
  149.2357  135.9880  156.6051 O   0  0  0  0  0  0  0  0  0  0  0  0
  149.0456  133.2538  157.2224 H   0  0  0  0  0  0  0  0  0  0  0  0
  148.8835  132.8532  155.5114 H   0  0  0  0  0  0  0  0  0  0  0  0
  147.6662  133.8575  156.3003 H   0  0  0  0  0  0  0  0  0  0  0  0
  150.9160  134.4138  154.2646 H   0  0  0  0  0  0  0  0  0  0  0  0
  150.2698  138.8902  155.3483 H   0  0  0  0  0  0  0  0  0  0  0  0
  152.1391  141.0782  155.4676 H   0  0  0  0  0  0  0  0  0  0  0  0
  150.5021  141.0078  156.0795 H   0  0  0  0  0  0  0  0  0  0  0  0
  151.3348  139.6861  158.0862 H   0  0  0  0  0  0  0  0  0  0  0  0
  152.9501  139.7905  157.4470 H   0  0  0  0  0  0  0  0  0  0  0  0
  151.8257  140.7728  160.1154 H   0  0  0  0  0  0  0  0  0  0  0  0
  153.5040  140.7001  159.6290 H   0  0  0  0  0  0  0  0  0  0  0  0
  153.7480  143.1459  159.9127 H   0  0  0  0  0  0  0  0  0  0  0  0
  154.1160  141.7452  161.9416 H   0  0  0  0  0  0  0  0  0  0  0  0
  152.4079  141.8834  162.3555 H   0  0  0  0  0  0  0  0  0  0  0  0
  153.4366  143.3134  162.3660 H   0  0  0  0  0  0  0  0  0  0  0  0
  150.2959  144.2368  159.1280 H   0  0  0  0  0  0  0  0  0  0  0  0
  151.7254  145.0563  157.3115 H   0  0  0  0  0  0  0  0  0  0  0  0
  153.1552  144.3595  158.0561 H   0  0  0  0  0  0  0  0  0  0  0  0
  152.2982  145.6747  158.8565 H   0  0  0  0  0  0  0  0  0  0  0  0
  150.7664  142.6973  157.1912 H   0  0  0  0  0  0  0  0  0  0  0  0
  150.2036  141.9163  158.6474 H   0  0  0  0  0  0  0  0  0  0  0  0
  1  2  1  0  0  0  0
  1 21  1  0  0  0  0
  1 22  1  0  0  0  0
  1 23  1  0  0  0  0
  2 20  1  0  0  0  0
  2  3  2  0  0  0  0
  3  4  1  0  0  0  0
  3 24  1  0  0  0  0
  4  5  1  0  0  0  0
  4 19  2  0  0  0  0
  5  6  1  0  0  0  0
  6  7  2  0  0  0  0
  6  8  1  0  0  0  0
  8  9  1  0  0  0  0
  8 25  1  0  0  0  0
  9 10  1  0  0  0  0
  9 26  1  0  0  0  0
  9 27  1  0  0  0  0
 10 11  1  0  0  0  0
 10 28  1  0  0  0  0
 10 29  1  0  0  0  0
 11 18  1  0  0  0  0
 11 12  1  0  0  0  0
 12 13  1  0  0  0  0
 12 30  1  0  0  0  0
 12 31  1  0  0  0  0
 13 14  1  0  0  0  0
 13 15  1  0  0  0  0
 13 32  1  0  0  0  0
 14 33  1  0  0  0  0
 14 34  1  0  0  0  0
 14 35  1  0  0  0  0
 15 16  1  0  0  0  0
 16 17  1  0  0  0  0
 16 18  1  0  0  0  0
 16 36  1  0  0  0  0
 17 37  1  0  0  0  0
 17 38  1  0  0  0  0
 17 39  1  0  0  0  0
 18 40  1  0  0  0  0
 18 41  1  0  0  0  0
 19 20  1  0  0  0  0
M  CHG  1   5  -1
M  END
> <s_m_source_file>
AV-unprocessed.smi

> <i_m_source_file_index>
1381

> <i_lp_mmshare_version>
43012

> <i_f3d_flags>
0

> <s_epik_input>
W0NIM11jMVtjSF1jKG5vMSlbTkhdQyg9TylbTkhdW0NIMl1bQ0gyXU4yW0NIMl1bQ0BASF0oW0NIM10pT1tDQEBIXShbQ0gzXSlbQ0gyXTI=

> <s_epik_cmdline>
J2VwaWtfcHl0aG9uJywgJy1waCcsICc3LjAnLCAnLXRuJywgJzgnLCAnLW1hJywgJzIwMCcsICctbWV0YWxfYmluZGluZycsICctaW1hZScsICc8aW5maWxlLm1hZT4nLCAnLW9tYWUnLCAnPG91dGZpbGUubWFlPic=

> <r_epik_Ionization_Penalty>
6.88366

> <r_epik_Ionization_Penalty_Charging>
6.57198

> <r_epik_Ionization_Penalty_Neutral>
0.311678

> <r_epik_State_Penalty>
6.77619

> <r_epik_Charging_Adjusted_Penalty>
13.3482

> <i_epik_Tot_Q>
-1

> <i_epik_Tot_abs_Q>
1

> <r_epik_Metal_State_Penalty>
2.70524

> <b_epik_Metal_Only>
1

> <s_lp_Force_Field>
OPLS_2005

> <r_lp_Energy>
15.7401

> <b_lp_Chiralities_Consistent>
1

> <s_lp_Variant>
AV-unprocessed.smi:1381-9

> <Gold.Version>
5.8.1

> <Gold.Id.Protein>
6NUR|6NUR_protein|mol2

> <Gold.PLP.Fitness>
45.3892

> <Gold.PLP.PLP>
-37.6879

> <Gold.PLP.part.hbond>
-2.0000

> <Gold.PLP.part.metal>
0.0000

> <Gold.PLP.part.buried>
-6.8863

> <Gold.PLP.part.nonpolar>
-30.0518

> <Gold.PLP.part.repulsive>
0.3818

> <Gold.PLP.ligand.clash>
0.0000

> <Gold.PLP.ligand.torsion>
0.6126

> <Gold.PLP.Chemscore.Hbond>
2.9600

> <Gold.PLP.Chemscore.CHOScore>
0.0000

> <Gold.PLP.Chemscore.Metal>
0.0000

> <Gold.Chemscore.Hbonds>
donor molecule, donor type, donor heavy atom, donor atom, acceptor molecule, acceptor atom, score
      P1  H  7997  8009       L1     7  0.99
      P1  H 10752 10763       L1     5  1.70

> <Gold.PLP.Chemscore.Internal.Correction>
0.0465

> <Gold.Rescore>
     Score         DG    S(hbond)    S(metal)    S(lipo)     H(rot)  DE(clash)    DE(int)     intcor
     14.56     -16.89       1.57        0.00      86.45       1.54       0.00       2.33       ----

> <Gold.Chemscore.Fitness>
14.5560

> <Gold.Chemscore.DG>
-16.8927

> <Gold.Chemscore.ZeroCoef>
-5.4800

> <Gold.Chemscore.Hbond>
1.5697

> <Gold.Chemscore.Metal>
0.0000

> <Gold.Chemscore.Lipo>
86.4476

> <Gold.Chemscore.Internal_Hbond>
0.0000

> <Gold.Chemscore.DEClash>
0.0048

> <Gold.Chemscore.DEInternal>
2.3319

> <Gold.Chemscore.Rot>
1.5409

> <Gold.Chemscore.Internal.Correction>
   9.000000E+99

> <Gold.Chemscore.Hbonds>
donor molecule, donor type, donor heavy atom, donor atom, acceptor molecule, acceptor atom, score
      P1  H  7997  8009       L1     7  0.88
      P1  H 10752 10763       L1     5  0.13

> <Gold.Chemscore.Hbond.Weighted>
-5.2429

> <Gold.Chemscore.Metal.Weighted>
-0.0000

> <Gold.Chemscore.Lipo.Weighted>
-10.1144

> <Gold.Chemscore.Internal_Hbond.Weighted>
0.0000

> <Gold.Chemscore.DEClash.Weighted>
0.0048

> <Gold.Chemscore.DEInternal.Weighted>
2.3319

> <Gold.Chemscore.Rot.Weighted>
3.9446

> <Gold.Chemscore.Internal.Correction.Weighted>
   9.000000E+99

> <Gold.Protein.RotatedTorsions>
[ 6907 6896 6895 6894 ] final  110.69 input  -60.11 | X-H torsion
[ 7974 7965 7964 7962 ] final   22.06 input  175.53 | X-H torsion
[ 8008 7997 7996 7995 ] final -137.90 input   59.86 | X-H torsion
[ 10167 10162 10161 10158 ] final -137.98 input  -65.29 | X-H torsion
[ 10718 10713 10712 10709 ] final -115.36 input   66.30 | X-H torsion
[ 10763 10752 10751 10750 ] final   32.43 input  -60.55 | X-H torsion
[ 11005 11000 10999 10996 ] final  105.59 input  -57.11 | X-H torsion

> <Gold.Protein.ActiveResidues>
 VAL166  LYS551  ARG553  GLY616  TRP617  ASP618  TYR619  PRO620  LYS621  CYS622 
 ASP623  PHE694  ASN695  SER759  ASP760  ASP761  ALA762  ILE779  LEU786  VAL792 
 PHE793  MET794  SER795  GLU796  ALA797  LYS798  CYS799  TRP800  GLU811  SER814 

> <Gold.Protein.RotatedAtoms>
  152.5007  133.8765  159.7324 H   0  0  0  0  0  0  0  0  0  0  0  0  # atno 6907 bound_to 6896
  150.9238  133.6839  159.2833 H   0  0  0  0  0  0  0  0  0  0  0  0  # atno 6908 bound_to 6896
  151.4207  135.1002  159.9665 H   0  0  0  0  0  0  0  0  0  0  0  0  # atno 6909 bound_to 6896
  146.2045  139.7938  142.8736 H   0  0  0  0  0  0  0  0  0  0  0  0  # atno 7974 bound_to 7965
  155.4194  140.0517  157.3026 H   0  0  0  0  0  0  0  0  0  0  0  0  # atno 8008 bound_to 7997
  154.4909  140.2120  155.9509 H   0  0  0  0  0  0  0  0  0  0  0  0  # atno 8009 bound_to 7997
  156.1341  140.3166  155.8399 H   0  0  0  0  0  0  0  0  0  0  0  0  # atno 8010 bound_to 7997
  139.8523  143.7182  152.2657 H   0  0  0  0  0  0  0  0  0  0  0  0  # atno 10167 bound_to 10162
  156.0891  130.6077  150.8896 H   0  0  0  0  0  0  0  0  0  0  0  0  # atno 10718 bound_to 10713
  153.0263  135.6413  154.1354 H   0  0  0  0  0  0  0  0  0  0  0  0  # atno 10763 bound_to 10752
  154.1082  135.2855  155.3238 H   0  0  0  0  0  0  0  0  0  0  0  0  # atno 10764 bound_to 10752
  154.6350  135.5479  153.7786 H   0  0  0  0  0  0  0  0  0  0  0  0  # atno 10765 bound_to 10752
  139.8804  134.9341  156.5537 H   0  0  0  0  0  0  0  0  0  0  0  0  # atno 11005 bound_to 11000
  145.3369  141.0279  143.3414 LP  0  0  0  0  0  0  0  0  0  0  0  0  # atno 17320 bound_to 7965
  144.8759  139.4971  143.6746 LP  0  0  0  0  0  0  0  0  0  0  0  0  # atno 17321 bound_to 7965
  139.7453  144.7549  151.0589 LP  0  0  0  0  0  0  0  0  0  0  0  0  # atno 17342 bound_to 10162
  140.7786  143.4924  150.9877 LP  0  0  0  0  0  0  0  0  0  0  0  0  # atno 17343 bound_to 10162
  157.6034  131.0940  150.8921 LP  0  0  0  0  0  0  0  0  0  0  0  0  # atno 17370 bound_to 10713
  156.9074  130.5268  149.5281 LP  0  0  0  0  0  0  0  0  0  0  0  0  # atno 17371 bound_to 10713
  140.8221  133.8346  155.8905 LP  0  0  0  0  0  0  0  0  0  0  0  0  # atno 17394 bound_to 11000
  140.9409  134.1902  157.4798 LP  0  0  0  0  0  0  0  0  0  0  0  0  # atno 17395 bound_to 11000

$$$$
