AV-unprocessed.smi:3112|AV-procd|sdf|11838|dock1
  -GOLD-   2272017213D 1   1.00000     0.00000
 Structure written by MMmdl.
 37 37  0  0  0  0  0  0  0  0  2 V2000
  152.8306  143.1623  160.7673 C   0  0  0  0  0  0  0  0  0  0  0  0
  152.2472  144.5555  160.4943 C   0  0  0  0  0  0  0  0  0  0  0  0
  151.1707  144.5638  159.3938 C   0  0  2  0  0  0  0  0  0  0  0  0
  150.0937  143.7427  159.8012 O   0  0  0  0  0  0  0  0  0  0  0  0
  151.7094  144.0268  158.0570 C   0  0  0  0  0  0  0  0  0  0  0  0
  150.7043  143.1786  157.3824 N   0  3  0  0  0  0  0  0  0  0  0  0
  151.2024  141.8906  156.8441 C   0  0  1  0  0  0  0  0  0  0  0  0
  151.5634  140.9190  157.9848 C   0  0  0  0  0  0  0  0  0  0  0  0
  150.1816  141.2705  155.8534 C   0  0  2  0  0  0  0  0  0  0  0  0
  148.7562  141.1836  156.4315 C   0  0  0  0  0  0  0  0  0  0  0  0
  150.6214  139.9921  155.3018 N   0  0  0  0  0  0  0  0  0  0  0  0
  149.9344  138.7951  155.2769 C   0  0  0  0  0  0  0  0  0  0  0  0
  150.7269  137.8798  154.6459 C   0  0  0  0  0  0  0  0  0  0  0  0
  151.8952  138.6182  154.3111 C   0  0  0  0  0  0  0  0  0  0  0  0
  151.8283  139.8806  154.7008 N   0  0  0  0  0  0  0  0  0  0  0  0
  153.5586  143.2003  161.5779 H   0  0  0  0  0  0  0  0  0  0  0  0
  153.3370  142.7613  159.8893 H   0  0  0  0  0  0  0  0  0  0  0  0
  152.0501  142.4577  161.0560 H   0  0  0  0  0  0  0  0  0  0  0  0
  151.8131  144.9306  161.4218 H   0  0  0  0  0  0  0  0  0  0  0  0
  153.0517  145.2457  160.2361 H   0  0  0  0  0  0  0  0  0  0  0  0
  150.8039  145.5823  159.2566 H   0  0  0  0  0  0  0  0  0  0  0  0
  150.3637  143.2451  160.5586 H   0  0  0  0  0  0  0  0  0  0  0  0
  151.9526  144.8607  157.3974 H   0  0  0  0  0  0  0  0  0  0  0  0
  152.6318  143.4702  158.2230 H   0  0  0  0  0  0  0  0  0  0  0  0
  149.9471  142.9915  158.0246 H   0  0  0  0  0  0  0  0  0  0  0  0
  152.1117  142.0990  156.2781 H   0  0  0  0  0  0  0  0  0  0  0  0
  151.8705  139.9507  157.5886 H   0  0  0  0  0  0  0  0  0  0  0  0
  150.7184  140.7499  158.6531 H   0  0  0  0  0  0  0  0  0  0  0  0
  152.3909  141.2919  158.5876 H   0  0  0  0  0  0  0  0  0  0  0  0
  150.1168  141.9557  155.0065 H   0  0  0  0  0  0  0  0  0  0  0  0
  148.4074  142.1632  156.7592 H   0  0  0  0  0  0  0  0  0  0  0  0
  148.7007  140.5097  157.2868 H   0  0  0  0  0  0  0  0  0  0  0  0
  148.0532  140.8204  155.6812 H   0  0  0  0  0  0  0  0  0  0  0  0
  148.9478  138.6941  155.7052 H   0  0  0  0  0  0  0  0  0  0  0  0
  150.5054  136.8408  154.4518 H   0  0  0  0  0  0  0  0  0  0  0  0
  152.7828  138.2774  153.7986 H   0  0  0  0  0  0  0  0  0  0  0  0
  150.3336  143.7098  156.6077 H   0  0  0  0  0  0  0  0  0  0  0  0
  1  2  1  0  0  0  0
  1 16  1  0  0  0  0
  1 17  1  0  0  0  0
  1 18  1  0  0  0  0
  2  3  1  0  0  0  0
  2 19  1  0  0  0  0
  2 20  1  0  0  0  0
  3  4  1  0  0  0  0
  3  5  1  0  0  0  0
  3 21  1  0  0  0  0
  4 22  1  0  0  0  0
  5  6  1  0  0  0  0
  5 23  1  0  0  0  0
  5 24  1  0  0  0  0
  6  7  1  0  0  0  0
  6 25  1  0  0  0  0
  6 37  1  0  0  0  0
  7  8  1  0  0  0  0
  7  9  1  0  0  0  0
  7 26  1  0  0  0  0
  8 27  1  0  0  0  0
  8 28  1  0  0  0  0
  8 29  1  0  0  0  0
  9 10  1  0  0  0  0
  9 11  1  0  0  0  0
  9 30  1  0  0  0  0
 10 31  1  0  0  0  0
 10 32  1  0  0  0  0
 10 33  1  0  0  0  0
 11 15  1  0  0  0  0
 11 12  1  0  0  0  0
 12 13  2  0  0  0  0
 12 34  1  0  0  0  0
 13 14  1  0  0  0  0
 13 35  1  0  0  0  0
 14 15  2  0  0  0  0
 14 36  1  0  0  0  0
M  CHG  1   6   1
M  END
> <s_m_source_file>
AV-unprocessed.smi

> <i_m_source_file_index>
3112

> <i_lp_mmshare_version>
43012

> <i_f3d_flags>
0

> <s_epik_input>
W0NIM11bQ0gyXVtDQEhdKFtPSF0pW0NIMl1bTkhdW0NASF0oW0NIM10pW0NASF0oW0NIM10pbjFbY0hdW2NIXVtjSF1uMQ==

> <s_epik_cmdline>
J2VwaWtfcHl0aG9uJywgJy1waCcsICc3LjAnLCAnLXRuJywgJzgnLCAnLW1hJywgJzIwMCcsICctbWV0YWxfYmluZGluZycsICctaW1hZScsICc8aW5maWxlLm1hZT4nLCAnLW9tYWUnLCAnPG91dGZpbGUubWFlPic=

> <r_lp_tautomer_probability>
1

> <r_epik_Ionization_Penalty>
0.0154842

> <r_epik_Ionization_Penalty_Charging>
0.0154724

> <r_epik_Ionization_Penalty_Neutral>
1.17979e-05

> <r_epik_State_Penalty>
0.0121607

> <r_epik_Charging_Adjusted_Penalty>
0.0276331

> <i_epik_Tot_Q>
1

> <i_epik_Tot_abs_Q>
1

> <r_epik_Metal_State_Penalty>
0.0121863

> <b_epik_Metal_Only>
0

> <s_lp_Force_Field>
OPLS_2005

> <r_lp_Energy>
12.0711

> <b_lp_Chiralities_Consistent>
1

> <s_lp_Variant>
AV-unprocessed.smi:3112-3

> <Gold.Version>
5.8.1

> <Gold.Id.Protein>
6NUR|6NUR_protein|mol2

> <Gold.PLP.Fitness>
43.5198

> <Gold.PLP.PLP>
-36.4962

> <Gold.PLP.part.hbond>
-2.7247

> <Gold.PLP.part.metal>
0.0000

> <Gold.PLP.part.buried>
-6.4590

> <Gold.PLP.part.nonpolar>
-27.4850

> <Gold.PLP.part.repulsive>
0.0610

> <Gold.PLP.ligand.clash>
0.0000

> <Gold.PLP.ligand.torsion>
1.0906

> <Gold.PLP.Chemscore.Hbond>
2.9920

> <Gold.PLP.Chemscore.CHOScore>
0.0000

> <Gold.PLP.Chemscore.Metal>
0.0000

> <Gold.Chemscore.Hbonds>
donor molecule, donor type, donor heavy atom, donor atom, acceptor molecule, acceptor atom, score
      L1  H     6    37       P1  8028  2.00
      P1  H  7989  7998       L1    15  0.99

> <Gold.PLP.Chemscore.Internal.Correction>
0.2289

> <Gold.Rescore>
     Score         DG    S(hbond)    S(metal)    S(lipo)     H(rot)  DE(clash)    DE(int)     intcor
     15.26     -16.35       1.95        0.00      89.86       2.41       0.07       1.02       ----

> <Gold.Chemscore.Fitness>
15.2593

> <Gold.Chemscore.DG>
-16.3477

> <Gold.Chemscore.ZeroCoef>
-5.4800

> <Gold.Chemscore.Hbond>
1.9524

> <Gold.Chemscore.Metal>
0.0000

> <Gold.Chemscore.Lipo>
89.8592

> <Gold.Chemscore.Internal_Hbond>
0.0000

> <Gold.Chemscore.DEClash>
0.0653

> <Gold.Chemscore.DEInternal>
1.0232

> <Gold.Chemscore.Rot>
2.4089

> <Gold.Chemscore.Internal.Correction>
   9.000000E+99

> <Gold.Chemscore.Hbonds>
donor molecule, donor type, donor heavy atom, donor atom, acceptor molecule, acceptor atom, score
      L1  H     6    37       P1  8028  0.94
      P1  H  7989  7998       L1    15  0.26

> <Gold.Chemscore.Hbond.Weighted>
-6.5209

> <Gold.Chemscore.Metal.Weighted>
-0.0000

> <Gold.Chemscore.Lipo.Weighted>
-10.5135

> <Gold.Chemscore.Internal_Hbond.Weighted>
0.0000

> <Gold.Chemscore.DEClash.Weighted>
0.0653

> <Gold.Chemscore.DEInternal.Weighted>
1.0232

> <Gold.Chemscore.Rot.Weighted>
6.1667

> <Gold.Chemscore.Internal.Correction.Weighted>
   9.000000E+99

> <Gold.Protein.RotatedTorsions>
[ 6907 6896 6895 6894 ] final  -38.23 input  -60.11 | X-H torsion
[ 7974 7965 7964 7962 ] final  165.68 input  175.53 | X-H torsion
[ 8008 7997 7996 7995 ] final  -76.82 input   59.86 | X-H torsion
[ 10167 10162 10161 10158 ] final   17.47 input  -65.29 | X-H torsion
[ 10718 10713 10712 10709 ] final -111.26 input   66.30 | X-H torsion
[ 10763 10752 10751 10750 ] final -125.86 input  -60.55 | X-H torsion
[ 11005 11000 10999 10996 ] final  -55.60 input  -57.11 | X-H torsion

> <Gold.Protein.ActiveResidues>
 VAL166  LYS551  ARG553  GLY616  TRP617  ASP618  TYR619  PRO620  LYS621  CYS622 
 ASP623  PHE694  ASN695  SER759  ASP760  ASP761  ALA762  ILE779  LEU786  VAL792 
 PHE793  MET794  SER795  GLU796  ALA797  LYS798  CYS799  TRP800  GLU811  SER814 

> <Gold.Protein.RotatedAtoms>
  151.0050  134.9352  159.7974 H   0  0  0  0  0  0  0  0  0  0  0  0  # atno 6907 bound_to 6896
  152.5288  134.3104  159.9121 H   0  0  0  0  0  0  0  0  0  0  0  0  # atno 6908 bound_to 6896
  151.3110  133.4039  159.2681 H   0  0  0  0  0  0  0  0  0  0  0  0  # atno 6909 bound_to 6896
  144.7492  139.8506  143.6372 H   0  0  0  0  0  0  0  0  0  0  0  0  # atno 7974 bound_to 7965
  154.5540  140.0720  156.8713 H   0  0  0  0  0  0  0  0  0  0  0  0  # atno 8008 bound_to 7997
  155.2938  140.3380  155.4233 H   0  0  0  0  0  0  0  0  0  0  0  0  # atno 8009 bound_to 7997
  156.1986  140.1713  156.7933 H   0  0  0  0  0  0  0  0  0  0  0  0  # atno 8010 bound_to 7997
  140.5724  143.9137  150.6723 H   0  0  0  0  0  0  0  0  0  0  0  0  # atno 10167 bound_to 10162
  156.0637  130.5858  150.8350 H   0  0  0  0  0  0  0  0  0  0  0  0  # atno 10718 bound_to 10713
  154.8740  135.4015  154.3337 H   0  0  0  0  0  0  0  0  0  0  0  0  # atno 10763 bound_to 10752
  153.4147  135.7021  153.6340 H   0  0  0  0  0  0  0  0  0  0  0  0  # atno 10764 bound_to 10752
  153.5028  135.3724  155.2519 H   0  0  0  0  0  0  0  0  0  0  0  0  # atno 10765 bound_to 10752
  141.1081  133.6612  156.4494 H   0  0  0  0  0  0  0  0  0  0  0  0  # atno 11005 bound_to 11000
  146.1419  139.4478  143.0104 LP  0  0  0  0  0  0  0  0  0  0  0  0  # atno 17320 bound_to 7965
  145.7005  141.0137  143.1507 LP  0  0  0  0  0  0  0  0  0  0  0  0  # atno 17321 bound_to 7965
  140.2615  143.3520  152.1318 LP  0  0  0  0  0  0  0  0  0  0  0  0  # atno 17342 bound_to 10162
  139.5124  144.6917  151.5742 LP  0  0  0  0  0  0  0  0  0  0  0  0  # atno 17343 bound_to 10162
  157.5664  131.0946  150.9483 LP  0  0  0  0  0  0  0  0  0  0  0  0  # atno 17370 bound_to 10713
  156.9709  130.5490  149.5290 LP  0  0  0  0  0  0  0  0  0  0  0  0  # atno 17371 bound_to 10713
  140.4848  134.6631  157.5186 LP  0  0  0  0  0  0  0  0  0  0  0  0  # atno 17394 bound_to 11000
  139.9961  134.6908  155.9607 LP  0  0  0  0  0  0  0  0  0  0  0  0  # atno 17395 bound_to 11000

$$$$
