AV-unprocessed.smi:707|AV-procd|sdf|3453|dock6
  -GOLD-   22720 0443D 1   1.00000     0.00000
 Structure written by MMmdl.
 44 45  0  0  0  0  0  0  0  0  1 V2000
  147.2539  140.0792  157.4198 C   0  0  0  0  0  0  0  0  0  0  0  0
  147.3197  140.9272  156.1912 C   0  0  0  0  0  0  0  0  0  0  0  0
  146.5275  141.9835  155.9723 N   0  0  0  0  0  0  0  0  0  0  0  0
  146.9067  142.4830  154.7417 N   0  0  0  0  0  0  0  0  0  0  0  0
  147.8898  141.6774  154.3411 C   0  0  0  0  0  0  0  0  0  0  0  0
  148.1967  140.6890  155.1950 N   0  0  0  0  0  0  0  0  0  0  0  0
  149.2093  139.6584  155.0599 C   0  0  0  0  0  0  0  0  0  0  0  0
  150.6164  140.2148  155.3155 C   0  0  0  0  0  0  0  0  0  0  0  0
  150.9037  140.2470  156.7424 N   0  0  0  0  0  0  0  0  0  0  0  0
  152.0358  139.7896  157.2961 C   0  0  0  0  0  0  0  0  0  0  0  0
  152.9553  139.2919  156.6468 O   0  0  0  0  0  0  0  0  0  0  0  0
  152.1555  139.9187  158.8118 C   0  0  0  0  0  0  0  0  0  0  0  0
  151.9325  141.2771  159.1587 O   0  0  0  0  0  0  0  0  0  0  0  0
  153.1106  142.0695  159.2581 C   0  0  2  0  0  0  0  0  0  0  0  0
  153.8102  141.7031  160.5793 C   0  0  0  0  0  0  0  0  0  0  0  0
  152.9922  142.1498  161.8028 C   0  0  0  0  0  0  0  0  0  0  0  0
  152.6684  143.6507  161.7442 C   0  0  0  0  0  0  0  0  0  0  0  0
  151.9488  144.0235  160.4342 C   0  0  1  0  0  0  0  0  0  0  0  0
  151.6259  145.5233  160.3773 C   0  0  0  0  0  0  0  0  0  0  0  0
  152.7864  143.5794  159.2186 C   0  0  0  0  0  0  0  0  0  0  0  0
  146.5175  140.4771  158.1187 H   0  0  0  0  0  0  0  0  0  0  0  0
  148.2242  140.0571  157.9164 H   0  0  0  0  0  0  0  0  0  0  0  0
  146.9678  139.0602  157.1584 H   0  0  0  0  0  0  0  0  0  0  0  0
  148.4008  141.8136  153.3991 H   0  0  0  0  0  0  0  0  0  0  0  0
  148.9828  138.8476  155.7531 H   0  0  0  0  0  0  0  0  0  0  0  0
  149.1433  139.2406  154.0543 H   0  0  0  0  0  0  0  0  0  0  0  0
  151.3589  139.5987  154.8057 H   0  0  0  0  0  0  0  0  0  0  0  0
  150.7045  141.2249  154.9129 H   0  0  0  0  0  0  0  0  0  0  0  0
  150.2027  140.6492  157.3480 H   0  0  0  0  0  0  0  0  0  0  0  0
  151.4271  139.2727  159.3051 H   0  0  0  0  0  0  0  0  0  0  0  0
  153.1492  139.5877  159.1128 H   0  0  0  0  0  0  0  0  0  0  0  0
  153.7825  141.8166  158.4362 H   0  0  0  0  0  0  0  0  0  0  0  0
  153.9884  140.6281  160.6221 H   0  0  0  0  0  0  0  0  0  0  0  0
  154.7917  142.1778  160.6116 H   0  0  0  0  0  0  0  0  0  0  0  0
  152.0645  141.5784  161.8525 H   0  0  0  0  0  0  0  0  0  0  0  0
  153.5411  141.9250  162.7176 H   0  0  0  0  0  0  0  0  0  0  0  0
  152.0513  143.9242  162.6008 H   0  0  0  0  0  0  0  0  0  0  0  0
  153.5920  144.2245  161.8337 H   0  0  0  0  0  0  0  0  0  0  0  0
  151.0001  143.4850  160.4055 H   0  0  0  0  0  0  0  0  0  0  0  0
  152.5344  146.1259  160.4019 H   0  0  0  0  0  0  0  0  0  0  0  0
  151.0039  145.8227  161.2212 H   0  0  0  0  0  0  0  0  0  0  0  0
  151.0840  145.7735  159.4649 H   0  0  0  0  0  0  0  0  0  0  0  0
  153.7223  144.1398  159.2049 H   0  0  0  0  0  0  0  0  0  0  0  0
  152.2746  143.8419  158.2935 H   0  0  0  0  0  0  0  0  0  0  0  0
  1  2  1  0  0  0  0
  1 21  1  0  0  0  0
  1 22  1  0  0  0  0
  1 23  1  0  0  0  0
  2  6  1  0  0  0  0
  2  3  2  0  0  0  0
  3  4  1  0  0  0  0
  4  5  2  0  0  0  0
  5  6  1  0  0  0  0
  5 24  1  0  0  0  0
  6  7  1  0  0  0  0
  7  8  1  0  0  0  0
  7 25  1  0  0  0  0
  7 26  1  0  0  0  0
  8  9  1  0  0  0  0
  8 27  1  0  0  0  0
  8 28  1  0  0  0  0
  9 10  1  0  0  0  0
  9 29  1  0  0  0  0
 10 11  2  0  0  0  0
 10 12  1  0  0  0  0
 12 13  1  0  0  0  0
 12 30  1  0  0  0  0
 12 31  1  0  0  0  0
 13 14  1  0  0  0  0
 14 20  1  0  0  0  0
 14 15  1  0  0  0  0
 14 32  1  0  0  0  0
 15 16  1  0  0  0  0
 15 33  1  0  0  0  0
 15 34  1  0  0  0  0
 16 17  1  0  0  0  0
 16 35  1  0  0  0  0
 16 36  1  0  0  0  0
 17 18  1  0  0  0  0
 17 37  1  0  0  0  0
 17 38  1  0  0  0  0
 18 19  1  0  0  0  0
 18 20  1  0  0  0  0
 18 39  1  0  0  0  0
 19 40  1  0  0  0  0
 19 41  1  0  0  0  0
 19 42  1  0  0  0  0
 20 43  1  0  0  0  0
 20 44  1  0  0  0  0
M  END
> <s_m_source_file>
AV-unprocessed.smi

> <i_m_source_file_index>
707

> <i_lp_mmshare_version>
43012

> <i_f3d_flags>
0

> <s_epik_input>
W0NIM11jMW5uW2NIXW4xW0NIMl1bQ0gyXVtOSF1DKD1PKVtDSDJdT1tDQEBIXTJbQ0gyXVtDSDJdW0NIMl1bQ0BASF0oW0NIM10pW0NIMl0y

> <s_epik_cmdline>
J2VwaWtfcHl0aG9uJywgJy1waCcsICc3LjAnLCAnLXRuJywgJzgnLCAnLW1hJywgJzIwMCcsICctbWV0YWxfYmluZGluZycsICctaW1hZScsICc8aW5maWxlLm1hZT4nLCAnLW9tYWUnLCAnPG91dGZpbGUubWFlPic=

> <r_lp_tautomer_probability>
1

> <r_epik_Ionization_Penalty>
0.000271783

> <r_epik_Ionization_Penalty_Charging>
0

> <r_epik_Ionization_Penalty_Neutral>
0.000271783

> <r_epik_State_Penalty>
-0

> <r_epik_Charging_Adjusted_Penalty>
0

> <i_epik_Tot_Q>
0

> <i_epik_Tot_abs_Q>
0

> <r_epik_Metal_State_Penalty>
-0

> <b_epik_Metal_Only>
0

> <s_lp_Force_Field>
OPLS_2005

> <r_lp_Energy>
13.9065

> <b_lp_Chiralities_Consistent>
1

> <s_lp_Variant>
AV-unprocessed.smi:707-1

> <Gold.Version>
5.8.1

> <Gold.Id.Protein>
6NUR|6NUR_protein|mol2

> <Gold.PLP.Fitness>
47.9963

> <Gold.PLP.PLP>
-43.4761

> <Gold.PLP.part.hbond>
-1.0000

> <Gold.PLP.part.metal>
0.0000

> <Gold.PLP.part.buried>
-5.2830

> <Gold.PLP.part.nonpolar>
-37.1553

> <Gold.PLP.part.repulsive>
0.3647

> <Gold.PLP.ligand.clash>
0.0000

> <Gold.PLP.ligand.torsion>
0.7796

> <Gold.PLP.Chemscore.Hbond>
1.0000

> <Gold.PLP.Chemscore.CHOScore>
1.0000

> <Gold.PLP.Chemscore.Metal>
0.0000

> <Gold.Chemscore.Hbonds>
donor molecule, donor type, donor heavy atom, donor atom, acceptor molecule, acceptor atom, score
      P1  H  7997  8009       L1    11  1.00

> <Gold.PLP.Chemscore.Internal.Correction>
0.0794

> <Gold.Rescore>
     Score         DG    S(hbond)    S(metal)    S(lipo)     H(rot)  DE(clash)    DE(int)     intcor
     13.28     -13.72       0.95        0.00      96.36       2.42       0.00       0.44       ----

> <Gold.Chemscore.Fitness>
13.2847

> <Gold.Chemscore.DG>
-13.7222

> <Gold.Chemscore.ZeroCoef>
-5.4800

> <Gold.Chemscore.Hbond>
0.9466

> <Gold.Chemscore.Metal>
0.0000

> <Gold.Chemscore.Lipo>
96.3563

> <Gold.Chemscore.Internal_Hbond>
0.0000

> <Gold.Chemscore.DEClash>
0.0000

> <Gold.Chemscore.DEInternal>
0.4376

> <Gold.Chemscore.Rot>
2.4191

> <Gold.Chemscore.Internal.Correction>
   9.000000E+99

> <Gold.Chemscore.Hbonds>
donor molecule, donor type, donor heavy atom, donor atom, acceptor molecule, acceptor atom, score
      P1  H  7997  8009       L1    11  0.95

> <Gold.Chemscore.Hbond.Weighted>
-3.1615

> <Gold.Chemscore.Metal.Weighted>
-0.0000

> <Gold.Chemscore.Lipo.Weighted>
-11.2737

> <Gold.Chemscore.Internal_Hbond.Weighted>
0.0000

> <Gold.Chemscore.DEClash.Weighted>
0.0000

> <Gold.Chemscore.DEInternal.Weighted>
0.4376

> <Gold.Chemscore.Rot.Weighted>
6.1929

> <Gold.Chemscore.Internal.Correction.Weighted>
   9.000000E+99

> <Gold.Protein.RotatedTorsions>
[ 6907 6896 6895 6894 ] final  114.40 input  -60.11 | X-H torsion
[ 7974 7965 7964 7962 ] final   55.09 input  175.53 | X-H torsion
[ 8008 7997 7996 7995 ] final -178.80 input   59.86 | X-H torsion
[ 10167 10162 10161 10158 ] final  123.43 input  -65.29 | X-H torsion
[ 10718 10713 10712 10709 ] final   41.06 input   66.30 | X-H torsion
[ 10763 10752 10751 10750 ] final  -76.75 input  -60.55 | X-H torsion
[ 11005 11000 10999 10996 ] final  164.35 input  -57.11 | X-H torsion

> <Gold.Protein.ActiveResidues>
 VAL166  LYS551  ARG553  GLY616  TRP617  ASP618  TYR619  PRO620  LYS621  CYS622 
 ASP623  PHE694  ASN695  SER759  ASP760  ASP761  ALA762  ILE779  LEU786  VAL792 
 PHE793  MET794  SER795  GLU796  ALA797  LYS798  CYS799  TRP800  GLU811  SER814 

> <Gold.Protein.RotatedAtoms>
  152.4805  133.8242  159.7068 H   0  0  0  0  0  0  0  0  0  0  0  0  # atno 6907 bound_to 6896
  150.8851  133.7310  159.2927 H   0  0  0  0  0  0  0  0  0  0  0  0  # atno 6908 bound_to 6896
  151.4801  135.1055  159.9827 H   0  0  0  0  0  0  0  0  0  0  0  0  # atno 6909 bound_to 6896
  145.9540  139.3998  143.0288 H   0  0  0  0  0  0  0  0  0  0  0  0  # atno 7974 bound_to 7965
  156.0230  140.1265  157.0337 H   0  0  0  0  0  0  0  0  0  0  0  0  # atno 8008 bound_to 7997
  154.4319  140.1065  156.6061 H   0  0  0  0  0  0  0  0  0  0  0  0  # atno 8009 bound_to 7997
  155.5917  140.3469  155.4570 H   0  0  0  0  0  0  0  0  0  0  0  0  # atno 8010 bound_to 7997
  139.5800  144.6982  151.3553 H   0  0  0  0  0  0  0  0  0  0  0  0  # atno 10167 bound_to 10162
  157.3892  130.7797  149.7255 H   0  0  0  0  0  0  0  0  0  0  0  0  # atno 10718 bound_to 10713
  154.5039  135.5787  153.6552 H   0  0  0  0  0  0  0  0  0  0  0  0  # atno 10763 bound_to 10752
  152.9884  135.6142  154.2967 H   0  0  0  0  0  0  0  0  0  0  0  0  # atno 10764 bound_to 10752
  154.2876  135.2849  155.2648 H   0  0  0  0  0  0  0  0  0  0  0  0  # atno 10765 bound_to 10752
  140.2450  134.8021  157.3447 H   0  0  0  0  0  0  0  0  0  0  0  0  # atno 11005 bound_to 11000
  145.8131  140.9716  143.0938 LP  0  0  0  0  0  0  0  0  0  0  0  0  # atno 17320 bound_to 7965
  144.6801  139.9947  143.7484 LP  0  0  0  0  0  0  0  0  0  0  0  0  # atno 17321 bound_to 7965
  140.7079  143.7466  150.7515 LP  0  0  0  0  0  0  0  0  0  0  0  0  # atno 17342 bound_to 10162
  140.0996  143.4800  152.2433 LP  0  0  0  0  0  0  0  0  0  0  0  0  # atno 17343 bound_to 10162
  155.9794  130.4040  150.3589 LP  0  0  0  0  0  0  0  0  0  0  0  0  # atno 17370 bound_to 10713
  157.1703  131.0367  151.2798 LP  0  0  0  0  0  0  0  0  0  0  0  0  # atno 17371 bound_to 10713
  140.1615  134.4723  155.7891 LP  0  0  0  0  0  0  0  0  0  0  0  0  # atno 17394 bound_to 11000
  141.2207  133.6903  156.7552 LP  0  0  0  0  0  0  0  0  0  0  0  0  # atno 17395 bound_to 11000

$$$$
