AV-unprocessed.smi:1762|AV-procd|sdf|7115|dock1
  -GOLD-   22720 8343D 1   1.00000     0.00000
 Structure written by MMmdl.
 53 54  0  0  0  0  0  0  0  0  2 V2000
  143.4385  132.3114  149.8412 C   0  0  0  0  0  0  0  0  0  0  0  0
  143.8929  132.4146  151.3014 C   0  0  2  0  0  0  0  0  0  0  0  0
  143.6475  133.8184  151.8876 C   0  0  0  0  0  0  0  0  0  0  0  0
  144.1654  133.9190  153.2809 N   0  3  2  0  0  0  0  0  0  0  0  0
  143.9299  135.2419  153.9561 C   0  0  2  0  0  0  0  0  0  0  0  0
  144.2947  135.1724  155.4548 C   0  0  0  0  0  0  0  0  0  0  0  0
  144.9305  136.0868  155.9808 O   0  0  0  0  0  0  0  0  0  0  0  0
  143.8848  134.0862  156.1264 N   0  0  0  0  0  0  0  0  0  0  0  0
  144.1345  133.8520  157.5418 C   0  0  0  0  0  0  0  0  0  0  0  0
  144.9512  132.5680  157.7417 C   0  0  0  0  0  0  0  0  0  0  0  0
  144.3630  131.6758  158.8185 C   0  0  0  0  0  0  0  0  0  0  0  0
  145.1617  131.2101  159.8848 C   0  0  0  0  0  0  0  0  0  0  0  0
  144.5641  130.3900  160.8616 C   0  0  0  0  0  0  0  0  0  0  0  0
  143.1986  130.0701  160.7356 C   0  0  0  0  0  0  0  0  0  0  0  0
  142.4879  130.5863  159.6336 C   0  0  0  0  0  0  0  0  0  0  0  0
  143.0512  131.3731  158.6913 N   0  0  0  0  0  0  0  0  0  0  0  0
  142.4842  135.8148  153.7661 C   0  0  0  0  0  0  0  0  0  0  0  0
  142.1862  137.0242  154.6744 C   0  0  0  0  0  0  0  0  0  0  0  0
  141.3658  134.7606  153.9052 C   0  0  0  0  0  0  0  0  0  0  0  0
  145.5987  133.5061  153.2934 C   0  0  0  0  0  0  0  0  0  0  0  0
  145.7802  132.1057  152.6812 C   0  0  2  0  0  0  0  0  0  0  0  0
  147.2523  131.6818  152.6316 C   0  0  0  0  0  0  0  0  0  0  0  0
  145.2816  132.1189  151.3511 O   0  0  0  0  0  0  0  0  0  0  0  0
  142.3727  132.5200  149.7451 H   0  0  0  0  0  0  0  0  0  0  0  0
  143.6175  131.3107  149.4470 H   0  0  0  0  0  0  0  0  0  0  0  0
  143.9766  133.0187  149.2094 H   0  0  0  0  0  0  0  0  0  0  0  0
  143.3459  131.6724  151.8860 H   0  0  0  0  0  0  0  0  0  0  0  0
  144.1242  134.5790  151.2671 H   0  0  0  0  0  0  0  0  0  0  0  0
  142.5747  133.9957  151.8505 H   0  0  0  0  0  0  0  0  0  0  0  0
  144.6144  135.9488  153.4828 H   0  0  0  0  0  0  0  0  0  0  0  0
  143.3694  133.3761  155.6263 H   0  0  0  0  0  0  0  0  0  0  0  0
  144.6697  134.7073  157.9571 H   0  0  0  0  0  0  0  0  0  0  0  0
  143.1846  133.7756  158.0738 H   0  0  0  0  0  0  0  0  0  0  0  0
  145.0004  132.0065  156.8074 H   0  0  0  0  0  0  0  0  0  0  0  0
  145.9802  132.8170  158.0048 H   0  0  0  0  0  0  0  0  0  0  0  0
  146.2068  131.4740  159.9556 H   0  0  0  0  0  0  0  0  0  0  0  0
  145.1425  130.0142  161.6927 H   0  0  0  0  0  0  0  0  0  0  0  0
  142.7072  129.4444  161.4659 H   0  0  0  0  0  0  0  0  0  0  0  0
  141.4391  130.3621  159.5062 H   0  0  0  0  0  0  0  0  0  0  0  0
  142.4195  136.2269  152.7601 H   0  0  0  0  0  0  0  0  0  0  0  0
  142.1144  136.7421  155.7251 H   0  0  0  0  0  0  0  0  0  0  0  0
  141.2387  137.4898  154.4017 H   0  0  0  0  0  0  0  0  0  0  0  0
  142.9608  137.7862  154.5835 H   0  0  0  0  0  0  0  0  0  0  0  0
  141.2847  134.3901  154.9271 H   0  0  0  0  0  0  0  0  0  0  0  0
  141.5289  133.9012  153.2555 H   0  0  0  0  0  0  0  0  0  0  0  0
  140.3977  135.1864  153.6397 H   0  0  0  0  0  0  0  0  0  0  0  0
  146.1895  134.2364  152.7378 H   0  0  0  0  0  0  0  0  0  0  0  0
  145.9980  133.4871  154.3072 H   0  0  0  0  0  0  0  0  0  0  0  0
  145.2280  131.3708  153.2702 H   0  0  0  0  0  0  0  0  0  0  0  0
  147.6856  131.6457  153.6315 H   0  0  0  0  0  0  0  0  0  0  0  0
  147.8441  132.3767  152.0349 H   0  0  0  0  0  0  0  0  0  0  0  0
  147.3571  130.6908  152.1892 H   0  0  0  0  0  0  0  0  0  0  0  0
  143.6596  133.2338  153.8248 H   0  0  0  0  0  0  0  0  0  0  0  0
  1  2  1  0  0  0  0
  1 24  1  0  0  0  0
  1 25  1  0  0  0  0
  1 26  1  0  0  0  0
  2 23  1  0  0  0  0
  2  3  1  0  0  0  0
  2 27  1  0  0  0  0
  3  4  1  0  0  0  0
  3 28  1  0  0  0  0
  3 29  1  0  0  0  0
  4  5  1  0  0  0  0
  4 20  1  0  0  0  0
  4 53  1  0  0  0  0
  5  6  1  0  0  0  0
  5 17  1  0  0  0  0
  5 30  1  0  0  0  0
  6  7  2  0  0  0  0
  6  8  1  0  0  0  0
  8  9  1  0  0  0  0
  8 31  1  0  0  0  0
  9 10  1  0  0  0  0
  9 32  1  0  0  0  0
  9 33  1  0  0  0  0
 10 11  1  0  0  0  0
 10 34  1  0  0  0  0
 10 35  1  0  0  0  0
 11 16  1  0  0  0  0
 11 12  2  0  0  0  0
 12 13  1  0  0  0  0
 12 36  1  0  0  0  0
 13 14  2  0  0  0  0
 13 37  1  0  0  0  0
 14 15  1  0  0  0  0
 14 38  1  0  0  0  0
 15 16  2  0  0  0  0
 15 39  1  0  0  0  0
 17 18  1  0  0  0  0
 17 19  1  0  0  0  0
 17 40  1  0  0  0  0
 18 41  1  0  0  0  0
 18 42  1  0  0  0  0
 18 43  1  0  0  0  0
 19 44  1  0  0  0  0
 19 45  1  0  0  0  0
 19 46  1  0  0  0  0
 20 21  1  0  0  0  0
 20 47  1  0  0  0  0
 20 48  1  0  0  0  0
 21 22  1  0  0  0  0
 21 23  1  0  0  0  0
 21 49  1  0  0  0  0
 22 50  1  0  0  0  0
 22 51  1  0  0  0  0
 22 52  1  0  0  0  0
M  CHG  1   4   1
M  END
> <s_m_source_file>
AV-unprocessed.smi

> <i_m_source_file_index>
1762

> <i_lp_mmshare_version>
43012

> <i_f3d_flags>
0

> <s_epik_input>
W0NIM11bQ0BASF0xW0NIMl1OKFtDSDJdW0NASF0oTzEpW0NIM10pW0NAQEhdKFtDSF0oW0NIM10pW0NIM10pQyg9TylbTkhdW0NIMl1bQ0gyXWMyW2NIXVtjSF1bY0hdW2NIXW4y

> <s_epik_cmdline>
J2VwaWtfcHl0aG9uJywgJy1waCcsICc3LjAnLCAnLXRuJywgJzgnLCAnLW1hJywgJzIwMCcsICctbWV0YWxfYmluZGluZycsICctaW1hZScsICc8aW5maWxlLm1hZT4nLCAnLW9tYWUnLCAnPG91dGZpbGUubWFlPic=

> <r_epik_Ionization_Penalty>
2.27005

> <r_epik_Ionization_Penalty_Charging>
2.24983

> <r_epik_Ionization_Penalty_Neutral>
0.0202209

> <r_epik_State_Penalty>
2.40228

> <r_epik_Charging_Adjusted_Penalty>
4.65211

> <i_epik_Tot_Q>
1

> <i_epik_Tot_abs_Q>
1

> <r_epik_Metal_State_Penalty>
2.40762

> <b_epik_Metal_Only>
0

> <s_lp_Force_Field>
OPLS_2005

> <r_lp_Energy>
21.2519

> <b_lp_Chiralities_Consistent>
1

> <s_lp_Variant>
AV-unprocessed.smi:1762-17

> <Gold.Version>
5.8.1

> <Gold.Id.Protein>
6NUR|6NUR_protein|mol2

> <Gold.PLP.Fitness>
44.4911

> <Gold.PLP.PLP>
-34.5001

> <Gold.PLP.part.hbond>
-2.4212

> <Gold.PLP.part.metal>
0.0000

> <Gold.PLP.part.buried>
-6.7957

> <Gold.PLP.part.nonpolar>
-25.6252

> <Gold.PLP.part.repulsive>
0.3116

> <Gold.PLP.ligand.clash>
0.0000

> <Gold.PLP.ligand.torsion>
1.3476

> <Gold.PLP.Chemscore.Hbond>
3.0000

> <Gold.PLP.Chemscore.CHOScore>
1.0000

> <Gold.PLP.Chemscore.Metal>
0.0000

> <Gold.Chemscore.Hbonds>
donor molecule, donor type, donor heavy atom, donor atom, acceptor molecule, acceptor atom, score
      L1  H     4    53       P1 10957  2.00
      L1  H     8    31       P1 10957  1.00

> <Gold.PLP.Chemscore.Internal.Correction>
0.6862

> <Gold.Rescore>
     Score         DG    S(hbond)    S(metal)    S(lipo)     H(rot)  DE(clash)    DE(int)     intcor
     16.81     -18.13       1.97        0.00      88.27       1.66       0.11       1.21       ----

> <Gold.Chemscore.Fitness>
16.8125

> <Gold.Chemscore.DG>
-18.1273

> <Gold.Chemscore.ZeroCoef>
-5.4800

> <Gold.Chemscore.Hbond>
1.9695

> <Gold.Chemscore.Metal>
0.0000

> <Gold.Chemscore.Lipo>
88.2706

> <Gold.Chemscore.Internal_Hbond>
0.0000

> <Gold.Chemscore.DEClash>
0.1093

> <Gold.Chemscore.DEInternal>
1.2055

> <Gold.Chemscore.Rot>
1.6635

> <Gold.Chemscore.Internal.Correction>
   9.000000E+99

> <Gold.Chemscore.Hbonds>
donor molecule, donor type, donor heavy atom, donor atom, acceptor molecule, acceptor atom, score
      L1  H     4    53       P1 10957  0.94
      L1  H     8    31       P1 10957  0.99

> <Gold.Chemscore.Hbond.Weighted>
-6.5783

> <Gold.Chemscore.Metal.Weighted>
-0.0000

> <Gold.Chemscore.Lipo.Weighted>
-10.3277

> <Gold.Chemscore.Internal_Hbond.Weighted>
0.0000

> <Gold.Chemscore.DEClash.Weighted>
0.1093

> <Gold.Chemscore.DEInternal.Weighted>
1.2055

> <Gold.Chemscore.Rot.Weighted>
4.2586

> <Gold.Chemscore.Internal.Correction.Weighted>
   9.000000E+99

> <Gold.Protein.RotatedTorsions>
[ 6907 6896 6895 6894 ] final  -87.39 input  -60.11 | X-H torsion
[ 7974 7965 7964 7962 ] final  -80.62 input  175.53 | X-H torsion
[ 8008 7997 7996 7995 ] final  -40.13 input   59.86 | X-H torsion
[ 10167 10162 10161 10158 ] final  -70.00 input  -65.29 | X-H torsion
[ 10718 10713 10712 10709 ] final  -12.76 input   66.30 | X-H torsion
[ 10763 10752 10751 10750 ] final   70.95 input  -60.55 | X-H torsion
[ 11005 11000 10999 10996 ] final  -79.87 input  -57.11 | X-H torsion

> <Gold.Protein.ActiveResidues>
 VAL166  LYS551  ARG553  GLY616  TRP617  ASP618  TYR619  PRO620  LYS621  CYS622 
 ASP623  PHE694  ASN695  SER759  ASP760  ASP761  ALA762  ILE779  LEU786  VAL792 
 PHE793  MET794  SER795  GLU796  ALA797  LYS798  CYS799  TRP800  GLU811  SER814 

> <Gold.Protein.RotatedAtoms>
  150.6866  134.2903  159.4663 H   0  0  0  0  0  0  0  0  0  0  0  0  # atno 6907 bound_to 6896
  152.0809  134.9469  160.0582 H   0  0  0  0  0  0  0  0  0  0  0  0  # atno 6908 bound_to 6896
  152.0822  133.4124  159.4543 H   0  0  0  0  0  0  0  0  0  0  0  0  # atno 6909 bound_to 6896
  145.5575  140.9487  143.1465 H   0  0  0  0  0  0  0  0  0  0  0  0  # atno 7974 bound_to 7965
  154.4015  140.1533  156.2976 H   0  0  0  0  0  0  0  0  0  0  0  0  # atno 8008 bound_to 7997
  155.8729  140.3448  155.5812 H   0  0  0  0  0  0  0  0  0  0  0  0  # atno 8009 bound_to 7997
  155.7754  140.0836  157.2077 H   0  0  0  0  0  0  0  0  0  0  0  0  # atno 8010 bound_to 7997
  140.5386  143.2316  151.7130 H   0  0  0  0  0  0  0  0  0  0  0  0  # atno 10167 bound_to 10162
  156.6400  130.4925  149.6098 H   0  0  0  0  0  0  0  0  0  0  0  0  # atno 10718 bound_to 10713
  153.0371  135.5155  154.7519 H   0  0  0  0  0  0  0  0  0  0  0  0  # atno 10763 bound_to 10752
  154.6487  135.2922  155.0016 H   0  0  0  0  0  0  0  0  0  0  0  0  # atno 10764 bound_to 10752
  154.0908  135.6650  153.4905 H   0  0  0  0  0  0  0  0  0  0  0  0  # atno 10765 bound_to 10752
  141.1668  133.7125  156.8187 H   0  0  0  0  0  0  0  0  0  0  0  0  # atno 11005 bound_to 11000
  144.7499  139.7222  143.7277 LP  0  0  0  0  0  0  0  0  0  0  0  0  # atno 17320 bound_to 7965
  146.1874  139.5096  142.9827 LP  0  0  0  0  0  0  0  0  0  0  0  0  # atno 17321 bound_to 7965
  139.4980  144.4003  152.0188 LP  0  0  0  0  0  0  0  0  0  0  0  0  # atno 17342 bound_to 10162
  140.3111  144.3537  150.6034 LP  0  0  0  0  0  0  0  0  0  0  0  0  # atno 17343 bound_to 10162
  156.2166  130.6712  151.1325 LP  0  0  0  0  0  0  0  0  0  0  0  0  # atno 17370 bound_to 10713
  157.7174  131.0702  150.6274 LP  0  0  0  0  0  0  0  0  0  0  0  0  # atno 17371 bound_to 10713
  140.2135  134.8810  157.3300 LP  0  0  0  0  0  0  0  0  0  0  0  0  # atno 17394 bound_to 11000
  140.2062  134.4194  155.7636 LP  0  0  0  0  0  0  0  0  0  0  0  0  # atno 17395 bound_to 11000

$$$$
