AV-unprocessed.smi:1350|AV-procd|sdf|5520|dock9
  -GOLD-   22720 5113D 1   1.00000     0.00000
 Structure written by MMmdl.
 43 45  0  0  0  0  0  0  0  0  1 V2000
  153.7234  140.7360  160.5547 C   0  0  0  0  0  0  0  0  0  0  0  0
  152.5681  140.8655  159.7390 O   0  0  0  0  0  0  0  0  0  0  0  0
  152.2451  142.1137  159.2461 C   0  0  0  0  0  0  0  0  0  0  0  0
  152.6148  143.3228  159.8909 C   0  0  0  0  0  0  0  0  0  0  0  0
  152.2584  144.5692  159.3422 C   0  0  0  0  0  0  0  0  0  0  0  0
  151.5288  144.6283  158.1425 C   0  0  0  0  0  0  0  0  0  0  0  0
  151.1563  143.4383  157.4931 C   0  0  0  0  0  0  0  0  0  0  0  0
  151.5067  142.1847  158.0375 C   0  0  0  0  0  0  0  0  0  0  0  0
  151.0873  140.9313  157.2866 C   0  0  0  0  0  0  0  0  0  0  0  0
  150.9898  141.1733  155.8930 O   0  0  0  0  0  0  0  0  0  0  0  0
  149.7286  141.6965  155.5104 C   0  0  0  0  0  0  0  0  0  0  0  0
  149.0187  140.6793  154.6062 C   0  0  2  0  0  0  0  0  0  0  0  0
  149.9770  140.0925  153.7475 O   0  0  0  0  0  0  0  0  0  0  0  0
  147.8911  141.3168  153.7716 C   0  0  0  0  0  0  0  0  0  0  0  0
  146.8375  141.8707  154.6022 N   0  0  0  0  0  0  0  0  0  0  0  0
  146.5458  141.5468  155.8768 C   0  0  0  0  0  0  0  0  0  0  0  0
  145.5314  142.1872  156.4515 N   0  0  0  0  0  0  0  0  0  0  0  0
  145.1160  143.0249  155.4305 C   0  0  0  0  0  0  0  0  0  0  0  0
  144.0708  143.9756  155.3912 C   0  0  0  0  0  0  0  0  0  0  0  0
  143.8305  144.7248  154.2204 C   0  0  0  0  0  0  0  0  0  0  0  0
  144.6288  144.5358  153.0735 C   0  0  0  0  0  0  0  0  0  0  0  0
  145.6763  143.5949  153.0890 C   0  0  0  0  0  0  0  0  0  0  0  0
  145.9125  142.8499  154.2591 C   0  0  0  0  0  0  0  0  0  0  0  0
  153.8285  139.6965  160.8651 H   0  0  0  0  0  0  0  0  0  0  0  0
  153.6447  141.3422  161.4581 H   0  0  0  0  0  0  0  0  0  0  0  0
  154.6284  141.0102  160.0110 H   0  0  0  0  0  0  0  0  0  0  0  0
  153.1760  143.3235  160.8127 H   0  0  0  0  0  0  0  0  0  0  0  0
  152.5467  145.4814  159.8433 H   0  0  0  0  0  0  0  0  0  0  0  0
  151.2562  145.5843  157.7204 H   0  0  0  0  0  0  0  0  0  0  0  0
  150.5972  143.4885  156.5701 H   0  0  0  0  0  0  0  0  0  0  0  0
  151.8359  140.1599  157.4735 H   0  0  0  0  0  0  0  0  0  0  0  0
  150.1375  140.5444  157.6554 H   0  0  0  0  0  0  0  0  0  0  0  0
  149.1222  141.9166  156.3907 H   0  0  0  0  0  0  0  0  0  0  0  0
  149.8778  142.6336  154.9711 H   0  0  0  0  0  0  0  0  0  0  0  0
  148.6073  139.8831  155.2283 H   0  0  0  0  0  0  0  0  0  0  0  0
  149.6069  140.0335  152.8801 H   0  0  0  0  0  0  0  0  0  0  0  0
  148.2881  142.1211  153.1510 H   0  0  0  0  0  0  0  0  0  0  0  0
  147.4546  140.5847  153.0904 H   0  0  0  0  0  0  0  0  0  0  0  0
  147.1126  140.8004  156.4143 H   0  0  0  0  0  0  0  0  0  0  0  0
  143.4534  144.1292  156.2637 H   0  0  0  0  0  0  0  0  0  0  0  0
  143.0291  145.4488  154.2023 H   0  0  0  0  0  0  0  0  0  0  0  0
  144.4372  145.1140  152.1815 H   0  0  0  0  0  0  0  0  0  0  0  0
  146.2914  143.4473  152.2137 H   0  0  0  0  0  0  0  0  0  0  0  0
  1  2  1  0  0  0  0
  1 24  1  0  0  0  0
  1 25  1  0  0  0  0
  1 26  1  0  0  0  0
  2  3  1  0  0  0  0
  3  8  1  0  0  0  0
  3  4  2  0  0  0  0
  4  5  1  0  0  0  0
  4 27  1  0  0  0  0
  5  6  2  0  0  0  0
  5 28  1  0  0  0  0
  6  7  1  0  0  0  0
  6 29  1  0  0  0  0
  7  8  2  0  0  0  0
  7 30  1  0  0  0  0
  8  9  1  0  0  0  0
  9 10  1  0  0  0  0
  9 31  1  0  0  0  0
  9 32  1  0  0  0  0
 10 11  1  0  0  0  0
 11 12  1  0  0  0  0
 11 33  1  0  0  0  0
 11 34  1  0  0  0  0
 12 13  1  0  0  0  0
 12 14  1  0  0  0  0
 12 35  1  0  0  0  0
 13 36  1  0  0  0  0
 14 15  1  0  0  0  0
 14 37  1  0  0  0  0
 14 38  1  0  0  0  0
 15 23  1  0  0  0  0
 15 16  1  0  0  0  0
 16 17  2  0  0  0  0
 16 39  1  0  0  0  0
 17 18  1  0  0  0  0
 18 23  2  0  0  0  0
 18 19  1  0  0  0  0
 19 20  2  0  0  0  0
 19 40  1  0  0  0  0
 20 21  1  0  0  0  0
 20 41  1  0  0  0  0
 21 22  2  0  0  0  0
 21 42  1  0  0  0  0
 22 23  1  0  0  0  0
 22 43  1  0  0  0  0
M  END
> <s_m_source_file>
AV-unprocessed.smi

> <i_m_source_file_index>
1350

> <i_lp_mmshare_version>
43012

> <i_f3d_flags>
0

> <s_epik_input>
W0NIM11PYzFbY0hdW2NIXVtjSF1bY0hdYzFbQ0gyXU9bQ0gyXVtDQEhdKFtPSF0pW0NIMl1uKFtjSF1uMiljKGMyMylbY0hdW2NIXVtjSF1bY0hdMw==

> <s_epik_cmdline>
J2VwaWtfcHl0aG9uJywgJy1waCcsICc3LjAnLCAnLXRuJywgJzgnLCAnLW1hJywgJzIwMCcsICctbWV0YWxfYmluZGluZycsICctaW1hZScsICc8aW5maWxlLm1hZT4nLCAnLW9tYWUnLCAnPG91dGZpbGUubWFlPic=

> <r_lp_tautomer_probability>
1

> <r_epik_Ionization_Penalty>
0.0713119

> <r_epik_Ionization_Penalty_Charging>
0

> <r_epik_Ionization_Penalty_Neutral>
0.0713119

> <r_epik_State_Penalty>
0.06259

> <r_epik_Charging_Adjusted_Penalty>
0.06259

> <i_epik_Tot_Q>
0

> <i_epik_Tot_abs_Q>
0

> <r_epik_Metal_State_Penalty>
6.60119e-05

> <b_epik_Metal_Only>
0

> <s_lp_Force_Field>
OPLS_2005

> <r_lp_Energy>
18.6906

> <b_lp_Chiralities_Consistent>
1

> <s_lp_Variant>
AV-unprocessed.smi:1350-1

> <Gold.Version>
5.8.1

> <Gold.Id.Protein>
6NUR|6NUR_protein|mol2

> <Gold.PLP.Fitness>
58.1926

> <Gold.PLP.PLP>
-56.1792

> <Gold.PLP.part.hbond>
-2.3261

> <Gold.PLP.part.metal>
0.0000

> <Gold.PLP.part.buried>
-6.9378

> <Gold.PLP.part.nonpolar>
-47.5900

> <Gold.PLP.part.repulsive>
0.1476

> <Gold.PLP.ligand.clash>
0.0000

> <Gold.PLP.ligand.torsion>
1.7510

> <Gold.PLP.Chemscore.Hbond>
1.8000

> <Gold.PLP.Chemscore.CHOScore>
0.0000

> <Gold.PLP.Chemscore.Metal>
0.0000

> <Gold.Chemscore.Hbonds>
donor molecule, donor type, donor heavy atom, donor atom, acceptor molecule, acceptor atom, score
      L1  H    13    36       P1  7957  1.00
      P1  H  7989  7998       L1    13  0.77

> <Gold.PLP.Chemscore.Internal.Correction>
0.1155

> <Gold.Rescore>
     Score         DG    S(hbond)    S(metal)    S(lipo)     H(rot)  DE(clash)    DE(int)     intcor
     18.10     -20.82       1.48        0.00     146.50       2.63       0.37       2.35       ----

> <Gold.Chemscore.Fitness>
18.1030

> <Gold.Chemscore.DG>
-20.8165

> <Gold.Chemscore.ZeroCoef>
-5.4800

> <Gold.Chemscore.Hbond>
1.4761

> <Gold.Chemscore.Metal>
0.0000

> <Gold.Chemscore.Lipo>
146.5032

> <Gold.Chemscore.Internal_Hbond>
0.0000

> <Gold.Chemscore.DEClash>
0.3673

> <Gold.Chemscore.DEInternal>
2.3462

> <Gold.Chemscore.Rot>
2.6308

> <Gold.Chemscore.Internal.Correction>
   9.000000E+99

> <Gold.Chemscore.Hbonds>
donor molecule, donor type, donor heavy atom, donor atom, acceptor molecule, acceptor atom, score
      L1  H    13    36       P1  7957  0.99
      P1  H  7989  7998       L1    13  0.30

> <Gold.Chemscore.Hbond.Weighted>
-4.9303

> <Gold.Chemscore.Metal.Weighted>
-0.0000

> <Gold.Chemscore.Lipo.Weighted>
-17.1409

> <Gold.Chemscore.Internal_Hbond.Weighted>
0.0000

> <Gold.Chemscore.DEClash.Weighted>
0.3673

> <Gold.Chemscore.DEInternal.Weighted>
2.3462

> <Gold.Chemscore.Rot.Weighted>
6.7347

> <Gold.Chemscore.Internal.Correction.Weighted>
   9.000000E+99

> <Gold.Protein.RotatedTorsions>
[ 6907 6896 6895 6894 ] final  -74.30 input  -60.11 | X-H torsion
[ 7974 7965 7964 7962 ] final -147.64 input  175.53 | X-H torsion
[ 8008 7997 7996 7995 ] final   -6.60 input   59.86 | X-H torsion
[ 10167 10162 10161 10158 ] final  115.85 input  -65.29 | X-H torsion
[ 10718 10713 10712 10709 ] final  -31.67 input   66.30 | X-H torsion
[ 10763 10752 10751 10750 ] final  -13.96 input  -60.55 | X-H torsion
[ 11005 11000 10999 10996 ] final -156.41 input  -57.11 | X-H torsion

> <Gold.Protein.ActiveResidues>
 VAL166  LYS551  ARG553  GLY616  TRP617  ASP618  TYR619  PRO620  LYS621  CYS622 
 ASP623  PHE694  ASN695  SER759  ASP760  ASP761  ALA762  ILE779  LEU786  VAL792 
 PHE793  MET794  SER795  GLU796  ALA797  LYS798  CYS799  TRP800  GLU811  SER814 

> <Gold.Protein.RotatedAtoms>
  150.7098  134.4890  159.5506 H   0  0  0  0  0  0  0  0  0  0  0  0  # atno 6907 bound_to 6896
  152.2511  134.8128  160.0455 H   0  0  0  0  0  0  0  0  0  0  0  0  # atno 6908 bound_to 6896
  151.8875  133.3473  159.3824 H   0  0  0  0  0  0  0  0  0  0  0  0  # atno 6909 bound_to 6896
  144.8080  140.5301  143.5661 H   0  0  0  0  0  0  0  0  0  0  0  0  # atno 7974 bound_to 7965
  154.5921  140.2428  155.7906 H   0  0  0  0  0  0  0  0  0  0  0  0  # atno 8008 bound_to 7997
  156.2254  140.2984  156.0009 H   0  0  0  0  0  0  0  0  0  0  0  0  # atno 8009 bound_to 7997
  155.2355  140.0405  157.2958 H   0  0  0  0  0  0  0  0  0  0  0  0  # atno 8010 bound_to 7997
  139.6288  144.7112  151.2476 H   0  0  0  0  0  0  0  0  0  0  0  0  # atno 10167 bound_to 10162
  156.3844  130.4361  149.7444 H   0  0  0  0  0  0  0  0  0  0  0  0  # atno 10718 bound_to 10713
  153.5211  135.7015  153.5731 H   0  0  0  0  0  0  0  0  0  0  0  0  # atno 10763 bound_to 10752
  153.3779  135.3927  155.1836 H   0  0  0  0  0  0  0  0  0  0  0  0  # atno 10764 bound_to 10752
  154.8694  135.3828  154.4700 H   0  0  0  0  0  0  0  0  0  0  0  0  # atno 10765 bound_to 10752
  140.6759  134.4197  157.5229 H   0  0  0  0  0  0  0  0  0  0  0  0  # atno 11005 bound_to 11000
  145.5391  139.1475  143.3457 LP  0  0  0  0  0  0  0  0  0  0  0  0  # atno 17320 bound_to 7965
  146.2375  140.5530  142.8948 LP  0  0  0  0  0  0  0  0  0  0  0  0  # atno 17321 bound_to 7965
  140.7427  143.6518  150.8241 LP  0  0  0  0  0  0  0  0  0  0  0  0  # atno 17342 bound_to 10162
  140.0140  143.5612  152.2827 LP  0  0  0  0  0  0  0  0  0  0  0  0  # atno 17343 bound_to 10162
  156.4522  130.7912  151.2933 LP  0  0  0  0  0  0  0  0  0  0  0  0  # atno 17370 bound_to 10713
  157.7495  131.0092  150.3257 LP  0  0  0  0  0  0  0  0  0  0  0  0  # atno 17371 bound_to 10713
  139.8967  134.8654  156.2077 LP  0  0  0  0  0  0  0  0  0  0  0  0  # atno 17394 bound_to 11000
  141.0356  133.6965  156.1506 LP  0  0  0  0  0  0  0  0  0  0  0  0  # atno 17395 bound_to 11000

$$$$
