AV-unprocessed.smi:2993|AV-procd|sdf|11403|dock6
  -GOLD-   2272016323D 1   1.00000     0.00000
 Structure written by MMmdl.
 34 35  0  0  0  0  0  0  0  0  1 V2000
  151.4817  139.5280  156.1899 C   0  0  0  0  0  0  0  0  0  0  0  0
  150.3949  140.2397  155.4362 C   0  0  0  0  0  0  0  0  0  0  0  0
  150.4063  140.2154  154.1142 N   0  0  0  0  0  0  0  0  0  0  0  0
  149.2966  140.9618  153.7067 O   0  0  0  0  0  0  0  0  0  0  0  0
  148.6543  141.4142  154.8133 C   0  0  0  0  0  0  0  0  0  0  0  0
  147.4373  142.2464  154.5903 C   0  0  0  0  0  0  0  0  0  0  0  0
  149.2950  140.9906  155.9449 C   0  0  0  0  0  0  0  0  0  0  0  0
  148.9298  141.2622  157.3818 C   0  0  0  0  0  0  0  0  0  0  0  0
  150.1092  141.9269  158.0905 C   0  0  0  0  0  0  0  0  0  0  0  0
  150.6823  141.3428  159.0097 O   0  0  0  0  0  0  0  0  0  0  0  0
  150.4496  143.1515  157.6595 N   0  0  0  0  0  0  0  0  0  0  0  0
  151.4999  143.9887  158.2276 C   0  0  1  0  0  0  0  0  0  0  0  0
  151.9494  145.0000  157.1643 C   0  0  0  0  0  0  0  0  0  0  0  0
  151.0767  144.6979  159.5030 C   0  0  0  0  0  0  0  0  0  0  0  0
  151.9200  145.8022  160.0946 C   0  0  0  0  0  0  0  0  0  0  0  0
  151.8039  144.4746  160.8080 C   0  0  0  0  0  0  0  0  0  0  0  0
  152.4238  140.0722  156.1198 H   0  0  0  0  0  0  0  0  0  0  0  0
  151.6446  138.5250  155.7951 H   0  0  0  0  0  0  0  0  0  0  0  0
  151.2364  139.4282  157.2467 H   0  0  0  0  0  0  0  0  0  0  0  0
  147.4336  143.1098  155.2560 H   0  0  0  0  0  0  0  0  0  0  0  0
  146.5343  141.6670  154.7827 H   0  0  0  0  0  0  0  0  0  0  0  0
  147.3939  142.6125  153.5643 H   0  0  0  0  0  0  0  0  0  0  0  0
  148.0604  141.9172  157.4524 H   0  0  0  0  0  0  0  0  0  0  0  0
  148.6576  140.3473  157.9088 H   0  0  0  0  0  0  0  0  0  0  0  0
  149.9199  143.5454  156.8958 H   0  0  0  0  0  0  0  0  0  0  0  0
  152.3603  143.3580  158.4598 H   0  0  0  0  0  0  0  0  0  0  0  0
  152.7743  145.6126  157.5292 H   0  0  0  0  0  0  0  0  0  0  0  0
  151.1362  145.6711  156.8859 H   0  0  0  0  0  0  0  0  0  0  0  0
  152.2914  144.4956  156.2597 H   0  0  0  0  0  0  0  0  0  0  0  0
  150.0002  144.8409  159.5812 H   0  0  0  0  0  0  0  0  0  0  0  0
  152.8685  146.0307  159.6123 H   0  0  0  0  0  0  0  0  0  0  0  0
  151.3993  146.6542  160.5270 H   0  0  0  0  0  0  0  0  0  0  0  0
  151.2037  144.4395  161.7150 H   0  0  0  0  0  0  0  0  0  0  0  0
  152.6770  143.8253  160.8012 H   0  0  0  0  0  0  0  0  0  0  0  0
  1  2  1  0  0  0  0
  1 17  1  0  0  0  0
  1 18  1  0  0  0  0
  1 19  1  0  0  0  0
  2  7  1  0  0  0  0
  2  3  2  0  0  0  0
  3  4  1  0  0  0  0
  4  5  1  0  0  0  0
  5  6  1  0  0  0  0
  5  7  2  0  0  0  0
  6 20  1  0  0  0  0
  6 21  1  0  0  0  0
  6 22  1  0  0  0  0
  7  8  1  0  0  0  0
  8  9  1  0  0  0  0
  8 23  1  0  0  0  0
  8 24  1  0  0  0  0
  9 10  2  0  0  0  0
  9 11  1  0  0  0  0
 11 12  1  0  0  0  0
 11 25  1  0  0  0  0
 12 13  1  0  0  0  0
 12 14  1  0  0  0  0
 12 26  1  0  0  0  0
 13 27  1  0  0  0  0
 13 28  1  0  0  0  0
 13 29  1  0  0  0  0
 14 16  1  0  0  0  0
 14 15  1  0  0  0  0
 14 30  1  0  0  0  0
 15 16  1  0  0  0  0
 15 31  1  0  0  0  0
 15 32  1  0  0  0  0
 16 33  1  0  0  0  0
 16 34  1  0  0  0  0
M  END
> <s_m_source_file>
AV-unprocessed.smi

> <i_m_source_file_index>
2993

> <i_lp_mmshare_version>
43012

> <i_f3d_flags>
0

> <s_epik_input>
W0NIM11jMW5vYyhbQ0gzXSljMVtDSDJdQyg9TylbTkhdW0NASF0oW0NIM10pW0NIXTJbQ0gyXVtDSDJdMg==

> <s_epik_cmdline>
J2VwaWtfcHl0aG9uJywgJy1waCcsICc3LjAnLCAnLXRuJywgJzgnLCAnLW1hJywgJzIwMCcsICctbWV0YWxfYmluZGluZycsICctaW1hZScsICc8aW5maWxlLm1hZT4nLCAnLW9tYWUnLCAnPG91dGZpbGUubWFlPic=

> <r_lp_tautomer_probability>
1

> <r_epik_Ionization_Penalty>
1.92533e-08

> <r_epik_Ionization_Penalty_Charging>
0

> <r_epik_Ionization_Penalty_Neutral>
1.92533e-08

> <r_epik_State_Penalty>
-0

> <r_epik_Charging_Adjusted_Penalty>
0

> <i_epik_Tot_Q>
0

> <i_epik_Tot_abs_Q>
0

> <r_epik_Metal_State_Penalty>
-0

> <b_epik_Metal_Only>
0

> <s_lp_Force_Field>
OPLS_2005

> <r_lp_Energy>
6.29181

> <b_lp_Chiralities_Consistent>
1

> <s_lp_Variant>
AV-unprocessed.smi:2993-2

> <Gold.Version>
5.8.1

> <Gold.Id.Protein>
6NUR|6NUR_protein|mol2

> <Gold.PLP.Fitness>
40.3196

> <Gold.PLP.PLP>
-32.9711

> <Gold.PLP.part.hbond>
-4.2233

> <Gold.PLP.part.metal>
0.0000

> <Gold.PLP.part.buried>
-4.8207

> <Gold.PLP.part.nonpolar>
-27.7630

> <Gold.PLP.part.repulsive>
3.4173

> <Gold.PLP.ligand.clash>
0.0000

> <Gold.PLP.ligand.torsion>
1.1596

> <Gold.PLP.Chemscore.Hbond>
2.8688

> <Gold.PLP.Chemscore.CHOScore>
0.0000

> <Gold.PLP.Chemscore.Metal>
0.0000

> <Gold.Chemscore.Hbonds>
donor molecule, donor type, donor heavy atom, donor atom, acceptor molecule, acceptor atom, score
      L1  H    11    25       P1  8028  1.00
      P1  H  7989  7998       L1     3  0.96
      P1  H  8011  8017       L1     4  0.93

> <Gold.PLP.Chemscore.Internal.Correction>
1.0614

> <Gold.Rescore>
     Score         DG    S(hbond)    S(metal)    S(lipo)     H(rot)  DE(clash)    DE(int)     intcor
     14.46     -19.82       2.04        0.00      96.28       1.46       4.21       1.15       ----

> <Gold.Chemscore.Fitness>
14.4623

> <Gold.Chemscore.DG>
-19.8243

> <Gold.Chemscore.ZeroCoef>
-5.4800

> <Gold.Chemscore.Hbond>
2.0399

> <Gold.Chemscore.Metal>
0.0000

> <Gold.Chemscore.Lipo>
96.2776

> <Gold.Chemscore.Internal_Hbond>
0.0000

> <Gold.Chemscore.DEClash>
4.2120

> <Gold.Chemscore.DEInternal>
1.1500

> <Gold.Chemscore.Rot>
1.4584

> <Gold.Chemscore.Internal.Correction>
   9.000000E+99

> <Gold.Chemscore.Hbonds>
donor molecule, donor type, donor heavy atom, donor atom, acceptor molecule, acceptor atom, score
      L1  H    11    25       P1  8028  0.97
      P1  H  7989  7998       L1     3  0.43
      P1  H  8011  8017       L1     4  0.63

> <Gold.Chemscore.Hbond.Weighted>
-6.8132

> <Gold.Chemscore.Metal.Weighted>
-0.0000

> <Gold.Chemscore.Lipo.Weighted>
-11.2645

> <Gold.Chemscore.Internal_Hbond.Weighted>
0.0000

> <Gold.Chemscore.DEClash.Weighted>
4.2120

> <Gold.Chemscore.DEInternal.Weighted>
1.1500

> <Gold.Chemscore.Rot.Weighted>
3.7334

> <Gold.Chemscore.Internal.Correction.Weighted>
   9.000000E+99

> <Gold.Protein.RotatedTorsions>
[ 6907 6896 6895 6894 ] final  -49.39 input  -60.11 | X-H torsion
[ 7974 7965 7964 7962 ] final   28.73 input  175.53 | X-H torsion
[ 8008 7997 7996 7995 ] final -152.61 input   59.86 | X-H torsion
[ 10167 10162 10161 10158 ] final  103.03 input  -65.29 | X-H torsion
[ 10718 10713 10712 10709 ] final  -87.30 input   66.30 | X-H torsion
[ 10763 10752 10751 10750 ] final   70.60 input  -60.55 | X-H torsion
[ 11005 11000 10999 10996 ] final  -94.70 input  -57.11 | X-H torsion

> <Gold.Protein.ActiveResidues>
 VAL166  LYS551  ARG553  GLY616  TRP617  ASP618  TYR619  PRO620  LYS621  CYS622 
 ASP623  PHE694  ASN695  SER759  ASP760  ASP761  ALA762  ILE779  LEU786  VAL792 
 PHE793  MET794  SER795  GLU796  ALA797  LYS798  CYS799  TRP800  GLU811  SER814 

> <Gold.Protein.RotatedAtoms>
  150.8810  134.8201  159.7224 H   0  0  0  0  0  0  0  0  0  0  0  0  # atno 6907 bound_to 6896
  152.4778  134.4796  159.9671 H   0  0  0  0  0  0  0  0  0  0  0  0  # atno 6908 bound_to 6896
  151.4871  133.3494  159.2883 H   0  0  0  0  0  0  0  0  0  0  0  0  # atno 6909 bound_to 6896
  146.1712  139.7017  142.8966 H   0  0  0  0  0  0  0  0  0  0  0  0  # atno 7974 bound_to 7965
  155.6579  140.0719  157.2564 H   0  0  0  0  0  0  0  0  0  0  0  0  # atno 8008 bound_to 7997
  154.4148  140.1721  156.1795 H   0  0  0  0  0  0  0  0  0  0  0  0  # atno 8009 bound_to 7997
  155.9722  140.3361  155.6589 H   0  0  0  0  0  0  0  0  0  0  0  0  # atno 8010 bound_to 7997
  139.7298  144.7039  151.0740 H   0  0  0  0  0  0  0  0  0  0  0  0  # atno 10167 bound_to 10162
  155.9986  130.4795  150.4847 H   0  0  0  0  0  0  0  0  0  0  0  0  # atno 10718 bound_to 10713
  153.0351  135.5168  154.7465 H   0  0  0  0  0  0  0  0  0  0  0  0  # atno 10763 bound_to 10752
  154.6449  135.2917  155.0061 H   0  0  0  0  0  0  0  0  0  0  0  0  # atno 10764 bound_to 10752
  154.0966  135.6642  153.4913 H   0  0  0  0  0  0  0  0  0  0  0  0  # atno 10765 bound_to 10752
  141.1463  133.7974  157.0334 H   0  0  0  0  0  0  0  0  0  0  0  0  # atno 11005 bound_to 11000
  145.4334  141.0417  143.2898 LP  0  0  0  0  0  0  0  0  0  0  0  0  # atno 17320 bound_to 7965
  144.8166  139.5865  143.7005 LP  0  0  0  0  0  0  0  0  0  0  0  0  # atno 17321 bound_to 7965
  140.7769  143.5058  150.9714 LP  0  0  0  0  0  0  0  0  0  0  0  0  # atno 17342 bound_to 10162
  139.8746  143.7149  152.3163 LP  0  0  0  0  0  0  0  0  0  0  0  0  # atno 17343 bound_to 10162
  157.2848  131.0614  151.2173 LP  0  0  0  0  0  0  0  0  0  0  0  0  # atno 17370 bound_to 10713
  157.3207  130.6935  149.6267 LP  0  0  0  0  0  0  0  0  0  0  0  0  # atno 17371 bound_to 10713
  140.0739  134.9687  157.1513 LP  0  0  0  0  0  0  0  0  0  0  0  0  # atno 17394 bound_to 11000
  140.3672  134.2430  155.7181 LP  0  0  0  0  0  0  0  0  0  0  0  0  # atno 17395 bound_to 11000

$$$$
