AV-unprocessed.smi:2097|AV-procd|sdf|8563|dock4
  -GOLD-   2272011293D 1   1.00000     0.00000
 Structure written by MMmdl.
 41 42  0  0  0  0  0  0  0  0  1 V2000
  154.3306  133.4669  160.7697 C   0  0  0  0  0  0  0  0  0  0  0  0
  154.5269  134.6951  161.6709 C   0  0  2  0  0  0  0  0  0  0  0  0
  153.7785  134.4744  162.8643 O   0  0  0  0  0  0  0  0  0  0  0  0
  154.3020  133.4852  163.7453 C   0  0  0  0  0  0  0  0  0  0  0  0
  153.1472  132.8132  164.4978 C   0  0  0  0  0  0  0  0  0  0  0  0
  152.3521  132.1984  163.6229 F   0  0  0  0  0  0  0  0  0  0  0  0
  153.6201  131.9090  165.3551 F   0  0  0  0  0  0  0  0  0  0  0  0
  152.4333  133.7257  165.1567 F   0  0  0  0  0  0  0  0  0  0  0  0
  154.0579  135.9826  160.9732 C   0  0  0  0  0  0  0  0  0  0  0  0
  153.6210  135.9282  159.8238 O   0  0  0  0  0  0  0  0  0  0  0  0
  154.1281  137.1057  161.7118 N   0  0  0  0  0  0  0  0  0  0  0  0
  153.7488  138.4270  161.3525 C   0  0  0  0  0  0  0  0  0  0  0  0
  152.9651  138.5994  160.1954 C   0  0  0  0  0  0  0  0  0  0  0  0
  152.5663  139.8961  159.8202 C   0  0  0  0  0  0  0  0  0  0  0  0
  152.9558  140.9964  160.6196 C   0  0  0  0  0  0  0  0  0  0  0  0
  152.5762  142.3074  160.2575 N   0  0  0  0  0  0  0  0  0  0  0  0
  153.1507  142.8090  159.0112 C   0  0  0  0  0  0  0  0  0  0  0  0
  152.4388  144.1006  158.5733 C   0  0  0  0  0  0  0  0  0  0  0  0
  152.4833  145.0573  159.6267 O   0  0  0  0  0  0  0  0  0  0  0  0
  151.8168  144.5892  160.7944 C   0  0  0  0  0  0  0  0  0  0  0  0
  152.5106  143.3179  161.3120 C   0  0  0  0  0  0  0  0  0  0  0  0
  153.6883  140.8267  161.7477 N   0  0  0  0  0  0  0  0  0  0  0  0
  154.0714  139.5822  162.1031 C   0  0  0  0  0  0  0  0  0  0  0  0
  154.8703  133.5754  159.8281 H   0  0  0  0  0  0  0  0  0  0  0  0
  153.2777  133.3032  160.5366 H   0  0  0  0  0  0  0  0  0  0  0  0
  154.7016  132.5663  161.2592 H   0  0  0  0  0  0  0  0  0  0  0  0
  155.5875  134.7710  161.9187 H   0  0  0  0  0  0  0  0  0  0  0  0
  154.8565  132.7368  163.1776 H   0  0  0  0  0  0  0  0  0  0  0  0
  154.9930  133.9278  164.4636 H   0  0  0  0  0  0  0  0  0  0  0  0
  154.4288  136.9860  162.6681 H   0  0  0  0  0  0  0  0  0  0  0  0
  152.6735  137.7494  159.5960 H   0  0  0  0  0  0  0  0  0  0  0  0
  151.9594  140.0288  158.9372 H   0  0  0  0  0  0  0  0  0  0  0  0
  154.2124  143.0037  159.1677 H   0  0  0  0  0  0  0  0  0  0  0  0
  153.0785  142.0765  158.2086 H   0  0  0  0  0  0  0  0  0  0  0  0
  152.9286  144.5184  157.6938 H   0  0  0  0  0  0  0  0  0  0  0  0
  151.4033  143.8983  158.2946 H   0  0  0  0  0  0  0  0  0  0  0  0
  151.8448  145.3682  161.5562 H   0  0  0  0  0  0  0  0  0  0  0  0
  150.7656  144.3966  160.5740 H   0  0  0  0  0  0  0  0  0  0  0  0
  151.9610  142.9322  162.1716 H   0  0  0  0  0  0  0  0  0  0  0  0
  153.5207  143.5552  161.6489 H   0  0  0  0  0  0  0  0  0  0  0  0
  154.6318  139.5288  163.0234 H   0  0  0  0  0  0  0  0  0  0  0  0
  1  2  1  0  0  0  0
  1 24  1  0  0  0  0
  1 25  1  0  0  0  0
  1 26  1  0  0  0  0
  2  3  1  0  0  0  0
  2  9  1  0  0  0  0
  2 27  1  0  0  0  0
  3  4  1  0  0  0  0
  4  5  1  0  0  0  0
  4 28  1  0  0  0  0
  4 29  1  0  0  0  0
  5  6  1  0  0  0  0
  5  7  1  0  0  0  0
  5  8  1  0  0  0  0
  9 10  2  0  0  0  0
  9 11  1  0  0  0  0
 11 12  1  0  0  0  0
 11 30  1  0  0  0  0
 12 23  1  0  0  0  0
 12 13  2  0  0  0  0
 13 14  1  0  0  0  0
 13 31  1  0  0  0  0
 14 15  2  0  0  0  0
 14 32  1  0  0  0  0
 15 16  1  0  0  0  0
 15 22  1  0  0  0  0
 16 21  1  0  0  0  0
 16 17  1  0  0  0  0
 17 18  1  0  0  0  0
 17 33  1  0  0  0  0
 17 34  1  0  0  0  0
 18 19  1  0  0  0  0
 18 35  1  0  0  0  0
 18 36  1  0  0  0  0
 19 20  1  0  0  0  0
 20 21  1  0  0  0  0
 20 37  1  0  0  0  0
 20 38  1  0  0  0  0
 21 39  1  0  0  0  0
 21 40  1  0  0  0  0
 22 23  2  0  0  0  0
 23 41  1  0  0  0  0
M  END
> <s_m_source_file>
AV-unprocessed.smi

> <i_m_source_file_index>
2097

> <i_lp_mmshare_version>
43012

> <i_f3d_flags>
0

> <s_epik_input>
RkMoRikoRilbQ0gyXU9bQ0BASF0oW0NIM10pQyg9TylbTkhdYzFbY0hdW2NIXWMobltjSF0xKU4yW0NIMl1bQ0gyXU9bQ0gyXVtDSDJdMg==

> <s_epik_cmdline>
J2VwaWtfcHl0aG9uJywgJy1waCcsICc3LjAnLCAnLXRuJywgJzgnLCAnLW1hJywgJzIwMCcsICctbWV0YWxfYmluZGluZycsICctaW1hZScsICc8aW5maWxlLm1hZT4nLCAnLW9tYWUnLCAnPG91dGZpbGUubWFlPic=

> <r_lp_tautomer_probability>
1

> <r_epik_Ionization_Penalty>
0.000443452

> <r_epik_Ionization_Penalty_Charging>
0

> <r_epik_Ionization_Penalty_Neutral>
0.000443452

> <r_epik_State_Penalty>
0.00027288

> <r_epik_Charging_Adjusted_Penalty>
0.00027288

> <i_epik_Tot_Q>
0

> <i_epik_Tot_abs_Q>
0

> <r_epik_Metal_State_Penalty>
-0

> <b_epik_Metal_Only>
0

> <s_lp_Force_Field>
OPLS_2005

> <r_lp_Energy>
25.2007

> <b_lp_Chiralities_Consistent>
1

> <s_lp_Variant>
AV-unprocessed.smi:2097-1

> <Gold.Version>
5.8.1

> <Gold.Id.Protein>
6NUR|6NUR_protein|mol2

> <Gold.PLP.Fitness>
41.3327

> <Gold.PLP.PLP>
-39.3489

> <Gold.PLP.part.hbond>
-1.0000

> <Gold.PLP.part.metal>
0.0000

> <Gold.PLP.part.buried>
-5.5744

> <Gold.PLP.part.nonpolar>
-32.8283

> <Gold.PLP.part.repulsive>
0.0631

> <Gold.PLP.ligand.clash>
0.0000

> <Gold.PLP.ligand.torsion>
0.6838

> <Gold.PLP.Chemscore.Hbond>
0.9913

> <Gold.PLP.Chemscore.CHOScore>
0.0000

> <Gold.PLP.Chemscore.Metal>
0.0000

> <Gold.Chemscore.Hbonds>
donor molecule, donor type, donor heavy atom, donor atom, acceptor molecule, acceptor atom, score
      P1  H  6896  6909       L1    10  1.00

> <Gold.PLP.Chemscore.Internal.Correction>
0.3775

> <Gold.Rescore>
     Score         DG    S(hbond)    S(metal)    S(lipo)     H(rot)  DE(clash)    DE(int)     intcor
     12.12     -14.54       0.99        0.00      91.91       1.95       0.02       2.41       ----

> <Gold.Chemscore.Fitness>
12.1167

> <Gold.Chemscore.DG>
-14.5445

> <Gold.Chemscore.ZeroCoef>
-5.4800

> <Gold.Chemscore.Hbond>
0.9883

> <Gold.Chemscore.Metal>
0.0000

> <Gold.Chemscore.Lipo>
91.9080

> <Gold.Chemscore.Internal_Hbond>
0.0000

> <Gold.Chemscore.DEClash>
0.0177

> <Gold.Chemscore.DEInternal>
2.4101

> <Gold.Chemscore.Rot>
1.9491

> <Gold.Chemscore.Internal.Correction>
   9.000000E+99

> <Gold.Chemscore.Hbonds>
donor molecule, donor type, donor heavy atom, donor atom, acceptor molecule, acceptor atom, score
      P1  H  6896  6909       L1    10  0.30

> <Gold.Chemscore.Hbond.Weighted>
-3.3010

> <Gold.Chemscore.Metal.Weighted>
-0.0000

> <Gold.Chemscore.Lipo.Weighted>
-10.7532

> <Gold.Chemscore.Internal_Hbond.Weighted>
0.0000

> <Gold.Chemscore.DEClash.Weighted>
0.0177

> <Gold.Chemscore.DEInternal.Weighted>
2.4101

> <Gold.Chemscore.Rot.Weighted>
4.9897

> <Gold.Chemscore.Internal.Correction.Weighted>
   9.000000E+99

> <Gold.Protein.RotatedTorsions>
[ 6907 6896 6895 6894 ] final  160.61 input  -60.11 | X-H torsion
[ 7974 7965 7964 7962 ] final  166.68 input  175.53 | X-H torsion
[ 8008 7997 7996 7995 ] final  -47.47 input   59.86 | X-H torsion
[ 10167 10162 10161 10158 ] final  152.93 input  -65.29 | X-H torsion
[ 10718 10713 10712 10709 ] final  134.22 input   66.30 | X-H torsion
[ 10763 10752 10751 10750 ] final   35.66 input  -60.55 | X-H torsion
[ 11005 11000 10999 10996 ] final  -28.40 input  -57.11 | X-H torsion

> <Gold.Protein.ActiveResidues>
 VAL166  LYS551  ARG553  GLY616  TRP617  ASP618  TYR619  PRO620  LYS621  CYS622 
 ASP623  PHE694  ASN695  SER759  ASP760  ASP761  ALA762  ILE779  LEU786  VAL792 
 PHE793  MET794  SER795  GLU796  ALA797  LYS798  CYS799  TRP800  GLU811  SER814 

> <Gold.Protein.RotatedAtoms>
  151.9680  133.3716  159.4060 H   0  0  0  0  0  0  0  0  0  0  0  0  # atno 6907 bound_to 6896
  150.6953  134.4170  159.5197 H   0  0  0  0  0  0  0  0  0  0  0  0  # atno 6908 bound_to 6896
  152.1870  134.8705  160.0572 H   0  0  0  0  0  0  0  0  0  0  0  0  # atno 6909 bound_to 6896
  144.7453  139.8650  143.6384 H   0  0  0  0  0  0  0  0  0  0  0  0  # atno 7974 bound_to 7965
  154.4017  140.1345  156.4180 H   0  0  0  0  0  0  0  0  0  0  0  0  # atno 8008 bound_to 7997
  155.7670  140.3485  155.5207 H   0  0  0  0  0  0  0  0  0  0  0  0  # atno 8009 bound_to 7997
  155.8804  140.0986  157.1479 H   0  0  0  0  0  0  0  0  0  0  0  0  # atno 8010 bound_to 7997
  139.4830  144.5316  151.7713 H   0  0  0  0  0  0  0  0  0  0  0  0  # atno 10167 bound_to 10162
  157.4694  131.1079  150.9821 H   0  0  0  0  0  0  0  0  0  0  0  0  # atno 10718 bound_to 10713
  153.0109  135.6327  154.1862 H   0  0  0  0  0  0  0  0  0  0  0  0  # atno 10763 bound_to 10752
  154.1604  135.2824  155.3112 H   0  0  0  0  0  0  0  0  0  0  0  0  # atno 10764 bound_to 10752
  154.5986  135.5594  153.7411 H   0  0  0  0  0  0  0  0  0  0  0  0  # atno 10765 bound_to 10752
  140.9205  133.7402  156.0795 H   0  0  0  0  0  0  0  0  0  0  0  0  # atno 11005 bound_to 11000
  146.1321  139.4359  143.0162 LP  0  0  0  0  0  0  0  0  0  0  0  0  # atno 17320 bound_to 7965
  145.7147  141.0095  143.1434 LP  0  0  0  0  0  0  0  0  0  0  0  0  # atno 17321 bound_to 7965
  140.4843  144.1403  150.5938 LP  0  0  0  0  0  0  0  0  0  0  0  0  # atno 17342 bound_to 10162
  140.4242  143.2597  151.9677 LP  0  0  0  0  0  0  0  0  0  0  0  0  # atno 17343 bound_to 10162
  157.0591  130.5818  149.5383 LP  0  0  0  0  0  0  0  0  0  0  0  0  # atno 17370 bound_to 10713
  156.0066  130.5153  150.7850 LP  0  0  0  0  0  0  0  0  0  0  0  0  # atno 17371 bound_to 10713
  140.7994  134.3526  157.5443 LP  0  0  0  0  0  0  0  0  0  0  0  0  # atno 17394 bound_to 11000
  139.8774  134.9188  156.3212 LP  0  0  0  0  0  0  0  0  0  0  0  0  # atno 17395 bound_to 11000

$$$$
