AV-unprocessed.smi:1552|AV-procd|sdf|6234|dock5
  -GOLD-   22720 6413D 1   1.00000     0.00000
 Structure written by MMmdl.
 50 51  0  0  0  0  0  0  0  0  2 V2000
  147.2198  130.8528  153.4917 C   0  0  0  0  0  0  0  0  0  0  0  0
  148.0088  131.9642  152.9089 N   0  3  0  0  0  0  0  0  0  0  0  0
  149.3521  132.0734  153.5244 C   0  0  0  0  0  0  0  0  0  0  0  0
  147.2965  133.2742  152.7812 C   0  0  2  0  0  0  0  0  0  0  0  0
  147.2035  134.0474  154.1268 C   0  0  0  0  0  0  0  0  0  0  0  0
  147.6274  135.4409  154.0163 N   0  0  0  0  0  0  0  0  0  0  0  0
  147.3701  136.4306  154.8855 C   0  0  0  0  0  0  0  0  0  0  0  0
  146.7291  136.2094  155.9117 O   0  0  0  0  0  0  0  0  0  0  0  0
  147.9081  137.8443  154.5901 C   0  0  0  0  0  0  0  0  0  0  0  0
  149.3014  138.0355  155.0202 N   0  0  0  0  0  0  0  0  0  0  0  0
  150.3064  138.2154  154.0800 C   0  0  0  0  0  0  0  0  0  0  0  0
  151.6098  138.3869  154.4051 C   0  0  0  0  0  0  0  0  0  0  0  0
  152.0285  138.3896  155.8027 C   0  0  0  0  0  0  0  0  0  0  0  0
  153.1829  138.5386  156.1969 O   0  0  0  0  0  0  0  0  0  0  0  0
  150.9892  138.2029  156.7182 N   0  0  0  0  0  0  0  0  0  0  0  0
  149.6445  138.0236  156.3900 C   0  0  0  0  0  0  0  0  0  0  0  0
  148.8073  137.8618  157.2772 O   0  0  0  0  0  0  0  0  0  0  0  0
  145.9454  133.1247  152.0180 C   0  0  0  0  0  0  0  0  0  0  0  0
  145.9894  131.9689  150.9875 C   0  0  0  0  0  0  0  0  0  0  0  0
  144.6607  131.8163  150.2302 C   0  0  0  0  0  0  0  0  0  0  0  0
  144.2667  133.1230  149.5298 C   0  0  0  0  0  0  0  0  0  0  0  0
  144.2078  134.2818  150.5335 C   0  0  0  0  0  0  0  0  0  0  0  0
  145.5355  134.4309  151.2939 C   0  0  0  0  0  0  0  0  0  0  0  0
  151.2320  138.1948  157.6983 H   0  0  0  0  0  0  0  0  0  0  0  0
  147.0539  130.9976  154.5595 H   0  0  0  0  0  0  0  0  0  0  0  0
  147.7516  129.9093  153.3658 H   0  0  0  0  0  0  0  0  0  0  0  0
  146.2527  130.7469  153.0013 H   0  0  0  0  0  0  0  0  0  0  0  0
  149.2909  132.3382  154.5801 H   0  0  0  0  0  0  0  0  0  0  0  0
  149.9571  132.8242  153.0155 H   0  0  0  0  0  0  0  0  0  0  0  0
  149.8816  131.1233  153.4483 H   0  0  0  0  0  0  0  0  0  0  0  0
  147.9259  133.8849  152.1319 H   0  0  0  0  0  0  0  0  0  0  0  0
  146.1942  133.9889  154.5340 H   0  0  0  0  0  0  0  0  0  0  0  0
  147.8468  133.5634  154.8625 H   0  0  0  0  0  0  0  0  0  0  0  0
  148.1777  135.6792  153.2038 H   0  0  0  0  0  0  0  0  0  0  0  0
  147.8224  138.0273  153.5179 H   0  0  0  0  0  0  0  0  0  0  0  0
  147.2732  138.5945  155.0648 H   0  0  0  0  0  0  0  0  0  0  0  0
  150.0439  138.2160  153.0317 H   0  0  0  0  0  0  0  0  0  0  0  0
  152.3472  138.5216  153.6267 H   0  0  0  0  0  0  0  0  0  0  0  0
  145.1589  132.8914  152.7362 H   0  0  0  0  0  0  0  0  0  0  0  0
  146.7952  132.1422  150.2728 H   0  0  0  0  0  0  0  0  0  0  0  0
  146.2131  131.0220  151.4786 H   0  0  0  0  0  0  0  0  0  0  0  0
  144.7407  131.0129  149.4973 H   0  0  0  0  0  0  0  0  0  0  0  0
  143.8743  131.5220  150.9264 H   0  0  0  0  0  0  0  0  0  0  0  0
  144.9898  133.3525  148.7460 H   0  0  0  0  0  0  0  0  0  0  0  0
  143.3012  133.0059  149.0365 H   0  0  0  0  0  0  0  0  0  0  0  0
  143.9721  135.2107  150.0130 H   0  0  0  0  0  0  0  0  0  0  0  0
  143.3969  134.1118  151.2431 H   0  0  0  0  0  0  0  0  0  0  0  0
  145.4296  135.2508  152.0037 H   0  0  0  0  0  0  0  0  0  0  0  0
  146.3203  134.7283  150.5972 H   0  0  0  0  0  0  0  0  0  0  0  0
  148.1904  131.6860  151.9549 H   0  0  0  0  0  0  0  0  0  0  0  0
  1  2  1  0  0  0  0
  1 25  1  0  0  0  0
  1 26  1  0  0  0  0
  1 27  1  0  0  0  0
  2  3  1  0  0  0  0
  2  4  1  0  0  0  0
  2 50  1  0  0  0  0
  3 28  1  0  0  0  0
  3 29  1  0  0  0  0
  3 30  1  0  0  0  0
  4  5  1  0  0  0  0
  4 18  1  0  0  0  0
  4 31  1  0  0  0  0
  5  6  1  0  0  0  0
  5 32  1  0  0  0  0
  5 33  1  0  0  0  0
  6  7  1  0  0  0  0
  6 34  1  0  0  0  0
  7  8  2  0  0  0  0
  7  9  1  0  0  0  0
  9 10  1  0  0  0  0
  9 35  1  0  0  0  0
  9 36  1  0  0  0  0
 10 16  1  0  0  0  0
 10 11  1  0  0  0  0
 11 12  2  0  0  0  0
 11 37  1  0  0  0  0
 12 13  1  0  0  0  0
 12 38  1  0  0  0  0
 13 14  2  0  0  0  0
 13 15  1  0  0  0  0
 15 24  1  0  0  0  0
 15 16  1  0  0  0  0
 16 17  2  0  0  0  0
 18 23  1  0  0  0  0
 18 19  1  0  0  0  0
 18 39  1  0  0  0  0
 19 20  1  0  0  0  0
 19 40  1  0  0  0  0
 19 41  1  0  0  0  0
 20 21  1  0  0  0  0
 20 42  1  0  0  0  0
 20 43  1  0  0  0  0
 21 22  1  0  0  0  0
 21 44  1  0  0  0  0
 21 45  1  0  0  0  0
 22 23  1  0  0  0  0
 22 46  1  0  0  0  0
 22 47  1  0  0  0  0
 23 48  1  0  0  0  0
 23 49  1  0  0  0  0
M  CHG  1   2   1
M  END
> <s_m_source_file>
AV-unprocessed.smi

> <i_m_source_file_index>
1552

> <i_lp_mmshare_version>
43012

> <i_f3d_flags>
0

> <s_epik_input>
W0NIMl0xW0NIMl1bQ0gyXVtDSDJdW0NIMl1bQ0hdMVtDQEhdKE4oW0NIM10pW0NIM10pW0NIMl1bTkhdQyg9TylbQ0gyXW4yW2NIXVtjSF1jKD1PKVtuSF1jMj1P

> <s_epik_cmdline>
J2VwaWtfcHl0aG9uJywgJy1waCcsICc3LjAnLCAnLXRuJywgJzgnLCAnLW1hJywgJzIwMCcsICctbWV0YWxfYmluZGluZycsICctaW1hZScsICc8aW5maWxlLm1hZT4nLCAnLW9tYWUnLCAnPG91dGZpbGUubWFlPic=

> <r_lp_tautomer_probability>
1

> <r_epik_Ionization_Penalty>
0.00705217

> <r_epik_Ionization_Penalty_Charging>
0.00705209

> <r_epik_Ionization_Penalty_Neutral>
7.66101e-08

> <r_epik_State_Penalty>
-0

> <r_epik_Charging_Adjusted_Penalty>
0.00705209

> <i_epik_Tot_Q>
1

> <i_epik_Tot_abs_Q>
1

> <r_epik_Metal_State_Penalty>
0.375122

> <b_epik_Metal_Only>
0

> <s_lp_Force_Field>
OPLS_2005

> <r_lp_Energy>
35.9588

> <b_lp_Chiralities_Consistent>
1

> <s_lp_Variant>
AV-unprocessed.smi:1552-1

> <Gold.Version>
5.8.1

> <Gold.Id.Protein>
6NUR|6NUR_protein|mol2

> <Gold.PLP.Fitness>
43.8785

> <Gold.PLP.PLP>
-32.3784

> <Gold.PLP.part.hbond>
-3.0000

> <Gold.PLP.part.metal>
0.0000

> <Gold.PLP.part.buried>
-5.2033

> <Gold.PLP.part.nonpolar>
-25.2753

> <Gold.PLP.part.repulsive>
0.0230

> <Gold.PLP.ligand.clash>
0.0000

> <Gold.PLP.ligand.torsion>
1.7516

> <Gold.PLP.Chemscore.Hbond>
3.0000

> <Gold.PLP.Chemscore.CHOScore>
1.8527

> <Gold.PLP.Chemscore.Metal>
0.0000

> <Gold.Chemscore.Hbonds>
donor molecule, donor type, donor heavy atom, donor atom, acceptor molecule, acceptor atom, score
      L1  H     2    50       P1 10747  1.00
      L1  H     6    34       P1  7948  1.00
      P1  H  7997  8009       L1    14  0.99
      L1  C    11    37       P1  7948  0.88
      L1  C    11    37       P1  7957  0.76

> <Gold.PLP.Chemscore.Internal.Correction>
0.4453

> <Gold.Rescore>
     Score         DG    S(hbond)    S(metal)    S(lipo)     H(rot)  DE(clash)    DE(int)     intcor
     14.98     -17.80       2.64        0.00      84.59       2.50       0.47       2.35       ----

> <Gold.Chemscore.Fitness>
14.9767

> <Gold.Chemscore.DG>
-17.8006

> <Gold.Chemscore.ZeroCoef>
-5.4800

> <Gold.Chemscore.Hbond>
2.6392

> <Gold.Chemscore.Metal>
0.0000

> <Gold.Chemscore.Lipo>
84.5944

> <Gold.Chemscore.Internal_Hbond>
0.0000

> <Gold.Chemscore.DEClash>
0.4693

> <Gold.Chemscore.DEInternal>
2.3547

> <Gold.Chemscore.Rot>
2.4968

> <Gold.Chemscore.Internal.Correction>
   9.000000E+99

> <Gold.Chemscore.Hbonds>
donor molecule, donor type, donor heavy atom, donor atom, acceptor molecule, acceptor atom, score
      L1  H     2    50       P1 10747  0.93
      L1  H     6    34       P1  7948  1.00
      P1  H  7997  8009       L1    14  0.93

> <Gold.Chemscore.Hbond.Weighted>
-8.8148

> <Gold.Chemscore.Metal.Weighted>
-0.0000

> <Gold.Chemscore.Lipo.Weighted>
-9.8975

> <Gold.Chemscore.Internal_Hbond.Weighted>
0.0000

> <Gold.Chemscore.DEClash.Weighted>
0.4693

> <Gold.Chemscore.DEInternal.Weighted>
2.3547

> <Gold.Chemscore.Rot.Weighted>
6.3917

> <Gold.Chemscore.Internal.Correction.Weighted>
   9.000000E+99

> <Gold.Protein.RotatedTorsions>
[ 6907 6896 6895 6894 ] final   80.74 input  -60.11 | X-H torsion
[ 7974 7965 7964 7962 ] final   53.63 input  175.53 | X-H torsion
[ 8008 7997 7996 7995 ] final -164.80 input   59.86 | X-H torsion
[ 10167 10162 10161 10158 ] final -168.52 input  -65.29 | X-H torsion
[ 10718 10713 10712 10709 ] final -138.28 input   66.30 | X-H torsion
[ 10763 10752 10751 10750 ] final  124.44 input  -60.55 | X-H torsion
[ 11005 11000 10999 10996 ] final -133.22 input  -57.11 | X-H torsion

> <Gold.Protein.ActiveResidues>
 VAL166  LYS551  ARG553  GLY616  TRP617  ASP618  TYR619  PRO620  LYS621  CYS622 
 ASP623  PHE694  ASN695  SER759  ASP760  ASP761  ALA762  ILE779  LEU786  VAL792 
 PHE793  MET794  SER795  GLU796  ALA797  LYS798  CYS799  TRP800  GLU811  SER814 

> <Gold.Protein.RotatedAtoms>
  152.5245  134.3312  159.9183 H   0  0  0  0  0  0  0  0  0  0  0  0  # atno 6907 bound_to 6896
  151.3261  133.4013  159.2666 H   0  0  0  0  0  0  0  0  0  0  0  0  # atno 6908 bound_to 6896
  150.9919  134.9269  159.7962 H   0  0  0  0  0  0  0  0  0  0  0  0  # atno 6909 bound_to 6896
  145.9692  139.4132  143.0201 H   0  0  0  0  0  0  0  0  0  0  0  0  # atno 7974 bound_to 7965
  155.8408  140.0948  157.1735 H   0  0  0  0  0  0  0  0  0  0  0  0  # atno 8008 bound_to 7997
  154.3982  140.1401  156.3788 H   0  0  0  0  0  0  0  0  0  0  0  0  # atno 8009 bound_to 7997
  155.8066  140.3451  155.5436 H   0  0  0  0  0  0  0  0  0  0  0  0  # atno 8010 bound_to 7997
  139.5980  144.1070  152.1711 H   0  0  0  0  0  0  0  0  0  0  0  0  # atno 10167 bound_to 10162
  156.2975  130.7410  151.1453 H   0  0  0  0  0  0  0  0  0  0  0  0  # atno 10718 bound_to 10713
  153.6614  135.3345  155.3128 H   0  0  0  0  0  0  0  0  0  0  0  0  # atno 10763 bound_to 10752
  154.8514  135.4364  154.1800 H   0  0  0  0  0  0  0  0  0  0  0  0  # atno 10764 bound_to 10752
  153.2768  135.7005  153.7501 H   0  0  0  0  0  0  0  0  0  0  0  0  # atno 10765 bound_to 10752
  140.9100  134.1580  157.4396 H   0  0  0  0  0  0  0  0  0  0  0  0  # atno 11005 bound_to 11000
  145.7930  140.9805  143.1039 LP  0  0  0  0  0  0  0  0  0  0  0  0  # atno 17320 bound_to 7965
  144.6833  139.9707  143.7482 LP  0  0  0  0  0  0  0  0  0  0  0  0  # atno 17321 bound_to 7965
  140.0660  144.5818  150.7227 LP  0  0  0  0  0  0  0  0  0  0  0  0  # atno 17342 bound_to 10162
  140.7227  143.2605  151.4223 LP  0  0  0  0  0  0  0  0  0  0  0  0  # atno 17343 bound_to 10162
  157.7359  131.0567  150.5443 LP  0  0  0  0  0  0  0  0  0  0  0  0  # atno 17370 bound_to 10713
  156.5566  130.4245  149.6082 LP  0  0  0  0  0  0  0  0  0  0  0  0  # atno 17371 bound_to 10713
  139.8756  134.9932  156.5633 LP  0  0  0  0  0  0  0  0  0  0  0  0  # atno 17394 bound_to 11000
  140.8122  133.8420  155.8820 LP  0  0  0  0  0  0  0  0  0  0  0  0  # atno 17395 bound_to 11000

$$$$
