AV-unprocessed.smi:3165|AV-procd|sdf|12089|dock3
  -GOLD-   2272017523D 1   1.00000     0.00000
 Structure written by MMmdl.
 37 38  0  0  0  0  0  0  0  0  1 V2000
  148.1360  141.7019  154.5852 C   0  0  0  0  0  0  0  0  0  0  0  0
  149.4738  141.3930  155.2757 C   0  0  2  0  0  0  0  0  0  0  0  0
  149.5787  139.9122  155.7218 C   0  0  0  0  0  0  0  0  0  0  0  0
  150.7273  139.2087  155.1726 N   0  0  0  0  0  0  0  0  0  0  0  0
  152.0677  139.4575  155.3826 C   0  0  0  0  0  0  0  0  0  0  0  0
  152.7714  138.5349  154.6630 C   0  0  0  0  0  0  0  0  0  0  0  0
  151.7610  137.7500  154.0409 C   0  0  0  0  0  0  0  0  0  0  0  0
  150.5399  138.1516  154.3524 N   0  0  0  0  0  0  0  0  0  0  0  0
  149.6841  142.3436  156.3736 N   0  0  0  0  0  0  0  0  0  0  0  0
  151.0440  142.4068  156.9076 C   0  0  0  0  0  0  0  0  0  0  0  0
  151.0452  142.9274  158.3516 C   0  0  2  0  0  0  0  0  0  0  0  0
  151.2892  144.4481  158.4048 C   0  0  0  0  0  0  0  0  0  0  0  0
  151.3824  144.9311  159.8567 C   0  0  0  0  0  0  0  0  0  0  0  0
  152.4278  144.1027  160.6110 C   0  0  0  0  0  0  0  0  0  0  0  0
  152.1426  142.6021  160.4425 C   0  0  0  0  0  0  0  0  0  0  0  0
  152.0969  142.2715  159.0582 O   0  0  0  0  0  0  0  0  0  0  0  0
  147.9507  141.0111  153.7623 H   0  0  0  0  0  0  0  0  0  0  0  0
  148.1334  142.7109  154.1721 H   0  0  0  0  0  0  0  0  0  0  0  0
  147.2969  141.6288  155.2777 H   0  0  0  0  0  0  0  0  0  0  0  0
  150.2546  141.5569  154.5321 H   0  0  0  0  0  0  0  0  0  0  0  0
  149.6566  139.8721  156.8088 H   0  0  0  0  0  0  0  0  0  0  0  0
  148.6732  139.3558  155.4790 H   0  0  0  0  0  0  0  0  0  0  0  0
  152.4044  140.2637  156.0176 H   0  0  0  0  0  0  0  0  0  0  0  0
  153.8441  138.4354  154.5921 H   0  0  0  0  0  0  0  0  0  0  0  0
  151.8775  136.9045  153.3791 H   0  0  0  0  0  0  0  0  0  0  0  0
  149.3865  143.2705  156.0866 H   0  0  0  0  0  0  0  0  0  0  0  0
  151.5273  141.4306  156.8761 H   0  0  0  0  0  0  0  0  0  0  0  0
  151.6418  143.0750  156.2866 H   0  0  0  0  0  0  0  0  0  0  0  0
  150.0860  142.6989  158.8205 H   0  0  0  0  0  0  0  0  0  0  0  0
  152.2153  144.6896  157.8810 H   0  0  0  0  0  0  0  0  0  0  0  0
  150.4900  144.9791  157.8870 H   0  0  0  0  0  0  0  0  0  0  0  0
  151.6395  145.9901  159.8906 H   0  0  0  0  0  0  0  0  0  0  0  0
  150.4108  144.8271  160.3416 H   0  0  0  0  0  0  0  0  0  0  0  0
  153.4226  144.3288  160.2255 H   0  0  0  0  0  0  0  0  0  0  0  0
  152.4326  144.3710  161.6676 H   0  0  0  0  0  0  0  0  0  0  0  0
  152.9290  142.0160  160.9181 H   0  0  0  0  0  0  0  0  0  0  0  0
  151.2039  142.3259  160.9250 H   0  0  0  0  0  0  0  0  0  0  0  0
  1  2  1  0  0  0  0
  1 17  1  0  0  0  0
  1 18  1  0  0  0  0
  1 19  1  0  0  0  0
  2  3  1  0  0  0  0
  2  9  1  0  0  0  0
  2 20  1  0  0  0  0
  3  4  1  0  0  0  0
  3 21  1  0  0  0  0
  3 22  1  0  0  0  0
  4  8  1  0  0  0  0
  4  5  1  0  0  0  0
  5  6  2  0  0  0  0
  5 23  1  0  0  0  0
  6  7  1  0  0  0  0
  6 24  1  0  0  0  0
  7  8  2  0  0  0  0
  7 25  1  0  0  0  0
  9 10  1  0  0  0  0
  9 26  1  0  0  0  0
 10 11  1  0  0  0  0
 10 27  1  0  0  0  0
 10 28  1  0  0  0  0
 11 16  1  0  0  0  0
 11 12  1  0  0  0  0
 11 29  1  0  0  0  0
 12 13  1  0  0  0  0
 12 30  1  0  0  0  0
 12 31  1  0  0  0  0
 13 14  1  0  0  0  0
 13 32  1  0  0  0  0
 13 33  1  0  0  0  0
 14 15  1  0  0  0  0
 14 34  1  0  0  0  0
 14 35  1  0  0  0  0
 15 16  1  0  0  0  0
 15 36  1  0  0  0  0
 15 37  1  0  0  0  0
M  END
> <s_m_source_file>
AV-unprocessed.smi

> <i_m_source_file_index>
3165

> <i_lp_mmshare_version>
43012

> <i_f3d_flags>
0

> <s_epik_input>
bjFbY0hdW2NIXVtjSF1uMVtDSDJdW0NAQEhdKFtDSDNdKVtOSF1bQ0gyXVtDQEBIXTJbQ0gyXVtDSDJdW0NIMl1bQ0gyXU8y

> <s_epik_cmdline>
J2VwaWtfcHl0aG9uJywgJy1waCcsICc3LjAnLCAnLXRuJywgJzgnLCAnLW1hJywgJzIwMCcsICctbWV0YWxfYmluZGluZycsICctaW1hZScsICc8aW5maWxlLm1hZT4nLCAnLW9tYWUnLCAnPG91dGZpbGUubWFlPic=

> <r_lp_tautomer_probability>
1

> <r_epik_Ionization_Penalty>
2.51982

> <r_epik_Ionization_Penalty_Charging>
0

> <r_epik_Ionization_Penalty_Neutral>
2.51982

> <r_epik_State_Penalty>
2.68614

> <r_epik_Charging_Adjusted_Penalty>
2.68614

> <i_epik_Tot_Q>
0

> <i_epik_Tot_abs_Q>
0

> <r_epik_Metal_State_Penalty>
2.6861

> <b_epik_Metal_Only>
0

> <s_lp_Force_Field>
OPLS_2005

> <r_lp_Energy>
14.3424

> <b_lp_Chiralities_Consistent>
1

> <s_lp_Variant>
AV-unprocessed.smi:3165-5

> <Gold.Version>
5.8.1

> <Gold.Id.Protein>
6NUR|6NUR_protein|mol2

> <Gold.PLP.Fitness>
42.2940

> <Gold.PLP.PLP>
-39.0100

> <Gold.PLP.part.hbond>
-1.0000

> <Gold.PLP.part.metal>
0.0000

> <Gold.PLP.part.buried>
-5.3583

> <Gold.PLP.part.nonpolar>
-33.3471

> <Gold.PLP.part.repulsive>
0.1973

> <Gold.PLP.ligand.clash>
0.0000

> <Gold.PLP.ligand.torsion>
1.4103

> <Gold.PLP.Chemscore.Hbond>
1.0000

> <Gold.PLP.Chemscore.CHOScore>
1.0000

> <Gold.PLP.Chemscore.Metal>
0.0000

> <Gold.Chemscore.Hbonds>
donor molecule, donor type, donor heavy atom, donor atom, acceptor molecule, acceptor atom, score
      L1  H     9    26       P1  8028  1.00
      L1  C     7    25       P1  7949  1.00

> <Gold.PLP.Chemscore.Internal.Correction>
0.1046

> <Gold.Rescore>
     Score         DG    S(hbond)    S(metal)    S(lipo)     H(rot)  DE(clash)    DE(int)     intcor
     16.07     -17.52       0.99        0.00     109.03       1.57       0.03       1.42       ----

> <Gold.Chemscore.Fitness>
16.0740

> <Gold.Chemscore.DG>
-17.5218

> <Gold.Chemscore.ZeroCoef>
-5.4800

> <Gold.Chemscore.Hbond>
0.9918

> <Gold.Chemscore.Metal>
0.0000

> <Gold.Chemscore.Lipo>
109.0299

> <Gold.Chemscore.Internal_Hbond>
0.0000

> <Gold.Chemscore.DEClash>
0.0315

> <Gold.Chemscore.DEInternal>
1.4162

> <Gold.Chemscore.Rot>
1.5731

> <Gold.Chemscore.Internal.Correction>
   9.000000E+99

> <Gold.Chemscore.Hbonds>
donor molecule, donor type, donor heavy atom, donor atom, acceptor molecule, acceptor atom, score
      L1  H     9    26       P1  8028  0.98

> <Gold.Chemscore.Hbond.Weighted>
-3.3125

> <Gold.Chemscore.Metal.Weighted>
-0.0000

> <Gold.Chemscore.Lipo.Weighted>
-12.7565

> <Gold.Chemscore.Internal_Hbond.Weighted>
0.0000

> <Gold.Chemscore.DEClash.Weighted>
0.0315

> <Gold.Chemscore.DEInternal.Weighted>
1.4162

> <Gold.Chemscore.Rot.Weighted>
4.0273

> <Gold.Chemscore.Internal.Correction.Weighted>
   9.000000E+99

> <Gold.Protein.RotatedTorsions>
[ 6907 6896 6895 6894 ] final  103.27 input  -60.11 | X-H torsion
[ 7974 7965 7964 7962 ] final  103.21 input  175.53 | X-H torsion
[ 8008 7997 7996 7995 ] final  -88.68 input   59.86 | X-H torsion
[ 10167 10162 10161 10158 ] final  164.60 input  -65.29 | X-H torsion
[ 10718 10713 10712 10709 ] final  165.67 input   66.30 | X-H torsion
[ 10763 10752 10751 10750 ] final  -23.25 input  -60.55 | X-H torsion
[ 11005 11000 10999 10996 ] final  -27.53 input  -57.11 | X-H torsion

> <Gold.Protein.ActiveResidues>
 VAL166  LYS551  ARG553  GLY616  TRP617  ASP618  TYR619  PRO620  LYS621  CYS622 
 ASP623  PHE694  ASN695  SER759  ASP760  ASP761  ALA762  ILE779  LEU786  VAL792 
 PHE793  MET794  SER795  GLU796  ALA797  LYS798  CYS799  TRP800  GLU811  SER814 

> <Gold.Protein.RotatedAtoms>
  152.5300  133.9850  159.7824 H   0  0  0  0  0  0  0  0  0  0  0  0  # atno 6907 bound_to 6896
  151.0097  133.5969  159.2691 H   0  0  0  0  0  0  0  0  0  0  0  0  # atno 6908 bound_to 6896
  151.3048  135.0785  159.9305 H   0  0  0  0  0  0  0  0  0  0  0  0  # atno 6909 bound_to 6896
  145.3489  139.2444  143.3569 H   0  0  0  0  0  0  0  0  0  0  0  0  # atno 7974 bound_to 7965
  154.6777  140.0550  157.0233 H   0  0  0  0  0  0  0  0  0  0  0  0  # atno 8008 bound_to 7997
  155.0996  140.3227  155.4532 H   0  0  0  0  0  0  0  0  0  0  0  0  # atno 8009 bound_to 7997
  156.2682  140.2033  156.6123 H   0  0  0  0  0  0  0  0  0  0  0  0  # atno 8010 bound_to 7997
  139.4891  144.4218  151.9177 H   0  0  0  0  0  0  0  0  0  0  0  0  # atno 10167 bound_to 10162
  157.0769  131.0381  151.2590 H   0  0  0  0  0  0  0  0  0  0  0  0  # atno 10718 bound_to 10713
  153.6648  135.6974  153.5166 H   0  0  0  0  0  0  0  0  0  0  0  0  # atno 10763 bound_to 10752
  153.2603  135.4246  155.0887 H   0  0  0  0  0  0  0  0  0  0  0  0  # atno 10764 bound_to 10752
  154.8442  135.3553  154.6193 H   0  0  0  0  0  0  0  0  0  0  0  0  # atno 10765 bound_to 10752
  140.9128  133.7450  156.0693 H   0  0  0  0  0  0  0  0  0  0  0  0  # atno 11005 bound_to 11000
  146.2976  140.4102  142.8716 LP  0  0  0  0  0  0  0  0  0  0  0  0  # atno 17320 bound_to 7965
  144.8732  140.7301  143.6033 LP  0  0  0  0  0  0  0  0  0  0  0  0  # atno 17321 bound_to 7965
  140.3662  144.2911  150.5926 LP  0  0  0  0  0  0  0  0  0  0  0  0  # atno 17342 bound_to 10162
  140.5359  143.2233  151.8164 LP  0  0  0  0  0  0  0  0  0  0  0  0  # atno 17343 bound_to 10162
  157.4832  130.7778  149.7435 LP  0  0  0  0  0  0  0  0  0  0  0  0  # atno 17370 bound_to 10713
  155.9934  130.3924  150.2900 LP  0  0  0  0  0  0  0  0  0  0  0  0  # atno 17371 bound_to 10713
  140.8088  134.3423  157.5418 LP  0  0  0  0  0  0  0  0  0  0  0  0  # atno 17394 bound_to 11000
  139.8760  134.9242  156.3343 LP  0  0  0  0  0  0  0  0  0  0  0  0  # atno 17395 bound_to 11000

$$$$
