AV-unprocessed.smi:232|AV-procd|sdf|1774|dock6
  -GOLD-   2262020313D 1   1.00000     0.00000
 Structure written by MMmdl.
 52 55  0  0  0  0  0  0  0  0  1 V2000
  154.3574  140.8759  160.7957 C   0  0  0  0  0  0  0  0  0  0  0  0
  153.6188  140.7479  159.4575 C   0  0  0  0  0  0  0  0  0  0  0  0
  152.4538  141.7514  159.3106 C   0  0  1  0  0  0  0  0  0  0  0  0
  152.8918  143.2182  159.4904 C   0  0  0  0  0  0  0  0  0  0  0  0
  152.2973  143.9781  158.2991 C   0  0  0  0  0  0  0  0  0  0  0  0
  151.2698  143.0189  157.6963 C   0  0  2  0  0  0  0  0  0  0  0  0
  149.8662  143.2355  158.2992 C   0  0  0  0  0  0  0  0  0  0  0  0
  151.8237  141.7017  157.9911 N   0  0  0  0  0  0  0  0  0  0  0  0
  151.0967  140.6224  157.5956 C   0  0  0  0  0  0  0  0  0  0  0  0
  150.9689  139.5490  158.4210 N   0  0  0  0  0  0  0  0  0  0  0  0
  150.2427  138.4912  158.0492 C   0  0  0  0  0  0  0  0  0  0  0  0
  149.5673  138.3003  156.9149 N   0  0  0  0  0  0  0  0  0  0  0  0
  149.6911  139.3723  156.0811 C   0  0  0  0  0  0  0  0  0  0  0  0
  150.4280  140.5629  156.3399 C   0  0  0  0  0  0  0  0  0  0  0  0
  150.3262  141.4248  155.2537 N   0  0  0  0  0  0  0  0  0  0  0  0
  149.5706  140.7835  154.4049 C   0  0  0  0  0  0  0  0  0  0  0  0
  149.1478  139.5421  154.8202 N   0  0  0  0  0  0  0  0  0  0  0  0
  148.3135  138.6163  154.0748 C   0  0  0  0  0  0  0  0  0  0  0  0
  147.0459  139.2899  153.5119 C   0  0  1  0  0  0  0  0  0  0  0  0
  147.3748  140.0243  152.3471 O   0  0  0  0  0  0  0  0  0  0  0  0
  145.9387  138.2644  153.1939 C   0  0  2  0  0  0  0  0  0  0  0  0
  145.7712  137.1003  154.1881 C   0  0  0  0  0  0  0  0  0  0  0  0
  145.9997  135.8653  153.3360 C   0  0  0  0  0  0  0  0  0  0  0  0
  145.6534  136.3572  151.9368 C   0  0  0  0  0  0  0  0  0  0  0  0
  146.1811  137.6735  151.9209 O   0  0  0  0  0  0  0  0  0  0  0  0
  155.1619  140.1436  160.8643 H   0  0  0  0  0  0  0  0  0  0  0  0
  153.6811  140.7051  161.6336 H   0  0  0  0  0  0  0  0  0  0  0  0
  154.8001  141.8643  160.9180 H   0  0  0  0  0  0  0  0  0  0  0  0
  154.3236  140.8794  158.6358 H   0  0  0  0  0  0  0  0  0  0  0  0
  153.2515  139.7255  159.3735 H   0  0  0  0  0  0  0  0  0  0  0  0
  151.6931  141.5268  160.0600 H   0  0  0  0  0  0  0  0  0  0  0  0
  152.5103  143.6100  160.4338 H   0  0  0  0  0  0  0  0  0  0  0  0
  153.9765  143.3328  159.5048 H   0  0  0  0  0  0  0  0  0  0  0  0
  151.8738  144.9431  158.5793 H   0  0  0  0  0  0  0  0  0  0  0  0
  153.0835  144.1679  157.5673 H   0  0  0  0  0  0  0  0  0  0  0  0
  151.2247  143.1827  156.6201 H   0  0  0  0  0  0  0  0  0  0  0  0
  149.5127  144.2477  158.1014 H   0  0  0  0  0  0  0  0  0  0  0  0
  149.8613  143.0889  159.3797 H   0  0  0  0  0  0  0  0  0  0  0  0
  149.1361  142.5504  157.8674 H   0  0  0  0  0  0  0  0  0  0  0  0
  150.1952  137.6824  158.7630 H   0  0  0  0  0  0  0  0  0  0  0  0
  149.3037  141.1983  153.4437 H   0  0  0  0  0  0  0  0  0  0  0  0
  148.9072  138.1801  153.2706 H   0  0  0  0  0  0  0  0  0  0  0  0
  148.0405  137.7956  154.7389 H   0  0  0  0  0  0  0  0  0  0  0  0
  146.6696  139.9930  154.2561 H   0  0  0  0  0  0  0  0  0  0  0  0
  148.2848  139.8690  152.1446 H   0  0  0  0  0  0  0  0  0  0  0  0
  144.9854  138.7888  153.1093 H   0  0  0  0  0  0  0  0  0  0  0  0
  146.4549  137.1401  155.0366 H   0  0  0  0  0  0  0  0  0  0  0  0
  144.7565  137.1001  154.5877 H   0  0  0  0  0  0  0  0  0  0  0  0
  147.0509  135.5766  153.3755 H   0  0  0  0  0  0  0  0  0  0  0  0
  145.3994  135.0112  153.6501 H   0  0  0  0  0  0  0  0  0  0  0  0
  146.0878  135.7384  151.1513 H   0  0  0  0  0  0  0  0  0  0  0  0
  144.5724  136.3936  151.7923 H   0  0  0  0  0  0  0  0  0  0  0  0
  1  2  1  0  0  0  0
  1 26  1  0  0  0  0
  1 27  1  0  0  0  0
  1 28  1  0  0  0  0
  2  3  1  0  0  0  0
  2 29  1  0  0  0  0
  2 30  1  0  0  0  0
  3  8  1  0  0  0  0
  3  4  1  0  0  0  0
  3 31  1  0  0  0  0
  4  5  1  0  0  0  0
  4 32  1  0  0  0  0
  4 33  1  0  0  0  0
  5  6  1  0  0  0  0
  5 34  1  0  0  0  0
  5 35  1  0  0  0  0
  6  7  1  0  0  0  0
  6  8  1  0  0  0  0
  6 36  1  0  0  0  0
  7 37  1  0  0  0  0
  7 38  1  0  0  0  0
  7 39  1  0  0  0  0
  8  9  1  0  0  0  0
  9 14  1  0  0  0  0
  9 10  2  0  0  0  0
 10 11  1  0  0  0  0
 11 12  2  0  0  0  0
 11 40  1  0  0  0  0
 12 13  1  0  0  0  0
 13 17  1  0  0  0  0
 13 14  2  0  0  0  0
 14 15  1  0  0  0  0
 15 16  2  0  0  0  0
 16 17  1  0  0  0  0
 16 41  1  0  0  0  0
 17 18  1  0  0  0  0
 18 19  1  0  0  0  0
 18 42  1  0  0  0  0
 18 43  1  0  0  0  0
 19 20  1  0  0  0  0
 19 21  1  0  0  0  0
 19 44  1  0  0  0  0
 20 45  1  0  0  0  0
 21 25  1  0  0  0  0
 21 22  1  0  0  0  0
 21 46  1  0  0  0  0
 22 23  1  0  0  0  0
 22 47  1  0  0  0  0
 22 48  1  0  0  0  0
 23 24  1  0  0  0  0
 23 49  1  0  0  0  0
 23 50  1  0  0  0  0
 24 25  1  0  0  0  0
 24 51  1  0  0  0  0
 24 52  1  0  0  0  0
M  END
> <s_m_source_file>
AV-unprocessed.smi

> <i_m_source_file_index>
232

> <i_lp_mmshare_version>
43012

> <i_f3d_flags>
0

> <s_epik_input>
W0NIM11bQ0gyXVtDQEBIXTFbQ0gyXVtDSDJdW0NAQEhdKFtDSDNdKU4xYyhuW2NIXW4yKWMoYzIzKW5bY0hdbjNbQ0gyXVtDQEhdKFtPSF0pW0NAQEhdNFtDSDJdW0NIMl1bQ0gyXU80

> <s_epik_cmdline>
J2VwaWtfcHl0aG9uJywgJy1waCcsICc3LjAnLCAnLXRuJywgJzgnLCAnLW1hJywgJzIwMCcsICctbWV0YWxfYmluZGluZycsICctaW1hZScsICc8aW5maWxlLm1hZT4nLCAnLW9tYWUnLCAnPG91dGZpbGUubWFlPic=

> <r_lp_tautomer_probability>
1

> <r_epik_Ionization_Penalty>
0.00258048

> <r_epik_Ionization_Penalty_Charging>
0

> <r_epik_Ionization_Penalty_Neutral>
0.00258048

> <r_epik_State_Penalty>
0.00168551

> <r_epik_Charging_Adjusted_Penalty>
0.00168551

> <i_epik_Tot_Q>
0

> <i_epik_Tot_abs_Q>
0

> <r_epik_Metal_State_Penalty>
-0

> <b_epik_Metal_Only>
0

> <s_lp_Force_Field>
OPLS_2005

> <r_lp_Energy>
56.0552

> <b_lp_Chiralities_Consistent>
1

> <s_lp_Variant>
AV-unprocessed.smi:232-8

> <Gold.Version>
5.8.1

> <Gold.Id.Protein>
6NUR|6NUR_protein|mol2

> <Gold.PLP.Fitness>
41.5344

> <Gold.PLP.PLP>
-37.5655

> <Gold.PLP.part.hbond>
-1.8664

> <Gold.PLP.part.metal>
0.0000

> <Gold.PLP.part.buried>
-2.5037

> <Gold.PLP.part.nonpolar>
-33.9929

> <Gold.PLP.part.repulsive>
0.5931

> <Gold.PLP.ligand.clash>
0.0000

> <Gold.PLP.ligand.torsion>
0.9445

> <Gold.PLP.Chemscore.Hbond>
1.0000

> <Gold.PLP.Chemscore.CHOScore>
0.8447

> <Gold.PLP.Chemscore.Metal>
0.0000

> <Gold.Chemscore.Hbonds>
donor molecule, donor type, donor heavy atom, donor atom, acceptor molecule, acceptor atom, score
      L1  H    20    45       P1  7957  1.00
      L1  C    16    41       P1  7957  0.84

> <Gold.PLP.Chemscore.Internal.Correction>
0.3239

> <Gold.Rescore>
     Score         DG    S(hbond)    S(metal)    S(lipo)     H(rot)  DE(clash)    DE(int)     intcor
     12.92     -13.54       0.99        0.00      93.74       2.43       0.07       0.55       ----

> <Gold.Chemscore.Fitness>
12.9240

> <Gold.Chemscore.DG>
-13.5381

> <Gold.Chemscore.ZeroCoef>
-5.4800

> <Gold.Chemscore.Hbond>
0.9884

> <Gold.Chemscore.Metal>
0.0000

> <Gold.Chemscore.Lipo>
93.7383

> <Gold.Chemscore.Internal_Hbond>
0.0000

> <Gold.Chemscore.DEClash>
0.0660

> <Gold.Chemscore.DEInternal>
0.5481

> <Gold.Chemscore.Rot>
2.4260

> <Gold.Chemscore.Internal.Correction>
   9.000000E+99

> <Gold.Chemscore.Hbonds>
donor molecule, donor type, donor heavy atom, donor atom, acceptor molecule, acceptor atom, score
      L1  H    20    45       P1  7957  0.94

> <Gold.Chemscore.Hbond.Weighted>
-3.3014

> <Gold.Chemscore.Metal.Weighted>
-0.0000

> <Gold.Chemscore.Lipo.Weighted>
-10.9674

> <Gold.Chemscore.Internal_Hbond.Weighted>
0.0000

> <Gold.Chemscore.DEClash.Weighted>
0.0660

> <Gold.Chemscore.DEInternal.Weighted>
0.5481

> <Gold.Chemscore.Rot.Weighted>
6.2107

> <Gold.Chemscore.Internal.Correction.Weighted>
   9.000000E+99

> <Gold.Protein.RotatedTorsions>
[ 6907 6896 6895 6894 ] final -156.37 input  -60.11 | X-H torsion
[ 7974 7965 7964 7962 ] final   99.06 input  175.53 | X-H torsion
[ 8008 7997 7996 7995 ] final  -39.93 input   59.86 | X-H torsion
[ 10167 10162 10161 10158 ] final    9.74 input  -65.29 | X-H torsion
[ 10718 10713 10712 10709 ] final   46.72 input   66.30 | X-H torsion
[ 10763 10752 10751 10750 ] final -152.64 input  -60.55 | X-H torsion
[ 11005 11000 10999 10996 ] final  121.50 input  -57.11 | X-H torsion

> <Gold.Protein.ActiveResidues>
 VAL166  LYS551  ARG553  GLY616  TRP617  ASP618  TYR619  PRO620  LYS621  CYS622 
 ASP623  PHE694  ASN695  SER759  ASP760  ASP761  ALA762  ILE779  LEU786  VAL792 
 PHE793  MET794  SER795  GLU796  ALA797  LYS798  CYS799  TRP800  GLU811  SER814 

> <Gold.Protein.RotatedAtoms>
  151.2866  133.4185  159.2630 H   0  0  0  0  0  0  0  0  0  0  0  0  # atno 6907 bound_to 6896
  151.0314  134.9542  159.8123 H   0  0  0  0  0  0  0  0  0  0  0  0  # atno 6908 bound_to 6896
  152.5346  134.2827  159.9066 H   0  0  0  0  0  0  0  0  0  0  0  0  # atno 6909 bound_to 6896
  145.4039  139.2343  143.3285 H   0  0  0  0  0  0  0  0  0  0  0  0  # atno 7974 bound_to 7965
  154.4017  140.1539  156.2943 H   0  0  0  0  0  0  0  0  0  0  0  0  # atno 8008 bound_to 7997
  155.8757  140.3446  155.5830 H   0  0  0  0  0  0  0  0  0  0  0  0  # atno 8009 bound_to 7997
  155.7724  140.0832  157.2092 H   0  0  0  0  0  0  0  0  0  0  0  0  # atno 8010 bound_to 7997
  140.6237  143.8149  150.7206 H   0  0  0  0  0  0  0  0  0  0  0  0  # atno 10167 bound_to 10162
  157.4511  130.8139  149.7789 H   0  0  0  0  0  0  0  0  0  0  0  0  # atno 10718 bound_to 10713
  154.7981  135.3231  154.7618 H   0  0  0  0  0  0  0  0  0  0  0  0  # atno 10763 bound_to 10752
  153.8291  135.6881  153.4821 H   0  0  0  0  0  0  0  0  0  0  0  0  # atno 10764 bound_to 10752
  153.1683  135.4633  154.9810 H   0  0  0  0  0  0  0  0  0  0  0  0  # atno 10765 bound_to 10752
  139.9229  134.9639  156.7968 H   0  0  0  0  0  0  0  0  0  0  0  0  # atno 11005 bound_to 11000
  146.2738  140.4741  142.8803 LP  0  0  0  0  0  0  0  0  0  0  0  0  # atno 17320 bound_to 7965
  144.8355  140.6775  143.6263 LP  0  0  0  0  0  0  0  0  0  0  0  0  # atno 17321 bound_to 7965
  140.1744  143.4167  152.1978 LP  0  0  0  0  0  0  0  0  0  0  0  0  # atno 17342 bound_to 10162
  139.5461  144.7299  151.4580 LP  0  0  0  0  0  0  0  0  0  0  0  0  # atno 17343 bound_to 10162
  155.9987  130.3892  150.2691 LP  0  0  0  0  0  0  0  0  0  0  0  0  # atno 17370 bound_to 10713
  157.0862  131.0157  151.3138 LP  0  0  0  0  0  0  0  0  0  0  0  0  # atno 17371 bound_to 10713
  140.6422  133.9808  155.7713 LP  0  0  0  0  0  0  0  0  0  0  0  0  # atno 17394 bound_to 11000
  141.0764  134.0129  157.3452 LP  0  0  0  0  0  0  0  0  0  0  0  0  # atno 17395 bound_to 11000

$$$$
