AV-unprocessed.smi:38|AV-procd|sdf|350|dock1
  -GOLD-   2262016193D 1   1.00000     0.00000
 Structure written by MMmdl.
 27 28  0  0  0  0  0  0  0  0  2 V2000
  149.7546  134.8038  157.5884 O   0  0  0  0  0  0  0  0  0  0  0  0
  150.1583  135.9009  157.2059 C   0  0  0  0  0  0  0  0  0  0  0  0
  150.8704  136.0655  156.0537 N   0  5  0  0  0  0  0  0  0  0  0  0
  151.3168  137.2844  155.6300 C   0  0  0  0  0  0  0  0  0  0  0  0
  151.9759  137.4382  154.6015 O   0  0  0  0  0  0  0  0  0  0  0  0
  151.0202  138.4353  156.4110 N   0  0  0  0  0  0  0  0  0  0  0  0
  151.5160  139.7900  155.9491 C   0  0  2  0  0  0  0  0  0  0  0  0
  151.4311  140.8053  157.0917 C   0  0  0  0  0  0  0  0  0  0  0  0
  150.1038  141.4768  156.8076 C   0  0  1  0  0  0  0  0  0  0  0  0
  150.0642  142.7732  157.3677 O   0  0  0  0  0  0  0  0  0  0  0  0
  150.0860  141.4966  155.2772 C   0  0  2  0  0  0  0  0  0  0  0  0
  148.6733  141.5915  154.6791 C   0  0  0  0  0  0  0  0  0  0  0  0
  148.7208  141.3935  153.2821 O   0  0  0  0  0  0  0  0  0  0  0  0
  150.6979  140.2585  154.9140 O   0  0  0  0  0  0  0  0  0  0  0  0
  150.3086  138.2955  157.5911 C   0  0  0  0  0  0  0  0  0  0  0  0
  149.8746  137.0889  158.0084 C   0  0  0  0  0  0  0  0  0  0  0  0
  149.1880  136.9861  159.1594 F   0  0  0  0  0  0  0  0  0  0  0  0
  152.5272  139.6300  155.5717 H   0  0  0  0  0  0  0  0  0  0  0  0
  149.2844  140.8717  157.1984 H   0  0  0  0  0  0  0  0  0  0  0  0
  150.7186  142.3122  154.9208 H   0  0  0  0  0  0  0  0  0  0  0  0
  151.4929  140.3378  158.0754 H   0  0  0  0  0  0  0  0  0  0  0  0
  152.2583  141.5085  156.9829 H   0  0  0  0  0  0  0  0  0  0  0  0
  149.6547  143.3548  156.7456 H   0  0  0  0  0  0  0  0  0  0  0  0
  147.9930  140.8761  155.1405 H   0  0  0  0  0  0  0  0  0  0  0  0
  148.2607  142.5856  154.8523 H   0  0  0  0  0  0  0  0  0  0  0  0
  149.0725  140.5331  153.1128 H   0  0  0  0  0  0  0  0  0  0  0  0
  150.0937  139.1581  158.2016 H   0  0  0  0  0  0  0  0  0  0  0  0
  1  2  2  0  0  0  0
  2 16  1  0  0  0  0
  2  3  1  0  0  0  0
  3  4  1  0  0  0  0
  4  5  2  0  0  0  0
  4  6  1  0  0  0  0
  6  7  1  0  0  0  0
  6 15  1  0  0  0  0
  7 18  1  0  0  0  0
  7 14  1  0  0  0  0
  7  8  1  0  0  0  0
  8  9  1  0  0  0  0
  8 21  1  0  0  0  0
  8 22  1  0  0  0  0
  9 19  1  0  0  0  0
  9 10  1  0  0  0  0
  9 11  1  0  0  0  0
 10 23  1  0  0  0  0
 11 20  1  0  0  0  0
 11 12  1  0  0  0  0
 11 14  1  0  0  0  0
 12 13  1  0  0  0  0
 12 24  1  0  0  0  0
 12 25  1  0  0  0  0
 13 26  1  0  0  0  0
 15 16  2  0  0  0  0
 15 27  1  0  0  0  0
 16 17  1  0  0  0  0
M  CHG  1   3  -1
M  END
> <s_m_source_file>
AV-unprocessed.smi

> <i_m_source_file_index>
38

> <i_lp_mmshare_version>
43012

> <i_f3d_flags>
0

> <s_epik_input>
Tz1jMVtuSF1jKD1PKW4oW2NIXWMxRilbQ0BIXTJbQ0gyXVtDQEhdKFtPSF0pW0NASF0oTzIpW0NIMl1bT0hd

> <s_epik_cmdline>
J2VwaWtfcHl0aG9uJywgJy1waCcsICc3LjAnLCAnLXRuJywgJzgnLCAnLW1hJywgJzIwMCcsICctbWV0YWxfYmluZGluZycsICctaW1hZScsICc8aW5maWxlLm1hZT4nLCAnLW9tYWUnLCAnPG91dGZpbGUubWFlPic=

> <r_epik_Ionization_Penalty>
1.68146

> <r_epik_Ionization_Penalty_Charging>
3.4211e-08

> <r_epik_Ionization_Penalty_Neutral>
1.68146

> <r_epik_State_Penalty>
1.78593

> <r_epik_Charging_Adjusted_Penalty>
1.78593

> <i_epik_Tot_Q>
-1

> <i_epik_Tot_abs_Q>
1

> <r_epik_Metal_State_Penalty>
0.0113696

> <b_epik_Metal_Only>
0

> <s_epik_Chemistry_Notes>
This compound contains an acetal/aminal-like group ( X-CH(R)-Y where X, Y are N, S, or O) that may be acid/base labile, releasing an aldehyde.

> <s_lp_Force_Field>
OPLS_2005

> <r_lp_Energy>
36.3433

> <b_lp_Chiralities_Consistent>
1

> <s_lp_Variant>
AV-unprocessed.smi:38-16

> <Gold.Version>
5.8.1

> <Gold.Id.Protein>
6NUR|6NUR_protein|mol2

> <Gold.PLP.Fitness>
38.6949

> <Gold.PLP.PLP>
-25.0770

> <Gold.PLP.part.hbond>
-6.0000

> <Gold.PLP.part.metal>
0.0000

> <Gold.PLP.part.buried>
-3.5063

> <Gold.PLP.part.nonpolar>
-15.5607

> <Gold.PLP.part.repulsive>
0.2210

> <Gold.PLP.ligand.clash>
0.0000

> <Gold.PLP.ligand.torsion>
0.4409

> <Gold.PLP.Chemscore.Hbond>
4.8294

> <Gold.PLP.Chemscore.CHOScore>
0.0000

> <Gold.PLP.Chemscore.Metal>
0.0000

> <Gold.Chemscore.Hbonds>
donor molecule, donor type, donor heavy atom, donor atom, acceptor molecule, acceptor atom, score
      L1  H    10    23       P1  8028  1.00
      L1  H    13    26       P1  7957  0.32
      P1  H  6896  6908       L1     1  0.81
      P1  H  7989  7998       L1    14  0.85
      P1  H  8011  8017       L1    13  0.88
      P1  H 10752 10765       L1     5  0.89

> <Gold.PLP.Chemscore.Internal.Correction>
0.0113

> <Gold.Rescore>
     Score         DG    S(hbond)    S(metal)    S(lipo)     H(rot)  DE(clash)    DE(int)     intcor
     12.84     -13.48       3.50        0.00      31.64       2.88       0.20       0.44       ----

> <Gold.Chemscore.Fitness>
12.8408

> <Gold.Chemscore.DG>
-13.4833

> <Gold.Chemscore.ZeroCoef>
-5.4800

> <Gold.Chemscore.Hbond>
3.4964

> <Gold.Chemscore.Metal>
0.0000

> <Gold.Chemscore.Lipo>
31.6407

> <Gold.Chemscore.Internal_Hbond>
0.0000

> <Gold.Chemscore.DEClash>
0.2047

> <Gold.Chemscore.DEInternal>
0.4377

> <Gold.Chemscore.Rot>
2.8815

> <Gold.Chemscore.Internal.Correction>
   9.000000E+99

> <Gold.Chemscore.Hbonds>
donor molecule, donor type, donor heavy atom, donor atom, acceptor molecule, acceptor atom, score
      L1  H    10    23       P1  8028  1.00
      L1  H    13    26       P1  7957  0.31
      P1  H  6896  6908       L1     1  0.65
      P1  H  7989  7998       L1    14  0.12
      P1  H  8011  8017       L1    13  0.29
      P1  H 10752 10765       L1     5  0.41

> <Gold.Chemscore.Hbond.Weighted>
-11.6778

> <Gold.Chemscore.Metal.Weighted>
-0.0000

> <Gold.Chemscore.Lipo.Weighted>
-3.7020

> <Gold.Chemscore.Internal_Hbond.Weighted>
0.0000

> <Gold.Chemscore.DEClash.Weighted>
0.2047

> <Gold.Chemscore.DEInternal.Weighted>
0.4377

> <Gold.Chemscore.Rot.Weighted>
7.3765

> <Gold.Chemscore.Internal.Correction.Weighted>
   9.000000E+99

> <Gold.Protein.RotatedTorsions>
[ 6907 6896 6895 6894 ] final  142.63 input  -60.11 | X-H torsion
[ 7974 7965 7964 7962 ] final -130.11 input  175.53 | X-H torsion
[ 8008 7997 7996 7995 ] final  107.74 input   59.86 | X-H torsion
[ 10167 10162 10161 10158 ] final   78.35 input  -65.29 | X-H torsion
[ 10718 10713 10712 10709 ] final -169.94 input   66.30 | X-H torsion
[ 10763 10752 10751 10750 ] final  163.68 input  -60.55 | X-H torsion
[ 11005 11000 10999 10996 ] final  -54.09 input  -57.11 | X-H torsion

> <Gold.Protein.ActiveResidues>
 VAL166  LYS551  ARG553  GLY616  TRP617  ASP618  TYR619  PRO620  LYS621  CYS622 
 ASP623  PHE694  ASN695  SER759  ASP760  ASP761  ALA762  ILE779  LEU786  VAL792 
 PHE793  MET794  SER795  GLU796  ALA797  LYS798  CYS799  TRP800  GLU811  SER814 

> <Gold.Protein.RotatedAtoms>
  152.2163  133.4949  159.5137 H   0  0  0  0  0  0  0  0  0  0  0  0  # atno 6907 bound_to 6896
  150.7002  134.1401  159.4111 H   0  0  0  0  0  0  0  0  0  0  0  0  # atno 6908 bound_to 6896
  151.9321  135.0251  160.0580 H   0  0  0  0  0  0  0  0  0  0  0  0  # atno 6909 bound_to 6896
  144.9507  140.7341  143.4790 H   0  0  0  0  0  0  0  0  0  0  0  0  # atno 7974 bound_to 7965
  156.1848  140.3089  155.9217 H   0  0  0  0  0  0  0  0  0  0  0  0  # atno 8008 bound_to 7997
  155.3305  140.0460  157.3059 H   0  0  0  0  0  0  0  0  0  0  0  0  # atno 8009 bound_to 7997
  154.5383  140.2253  155.8694 H   0  0  0  0  0  0  0  0  0  0  0  0  # atno 8010 bound_to 7997
  139.9718  144.5889  150.7978 H   0  0  0  0  0  0  0  0  0  0  0  0  # atno 10167 bound_to 10162
  156.7189  130.9262  151.3096 H   0  0  0  0  0  0  0  0  0  0  0  0  # atno 10718 bound_to 10713
  154.2974  135.2759  155.2627 H   0  0  0  0  0  0  0  0  0  0  0  0  # atno 10763 bound_to 10752
  154.5079  135.5790  153.6585 H   0  0  0  0  0  0  0  0  0  0  0  0  # atno 10764 bound_to 10752
  152.9905  135.6174  154.3142 H   0  0  0  0  0  0  0  0  0  0  0  0  # atno 10765 bound_to 10752
  141.1009  133.6618  156.4269 H   0  0  0  0  0  0  0  0  0  0  0  0  # atno 11005 bound_to 11000
  145.2849  139.1905  143.4771 LP  0  0  0  0  0  0  0  0  0  0  0  0  # atno 17320 bound_to 7965
  146.3320  140.2817  142.8610 LP  0  0  0  0  0  0  0  0  0  0  0  0  # atno 17321 bound_to 7965
  140.7519  143.2981  151.3152 LP  0  0  0  0  0  0  0  0  0  0  0  0  # atno 17342 bound_to 10162
  139.6475  144.0424  152.2602 LP  0  0  0  0  0  0  0  0  0  0  0  0  # atno 17343 bound_to 10162
  157.6906  130.9230  150.0504 LP  0  0  0  0  0  0  0  0  0  0  0  0  # atno 17370 bound_to 10713
  156.1609  130.3644  149.9301 LP  0  0  0  0  0  0  0  0  0  0  0  0  # atno 17371 bound_to 10713
  140.5025  134.6472  157.5254 LP  0  0  0  0  0  0  0  0  0  0  0  0  # atno 17394 bound_to 11000
  139.9860  134.7061  155.9773 LP  0  0  0  0  0  0  0  0  0  0  0  0  # atno 17395 bound_to 11000

$$$$
