AV-unprocessed.smi:438|AV-procd|sdf|2572|dock5
  -GOLD-   2262022553D 1   1.00000     0.00000
 Structure written by MMmdl.
 47 48  0  0  0  0  0  0  0  0  2 V2000
  147.7018  132.3368  159.2173 C   0  0  0  0  0  0  0  0  0  0  0  0
  147.6882  133.7357  159.8062 C   0  0  0  0  0  0  0  0  0  0  0  0
  148.4588  134.6910  159.1224 N   0  0  0  0  0  0  0  0  0  0  0  0
  148.4870  135.8983  159.5420 C   0  0  0  0  0  0  0  0  0  0  0  0
  149.4818  137.1304  158.6772 S   0  0  0  0  0  0  0  0  0  0  0  0
  150.3686  136.1948  157.3928 C   0  0  0  0  0  0  0  0  0  0  0  0
  150.9069  137.0922  156.2788 C   0  0  0  0  0  0  0  0  0  0  0  0
  151.3884  136.5884  155.2639 O   0  0  0  0  0  0  0  0  0  0  0  0
  150.8124  138.4165  156.4771 N   0  0  0  0  0  0  0  0  0  0  0  0
  151.1752  139.4596  155.5157 C   0  0  1  0  0  0  0  0  0  0  0  0
  150.4732  139.1856  154.1702 C   0  0  0  0  0  0  0  0  0  0  0  0
  148.9590  139.4488  154.2390 C   0  0  0  0  0  0  0  0  0  0  0  0
  148.6611  140.8698  154.7365 C   0  0  0  0  0  0  0  0  0  0  0  0
  149.3296  141.1316  156.0951 C   0  0  0  0  0  0  0  0  0  0  0  0
  150.8509  140.8866  156.0329 C   0  0  1  0  0  0  0  0  0  0  0  0
  151.5321  141.2253  157.3697 C   0  0  0  0  0  0  0  0  0  0  0  0
  147.7889  136.3431  160.6404 N   0  5  0  0  0  0  0  0  0  0  0  0
  147.0370  135.4725  161.3721 C   0  0  0  0  0  0  0  0  0  0  0  0
  146.4115  135.8280  162.3704 O   0  0  0  0  0  0  0  0  0  0  0  0
  146.9860  134.0684  160.9271 C   0  0  0  0  0  0  0  0  0  0  0  0
  146.1318  133.0780  161.7201 C   0  0  0  0  0  0  0  0  0  0  0  0
  144.8275  132.6924  161.0014 C   0  0  0  0  0  0  0  0  0  0  0  0
  144.7530  131.2954  160.8079 O   0  0  0  0  0  0  0  0  0  0  0  0
  148.1538  131.6312  159.9143 H   0  0  0  0  0  0  0  0  0  0  0  0
  148.2716  132.3097  158.2891 H   0  0  0  0  0  0  0  0  0  0  0  0
  146.6896  132.0049  158.9869 H   0  0  0  0  0  0  0  0  0  0  0  0
  149.6680  135.4886  156.9470 H   0  0  0  0  0  0  0  0  0  0  0  0
  151.1633  135.5971  157.8413 H   0  0  0  0  0  0  0  0  0  0  0  0
  150.3986  138.7288  157.3437 H   0  0  0  0  0  0  0  0  0  0  0  0
  152.2491  139.4037  155.3295 H   0  0  0  0  0  0  0  0  0  0  0  0
  150.9098  139.8258  153.4028 H   0  0  0  0  0  0  0  0  0  0  0  0
  150.6593  138.1593  153.8496 H   0  0  0  0  0  0  0  0  0  0  0  0
  148.5103  139.2939  153.2575 H   0  0  0  0  0  0  0  0  0  0  0  0
  148.4889  138.7295  154.9090 H   0  0  0  0  0  0  0  0  0  0  0  0
  149.0176  141.5964  154.0053 H   0  0  0  0  0  0  0  0  0  0  0  0
  147.5838  141.0161  154.8182 H   0  0  0  0  0  0  0  0  0  0  0  0
  149.1303  142.1583  156.4042 H   0  0  0  0  0  0  0  0  0  0  0  0
  148.8798  140.4903  156.8541 H   0  0  0  0  0  0  0  0  0  0  0  0
  151.2552  141.5847  155.2984 H   0  0  0  0  0  0  0  0  0  0  0  0
  151.1379  140.6233  158.1888 H   0  0  0  0  0  0  0  0  0  0  0  0
  151.3796  142.2727  157.6308 H   0  0  0  0  0  0  0  0  0  0  0  0
  152.6076  141.0539  157.3153 H   0  0  0  0  0  0  0  0  0  0  0  0
  145.8970  133.4685  162.7093 H   0  0  0  0  0  0  0  0  0  0  0  0
  146.7220  132.1801  161.9063 H   0  0  0  0  0  0  0  0  0  0  0  0
  143.9551  133.0243  161.5647 H   0  0  0  0  0  0  0  0  0  0  0  0
  144.7809  133.1785  160.0267 H   0  0  0  0  0  0  0  0  0  0  0  0
  144.4321  130.8996  161.6036 H   0  0  0  0  0  0  0  0  0  0  0  0
  1 24  1  0  0  0  0
  1 25  1  0  0  0  0
  1 26  1  0  0  0  0
  1  2  1  0  0  0  0
  2 20  2  0  0  0  0
  2  3  1  0  0  0  0
  3  4  2  0  0  0  0
  4  5  1  0  0  0  0
  4 17  1  0  0  0  0
  5  6  1  0  0  0  0
  6  7  1  0  0  0  0
  6 27  1  0  0  0  0
  6 28  1  0  0  0  0
  7  8  2  0  0  0  0
  7  9  1  0  0  0  0
  9 10  1  0  0  0  0
  9 29  1  0  0  0  0
 10 15  1  0  0  0  0
 10 11  1  0  0  0  0
 10 30  1  0  0  0  0
 11 12  1  0  0  0  0
 11 31  1  0  0  0  0
 11 32  1  0  0  0  0
 12 13  1  0  0  0  0
 12 33  1  0  0  0  0
 12 34  1  0  0  0  0
 13 14  1  0  0  0  0
 13 35  1  0  0  0  0
 13 36  1  0  0  0  0
 14 15  1  0  0  0  0
 14 37  1  0  0  0  0
 14 38  1  0  0  0  0
 15 16  1  0  0  0  0
 15 39  1  0  0  0  0
 16 40  1  0  0  0  0
 16 41  1  0  0  0  0
 16 42  1  0  0  0  0
 17 18  1  0  0  0  0
 18 19  2  0  0  0  0
 18 20  1  0  0  0  0
 20 21  1  0  0  0  0
 21 22  1  0  0  0  0
 21 43  1  0  0  0  0
 21 44  1  0  0  0  0
 22 23  1  0  0  0  0
 22 45  1  0  0  0  0
 22 46  1  0  0  0  0
 23 47  1  0  0  0  0
M  CHG  1  17  -1
M  END
> <s_m_source_file>
AV-unprocessed.smi

> <i_m_source_file_index>
438

> <i_lp_mmshare_version>
43012

> <i_f3d_flags>
0

> <s_epik_input>
W09IXVtDSDJdW0NIMl1jMWMoW09IXSluYyhuYzFbQ0gzXSlTW0NIMl1DKD1PKVtOSF1bQ0BASF0yW0NIMl1bQ0gyXVtDSDJdW0NIMl1bQ0BIXTJbQ0gzXQ==

> <s_epik_cmdline>
J2VwaWtfcHl0aG9uJywgJy1waCcsICc3LjAnLCAnLXRuJywgJzgnLCAnLW1hJywgJzIwMCcsICctbWV0YWxfYmluZGluZycsICctaW1hZScsICc8aW5maWxlLm1hZT4nLCAnLW9tYWUnLCAnPG91dGZpbGUubWFlPic=

> <r_lp_tautomer_probability>
1

> <r_epik_Ionization_Penalty>
3.69231

> <r_epik_Ionization_Penalty_Charging>
0.00434774

> <r_epik_Ionization_Penalty_Neutral>
3.68796

> <r_epik_State_Penalty>
2.13826

> <r_epik_Charging_Adjusted_Penalty>
2.14261

> <i_epik_Tot_Q>
-1

> <i_epik_Tot_abs_Q>
1

> <r_epik_Metal_State_Penalty>
0.260979

> <b_epik_Metal_Only>
0

> <s_lp_Force_Field>
OPLS_2005

> <r_lp_Energy>
18.1923

> <b_lp_Chiralities_Consistent>
1

> <s_lp_Variant>
AV-unprocessed.smi:438-10

> <Gold.Version>
5.8.1

> <Gold.Id.Protein>
6NUR|6NUR_protein|mol2

> <Gold.PLP.Fitness>
53.0815

> <Gold.PLP.PLP>
-38.8243

> <Gold.PLP.part.hbond>
-4.4677

> <Gold.PLP.part.metal>
0.0000

> <Gold.PLP.part.buried>
-3.2172

> <Gold.PLP.part.nonpolar>
-30.7838

> <Gold.PLP.part.repulsive>
0.0639

> <Gold.PLP.ligand.clash>
0.0000

> <Gold.PLP.ligand.torsion>
0.7420

> <Gold.PLP.Chemscore.Hbond>
5.2345

> <Gold.PLP.Chemscore.CHOScore>
0.0000

> <Gold.PLP.Chemscore.Metal>
0.0000

> <Gold.Chemscore.Hbonds>
donor molecule, donor type, donor heavy atom, donor atom, acceptor molecule, acceptor atom, score
      P1  H  6896  6907       L1     3  0.06
      P1  H 10752 10764       L1     8  1.00

> <Gold.PLP.Chemscore.Internal.Correction>
0.0376

> <Gold.Rescore>
     Score         DG    S(hbond)    S(metal)    S(lipo)     H(rot)  DE(clash)    DE(int)     intcor
     14.62     -15.60       2.23        0.00      83.83       2.79       0.13       0.85       ----

> <Gold.Chemscore.Fitness>
14.6239

> <Gold.Chemscore.DG>
-15.6015

> <Gold.Chemscore.ZeroCoef>
-5.4800

> <Gold.Chemscore.Hbond>
2.2344

> <Gold.Chemscore.Metal>
0.0000

> <Gold.Chemscore.Lipo>
83.8271

> <Gold.Chemscore.Internal_Hbond>
0.0000

> <Gold.Chemscore.DEClash>
0.1307

> <Gold.Chemscore.DEInternal>
0.8469

> <Gold.Chemscore.Rot>
2.7927

> <Gold.Chemscore.Internal.Correction>
   9.000000E+99

> <Gold.Chemscore.Hbonds>
donor molecule, donor type, donor heavy atom, donor atom, acceptor molecule, acceptor atom, score
      P1  H 10752 10764       L1     8  0.99

> <Gold.Chemscore.Hbond.Weighted>
-7.4630

> <Gold.Chemscore.Metal.Weighted>
-0.0000

> <Gold.Chemscore.Lipo.Weighted>
-9.8078

> <Gold.Chemscore.Internal_Hbond.Weighted>
0.0000

> <Gold.Chemscore.DEClash.Weighted>
0.1307

> <Gold.Chemscore.DEInternal.Weighted>
0.8469

> <Gold.Chemscore.Rot.Weighted>
7.1492

> <Gold.Chemscore.Internal.Correction.Weighted>
   9.000000E+99

> <Gold.Protein.RotatedTorsions>
[ 6907 6896 6895 6894 ] final  -59.72 input  -60.11 | X-H torsion
[ 7974 7965 7964 7962 ] final   64.09 input  175.53 | X-H torsion
[ 8008 7997 7996 7995 ] final   -8.81 input   59.86 | X-H torsion
[ 10167 10162 10161 10158 ] final -104.85 input  -65.29 | X-H torsion
[ 10718 10713 10712 10709 ] final -106.81 input   66.30 | X-H torsion
[ 10763 10752 10751 10750 ] final  -60.41 input  -60.55 | X-H torsion
[ 11005 11000 10999 10996 ] final  -51.20 input  -57.11 | X-H torsion

> <Gold.Protein.ActiveResidues>
 VAL166  LYS551  ARG553  GLY616  TRP617  ASP618  TYR619  PRO620  LYS621  CYS622 
 ASP623  PHE694  ASN695  SER759  ASP760  ASP761  ALA762  ILE779  LEU786  VAL792 
 PHE793  MET794  SER795  GLU796  ALA797  LYS798  CYS799  TRP800  GLU811  SER814 

> <Gold.Protein.RotatedAtoms>
  150.7909  134.6932  159.6508 H   0  0  0  0  0  0  0  0  0  0  0  0  # atno 6907 bound_to 6896
  152.4014  134.6276  160.0077 H   0  0  0  0  0  0  0  0  0  0  0  0  # atno 6908 bound_to 6896
  151.6546  133.3282  159.3196 H   0  0  0  0  0  0  0  0  0  0  0  0  # atno 6909 bound_to 6896
  145.8542  139.3273  143.0857 H   0  0  0  0  0  0  0  0  0  0  0  0  # atno 7974 bound_to 7965
  154.5706  140.2371  155.8197 H   0  0  0  0  0  0  0  0  0  0  0  0  # atno 8008 bound_to 7997
  156.2104  140.3028  155.9677 H   0  0  0  0  0  0  0  0  0  0  0  0  # atno 8009 bound_to 7997
  155.2719  140.0419  157.2998 H   0  0  0  0  0  0  0  0  0  0  0  0  # atno 8010 bound_to 7997
  140.2048  143.3791  152.1099 H   0  0  0  0  0  0  0  0  0  0  0  0  # atno 10167 bound_to 10162
  156.0407  130.5631  150.7733 H   0  0  0  0  0  0  0  0  0  0  0  0  # atno 10718 bound_to 10713
  154.2688  135.6294  153.5302 H   0  0  0  0  0  0  0  0  0  0  0  0  # atno 10763 bound_to 10752
  152.9883  135.5605  154.5623 H   0  0  0  0  0  0  0  0  0  0  0  0  # atno 10764 bound_to 10752
  154.5189  135.2881  155.1255 H   0  0  0  0  0  0  0  0  0  0  0  0  # atno 10765 bound_to 10752
  141.0858  133.6643  156.3842 H   0  0  0  0  0  0  0  0  0  0  0  0  # atno 11005 bound_to 11000
  145.9322  140.9040  143.0350 LP  0  0  0  0  0  0  0  0  0  0  0  0  # atno 17320 bound_to 7965
  144.6728  140.1434  143.7435 LP  0  0  0  0  0  0  0  0  0  0  0  0  # atno 17321 bound_to 7965
  139.5203  144.7031  151.5436 LP  0  0  0  0  0  0  0  0  0  0  0  0  # atno 17342 bound_to 10162
  140.6365  143.8974  150.6652 LP  0  0  0  0  0  0  0  0  0  0  0  0  # atno 17343 bound_to 10162
  157.5221  131.0932  151.0065 LP  0  0  0  0  0  0  0  0  0  0  0  0  # atno 17370 bound_to 10713
  157.0393  130.5743  149.5354 LP  0  0  0  0  0  0  0  0  0  0  0  0  # atno 17371 bound_to 10713
  140.5366  134.6161  157.5367 LP  0  0  0  0  0  0  0  0  0  0  0  0  # atno 17394 bound_to 11000
  139.9676  134.7347  156.0106 LP  0  0  0  0  0  0  0  0  0  0  0  0  # atno 17395 bound_to 11000

$$$$
