AV-unprocessed.smi:15|AV-procd|sdf|86|dock2
  -GOLD-   2262015223D 1   1.00000     0.00000
 Structure written by MMmdl.
 53 56  0  0  0  0  0  0  0  0  1 V2000
  151.7834  138.5444  156.8363 C   0  0  0  0  0  0  0  0  0  0  0  0
  152.1625  139.8906  156.2056 C   0  0  0  0  0  0  0  0  0  0  0  0
  151.3014  140.9868  156.6492 N   0  0  0  0  0  0  0  0  0  0  0  0
  151.3302  141.4292  158.0447 C   0  0  0  0  0  0  0  0  0  0  0  0
  151.6427  142.9298  158.1992 C   0  0  1  0  0  0  0  0  0  0  0  0
  150.4430  143.7611  158.6464 C   0  0  0  0  0  0  0  0  0  0  0  0
  151.0787  144.9754  159.3065 C   0  0  0  0  0  0  0  0  0  0  0  0
  152.5264  144.5455  159.5606 C   0  0  0  0  0  0  0  0  0  0  0  0
  152.5574  143.1581  159.2603 O   0  0  0  0  0  0  0  0  0  0  0  0
  150.0878  141.0961  156.0566 C   0  0  0  0  0  0  0  0  0  0  0  0
  150.0228  140.8717  154.7194 N   0  0  0  0  0  0  0  0  0  0  0  0
  148.8589  140.9868  154.0739 C   0  0  0  0  0  0  0  0  0  0  0  0
  147.6625  141.3183  154.5628 N   0  0  0  0  0  0  0  0  0  0  0  0
  147.7236  141.5550  155.9046 C   0  0  0  0  0  0  0  0  0  0  0  0
  148.8840  141.4657  156.7249 C   0  0  0  0  0  0  0  0  0  0  0  0
  148.5594  141.7986  158.0354 N   0  0  0  0  0  0  0  0  0  0  0  0
  147.2820  142.0608  157.9930 C   0  0  0  0  0  0  0  0  0  0  0  0
  146.6982  141.9348  156.7530 N   0  0  0  0  0  0  0  0  0  0  0  0
  145.3015  142.1719  156.4202 C   0  0  0  0  0  0  0  0  0  0  0  0
  144.9617  143.6715  156.2172 C   0  0  2  0  0  0  0  0  0  0  0  0
  145.5564  144.3991  157.2798 O   0  0  0  0  0  0  0  0  0  0  0  0
  143.4651  143.9679  156.2273 C   0  0  0  0  0  0  0  0  0  0  0  0
  143.3614  145.2210  155.3720 C   0  0  0  0  0  0  0  0  0  0  0  0
  144.2921  144.9639  154.3352 O   0  0  0  0  0  0  0  0  0  0  0  0
  145.4374  144.3148  154.8836 C   0  0  2  0  0  0  0  0  0  0  0  0
  145.9797  143.3579  153.8098 C   0  0  0  0  0  0  0  0  0  0  0  0
  152.4926  137.7709  156.5412 H   0  0  0  0  0  0  0  0  0  0  0  0
  150.7940  138.2133  156.5211 H   0  0  0  0  0  0  0  0  0  0  0  0
  151.7911  138.6037  157.9250 H   0  0  0  0  0  0  0  0  0  0  0  0
  153.1968  140.1133  156.4722 H   0  0  0  0  0  0  0  0  0  0  0  0
  152.1315  139.8101  155.1192 H   0  0  0  0  0  0  0  0  0  0  0  0
  150.3603  141.2171  158.4929 H   0  0  0  0  0  0  0  0  0  0  0  0
  152.0478  140.8390  158.6161 H   0  0  0  0  0  0  0  0  0  0  0  0
  152.0465  143.3464  157.2750 H   0  0  0  0  0  0  0  0  0  0  0  0
  149.7815  144.0232  157.8203 H   0  0  0  0  0  0  0  0  0  0  0  0
  149.8581  143.2102  159.3844 H   0  0  0  0  0  0  0  0  0  0  0  0
  151.0486  145.8468  158.6514 H   0  0  0  0  0  0  0  0  0  0  0  0
  150.5623  145.2324  160.2319 H   0  0  0  0  0  0  0  0  0  0  0  0
  153.2072  145.0729  158.8910 H   0  0  0  0  0  0  0  0  0  0  0  0
  152.8463  144.7305  160.5862 H   0  0  0  0  0  0  0  0  0  0  0  0
  148.8918  140.7889  153.0126 H   0  0  0  0  0  0  0  0  0  0  0  0
  146.7257  142.3547  158.8712 H   0  0  0  0  0  0  0  0  0  0  0  0
  145.0661  141.6034  155.5197 H   0  0  0  0  0  0  0  0  0  0  0  0
  144.6955  141.7467  157.2203 H   0  0  0  0  0  0  0  0  0  0  0  0
  145.8432  143.7850  157.9383 H   0  0  0  0  0  0  0  0  0  0  0  0
  142.9199  143.1622  155.7339 H   0  0  0  0  0  0  0  0  0  0  0  0
  143.0447  144.0911  157.2265 H   0  0  0  0  0  0  0  0  0  0  0  0
  142.3572  145.3849  154.9809 H   0  0  0  0  0  0  0  0  0  0  0  0
  143.6660  146.1067  155.9313 H   0  0  0  0  0  0  0  0  0  0  0  0
  146.1935  145.0783  155.0763 H   0  0  0  0  0  0  0  0  0  0  0  0
  146.8673  142.8292  154.1570 H   0  0  0  0  0  0  0  0  0  0  0  0
  146.2599  143.9082  152.9113 H   0  0  0  0  0  0  0  0  0  0  0  0
  145.2331  142.6188  153.5187 H   0  0  0  0  0  0  0  0  0  0  0  0
  1  2  1  0  0  0  0
  1 27  1  0  0  0  0
  1 28  1  0  0  0  0
  1 29  1  0  0  0  0
  2  3  1  0  0  0  0
  2 30  1  0  0  0  0
  2 31  1  0  0  0  0
  3  4  1  0  0  0  0
  3 10  1  0  0  0  0
  4  5  1  0  0  0  0
  4 32  1  0  0  0  0
  4 33  1  0  0  0  0
  5  9  1  0  0  0  0
  5  6  1  0  0  0  0
  5 34  1  0  0  0  0
  6  7  1  0  0  0  0
  6 35  1  0  0  0  0
  6 36  1  0  0  0  0
  7  8  1  0  0  0  0
  7 37  1  0  0  0  0
  7 38  1  0  0  0  0
  8  9  1  0  0  0  0
  8 39  1  0  0  0  0
  8 40  1  0  0  0  0
 10 15  1  0  0  0  0
 10 11  2  0  0  0  0
 11 12  1  0  0  0  0
 12 13  2  0  0  0  0
 12 41  1  0  0  0  0
 13 14  1  0  0  0  0
 14 18  1  0  0  0  0
 14 15  2  0  0  0  0
 15 16  1  0  0  0  0
 16 17  2  0  0  0  0
 17 18  1  0  0  0  0
 17 42  1  0  0  0  0
 18 19  1  0  0  0  0
 19 20  1  0  0  0  0
 19 43  1  0  0  0  0
 19 44  1  0  0  0  0
 20 25  1  0  0  0  0
 20 21  1  0  0  0  0
 20 22  1  0  0  0  0
 21 45  1  0  0  0  0
 22 23  1  0  0  0  0
 22 46  1  0  0  0  0
 22 47  1  0  0  0  0
 23 24  1  0  0  0  0
 23 48  1  0  0  0  0
 23 49  1  0  0  0  0
 24 25  1  0  0  0  0
 25 26  1  0  0  0  0
 25 50  1  0  0  0  0
 26 51  1  0  0  0  0
 26 52  1  0  0  0  0
 26 53  1  0  0  0  0
M  END
> <s_m_source_file>
AV-unprocessed.smi

> <i_m_source_file_index>
15

> <i_lp_mmshare_version>
43012

> <i_f3d_flags>
0

> <s_epik_input>
TzFbQ0gyXVtDSDJdW0NIMl1bQ0BIXTFbQ0gyXU4oW0NIMl1bQ0gzXSljKG5bY0hdbjIpYyhjMjMpbltjSF1uM1tDSDJdW0NAQF00KFtPSF0pW0NIMl1bQ0gyXU9bQ0BIXTRbQ0gzXQ==

> <s_epik_cmdline>
J2VwaWtfcHl0aG9uJywgJy1waCcsICc3LjAnLCAnLXRuJywgJzgnLCAnLW1hJywgJzIwMCcsICctbWV0YWxfYmluZGluZycsICctaW1hZScsICc8aW5maWxlLm1hZT4nLCAnLW9tYWUnLCAnPG91dGZpbGUubWFlPic=

> <r_lp_tautomer_probability>
1

> <r_epik_Ionization_Penalty>
0.00360814

> <r_epik_Ionization_Penalty_Charging>
0

> <r_epik_Ionization_Penalty_Neutral>
0.00360814

> <r_epik_State_Penalty>
0.00237482

> <r_epik_Charging_Adjusted_Penalty>
0.00237482

> <i_epik_Tot_Q>
0

> <i_epik_Tot_abs_Q>
0

> <r_epik_Metal_State_Penalty>
-0

> <b_epik_Metal_Only>
0

> <s_lp_Force_Field>
OPLS_2005

> <r_lp_Energy>
45.3604

> <b_lp_Chiralities_Consistent>
1

> <s_lp_Variant>
AV-unprocessed.smi:15-8

> <Gold.Version>
5.8.1

> <Gold.Id.Protein>
6NUR|6NUR_protein|mol2

> <Gold.PLP.Fitness>
41.6107

> <Gold.PLP.PLP>
-39.1641

> <Gold.PLP.part.hbond>
-2.0000

> <Gold.PLP.part.metal>
0.0000

> <Gold.PLP.part.buried>
-6.7713

> <Gold.PLP.part.nonpolar>
-30.9696

> <Gold.PLP.part.repulsive>
0.4576

> <Gold.PLP.ligand.clash>
0.2783

> <Gold.PLP.ligand.torsion>
1.7753

> <Gold.PLP.Chemscore.Hbond>
0.7680

> <Gold.PLP.Chemscore.CHOScore>
1.0000

> <Gold.PLP.Chemscore.Metal>
0.0000

> <Gold.Chemscore.Hbonds>
donor molecule, donor type, donor heavy atom, donor atom, acceptor molecule, acceptor atom, score
      P1  H  7989  7998       L1    11  0.72
      L1  C    12    41       P1  7957  1.00

> <Gold.PLP.Chemscore.Internal.Correction>
0.9716

> <Gold.Rescore>
     Score         DG    S(hbond)    S(metal)    S(lipo)     H(rot)  DE(clash)    DE(int)     intcor
      5.87     -11.66       0.64        0.00      88.01       2.44       0.13       5.67       ----

> <Gold.Chemscore.Fitness>
5.8658

> <Gold.Chemscore.DG>
-11.6590

> <Gold.Chemscore.ZeroCoef>
-5.4800

> <Gold.Chemscore.Hbond>
0.6397

> <Gold.Chemscore.Metal>
0.0000

> <Gold.Chemscore.Lipo>
88.0068

> <Gold.Chemscore.Internal_Hbond>
0.0000

> <Gold.Chemscore.DEClash>
0.1251

> <Gold.Chemscore.DEInternal>
5.6681

> <Gold.Chemscore.Rot>
2.4431

> <Gold.Chemscore.Internal.Correction>
   9.000000E+99

> <Gold.Chemscore.Hbonds>
donor molecule, donor type, donor heavy atom, donor atom, acceptor molecule, acceptor atom, score
      P1  H  7989  7998       L1    11  0.58

> <Gold.Chemscore.Hbond.Weighted>
-2.1367

> <Gold.Chemscore.Metal.Weighted>
-0.0000

> <Gold.Chemscore.Lipo.Weighted>
-10.2968

> <Gold.Chemscore.Internal_Hbond.Weighted>
0.0000

> <Gold.Chemscore.DEClash.Weighted>
0.1251

> <Gold.Chemscore.DEInternal.Weighted>
5.6681

> <Gold.Chemscore.Rot.Weighted>
6.2544

> <Gold.Chemscore.Internal.Correction.Weighted>
   9.000000E+99

> <Gold.Protein.RotatedTorsions>
[ 6907 6896 6895 6894 ] final   46.60 input  -60.11 | X-H torsion
[ 7974 7965 7964 7962 ] final   37.72 input  175.53 | X-H torsion
[ 8008 7997 7996 7995 ] final -173.68 input   59.86 | X-H torsion
[ 10167 10162 10161 10158 ] final  -38.12 input  -65.29 | X-H torsion
[ 10718 10713 10712 10709 ] final   75.57 input   66.30 | X-H torsion
[ 10763 10752 10751 10750 ] final  -70.24 input  -60.55 | X-H torsion
[ 11005 11000 10999 10996 ] final  -91.42 input  -57.11 | X-H torsion

> <Gold.Protein.ActiveResidues>
 VAL166  LYS551  ARG553  GLY616  TRP617  ASP618  TYR619  PRO620  LYS621  CYS622 
 ASP623  PHE694  ASN695  SER759  ASP760  ASP761  ALA762  ILE779  LEU786  VAL792 
 PHE793  MET794  SER795  GLU796  ALA797  LYS798  CYS799  TRP800  GLU811  SER814 

> <Gold.Protein.RotatedAtoms>
  152.2583  134.8061  160.0434 H   0  0  0  0  0  0  0  0  0  0  0  0  # atno 6907 bound_to 6896
  151.8717  133.3472  159.3745 H   0  0  0  0  0  0  0  0  0  0  0  0  # atno 6908 bound_to 6896
  150.7107  134.5033  159.5616 H   0  0  0  0  0  0  0  0  0  0  0  0  # atno 6909 bound_to 6896
  146.1116  139.5859  142.9348 H   0  0  0  0  0  0  0  0  0  0  0  0  # atno 7974 bound_to 7965
  155.9605  140.1143  157.0900 H   0  0  0  0  0  0  0  0  0  0  0  0  # atno 8008 bound_to 7997
  154.4131  140.1183  156.5239 H   0  0  0  0  0  0  0  0  0  0  0  0  # atno 8009 bound_to 7997
  155.6727  140.3473  155.4827 H   0  0  0  0  0  0  0  0  0  0  0  0  # atno 8010 bound_to 7997
  140.7100  143.3298  151.2596 H   0  0  0  0  0  0  0  0  0  0  0  0  # atno 10167 bound_to 10162
  157.6639  130.9733  150.1372 H   0  0  0  0  0  0  0  0  0  0  0  0  # atno 10718 bound_to 10713
  154.4148  135.6000  153.5974 H   0  0  0  0  0  0  0  0  0  0  0  0  # atno 10763 bound_to 10752
  152.9791  135.5938  154.4026 H   0  0  0  0  0  0  0  0  0  0  0  0  # atno 10764 bound_to 10752
  154.3843  135.2841  155.2171 H   0  0  0  0  0  0  0  0  0  0  0  0  # atno 10765 bound_to 10752
  141.1545  133.7755  156.9877 H   0  0  0  0  0  0  0  0  0  0  0  0  # atno 11005 bound_to 11000
  145.5651  141.0400  143.2204 LP  0  0  0  0  0  0  0  0  0  0  0  0  # atno 17320 bound_to 7965
  144.7517  139.7178  143.7270 LP  0  0  0  0  0  0  0  0  0  0  0  0  # atno 17321 bound_to 7965
  139.6776  143.9910  152.2790 LP  0  0  0  0  0  0  0  0  0  0  0  0  # atno 17342 bound_to 10162
  139.9529  144.6608  150.8154 LP  0  0  0  0  0  0  0  0  0  0  0  0  # atno 17343 bound_to 10162
  156.2204  130.3673  149.8563 LP  0  0  0  0  0  0  0  0  0  0  0  0  # atno 17370 bound_to 10713
  156.6417  130.8707  151.3515 LP  0  0  0  0  0  0  0  0  0  0  0  0  # atno 17371 bound_to 10713
  140.1023  134.9527  157.1942 LP  0  0  0  0  0  0  0  0  0  0  0  0  # atno 17394 bound_to 11000
  140.3301  134.2819  155.7229 LP  0  0  0  0  0  0  0  0  0  0  0  0  # atno 17395 bound_to 11000

$$$$
