AV-unprocessed.smi:3044|AV-procd|sdf|11608|dock4
  -GOLD-   2272016583D 1   1.00000     0.00000
 Structure written by MMmdl.
 41 42  0  0  0  0  0  0  0  0  1 V2000
  154.8532  135.7103  160.7890 C   0  0  0  0  0  0  0  0  0  0  0  0
  154.3290  136.1294  162.1515 C   0  0  0  0  0  0  0  0  0  0  0  0
  154.0436  135.1145  162.9976 N   0  0  0  0  0  0  0  0  0  0  0  0
  153.5696  135.4182  164.2234 C   0  0  0  0  0  0  0  0  0  0  0  0
  153.3519  136.7381  164.6593 C   0  0  0  0  0  0  0  0  0  0  0  0
  153.6495  137.7941  163.7777 C   0  0  0  0  0  0  0  0  0  0  0  0
  154.1639  137.4952  162.4919 C   0  0  0  0  0  0  0  0  0  0  0  0
  154.4764  138.4908  161.5227 N   0  0  0  0  0  0  0  0  0  0  0  0
  155.0118  139.7115  161.7095 C   0  0  0  0  0  0  0  0  0  0  0  0
  155.3663  140.1650  162.7969 O   0  0  0  0  0  0  0  0  0  0  0  0
  155.2093  140.5533  160.4512 C   0  0  0  0  0  0  0  0  0  0  0  0
  154.5329  141.7889  160.6300 O   0  0  0  0  0  0  0  0  0  0  0  0
  153.1199  141.7235  160.4714 C   0  0  1  0  0  0  0  0  0  0  0  0
  152.3893  142.5218  161.5719 C   0  0  0  0  0  0  0  0  0  0  0  0
  152.6841  144.0265  161.4707 C   0  0  0  0  0  0  0  0  0  0  0  0
  152.3277  144.5693  160.0782 C   0  0  0  0  0  0  0  0  0  0  0  0
  153.0598  143.7957  158.9651 C   0  0  2  0  0  0  0  0  0  0  0  0
  152.6913  144.3326  157.5747 C   0  0  0  0  0  0  0  0  0  0  0  0
  152.7762  142.2830  159.0783 C   0  0  0  0  0  0  0  0  0  0  0  0
  155.8586  136.1018  160.6335 H   0  0  0  0  0  0  0  0  0  0  0  0
  154.2070  136.0917  159.9982 H   0  0  0  0  0  0  0  0  0  0  0  0
  154.8961  134.6247  160.6916 H   0  0  0  0  0  0  0  0  0  0  0  0
  153.3504  134.5844  164.8736 H   0  0  0  0  0  0  0  0  0  0  0  0
  152.9599  136.9361  165.6459 H   0  0  0  0  0  0  0  0  0  0  0  0
  153.4623  138.8062  164.1000 H   0  0  0  0  0  0  0  0  0  0  0  0
  154.3271  138.2197  160.5616 H   0  0  0  0  0  0  0  0  0  0  0  0
  156.2714  140.7246  160.2669 H   0  0  0  0  0  0  0  0  0  0  0  0
  154.8103  140.0017  159.6002 H   0  0  0  0  0  0  0  0  0  0  0  0
  152.8025  140.6799  160.5045 H   0  0  0  0  0  0  0  0  0  0  0  0
  151.3148  142.3635  161.4715 H   0  0  0  0  0  0  0  0  0  0  0  0
  152.6503  142.1560  162.5640 H   0  0  0  0  0  0  0  0  0  0  0  0
  152.1229  144.5667  162.2335 H   0  0  0  0  0  0  0  0  0  0  0  0
  153.7396  144.2084  161.6774 H   0  0  0  0  0  0  0  0  0  0  0  0
  151.2494  144.5013  159.9276 H   0  0  0  0  0  0  0  0  0  0  0  0
  152.5799  145.6289  160.0247 H   0  0  0  0  0  0  0  0  0  0  0  0
  154.1314  143.9497  159.1000 H   0  0  0  0  0  0  0  0  0  0  0  0
  151.6271  144.2089  157.3708 H   0  0  0  0  0  0  0  0  0  0  0  0
  153.2430  143.8101  156.7927 H   0  0  0  0  0  0  0  0  0  0  0  0
  152.9255  145.3940  157.4892 H   0  0  0  0  0  0  0  0  0  0  0  0
  153.3373  141.7392  158.3173 H   0  0  0  0  0  0  0  0  0  0  0  0
  151.7218  142.0969  158.8698 H   0  0  0  0  0  0  0  0  0  0  0  0
  1  2  1  0  0  0  0
  1 20  1  0  0  0  0
  1 21  1  0  0  0  0
  1 22  1  0  0  0  0
  2  7  1  0  0  0  0
  2  3  2  0  0  0  0
  3  4  1  0  0  0  0
  4  5  2  0  0  0  0
  4 23  1  0  0  0  0
  5  6  1  0  0  0  0
  5 24  1  0  0  0  0
  6  7  2  0  0  0  0
  6 25  1  0  0  0  0
  7  8  1  0  0  0  0
  8  9  1  0  0  0  0
  8 26  1  0  0  0  0
  9 10  2  0  0  0  0
  9 11  1  0  0  0  0
 11 12  1  0  0  0  0
 11 27  1  0  0  0  0
 11 28  1  0  0  0  0
 12 13  1  0  0  0  0
 13 19  1  0  0  0  0
 13 14  1  0  0  0  0
 13 29  1  0  0  0  0
 14 15  1  0  0  0  0
 14 30  1  0  0  0  0
 14 31  1  0  0  0  0
 15 16  1  0  0  0  0
 15 32  1  0  0  0  0
 15 33  1  0  0  0  0
 16 17  1  0  0  0  0
 16 34  1  0  0  0  0
 16 35  1  0  0  0  0
 17 18  1  0  0  0  0
 17 19  1  0  0  0  0
 17 36  1  0  0  0  0
 18 37  1  0  0  0  0
 18 38  1  0  0  0  0
 18 39  1  0  0  0  0
 19 40  1  0  0  0  0
 19 41  1  0  0  0  0
M  END
> <s_m_source_file>
AV-unprocessed.smi

> <i_m_source_file_index>
3044

> <i_lp_mmshare_version>
43012

> <i_f3d_flags>
0

> <s_epik_input>
W0NIM11jMW5bY0hdW2NIXVtjSF1jMVtOSF1DKD1PKVtDSDJdT1tDQEBIXTJbQ0gyXVtDSDJdW0NIMl1bQ0BASF0oW0NIM10pW0NIMl0y

> <s_epik_cmdline>
J2VwaWtfcHl0aG9uJywgJy1waCcsICc3LjAnLCAnLXRuJywgJzgnLCAnLW1hJywgJzIwMCcsICctbWV0YWxfYmluZGluZycsICctaW1hZScsICc8aW5maWxlLm1hZT4nLCAnLW9tYWUnLCAnPG91dGZpbGUubWFlPic=

> <r_epik_Ionization_Penalty>
0.0077122

> <r_epik_Ionization_Penalty_Charging>
0

> <r_epik_Ionization_Penalty_Neutral>
0.0077122

> <r_epik_State_Penalty>
0.00577497

> <r_epik_Charging_Adjusted_Penalty>
0.00577497

> <i_epik_Tot_Q>
0

> <i_epik_Tot_abs_Q>
0

> <r_epik_Metal_State_Penalty>
-0

> <b_epik_Metal_Only>
0

> <s_lp_Force_Field>
OPLS_2005

> <r_lp_Energy>
18.191

> <b_lp_Chiralities_Consistent>
1

> <s_lp_Variant>
AV-unprocessed.smi:3044-4

> <Gold.Version>
5.8.1

> <Gold.Id.Protein>
6NUR|6NUR_protein|mol2

> <Gold.PLP.Fitness>
43.2685

> <Gold.PLP.PLP>
-45.1621

> <Gold.PLP.part.hbond>
-1.2816

> <Gold.PLP.part.metal>
0.0000

> <Gold.PLP.part.buried>
-3.8377

> <Gold.PLP.part.nonpolar>
-39.3547

> <Gold.PLP.part.repulsive>
0.0000

> <Gold.PLP.ligand.clash>
0.0000

> <Gold.PLP.ligand.torsion>
0.9550

> <Gold.PLP.Chemscore.Hbond>
0.0000

> <Gold.PLP.Chemscore.CHOScore>
0.0000

> <Gold.PLP.Chemscore.Metal>
0.0000

> <Gold.PLP.Chemscore.Internal.Correction>
0.0165

> <Gold.Rescore>
     Score         DG    S(hbond)    S(metal)    S(lipo)     H(rot)  DE(clash)    DE(int)     intcor
     15.93     -17.40       0.00        0.00     130.42       1.31       0.34       1.12       ----

> <Gold.Chemscore.Fitness>
15.9332

> <Gold.Chemscore.DG>
-17.3951

> <Gold.Chemscore.ZeroCoef>
-5.4800

> <Gold.Chemscore.Hbond>
0.0000

> <Gold.Chemscore.Metal>
0.0000

> <Gold.Chemscore.Lipo>
130.4222

> <Gold.Chemscore.Internal_Hbond>
0.0000

> <Gold.Chemscore.DEClash>
0.3428

> <Gold.Chemscore.DEInternal>
1.1191

> <Gold.Chemscore.Rot>
1.3064

> <Gold.Chemscore.Internal.Correction>
   9.000000E+99

> <Gold.Chemscore.Hbond.Weighted>
-0.0000

> <Gold.Chemscore.Metal.Weighted>
-0.0000

> <Gold.Chemscore.Lipo.Weighted>
-15.2594

> <Gold.Chemscore.Internal_Hbond.Weighted>
0.0000

> <Gold.Chemscore.DEClash.Weighted>
0.3428

> <Gold.Chemscore.DEInternal.Weighted>
1.1191

> <Gold.Chemscore.Rot.Weighted>
3.3443

> <Gold.Chemscore.Internal.Correction.Weighted>
   9.000000E+99

> <Gold.Protein.RotatedTorsions>
[ 6907 6896 6895 6894 ] final  149.29 input  -60.11 | X-H torsion
[ 7974 7965 7964 7962 ] final   94.71 input  175.53 | X-H torsion
[ 8008 7997 7996 7995 ] final -119.06 input   59.86 | X-H torsion
[ 10167 10162 10161 10158 ] final -137.30 input  -65.29 | X-H torsion
[ 10718 10713 10712 10709 ] final   -3.17 input   66.30 | X-H torsion
[ 10763 10752 10751 10750 ] final   85.46 input  -60.55 | X-H torsion
[ 11005 11000 10999 10996 ] final   50.93 input  -57.11 | X-H torsion

> <Gold.Protein.ActiveResidues>
 VAL166  LYS551  ARG553  GLY616  TRP617  ASP618  TYR619  PRO620  LYS621  CYS622 
 ASP623  PHE694  ASN695  SER759  ASP760  ASP761  ALA762  ILE779  LEU786  VAL792 
 PHE793  MET794  SER795  GLU796  ALA797  LYS798  CYS799  TRP800  GLU811  SER814 

> <Gold.Protein.RotatedAtoms>
  152.1299  133.4402  159.4715 H   0  0  0  0  0  0  0  0  0  0  0  0  # atno 6907 bound_to 6896
  150.6877  134.2433  159.4490 H   0  0  0  0  0  0  0  0  0  0  0  0  # atno 6908 bound_to 6896
  152.0316  134.9764  160.0623 H   0  0  0  0  0  0  0  0  0  0  0  0  # atno 6909 bound_to 6896
  145.4618  139.2286  143.2983 H   0  0  0  0  0  0  0  0  0  0  0  0  # atno 7974 bound_to 7965
  155.1097  140.0397  157.2720 H   0  0  0  0  0  0  0  0  0  0  0  0  # atno 8008 bound_to 7997
  154.6695  140.2609  155.6997 H   0  0  0  0  0  0  0  0  0  0  0  0  # atno 8009 bound_to 7997
  156.2652  140.2800  156.1198 H   0  0  0  0  0  0  0  0  0  0  0  0  # atno 8010 bound_to 7997
  139.8592  143.7099  152.2651 H   0  0  0  0  0  0  0  0  0  0  0  0  # atno 10167 bound_to 10162
  156.7801  130.5328  149.5752 H   0  0  0  0  0  0  0  0  0  0  0  0  # atno 10718 bound_to 10713
  153.1477  135.4616  154.9590 H   0  0  0  0  0  0  0  0  0  0  0  0  # atno 10763 bound_to 10752
  154.7799  135.3185  154.8014 H   0  0  0  0  0  0  0  0  0  0  0  0  # atno 10764 bound_to 10752
  153.8525  135.6920  153.4845 H   0  0  0  0  0  0  0  0  0  0  0  0  # atno 10765 bound_to 10752
  140.0975  134.5126  155.8793 H   0  0  0  0  0  0  0  0  0  0  0  0  # atno 11005 bound_to 11000
  146.2446  140.5388  142.8919 LP  0  0  0  0  0  0  0  0  0  0  0  0  # atno 17320 bound_to 7965
  144.7998  140.6191  143.6486 LP  0  0  0  0  0  0  0  0  0  0  0  0  # atno 17321 bound_to 7965
  139.7390  144.7564  151.0682 LP  0  0  0  0  0  0  0  0  0  0  0  0  # atno 17342 bound_to 10162
  140.7777  143.4995  150.9790 LP  0  0  0  0  0  0  0  0  0  0  0  0  # atno 17343 bound_to 10162
  156.1224  130.6119  151.0213 LP  0  0  0  0  0  0  0  0  0  0  0  0  # atno 17370 bound_to 10713
  157.6650  131.0873  150.7748 LP  0  0  0  0  0  0  0  0  0  0  0  0  # atno 17371 bound_to 10713
  141.2096  133.6686  156.6452 LP  0  0  0  0  0  0  0  0  0  0  0  0  # atno 17394 bound_to 11000
  140.3266  134.7964  157.4294 LP  0  0  0  0  0  0  0  0  0  0  0  0  # atno 17395 bound_to 11000

$$$$
