AV-unprocessed.smi:67|AV-procd|sdf|629|dock3
  -GOLD-   2262016523D 1   1.00000     0.00000
 Structure written by MMmdl.
 49 51  0  0  0  0  0  0  0  0  3 V2000
  147.3192  132.6430  150.6338 O   0  0  0  0  0  0  0  0  0  0  0  0
  146.0546  132.7026  151.2722 C   0  0  1  0  0  0  0  0  0  0  0  0
  145.9716  131.5513  152.3001 C   0  0  0  0  0  0  0  0  0  0  0  0
  147.3158  131.0383  152.6806 N   0  3  2  0  0  0  0  0  0  0  0  0
  147.3186  129.5804  152.9713 C   0  0  0  0  0  0  0  0  0  0  0  0
  148.7510  129.0505  153.1514 C   0  0  0  0  0  0  0  0  0  0  0  0
  149.5036  129.8660  154.2225 C   0  0  1  0  0  0  0  0  0  0  0  0
  150.8117  129.3819  154.5363 O   0  0  0  0  0  0  0  0  0  0  0  0
  151.7399  130.1067  155.2599 C   0  0  0  0  0  0  0  0  0  0  0  0
  151.4579  130.9777  156.3420 C   0  0  0  0  0  0  0  0  0  0  0  0
  152.4989  131.6569  157.0031 C   0  0  0  0  0  0  0  0  0  0  0  0
  153.8331  131.4819  156.5943 C   0  0  0  0  0  0  0  0  0  0  0  0
  154.1340  130.6265  155.5146 C   0  0  0  0  0  0  0  0  0  0  0  0
  155.5735  130.4213  155.0662 C   0  0  0  0  0  0  0  0  0  0  0  0
  155.8684  129.1232  155.1205 F   0  0  0  0  0  0  0  0  0  0  0  0
  155.7409  130.8480  153.8139 F   0  0  0  0  0  0  0  0  0  0  0  0
  156.4225  131.0873  155.8498 F   0  0  0  0  0  0  0  0  0  0  0  0
  153.0842  129.9439  154.8636 C   0  0  0  0  0  0  0  0  0  0  0  0
  149.4136  131.3880  153.9872 C   0  0  0  0  0  0  0  0  0  0  0  0
  147.9523  131.8170  153.7760 C   0  0  0  0  0  0  0  0  0  0  0  0
  145.8296  134.1051  151.8470 C   0  0  0  0  0  0  0  0  0  0  0  0
  145.3965  134.9356  150.6373 C   0  0  0  0  0  0  0  0  0  0  0  0
  144.7208  133.9992  149.7190 N   0  3  0  0  0  0  0  0  0  0  0  0
  144.9699  132.6188  150.1844 C   0  0  0  0  0  0  0  0  0  0  0  0
  147.6536  131.7604  150.6949 H   0  0  0  0  0  0  0  0  0  0  0  0
  145.4262  131.8712  153.1898 H   0  0  0  0  0  0  0  0  0  0  0  0
  145.3708  130.7482  151.8693 H   0  0  0  0  0  0  0  0  0  0  0  0
  146.7278  129.3868  153.8681 H   0  0  0  0  0  0  0  0  0  0  0  0
  146.8419  129.0394  152.1528 H   0  0  0  0  0  0  0  0  0  0  0  0
  148.7174  128.0014  153.4471 H   0  0  0  0  0  0  0  0  0  0  0  0
  149.2535  129.0711  152.1878 H   0  0  0  0  0  0  0  0  0  0  0  0
  148.9578  129.6890  155.1505 H   0  0  0  0  0  0  0  0  0  0  0  0
  150.4581  131.1520  156.6986 H   0  0  0  0  0  0  0  0  0  0  0  0
  152.2728  132.3147  157.8295 H   0  0  0  0  0  0  0  0  0  0  0  0
  154.6213  132.0057  157.1147 H   0  0  0  0  0  0  0  0  0  0  0  0
  153.3114  129.2789  154.0430 H   0  0  0  0  0  0  0  0  0  0  0  0
  149.8285  131.9160  154.8464 H   0  0  0  0  0  0  0  0  0  0  0  0
  149.9984  131.7104  153.1297 H   0  0  0  0  0  0  0  0  0  0  0  0
  147.9228  132.8819  153.5474 H   0  0  0  0  0  0  0  0  0  0  0  0
  147.3841  131.6786  154.6973 H   0  0  0  0  0  0  0  0  0  0  0  0
  145.0122  134.0829  152.5692 H   0  0  0  0  0  0  0  0  0  0  0  0
  146.7063  134.5150  152.3506 H   0  0  0  0  0  0  0  0  0  0  0  0
  144.7472  135.7676  150.9112 H   0  0  0  0  0  0  0  0  0  0  0  0
  146.2709  135.3441  150.1291 H   0  0  0  0  0  0  0  0  0  0  0  0
  143.7263  134.1772  149.7102 H   0  0  0  0  0  0  0  0  0  0  0  0
  145.2355  131.9566  149.3590 H   0  0  0  0  0  0  0  0  0  0  0  0
  144.0365  132.2485  150.6108 H   0  0  0  0  0  0  0  0  0  0  0  0
  145.0936  134.1232  148.7880 H   0  0  0  0  0  0  0  0  0  0  0  0
  147.8961  131.1576  151.8618 H   0  0  0  0  0  0  0  0  0  0  0  0
  1  2  1  0  0  0  0
  1 25  1  0  0  0  0
  2 24  1  0  0  0  0
  2  3  1  0  0  0  0
  2 21  1  0  0  0  0
  3  4  1  0  0  0  0
  3 26  1  0  0  0  0
  3 27  1  0  0  0  0
  4 20  1  0  0  0  0
  4  5  1  0  0  0  0
  4 49  1  0  0  0  0
  5  6  1  0  0  0  0
  5 28  1  0  0  0  0
  5 29  1  0  0  0  0
  6  7  1  0  0  0  0
  6 30  1  0  0  0  0
  6 31  1  0  0  0  0
  7  8  1  0  0  0  0
  7 19  1  0  0  0  0
  7 32  1  0  0  0  0
  8  9  1  0  0  0  0
  9 18  1  0  0  0  0
  9 10  2  0  0  0  0
 10 11  1  0  0  0  0
 10 33  1  0  0  0  0
 11 12  2  0  0  0  0
 11 34  1  0  0  0  0
 12 13  1  0  0  0  0
 12 35  1  0  0  0  0
 13 14  1  0  0  0  0
 13 18  2  0  0  0  0
 14 15  1  0  0  0  0
 14 16  1  0  0  0  0
 14 17  1  0  0  0  0
 18 36  1  0  0  0  0
 19 20  1  0  0  0  0
 19 37  1  0  0  0  0
 19 38  1  0  0  0  0
 20 39  1  0  0  0  0
 20 40  1  0  0  0  0
 21 22  1  0  0  0  0
 21 41  1  0  0  0  0
 21 42  1  0  0  0  0
 22 23  1  0  0  0  0
 22 43  1  0  0  0  0
 22 44  1  0  0  0  0
 23 24  1  0  0  0  0
 23 45  1  0  0  0  0
 23 48  1  0  0  0  0
 24 46  1  0  0  0  0
 24 47  1  0  0  0  0
M  CHG  1   4   1
M  CHG  1  23   1
M  END
> <s_m_source_file>
AV-unprocessed.smi

> <i_m_source_file_index>
67

> <i_lp_mmshare_version>
43012

> <i_f3d_flags>
0

> <s_epik_input>
W0NIMl0xW05IXVtDSDJdW0NIMl1bQ0BAXTEoW09IXSlbQ0gyXU4yW0NIMl1bQ0gyXVtDSF0oW0NIMl1bQ0gyXTIpT2MzW2NIXVtjSF1bY0hdYyhDKEYpKEYpRilbY0hdMw==

> <s_epik_cmdline>
J2VwaWtfcHl0aG9uJywgJy1waCcsICc3LjAnLCAnLXRuJywgJzgnLCAnLW1hJywgJzIwMCcsICctbWV0YWxfYmluZGluZycsICctaW1hZScsICc8aW5maWxlLm1hZT4nLCAnLW9tYWUnLCAnPG91dGZpbGUubWFlPic=

> <r_lp_tautomer_probability>
1

> <r_epik_Ionization_Penalty>
0.0989853

> <r_epik_Ionization_Penalty_Charging>
0.0989662

> <r_epik_Ionization_Penalty_Neutral>
1.91014e-05

> <r_epik_State_Penalty>
0.0852826

> <r_epik_Charging_Adjusted_Penalty>
0.184249

> <i_epik_Tot_Q>
2

> <i_epik_Tot_abs_Q>
2

> <r_epik_Metal_State_Penalty>
0.0849414

> <b_epik_Metal_Only>
0

> <s_lp_Force_Field>
OPLS_2005

> <r_lp_Energy>
60.8706

> <b_lp_Chiralities_Consistent>
1

> <s_lp_Variant>
AV-unprocessed.smi:67-1

> <Gold.Version>
5.8.1

> <Gold.Id.Protein>
6NUR|6NUR_protein|mol2

> <Gold.PLP.Fitness>
48.7549

> <Gold.PLP.PLP>
-43.4656

> <Gold.PLP.part.hbond>
-2.9422

> <Gold.PLP.part.metal>
0.0000

> <Gold.PLP.part.buried>
-5.4864

> <Gold.PLP.part.nonpolar>
-33.4542

> <Gold.PLP.part.repulsive>
0.1770

> <Gold.PLP.ligand.clash>
0.9734

> <Gold.PLP.ligand.torsion>
1.7963

> <Gold.PLP.Chemscore.Hbond>
2.8320

> <Gold.PLP.Chemscore.CHOScore>
0.0000

> <Gold.PLP.Chemscore.Metal>
0.0000

> <Gold.Chemscore.Hbonds>
donor molecule, donor type, donor heavy atom, donor atom, acceptor molecule, acceptor atom, score
      L1  H     1    25       P1 10747  0.80
      L1  H     4    49       P1 10747  1.00
      L1  H    23    48       P1  7921  1.00

> <Gold.PLP.Chemscore.Internal.Correction>
1.3594

> <Gold.Rescore>
     Score         DG    S(hbond)    S(metal)    S(lipo)     H(rot)  DE(clash)    DE(int)     intcor
     19.22     -21.05       2.96        0.00      97.42       2.24       0.11       1.72       ----

> <Gold.Chemscore.Fitness>
19.2180

> <Gold.Chemscore.DG>
-21.0472

> <Gold.Chemscore.ZeroCoef>
-5.4800

> <Gold.Chemscore.Hbond>
2.9615

> <Gold.Chemscore.Metal>
0.0000

> <Gold.Chemscore.Lipo>
97.4194

> <Gold.Chemscore.Internal_Hbond>
0.0000

> <Gold.Chemscore.DEClash>
0.1102

> <Gold.Chemscore.DEInternal>
1.7190

> <Gold.Chemscore.Rot>
2.2352

> <Gold.Chemscore.Internal.Correction>
   9.000000E+99

> <Gold.Chemscore.Hbonds>
donor molecule, donor type, donor heavy atom, donor atom, acceptor molecule, acceptor atom, score
      L1  H     1    25       P1 10747  0.79
      L1  H     4    49       P1 10747  0.99
      L1  H    23    48       P1  7921  0.97

> <Gold.Chemscore.Hbond.Weighted>
-9.8913

> <Gold.Chemscore.Metal.Weighted>
-0.0000

> <Gold.Chemscore.Lipo.Weighted>
-11.3981

> <Gold.Chemscore.Internal_Hbond.Weighted>
0.0000

> <Gold.Chemscore.DEClash.Weighted>
0.1102

> <Gold.Chemscore.DEInternal.Weighted>
1.7190

> <Gold.Chemscore.Rot.Weighted>
5.7221

> <Gold.Chemscore.Internal.Correction.Weighted>
   9.000000E+99

> <Gold.Protein.RotatedTorsions>
[ 6907 6896 6895 6894 ] final  -71.07 input  -60.11 | X-H torsion
[ 7974 7965 7964 7962 ] final  168.33 input  175.53 | X-H torsion
[ 8008 7997 7996 7995 ] final   43.97 input   59.86 | X-H torsion
[ 10167 10162 10161 10158 ] final   -4.77 input  -65.29 | X-H torsion
[ 10718 10713 10712 10709 ] final  -38.44 input   66.30 | X-H torsion
[ 10763 10752 10751 10750 ] final  143.29 input  -60.55 | X-H torsion
[ 11005 11000 10999 10996 ] final  -74.39 input  -57.11 | X-H torsion

> <Gold.Protein.ActiveResidues>
 VAL166  LYS551  ARG553  GLY616  TRP617  ASP618  TYR619  PRO620  LYS621  CYS622 
 ASP623  PHE694  ASN695  SER759  ASP760  ASP761  ALA762  ILE779  LEU786  VAL792 
 PHE793  MET794  SER795  GLU796  ALA797  LYS798  CYS799  TRP800  GLU811  SER814 

> <Gold.Protein.RotatedAtoms>
  150.7229  134.5362  159.5724 H   0  0  0  0  0  0  0  0  0  0  0  0  # atno 6907 bound_to 6896
  152.2883  134.7747  160.0392 H   0  0  0  0  0  0  0  0  0  0  0  0  # atno 6908 bound_to 6896
  151.8369  133.3382  159.3668 H   0  0  0  0  0  0  0  0  0  0  0  0  # atno 6909 bound_to 6896
  144.7392  139.8892  143.6402 H   0  0  0  0  0  0  0  0  0  0  0  0  # atno 7974 bound_to 7965
  155.3116  140.3391  155.4244 H   0  0  0  0  0  0  0  0  0  0  0  0  # atno 8008 bound_to 7997
  156.1953  140.1712  156.8049 H   0  0  0  0  0  0  0  0  0  0  0  0  # atno 8009 bound_to 7997
  154.5491  140.0709  156.8621 H   0  0  0  0  0  0  0  0  0  0  0  0  # atno 8010 bound_to 7997
  140.6939  143.6385  150.8457 H   0  0  0  0  0  0  0  0  0  0  0  0  # atno 10167 bound_to 10162
  156.3038  130.4243  149.8117 H   0  0  0  0  0  0  0  0  0  0  0  0  # atno 10718 bound_to 10713
  153.9700  135.2951  155.3428 H   0  0  0  0  0  0  0  0  0  0  0  0  # atno 10763 bound_to 10752
  154.7328  135.5060  153.8994 H   0  0  0  0  0  0  0  0  0  0  0  0  # atno 10764 bound_to 10752
  153.0905  135.6706  153.9976 H   0  0  0  0  0  0  0  0  0  0  0  0  # atno 10765 bound_to 10752
  141.1634  133.6910  156.7356 H   0  0  0  0  0  0  0  0  0  0  0  0  # atno 11005 bound_to 11000
  146.1154  139.4165  143.0261 LP  0  0  0  0  0  0  0  0  0  0  0  0  # atno 17320 bound_to 7965
  145.7382  141.0018  143.1315 LP  0  0  0  0  0  0  0  0  0  0  0  0  # atno 17321 bound_to 7965
  140.0101  143.5652  152.2842 LP  0  0  0  0  0  0  0  0  0  0  0  0  # atno 17342 bound_to 10162
  139.6373  144.7651  151.2412 LP  0  0  0  0  0  0  0  0  0  0  0  0  # atno 17343 bound_to 10162
  156.5486  130.8331  151.3292 LP  0  0  0  0  0  0  0  0  0  0  0  0  # atno 17370 bound_to 10713
  157.7374  130.9796  150.2193 LP  0  0  0  0  0  0  0  0  0  0  0  0  # atno 17371 bound_to 10713
  140.2712  134.8390  157.3849 LP  0  0  0  0  0  0  0  0  0  0  0  0  # atno 17394 bound_to 11000
  140.1519  134.4838  155.7955 LP  0  0  0  0  0  0  0  0  0  0  0  0  # atno 17395 bound_to 11000

$$$$
