AV-unprocessed.smi:1886|AV-procd|sdf|7654|dock1
  -GOLD-   22720 9383D 1   1.00000     0.00000
 Structure written by MMmdl.
 39 40  0  0  0  0  0  0  0  0  1 V2000
  145.9258  142.1855  159.5756 O   0  0  0  0  0  0  0  0  0  0  0  0
  146.4245  143.1562  159.0062 C   0  0  0  0  0  0  0  0  0  0  0  0
  147.6246  143.1455  158.4103 N   0  0  0  0  0  0  0  0  0  0  0  0
  148.5022  141.9839  158.3153 C   0  0  0  0  0  0  0  0  0  0  0  0
  148.7547  141.5633  156.8742 C   0  0  0  0  0  0  0  0  0  0  0  0
  147.6667  141.2001  156.0521 C   0  0  0  0  0  0  0  0  0  0  0  0
  147.9098  140.8205  154.7195 C   0  0  0  0  0  0  0  0  0  0  0  0
  149.2389  140.8198  154.2575 C   0  0  0  0  0  0  0  0  0  0  0  0
  150.2897  141.1645  155.0301 N   0  0  0  0  0  0  0  0  0  0  0  0
  150.0582  141.5318  156.3140 C   0  0  0  0  0  0  0  0  0  0  0  0
  151.1705  141.8856  157.0938 N   0  0  0  0  0  0  0  0  0  0  0  0
  151.1565  143.2746  157.5326 C   0  0  0  0  0  0  0  0  0  0  0  0
  152.4863  143.6144  158.2258 C   0  0  0  0  0  0  0  0  0  0  0  0
  152.7112  142.7065  159.3008 O   0  0  0  0  0  0  0  0  0  0  0  0
  152.7926  141.3560  158.8526 C   0  0  0  0  0  0  0  0  0  0  0  0
  151.4700  140.9569  158.1758 C   0  0  0  0  0  0  0  0  0  0  0  0
  145.8332  144.3544  158.9097 N   0  0  0  0  0  0  0  0  0  0  0  0
  144.5332  144.6980  159.4775 C   0  0  0  0  0  0  0  0  0  0  0  0
  144.0498  146.0913  159.0392 C   0  0  0  0  0  0  0  0  0  0  0  0
  142.8967  146.3626  159.6488 F   0  0  0  0  0  0  0  0  0  0  0  0
  144.9424  147.0206  159.3825 F   0  0  0  0  0  0  0  0  0  0  0  0
  143.8507  146.1369  157.7223 F   0  0  0  0  0  0  0  0  0  0  0  0
  147.9487  143.9962  157.9742 H   0  0  0  0  0  0  0  0  0  0  0  0
  149.4461  142.2245  158.8055 H   0  0  0  0  0  0  0  0  0  0  0  0
  148.0864  141.1290  158.8514 H   0  0  0  0  0  0  0  0  0  0  0  0
  146.6569  141.2112  156.4351 H   0  0  0  0  0  0  0  0  0  0  0  0
  147.0973  140.5382  154.0666 H   0  0  0  0  0  0  0  0  0  0  0  0
  149.4645  140.5355  153.2402 H   0  0  0  0  0  0  0  0  0  0  0  0
  151.0010  143.9332  156.6772 H   0  0  0  0  0  0  0  0  0  0  0  0
  150.3256  143.4358  158.2210 H   0  0  0  0  0  0  0  0  0  0  0  0
  153.3133  143.5633  157.5172 H   0  0  0  0  0  0  0  0  0  0  0  0
  152.4606  144.6321  158.6152 H   0  0  0  0  0  0  0  0  0  0  0  0
  153.6319  141.2402  158.1646 H   0  0  0  0  0  0  0  0  0  0  0  0
  152.9881  140.7085  159.7073 H   0  0  0  0  0  0  0  0  0  0  0  0
  150.6615  140.9681  158.9083 H   0  0  0  0  0  0  0  0  0  0  0  0
  151.5389  139.9414  157.7835 H   0  0  0  0  0  0  0  0  0  0  0  0
  146.3203  145.0876  158.4157 H   0  0  0  0  0  0  0  0  0  0  0  0
  143.7920  143.9393  159.2200 H   0  0  0  0  0  0  0  0  0  0  0  0
  144.6325  144.6724  160.5630 H   0  0  0  0  0  0  0  0  0  0  0  0
  1  2  2  0  0  0  0
  2  3  1  0  0  0  0
  2 17  1  0  0  0  0
  3  4  1  0  0  0  0
  3 23  1  0  0  0  0
  4  5  1  0  0  0  0
  4 24  1  0  0  0  0
  4 25  1  0  0  0  0
  5 10  1  0  0  0  0
  5  6  2  0  0  0  0
  6  7  1  0  0  0  0
  6 26  1  0  0  0  0
  7  8  2  0  0  0  0
  7 27  1  0  0  0  0
  8  9  1  0  0  0  0
  8 28  1  0  0  0  0
  9 10  2  0  0  0  0
 10 11  1  0  0  0  0
 11 16  1  0  0  0  0
 11 12  1  0  0  0  0
 12 13  1  0  0  0  0
 12 29  1  0  0  0  0
 12 30  1  0  0  0  0
 13 14  1  0  0  0  0
 13 31  1  0  0  0  0
 13 32  1  0  0  0  0
 14 15  1  0  0  0  0
 15 16  1  0  0  0  0
 15 33  1  0  0  0  0
 15 34  1  0  0  0  0
 16 35  1  0  0  0  0
 16 36  1  0  0  0  0
 17 18  1  0  0  0  0
 17 37  1  0  0  0  0
 18 19  1  0  0  0  0
 18 38  1  0  0  0  0
 18 39  1  0  0  0  0
 19 20  1  0  0  0  0
 19 21  1  0  0  0  0
 19 22  1  0  0  0  0
M  END
> <s_m_source_file>
AV-unprocessed.smi

> <i_m_source_file_index>
1886

> <i_lp_mmshare_version>
43012

> <i_f3d_flags>
0

> <s_epik_input>
RkMoRikoRilbQ0gyXVtOSF1DKD1PKVtOSF1bQ0gyXWMxW2NIXVtjSF1bY0hdbmMxTjJbQ0gyXVtDSDJdT1tDSDJdW0NIMl0y

> <s_epik_cmdline>
J2VwaWtfcHl0aG9uJywgJy1waCcsICc3LjAnLCAnLXRuJywgJzgnLCAnLW1hJywgJzIwMCcsICctbWV0YWxfYmluZGluZycsICctaW1hZScsICc8aW5maWxlLm1hZT4nLCAnLW9tYWUnLCAnPG91dGZpbGUubWFlPic=

> <r_lp_tautomer_probability>
1

> <r_epik_Ionization_Penalty>
0.00288023

> <r_epik_Ionization_Penalty_Charging>
0

> <r_epik_Ionization_Penalty_Neutral>
0.00288023

> <r_epik_State_Penalty>
0.00199456

> <r_epik_Charging_Adjusted_Penalty>
0.00199456

> <i_epik_Tot_Q>
0

> <i_epik_Tot_abs_Q>
0

> <r_epik_Metal_State_Penalty>
-0

> <b_epik_Metal_Only>
0

> <s_lp_Force_Field>
OPLS_2005

> <r_lp_Energy>
16.0982

> <b_lp_Chiralities_Consistent>
1

> <s_lp_Variant>
AV-unprocessed.smi:1886-1

> <Gold.Version>
5.8.1

> <Gold.Id.Protein>
6NUR|6NUR_protein|mol2

> <Gold.PLP.Fitness>
41.1380

> <Gold.PLP.PLP>
-28.6051

> <Gold.PLP.part.hbond>
-4.0000

> <Gold.PLP.part.metal>
0.0000

> <Gold.PLP.part.buried>
-3.2851

> <Gold.PLP.part.nonpolar>
-21.2647

> <Gold.PLP.part.repulsive>
0.2768

> <Gold.PLP.ligand.clash>
0.0000

> <Gold.PLP.ligand.torsion>
0.1088

> <Gold.PLP.Chemscore.Hbond>
3.1941

> <Gold.PLP.Chemscore.CHOScore>
1.0000

> <Gold.PLP.Chemscore.Metal>
0.0000

> <Gold.Chemscore.Hbonds>
donor molecule, donor type, donor heavy atom, donor atom, acceptor molecule, acceptor atom, score
      L1  H     3    23       P1  8029  0.69
      L1  H    17    37       P1  8029  0.86
      P1  H  6934  6946       L1     1  1.00
      P1  H  7989  7998       L1     9  0.40
      L1  C     8    28       P1  7957  1.00

> <Gold.PLP.Chemscore.Internal.Correction>
0.1683

> <Gold.Rescore>
     Score         DG    S(hbond)    S(metal)    S(lipo)     H(rot)  DE(clash)    DE(int)     intcor
     13.61     -14.94       2.09        0.00      67.07       2.09       0.21       1.13       ----

> <Gold.Chemscore.Fitness>
13.6103

> <Gold.Chemscore.DG>
-14.9433

> <Gold.Chemscore.ZeroCoef>
-5.4800

> <Gold.Chemscore.Hbond>
2.0858

> <Gold.Chemscore.Metal>
0.0000

> <Gold.Chemscore.Lipo>
67.0689

> <Gold.Chemscore.Internal_Hbond>
0.0000

> <Gold.Chemscore.DEClash>
0.2052

> <Gold.Chemscore.DEInternal>
1.1278

> <Gold.Chemscore.Rot>
2.0899

> <Gold.Chemscore.Internal.Correction>
   9.000000E+99

> <Gold.Chemscore.Hbonds>
donor molecule, donor type, donor heavy atom, donor atom, acceptor molecule, acceptor atom, score
      L1  H     3    23       P1  8029  0.08
      L1  H    17    37       P1  8029  0.82
      P1  H  6934  6946       L1     1  0.96
      P1  H  7989  7998       L1     9  0.03

> <Gold.Chemscore.Hbond.Weighted>
-6.9665

> <Gold.Chemscore.Metal.Weighted>
-0.0000

> <Gold.Chemscore.Lipo.Weighted>
-7.8471

> <Gold.Chemscore.Internal_Hbond.Weighted>
0.0000

> <Gold.Chemscore.DEClash.Weighted>
0.2052

> <Gold.Chemscore.DEInternal.Weighted>
1.1278

> <Gold.Chemscore.Rot.Weighted>
5.3502

> <Gold.Chemscore.Internal.Correction.Weighted>
   9.000000E+99

> <Gold.Protein.RotatedTorsions>
[ 6907 6896 6895 6894 ] final  -92.40 input  -60.11 | X-H torsion
[ 7974 7965 7964 7962 ] final  -19.53 input  175.53 | X-H torsion
[ 8008 7997 7996 7995 ] final   35.51 input   59.86 | X-H torsion
[ 10167 10162 10161 10158 ] final  167.85 input  -65.29 | X-H torsion
[ 10718 10713 10712 10709 ] final -138.86 input   66.30 | X-H torsion
[ 10763 10752 10751 10750 ] final  -18.19 input  -60.55 | X-H torsion
[ 11005 11000 10999 10996 ] final -118.74 input  -57.11 | X-H torsion

> <Gold.Protein.ActiveResidues>
 VAL166  LYS551  ARG553  GLY616  TRP617  ASP618  TYR619  PRO620  LYS621  CYS622 
 ASP623  PHE694  ASN695  SER759  ASP760  ASP761  ALA762  ILE779  LEU786  VAL792 
 PHE793  MET794  SER795  GLU796  ALA797  LYS798  CYS799  TRP800  GLU811  SER814 

> <Gold.Protein.RotatedAtoms>
  150.6906  134.2127  159.4365 H   0  0  0  0  0  0  0  0  0  0  0  0  # atno 6907 bound_to 6896
  152.0088  134.9885  160.0577 H   0  0  0  0  0  0  0  0  0  0  0  0  # atno 6908 bound_to 6896
  152.1508  133.4486  159.4849 H   0  0  0  0  0  0  0  0  0  0  0  0  # atno 6909 bound_to 6896
  146.1836  140.4075  142.8485 H   0  0  0  0  0  0  0  0  0  0  0  0  # atno 7974 bound_to 7965
  155.1722  140.3292  155.4390 H   0  0  0  0  0  0  0  0  0  0  0  0  # atno 8008 bound_to 7997
  156.2506  140.1941  156.6775 H   0  0  0  0  0  0  0  0  0  0  0  0  # atno 8009 bound_to 7997
  154.6329  140.0580  156.9740 H   0  0  0  0  0  0  0  0  0  0  0  0  # atno 8010 bound_to 7997
  139.4954  144.3878  151.9551 H   0  0  0  0  0  0  0  0  0  0  0  0  # atno 10167 bound_to 10162
  156.3042  130.7446  151.1505 H   0  0  0  0  0  0  0  0  0  0  0  0  # atno 10718 bound_to 10713
  153.5855  135.7004  153.5445 H   0  0  0  0  0  0  0  0  0  0  0  0  # atno 10763 bound_to 10752
  153.3224  135.4070  155.1427 H   0  0  0  0  0  0  0  0  0  0  0  0  # atno 10764 bound_to 10752
  154.8610  135.3698  154.5384 H   0  0  0  0  0  0  0  0  0  0  0  0  # atno 10765 bound_to 10752
  141.0265  134.0046  157.3207 H   0  0  0  0  0  0  0  0  0  0  0  0  # atno 11005 bound_to 11000
  144.8358  140.6779  143.6261 LP  0  0  0  0  0  0  0  0  0  0  0  0  # atno 17320 bound_to 7965
  145.4004  139.1599  143.4180 LP  0  0  0  0  0  0  0  0  0  0  0  0  # atno 17321 bound_to 7965
  140.3315  144.3311  150.5986 LP  0  0  0  0  0  0  0  0  0  0  0  0  # atno 17342 bound_to 10162
  140.5641  143.2188  151.7714 LP  0  0  0  0  0  0  0  0  0  0  0  0  # atno 17343 bound_to 10162
  157.7375  131.0551  150.5349 LP  0  0  0  0  0  0  0  0  0  0  0  0  # atno 17370 bound_to 10713
  156.5480  130.4224  149.6121 LP  0  0  0  0  0  0  0  0  0  0  0  0  # atno 17371 bound_to 10713
  139.9179  135.0198  156.7953 LP  0  0  0  0  0  0  0  0  0  0  0  0  # atno 17394 bound_to 11000
  140.6483  133.9755  155.7742 LP  0  0  0  0  0  0  0  0  0  0  0  0  # atno 17395 bound_to 11000

$$$$
