AV-unprocessed.smi:2124|AV-procd|sdf|8660|dock5
  -GOLD-   2272011413D 1   1.00000     0.00000
 Structure written by MMmdl.
 47 49  0  0  0  0  0  0  0  0  1 V2000
  147.4941  134.7228  154.5706 C   0  0  0  0  0  0  0  0  0  0  0  0
  148.4360  135.4876  155.4752 C   0  0  0  0  0  0  0  0  0  0  0  0
  149.3967  136.2137  154.7910 N   0  0  0  0  0  0  0  0  0  0  0  0
  150.3154  136.9338  155.5339 C   0  0  0  0  0  0  0  0  0  0  0  0
  151.3405  137.6908  154.7078 C   0  0  0  0  0  0  0  0  0  0  0  0
  150.2702  136.9409  156.8904 C   0  0  0  0  0  0  0  0  0  0  0  0
  151.2632  137.7228  157.7497 C   0  0  0  0  0  0  0  0  0  0  0  0
  151.3585  139.2272  157.4816 C   0  0  0  0  0  0  0  0  0  0  0  0
  152.4237  139.7372  157.1327 O   0  0  0  0  0  0  0  0  0  0  0  0
  150.2208  139.9207  157.6436 N   0  0  0  0  0  0  0  0  0  0  0  0
  150.0489  141.3568  157.4285 C   0  0  2  0  0  0  0  0  0  0  0  0
  150.7242  141.7303  156.0981 C   0  0  0  0  0  0  0  0  0  0  0  0
  150.6288  142.1502  158.6262 C   0  0  1  0  0  0  0  0  0  0  0  0
  152.1420  141.9095  158.8521 C   0  0  0  0  0  0  0  0  0  0  0  0
  152.7312  143.3311  158.8619 C   0  0  2  0  0  0  0  0  0  0  0  0
  152.2793  144.0683  160.1351 C   0  0  0  0  0  0  0  0  0  0  0  0
  150.7905  144.3429  159.8545 C   0  0  0  0  0  0  0  0  0  0  0  0
  150.5789  143.6936  158.4735 C   0  0  1  0  0  0  0  0  0  0  0  0
  151.9004  144.0141  157.7839 C   0  0  0  0  0  0  0  0  0  0  0  0
  149.2048  136.1631  157.5658 C   0  0  0  0  0  0  0  0  0  0  0  0
  149.0947  136.1518  158.7913 O   0  0  0  0  0  0  0  0  0  0  0  0
  148.3091  135.4341  156.7664 N   0  0  0  0  0  0  0  0  0  0  0  0
  149.4645  136.2387  153.7837 H   0  0  0  0  0  0  0  0  0  0  0  0
  146.8613  134.0474  155.1481 H   0  0  0  0  0  0  0  0  0  0  0  0
  148.0549  134.1280  153.8488 H   0  0  0  0  0  0  0  0  0  0  0  0
  146.8500  135.4134  154.0257 H   0  0  0  0  0  0  0  0  0  0  0  0
  152.3460  137.3287  154.9224 H   0  0  0  0  0  0  0  0  0  0  0  0
  151.3009  138.7566  154.9347 H   0  0  0  0  0  0  0  0  0  0  0  0
  151.1632  137.5699  153.6383 H   0  0  0  0  0  0  0  0  0  0  0  0
  152.2575  137.2994  157.6069 H   0  0  0  0  0  0  0  0  0  0  0  0
  151.0463  137.5689  158.8075 H   0  0  0  0  0  0  0  0  0  0  0  0
  149.3989  139.4083  157.9293 H   0  0  0  0  0  0  0  0  0  0  0  0
  148.9881  141.5951  157.3359 H   0  0  0  0  0  0  0  0  0  0  0  0
  150.5944  142.7864  155.8624 H   0  0  0  0  0  0  0  0  0  0  0  0
  150.2997  141.1606  155.2708 H   0  0  0  0  0  0  0  0  0  0  0  0
  151.7953  141.5271  156.1253 H   0  0  0  0  0  0  0  0  0  0  0  0
  150.0733  141.8604  159.5199 H   0  0  0  0  0  0  0  0  0  0  0  0
  152.3427  141.3694  159.7780 H   0  0  0  0  0  0  0  0  0  0  0  0
  152.5836  141.3370  158.0356 H   0  0  0  0  0  0  0  0  0  0  0  0
  153.8092  143.3583  158.6998 H   0  0  0  0  0  0  0  0  0  0  0  0
  152.4307  143.4695  161.0339 H   0  0  0  0  0  0  0  0  0  0  0  0
  152.8258  145.0042  160.2586 H   0  0  0  0  0  0  0  0  0  0  0  0
  150.1361  143.9239  160.6198 H   0  0  0  0  0  0  0  0  0  0  0  0
  150.6026  145.4165  159.8084 H   0  0  0  0  0  0  0  0  0  0  0  0
  149.6953  144.0760  157.9630 H   0  0  0  0  0  0  0  0  0  0  0  0
  152.0959  145.0845  157.7001 H   0  0  0  0  0  0  0  0  0  0  0  0
  152.0020  143.5549  156.7992 H   0  0  0  0  0  0  0  0  0  0  0  0
  1 24  1  0  0  0  0
  1 25  1  0  0  0  0
  1 26  1  0  0  0  0
  1  2  1  0  0  0  0
  2  3  1  0  0  0  0
  2 22  2  0  0  0  0
  3  4  1  0  0  0  0
  3 23  1  0  0  0  0
  4  6  2  0  0  0  0
  4  5  1  0  0  0  0
  5 27  1  0  0  0  0
  5 28  1  0  0  0  0
  5 29  1  0  0  0  0
  6 20  1  0  0  0  0
  6  7  1  0  0  0  0
  7  8  1  0  0  0  0
  7 30  1  0  0  0  0
  7 31  1  0  0  0  0
  8  9  2  0  0  0  0
  8 10  1  0  0  0  0
 10 11  1  0  0  0  0
 10 32  1  0  0  0  0
 11 12  1  0  0  0  0
 11 13  1  0  0  0  0
 11 33  1  0  0  0  0
 12 34  1  0  0  0  0
 12 35  1  0  0  0  0
 12 36  1  0  0  0  0
 13 18  1  0  0  0  0
 13 14  1  0  0  0  0
 13 37  1  0  0  0  0
 14 15  1  0  0  0  0
 14 38  1  0  0  0  0
 14 39  1  0  0  0  0
 15 19  1  0  0  0  0
 15 16  1  0  0  0  0
 15 40  1  0  0  0  0
 16 17  1  0  0  0  0
 16 41  1  0  0  0  0
 16 42  1  0  0  0  0
 17 18  1  0  0  0  0
 17 43  1  0  0  0  0
 17 44  1  0  0  0  0
 18 19  1  0  0  0  0
 18 45  1  0  0  0  0
 19 46  1  0  0  0  0
 19 47  1  0  0  0  0
 20 21  2  0  0  0  0
 20 22  1  0  0  0  0
M  END
> <s_m_source_file>
AV-unprocessed.smi

> <i_m_source_file_index>
2124

> <i_lp_mmshare_version>
43012

> <i_f3d_flags>
0

> <s_epik_input>
W0NIM11jMW5jKFtDSDNdKWMoYyg9TylbbkhdMSlbQ0gyXUMoPU8pW05IXVtDQEhdKFtDSDNdKVtDQEhdKFtDSDJdW0NASF0yMylbQ0BIXShbQ0gyXTMpW0NIMl1bQ0gyXTI=

> <s_epik_cmdline>
J2VwaWtfcHl0aG9uJywgJy1waCcsICc3LjAnLCAnLXRuJywgJzgnLCAnLW1hJywgJzIwMCcsICctbWV0YWxfYmluZGluZycsICctaW1hZScsICc8aW5maWxlLm1hZT4nLCAnLW9tYWUnLCAnPG91dGZpbGUubWFlPic=

> <r_lp_tautomer_probability>
0.156392

> <r_epik_Ionization_Penalty>
0.0139374

> <r_epik_Ionization_Penalty_Charging>
0.0138122

> <r_epik_Ionization_Penalty_Neutral>
0.000125146

> <r_epik_State_Penalty>
1.15342

> <r_epik_Charging_Adjusted_Penalty>
1.16723

> <i_epik_Tot_Q>
0

> <i_epik_Tot_abs_Q>
0

> <r_epik_Metal_State_Penalty>
1.3173

> <b_epik_Metal_Only>
0

> <s_lp_Force_Field>
OPLS_2005

> <r_lp_Energy>
56.0933

> <b_lp_Chiralities_Consistent>
1

> <s_lp_Variant>
AV-unprocessed.smi:2124-11

> <Gold.Version>
5.8.1

> <Gold.Id.Protein>
6NUR|6NUR_protein|mol2

> <Gold.PLP.Fitness>
45.6330

> <Gold.PLP.PLP>
-37.0696

> <Gold.PLP.part.hbond>
-3.0000

> <Gold.PLP.part.metal>
0.0000

> <Gold.PLP.part.buried>
-5.4984

> <Gold.PLP.part.nonpolar>
-29.2572

> <Gold.PLP.part.repulsive>
0.1003

> <Gold.PLP.ligand.clash>
0.0000

> <Gold.PLP.ligand.torsion>
0.2259

> <Gold.PLP.Chemscore.Hbond>
3.0000

> <Gold.PLP.Chemscore.CHOScore>
0.0000

> <Gold.PLP.Chemscore.Metal>
0.0000

> <Gold.Chemscore.Hbonds>
donor molecule, donor type, donor heavy atom, donor atom, acceptor molecule, acceptor atom, score
      L1  H     3    23       P1  7948  1.00
      P1  H  6896  6907       L1    21  0.19
      P1  H  7997  8009       L1     9  0.98

> <Gold.PLP.Chemscore.Internal.Correction>
0.0152

> <Gold.Rescore>
     Score         DG    S(hbond)    S(metal)    S(lipo)     H(rot)  DE(clash)    DE(int)     intcor
     20.91     -23.58       2.95        0.00     106.78       1.65       0.01       2.67       ----

> <Gold.Chemscore.Fitness>
20.9063

> <Gold.Chemscore.DG>
-23.5811

> <Gold.Chemscore.ZeroCoef>
-5.4800

> <Gold.Chemscore.Hbond>
2.9462

> <Gold.Chemscore.Metal>
0.0000

> <Gold.Chemscore.Lipo>
106.7813

> <Gold.Chemscore.Internal_Hbond>
0.0000

> <Gold.Chemscore.DEClash>
0.0067

> <Gold.Chemscore.DEInternal>
2.6681

> <Gold.Chemscore.Rot>
1.6534

> <Gold.Chemscore.Internal.Correction>
   9.000000E+99

> <Gold.Chemscore.Hbonds>
donor molecule, donor type, donor heavy atom, donor atom, acceptor molecule, acceptor atom, score
      L1  H     3    23       P1  7948  0.69
      P1  H  6896  6907       L1    21  0.15
      P1  H  7997  8009       L1     9  0.92

> <Gold.Chemscore.Hbond.Weighted>
-9.8403

> <Gold.Chemscore.Metal.Weighted>
-0.0000

> <Gold.Chemscore.Lipo.Weighted>
-12.4934

> <Gold.Chemscore.Internal_Hbond.Weighted>
0.0000

> <Gold.Chemscore.DEClash.Weighted>
0.0067

> <Gold.Chemscore.DEInternal.Weighted>
2.6681

> <Gold.Chemscore.Rot.Weighted>
4.2326

> <Gold.Chemscore.Internal.Correction.Weighted>
   9.000000E+99

> <Gold.Protein.RotatedTorsions>
[ 6907 6896 6895 6894 ] final  -48.17 input  -60.11 | X-H torsion
[ 7974 7965 7964 7962 ] final  177.92 input  175.53 | X-H torsion
[ 8008 7997 7996 7995 ] final  179.31 input   59.86 | X-H torsion
[ 10167 10162 10161 10158 ] final   85.32 input  -65.29 | X-H torsion
[ 10718 10713 10712 10709 ] final   68.60 input   66.30 | X-H torsion
[ 10763 10752 10751 10750 ] final  166.47 input  -60.55 | X-H torsion
[ 11005 11000 10999 10996 ] final  128.64 input  -57.11 | X-H torsion

> <Gold.Protein.ActiveResidues>
 VAL166  LYS551  ARG553  GLY616  TRP617  ASP618  TYR619  PRO620  LYS621  CYS622 
 ASP623  PHE694  ASN695  SER759  ASP760  ASP761  ALA762  ILE779  LEU786  VAL792 
 PHE793  MET794  SER795  GLU796  ALA797  LYS798  CYS799  TRP800  GLU811  SER814 

> <Gold.Protein.RotatedAtoms>
  150.8932  134.8338  159.7308 H   0  0  0  0  0  0  0  0  0  0  0  0  # atno 6907 bound_to 6896
  152.4850  134.4615  159.9616 H   0  0  0  0  0  0  0  0  0  0  0  0  # atno 6908 bound_to 6896
  151.4675  133.3538  159.2854 H   0  0  0  0  0  0  0  0  0  0  0  0  # atno 6909 bound_to 6896
  144.7162  140.0320  143.6439 H   0  0  0  0  0  0  0  0  0  0  0  0  # atno 7974 bound_to 7965
  156.0448  140.1312  157.0115 H   0  0  0  0  0  0  0  0  0  0  0  0  # atno 8008 bound_to 7997
  154.4407  140.1023  156.6361 H   0  0  0  0  0  0  0  0  0  0  0  0  # atno 8009 bound_to 7997
  155.5612  140.3465  155.4494 H   0  0  0  0  0  0  0  0  0  0  0  0  # atno 8010 bound_to 7997
  139.8989  144.6341  150.8658 H   0  0  0  0  0  0  0  0  0  0  0  0  # atno 10167 bound_to 10162
  157.6298  130.9382  150.0399 H   0  0  0  0  0  0  0  0  0  0  0  0  # atno 10718 bound_to 10713
  154.3394  135.2754  155.2430 H   0  0  0  0  0  0  0  0  0  0  0  0  # atno 10763 bound_to 10752
  154.4707  135.5883  153.6323 H   0  0  0  0  0  0  0  0  0  0  0  0  # atno 10764 bound_to 10752
  152.9859  135.6087  154.3594 H   0  0  0  0  0  0  0  0  0  0  0  0  # atno 10765 bound_to 10752
  139.9572  134.9610  156.9032 H   0  0  0  0  0  0  0  0  0  0  0  0  # atno 11005 bound_to 11000
  146.0094  139.3157  143.0879 LP  0  0  0  0  0  0  0  0  0  0  0  0  # atno 17320 bound_to 7965
  145.8699  140.9426  143.0656 LP  0  0  0  0  0  0  0  0  0  0  0  0  # atno 17321 bound_to 7965
  140.7711  143.3452  151.2126 LP  0  0  0  0  0  0  0  0  0  0  0  0  # atno 17342 bound_to 10162
  139.7043  143.9481  152.2919 LP  0  0  0  0  0  0  0  0  0  0  0  0  # atno 17343 bound_to 10162
  156.1494  130.3642  149.9461 LP  0  0  0  0  0  0  0  0  0  0  0  0  # atno 17370 bound_to 10713
  156.7484  130.9106  151.3636 LP  0  0  0  0  0  0  0  0  0  0  0  0  # atno 17371 bound_to 10713
  140.5583  134.0560  155.7390 LP  0  0  0  0  0  0  0  0  0  0  0  0  # atno 17394 bound_to 11000
  141.1245  133.9406  157.2664 LP  0  0  0  0  0  0  0  0  0  0  0  0  # atno 17395 bound_to 11000

$$$$
