AV-unprocessed.smi:3031|AV-procd|sdf|11544|dock6
  -GOLD-   2272016493D 1   1.00000     0.00000
 Structure written by MMmdl.
 47 48  0  0  0  0  0  0  0  0  2 V2000
  143.7770  132.2948  149.9476 C   0  0  0  0  0  0  0  0  0  0  0  0
  144.1025  133.4619  150.8342 C   0  0  0  0  0  0  0  0  0  0  0  0
  143.6601  133.6935  152.1678 C   0  0  0  0  0  0  0  0  0  0  0  0
  144.1210  134.8263  152.6727 N   0  0  0  0  0  0  0  0  0  0  0  0
  144.8736  135.3543  151.6848 N   0  0  0  0  0  0  0  0  0  0  0  0
  145.5376  136.6286  151.8878 C   0  0  0  0  0  0  0  0  0  0  0  0
  145.3387  137.1984  153.3100 C   0  0  1  0  0  0  0  0  0  0  0  0
  146.2709  136.4953  154.3059 C   0  0  0  0  0  0  0  0  0  0  0  0
  145.5970  138.6562  153.3451 N   0  3  0  0  0  0  0  0  0  0  0  0
  146.9750  139.0652  152.9950 C   0  0  0  0  0  0  0  0  0  0  0  0
  147.3475  140.3934  153.6743 C   0  0  1  0  0  0  0  0  0  0  0  0
  146.2309  141.2556  153.5599 O   0  0  0  0  0  0  0  0  0  0  0  0
  147.6741  140.2063  155.1718 C   0  0  0  0  0  0  0  0  0  0  0  0
  149.0704  139.8896  155.4704 N   0  0  0  0  0  0  0  0  0  0  0  0
  149.8648  141.1064  155.6068 C   0  0  0  0  0  0  0  0  0  0  0  0
  151.3386  140.8005  155.9245 C   0  0  0  0  0  0  0  0  0  0  0  0
  151.8781  139.9585  154.9112 O   0  0  0  0  0  0  0  0  0  0  0  0
  151.1612  138.7361  154.7749 C   0  0  0  0  0  0  0  0  0  0  0  0
  149.6851  139.0336  154.4578 C   0  0  0  0  0  0  0  0  0  0  0  0
  144.8873  134.5477  150.5665 C   0  0  0  0  0  0  0  0  0  0  0  0
  144.1203  131.3548  150.3798 H   0  0  0  0  0  0  0  0  0  0  0  0
  144.2432  132.3862  148.9664 H   0  0  0  0  0  0  0  0  0  0  0  0
  142.7031  132.2009  149.7854 H   0  0  0  0  0  0  0  0  0  0  0  0
  143.0176  133.0766  152.7788 H   0  0  0  0  0  0  0  0  0  0  0  0
  146.6003  136.4869  151.6858 H   0  0  0  0  0  0  0  0  0  0  0  0
  145.1733  137.3343  151.1397 H   0  0  0  0  0  0  0  0  0  0  0  0
  144.3154  137.0086  153.6386 H   0  0  0  0  0  0  0  0  0  0  0  0
  146.0834  135.4213  154.3277 H   0  0  0  0  0  0  0  0  0  0  0  0
  146.1235  136.8734  155.3180 H   0  0  0  0  0  0  0  0  0  0  0  0
  147.3192  136.6437  154.0439 H   0  0  0  0  0  0  0  0  0  0  0  0
  144.9763  139.1023  152.6849 H   0  0  0  0  0  0  0  0  0  0  0  0
  147.6946  138.2943  153.2677 H   0  0  0  0  0  0  0  0  0  0  0  0
  147.0261  139.1708  151.9107 H   0  0  0  0  0  0  0  0  0  0  0  0
  148.2020  140.8320  153.1564 H   0  0  0  0  0  0  0  0  0  0  0  0
  145.5599  140.8168  153.0589 H   0  0  0  0  0  0  0  0  0  0  0  0
  147.3468  141.0742  155.7473 H   0  0  0  0  0  0  0  0  0  0  0  0
  147.0682  139.3762  155.5376 H   0  0  0  0  0  0  0  0  0  0  0  0
  149.8102  141.6890  154.6859 H   0  0  0  0  0  0  0  0  0  0  0  0
  149.4504  141.7336  156.3970 H   0  0  0  0  0  0  0  0  0  0  0  0
  151.9172  141.7233  155.9669 H   0  0  0  0  0  0  0  0  0  0  0  0
  151.4325  140.3173  156.8983 H   0  0  0  0  0  0  0  0  0  0  0  0
  151.6095  138.1463  153.9754 H   0  0  0  0  0  0  0  0  0  0  0  0
  151.2485  138.1515  155.6918 H   0  0  0  0  0  0  0  0  0  0  0  0
  149.1480  138.0882  154.3864 H   0  0  0  0  0  0  0  0  0  0  0  0
  149.6145  139.5092  153.4784 H   0  0  0  0  0  0  0  0  0  0  0  0
  145.4403  134.8146  149.6777 H   0  0  0  0  0  0  0  0  0  0  0  0
  145.3770  138.9996  154.2693 H   0  0  0  0  0  0  0  0  0  0  0  0
  1  2  1  0  0  0  0
  1 21  1  0  0  0  0
  1 22  1  0  0  0  0
  1 23  1  0  0  0  0
  2 20  2  0  0  0  0
  2  3  1  0  0  0  0
  3  4  2  0  0  0  0
  3 24  1  0  0  0  0
  4  5  1  0  0  0  0
  5  6  1  0  0  0  0
  5 20  1  0  0  0  0
  6  7  1  0  0  0  0
  6 25  1  0  0  0  0
  6 26  1  0  0  0  0
  7  8  1  0  0  0  0
  7  9  1  0  0  0  0
  7 27  1  0  0  0  0
  8 28  1  0  0  0  0
  8 29  1  0  0  0  0
  8 30  1  0  0  0  0
  9 10  1  0  0  0  0
  9 31  1  0  0  0  0
  9 47  1  0  0  0  0
 10 11  1  0  0  0  0
 10 32  1  0  0  0  0
 10 33  1  0  0  0  0
 11 12  1  0  0  0  0
 11 13  1  0  0  0  0
 11 34  1  0  0  0  0
 12 35  1  0  0  0  0
 13 14  1  0  0  0  0
 13 36  1  0  0  0  0
 13 37  1  0  0  0  0
 14 19  1  0  0  0  0
 14 15  1  0  0  0  0
 15 16  1  0  0  0  0
 15 38  1  0  0  0  0
 15 39  1  0  0  0  0
 16 17  1  0  0  0  0
 16 40  1  0  0  0  0
 16 41  1  0  0  0  0
 17 18  1  0  0  0  0
 18 19  1  0  0  0  0
 18 42  1  0  0  0  0
 18 43  1  0  0  0  0
 19 44  1  0  0  0  0
 19 45  1  0  0  0  0
 20 46  1  0  0  0  0
M  CHG  1   9   1
M  END
> <s_m_source_file>
AV-unprocessed.smi

> <i_m_source_file_index>
3031

> <i_lp_mmshare_version>
43012

> <i_f3d_flags>
0

> <s_epik_input>
W0NIM11jMVtjSF1ubihbY0hdMSlbQ0gyXVtDQEhdKFtDSDNdKVtOSF1bQ0gyXVtDQEhdKFtPSF0pW0NIMl1OMltDSDJdW0NIMl1PW0NIMl1bQ0gyXTI=

> <s_epik_cmdline>
J2VwaWtfcHl0aG9uJywgJy1waCcsICc3LjAnLCAnLXRuJywgJzgnLCAnLW1hJywgJzIwMCcsICctbWV0YWxfYmluZGluZycsICctaW1hZScsICc8aW5maWxlLm1hZT4nLCAnLW9tYWUnLCAnPG91dGZpbGUubWFlPic=

> <r_lp_tautomer_probability>
1

> <r_epik_Ionization_Penalty>
0.108564

> <r_epik_Ionization_Penalty_Charging>
0.01811

> <r_epik_Ionization_Penalty_Neutral>
0.0904541

> <r_epik_State_Penalty>
0.141043

> <r_epik_Charging_Adjusted_Penalty>
0.159153

> <i_epik_Tot_Q>
1

> <i_epik_Tot_abs_Q>
1

> <r_epik_Metal_State_Penalty>
0.141052

> <b_epik_Metal_Only>
0

> <s_lp_Force_Field>
OPLS_2005

> <r_lp_Energy>
31.0841

> <b_lp_Chiralities_Consistent>
1

> <s_lp_Variant>
AV-unprocessed.smi:3031-4

> <Gold.Version>
5.8.1

> <Gold.Id.Protein>
6NUR|6NUR_protein|mol2

> <Gold.PLP.Fitness>
51.7490

> <Gold.PLP.PLP>
-36.1316

> <Gold.PLP.part.hbond>
-3.0000

> <Gold.PLP.part.metal>
0.0000

> <Gold.PLP.part.buried>
-4.9973

> <Gold.PLP.part.nonpolar>
-29.2233

> <Gold.PLP.part.repulsive>
0.1822

> <Gold.PLP.ligand.clash>
0.0000

> <Gold.PLP.ligand.torsion>
1.0967

> <Gold.PLP.Chemscore.Hbond>
3.8640

> <Gold.PLP.Chemscore.CHOScore>
2.0000

> <Gold.PLP.Chemscore.Metal>
0.0000

> <Gold.Chemscore.Hbonds>
donor molecule, donor type, donor heavy atom, donor atom, acceptor molecule, acceptor atom, score
      L1  H     9    31       P1 10175  1.79
      L1  H    12    35       P1 10175  1.00
      P1  H  7989  7998       L1    17  0.93
      L1  C     3    24       P1 10957  1.00
      L1  C    20    46       P1  7921  1.00

> <Gold.PLP.Chemscore.Internal.Correction>
0.2188

> <Gold.Rescore>
     Score         DG    S(hbond)    S(metal)    S(lipo)     H(rot)  DE(clash)    DE(int)     intcor
     14.89     -17.03       2.53        0.00      84.14       2.63       0.19       1.95       ----

> <Gold.Chemscore.Fitness>
14.8913

> <Gold.Chemscore.DG>
-17.0345

> <Gold.Chemscore.ZeroCoef>
-5.4800

> <Gold.Chemscore.Hbond>
2.5256

> <Gold.Chemscore.Metal>
0.0000

> <Gold.Chemscore.Lipo>
84.1369

> <Gold.Chemscore.Internal_Hbond>
0.0000

> <Gold.Chemscore.DEClash>
0.1887

> <Gold.Chemscore.DEInternal>
1.9544

> <Gold.Chemscore.Rot>
2.6270

> <Gold.Chemscore.Internal.Correction>
   9.000000E+99

> <Gold.Chemscore.Hbonds>
donor molecule, donor type, donor heavy atom, donor atom, acceptor molecule, acceptor atom, score
      L1  H     9    31       P1 10175  0.88
      L1  H    12    35       P1 10175  0.52
      P1  H  7989  7998       L1    17  0.25

> <Gold.Chemscore.Hbond.Weighted>
-8.4356

> <Gold.Chemscore.Metal.Weighted>
-0.0000

> <Gold.Chemscore.Lipo.Weighted>
-9.8440

> <Gold.Chemscore.Internal_Hbond.Weighted>
0.0000

> <Gold.Chemscore.DEClash.Weighted>
0.1887

> <Gold.Chemscore.DEInternal.Weighted>
1.9544

> <Gold.Chemscore.Rot.Weighted>
6.7251

> <Gold.Chemscore.Internal.Correction.Weighted>
   9.000000E+99

> <Gold.Protein.RotatedTorsions>
[ 6907 6896 6895 6894 ] final   37.19 input  -60.11 | X-H torsion
[ 7974 7965 7964 7962 ] final   72.82 input  175.53 | X-H torsion
[ 8008 7997 7996 7995 ] final   51.91 input   59.86 | X-H torsion
[ 10167 10162 10161 10158 ] final   60.97 input  -65.29 | X-H torsion
[ 10718 10713 10712 10709 ] final  -40.34 input   66.30 | X-H torsion
[ 10763 10752 10751 10750 ] final  -70.46 input  -60.55 | X-H torsion
[ 11005 11000 10999 10996 ] final   47.46 input  -57.11 | X-H torsion

> <Gold.Protein.ActiveResidues>
 VAL166  LYS551  ARG553  GLY616  TRP617  ASP618  TYR619  PRO620  LYS621  CYS622 
 ASP623  PHE694  ASN695  SER759  ASP760  ASP761  ALA762  ILE779  LEU786  VAL792 
 PHE793  MET794  SER795  GLU796  ALA797  LYS798  CYS799  TRP800  GLU811  SER814 

> <Gold.Protein.RotatedAtoms>
  152.1398  134.9071  160.0554 H   0  0  0  0  0  0  0  0  0  0  0  0  # atno 6907 bound_to 6896
  152.0144  133.3869  159.4241 H   0  0  0  0  0  0  0  0  0  0  0  0  # atno 6908 bound_to 6896
  150.6864  134.3617  159.4997 H   0  0  0  0  0  0  0  0  0  0  0  0  # atno 6909 bound_to 6896
  145.7486  139.2750  143.1444 H   0  0  0  0  0  0  0  0  0  0  0  0  # atno 7974 bound_to 7965
  155.4431  140.3455  155.4292 H   0  0  0  0  0  0  0  0  0  0  0  0  # atno 8008 bound_to 7997
  156.1266  140.1502  156.9157 H   0  0  0  0  0  0  0  0  0  0  0  0  # atno 8009 bound_to 7997
  154.4863  140.0854  156.7473 H   0  0  0  0  0  0  0  0  0  0  0  0  # atno 8010 bound_to 7997
  140.1598  144.4381  150.6715 H   0  0  0  0  0  0  0  0  0  0  0  0  # atno 10167 bound_to 10162
  156.2824  130.4218  149.8323 H   0  0  0  0  0  0  0  0  0  0  0  0  # atno 10718 bound_to 10713
  154.4180  135.5993  153.5992 H   0  0  0  0  0  0  0  0  0  0  0  0  # atno 10763 bound_to 10752
  152.9792  135.5945  154.3989 H   0  0  0  0  0  0  0  0  0  0  0  0  # atno 10764 bound_to 10752
  154.3811  135.2841  155.2189 H   0  0  0  0  0  0  0  0  0  0  0  0  # atno 10765 bound_to 10752
  140.1277  134.4746  155.8546 H   0  0  0  0  0  0  0  0  0  0  0  0  # atno 11005 bound_to 11000
  146.0379  140.8194  142.9843 LP  0  0  0  0  0  0  0  0  0  0  0  0  # atno 17320 bound_to 7965
  144.6854  140.2865  143.7284 LP  0  0  0  0  0  0  0  0  0  0  0  0  # atno 17321 bound_to 7965
  140.6650  143.2265  151.5764 LP  0  0  0  0  0  0  0  0  0  0  0  0  # atno 17342 bound_to 10162
  139.5386  144.2710  152.1305 LP  0  0  0  0  0  0  0  0  0  0  0  0  # atno 17343 bound_to 10162
  156.5766  130.8447  151.3371 LP  0  0  0  0  0  0  0  0  0  0  0  0  # atno 17370 bound_to 10713
  157.7318  130.9706  150.1898 LP  0  0  0  0  0  0  0  0  0  0  0  0  # atno 17371 bound_to 10713
  141.2164  133.6784  156.7010 LP  0  0  0  0  0  0  0  0  0  0  0  0  # atno 17394 bound_to 11000
  140.2882  134.8262  157.3993 LP  0  0  0  0  0  0  0  0  0  0  0  0  # atno 17395 bound_to 11000

$$$$
