AV-unprocessed.smi:2275|AV-procd|sdf|9170|dock1
  -GOLD-   2272012383D 1   1.00000     0.00000
 Structure written by MMmdl.
 38 39  0  0  0  0  0  0  0  0  1 V2000
  152.5929  143.2686  161.6531 C   0  0  0  0  0  0  0  0  0  0  0  0
  152.3129  142.7176  160.2661 C   0  0  0  0  0  0  0  0  0  0  0  0
  151.5951  143.5626  159.4146 N   0  0  0  0  0  0  0  0  0  0  0  0
  151.3041  143.1745  158.2161 C   0  0  0  0  0  0  0  0  0  0  0  0
  151.6927  141.9140  157.7343 N   0  0  0  0  0  0  0  0  0  0  0  0
  151.2943  141.5929  156.3538 C   0  0  0  0  0  0  0  0  0  0  0  0
  149.9152  140.8992  156.2881 C   0  0  2  0  0  0  0  0  0  0  0  0
  149.8758  139.7903  157.1641 O   0  0  0  0  0  0  0  0  0  0  0  0
  149.5611  140.3961  154.8780 C   0  0  0  0  0  0  0  0  0  0  0  0
  149.1294  141.4827  154.0671 O   0  0  0  0  0  0  0  0  0  0  0  0
  147.8983  142.0450  154.3280 C   0  0  0  0  0  0  0  0  0  0  0  0
  147.4305  143.0114  153.4134 C   0  0  0  0  0  0  0  0  0  0  0  0
  146.1833  143.6377  153.6003 C   0  0  0  0  0  0  0  0  0  0  0  0
  145.3869  143.3011  154.7104 C   0  0  0  0  0  0  0  0  0  0  0  0
  145.8414  142.3396  155.6319 C   0  0  0  0  0  0  0  0  0  0  0  0
  147.0895  141.7138  155.4450 C   0  0  0  0  0  0  0  0  0  0  0  0
  152.4088  141.0347  158.4932 C   0  0  0  0  0  0  0  0  0  0  0  0
  152.7635  139.9397  158.0522 O   0  0  0  0  0  0  0  0  0  0  0  0
  152.7243  141.4860  159.8581 C   0  0  0  0  0  0  0  0  0  0  0  0
  153.5066  140.5224  160.7418 C   0  0  0  0  0  0  0  0  0  0  0  0
  152.1327  142.6379  162.4142 H   0  0  0  0  0  0  0  0  0  0  0  0
  152.1936  144.2772  161.7682 H   0  0  0  0  0  0  0  0  0  0  0  0
  153.6665  143.3124  161.8378 H   0  0  0  0  0  0  0  0  0  0  0  0
  150.7489  143.7966  157.5119 H   0  0  0  0  0  0  0  0  0  0  0  0
  151.2556  142.5226  155.7827 H   0  0  0  0  0  0  0  0  0  0  0  0
  152.0479  140.9939  155.8379 H   0  0  0  0  0  0  0  0  0  0  0  0
  149.1291  141.5875  156.6011 H   0  0  0  0  0  0  0  0  0  0  0  0
  149.0114  139.4104  157.1310 H   0  0  0  0  0  0  0  0  0  0  0  0
  150.4156  139.8849  154.4307 H   0  0  0  0  0  0  0  0  0  0  0  0
  148.7488  139.6723  154.9603 H   0  0  0  0  0  0  0  0  0  0  0  0
  148.0350  143.2748  152.5579 H   0  0  0  0  0  0  0  0  0  0  0  0
  145.8381  144.3757  152.8915 H   0  0  0  0  0  0  0  0  0  0  0  0
  144.4297  143.7803  154.8547 H   0  0  0  0  0  0  0  0  0  0  0  0
  145.2316  142.0804  156.4849 H   0  0  0  0  0  0  0  0  0  0  0  0
  147.4038  140.9823  156.1738 H   0  0  0  0  0  0  0  0  0  0  0  0
  154.4763  140.3038  160.2936 H   0  0  0  0  0  0  0  0  0  0  0  0
  152.9631  139.5830  160.8478 H   0  0  0  0  0  0  0  0  0  0  0  0
  153.6878  140.9088  161.7432 H   0  0  0  0  0  0  0  0  0  0  0  0
  1  2  1  0  0  0  0
  1 21  1  0  0  0  0
  1 22  1  0  0  0  0
  1 23  1  0  0  0  0
  2 19  2  0  0  0  0
  2  3  1  0  0  0  0
  3  4  2  0  0  0  0
  4  5  1  0  0  0  0
  4 24  1  0  0  0  0
  5  6  1  0  0  0  0
  5 17  1  0  0  0  0
  6  7  1  0  0  0  0
  6 25  1  0  0  0  0
  6 26  1  0  0  0  0
  7  8  1  0  0  0  0
  7  9  1  0  0  0  0
  7 27  1  0  0  0  0
  8 28  1  0  0  0  0
  9 10  1  0  0  0  0
  9 29  1  0  0  0  0
  9 30  1  0  0  0  0
 10 11  1  0  0  0  0
 11 16  1  0  0  0  0
 11 12  2  0  0  0  0
 12 13  1  0  0  0  0
 12 31  1  0  0  0  0
 13 14  2  0  0  0  0
 13 32  1  0  0  0  0
 14 15  1  0  0  0  0
 14 33  1  0  0  0  0
 15 16  2  0  0  0  0
 15 34  1  0  0  0  0
 16 35  1  0  0  0  0
 17 18  2  0  0  0  0
 17 19  1  0  0  0  0
 19 20  1  0  0  0  0
 20 36  1  0  0  0  0
 20 37  1  0  0  0  0
 20 38  1  0  0  0  0
M  END
> <s_m_source_file>
AV-unprocessed.smi

> <i_m_source_file_index>
2275

> <i_lp_mmshare_version>
43012

> <i_f3d_flags>
0

> <s_epik_input>
W0NIM11jMW5bY0hdbihjKD1PKWMxW0NIM10pW0NIMl1bQ0BIXShbT0hdKVtDSDJdT2MyW2NIXVtjSF1bY0hdW2NIXVtjSF0y

> <s_epik_cmdline>
J2VwaWtfcHl0aG9uJywgJy1waCcsICc3LjAnLCAnLXRuJywgJzgnLCAnLW1hJywgJzIwMCcsICctbWV0YWxfYmluZGluZycsICctaW1hZScsICc8aW5maWxlLm1hZT4nLCAnLW9tYWUnLCAnPG91dGZpbGUubWFlPic=

> <r_lp_tautomer_probability>
1

> <r_epik_Ionization_Penalty>
4.18311e-05

> <r_epik_Ionization_Penalty_Charging>
1.04093e-07

> <r_epik_Ionization_Penalty_Neutral>
4.1727e-05

> <r_epik_State_Penalty>
-0

> <r_epik_Charging_Adjusted_Penalty>
1.04093e-07

> <i_epik_Tot_Q>
0

> <i_epik_Tot_abs_Q>
0

> <r_epik_Metal_State_Penalty>
-0

> <b_epik_Metal_Only>
0

> <s_lp_Force_Field>
OPLS_2005

> <r_lp_Energy>
24.2901

> <b_lp_Chiralities_Consistent>
1

> <s_lp_Variant>
AV-unprocessed.smi:2275-1

> <Gold.Version>
5.8.1

> <Gold.Id.Protein>
6NUR|6NUR_protein|mol2

> <Gold.PLP.Fitness>
46.6853

> <Gold.PLP.PLP>
-40.6780

> <Gold.PLP.part.hbond>
-2.0000

> <Gold.PLP.part.metal>
0.0000

> <Gold.PLP.part.buried>
-5.4150

> <Gold.PLP.part.nonpolar>
-31.5612

> <Gold.PLP.part.repulsive>
0.2204

> <Gold.PLP.ligand.clash>
0.0000

> <Gold.PLP.ligand.torsion>
0.6623

> <Gold.PLP.Chemscore.Hbond>
1.4184

> <Gold.PLP.Chemscore.CHOScore>
1.0000

> <Gold.PLP.Chemscore.Metal>
0.0000

> <Gold.Chemscore.Hbonds>
donor molecule, donor type, donor heavy atom, donor atom, acceptor molecule, acceptor atom, score
      P1  H  7997  8008       L1    18  0.84
      P1  H  8011  8017       L1    10  0.60
      L1  C     4    24       P1  8028  0.42

> <Gold.PLP.Chemscore.Internal.Correction>
0.0767

> <Gold.Rescore>
     Score         DG    S(hbond)    S(metal)    S(lipo)     H(rot)  DE(clash)    DE(int)     intcor
     12.46     -13.15       0.98        0.00      89.75       2.38       0.06       0.63       ----

> <Gold.Chemscore.Fitness>
12.4576

> <Gold.Chemscore.DG>
-13.1502

> <Gold.Chemscore.ZeroCoef>
-5.4800

> <Gold.Chemscore.Hbond>
0.9787

> <Gold.Chemscore.Metal>
0.0000

> <Gold.Chemscore.Lipo>
89.7510

> <Gold.Chemscore.Internal_Hbond>
0.0000

> <Gold.Chemscore.DEClash>
0.0614

> <Gold.Chemscore.DEInternal>
0.6313

> <Gold.Chemscore.Rot>
2.3826

> <Gold.Chemscore.Internal.Correction>
   9.000000E+99

> <Gold.Chemscore.Hbonds>
donor molecule, donor type, donor heavy atom, donor atom, acceptor molecule, acceptor atom, score
      P1  H  7997  8008       L1    18  0.68
      P1  H  8011  8017       L1    10  0.29

> <Gold.Chemscore.Hbond.Weighted>
-3.2689

> <Gold.Chemscore.Metal.Weighted>
-0.0000

> <Gold.Chemscore.Lipo.Weighted>
-10.5009

> <Gold.Chemscore.Internal_Hbond.Weighted>
0.0000

> <Gold.Chemscore.DEClash.Weighted>
0.0614

> <Gold.Chemscore.DEInternal.Weighted>
0.6313

> <Gold.Chemscore.Rot.Weighted>
6.0996

> <Gold.Chemscore.Internal.Correction.Weighted>
   9.000000E+99

> <Gold.Protein.RotatedTorsions>
[ 6907 6896 6895 6894 ] final   -6.17 input  -60.11 | X-H torsion
[ 7974 7965 7964 7962 ] final  -44.40 input  175.53 | X-H torsion
[ 8008 7997 7996 7995 ] final  -69.04 input   59.86 | X-H torsion
[ 10167 10162 10161 10158 ] final  165.90 input  -65.29 | X-H torsion
[ 10718 10713 10712 10709 ] final  128.63 input   66.30 | X-H torsion
[ 10763 10752 10751 10750 ] final  111.36 input  -60.55 | X-H torsion
[ 11005 11000 10999 10996 ] final   20.43 input  -57.11 | X-H torsion

> <Gold.Protein.ActiveResidues>
 VAL166  LYS551  ARG553  GLY616  TRP617  ASP618  TYR619  PRO620  LYS621  CYS622 
 ASP623  PHE694  ASN695  SER759  ASP760  ASP761  ALA762  ILE779  LEU786  VAL792 
 PHE793  MET794  SER795  GLU796  ALA797  LYS798  CYS799  TRP800  GLU811  SER814 

> <Gold.Protein.RotatedAtoms>
  151.4698  135.1045  159.9748 H   0  0  0  0  0  0  0  0  0  0  0  0  # atno 6907 bound_to 6896
  152.4821  133.8276  159.7096 H   0  0  0  0  0  0  0  0  0  0  0  0  # atno 6908 bound_to 6896
  150.8900  133.7195  159.2934 H   0  0  0  0  0  0  0  0  0  0  0  0  # atno 6909 bound_to 6896
  145.9924  140.7166  142.9310 H   0  0  0  0  0  0  0  0  0  0  0  0  # atno 7974 bound_to 7965
  154.4910  140.0861  156.7595 H   0  0  0  0  0  0  0  0  0  0  0  0  # atno 8008 bound_to 7997
  155.4230  140.3446  155.4255 H   0  0  0  0  0  0  0  0  0  0  0  0  # atno 8009 bound_to 7997
  156.1330  140.1507  156.9025 H   0  0  0  0  0  0  0  0  0  0  0  0  # atno 8010 bound_to 7997
  139.4914  144.4084  151.9329 H   0  0  0  0  0  0  0  0  0  0  0  0  # atno 10167 bound_to 10162
  157.5227  131.1098  150.9129 H   0  0  0  0  0  0  0  0  0  0  0  0  # atno 10718 bound_to 10713
  153.4622  135.3719  155.2344 H   0  0  0  0  0  0  0  0  0  0  0  0  # atno 10763 bound_to 10752
  154.8757  135.3911  154.3912 H   0  0  0  0  0  0  0  0  0  0  0  0  # atno 10764 bound_to 10752
  153.4487  135.7085  153.6187 H   0  0  0  0  0  0  0  0  0  0  0  0  # atno 10765 bound_to 10752
  140.4027  134.1701  155.7664 H   0  0  0  0  0  0  0  0  0  0  0  0  # atno 11005 bound_to 11000
  144.6893  140.3092  143.7251 LP  0  0  0  0  0  0  0  0  0  0  0  0  # atno 17320 bound_to 7965
  145.7610  139.1825  143.2267 LP  0  0  0  0  0  0  0  0  0  0  0  0  # atno 17321 bound_to 7965
  140.3524  144.3072  150.5947 LP  0  0  0  0  0  0  0  0  0  0  0  0  # atno 17342 bound_to 10162
  140.5473  143.2212  151.7985 LP  0  0  0  0  0  0  0  0  0  0  0  0  # atno 17343 bound_to 10162
  156.9734  130.5499  149.5292 LP  0  0  0  0  0  0  0  0  0  0  0  0  # atno 17370 bound_to 10713
  156.0365  130.5452  150.8666 LP  0  0  0  0  0  0  0  0  0  0  0  0  # atno 17371 bound_to 10713
  141.1850  133.8331  157.1118 LP  0  0  0  0  0  0  0  0  0  0  0  0  # atno 17394 bound_to 11000
  140.0324  134.9894  157.0806 LP  0  0  0  0  0  0  0  0  0  0  0  0  # atno 17395 bound_to 11000

$$$$
