AV-unprocessed.smi:607|AV-procd|sdf|3043|dock5
  -GOLD-   2262023563D 1   1.00000     0.00000
 Structure written by MMmdl.
 42 43  0  0  0  0  0  0  0  0  1 V2000
  151.8706  144.7128  157.9314 C   0  0  0  0  0  0  0  0  0  0  0  0
  152.1797  143.3702  158.5301 C   0  0  0  0  0  0  0  0  0  0  0  0
  152.8771  143.3095  159.6511 N   0  0  0  0  0  0  0  0  0  0  0  0
  152.9759  141.9940  159.9232 N   0  0  0  0  0  0  0  0  0  0  0  0
  153.6944  141.5663  161.1080 C   0  0  0  0  0  0  0  0  0  0  0  0
  152.3363  141.2200  158.9745 C   0  0  0  0  0  0  0  0  0  0  0  0
  152.3066  139.7271  159.0738 C   0  0  0  0  0  0  0  0  0  0  0  0
  151.8052  142.0813  158.0462 C   0  0  0  0  0  0  0  0  0  0  0  0
  150.9975  141.7879  156.7972 C   0  0  1  0  0  0  0  0  0  0  0  0
  151.6696  140.7129  155.9221 C   0  0  0  0  0  0  0  0  0  0  0  0
  149.5491  141.4429  157.1814 C   0  0  0  0  0  0  0  0  0  0  0  0
  149.1879  141.4501  158.3584 O   0  0  0  0  0  0  0  0  0  0  0  0
  148.7245  141.1446  156.1632 N   0  0  0  0  0  0  0  0  0  0  0  0
  147.2924  140.8522  156.2526 C   0  0  0  0  0  0  0  0  0  0  0  0
  147.0165  139.9135  157.3568 C   0  0  0  0  0  0  0  0  0  0  0  0
  146.7998  139.1782  158.2236 N   0  0  0  0  0  0  0  0  0  0  0  0
  146.5351  142.1729  156.4554 C   0  0  0  0  0  0  0  0  0  0  0  0
  146.2905  142.7555  155.0566 C   0  0  0  0  0  0  0  0  0  0  0  0
  146.5096  141.6077  154.0627 C   0  0  0  0  0  0  0  0  0  0  0  0
  146.7361  140.3517  154.9087 C   0  0  0  0  0  0  0  0  0  0  0  0
  150.8038  144.9285  157.9926 H   0  0  0  0  0  0  0  0  0  0  0  0
  152.1573  144.7462  156.8804 H   0  0  0  0  0  0  0  0  0  0  0  0
  152.4015  145.5169  158.4426 H   0  0  0  0  0  0  0  0  0  0  0  0
  153.0128  141.0471  161.7822 H   0  0  0  0  0  0  0  0  0  0  0  0
  154.1221  142.4232  161.6308 H   0  0  0  0  0  0  0  0  0  0  0  0
  154.5004  140.8894  160.8235 H   0  0  0  0  0  0  0  0  0  0  0  0
  151.6094  139.2888  158.3611 H   0  0  0  0  0  0  0  0  0  0  0  0
  151.9963  139.4090  160.0693 H   0  0  0  0  0  0  0  0  0  0  0  0
  153.2937  139.3086  158.8765 H   0  0  0  0  0  0  0  0  0  0  0  0
  150.9293  142.6863  156.1828 H   0  0  0  0  0  0  0  0  0  0  0  0
  151.7819  139.7654  156.4489 H   0  0  0  0  0  0  0  0  0  0  0  0
  152.6638  141.0353  155.6115 H   0  0  0  0  0  0  0  0  0  0  0  0
  151.0932  140.5218  155.0160 H   0  0  0  0  0  0  0  0  0  0  0  0
  149.1166  141.1640  155.2329 H   0  0  0  0  0  0  0  0  0  0  0  0
  145.5696  141.9682  156.9211 H   0  0  0  0  0  0  0  0  0  0  0  0
  147.0598  142.8693  157.1110 H   0  0  0  0  0  0  0  0  0  0  0  0
  145.2845  143.1687  154.9782 H   0  0  0  0  0  0  0  0  0  0  0  0
  146.9918  143.5650  154.8512 H   0  0  0  0  0  0  0  0  0  0  0  0
  145.6702  141.4886  153.3769 H   0  0  0  0  0  0  0  0  0  0  0  0
  147.3966  141.8098  153.4611 H   0  0  0  0  0  0  0  0  0  0  0  0
  147.3763  139.6242  154.4092 H   0  0  0  0  0  0  0  0  0  0  0  0
  145.7750  139.8637  155.0773 H   0  0  0  0  0  0  0  0  0  0  0  0
  1  2  1  0  0  0  0
  1 21  1  0  0  0  0
  1 22  1  0  0  0  0
  1 23  1  0  0  0  0
  2  8  1  0  0  0  0
  2  3  2  0  0  0  0
  3  4  1  0  0  0  0
  4  5  1  0  0  0  0
  4  6  1  0  0  0  0
  5 24  1  0  0  0  0
  5 25  1  0  0  0  0
  5 26  1  0  0  0  0
  6  7  1  0  0  0  0
  6  8  2  0  0  0  0
  7 27  1  0  0  0  0
  7 28  1  0  0  0  0
  7 29  1  0  0  0  0
  8  9  1  0  0  0  0
  9 10  1  0  0  0  0
  9 11  1  0  0  0  0
  9 30  1  0  0  0  0
 10 31  1  0  0  0  0
 10 32  1  0  0  0  0
 10 33  1  0  0  0  0
 11 12  2  0  0  0  0
 11 13  1  0  0  0  0
 13 14  1  0  0  0  0
 13 34  1  0  0  0  0
 14 20  1  0  0  0  0
 14 15  1  0  0  0  0
 14 17  1  0  0  0  0
 15 16  3  0  0  0  0
 17 18  1  0  0  0  0
 17 35  1  0  0  0  0
 17 36  1  0  0  0  0
 18 19  1  0  0  0  0
 18 37  1  0  0  0  0
 18 38  1  0  0  0  0
 19 20  1  0  0  0  0
 19 39  1  0  0  0  0
 19 40  1  0  0  0  0
 20 41  1  0  0  0  0
 20 42  1  0  0  0  0
M  END
> <s_m_source_file>
AV-unprocessed.smi

> <i_m_source_file_index>
607

> <i_lp_mmshare_version>
43012

> <i_f3d_flags>
0

> <s_epik_input>
W0NIM11jMW5uKFtDSDNdKWMoW0NIM10pYzFbQ0BIXShbQ0gzXSlDKD1PKVtOSF1DMihDI04pW0NIMl1bQ0gyXVtDSDJdW0NIMl0y

> <s_epik_cmdline>
J2VwaWtfcHl0aG9uJywgJy1waCcsICc3LjAnLCAnLXRuJywgJzgnLCAnLW1hJywgJzIwMCcsICctbWV0YWxfYmluZGluZycsICctaW1hZScsICc8aW5maWxlLm1hZT4nLCAnLW9tYWUnLCAnPG91dGZpbGUubWFlPic=

> <r_lp_tautomer_probability>
1

> <r_epik_Ionization_Penalty>
0.00342632

> <r_epik_Ionization_Penalty_Charging>
0

> <r_epik_Ionization_Penalty_Neutral>
0.00342632

> <r_epik_State_Penalty>
0.00242724

> <r_epik_Charging_Adjusted_Penalty>
0.00242724

> <i_epik_Tot_Q>
0

> <i_epik_Tot_abs_Q>
0

> <r_epik_Metal_State_Penalty>
-0

> <b_epik_Metal_Only>
0

> <s_lp_Force_Field>
OPLS_2005

> <r_lp_Energy>
13.7926

> <b_lp_Chiralities_Consistent>
1

> <s_lp_Variant>
AV-unprocessed.smi:607-2

> <Gold.Version>
5.8.1

> <Gold.Id.Protein>
6NUR|6NUR_protein|mol2

> <Gold.PLP.Fitness>
36.4088

> <Gold.PLP.PLP>
-37.5088

> <Gold.PLP.part.hbond>
-1.0000

> <Gold.PLP.part.metal>
0.0000

> <Gold.PLP.part.buried>
-5.3995

> <Gold.PLP.part.nonpolar>
-30.4505

> <Gold.PLP.part.repulsive>
0.0723

> <Gold.PLP.ligand.clash>
0.0000

> <Gold.PLP.ligand.torsion>
0.6078

> <Gold.PLP.Chemscore.Hbond>
0.0000

> <Gold.PLP.Chemscore.CHOScore>
0.0000

> <Gold.PLP.Chemscore.Metal>
0.0000

> <Gold.PLP.Chemscore.Internal.Correction>
0.1156

> <Gold.Rescore>
     Score         DG    S(hbond)    S(metal)    S(lipo)     H(rot)  DE(clash)    DE(int)     intcor
     11.43     -13.47       0.00        0.00      98.35       1.37       0.23       1.81       ----

> <Gold.Chemscore.Fitness>
11.4336

> <Gold.Chemscore.DG>
-13.4748

> <Gold.Chemscore.ZeroCoef>
-5.4800

> <Gold.Chemscore.Hbond>
0.0000

> <Gold.Chemscore.Metal>
0.0000

> <Gold.Chemscore.Lipo>
98.3512

> <Gold.Chemscore.Internal_Hbond>
0.0000

> <Gold.Chemscore.DEClash>
0.2343

> <Gold.Chemscore.DEInternal>
1.8069

> <Gold.Chemscore.Rot>
1.3720

> <Gold.Chemscore.Internal.Correction>
   9.000000E+99

> <Gold.Chemscore.Hbond.Weighted>
-0.0000

> <Gold.Chemscore.Metal.Weighted>
-0.0000

> <Gold.Chemscore.Lipo.Weighted>
-11.5071

> <Gold.Chemscore.Internal_Hbond.Weighted>
0.0000

> <Gold.Chemscore.DEClash.Weighted>
0.2343

> <Gold.Chemscore.DEInternal.Weighted>
1.8069

> <Gold.Chemscore.Rot.Weighted>
3.5123

> <Gold.Chemscore.Internal.Correction.Weighted>
   9.000000E+99

> <Gold.Protein.RotatedTorsions>
[ 6907 6896 6895 6894 ] final  135.79 input  -60.11 | X-H torsion
[ 7974 7965 7964 7962 ] final  -38.84 input  175.53 | X-H torsion
[ 8008 7997 7996 7995 ] final   29.21 input   59.86 | X-H torsion
[ 10167 10162 10161 10158 ] final  -38.45 input  -65.29 | X-H torsion
[ 10718 10713 10712 10709 ] final  -28.50 input   66.30 | X-H torsion
[ 10763 10752 10751 10750 ] final  140.55 input  -60.55 | X-H torsion
[ 11005 11000 10999 10996 ] final   90.10 input  -57.11 | X-H torsion

> <Gold.Protein.ActiveResidues>
 VAL166  LYS551  ARG553  GLY616  TRP617  ASP618  TYR619  PRO620  LYS621  CYS622 
 ASP623  PHE694  ASN695  SER759  ASP760  ASP761  ALA762  ILE779  LEU786  VAL792 
 PHE793  MET794  SER795  GLU796  ALA797  LYS798  CYS799  TRP800  GLU811  SER814 

> <Gold.Protein.RotatedAtoms>
  152.2966  133.5613  159.5590 H   0  0  0  0  0  0  0  0  0  0  0  0  # atno 6907 bound_to 6896
  150.7258  134.0353  159.3756 H   0  0  0  0  0  0  0  0  0  0  0  0  # atno 6908 bound_to 6896
  151.8255  135.0638  160.0481 H   0  0  0  0  0  0  0  0  0  0  0  0  # atno 6909 bound_to 6896
  146.0450  140.6558  142.9069 H   0  0  0  0  0  0  0  0  0  0  0  0  # atno 7974 bound_to 7965
  155.0710  140.3200  155.4630 H   0  0  0  0  0  0  0  0  0  0  0  0  # atno 8008 bound_to 7997
  156.2790  140.2112  156.5782 H   0  0  0  0  0  0  0  0  0  0  0  0  # atno 8009 bound_to 7997
  154.7055  140.0503  157.0487 H   0  0  0  0  0  0  0  0  0  0  0  0  # atno 8010 bound_to 7997
  140.7092  143.3276  151.2643 H   0  0  0  0  0  0  0  0  0  0  0  0  # atno 10167 bound_to 10162
  156.4244  130.4432  149.7161 H   0  0  0  0  0  0  0  0  0  0  0  0  # atno 10718 bound_to 10713
  153.9245  135.2997  155.3447 H   0  0  0  0  0  0  0  0  0  0  0  0  # atno 10763 bound_to 10752
  154.7558  135.4958  153.9376 H   0  0  0  0  0  0  0  0  0  0  0  0  # atno 10764 bound_to 10752
  153.1124  135.6762  153.9581 H   0  0  0  0  0  0  0  0  0  0  0  0  # atno 10765 bound_to 10752
  139.8862  134.8593  156.3237 H   0  0  0  0  0  0  0  0  0  0  0  0  # atno 11005 bound_to 11000
  144.7093  140.3977  143.7093 LP  0  0  0  0  0  0  0  0  0  0  0  0  # atno 17320 bound_to 7965
  145.6821  139.1620  143.2695 LP  0  0  0  0  0  0  0  0  0  0  0  0  # atno 17321 bound_to 7965
  139.6749  143.9955  152.2775 LP  0  0  0  0  0  0  0  0  0  0  0  0  # atno 17342 bound_to 10162
  139.9566  144.6586  150.8120 LP  0  0  0  0  0  0  0  0  0  0  0  0  # atno 17343 bound_to 10162
  156.4089  130.7712  151.2724 LP  0  0  0  0  0  0  0  0  0  0  0  0  # atno 17370 bound_to 10713
  157.7508  131.0217  150.3762 LP  0  0  0  0  0  0  0  0  0  0  0  0  # atno 17371 bound_to 10713
  140.9770  133.7291  156.0616 LP  0  0  0  0  0  0  0  0  0  0  0  0  # atno 17394 bound_to 11000
  140.7799  134.3737  157.5489 LP  0  0  0  0  0  0  0  0  0  0  0  0  # atno 17395 bound_to 11000

$$$$
