AV-unprocessed.smi:725|AV-procd|sdf|3508|dock2
  -GOLD-   22720 0503D 1   1.00000     0.00000
 Structure written by MMmdl.
 47 48  0  0  0  0  0  0  0  0  1 V2000
  152.4866  142.9386  161.7724 C   0  0  0  0  0  0  0  0  0  0  0  0
  152.4685  142.0317  160.5370 C   0  0  0  0  0  0  0  0  0  0  0  0
  152.7504  142.8082  159.2359 C   0  0  0  0  0  0  0  0  0  0  0  0
  151.7172  143.9062  158.8733 C   0  0  1  0  0  0  0  0  0  0  0  0
  151.8970  145.1869  159.7131 C   0  0  0  0  0  0  0  0  0  0  0  0
  151.9087  144.2608  157.5175 O   0  0  0  0  0  0  0  0  0  0  0  0
  150.2695  143.3632  158.9623 C   0  0  0  0  0  0  0  0  0  0  0  0
  149.8200  142.7302  157.7251 N   0  0  0  0  0  0  0  0  0  0  0  0
  150.1943  141.5174  157.2875 C   0  0  0  0  0  0  0  0  0  0  0  0
  150.9601  140.7769  157.9049 O   0  0  0  0  0  0  0  0  0  0  0  0
  149.5805  141.0952  155.9782 C   0  0  0  0  0  0  0  0  0  0  0  0
  148.5898  141.9112  155.3837 C   0  0  0  0  0  0  0  0  0  0  0  0
  148.0476  141.5505  154.1378 C   0  0  0  0  0  0  0  0  0  0  0  0
  148.5234  140.3819  153.5198 C   0  0  0  0  0  0  0  0  0  0  0  0
  149.4683  139.5916  154.0670 N   0  0  0  0  0  0  0  0  0  0  0  0
  149.9961  139.9277  155.2707 C   0  0  0  0  0  0  0  0  0  0  0  0
  150.9483  139.0391  155.8095 N   0  0  0  0  0  0  0  0  0  0  0  0
  152.1288  138.7444  155.0042 C   0  0  0  0  0  0  0  0  0  0  0  0
  153.1562  137.9734  155.8501 C   0  0  0  0  0  0  0  0  0  0  0  0
  152.5513  136.7984  156.3833 O   0  0  0  0  0  0  0  0  0  0  0  0
  151.4435  137.1005  157.2272 C   0  0  0  0  0  0  0  0  0  0  0  0
  150.3685  137.8501  156.4220 C   0  0  0  0  0  0  0  0  0  0  0  0
  152.2888  142.3650  162.6781 H   0  0  0  0  0  0  0  0  0  0  0  0
  151.7271  143.7175  161.7004 H   0  0  0  0  0  0  0  0  0  0  0  0
  153.4557  143.4237  161.8909 H   0  0  0  0  0  0  0  0  0  0  0  0
  153.2104  141.2449  160.6731 H   0  0  0  0  0  0  0  0  0  0  0  0
  151.4986  141.5373  160.4770 H   0  0  0  0  0  0  0  0  0  0  0  0
  153.7388  143.2648  159.3101 H   0  0  0  0  0  0  0  0  0  0  0  0
  152.8172  142.0892  158.4186 H   0  0  0  0  0  0  0  0  0  0  0  0
  151.8546  144.9722  160.7811 H   0  0  0  0  0  0  0  0  0  0  0  0
  151.1160  145.9156  159.4930 H   0  0  0  0  0  0  0  0  0  0  0  0
  152.8525  145.6731  159.5155 H   0  0  0  0  0  0  0  0  0  0  0  0
  151.4245  143.6550  156.9773 H   0  0  0  0  0  0  0  0  0  0  0  0
  150.1697  142.6740  159.8031 H   0  0  0  0  0  0  0  0  0  0  0  0
  149.5806  144.1828  159.1703 H   0  0  0  0  0  0  0  0  0  0  0  0
  149.1759  143.2584  157.1548 H   0  0  0  0  0  0  0  0  0  0  0  0
  148.2505  142.8158  155.8679 H   0  0  0  0  0  0  0  0  0  0  0  0
  147.2914  142.1591  153.6643 H   0  0  0  0  0  0  0  0  0  0  0  0
  148.1355  140.0726  152.5605 H   0  0  0  0  0  0  0  0  0  0  0  0
  151.8445  138.1480  154.1361 H   0  0  0  0  0  0  0  0  0  0  0  0
  152.5679  139.6718  154.6345 H   0  0  0  0  0  0  0  0  0  0  0  0
  154.0100  137.6874  155.2361 H   0  0  0  0  0  0  0  0  0  0  0  0
  153.5395  138.5969  156.6596 H   0  0  0  0  0  0  0  0  0  0  0  0
  151.0359  136.1716  157.6257 H   0  0  0  0  0  0  0  0  0  0  0  0
  151.7739  137.6958  158.0799 H   0  0  0  0  0  0  0  0  0  0  0  0
  149.5351  138.1150  157.0728 H   0  0  0  0  0  0  0  0  0  0  0  0
  149.9688  137.2045  155.6390 H   0  0  0  0  0  0  0  0  0  0  0  0
  1  2  1  0  0  0  0
  1 23  1  0  0  0  0
  1 24  1  0  0  0  0
  1 25  1  0  0  0  0
  2  3  1  0  0  0  0
  2 26  1  0  0  0  0
  2 27  1  0  0  0  0
  3  4  1  0  0  0  0
  3 28  1  0  0  0  0
  3 29  1  0  0  0  0
  4  5  1  0  0  0  0
  4  6  1  0  0  0  0
  4  7  1  0  0  0  0
  5 30  1  0  0  0  0
  5 31  1  0  0  0  0
  5 32  1  0  0  0  0
  6 33  1  0  0  0  0
  7  8  1  0  0  0  0
  7 34  1  0  0  0  0
  7 35  1  0  0  0  0
  8  9  1  0  0  0  0
  8 36  1  0  0  0  0
  9 10  2  0  0  0  0
  9 11  1  0  0  0  0
 11 16  1  0  0  0  0
 11 12  2  0  0  0  0
 12 13  1  0  0  0  0
 12 37  1  0  0  0  0
 13 14  2  0  0  0  0
 13 38  1  0  0  0  0
 14 15  1  0  0  0  0
 14 39  1  0  0  0  0
 15 16  2  0  0  0  0
 16 17  1  0  0  0  0
 17 22  1  0  0  0  0
 17 18  1  0  0  0  0
 18 19  1  0  0  0  0
 18 40  1  0  0  0  0
 18 41  1  0  0  0  0
 19 20  1  0  0  0  0
 19 42  1  0  0  0  0
 19 43  1  0  0  0  0
 20 21  1  0  0  0  0
 21 22  1  0  0  0  0
 21 44  1  0  0  0  0
 21 45  1  0  0  0  0
 22 46  1  0  0  0  0
 22 47  1  0  0  0  0
M  END
> <s_m_source_file>
AV-unprocessed.smi

> <i_m_source_file_index>
725

> <i_lp_mmshare_version>
43012

> <i_f3d_flags>
0

> <s_epik_input>
W0NIM11bQ0gyXVtDSDJdW0NAQF0oW0NIM10pKFtPSF0pW0NIMl1bTkhdQyg9TyljMVtjSF1bY0hdW2NIXW5jMU4yW0NIMl1bQ0gyXU9bQ0gyXVtDSDJdMg==

> <s_epik_cmdline>
J2VwaWtfcHl0aG9uJywgJy1waCcsICc3LjAnLCAnLXRuJywgJzgnLCAnLW1hJywgJzIwMCcsICctbWV0YWxfYmluZGluZycsICctaW1hZScsICc8aW5maWxlLm1hZT4nLCAnLW9tYWUnLCAnPG91dGZpbGUubWFlPic=

> <r_lp_tautomer_probability>
1

> <r_epik_Ionization_Penalty>
1.23446e-05

> <r_epik_Ionization_Penalty_Charging>
0

> <r_epik_Ionization_Penalty_Neutral>
1.23446e-05

> <r_epik_State_Penalty>
-0

> <r_epik_Charging_Adjusted_Penalty>
0

> <i_epik_Tot_Q>
0

> <i_epik_Tot_abs_Q>
0

> <r_epik_Metal_State_Penalty>
-0

> <b_epik_Metal_Only>
0

> <s_lp_Force_Field>
OPLS_2005

> <r_lp_Energy>
26.7516

> <b_lp_Chiralities_Consistent>
1

> <s_lp_Variant>
AV-unprocessed.smi:725-1

> <Gold.Version>
5.8.1

> <Gold.Id.Protein>
6NUR|6NUR_protein|mol2

> <Gold.PLP.Fitness>
46.5049

> <Gold.PLP.PLP>
-40.7522

> <Gold.PLP.part.hbond>
-2.0000

> <Gold.PLP.part.metal>
0.0000

> <Gold.PLP.part.buried>
0.4177

> <Gold.PLP.part.nonpolar>
-40.2097

> <Gold.PLP.part.repulsive>
1.2003

> <Gold.PLP.ligand.clash>
0.0000

> <Gold.PLP.ligand.torsion>
1.1413

> <Gold.PLP.Chemscore.Hbond>
1.8880

> <Gold.PLP.Chemscore.CHOScore>
0.6381

> <Gold.PLP.Chemscore.Metal>
0.0000

> <Gold.Chemscore.Hbonds>
donor molecule, donor type, donor heavy atom, donor atom, acceptor molecule, acceptor atom, score
      L1  H     8    36       P1  8028  0.81
      P1  H 10752 10763       L1    20  0.99
      L1  C    14    39       P1  7957  0.62

> <Gold.PLP.Chemscore.Internal.Correction>
0.4570

> <Gold.Rescore>
     Score         DG    S(hbond)    S(metal)    S(lipo)     H(rot)  DE(clash)    DE(int)     intcor
     11.94     -17.96       1.27        0.00     118.42       2.19       2.13       3.89       ----

> <Gold.Chemscore.Fitness>
11.9436

> <Gold.Chemscore.DG>
-17.9638

> <Gold.Chemscore.ZeroCoef>
-5.4800

> <Gold.Chemscore.Hbond>
1.2706

> <Gold.Chemscore.Metal>
0.0000

> <Gold.Chemscore.Lipo>
118.4163

> <Gold.Chemscore.Internal_Hbond>
0.0000

> <Gold.Chemscore.DEClash>
2.1288

> <Gold.Chemscore.DEInternal>
3.8914

> <Gold.Chemscore.Rot>
2.1933

> <Gold.Chemscore.Internal.Correction>
   9.000000E+99

> <Gold.Chemscore.Hbonds>
donor molecule, donor type, donor heavy atom, donor atom, acceptor molecule, acceptor atom, score
      L1  H     8    36       P1  8028  0.62
      P1  H 10752 10763       L1    20  0.24

> <Gold.Chemscore.Hbond.Weighted>
-4.2440

> <Gold.Chemscore.Metal.Weighted>
-0.0000

> <Gold.Chemscore.Lipo.Weighted>
-13.8547

> <Gold.Chemscore.Internal_Hbond.Weighted>
0.0000

> <Gold.Chemscore.DEClash.Weighted>
2.1288

> <Gold.Chemscore.DEInternal.Weighted>
3.8914

> <Gold.Chemscore.Rot.Weighted>
5.6149

> <Gold.Chemscore.Internal.Correction.Weighted>
   9.000000E+99

> <Gold.Protein.RotatedTorsions>
[ 6907 6896 6895 6894 ] final   31.62 input  -60.11 | X-H torsion
[ 7974 7965 7964 7962 ] final  121.65 input  175.53 | X-H torsion
[ 8008 7997 7996 7995 ] final   56.16 input   59.86 | X-H torsion
[ 10167 10162 10161 10158 ] final   23.03 input  -65.29 | X-H torsion
[ 10718 10713 10712 10709 ] final  113.05 input   66.30 | X-H torsion
[ 10763 10752 10751 10750 ] final  101.35 input  -60.55 | X-H torsion
[ 11005 11000 10999 10996 ] final -157.02 input  -57.11 | X-H torsion

> <Gold.Protein.ActiveResidues>
 VAL166  LYS551  ARG553  GLY616  TRP617  ASP618  TYR619  PRO620  LYS621  CYS622 
 ASP623  PHE694  ASN695  SER759  ASP760  ASP761  ALA762  ILE779  LEU786  VAL792 
 PHE793  MET794  SER795  GLU796  ALA797  LYS798  CYS799  TRP800  GLU811  SER814 

> <Gold.Protein.RotatedAtoms>
  152.0629  134.9583  160.0574 H   0  0  0  0  0  0  0  0  0  0  0  0  # atno 6907 bound_to 6896
  152.0939  133.4210  159.4565 H   0  0  0  0  0  0  0  0  0  0  0  0  # atno 6908 bound_to 6896
  150.6837  134.2758  159.4650 H   0  0  0  0  0  0  0  0  0  0  0  0  # atno 6909 bound_to 6896
  145.1168  139.3415  143.4734 H   0  0  0  0  0  0  0  0  0  0  0  0  # atno 7974 bound_to 7965
  155.5130  140.3477  155.4392 H   0  0  0  0  0  0  0  0  0  0  0  0  # atno 8008 bound_to 7997
  156.0836  140.1393  156.9708 H   0  0  0  0  0  0  0  0  0  0  0  0  # atno 8009 bound_to 7997
  154.4594  140.0941  156.6826 H   0  0  0  0  0  0  0  0  0  0  0  0  # atno 8010 bound_to 7997
  140.5301  143.9856  150.6461 H   0  0  0  0  0  0  0  0  0  0  0  0  # atno 10167 bound_to 10162
  157.6359  131.0977  150.6985 H   0  0  0  0  0  0  0  0  0  0  0  0  # atno 10718 bound_to 10713
  153.3255  135.4048  155.1452 H   0  0  0  0  0  0  0  0  0  0  0  0  # atno 10763 bound_to 10752
  154.8611  135.3598  154.5540 H   0  0  0  0  0  0  0  0  0  0  0  0  # atno 10764 bound_to 10752
  153.5975  135.7072  153.5457 H   0  0  0  0  0  0  0  0  0  0  0  0  # atno 10765 bound_to 10752
  140.6692  134.4265  157.5232 H   0  0  0  0  0  0  0  0  0  0  0  0  # atno 11005 bound_to 11000
  146.3523  140.1111  142.8604 LP  0  0  0  0  0  0  0  0  0  0  0  0  # atno 17320 bound_to 7965
  145.0785  140.9204  143.4840 LP  0  0  0  0  0  0  0  0  0  0  0  0  # atno 17321 bound_to 7965
  140.3228  143.3126  152.0766 LP  0  0  0  0  0  0  0  0  0  0  0  0  # atno 17342 bound_to 10162
  139.4951  144.6562  151.6567 LP  0  0  0  0  0  0  0  0  0  0  0  0  # atno 17343 bound_to 10162
  156.7316  130.4711  149.5498 LP  0  0  0  0  0  0  0  0  0  0  0  0  # atno 17370 bound_to 10713
  156.1598  130.6366  151.0704 LP  0  0  0  0  0  0  0  0  0  0  0  0  # atno 17371 bound_to 10713
  139.8987  134.8608  156.1991 LP  0  0  0  0  0  0  0  0  0  0  0  0  # atno 17394 bound_to 11000
  141.0405  133.6940  156.1589 LP  0  0  0  0  0  0  0  0  0  0  0  0  # atno 17395 bound_to 11000

$$$$
