AV-unprocessed.smi:1310|AV-procd|sdf|5445|dock1
  -GOLD-   22720 5 13D 1   1.00000     0.00000
 Structure written by MMmdl.
 34 35  0  0  0  0  0  0  0  0  1 V2000
  146.3281  138.9705  151.7832 C   0  0  0  0  0  0  0  0  0  0  0  0
  146.8754  138.5506  153.0281 O   0  0  0  0  0  0  0  0  0  0  0  0
  147.5937  139.4660  153.7700 C   0  0  0  0  0  0  0  0  0  0  0  0
  148.6220  138.9950  154.6099 C   0  0  0  0  0  0  0  0  0  0  0  0
  149.3597  139.9217  155.3715 C   0  0  0  0  0  0  0  0  0  0  0  0
  149.0468  141.2987  155.2649 C   0  0  0  0  0  0  0  0  0  0  0  0
  149.6986  142.3414  155.9793 N   0  0  0  0  0  0  0  0  0  0  0  0
  150.7416  142.2810  156.8311 C   0  0  0  0  0  0  0  0  0  0  0  0
  151.3463  141.2556  157.1351 O   0  0  0  0  0  0  0  0  0  0  0  0
  151.0937  143.4715  157.3497 N   0  0  0  0  0  0  0  0  0  0  0  0
  152.1717  143.7648  158.2979 C   0  0  0  0  0  0  0  0  0  0  0  0
  151.9304  143.0407  159.6364 C   0  0  0  0  0  0  0  0  0  0  0  0
  152.1821  144.0794  160.7300 C   0  0  0  0  0  0  0  0  0  0  0  0
  151.7855  145.4036  160.0868 C   0  0  0  0  0  0  0  0  0  0  0  0
  152.2469  145.2690  158.6354 C   0  0  0  0  0  0  0  0  0  0  0  0
  147.9943  141.6643  154.4003 C   0  0  0  0  0  0  0  0  0  0  0  0
  147.2833  140.7816  153.6678 N   0  0  0  0  0  0  0  0  0  0  0  0
  145.8002  138.1361  151.3217 H   0  0  0  0  0  0  0  0  0  0  0  0
  147.1085  139.2912  151.0914 H   0  0  0  0  0  0  0  0  0  0  0  0
  145.6116  139.7821  151.9164 H   0  0  0  0  0  0  0  0  0  0  0  0
  148.8403  137.9390  154.6717 H   0  0  0  0  0  0  0  0  0  0  0  0
  150.1359  139.5498  156.0203 H   0  0  0  0  0  0  0  0  0  0  0  0
  149.3349  143.2672  155.8070 H   0  0  0  0  0  0  0  0  0  0  0  0
  150.5352  144.2640  157.0672 H   0  0  0  0  0  0  0  0  0  0  0  0
  153.1272  143.4342  157.8867 H   0  0  0  0  0  0  0  0  0  0  0  0
  150.8964  142.6984  159.7075 H   0  0  0  0  0  0  0  0  0  0  0  0
  152.5675  142.1633  159.7521 H   0  0  0  0  0  0  0  0  0  0  0  0
  151.6239  143.8713  161.6433 H   0  0  0  0  0  0  0  0  0  0  0  0
  153.2429  144.0981  160.9833 H   0  0  0  0  0  0  0  0  0  0  0  0
  150.7010  145.5164  160.1191 H   0  0  0  0  0  0  0  0  0  0  0  0
  152.2258  146.2654  160.5893 H   0  0  0  0  0  0  0  0  0  0  0  0
  153.2825  145.6020  158.5546 H   0  0  0  0  0  0  0  0  0  0  0  0
  151.6580  145.8964  157.9651 H   0  0  0  0  0  0  0  0  0  0  0  0
  147.7116  142.7013  154.2907 H   0  0  0  0  0  0  0  0  0  0  0  0
  1  2  1  0  0  0  0
  1 18  1  0  0  0  0
  1 19  1  0  0  0  0
  1 20  1  0  0  0  0
  2  3  1  0  0  0  0
  3 17  1  0  0  0  0
  3  4  2  0  0  0  0
  4  5  1  0  0  0  0
  4 21  1  0  0  0  0
  5  6  2  0  0  0  0
  5 22  1  0  0  0  0
  6  7  1  0  0  0  0
  6 16  1  0  0  0  0
  7  8  1  0  0  0  0
  7 23  1  0  0  0  0
  8  9  2  0  0  0  0
  8 10  1  0  0  0  0
 10 11  1  0  0  0  0
 10 24  1  0  0  0  0
 11 15  1  0  0  0  0
 11 12  1  0  0  0  0
 11 25  1  0  0  0  0
 12 13  1  0  0  0  0
 12 26  1  0  0  0  0
 12 27  1  0  0  0  0
 13 14  1  0  0  0  0
 13 28  1  0  0  0  0
 13 29  1  0  0  0  0
 14 15  1  0  0  0  0
 14 30  1  0  0  0  0
 14 31  1  0  0  0  0
 15 32  1  0  0  0  0
 15 33  1  0  0  0  0
 16 17  2  0  0  0  0
 16 34  1  0  0  0  0
M  END
> <s_m_source_file>
AV-unprocessed.smi

> <i_m_source_file_index>
1310

> <i_lp_mmshare_version>
43012

> <i_f3d_flags>
0

> <s_epik_input>
W0NIM11PYzFbY0hdW2NIXWMoW2NIXW4xKVtOSF1DKD1PKVtOSF1bQ0hdMltDSDJdW0NIMl1bQ0gyXVtDSDJdMg==

> <s_epik_cmdline>
J2VwaWtfcHl0aG9uJywgJy1waCcsICc3LjAnLCAnLXRuJywgJzgnLCAnLW1hJywgJzIwMCcsICctbWV0YWxfYmluZGluZycsICctaW1hZScsICc8aW5maWxlLm1hZT4nLCAnLW9tYWUnLCAnPG91dGZpbGUubWFlPic=

> <r_lp_tautomer_probability>
1

> <r_epik_Ionization_Penalty>
0.000100082

> <r_epik_Ionization_Penalty_Charging>
0

> <r_epik_Ionization_Penalty_Neutral>
0.000100082

> <r_epik_State_Penalty>
-0

> <r_epik_Charging_Adjusted_Penalty>
0

> <i_epik_Tot_Q>
0

> <i_epik_Tot_abs_Q>
0

> <r_epik_Metal_State_Penalty>
-0

> <b_epik_Metal_Only>
0

> <s_lp_Force_Field>
OPLS_2005

> <r_lp_Energy>
31.5118

> <b_lp_Chiralities_Consistent>
1

> <s_lp_Variant>
AV-unprocessed.smi:1310-1

> <Gold.Version>
5.8.1

> <Gold.Id.Protein>
6NUR|6NUR_protein|mol2

> <Gold.PLP.Fitness>
45.1354

> <Gold.PLP.PLP>
-39.6556

> <Gold.PLP.part.hbond>
-1.9532

> <Gold.PLP.part.metal>
0.0000

> <Gold.PLP.part.buried>
-2.6963

> <Gold.PLP.part.nonpolar>
-37.0915

> <Gold.PLP.part.repulsive>
0.9155

> <Gold.PLP.ligand.clash>
0.0000

> <Gold.PLP.ligand.torsion>
0.3795

> <Gold.PLP.Chemscore.Hbond>
1.4463

> <Gold.PLP.Chemscore.CHOScore>
0.6298

> <Gold.PLP.Chemscore.Metal>
0.0000

> <Gold.Chemscore.Hbonds>
donor molecule, donor type, donor heavy atom, donor atom, acceptor molecule, acceptor atom, score
      L1  H     7    23       P1  8028  0.99
      L1  H    10    24       P1  8028  0.48
      L1  C    16    34       P1  8028  0.59

> <Gold.PLP.Chemscore.Internal.Correction>
0.0106

> <Gold.Rescore>
     Score         DG    S(hbond)    S(metal)    S(lipo)     H(rot)  DE(clash)    DE(int)     intcor
     17.62     -19.80       1.89        0.00      95.45       1.23       0.66       1.52       ----

> <Gold.Chemscore.Fitness>
17.6203

> <Gold.Chemscore.DG>
-19.7952

> <Gold.Chemscore.ZeroCoef>
-5.4800

> <Gold.Chemscore.Hbond>
1.8861

> <Gold.Chemscore.Metal>
0.0000

> <Gold.Chemscore.Lipo>
95.4544

> <Gold.Chemscore.Internal_Hbond>
0.0000

> <Gold.Chemscore.DEClash>
0.6557

> <Gold.Chemscore.DEInternal>
1.5191

> <Gold.Chemscore.Rot>
1.2315

> <Gold.Chemscore.Internal.Correction>
   9.000000E+99

> <Gold.Chemscore.Hbonds>
donor molecule, donor type, donor heavy atom, donor atom, acceptor molecule, acceptor atom, score
      L1  H     7    23       P1  8028  0.92
      L1  H    10    24       P1  8028  0.45

> <Gold.Chemscore.Hbond.Weighted>
-6.2995

> <Gold.Chemscore.Metal.Weighted>
-0.0000

> <Gold.Chemscore.Lipo.Weighted>
-11.1682

> <Gold.Chemscore.Internal_Hbond.Weighted>
0.0000

> <Gold.Chemscore.DEClash.Weighted>
0.6557

> <Gold.Chemscore.DEInternal.Weighted>
1.5191

> <Gold.Chemscore.Rot.Weighted>
3.1526

> <Gold.Chemscore.Internal.Correction.Weighted>
   9.000000E+99

> <Gold.Protein.RotatedTorsions>
[ 6907 6896 6895 6894 ] final   23.14 input  -60.11 | X-H torsion
[ 7974 7965 7964 7962 ] final   96.59 input  175.53 | X-H torsion
[ 8008 7997 7996 7995 ] final -135.01 input   59.86 | X-H torsion
[ 10167 10162 10161 10158 ] final   98.51 input  -65.29 | X-H torsion
[ 10718 10713 10712 10709 ] final  123.63 input   66.30 | X-H torsion
[ 10763 10752 10751 10750 ] final   52.80 input  -60.55 | X-H torsion
[ 11005 11000 10999 10996 ] final -142.32 input  -57.11 | X-H torsion

> <Gold.Protein.ActiveResidues>
 VAL166  LYS551  ARG553  GLY616  TRP617  ASP618  TYR619  PRO620  LYS621  CYS622 
 ASP623  PHE694  ASN695  SER759  ASP760  ASP761  ALA762  ILE779  LEU786  VAL792 
 PHE793  MET794  SER795  GLU796  ALA797  LYS798  CYS799  TRP800  GLU811  SER814 

> <Gold.Protein.RotatedAtoms>
  151.9379  135.0227  160.0533 H   0  0  0  0  0  0  0  0  0  0  0  0  # atno 6907 bound_to 6896
  152.2062  133.4873  159.5093 H   0  0  0  0  0  0  0  0  0  0  0  0  # atno 6908 bound_to 6896
  150.6965  134.1443  159.4159 H   0  0  0  0  0  0  0  0  0  0  0  0  # atno 6909 bound_to 6896
  145.4368  139.2305  143.3114 H   0  0  0  0  0  0  0  0  0  0  0  0  # atno 7974 bound_to 7965
  155.3716  140.0488  157.3045 H   0  0  0  0  0  0  0  0  0  0  0  0  # atno 8008 bound_to 7997
  154.5127  140.2197  155.9088 H   0  0  0  0  0  0  0  0  0  0  0  0  # atno 8009 bound_to 7997
  156.1601  140.3118  155.8798 H   0  0  0  0  0  0  0  0  0  0  0  0  # atno 8010 bound_to 7997
  139.7702  144.6925  151.0167 H   0  0  0  0  0  0  0  0  0  0  0  0  # atno 10167 bound_to 10162
  157.5649  131.1087  150.8472 H   0  0  0  0  0  0  0  0  0  0  0  0  # atno 10718 bound_to 10713
  152.9791  135.5800  154.4637 H   0  0  0  0  0  0  0  0  0  0  0  0  # atno 10763 bound_to 10752
  154.4210  135.2771  155.1977 H   0  0  0  0  0  0  0  0  0  0  0  0  # atno 10764 bound_to 10752
  154.3727  135.6164  153.5802 H   0  0  0  0  0  0  0  0  0  0  0  0  # atno 10765 bound_to 10752
  140.8236  134.2601  157.4889 H   0  0  0  0  0  0  0  0  0  0  0  0  # atno 11005 bound_to 11000
  146.2578  140.5112  142.8866 LP  0  0  0  0  0  0  0  0  0  0  0  0  # atno 17320 bound_to 7965
  144.8147  140.6447  143.6392 LP  0  0  0  0  0  0  0  0  0  0  0  0  # atno 17321 bound_to 7965
  140.7813  143.4597  151.0295 LP  0  0  0  0  0  0  0  0  0  0  0  0  # atno 17342 bound_to 10162
  139.8281  143.7728  152.3179 LP  0  0  0  0  0  0  0  0  0  0  0  0  # atno 17343 bound_to 10162
  156.8959  130.5229  149.5284 LP  0  0  0  0  0  0  0  0  0  0  0  0  # atno 17370 bound_to 10713
  156.0698  130.5734  150.9361 LP  0  0  0  0  0  0  0  0  0  0  0  0  # atno 17371 bound_to 10713
  139.8707  134.9549  156.4189 LP  0  0  0  0  0  0  0  0  0  0  0  0  # atno 17394 bound_to 11000
  140.9072  133.7737  155.9749 LP  0  0  0  0  0  0  0  0  0  0  0  0  # atno 17395 bound_to 11000

$$$$
